Measured thermophysical data. Measurement, Correlation, and Thermodynamics Parameters of Biological Active Pyrimidine Derivatives in Organic Solvents at Different Temperatures
Source: J. Chem. Eng. Data, 2014, 10.1021/je5003626
Compound 1: N-(4-chlorophenyl)-4-(naphthalen-1-yloxy)pyrimidin-2-amine, C20H14ClN3O, InChI=1S/C20H14ClN3O/c21-15-8-10-16(11-9-15)23-20-22-13-12-19(24-20)25-18-7-3-5-14-4-1-2-6-17(14)18/h1-13H,(H,22,23,24), purity 98%
Compound 2: 4-(naphthalen-1-yloxy)-N-(p-tolyl)pyrimidin-2-amine, C21H17N3O, InChI=1S/C21H17N3O/c1-15-9-11-17(12-10-15)23-21-22-14-13-20(24-21)25-19-8-4-6-16-5-2-3-7-18(16)19/h2-14H,1H3,(H,22,23,24), purity 98%
Compound 3: N-(4-fluorophenyl)-4-(naphthalen-1-yloxy)pyrimidin-2-amine, C20H14FN3O, InChI=1S/C20H14FN3O/c21-15-8-10-16(11-9-15)23-20-22-13-12-19(24-20)25-18-7-3-5-14-4-1-2-6-17(14)18/h1-13H,(H,22,23,24), purity 98%
Compound 4: 4-(naphthalen-1-yloxy)-N-(3-(trifluoromethyl)phenyl)pyrimidin-2-amine, C21H14F3N3O, InChI=1S/C21H14F3N3O/c22-21(23,24)15-7-4-8-16(13-15)26-20-25-12-11-19(27-20)28-18-10-3-6-14-5-1-2-9-17(14)18/h1-13H,(H,25,26,27), purity 98%
Compound 5: N-(3-chloro-4-fluorophenyl)-4-(naphthalen-1-yloxy)pyrimidin-2-amine, C20H13ClFN3O, InChI=1S/C20H13ClFN3O/c21-16-12-14(8-9-17(16)22)24-20-23-11-10-19(25-20)26-18-7-3-5-13-4-1-2-6-15(13)18/h1-12H,(H,23,24,25), purity 98%
Compound 6: methanol, CH4O, InChI=1S/CH4O/c1-2/h2H,1H3, purity 99.7%
Compound 7: dimethylformamide, C3H7NO, InChI=1S/C3H7NO/c1-4(2)3-5/h3H,1-2H3, purity 99.7%
Compound 8: tetrachloromethane, CCl4, InChI=1S/CCl4/c2-1(3,4)5, purity 99.7%

System: N-(4-chlorophenyl)-4-(naphthalen-1-yloxy)pyrimidin-2-amine; phases: Crystal, Liquid, Air at 1 atmosphere
Property: Normal melting temperature, K (Crystal); method: DTA
Normal melting temperature, K	uncertainty
431.19	0.5

System: 4-(naphthalen-1-yloxy)-N-(p-tolyl)pyrimidin-2-amine; phases: Crystal, Liquid, Air at 1 atmosphere
Property: Normal melting temperature, K (Crystal); method: DTA
Normal melting temperature, K	uncertainty
567.75	0.5

System: N-(4-fluorophenyl)-4-(naphthalen-1-yloxy)pyrimidin-2-amine; phases: Crystal, Liquid, Air at 1 atmosphere
Property: Normal melting temperature, K (Crystal); method: DTA
Normal melting temperature, K	uncertainty
565.33	0.5

System: 4-(naphthalen-1-yloxy)-N-(3-(trifluoromethyl)phenyl)pyrimidin-2-amine; phases: Crystal, Liquid, Air at 1 atmosphere
Property: Normal melting temperature, K (Crystal); method: DTA
Normal melting temperature, K	uncertainty
522.39	0.5

System: N-(3-chloro-4-fluorophenyl)-4-(naphthalen-1-yloxy)pyrimidin-2-amine; phases: Crystal, Liquid, Air at 1 atmosphere
Property: Normal melting temperature, K (Crystal); method: DTA
Normal melting temperature, K	uncertainty
420.42	0.5

System: methanol + N-(4-chlorophenyl)-4-(naphthalen-1-yloxy)pyrimidin-2-amine; phases: Liquid, Crystal
Fixed: Pressure, kPa = 100
Property: Mole fraction of N-(4-chlorophenyl)-4-(naphthalen-1-yloxy)pyrimidin-2-amine (Liquid); method: Gravimetric Method
Temperature, K	Mole fraction of N-(4-chlorophenyl)-4-(naphthalen-1-yloxy)pyrimidin-2-amine	uncertainty
298.15	0.00113	5e-05
303.15	0.0013	5e-05
308.15	0.00144	6e-05
313.15	0.0016	6e-05
318.15	0.00175	7e-05
323.15	0.0019	8e-05
328.15	0.00207	8e-05

System: methanol + 4-(naphthalen-1-yloxy)-N-(p-tolyl)pyrimidin-2-amine; phases: Liquid, Crystal
Fixed: Pressure, kPa = 100
Property: Mole fraction of 4-(naphthalen-1-yloxy)-N-(p-tolyl)pyrimidin-2-amine (Liquid); method: Gravimetric Method
Temperature, K	Mole fraction of 4-(naphthalen-1-yloxy)-N-(p-tolyl)pyrimidin-2-amine	uncertainty
298.15	0.00531	0.00021
303.15	0.0056	0.00022
308.15	0.00589	0.00024
313.15	0.0062	0.00025
318.15	0.00666	0.00027
323.15	0.0069	0.00028
328.15	0.00718	0.00029

System: methanol + N-(4-fluorophenyl)-4-(naphthalen-1-yloxy)pyrimidin-2-amine; phases: Liquid, Crystal
Fixed: Pressure, kPa = 100
Property: Mole fraction of N-(4-fluorophenyl)-4-(naphthalen-1-yloxy)pyrimidin-2-amine (Liquid); method: Gravimetric Method
Temperature, K	Mole fraction of N-(4-fluorophenyl)-4-(naphthalen-1-yloxy)pyrimidin-2-amine	uncertainty
298.15	0.00234	9e-05
303.15	0.0025	0.0001
308.15	0.00261	0.0001
313.15	0.0028	0.0001
318.15	0.00297	0.00012
323.15	0.0032	0.0001
328.15	0.00335	0.00013

System: methanol + 4-(naphthalen-1-yloxy)-N-(3-(trifluoromethyl)phenyl)pyrimidin-2-amine; phases: Liquid, Crystal
Fixed: Pressure, kPa = 100
Property: Mole fraction of 4-(naphthalen-1-yloxy)-N-(3-(trifluoromethyl)phenyl)pyrimidin-2-amine (Liquid); method: Gravimetric Method
Temperature, K	Mole fraction of 4-(naphthalen-1-yloxy)-N-(3-(trifluoromethyl)phenyl)pyrimidin-2-amine	uncertainty
298.15	0.00233	9e-05
303.15	0.0025	0.0001
308.15	0.00262	0.00011
313.15	0.0028	0.0001
318.15	0.00298	0.00012
323.15	0.0032	0.0001
328.15	0.00343	0.00014

System: methanol + N-(3-chloro-4-fluorophenyl)-4-(naphthalen-1-yloxy)pyrimidin-2-amine; phases: Liquid, Crystal
Fixed: Pressure, kPa = 100
Property: Mole fraction of N-(3-chloro-4-fluorophenyl)-4-(naphthalen-1-yloxy)pyrimidin-2-amine (Liquid); method: Gravimetric Method
Temperature, K	Mole fraction of N-(3-chloro-4-fluorophenyl)-4-(naphthalen-1-yloxy)pyrimidin-2-amine	uncertainty
298.15	0.00212	9e-05
303.15	0.0023	0.0001
308.15	0.00238	0.0001
313.15	0.0026	0.0001
318.15	0.00274	0.00011
323.15	0.0029	0.0001
328.15	0.00305	0.00012

System: dimethylformamide + N-(4-chlorophenyl)-4-(naphthalen-1-yloxy)pyrimidin-2-amine; phases: Liquid, Crystal
Fixed: Pressure, kPa = 100
Property: Mole fraction of N-(4-chlorophenyl)-4-(naphthalen-1-yloxy)pyrimidin-2-amine (Liquid); method: Gravimetric Method
Temperature, K	Mole fraction of N-(4-chlorophenyl)-4-(naphthalen-1-yloxy)pyrimidin-2-amine	uncertainty
298.15	0.00221	9e-05
303.15	0.0024	0.0001
308.15	0.0026	0.0001
313.15	0.003	0.00012
318.15	0.0033	0.00013
323.15	0.0036	0.00014
328.15	0.0038	0.00015

System: dimethylformamide + 4-(naphthalen-1-yloxy)-N-(p-tolyl)pyrimidin-2-amine; phases: Liquid, Crystal
Fixed: Pressure, kPa = 100
Property: Mole fraction of 4-(naphthalen-1-yloxy)-N-(p-tolyl)pyrimidin-2-amine (Liquid); method: Gravimetric Method
Temperature, K	Mole fraction of 4-(naphthalen-1-yloxy)-N-(p-tolyl)pyrimidin-2-amine	uncertainty
298.15	0.00515	0.00021
303.15	0.0056	0.00023
308.15	0.00602	0.00024
313.15	0.0066	0.00027
318.15	0.00707	0.00028
323.15	0.0074	0.0003
328.15	0.00782	0.00031

System: dimethylformamide + N-(4-fluorophenyl)-4-(naphthalen-1-yloxy)pyrimidin-2-amine; phases: Liquid, Crystal
Fixed: Pressure, kPa = 100
Property: Mole fraction of N-(4-fluorophenyl)-4-(naphthalen-1-yloxy)pyrimidin-2-amine (Liquid); method: Gravimetric Method
Temperature, K	Mole fraction of N-(4-fluorophenyl)-4-(naphthalen-1-yloxy)pyrimidin-2-amine	uncertainty
298.15	0.00515	0.00021
303.15	0.0058	0.00023
308.15	0.00638	0.00026
313.15	0.007	0.00028
318.15	0.0077	0.00031
323.15	0.0083	0.00033
328.15	0.00889	0.00036

System: dimethylformamide + 4-(naphthalen-1-yloxy)-N-(3-(trifluoromethyl)phenyl)pyrimidin-2-amine; phases: Liquid, Crystal
Fixed: Pressure, kPa = 100
Property: Mole fraction of 4-(naphthalen-1-yloxy)-N-(3-(trifluoromethyl)phenyl)pyrimidin-2-amine (Liquid); method: Gravimetric Method
Temperature, K	Mole fraction of 4-(naphthalen-1-yloxy)-N-(3-(trifluoromethyl)phenyl)pyrimidin-2-amine	uncertainty
298.15	0.0064	0.00026
303.15	0.0067	0.00027
308.15	0.00693	0.00028
313.15	0.0072	0.00029
318.15	0.00747	0.0003
323.15	0.0078	0.00031
328.15	0.0082	0.00033

System: dimethylformamide + N-(3-chloro-4-fluorophenyl)-4-(naphthalen-1-yloxy)pyrimidin-2-amine; phases: Liquid, Crystal
Fixed: Pressure, kPa = 100
Property: Mole fraction of N-(3-chloro-4-fluorophenyl)-4-(naphthalen-1-yloxy)pyrimidin-2-amine (Liquid); method: Gravimetric Method
Temperature, K	Mole fraction of N-(3-chloro-4-fluorophenyl)-4-(naphthalen-1-yloxy)pyrimidin-2-amine	uncertainty
298.15	0.00353	0.00014
303.15	0.0041	0.00017
308.15	0.00462	0.00019
313.15	0.0056	0.00023
318.15	0.00648	0.00026
323.15	0.0072	0.00029
328.15	0.008	0.00032

System: tetrachloromethane + N-(4-chlorophenyl)-4-(naphthalen-1-yloxy)pyrimidin-2-amine; phases: Liquid, Crystal
Fixed: Pressure, kPa = 100
Property: Mole fraction of N-(4-chlorophenyl)-4-(naphthalen-1-yloxy)pyrimidin-2-amine (Liquid); method: Gravimetric Method
Temperature, K	Mole fraction of N-(4-chlorophenyl)-4-(naphthalen-1-yloxy)pyrimidin-2-amine	uncertainty
298.15	0.00034	2e-05
303.15	0.0005	2e-05
308.15	0.00069	3e-05
313.15	0.0009	4e-05
318.15	0.00112	5e-05
323.15	0.0016	7e-05
328.15	0.00204	8e-05

System: tetrachloromethane + 4-(naphthalen-1-yloxy)-N-(p-tolyl)pyrimidin-2-amine; phases: Liquid, Crystal
Fixed: Pressure, kPa = 100
Property: Mole fraction of 4-(naphthalen-1-yloxy)-N-(p-tolyl)pyrimidin-2-amine (Liquid); method: Gravimetric Method
Temperature, K	Mole fraction of 4-(naphthalen-1-yloxy)-N-(p-tolyl)pyrimidin-2-amine	uncertainty
298.15	0.00042	2e-05
303.15	0.0006	3e-05
308.15	0.00086	4e-05
313.15	0.0011	5e-05
318.15	0.00144	6e-05
323.15	0.0018	7e-05
328.15	0.0021	9e-05

System: tetrachloromethane + N-(4-fluorophenyl)-4-(naphthalen-1-yloxy)pyrimidin-2-amine; phases: Liquid, Crystal
Fixed: Pressure, kPa = 100
Property: Mole fraction of N-(4-fluorophenyl)-4-(naphthalen-1-yloxy)pyrimidin-2-amine (Liquid); method: Gravimetric Method
Temperature, K	Mole fraction of N-(4-fluorophenyl)-4-(naphthalen-1-yloxy)pyrimidin-2-amine	uncertainty
298.15	0.00077	3e-05
303.15	0.0009	4e-05
308.15	0.00111	5e-05
313.15	0.0013	5e-05
318.15	0.00148	6e-05
323.15	0.0018	7e-05
328.15	0.002	8e-05

System: tetrachloromethane + 4-(naphthalen-1-yloxy)-N-(3-(trifluoromethyl)phenyl)pyrimidin-2-amine; phases: Liquid, Crystal
Fixed: Pressure, kPa = 100
Property: Mole fraction of 4-(naphthalen-1-yloxy)-N-(3-(trifluoromethyl)phenyl)pyrimidin-2-amine (Liquid); method: Gravimetric Method
Temperature, K	Mole fraction of 4-(naphthalen-1-yloxy)-N-(3-(trifluoromethyl)phenyl)pyrimidin-2-amine	uncertainty
298.15	0.00126	5e-05
303.15	0.0014	6e-05
308.15	0.0016	6e-05
313.15	0.0018	7e-05
318.15	0.0018	0.0002
323.15	0.0021	8e-05
328.15	0.00231	9e-05

System: tetrachloromethane + N-(3-chloro-4-fluorophenyl)-4-(naphthalen-1-yloxy)pyrimidin-2-amine; phases: Liquid, Crystal
Fixed: Pressure, kPa = 100
Property: Mole fraction of N-(3-chloro-4-fluorophenyl)-4-(naphthalen-1-yloxy)pyrimidin-2-amine (Liquid); method: Gravimetric Method
Temperature, K	Mole fraction of N-(3-chloro-4-fluorophenyl)-4-(naphthalen-1-yloxy)pyrimidin-2-amine	uncertainty
298.15	0.00137	6e-05
303.15	0.0016	6e-05
308.15	0.00177	7e-05
313.15	0.0021	9e-05
318.15	0.00237	0.0001
323.15	0.0027	0.00011
328.15	0.00293	0.00012
