Measured thermophysical data. Osmotic Coefficients and Activity Coefficients in Aqueous Aminoethanoic Acid NaCl Mixtures at 298.15 K
Source: J. Chem. Eng. Data, 2014, 10.1021/je500271z
Compound 1: 2-aminoacetic acid, C2H5NO2, InChI=1S/C2H5NO2/c3-1-2(4)5/h1,3H2,(H,4,5)
Compound 2: sodium chloride, ClNa, InChI=1S/ClH.Na/h1H;/q;+1/p-1, purity 99.9%
Compound 3: water, H2O, InChI=1S/H2O/h1H2

System: 2-aminoacetic acid + sodium chloride + water; phases: Liquid, Gas
Fixed: Temperature, K = 298.15
Property: Osmotic coefficient (Liquid); method: vapor pressure osmometry
Molality, mol/kg of sodium chloride	Molality, mol/kg of 2-aminoacetic acid	Osmotic coefficient	uncertainty
0.50582	0	0.9219	0.0202
0.50582	0.08741	0.7796	0.0215
0.50582	0.39909	0.7326	0.0221
0.50582	0.85321	0.7931	0.0213
0.50582	1.43902	0.7731	0.0215
0.50582	1.44599	0.8234	0.021
0.50582	2.02745	0.8074	0.0211
0.50582	2.28046	0.8015	0.0212
0.50582	2.39291	0.7881	0.0214
0.50582	2.64707	0.8152	0.021
1.9927	0	0.9761	0.02
1.9927	0.22284	0.8804	0.0204
1.9927	0.44648	0.8884	0.0204
1.9927	0.90609	0.8754	0.0205
1.9927	1.01168	0.8944	0.0203
1.9927	1.4621	0.8804	0.0204
1.9927	2.54545	0.8654	0.0206
1.9927	2.73572	0.8937	0.0204
1.9927	2.88719	0.8961	0.0203
1.9927	3.64729	0.8544	0.0207
0.24849	0	0.9495	0.0201
0.24849	0.12879	0.8749	0.0205
0.24849	0.61034	0.8031	0.0212
0.24849	0.99701	0.8174	0.021
0.24849	1.52204	0.8542	0.0207
0.24849	2.00934	0.8866	0.0204
0.24849	2.27462	0.9172	0.0202
0.24849	2.70907	0.9551	0.0201
0.24849	2.73868	0.9632	0.02
0.24849	3.10404	1.0416	0.0201

System: sodium chloride + water; phases: Liquid, Gas
Fixed: Temperature, K = 298.15
Property: Osmotic coefficient (Liquid); method: vapor pressure osmometry
Molality, mol/kg of sodium chloride	Osmotic coefficient	uncertainty
0.50582	0.9219	0.0202
1.9927	0.9761	0.02
0.24849	0.9495	0.0201
