Measured thermophysical data. Evaluation of the Vaporization Enthalpies and Liquid Vapor Pressures of (R)-Deprenyl, (S)-Benzphetamine, Alverine, and a Series of Aliphatic Tertiary Amines by Correlation Gas Chromatography at T/K = 298.15
Source: J. Chem. Eng. Data, 2014, 10.1021/je500358r
Compound 1: tripropylamine, C9H21N, InChI=1S/C9H21N/c1-4-7-10(8-5-2)9-6-3/h4-9H2,1-3H3, purity 99%
Compound 2: triisobutylamine, C12H27N, InChI=1S/C12H27N/c1-10(2)7-13(8-11(3)4)9-12(5)6/h10-12H,7-9H2,1-6H3, purity 98%
Compound 3: tributylamine, C12H27N, InChI=1S/C12H27N/c1-4-7-10-13(11-8-5-2)12-9-6-3/h4-12H2,1-3H3, purity 97%
Compound 4: (R)-N-methyl-N-(1-phenylpropan-2-yl)prop-2-yn-1-amine, C13H17N, InChI=1S/C13H17N/c1-4-10-14(3)12(2)11-13-8-6-5-7-9-13/h1,5-9,12H,10-11H2,2-3H3/t12-/m1/s1, purity 98%
Compound 5: 1-tetradecanamine, N,N-dimethyl-, C16H35N, InChI=1S/C16H35N/c1-4-5-6-7-8-9-10-11-12-13-14-15-16-17(2)3/h4-16H2,1-3H3, purity 95%
Compound 6: (S)-N-benzyl-N-methyl-1-phenylpropan-2-amine, C17H21N, InChI=1S/C17H21N/c1-15(13-16-9-5-3-6-10-16)18(2)14-17-11-7-4-8-12-17/h3-12,15H,13-14H2,1-2H3/t15-/m0/s1, purity 99%
Compound 7: 1-hexadecanamine, N,N-dimethyl-, C18H39N, InChI=1S/C18H39N/c1-4-5-6-7-8-9-10-11-12-13-14-15-16-17-18-19(2)3/h4-18H2,1-3H3, purity 95%
Compound 8: N-ethyl-3-phenyl-N-(3-phenylpropyl)propan-1-amine, C20H27N, InChI=1S/C20H27N/c1-2-21(17-9-15-19-11-5-3-6-12-19)18-10-16-20-13-7-4-8-14-20/h3-8,11-14H,2,9-10,15-18H2,1H3, purity 99%
Compound 9: benzenemethanamine, N,N-bis(phenylmethyl)-, C21H21N, InChI=1S/C21H21N/c1-4-10-19(11-5-1)16-22(17-20-12-6-2-7-13-20)18-21-14-8-3-9-15-21/h1-15H,16-18H2, purity 98%
Compound 10: trioctylamine, C24H51N, InChI=1S/C24H51N/c1-4-7-10-13-16-19-22-25(23-20-17-14-11-8-5-2)24-21-18-15-12-9-6-3/h4-24H2,1-3H3, purity 98%

System: tripropylamine; phases: Liquid, Gas
Property: Vapor or sublimation pressure, kPa (Liquid); method: Gas chromatography
Temperature, K	Vapor or sublimation pressure, kPa	uncertainty
283.15	0.199	0.02
288.15	0.278	0.028
293.15	0.384	0.038
298.15	0.524	0.052
303.15	0.709	0.071
308.15	0.949	0.095
313.15	1.259	0.126

System: triisobutylamine; phases: Liquid, Gas
Property: Molar enthalpy of vaporization or sublimation, kJ/mol (Liquid); method: DSC
Temperature, K	Molar enthalpy of vaporization or sublimation, kJ/mol	uncertainty
298	52.3	4.6

System: triisobutylamine; phases: Liquid, Gas
Property: Vapor or sublimation pressure, kPa (Liquid); method: Gas chromatography
Temperature, K	Vapor or sublimation pressure, kPa	uncertainty
283.15	0.037	0.004
288.15	0.055	0.006
293.15	0.079	0.008
298.15	0.113	0.011
303.15	0.159	0.016
308.15	0.222	0.022
313.15	0.306	0.031

System: tributylamine; phases: Liquid, Gas
Property: Molar enthalpy of vaporization or sublimation, kJ/mol (Liquid); method: DSC
Temperature, K	Molar enthalpy of vaporization or sublimation, kJ/mol	uncertainty
298	58	4.1

System: tributylamine; phases: Liquid, Gas
Property: Vapor or sublimation pressure, kPa (Liquid); method: Gas chromatography
Temperature, K	Vapor or sublimation pressure, kPa	uncertainty
283.15	0.008	0.001
288.15	0.013	0.001
293.15	0.019	0.002
298.15	0.028	0.003
303.15	0.042	0.004
308.15	0.06	0.006
313.15	0.087	0.009

System: (R)-N-methyl-N-(1-phenylpropan-2-yl)prop-2-yn-1-amine; phases: Liquid, Gas
Property: Molar enthalpy of vaporization or sublimation, kJ/mol (Liquid); method: DSC
Temperature, K	Molar enthalpy of vaporization or sublimation, kJ/mol	uncertainty
298	64.3	4.7

System: (R)-N-methyl-N-(1-phenylpropan-2-yl)prop-2-yn-1-amine; phases: Liquid, Gas
Property: Vapor or sublimation pressure, kPa (Liquid); method: Gas chromatography
Temperature, K	Vapor or sublimation pressure, kPa	uncertainty
283.15	0.0006	0.0001
288.15	0.001	0.0001
293.15	0.0016	0.0002
298.15	0.0025	0.0003
303.15	0.0038	0.0004
308.15	0.0058	0.0006
313.15	0.0086	0.0009

System: 1-tetradecanamine, N,N-dimethyl-; phases: Liquid, Gas
Property: Molar enthalpy of vaporization or sublimation, kJ/mol (Liquid); method: DSC
Temperature, K	Molar enthalpy of vaporization or sublimation, kJ/mol	uncertainty
298	77.3	4.2

System: 1-tetradecanamine, N,N-dimethyl-; phases: Liquid, Gas
Property: Vapor or sublimation pressure, kPa (Liquid); method: Gas chromatography
Temperature, K	Vapor or sublimation pressure, kPa	uncertainty
283.15	1.7e-05	2e-06
288.15	3.1e-05	3e-06
293.15	5.4e-05	5e-06
298.15	9.2e-05	9e-06
303.15	0.000153	1.5e-05
308.15	0.000253	2.5e-05
313.15	0.00041	4.1e-05

System: (S)-N-benzyl-N-methyl-1-phenylpropan-2-amine; phases: Liquid, Gas
Property: Molar enthalpy of vaporization or sublimation, kJ/mol (Liquid); method: DSC
Temperature, K	Molar enthalpy of vaporization or sublimation, kJ/mol	uncertainty
298	77.2	2.3

System: (S)-N-benzyl-N-methyl-1-phenylpropan-2-amine; phases: Liquid, Gas
Property: Vapor or sublimation pressure, kPa (Liquid); method: Gas chromatography
Temperature, K	Vapor or sublimation pressure, kPa	uncertainty
283.15	8e-06	1e-06
288.15	1.4e-05	2e-06
293.15	2.4e-05	2e-06
298.15	4e-05	4e-06
303.15	6.7e-05	7e-06
308.15	0.000111	1.1e-05
313.15	0.000179	1.8e-05

System: 1-hexadecanamine, N,N-dimethyl-; phases: Liquid, Gas
Property: Molar enthalpy of vaporization or sublimation, kJ/mol (Liquid); method: DSC
Temperature, K	Molar enthalpy of vaporization or sublimation, kJ/mol	uncertainty
298	84.8	12.2

System: 1-hexadecanamine, N,N-dimethyl-; phases: Liquid, Gas
Property: Vapor or sublimation pressure, kPa (Liquid); method: Gas chromatography
Temperature, K	Vapor or sublimation pressure, kPa	uncertainty
283.15	2e-06	1e-06
288.15	3e-06	1e-06
293.15	6e-06	1e-06
298.15	1.1e-05	1e-06
303.15	1.9e-05	2e-06
308.15	3.2e-05	3e-06
313.15	5.5e-05	6e-06

System: N-ethyl-3-phenyl-N-(3-phenylpropyl)propan-1-amine; phases: Liquid, Gas
Property: Molar enthalpy of vaporization or sublimation, kJ/mol (Liquid); method: DSC
Temperature, K	Molar enthalpy of vaporization or sublimation, kJ/mol	uncertainty
298	89.3	2.8

System: N-ethyl-3-phenyl-N-(3-phenylpropyl)propan-1-amine; phases: Liquid, Gas
Property: Vapor or sublimation pressure, kPa (Liquid); method: Gas chromatography
Temperature, K	Vapor or sublimation pressure, kPa	uncertainty
283.15	2e-07	1e-07
288.15	4e-07	1e-07
293.15	7e-07	1e-07
298.15	1.4e-06	2e-07
303.15	2.5e-06	3e-07
308.15	4.5e-06	5e-07
313.15	7.8e-06	8e-07

System: benzenemethanamine, N,N-bis(phenylmethyl)-; phases: Liquid, Gas
Property: Molar enthalpy of vaporization or sublimation, kJ/mol (Liquid); method: DSC
Temperature, K	Molar enthalpy of vaporization or sublimation, kJ/mol	uncertainty
298	92.4	3.5

System: benzenemethanamine, N,N-bis(phenylmethyl)-; phases: Crystal 2, Crystal 1, Air at 1 atmosphere
Property: Molar enthalpy of transition or fusion, kJ/mol (Crystal 2); method: DSC
Molar enthalpy of transition or fusion, kJ/mol	uncertainty
1.1041	0.2091

System: benzenemethanamine, N,N-bis(phenylmethyl)-; phases: Crystal 2, Crystal 1, Air at 1 atmosphere
Property: Triple point temperature, K (Crystal 2); method: DTA
Triple point temperature, K	uncertainty
342.5	0.9

System: benzenemethanamine, N,N-bis(phenylmethyl)-; phases: Crystal 1, Liquid, Air at 1 atmosphere
Property: Molar enthalpy of transition or fusion, kJ/mol (Crystal 1); method: DSC
Molar enthalpy of transition or fusion, kJ/mol	uncertainty
23.028	0.533

System: benzenemethanamine, N,N-bis(phenylmethyl)-; phases: Crystal 1, Liquid, Air at 1 atmosphere
Property: Normal melting temperature, K (Crystal 1); method: DTA
Normal melting temperature, K	uncertainty
365.6	0.4

System: benzenemethanamine, N,N-bis(phenylmethyl)-; phases: Liquid, Gas
Property: Vapor or sublimation pressure, kPa (Liquid); method: Gas chromatography
Temperature, K	Vapor or sublimation pressure, kPa	uncertainty
283.15	7e-08	2e-08
288.15	1.4e-07	2e-08
293.15	2.7e-07	4e-08
298.15	5e-07	6e-08
303.15	9.3e-07	1e-07
308.15	1.7e-06	1.8e-07
313.15	3.03e-06	3.1e-07

System: trioctylamine; phases: Liquid, Gas
Property: Molar enthalpy of vaporization or sublimation, kJ/mol (Liquid); method: DSC
Temperature, K	Molar enthalpy of vaporization or sublimation, kJ/mol	uncertainty
298	100.1	3.5

System: trioctylamine; phases: Liquid, Gas
Property: Vapor or sublimation pressure, kPa (Liquid); method: Gas chromatography
Temperature, K	Vapor or sublimation pressure, kPa	uncertainty
283.15	2e-08	1e-08
288.15	3e-08	1e-08
293.15	7e-08	2e-08
298.15	1.4e-07	2e-08
303.15	2.8e-07	4e-08
308.15	5.3e-07	6e-08
313.15	1e-06	1.1e-07
