Measured thermophysical data. Temperature Dependence of the Density of Aqueous Alkali Halide Salt Solutions by Experiment and Molecular Simulation
Source: J. Chem. Eng. Data, 2014, 10.1021/je500420g
Compound 1: lithium chloride, ClLi, InChI=1S/ClH.Li/h1H;/q;+1/p-1, purity 99%
Compound 2: lithium bromide, BrLi, InChI=1S/BrH.Li/h1H;/q;+1/p-1, purity 99.999%
Compound 3: lithium iodide, ILi, InChI=1S/HI.Li/h1H;/q;+1/p-1, purity 99%
Compound 4: sodium fluoride, FNa, InChI=1S/FH.Na/h1H;/q;+1/p-1, purity 99%
Compound 5: sodium chloride, ClNa, InChI=1S/ClH.Na/h1H;/q;+1/p-1, purity 99.5%
Compound 6: sodium bromide, BrNa, InChI=1S/BrH.Na/h1H;/q;+1/p-1, purity 99%
Compound 7: sodium iodide, INa, InChI=1S/HI.Na/h1H;/q;+1/p-1, purity 99.5%
Compound 8: potassium fluoride, FK, InChI=1S/FH.K/h1H;/q;+1/p-1, purity 99%
Compound 9: potassium chloride, ClK, InChI=1S/ClH.K/h1H;/q;+1/p-1, purity 99.5%
Compound 10: potassium bromide, BrK, InChI=1S/BrH.K/h1H;/q;+1/p-1, purity 99.5%
Compound 11: potassium iodide, IK, InChI=1S/HI.K/h1H;/q;+1/p-1, purity 99%
Compound 12: rubidium fluoride (RbF), FRb, InChI=1S/FH.Rb/h1H;/q;+1/p-1, purity 99.8%
Compound 13: rubidium chloride, ClRb, InChI=1S/ClH.Rb/h1H;/q;+1/p-1, purity 99.8%
Compound 14: rubidium bromide, BrRb, InChI=1S/BrH.Rb/h1H;/q;+1/p-1, purity 99.7%
Compound 15: rubidium iodide (RbI), IRb, InChI=1S/HI.Rb/h1H;/q;+1/p-1, purity 99.8%
Compound 16: cesium fluoride (CsF), CsF, InChI=1S/Cs.FH/h;1H/q+1;/p-1, purity 99.9%
Compound 17: cesium chloride, ClCs, InChI=1S/ClH.Cs/h1H;/q;+1/p-1, purity 99.999%
Compound 18: cesium bromide, BrCs, InChI=1S/BrH.Cs/h1H;/q;+1/p-1, purity 99.5%
Compound 19: cesium iodide, CsI, InChI=1S/Cs.HI/h;1H/q+1;/p-1, purity 99.999%
Compound 20: water, H2O, InChI=1S/H2O/h1H2

System: lithium chloride + water; phases: Liquid
Fixed: Pressure, kPa = 100
Property: Mass density, kg/m3 (Liquid); method: Vibrating tube method
Temperature, K	Mole fraction of lithium chloride	Mass density, kg/m3	uncertainty
293.15	0.01	1012.3	0.2
293.15	0.03	1038.5	0.2
293.15	0.05	1064.1	0.2
303.15	0.01	1009.7	0.2
303.15	0.03	1035.7	0.2
303.15	0.05	1061.2	0.2
313.15	0.01	1006.2	0.2
313.15	0.03	1032.3	0.2
313.15	0.05	1057.9	0.2
323.15	0.01	1002.1	0.2
323.15	0.03	1028.3	0.2
323.15	0.05	1054	0.2
333.15	0.01	997.4	0.2
333.15	0.03	1023.8	0.2
333.15	0.05	1049.8	0.2

System: lithium bromide + water; phases: Liquid
Fixed: Pressure, kPa = 100
Property: Mass density, kg/m3 (Liquid); method: Vibrating tube method
Temperature, K	Mole fraction of lithium bromide	Mass density, kg/m3	uncertainty
293.15	0.01	1033.5	0.2
293.15	0.03	1101.8	0.3
293.15	0.05	1171.5	0.3
303.15	0.01	1030.2	0.2
303.15	0.03	1098	0.3
303.15	0.05	1168	0.3
313.15	0.01	1026.3	0.2
313.15	0.03	1093.9	0.3
313.15	0.05	1163.9	0.3
323.15	0.01	1022	0.2
323.15	0.03	1089.4	0.3
323.15	0.05	1159.3	0.3
333.15	0.01	1017.2	0.2
333.15	0.03	1084.6	0.3
333.15	0.05	1154.3	0.3

System: water + lithium iodide; phases: Liquid
Fixed: Pressure, kPa = 100
Property: Mass density, kg/m3 (Liquid); method: Vibrating tube method
Temperature, K	Mole fraction of lithium iodide	Mass density, kg/m3	uncertainty
293.15	0.01	1053.3	0.2
293.15	0.03	1160.8	0.3
293.15	0.05	1268.1	0.4
303.15	0.01	1049.8	0.2
303.15	0.03	1156.3	0.3
303.15	0.05	1262.7	0.4
313.15	0.01	1045.7	0.2
313.15	0.03	1151	0.3
313.15	0.05	1257.2	0.4
323.15	0.01	1041.2	0.2
323.15	0.03	1146.1	0.3
323.15	0.05	1251.4	0.4
333.15	0.01	1036.2	0.2
333.15	0.03	1140.7	0.3
333.15	0.05	1245.5	0.4

System: sodium fluoride + water; phases: Liquid
Fixed: Mole fraction of sodium fluoride = 0.01
Fixed: Pressure, kPa = 100
Property: Mass density, kg/m3 (Liquid); method: Vibrating tube method
Temperature, K	Mass density, kg/m3	uncertainty
293.15	1022.7	0.2
303.15	1019.7	0.2
313.15	1016	0.2
323.15	1011.5	0.2
333.15	1006.5	0.2

System: sodium chloride + water; phases: Liquid
Fixed: Pressure, kPa = 100
Property: Mass density, kg/m3 (Liquid); method: Vibrating tube method
Temperature, K	Mole fraction of sodium chloride	Mass density, kg/m3	uncertainty
293.15	0.01	1021.3	0.2
293.15	0.03	1066.2	0.2
293.15	0.05	1110.8	0.3
303.15	0.01	1018.3	0.2
303.15	0.03	1062.4	0.2
303.15	0.05	1106.2	0.3
313.15	0.01	1014.5	0.2
313.15	0.03	1058	0.2
313.15	0.05	1101.6	0.3
323.15	0.01	1010.1	0.2
323.15	0.03	1052.4	0.2
323.15	0.05	1096.4	0.3
333.15	0.01	1005.1	0.2
333.15	0.03	1047.6	0.2
333.15	0.05	1090.9	0.3

System: sodium bromide + water; phases: Liquid
Fixed: Pressure, kPa = 100
Property: Mass density, kg/m3 (Liquid); method: Vibrating tube method
Temperature, K	Mole fraction of sodium bromide	Mass density, kg/m3	uncertainty
293.15	0.01	1043.6	0.2
293.15	0.03	1129.5	0.3
293.15	0.05	1217.1	0.3
303.15	0.01	1040	0.2
303.15	0.03	1125.2	0.3
303.15	0.05	1211.8	0.3
313.15	0.01	1035.8	0.2
313.15	0.03	1120.4	0.3
313.15	0.05	1206.2	0.3
323.15	0.01	1031.1	0.2
323.15	0.03	1115.1	0.3
323.15	0.05	1200.2	0.3
333.15	0.01	1026	0.2
333.15	0.03	1109.4	0.3
333.15	0.05	1194	0.3

System: sodium iodide + water; phases: Liquid
Fixed: Pressure, kPa = 100
Property: Mass density, kg/m3 (Liquid); method: Vibrating tube method
Temperature, K	Mole fraction of sodium iodide	Mass density, kg/m3	uncertainty
293.15	0.01	1061.7	0.2
293.15	0.03	1186.7	0.3
293.15	0.05	1309.5	0.4
303.15	0.01	1058.4	0.2
303.15	0.03	1181.8	0.3
303.15	0.05	1303.2	0.4
313.15	0.01	1054.2	0.2
313.15	0.03	1176.3	0.3
313.15	0.05	1296.5	0.4
323.15	0.01	1049.5	0.2
323.15	0.03	1169.1	0.3
323.15	0.05	1289.5	0.4
333.15	0.01	1044.1	0.2
333.15	0.03	1163.4	0.3
333.15	0.05	1282.2	0.4

System: water + potassium fluoride; phases: Liquid
Fixed: Pressure, kPa = 100
Property: Mass density, kg/m3 (Liquid); method: Vibrating tube method
Temperature, K	Mole fraction of potassium fluoride	Mass density, kg/m3	uncertainty
293.15	0.01	1025.7	0.2
293.15	0.03	1080.5	0.2
293.15	0.05	1135.5	0.3
303.15	0.01	1022.8	0.2
303.15	0.03	1077	0.2
303.15	0.05	1130.7	0.3
313.15	0.01	1019.2	0.2
313.15	0.03	1072.9	0.2
313.15	0.05	1126.5	0.3
323.15	0.01	1014.8	0.2
323.15	0.03	1068.4	0.2
323.15	0.05	1121.9	0.3
333.15	0.01	1010	0.2
333.15	0.03	1063.5	0.2
333.15	0.05	1116.9	0.3

System: potassium chloride + water; phases: Liquid
Fixed: Pressure, kPa = 100
Property: Mass density, kg/m3 (Liquid); method: Vibrating tube method
Temperature, K	Mole fraction of potassium chloride	Mass density, kg/m3	uncertainty
293.15	0.01	1024.3	0.2
293.15	0.03	1074.8	0.2
293.15	0.05	1123.6	0.3
303.15	0.01	1021.4	0.2
303.15	0.03	1071.2	0.2
303.15	0.05	1119.6	0.3
313.15	0.01	1017.7	0.2
313.15	0.03	1067	0.2
313.15	0.05	1115.1	0.3
323.15	0.01	1013.3	0.2
323.15	0.03	1062.4	0.2
323.15	0.05	1110.2	0.3
333.15	0.01	1008.4	0.2
333.15	0.03	1057.2	0.3
333.15	0.05	1104.9	0.3

System: water + potassium bromide; phases: Liquid
Fixed: Pressure, kPa = 100
Property: Mass density, kg/m3 (Liquid); method: Vibrating tube method
Temperature, K	Mole fraction of potassium bromide	Mass density, kg/m3	uncertainty
293.15	0.01	1045.7	0.2
293.15	0.03	1137.7	0.3
293.15	0.05	1227.4	0.3
303.15	0.01	1042.6	0.2
303.15	0.03	1133.7	0.3
303.15	0.05	1222.6	0.3
313.15	0.01	1038.7	0.2
313.15	0.03	1129.1	0.3
313.15	0.05	1217.4	0.3
323.15	0.01	1034.2	0.2
323.15	0.03	1123.9	0.3
323.15	0.05	1211.7	0.3
333.15	0.01	1029.2	0.2
333.15	0.03	1118.4	0.3
333.15	0.05	1205.7	0.3

System: potassium iodide + water; phases: Liquid
Fixed: Pressure, kPa = 100
Property: Mass density, kg/m3 (Liquid); method: Vibrating tube method
Temperature, K	Mole fraction of potassium iodide	Mass density, kg/m3	uncertainty
293.15	0.01	1065.2	0.2
293.15	0.03	1194	0.3
293.15	0.05	1317.9	0.4
303.15	0.01	1061.9	0.2
303.15	0.03	1189.3	0.3
303.15	0.05	1312.1	0.4
313.15	0.01	1057.9	0.2
313.15	0.03	1184.1	0.3
313.15	0.05	1306	0.4
323.15	0.01	1053.2	0.2
323.15	0.03	1178.4	0.3
323.15	0.05	1299.3	0.4
333.15	0.01	1047.9	0.2
333.15	0.03	1172.3	0.3
333.15	0.05	1292.4	0.4

System: water + rubidium fluoride (RbF); phases: Liquid
Fixed: Pressure, kPa = 100
Property: Mass density, kg/m3 (Liquid); method: Vibrating tube method
Temperature, K	Mole fraction of rubidium fluoride (RbF)	Mass density, kg/m3	uncertainty
293.15	0.01	1048.7	0.2
293.15	0.03	1150.6	0.3
293.15	0.05	1250.3	0.4
303.15	0.01	1045.7	0.2
303.15	0.03	1146.5	0.3
303.15	0.05	1246.1	0.4
313.15	0.01	1042	0.2
313.15	0.03	1141.9	0.3
313.15	0.05	1241.4	0.4
323.15	0.01	1037.6	0.2
323.15	0.03	1137	0.3
323.15	0.05	1236.2	0.4
333.15	0.01	1032.6	0.2
333.15	0.03	1131.6	0.3
333.15	0.05	1230.6	0.4

System: water + rubidium chloride; phases: Liquid
Fixed: Pressure, kPa = 100
Property: Mass density, kg/m3 (Liquid); method: Vibrating tube method
Temperature, K	Mole fraction of rubidium chloride	Mass density, kg/m3	uncertainty
293.15	0.01	1048.3	0.2
293.15	0.03	1144.2	0.3
293.15	0.05	1237.9	0.3
303.15	0.01	1044.8	0.2
303.15	0.03	1139.8	0.3
303.15	0.05	1232.8	0.3
313.15	0.01	1040.7	0.2
313.15	0.03	1135	0.3
313.15	0.05	1227.5	0.3
323.15	0.01	1036.1	0.2
323.15	0.03	1130	0.3
323.15	0.05	1222	0.3
333.15	0.01	1031.2	0.2
333.15	0.03	1124.7	0.3
333.15	0.05	1216.3	0.3

System: water + rubidium bromide; phases: Liquid
Fixed: Pressure, kPa = 100
Property: Mass density, kg/m3 (Liquid); method: Vibrating tube method
Temperature, K	Mole fraction of rubidium bromide	Mass density, kg/m3	uncertainty
293.15	0.01	1068.6	0.2
293.15	0.03	1204.6	0.3
293.15	0.05	1336.9	0.4
303.15	0.01	1065	0.2
303.15	0.03	1199.7	0.3
303.15	0.05	1331	0.4
313.15	0.01	1060.7	0.2
313.15	0.03	1194.5	0.3
313.15	0.05	1324.9	0.4
323.15	0.01	1056	0.2
323.15	0.03	1188.9	0.3
323.15	0.05	1318.6	0.4
333.15	0.01	1050.9	0.2
333.15	0.03	1182.9	0.3
333.15	0.05	1312.2	0.4

System: water + rubidium iodide (RbI); phases: Liquid
Fixed: Pressure, kPa = 100
Property: Mass density, kg/m3 (Liquid); method: Vibrating tube method
Temperature, K	Mole fraction of rubidium iodide (RbI)	Mass density, kg/m3	uncertainty
293.15	0.01	1088.1	0.2
293.15	0.03	1259.7	0.4
293.15	0.05	1423.2	0.5
303.15	0.01	1084.2	0.2
303.15	0.03	1254.2	0.4
303.15	0.05	1416.3	0.5
313.15	0.01	1079.8	0.2
313.15	0.03	1248.4	0.4
313.15	0.05	1409.2	0.5
323.15	0.01	1074.9	0.3
323.15	0.03	1242.3	0.4
323.15	0.05	1402	0.5
333.15	0.01	1069.6	0.3
333.15	0.03	1235.9	0.4
333.15	0.05	1394.6	0.5

System: water + cesium fluoride (CsF); phases: Liquid
Fixed: Pressure, kPa = 100
Property: Mass density, kg/m3 (Liquid); method: Vibrating tube method
Temperature, K	Mole fraction of cesium fluoride (CsF)	Mass density, kg/m3	uncertainty
293.15	0.01	1070.9	0.2
293.15	0.03	1210.1	0.3
293.15	0.05	1349.9	0.4
303.15	0.01	1068	0.2
303.15	0.03	1206.2	0.3
303.15	0.05	1345.4	0.4
313.15	0.01	1064.3	0.2
313.15	0.03	1201.7	0.3
313.15	0.05	1340.4	0.4
323.15	0.01	1059.9	0.3
323.15	0.03	1196.6	0.3
323.15	0.05	1334.9	0.4
333.15	0.01	1053	0.3
333.15	0.03	1190.9	0.3
333.15	0.05	1329.1	0.4

System: cesium chloride + water; phases: Liquid
Fixed: Pressure, kPa = 100
Property: Mass density, kg/m3 (Liquid); method: Vibrating tube method
Temperature, K	Mole fraction of cesium chloride	Mass density, kg/m3	uncertainty
293.15	0.01	1069.9	0.2
293.15	0.03	1208.3	0.3
293.15	0.05	1342.6	0.4
303.15	0.01	1066.3	0.2
303.15	0.03	1203.6	0.3
303.15	0.05	1337	0.4
313.15	0.01	1062.1	0.2
313.15	0.03	1198.6	0.3
313.15	0.05	1331.2	0.4
323.15	0.01	1057.5	0.2
323.15	0.03	1193.2	0.3
323.15	0.05	1325.2	0.4
333.15	0.01	1052.4	0.2
333.15	0.03	1187.7	0.3
333.15	0.05	1319.1	0.4

System: water + cesium bromide; phases: Liquid
Fixed: Pressure, kPa = 100
Property: Mass density, kg/m3 (Liquid); method: Vibrating tube method
Temperature, K	Mole fraction of cesium bromide	Mass density, kg/m3	uncertainty
293.15	0.01	1090.5	0.2
293.15	0.03	1267.9	0.4
293.15	0.05	1438.8	0.5
303.15	0.01	1086.7	0.2
303.15	0.03	1262.8	0.4
303.15	0.05	1432.6	0.5
313.15	0.01	1082.3	0.3
313.15	0.03	1257.3	0.4
313.15	0.05	1426	0.5
323.15	0.01	1077.6	0.3
323.15	0.03	1251.5	0.4
323.15	0.05	1419.3	0.5
333.15	0.01	1072.4	0.3
333.15	0.03	1245.5	0.4
333.15	0.05	1412.4	0.5

System: water + cesium iodide; phases: Liquid
Fixed: Pressure, kPa = 100
Property: Mass density, kg/m3 (Liquid); method: Vibrating tube method
Temperature, K	Mole fraction of cesium iodide	Mass density, kg/m3	uncertainty
293.15	0.01	1109.5	0.3
293.15	0.03	1320.7	0.4
293.15	0.05	1519.4	0.6
303.15	0.01	1105.6	0.3
303.15	0.03	1314.9	0.4
303.15	0.05	1512.1	0.6
313.15	0.01	1101	0.3
313.15	0.03	1308.9	0.4
313.15	0.05	1504.5	0.6
323.15	0.01	1096	0.3
323.15	0.03	1302.5	0.4
323.15	0.05	1496.9	0.6
333.15	0.01	1090.6	0.3
333.15	0.03	1295.9	0.4
333.15	0.05	1489.1	0.6
