Measured thermophysical data. Experimental and Modeling Studies on the Solubility of d-Pantolactone in Four Pure Solvents and Ethanol Water Mixtures
Source: J. Chem. Eng. Data, 2015, 10.1021/je500996n
Compound 1: D-pantolactone, C6H10O3, InChI=1S/C6H10O3/c1-6(2)3-9-5(8)4(6)7/h4,7H,3H2,1-2H3/t4-/m0/s1, purity 99.5%
Compound 2: methanol, CH4O, InChI=1S/CH4O/c1-2/h2H,1H3, purity 99.5%
Compound 3: ethanol, C2H6O, InChI=1S/C2H6O/c1-2-3/h3H,2H2,1H3, purity 99.5%
Compound 4: ethyl acetate, C4H8O2, InChI=1S/C4H8O2/c1-3-6-4(2)5/h3H2,1-2H3, purity 99.5%
Compound 5: water, H2O, InChI=1S/H2O/h1H2

System: D-pantolactone + water; phases: Liquid, Crystal
Fixed: Pressure, kPa = 101
Property: Mole fraction of D-pantolactone (Liquid); method: Density calibration data
Temperature, K	Mole fraction of D-pantolactone	uncertainty
288.15	0.093	0.0059
293.15	0.1413	0.009
298.15	0.2381	0.0147
303.15	0.3137	0.0191
308.15	0.3928	0.0238
313.15	0.4629	0.028
318.15	0.5528	0.0334

System: D-pantolactone + water; phases: Liquid
Fixed: Pressure, kPa = 100
Fixed: Temperature, K = 318.15
Property: Mass density, kg/m3 (Liquid); method: Vibrating tube method
Mole fraction of D-pantolactone	Mass density, kg/m3	uncertainty
0.0329	1024.6	4.2
0.1193	1065.2	4.7
0.1724	1079	4.6
0.2107	1083.7	4.5
0.2588	1090.5	4.5
0.2897	1092.8	4.4
0.3372	1095.6	4.5

System: methanol + D-pantolactone; phases: Liquid, Crystal
Fixed: Pressure, kPa = 101
Property: Mole fraction of D-pantolactone (Liquid); method: Density calibration data
Temperature, K	Mole fraction of D-pantolactone	uncertainty
288.15	0.2629	0.0159
293.15	0.3022	0.0182
298.15	0.3553	0.0215
303.15	0.4216	0.0254
308.15	0.4708	0.0283
313.15	0.4958	0.0298
318.15	0.5434	0.0327

System: methanol + D-pantolactone; phases: Liquid
Fixed: Pressure, kPa = 100
Fixed: Temperature, K = 318.15
Property: Mass density, kg/m3 (Liquid); method: Vibrating tube method
Mole fraction of D-pantolactone	Mass density, kg/m3	uncertainty
0.0696	854.4	4
0.1462	912	5.3
0.2135	948.1	5.7
0.2717	974.8	5.5
0.387	1011.8	4.6
0.4064	1014.6	4.7

System: ethanol + D-pantolactone; phases: Liquid, Crystal
Fixed: Pressure, kPa = 101
Property: Mole fraction of D-pantolactone (Liquid); method: Density calibration data
Temperature, K	Mole fraction of D-pantolactone	uncertainty
288.15	0.4042	0.0244
293.15	0.4627	0.0279
298.15	0.5062	0.0304
303.15	0.5525	0.0332
308.15	0.611	0.0368
313.15	0.667	0.0401
318.15	0.694	0.0417

System: ethanol + D-pantolactone; phases: Liquid
Fixed: Pressure, kPa = 100
Fixed: Temperature, K = 318.15
Property: Mass density, kg/m3 (Liquid); method: Vibrating tube method
Mole fraction of D-pantolactone	Mass density, kg/m3	uncertainty
0.072	827.3	3.7
0.1798	885.4	4.9
0.3372	952.4	6.9
0.3828	972.3	6.6
0.4368	987.3	6.4
0.4785	1000.1	7.1

System: ethyl acetate + D-pantolactone; phases: Liquid, Crystal
Fixed: Pressure, kPa = 101
Property: Mole fraction of D-pantolactone (Liquid); method: Density calibration data
Temperature, K	Mole fraction of D-pantolactone	uncertainty
288.15	0.2903	0.0176
293.15	0.3452	0.0208
298.15	0.3854	0.0232
303.15	0.446	0.0269
308.15	0.5012	0.0303
313.15	0.6071	0.0366
318.15	0.665	0.04

System: ethyl acetate + D-pantolactone; phases: Liquid
Fixed: Pressure, kPa = 100
Fixed: Temperature, K = 318.15
Property: Mass density, kg/m3 (Liquid); method: Vibrating tube method
Mole fraction of D-pantolactone	Mass density, kg/m3	uncertainty
0.1189	917.2	3.9
0.2551	956.5	4.8
0.3447	980	5.3
0.4229	999.4	5.5
0.4849	1010.7	5.9
0.5343	1024.5	7.2

System: ethanol + D-pantolactone + water; phases: Liquid, Crystal
Fixed: Pressure, kPa = 101
Property: Mole fraction of D-pantolactone (Liquid); method: Density calibration data
Temperature, K	Solvent: Mass fraction of ethanol	Mole fraction of D-pantolactone	uncertainty
278.15	0.2	0.1151	0.0071
283.15	0.2	0.1571	0.0096
278.15	0.4	0.1822	0.0111
288.15	0.2	0.2006	0.0122
283.15	0.4	0.2224	0.0134
278.15	0.6	0.2251	0.0136
283.15	0.6	0.2532	0.0153
278.15	0.8	0.2544	0.0154
293.15	0.2	0.2558	0.0155
288.15	0.4	0.2585	0.0156
278.15	1	0.2825	0.0171
283.15	0.8	0.3005	0.0181
293.15	0.4	0.3063	0.0185
288.15	0.6	0.31	0.0187
298.15	0.2	0.314	0.019
283.15	1	0.3321	0.02
288.15	0.8	0.3421	0.0206
293.15	0.6	0.3515	0.0212
298.15	0.4	0.3598	0.0217
303.15	0.2	0.3652	0.022
288.15	1	0.3732	0.0225
293.15	0.8	0.3951	0.0238
298.15	0.6	0.3966	0.0239
303.15	0.4	0.4187	0.0252
308.15	0.2	0.4206	0.0253
293.15	1	0.4357	0.0262
298.15	0.8	0.4406	0.0266
308.15	0.4	0.4474	0.0269
303.15	0.6	0.4595	0.0277
313.15	0.2	0.4648	0.028
298.15	1	0.4821	0.029
308.15	0.6	0.4911	0.0295
303.15	0.8	0.5103	0.0307
313.15	0.4	0.5237	0.0316
313.15	1	0.6408	0.0316
313.15	0.8	0.6116	0.0316
308.15	1	0.611	0.0316
308.15	0.8	0.5696	0.0316
313.15	0.6	0.5574	0.0316
303.15	1	0.5525	0.0316

System: ethanol + D-pantolactone + water; phases: Liquid
Fixed: Pressure, kPa = 100
Fixed: Temperature, K = 318.15
Property: Mass density, kg/m3 (Liquid); method: Vibrating tube method
Solvent: Mass fraction of ethanol	Mole fraction of D-pantolactone	Mass density, kg/m3	uncertainty
0.2	0.0446	1001	4
0.2	0.1145	1030.5	4.1
0.2	0.1714	1042.4	4.2
0.2	0.2156	1060.2	4.3
0.2	0.2681	1064.3	4.3
0.2	0.296	1070.6	4.3
0.4	0.0562	968	3.9
0.4	0.128	1000.6	4
0.4	0.1935	1033.2	4.1
0.4	0.2367	1036.3	4.2
0.4	0.302	1050.2	4.2
0.4	0.3099	1055.1	4.2
0.4	0.3677	1056.8	4.2
0.6	0.0638	935.6	3.8
0.6	0.146	971.6	3.9
0.6	0.2207	1002.1	4
0.6	0.2802	1016.6	4.1
0.6	0.3385	1032.4	4.1
0.6	0.3781	1038.7	4.2
0.6	0.4066	1045	4.2
0.8	0.1256	915.3	3.7
0.8	0.2159	957	3.8
0.8	0.2786	977.6	3.9
0.8	0.3463	998.8	4
0.8	0.4032	1013.8	4.1
0.8	0.4478	1027	4.1
