Measured thermophysical data. Solubility of chrysin in ethanol and water mixtures
Source: J. Chem. Eng. Data, 2014, 10.1021/je5001654
Compound 1: 5,7-dihydroxyflavone, C15H10O4, InChI=1S/C15H10O4/c16-10-6-11(17)15-12(18)8-13(19-14(15)7-10)9-4-2-1-3-5-9/h1-8,16-17H, purity 98%
Compound 2: ethanol, C2H6O, InChI=1S/C2H6O/c1-2-3/h3H,2H2,1H3, purity 98%
Compound 3: water, H2O, InChI=1S/H2O/h1H2

System: ethanol + 5,7-dihydroxyflavone + water; phases: Liquid, Crystal
Fixed: Pressure, kPa = 100
Property: Mole fraction of 5,7-dihydroxyflavone (Liquid); method: UV Spectra
Solvent: Mole fraction of ethanol	Temperature, K	Mole fraction of 5,7-dihydroxyflavone	uncertainty
0	293.15	1.26e-05	6e-07
0	298.15	1.86e-05	8e-07
0	303.15	2.38e-05	1e-06
0	308.15	3.53e-05	1.5e-06
0	313.15	4.61e-05	1.9e-06
0	318.15	6.5e-05	2.8e-06
0	323.15	0.0001002	4.3e-06
0.2	293.15	8.1e-05	3.6e-05
0.2	298.15	0.00013	3.9e-05
0.2	303.15	0.000185	4.2e-05
0.2	308.15	0.000297	5.3e-05
0.2	313.15	0.000474	6.8e-05
0.2	318.15	0.000691	8.1e-05
0.2	323.15	0.001043	0.000105
0.4	293.15	0.001321	0.000105
0.4	298.15	0.001552	0.000117
0.4	303.15	0.001683	0.000131
0.4	308.15	0.002068	0.000151
0.4	313.15	0.002648	0.000187
0.4	318.15	0.003082	0.000228
0.4	323.15	0.003655	0.00031
0.6	293.15	0.003547	0.000176
0.6	298.15	0.004075	0.000202
0.6	303.15	0.004654	0.000234
0.6	308.15	0.005276	0.000259
0.6	313.15	0.006567	0.000319
0.6	318.15	0.008317	0.000386
0.6	323.15	0.009466	0.000437
0.8	293.15	0.00569	0.00024
0.8	298.15	0.00623	0.00026
0.8	303.15	0.00728	0.0003
0.8	308.15	0.00783	0.00032
0.8	313.15	0.00943	0.00039
0.8	318.15	0.01052	0.00043
0.8	323.15	0.01266	0.00052
1	293.15	0.00569	0.00023
1	298.15	0.00623	0.00025
1	303.15	0.00728	0.00029
1	308.15	0.00783	0.00032
1	313.15	0.00943	0.00038
1	318.15	0.01052	0.00043
1	323.15	0.01266	0.00051

System: 5,7-dihydroxyflavone + water; phases: Liquid, Crystal
Fixed: Pressure, kPa = 100
Property: Mole fraction of 5,7-dihydroxyflavone (Liquid); method: UV Spectra
Temperature, K	Mole fraction of 5,7-dihydroxyflavone	uncertainty
293.15	1.26e-05	6e-07
298.15	1.86e-05	8e-07
303.15	2.38e-05	1e-06
308.15	3.53e-05	1.5e-06
313.15	4.61e-05	1.9e-06
318.15	6.5e-05	2.8e-06
323.15	0.0001002	4.3e-06

System: ethanol + 5,7-dihydroxyflavone; phases: Liquid, Crystal
Fixed: Pressure, kPa = 100
Property: Mole fraction of 5,7-dihydroxyflavone (Liquid); method: UV Spectra
Temperature, K	Mole fraction of 5,7-dihydroxyflavone	uncertainty
293.15	0.00569	0.00023
298.15	0.00623	0.00025
303.15	0.00728	0.00029
308.15	0.00783	0.00032
313.15	0.00943	0.00038
318.15	0.01052	0.00043
323.15	0.01266	0.00051
