Measured thermophysical data. Measurement and Correlation of the Solubility for 4,4'-Diaminodiphenylmethane in Different Solvents
Source: J. Chem. Eng. Data, 2015, 10.1021/je501111d
Compound 1: 4,4'-methylenebisbenzenamine, C13H14N2, InChI=1S/C13H14N2/c14-12-5-1-10(2-6-12)9-11-3-7-13(15)8-4-11/h1-8H,9,14-15H2, purity 99%
Compound 2: methanol, CH4O, InChI=1S/CH4O/c1-2/h2H,1H3, purity 99.5%
Compound 3: ethanol, C2H6O, InChI=1S/C2H6O/c1-2-3/h3H,2H2,1H3, purity 99.5%
Compound 4: propan-2-ol, C3H8O, InChI=1S/C3H8O/c1-3(2)4/h3-4H,1-2H3, purity 99.5%
Compound 5: butan-1-ol, C4H10O, InChI=1S/C4H10O/c1-2-3-4-5/h5H,2-4H2,1H3, purity 99.5%
Compound 6: benzene, C6H6, InChI=1S/C6H6/c1-2-4-6-5-3-1/h1-6H, purity 99.5%
Compound 7: toluene, C7H8, InChI=1S/C7H8/c1-7-5-3-2-4-6-7/h2-6H,1H3, purity 99.5%
Compound 8: trichloromethane, CHCl3, InChI=1S/CHCl3/c2-1(3)4/h1H, purity 99.5%
Compound 9: urea, CH4N2O, InChI=1S/CH4N2O/c2-1(3)4/h(H4,2,3,4)
Compound 10: water, H2O, InChI=1S/H2O/h1H2

System: methanol + 4,4'-methylenebisbenzenamine; phases: Liquid, Crystal
Fixed: Pressure, kPa = 100
Property: Mole fraction of 4,4'-methylenebisbenzenamine (Liquid); method: laser detecting system
Temperature, K	Mole fraction of 4,4'-methylenebisbenzenamine	uncertainty
293.15	0.1272	0.0051
298.15	0.1572	0.0063
303.15	0.187	0.0075
308.15	0.2191	0.0088
313.15	0.2585	0.0104
318.15	0.3004	0.0121
323.15	0.3472	0.0139
328.15	0.4025	0.0162

System: ethanol + 4,4'-methylenebisbenzenamine; phases: Liquid, Crystal
Fixed: Pressure, kPa = 100
Property: Mole fraction of 4,4'-methylenebisbenzenamine (Liquid); method: laser detecting system
Temperature, K	Mole fraction of 4,4'-methylenebisbenzenamine	uncertainty
293.15	0.0335	0.0014
298.15	0.0461	0.0019
303.15	0.0637	0.0026
308.15	0.0842	0.0034
313.15	0.1104	0.0045
318.15	0.1502	0.0061
323.15	0.1979	0.008
328.15	0.2674	0.0108

System: propan-2-ol + 4,4'-methylenebisbenzenamine; phases: Liquid, Crystal
Fixed: Pressure, kPa = 100
Property: Mole fraction of 4,4'-methylenebisbenzenamine (Liquid); method: laser detecting system
Temperature, K	Mole fraction of 4,4'-methylenebisbenzenamine	uncertainty
293.15	0.011	0.0004
298.15	0.0136	0.0006
303.15	0.0178	0.0007
308.15	0.0236	0.001
313.15	0.0312	0.0013
318.15	0.0411	0.0017
323.15	0.0536	0.0022
328.15	0.0696	0.0028
333.15	0.0898	0.0036

System: butan-1-ol + 4,4'-methylenebisbenzenamine; phases: Liquid, Crystal
Fixed: Pressure, kPa = 100
Property: Mole fraction of 4,4'-methylenebisbenzenamine (Liquid); method: laser detecting system
Temperature, K	Mole fraction of 4,4'-methylenebisbenzenamine	uncertainty
293.15	0.0187	0.0008
298.15	0.0231	0.0009
303.15	0.0296	0.0012
308.15	0.0371	0.0015
313.15	0.0476	0.0019
318.15	0.0582	0.0023
323.15	0.0713	0.0029
328.15	0.0885	0.0036
333.15	0.1078	0.0043

System: benzene + 4,4'-methylenebisbenzenamine; phases: Liquid, Crystal
Fixed: Pressure, kPa = 100
Property: Mole fraction of 4,4'-methylenebisbenzenamine (Liquid); method: laser detecting system
Temperature, K	Mole fraction of 4,4'-methylenebisbenzenamine	uncertainty
293.15	0.0207	0.0009
298.15	0.0299	0.0012
303.15	0.039	0.0016
308.15	0.0499	0.002
313.15	0.066	0.0027
318.15	0.0865	0.0035
323.15	0.1142	0.0046

System: 4,4'-methylenebisbenzenamine + toluene; phases: Liquid, Crystal
Fixed: Pressure, kPa = 100
Property: Mole fraction of 4,4'-methylenebisbenzenamine (Liquid); method: laser detecting system
Temperature, K	Mole fraction of 4,4'-methylenebisbenzenamine	uncertainty
293.15	0.0156	0.0006
298.15	0.0195	0.0008
303.15	0.0244	0.001
308.15	0.03	0.0012
313.15	0.038	0.0015
318.15	0.0487	0.002
323.15	0.0599	0.0024
328.15	0.075	0.003
333.15	0.0932	0.0038

System: trichloromethane + 4,4'-methylenebisbenzenamine; phases: Liquid, Crystal
Fixed: Pressure, kPa = 100
Property: Mole fraction of 4,4'-methylenebisbenzenamine (Liquid); method: laser detecting system
Temperature, K	Mole fraction of 4,4'-methylenebisbenzenamine	uncertainty
293.15	0.1235	0.005
298.15	0.1423	0.0057
303.15	0.1652	0.0066
308.15	0.197	0.0079
313.15	0.2301	0.0092
318.15	0.2685	0.0108
323.15	0.3064	0.0123

System: urea + water; phases: Liquid, Crystal
Fixed: Pressure, kPa = 101
Property: Mole fraction of urea (Liquid); method: laser detecting system
Temperature, K	Mole fraction of urea	uncertainty
283.45	0.203	0.0081
288.65	0.2219	0.0089
294.15	0.2456	0.0098
298.65	0.2632	0.0106
303.65	0.2902	0.0116
312.85	0.3314	0.0133
323.25	0.3818	0.0153
