Measured thermophysical data. Dynamic and Static Characteristics of Drug Dissolution in Supercritical CO2 by Infrared Spectroscopy: Measurements of Acetaminophen Solubility in a Wide Range of State Parameters
Source: J. Chem. Eng. Data, 2014, 10.1021/je500456s
Compound 1: N-acetyl-p-aminophenol, C8H9NO2, InChI=1S/C8H9NO2/c1-6(10)9-7-2-4-8(11)5-3-7/h2-5,11H,1H3,(H,9,10), purity 99.9%
Compound 2: carbon dioxide, CO2, InChI=1S/CO2/c2-1-3, purity 99.998%

System: N-acetyl-p-aminophenol + carbon dioxide; phases: Fluid (supercritical or subcritical phases), Crystal
Property: Mole fraction of N-acetyl-p-aminophenol (Fluid (supercritical or subcritical phases)); method: Infrared Spectroscopy
Temperature, K	Pressure, kPa	Mole fraction of N-acetyl-p-aminophenol	uncertainty
348	15000	1.2e-06	2e-07
348	17500	2.3e-06	2e-07
348	20000	4e-06	3e-07
348	22500	5.5e-06	4e-07
348	25000	6.9e-06	5e-07
348	27500	8.1e-06	6e-07
348	30000	9.5e-06	8e-07
348	32500	1.06e-05	9e-07
348	35000	1.16e-05	1e-06
348	37500	1.27e-05	1.2e-06
348	40000	1.38e-05	1.3e-06
373	12500	1.1e-06	3e-07
373	15000	2e-06	3e-07
373	17500	4.6e-06	3e-07
373	20000	8.4e-06	4e-07
373	22500	1.29e-05	5e-07
373	25000	1.8e-05	7e-07
373	27500	2.32e-05	1e-06
373	30000	2.75e-05	1.2e-06
373	32500	3.22e-05	1.5e-06
373	35000	3.65e-05	1.7e-06
373	37500	4.1e-05	1.9e-06
373	40000	4.51e-05	2.2e-06
398	7500	3.6e-06	4e-07
398	10000	4.6e-06	5e-07
398	12500	5.3e-06	4e-07
398	15000	8.2e-06	6e-07
398	17500	1.48e-05	7e-07
398	20000	2.14e-05	1e-06
398	22500	3.04e-05	1.3e-06
398	25000	4.24e-05	1.7e-06
398	27500	5.51e-05	2.2e-06
398	30000	6.84e-05	2.7e-06
398	32500	8.23e-05	3.3e-06
398	35000	9.6e-05	3.8e-06
398	37500	0.0001083	4.5e-06
398	40000	0.0001221	5.1e-06
423	7500	1.25e-05	8e-07
423	10000	1.59e-05	1e-06
423	12500	2e-05	1.2e-06
423	15000	2.93e-05	1.6e-06
423	17500	4.02e-05	2e-06
423	20000	5.49e-05	2.6e-06
423	22500	7.57e-05	3.2e-06
423	25000	0.0001013	4e-06
423	27500	0.0001311	4.7e-06
423	30000	0.0001621	5.6e-06
423	32500	0.0001949	6.4e-06
423	35000	0.0002266	7.5e-06
423	37500	0.000263	8.6e-06
423	40000	0.0002985	9.9e-06
448	7500	4.19e-05	2.9e-06
448	10000	5.22e-05	3e-06
448	12500	6.59e-05	3.4e-06
448	15000	8.64e-05	3.9e-06
448	17500	0.000115	4.5e-06
448	20000	0.0001496	5.2e-06
448	22500	0.0001912	6.1e-06
448	25000	0.0002397	7e-06
448	27500	0.0002916	8e-06
448	30000	0.0003482	9.1e-06
448	32500	0.0004035	1.02e-05
448	35000	0.0004701	1.14e-05
448	37500	0.0005383	1.28e-05
448	40000	0.0006159	1.47e-05
473	7500	0.0001583	4.7e-06
473	10000	0.0001645	4.8e-06
473	12500	0.0001887	5.1e-06
473	15000	0.0002227	5.6e-06
473	17500	0.0002658	6.1e-06
473	20000	0.0003124	6.8e-06
473	22500	0.0003796	7.7e-06
473	25000	0.0004502	8.6e-06
473	27500	0.0005296	9.7e-06
473	30000	0.0006138	1.08e-05
473	32500	0.0007016	1.21e-05
473	35000	0.0007925	1.32e-05
473	37500	0.0008983	1.49e-05
473	40000	0.001028	1.67e-05
