Measured thermophysical data. Studies on the Interactions of Saccharides and Methyl Glycosides with Lithium Chloride in Aqueous Solutions at (288.15 to 318.15) K
Source: J. Chem. Eng. Data, 2014, 10.1021/je5001523
Compound 1: D-xylose, C5H10O5, InChI=1S/C5H10O5/c6-1-3(8)5(10)4(9)2-7/h1,3-5,7-10H,2H2/t3-,4+,5+/m0/s1, purity 99.9%
Compound 2: D-(-)-arabinose, C5H10O5, InChI=1S/C5H10O5/c6-1-3(8)5(10)4(9)2-7/h1,3-5,7-10H,2H2/t3-,4-,5+/m1/s1, purity 99.9%
Compound 3: D-ribose, C5H10O5, InChI=1S/C5H10O5/c6-1-3(8)5(10)4(9)2-7/h1,3-5,7-10H,2H2/t3-,4+,5-/m0/s1, purity 99.9%
Compound 4: D-glucose, C6H12O6, InChI=1S/C6H12O6/c7-1-3(9)5(11)6(12)4(10)2-8/h1,3-6,8-12H,2H2/t3-,4+,5+,6+/m0/s1, purity 99.4%
Compound 5: D-mannose, C6H12O6, InChI=1S/C6H12O6/c7-1-3(9)5(11)6(12)4(10)2-8/h1,3-6,8-12H,2H2/t3-,4-,5-,6-/m1/s1, purity 99.9%
Compound 6: (+)-galactose, C6H12O6, InChI=1S/C6H12O6/c7-1-3(9)5(11)6(12)4(10)2-8/h1,3-6,8-12H,2H2/t3-,4+,5+,6-/m0/s1, purity 99.7%
Compound 7: D-fructose, C6H12O6, InChI=1S/C6H12O6/c7-1-3(9)5(11)6(12)4(10)2-8/h3,5-9,11-12H,1-2H2/t3-,5-,6-/m1/s1, purity 99.4%
Compound 8: 6-.alpha.-D-galactopyranosyl-D-glucopyranose, C12H22O11, InChI=1S/C12H22O11/c13-1-3-5(14)8(17)10(19)12(23-3)21-2-4-6(15)7(16)9(18)11(20)22-4/h3-20H,1-2H2/t3-,4-,5+,6-,7+,8+,9-,10-,11-,12+/m1/s1, purity 99.4%
Compound 9: D-cellobiose, C12H22O11, InChI=1S/C12H22O11/c13-1-3-5(15)6(16)9(19)12(22-3)23-10-4(2-14)21-11(20)8(18)7(10)17/h3-20H,1-2H2/t3-,4-,5-,6+,7-,8-,9-,10-,11-,12+/m1/s1, purity 99.4%
Compound 10: D-sucrose, C12H22O11, InChI=1S/C12H22O11/c13-1-4-6(16)8(18)9(19)11(21-4)23-12(3-15)10(20)7(17)5(2-14)22-12/h4-11,13-20H,1-3H2/t4-,5-,6-,7-,8+,9-,10+,11-,12+/m1/s1, purity 99%
Compound 11: D-(+)-maltose monohydrate, C12H24O12, InChI=1S/C12H22O11.H2O/c13-1-3-5(15)6(16)9(19)12(22-3)23-10-4(2-14)21-11(20)8(18)7(10)17;/h3-20H,1-2H2;1H2/t3-,4-,5-,6+,7-,8-,9-,10-,11-,12-;/m1./s1, purity 99.4%
Compound 12: 4-O-.beta.-D-galactopyranosyl-D-glucose hydrate (1:1), C12H24O12, InChI=1S/C12H22O11.H2O/c13-1-4(16)7(18)11(5(17)2-14)23-12-10(21)9(20)8(19)6(3-15)22-12;/h1,4-12,14-21H,2-3H2;1H2/t4-,5+,6+,7+,8-,9-,10+,11+,12-;/m0./s1, purity 99.9%
Compound 13: D-(+)-trehalose dihydrate, C12H26O13, InChI=1S/C12H22O11.2H2O/c13-1-3-5(15)7(17)9(19)11(21-3)23-12-10(20)8(18)6(16)4(2-14)22-12;;/h3-20H,1-2H2;2*1H2/t3-,4-,5-,6-,7+,8+,9-,10-,11-,12-;;/m1../s1, purity 99.8%
Compound 14: D-raffinose, pentahydrate, C18H42O21, InChI=1S/C18H32O16.5H2O/c19-1-5-8(22)11(25)13(27)16(31-5)30-3-7-9(23)12(26)14(28)17(32-7)34-18(4-21)15(29)10(24)6(2-20)33-18;;;;;/h5-17,19-29H,1-4H2;5*1H2/t5-,6-,7-,8+,9-,10-,11+,12+,13-,14-,15+,16+,17-,18+;;;;;/m1...../s1, purity 99.9%
Compound 15: methyl-.alpha.-D-glucopyranoside, C7H14O6, InChI=1S/C7H14O6/c1-12-7-6(11)5(10)4(9)3(2-8)13-7/h3-11H,2H2,1H3/t3-,4-,5+,6-,7+/m1/s1, purity 98.9%
Compound 16: methyl .alpha.-D-xylopyranoside, C6H12O5, InChI=1S/C6H12O5/c1-10-6-5(9)4(8)3(7)2-11-6/h3-9H,2H2,1H3/t3-,4+,5-,6+/m1/s1, purity 98%
Compound 17: methyl .beta.-D-xylopyranoside, C6H12O5, InChI=1S/C6H12O5/c1-10-6-5(9)4(8)3(7)2-11-6/h3-9H,2H2,1H3/t3-,4+,5-,6-/m1/s1, purity 98%
Compound 18: lithium chloride, ClLi, InChI=1S/ClH.Li/h1H;/q;+1/p-1, purity 99.9%
Compound 19: water, H2O, InChI=1S/H2O/h1H2

System: D-xylose + lithium chloride + water; phases: Liquid
Fixed: Pressure, kPa = 101
Property: Mass density, kg/m3 (Liquid); method: VIBTUB:UFactor:12
Solvent: Molality, mol/kg of lithium chloride	Temperature, K	Molality, mol/kg of D-xylose	Mass density, kg/m3	uncertainty
0.5	288.15	0	1012.049	0.43
0.5	288.15	0.05004	1014.769	0.443
0.5	288.15	0.07584	1016.16	0.45
0.5	288.15	0.10076	1017.498	0.456
0.5	288.15	0.1247	1018.773	0.462
0.5	288.15	0.18456	1021.941	0.477
0.5	288.15	0.20098	1022.803	0.481
0.5	298.15	0	1009.463	0.418
0.5	298.15	0.05004	1012.153	0.431
0.5	298.15	0.07584	1013.527	0.437
0.5	298.15	0.10076	1014.845	0.444
0.5	298.15	0.1247	1016.1	0.449
0.5	298.15	0.18456	1019.215	0.464
0.5	298.15	0.20098	1020.056	0.468
0.5	308.15	0	1006.13	0.403
0.5	308.15	0.05004	1008.799	0.415
0.5	308.15	0.07584	1010.159	0.422
0.5	308.15	0.10076	1011.464	0.428
0.5	308.15	0.1247	1012.702	0.433
0.5	308.15	0.18456	1015.791	0.448
0.5	308.15	0.20098	1016.628	0.452
0.5	318.15	0	1002.068	0.384
0.5	318.15	0.05004	1004.703	0.396
0.5	318.15	0.07584	1006.05	0.402
0.5	318.15	0.10076	1007.341	0.408
0.5	318.15	0.1247	1008.572	0.414
0.5	318.15	0.18456	1011.629	0.429
0.5	318.15	0.20098	1012.453	0.432
1	288.15	0	1023.756	0.485
1	288.15	0.0532	1026.586	0.499
1	288.15	0.06417	1027.164	0.501
1	288.15	0.09053	1028.548	0.508
1	288.15	0.11023	1029.577	0.513
1	288.15	0.12576	1030.384	0.517
1	288.15	0.14627	1031.445	0.522
1	298.15	0	1020.938	0.472
1	298.15	0.0532	1023.707	0.485
1	298.15	0.06417	1024.269	0.488
1	298.15	0.09053	1025.609	0.494
1	298.15	0.11023	1026.596	0.499
1	298.15	0.12576	1027.369	0.502
1	298.15	0.14627	1028.377	0.507
1	308.15	0	1017.112	0.454
1	308.15	0.0532	1019.858	0.467
1	308.15	0.06417	1020.412	0.47
1	308.15	0.09053	1021.736	0.476
1	308.15	0.11023	1022.714	0.481
1	308.15	0.12576	1023.474	0.484
1	308.15	0.14627	1024.473	0.489
1	318.15	0	1012.401	0.432
1	318.15	0.0532	1015.128	0.445
1	318.15	0.06417	1015.685	0.448
1	318.15	0.09053	1017.017	0.454
1	318.15	0.11023	1018.007	0.458
1	318.15	0.12576	1018.783	0.462
1	318.15	0.14627	1019.805	0.467
2	288.15	0	1045.096	0.586
2	288.15	0.04697	1047.451	0.597
2	288.15	0.0682	1048.495	0.602
2	288.15	0.09017	1049.562	0.607
2	288.15	0.10207	1050.136	0.609
2	288.15	0.12224	1051.097	0.614
2	288.15	0.1485	1052.335	0.62
2	298.15	0	1041.174	0.567
2	298.15	0.04697	1043.515	0.578
2	298.15	0.0682	1044.561	0.583
2	298.15	0.09017	1045.634	0.588
2	298.15	0.10207	1046.212	0.591
2	298.15	0.12224	1047.187	0.596
2	298.15	0.1485	1048.448	0.601
2	308.15	0	1036.24	0.544
2	308.15	0.04697	1038.549	0.555
2	308.15	0.0682	1039.582	0.56
2	308.15	0.09017	1040.644	0.565
2	308.15	0.10207	1041.216	0.567
2	308.15	0.12224	1042.181	0.572
2	308.15	0.1485	1043.427	0.578
2	318.15	0	1031.324	0.521
2	318.15	0.04697	1033.603	0.532
2	318.15	0.0682	1034.62	0.537
2	318.15	0.09017	1035.665	0.541
2	318.15	0.10207	1036.227	0.544
2	318.15	0.12224	1037.175	0.549
2	318.15	0.1485	1038.401	0.554
3	288.15	0	1062.674	0.668
3	288.15	0.05104	1065.167	0.68
3	288.15	0.06726	1065.949	0.684
3	288.15	0.08277	1066.695	0.687
3	288.15	0.09384	1067.224	0.69
3	288.15	0.11584	1068.269	0.695
3	288.15	0.15527	1070.122	0.703
3	298.15	0	1057.689	0.645
3	298.15	0.05104	1060.14	0.656
3	298.15	0.06726	1060.908	0.66
3	298.15	0.08277	1061.639	0.663
3	298.15	0.09384	1062.159	0.666
3	298.15	0.11584	1063.186	0.671
3	298.15	0.15527	1065.005	0.679
3	308.15	0	1051.579	0.616
3	308.15	0.05104	1054.004	0.628
3	308.15	0.06726	1054.767	0.631
3	308.15	0.08277	1055.493	0.635
3	308.15	0.09384	1056.01	0.637
3	308.15	0.11584	1057.031	0.642
3	308.15	0.15527	1058.845	0.65
3	318.15	0	1047.466	0.597
3	318.15	0.05104	1049.839	0.608
3	318.15	0.06726	1050.585	0.612
3	318.15	0.08277	1051.294	0.615
3	318.15	0.09384	1051.798	0.617
3	318.15	0.11584	1052.793	0.622
3	318.15	0.15527	1054.562	0.63

System: D-xylose + lithium chloride + water; phases: Liquid
Fixed: Pressure, kPa = 101
Property: Viscosity, Pa*s (Liquid); method: Capillary tube (Ostwald; Ubbelohde) method
Solvent: Molality, mol/kg of lithium chloride	Temperature, K	Molality, mol/kg of D-xylose	Viscosity, Pa*s	uncertainty
0.5	288.15	0	0.001212	8e-06
0.5	288.15	0.05004	0.001235	8e-06
0.5	288.15	0.07584	0.001247	8e-06
0.5	288.15	0.10076	0.001259	8e-06
0.5	288.15	0.1247	0.001269	8e-06
0.5	288.15	0.18456	0.001296	8e-06
0.5	288.15	0.20098	0.001304	8e-06
0.5	298.15	0	0.00094	7e-06
0.5	298.15	0.05004	0.000956	7e-06
0.5	298.15	0.07584	0.000964	7e-06
0.5	298.15	0.10076	0.000972	7e-06
0.5	298.15	0.1247	0.00098	7e-06
0.5	298.15	0.18456	0.000999	7e-06
0.5	298.15	0.20098	0.001004	7e-06
0.5	308.15	0	0.00076	6e-06
0.5	308.15	0.05004	0.000772	6e-06
0.5	308.15	0.07584	0.000779	6e-06
0.5	308.15	0.10076	0.000785	6e-06
0.5	308.15	0.1247	0.000791	6e-06
0.5	308.15	0.18456	0.000805	6e-06
0.5	308.15	0.20098	0.000809	6e-06
0.5	318.15	0	0.000629	6e-06
0.5	318.15	0.05004	0.000639	6e-06
0.5	318.15	0.07584	0.000644	6e-06
0.5	318.15	0.10076	0.000648	6e-06
0.5	318.15	0.1247	0.000653	6e-06
0.5	318.15	0.18456	0.000664	6e-06
0.5	318.15	0.20098	0.000667	6e-06
1	288.15	0	0.001288	8e-06
1	288.15	0.0532	0.001317	8e-06
1	288.15	0.06417	0.001323	8e-06
1	288.15	0.09053	0.001337	8e-06
1	288.15	0.11023	0.001348	8e-06
1	288.15	0.12576	0.001356	8e-06
1	288.15	0.14627	0.001367	8e-06
1	298.15	0	0.001002	7e-06
1	298.15	0.0532	0.001022	7e-06
1	298.15	0.06417	0.001026	7e-06
1	298.15	0.09053	0.001036	7e-06
1	298.15	0.11023	0.001043	7e-06
1	298.15	0.12576	0.001049	7e-06
1	298.15	0.14627	0.001057	7e-06
1	308.15	0	0.000802	6e-06
1	308.15	0.0532	0.000817	6e-06
1	308.15	0.06417	0.00082	6e-06
1	308.15	0.09053	0.000828	6e-06
1	308.15	0.11023	0.000833	6e-06
1	308.15	0.12576	0.000838	6e-06
1	308.15	0.14627	0.000843	6e-06
1	318.15	0	0.000661	6e-06
1	318.15	0.0532	0.000673	6e-06
1	318.15	0.06417	0.000675	6e-06
1	318.15	0.09053	0.000681	6e-06
1	318.15	0.11023	0.000685	6e-06
1	318.15	0.12576	0.000689	6e-06
1	318.15	0.14627	0.000693	6e-06
2	288.15	0	0.001444	9e-06
2	288.15	0.04697	0.001476	9e-06
2	288.15	0.0682	0.001489	9e-06
2	288.15	0.09017	0.001504	9e-06
2	288.15	0.10207	0.001512	9e-06
2	288.15	0.12224	0.001525	9e-06
2	288.15	0.1485	0.001543	9e-06
2	298.15	0	0.001112	7e-06
2	298.15	0.04697	0.001134	8e-06
2	298.15	0.0682	0.001144	8e-06
2	298.15	0.09017	0.001154	8e-06
2	298.15	0.10207	0.001159	8e-06
2	298.15	0.12224	0.001169	8e-06
2	298.15	0.1485	0.001181	8e-06
2	308.15	0	0.000882	6e-06
2	308.15	0.04697	0.000899	7e-06
2	308.15	0.0682	0.000906	7e-06
2	308.15	0.09017	0.000914	7e-06
2	308.15	0.10207	0.000918	7e-06
2	308.15	0.12224	0.000925	7e-06
2	308.15	0.1485	0.000934	7e-06
2	318.15	0	0.000724	6e-06
2	318.15	0.04697	0.000738	6e-06
2	318.15	0.0682	0.000742	6e-06
2	318.15	0.09017	0.000748	6e-06
2	318.15	0.10207	0.000751	6e-06
2	318.15	0.12224	0.000757	6e-06
2	318.15	0.1485	0.000764	6e-06
3	288.15	0	0.001586	9e-06
3	288.15	0.05104	0.001629	1e-05
3	288.15	0.06726	0.001642	1e-05
3	288.15	0.08277	0.001655	1e-05
3	288.15	0.09384	0.001664	1e-05
3	288.15	0.11584	0.001682	1e-05
3	288.15	0.15527	0.001714	1e-05
3	298.15	0	0.001229	8e-06
3	298.15	0.05104	0.001259	8e-06
3	298.15	0.06726	0.001268	8e-06
3	298.15	0.08277	0.001277	8e-06
3	298.15	0.09384	0.001284	8e-06
3	298.15	0.11584	0.001296	8e-06
3	298.15	0.15527	0.001319	8e-06
3	308.15	0	0.000962	7e-06
3	308.15	0.05104	0.000984	7e-06
3	308.15	0.06726	0.000991	7e-06
3	308.15	0.08277	0.000997	7e-06
3	308.15	0.09384	0.001002	7e-06
3	308.15	0.11584	0.001011	7e-06
3	308.15	0.15527	0.001028	7e-06
3	318.15	0	0.000785	6e-06
3	318.15	0.05104	0.000802	6e-06
3	318.15	0.06726	0.000807	6e-06
3	318.15	0.08277	0.000812	6e-06
3	318.15	0.09384	0.000816	6e-06
3	318.15	0.11584	0.000823	6e-06
3	318.15	0.15527	0.000836	6e-06

System: lithium chloride + water + D-(-)-arabinose; phases: Liquid
Fixed: Pressure, kPa = 101
Property: Mass density, kg/m3 (Liquid); method: VIBTUB:UFactor:12
Solvent: Molality, mol/kg of lithium chloride	Temperature, K	Molality, mol/kg of D-(-)-arabinose	Mass density, kg/m3	uncertainty
0.5	288.15	0.04764	1014.756	0.443
0.5	288.15	0.06284	1015.614	0.447
0.5	288.15	0.09294	1017.305	0.455
0.5	288.15	0.10034	1017.718	0.457
0.5	288.15	0.13348	1019.564	0.466
0.5	288.15	0.16027	1021.044	0.473
0.5	298.15	0.04764	1012.131	0.431
0.5	298.15	0.06284	1012.974	0.435
0.5	298.15	0.09294	1014.633	0.443
0.5	298.15	0.10034	1015.039	0.444
0.5	298.15	0.13348	1016.846	0.453
0.5	298.15	0.16027	1018.294	0.46
0.5	308.15	0.04764	1008.761	0.415
0.5	308.15	0.06284	1009.591	0.419
0.5	308.15	0.09294	1011.223	0.427
0.5	308.15	0.10034	1011.623	0.428
0.5	308.15	0.13348	1013.408	0.437
0.5	308.15	0.16027	1014.83	0.443
0.5	318.15	0.04764	1004.654	0.396
0.5	318.15	0.06284	1005.467	0.4
0.5	318.15	0.09294	1007.076	0.407
0.5	318.15	0.10034	1007.459	0.409
0.5	318.15	0.13348	1009.201	0.417
0.5	318.15	0.16027	1010.59	0.424
1	288.15	0.05214	1026.644	0.499
1	288.15	0.06284	1027.226	0.502
1	288.15	0.08034	1028.18	0.506
1	288.15	0.11036	1029.802	0.514
1	288.15	0.12048	1030.335	0.516
1	288.15	0.14723	1031.76	0.523
1	298.15	0.05214	1023.784	0.486
1	298.15	0.06284	1024.361	0.488
1	298.15	0.08034	1025.299	0.493
1	298.15	0.11036	1026.9	0.5
1	298.15	0.12048	1027.434	0.503
1	298.15	0.14723	1028.844	0.509
1	308.15	0.05214	1019.933	0.467
1	308.15	0.06284	1020.505	0.47
1	308.15	0.08034	1021.435	0.475
1	308.15	0.11036	1023.02	0.482
1	308.15	0.12048	1023.547	0.484
1	308.15	0.14723	1024.941	0.491
1	318.15	0.05214	1015.169	0.445
1	318.15	0.06284	1015.729	0.448
1	318.15	0.08034	1016.643	0.452
1	318.15	0.11036	1018.199	0.459
1	318.15	0.12048	1018.715	0.462
1	318.15	0.14723	1020.083	0.468
2	288.15	0.05876	1048.204	0.6
2	288.15	0.07496	1049.051	0.604
2	288.15	0.09286	1049.984	0.609
2	288.15	0.12088	1051.435	0.615
2	288.15	0.14249	1052.548	0.621
2	288.15	0.16647	1053.775	0.626
2	298.15	0.05876	1044.232	0.582
2	298.15	0.07496	1045.066	0.586
2	298.15	0.09286	1045.983	0.59
2	298.15	0.12088	1047.41	0.597
2	298.15	0.14249	1048.503	0.602
2	298.15	0.16647	1049.707	0.607
2	308.15	0.05876	1039.234	0.558
2	308.15	0.07496	1040.05	0.562
2	308.15	0.09286	1040.946	0.566
2	308.15	0.12088	1042.338	0.573
2	308.15	0.14249	1043.403	0.578
2	308.15	0.16647	1044.578	0.583
2	318.15	0.05876	1034.258	0.535
2	318.15	0.07496	1035.052	0.539
2	318.15	0.09286	1035.923	0.543
2	318.15	0.12088	1037.273	0.549
2	318.15	0.14249	1038.309	0.554
2	318.15	0.16647	1039.441	0.559
3	288.15	0.0482	1065.149	0.68
3	288.15	0.07064	1066.289	0.685
3	288.15	0.08246	1066.876	0.688
3	288.15	0.10036	1067.771	0.692
3	288.15	0.11586	1068.539	0.696
3	288.15	0.13472	1069.47	0.7
3	298.15	0.0482	1060.121	0.656
3	298.15	0.07064	1061.241	0.662
3	298.15	0.08246	1061.828	0.664
3	298.15	0.10036	1062.713	0.669
3	298.15	0.11586	1063.475	0.672
3	298.15	0.13472	1064.398	0.676
3	308.15	0.0482	1053.964	0.627
3	308.15	0.07064	1055.062	0.633
3	308.15	0.08246	1055.638	0.635
3	308.15	0.10036	1056.504	0.639
3	308.15	0.11586	1057.251	0.643
3	308.15	0.13472	1058.154	0.647
3	318.15	0.0482	1049.789	0.608
3	318.15	0.07064	1050.858	0.613
3	318.15	0.08246	1051.418	0.615
3	318.15	0.10036	1052.262	0.619
3	318.15	0.11586	1052.988	0.623
3	318.15	0.13472	1053.868	0.627

System: lithium chloride + water + D-(-)-arabinose; phases: Liquid
Fixed: Pressure, kPa = 101
Property: Viscosity, Pa*s (Liquid); method: Capillary tube (Ostwald; Ubbelohde) method
Solvent: Molality, mol/kg of lithium chloride	Temperature, K	Molality, mol/kg of D-(-)-arabinose	Viscosity, Pa*s	uncertainty
0.5	288.15	0.04764	0.001231	8e-06
0.5	288.15	0.06284	0.001237	8e-06
0.5	288.15	0.09294	0.001249	8e-06
0.5	288.15	0.10034	0.001252	8e-06
0.5	288.15	0.13348	0.001265	8e-06
0.5	288.15	0.16027	0.001276	8e-06
0.5	298.15	0.04764	0.000954	7e-06
0.5	298.15	0.06284	0.000959	7e-06
0.5	298.15	0.09294	0.000967	7e-06
0.5	298.15	0.10034	0.00097	7e-06
0.5	298.15	0.13348	0.000979	7e-06
0.5	298.15	0.16027	0.000987	7e-06
0.5	308.15	0.04764	0.00077	6e-06
0.5	308.15	0.06284	0.000774	6e-06
0.5	308.15	0.09294	0.00078	6e-06
0.5	308.15	0.10034	0.000782	6e-06
0.5	308.15	0.13348	0.000789	6e-06
0.5	308.15	0.16027	0.000794	6e-06
0.5	318.15	0.04764	0.000637	6e-06
0.5	318.15	0.06284	0.00064	6e-06
0.5	318.15	0.09294	0.000645	6e-06
0.5	318.15	0.10034	0.000646	6e-06
0.5	318.15	0.13348	0.000652	6e-06
0.5	318.15	0.16027	0.000656	6e-06
1	288.15	0.05214	0.001311	8e-06
1	288.15	0.06284	0.001316	8e-06
1	288.15	0.08034	0.001323	8e-06
1	288.15	0.11036	0.001336	8e-06
1	288.15	0.12048	0.001341	8e-06
1	288.15	0.14723	0.001352	8e-06
1	298.15	0.05214	0.001019	7e-06
1	298.15	0.06284	0.001022	7e-06
1	298.15	0.08034	0.001028	7e-06
1	298.15	0.11036	0.001038	7e-06
1	298.15	0.12048	0.001041	7e-06
1	298.15	0.14723	0.00105	7e-06
1	308.15	0.05214	0.000814	6e-06
1	308.15	0.06284	0.000816	6e-06
1	308.15	0.08034	0.000821	6e-06
1	308.15	0.11036	0.000827	6e-06
1	308.15	0.12048	0.00083	6e-06
1	308.15	0.14723	0.000836	6e-06
1	318.15	0.05214	0.000671	6e-06
1	318.15	0.06284	0.000673	6e-06
1	318.15	0.08034	0.000676	6e-06
1	318.15	0.11036	0.000681	6e-06
1	318.15	0.12048	0.000683	6e-06
1	318.15	0.14723	0.000688	6e-06
2	288.15	0.05876	0.001476	9e-06
2	288.15	0.07496	0.001485	9e-06
2	288.15	0.09286	0.001495	9e-06
2	288.15	0.12088	0.00151	9e-06
2	288.15	0.14249	0.001522	9e-06
2	288.15	0.16647	0.001535	9e-06
2	298.15	0.05876	0.001136	8e-06
2	298.15	0.07496	0.001142	8e-06
2	298.15	0.09286	0.001149	8e-06
2	298.15	0.12088	0.00116	8e-06
2	298.15	0.14249	0.001169	8e-06
2	298.15	0.16647	0.001178	8e-06
2	308.15	0.05876	0.000899	7e-06
2	308.15	0.07496	0.000903	7e-06
2	308.15	0.09286	0.000908	7e-06
2	308.15	0.12088	0.000916	7e-06
2	308.15	0.14249	0.000922	7e-06
2	308.15	0.16647	0.000928	7e-06
2	318.15	0.05876	0.000736	6e-06
2	318.15	0.07496	0.00074	6e-06
2	318.15	0.09286	0.000744	6e-06
2	318.15	0.12088	0.000749	6e-06
2	318.15	0.14249	0.000754	6e-06
2	318.15	0.16647	0.000759	6e-06
3	288.15	0.0482	0.00162	1e-05
3	288.15	0.07064	0.001635	1e-05
3	288.15	0.08246	0.001643	1e-05
3	288.15	0.10036	0.001656	1e-05
3	288.15	0.11586	0.001666	1e-05
3	288.15	0.13472	0.001679	1e-05
3	298.15	0.0482	0.001253	8e-06
3	298.15	0.07064	0.001265	8e-06
3	298.15	0.08246	0.001271	8e-06
3	298.15	0.10036	0.00128	8e-06
3	298.15	0.11586	0.001287	8e-06
3	298.15	0.13472	0.001297	8e-06
3	308.15	0.0482	0.000979	7e-06
3	308.15	0.07064	0.000987	7e-06
3	308.15	0.08246	0.000991	7e-06
3	308.15	0.10036	0.000997	7e-06
3	308.15	0.11586	0.001002	7e-06
3	308.15	0.13472	0.001009	7e-06
3	318.15	0.0482	0.000798	6e-06
3	318.15	0.07064	0.000804	6e-06
3	318.15	0.08246	0.000807	6e-06
3	318.15	0.10036	0.000812	6e-06
3	318.15	0.11586	0.000816	6e-06
3	318.15	0.13472	0.000821	6e-06

System: D-ribose + lithium chloride + water; phases: Liquid
Fixed: Pressure, kPa = 101
Property: Mass density, kg/m3 (Liquid); method: VIBTUB:UFactor:12
Solvent: Molality, mol/kg of lithium chloride	Temperature, K	Molality, mol/kg of D-ribose	Mass density, kg/m3	uncertainty
0.5	288.15	0.05074	1014.83	0.443
0.5	288.15	0.07074	1015.917	0.449
0.5	288.15	0.08289	1016.576	0.452
0.5	288.15	0.10078	1017.541	0.456
0.5	288.15	0.12268	1018.719	0.462
0.5	288.15	0.14527	1019.925	0.467
0.5	298.15	0.05074	1012.214	0.431
0.5	298.15	0.07074	1013.287	0.436
0.5	298.15	0.08289	1013.933	0.439
0.5	298.15	0.10078	1014.877	0.444
0.5	298.15	0.12268	1016.031	0.449
0.5	298.15	0.14527	1017.212	0.455
0.5	308.15	0.05074	1008.813	0.415
0.5	308.15	0.07074	1009.858	0.42
0.5	308.15	0.08289	1010.49	0.423
0.5	308.15	0.10078	1011.416	0.427
0.5	308.15	0.12268	1012.545	0.433
0.5	308.15	0.14527	1013.697	0.438
0.5	318.15	0.05074	1004.723	0.396
0.5	318.15	0.07074	1005.751	0.401
0.5	318.15	0.08289	1006.372	0.404
0.5	318.15	0.10078	1007.276	0.408
0.5	318.15	0.12268	1008.378	0.413
0.5	318.15	0.14527	1009.506	0.419
1	288.15	0.04924	1026.354	0.498
1	288.15	0.07224	1027.555	0.503
1	288.15	0.08788	1028.366	0.507
1	288.15	0.1024	1029.117	0.511
1	288.15	0.11456	1029.744	0.514
1	288.15	0.15046	1031.582	0.522
1	298.15	0.04924	1023.503	0.484
1	298.15	0.07224	1024.689	0.49
1	298.15	0.08788	1025.491	0.494
1	298.15	0.1024	1026.233	0.497
1	298.15	0.11456	1026.852	0.5
1	298.15	0.15046	1028.669	0.508
1	308.15	0.04924	1019.6	0.466
1	308.15	0.07224	1020.746	0.471
1	308.15	0.08788	1021.518	0.475
1	308.15	0.1024	1022.233	0.478
1	308.15	0.11456	1022.828	0.481
1	308.15	0.15046	1024.571	0.489
1	318.15	0.04924	1014.842	0.444
1	318.15	0.07224	1015.966	0.449
1	318.15	0.08788	1016.724	0.452
1	318.15	0.1024	1017.423	0.456
1	318.15	0.11456	1018.006	0.459
1	318.15	0.15046	1019.71	0.467
2	288.15	0.04436	1047.312	0.596
2	288.15	0.07228	1048.693	0.603
2	288.15	0.08288	1049.212	0.605
2	288.15	0.10057	1050.078	0.609
2	288.15	0.13592	1051.793	0.617
2	288.15	0.16064	1052.981	0.623
2	298.15	0.04436	1043.358	0.578
2	298.15	0.07228	1044.715	0.584
2	298.15	0.08288	1045.227	0.586
2	298.15	0.10057	1046.078	0.59
2	298.15	0.13592	1047.758	0.598
2	298.15	0.16064	1048.919	0.604
2	308.15	0.04436	1038.358	0.554
2	308.15	0.07228	1039.68	0.56
2	308.15	0.08288	1040.18	0.563
2	308.15	0.10057	1041.01	0.567
2	308.15	0.13592	1042.66	0.574
2	308.15	0.16064	1043.807	0.58
2	318.15	0.04436	1033.405	0.531
2	318.15	0.07228	1034.702	0.537
2	318.15	0.08288	1035.192	0.539
2	318.15	0.10057	1036.007	0.543
2	318.15	0.13592	1037.626	0.551
2	318.15	0.16064	1038.75	0.556
3	288.15	0.05008	1065.087	0.68
3	288.15	0.0624	1065.675	0.682
3	288.15	0.08878	1066.929	0.688
3	288.15	0.09994	1067.457	0.691
3	288.15	0.12678	1068.721	0.697
3	288.15	0.14476	1069.562	0.701
3	298.15	0.05008	1060.039	0.656
3	298.15	0.0624	1060.612	0.659
3	298.15	0.08878	1061.832	0.664
3	298.15	0.09994	1062.346	0.667
3	298.15	0.12678	1063.574	0.673
3	298.15	0.14476	1064.392	0.676
3	308.15	0.05008	1053.85	0.627
3	308.15	0.0624	1054.403	0.629
3	308.15	0.08878	1055.581	0.635
3	308.15	0.09994	1056.075	0.637
3	308.15	0.12678	1057.259	0.643
3	308.15	0.14476	1058.045	0.647
3	318.15	0.05008	1049.669	0.607
3	318.15	0.0624	1050.207	0.61
3	318.15	0.08878	1051.353	0.615
3	318.15	0.09994	1051.835	0.617
3	318.15	0.12678	1052.99	0.623
3	318.15	0.14476	1053.758	0.626

System: D-ribose + lithium chloride + water; phases: Liquid
Fixed: Pressure, kPa = 101
Property: Viscosity, Pa*s (Liquid); method: Capillary tube (Ostwald; Ubbelohde) method
Solvent: Molality, mol/kg of lithium chloride	Temperature, K	Molality, mol/kg of D-ribose	Viscosity, Pa*s	uncertainty
0.5	288.15	0.05074	0.001233	8e-06
0.5	288.15	0.07074	0.001241	8e-06
0.5	288.15	0.08289	0.001246	8e-06
0.5	288.15	0.10078	0.001254	8e-06
0.5	288.15	0.12268	0.001263	8e-06
0.5	288.15	0.14527	0.001272	8e-06
0.5	298.15	0.05074	0.000955	7e-06
0.5	298.15	0.07074	0.000961	7e-06
0.5	298.15	0.08289	0.000965	7e-06
0.5	298.15	0.10078	0.000971	7e-06
0.5	298.15	0.12268	0.000977	7e-06
0.5	298.15	0.14527	0.000984	7e-06
0.5	308.15	0.05074	0.000771	6e-06
0.5	308.15	0.07074	0.000776	6e-06
0.5	308.15	0.08289	0.000779	6e-06
0.5	308.15	0.10078	0.000783	6e-06
0.5	308.15	0.12268	0.000787	6e-06
0.5	308.15	0.14527	0.000792	6e-06
0.5	318.15	0.05074	0.000638	6e-06
0.5	318.15	0.07074	0.000641	6e-06
0.5	318.15	0.08289	0.000644	6e-06
0.5	318.15	0.10078	0.000647	6e-06
0.5	318.15	0.12268	0.000651	6e-06
0.5	318.15	0.14527	0.000654	6e-06
1	288.15	0.04924	0.001312	8e-06
1	288.15	0.07224	0.001323	8e-06
1	288.15	0.08788	0.001331	8e-06
1	288.15	0.1024	0.001338	8e-06
1	288.15	0.11456	0.001344	8e-06
1	288.15	0.15046	0.001361	8e-06
1	298.15	0.04924	0.001019	7e-06
1	298.15	0.07224	0.001027	7e-06
1	298.15	0.08788	0.001032	7e-06
1	298.15	0.1024	0.001037	7e-06
1	298.15	0.11456	0.001041	7e-06
1	298.15	0.15046	0.001054	7e-06
1	308.15	0.04924	0.000814	6e-06
1	308.15	0.07224	0.00082	6e-06
1	308.15	0.08788	0.000824	6e-06
1	308.15	0.1024	0.000827	6e-06
1	308.15	0.11456	0.00083	6e-06
1	308.15	0.15046	0.000839	6e-06
1	318.15	0.04924	0.000671	6e-06
1	318.15	0.07224	0.000675	6e-06
1	318.15	0.08788	0.000678	6e-06
1	318.15	0.1024	0.000681	6e-06
1	318.15	0.11456	0.000683	6e-06
1	318.15	0.15046	0.00069	6e-06
2	288.15	0.04436	0.001471	9e-06
2	288.15	0.07228	0.001487	9e-06
2	288.15	0.08288	0.001494	9e-06
2	288.15	0.10057	0.001504	9e-06
2	288.15	0.13592	0.001525	9e-06
2	288.15	0.16064	0.001539	9e-06
2	298.15	0.04436	0.001131	8e-06
2	298.15	0.07228	0.001143	8e-06
2	298.15	0.08288	0.001148	8e-06
2	298.15	0.10057	0.001155	8e-06
2	298.15	0.13592	0.00117	8e-06
2	298.15	0.16064	0.001181	8e-06
2	308.15	0.04436	0.000895	7e-06
2	308.15	0.07228	0.000902	7e-06
2	308.15	0.08288	0.000905	7e-06
2	308.15	0.10057	0.00091	7e-06
2	308.15	0.13592	0.00092	7e-06
2	308.15	0.16064	0.000927	7e-06
2	318.15	0.04436	0.000734	6e-06
2	318.15	0.07228	0.00074	6e-06
2	318.15	0.08288	0.000743	6e-06
2	318.15	0.10057	0.000747	6e-06
2	318.15	0.13592	0.000755	6e-06
2	318.15	0.16064	0.00076	6e-06
3	288.15	0.05008	0.001623	1e-05
3	288.15	0.0624	0.001633	1e-05
3	288.15	0.08878	0.001652	1e-05
3	288.15	0.09994	0.00166	1e-05
3	288.15	0.12678	0.00168	1e-05
3	288.15	0.14476	0.001693	1e-05
3	298.15	0.05008	0.001255	8e-06
3	298.15	0.0624	0.001262	8e-06
3	298.15	0.08878	0.001275	8e-06
3	298.15	0.09994	0.001281	8e-06
3	298.15	0.12678	0.001295	8e-06
3	298.15	0.14476	0.001304	8e-06
3	308.15	0.05008	0.000981	7e-06
3	308.15	0.0624	0.000985	7e-06
3	308.15	0.08878	0.000995	7e-06
3	308.15	0.09994	0.000999	7e-06
3	308.15	0.12678	0.001008	7e-06
3	308.15	0.14476	0.001015	7e-06
3	318.15	0.05008	0.000799	6e-06
3	318.15	0.0624	0.000802	6e-06
3	318.15	0.08878	0.00081	6e-06
3	318.15	0.09994	0.000813	6e-06
3	318.15	0.12678	0.00082	6e-06
3	318.15	0.14476	0.000825	6e-06

System: D-glucose + lithium chloride + water; phases: Liquid
Fixed: Pressure, kPa = 101
Property: Mass density, kg/m3 (Liquid); method: VIBTUB:UFactor:12
Solvent: Molality, mol/kg of lithium chloride	Temperature, K	Molality, mol/kg of D-glucose	Mass density, kg/m3	uncertainty
0.5	288.15	0.04838	1015.285	0.458
0.5	288.15	0.06989	1016.707	0.465
0.5	288.15	0.08851	1017.93	0.47
0.5	288.15	0.09575	1018.402	0.473
0.5	288.15	0.12594	1020.363	0.482
0.5	288.15	0.14759	1021.756	0.488
0.5	298.15	0.04838	1012.665	0.445
0.5	298.15	0.06989	1014.073	0.452
0.5	298.15	0.08851	1015.286	0.458
0.5	298.15	0.09575	1015.755	0.46
0.5	298.15	0.12594	1017.702	0.469
0.5	298.15	0.14759	1019.085	0.476
0.5	308.15	0.04838	1009.292	0.43
0.5	308.15	0.06989	1010.68	0.436
0.5	308.15	0.08851	1011.875	0.442
0.5	308.15	0.09575	1012.336	0.444
0.5	308.15	0.12594	1014.253	0.453
0.5	308.15	0.14759	1015.615	0.459
0.5	318.15	0.04838	1005.198	0.41
0.5	318.15	0.06989	1006.575	0.417
0.5	318.15	0.08851	1007.761	0.422
0.5	318.15	0.09575	1008.219	0.425
0.5	318.15	0.12594	1010.124	0.434
0.5	318.15	0.14759	1011.478	0.44
1	288.15	0.04815	1026.837	0.512
1	288.15	0.06472	1027.881	0.517
1	288.15	0.08061	1028.875	0.522
1	288.15	0.11013	1030.706	0.531
1	288.15	0.12234	1031.456	0.534
1	288.15	0.15179	1033.249	0.543
1	298.15	0.04815	1023.974	0.499
1	298.15	0.06472	1025.004	0.504
1	298.15	0.08061	1025.985	0.508
1	298.15	0.11013	1027.789	0.517
1	298.15	0.12234	1028.531	0.52
1	298.15	0.15179	1030.301	0.529
1	308.15	0.04815	1020.106	0.481
1	308.15	0.06472	1021.122	0.485
1	308.15	0.08061	1022.091	0.49
1	308.15	0.11013	1023.874	0.498
1	308.15	0.12234	1024.603	0.502
1	308.15	0.15179	1026.348	0.51
1	318.15	0.04815	1015.358	0.458
1	318.15	0.06472	1016.363	0.463
1	318.15	0.08061	1017.32	0.468
1	318.15	0.11013	1019.081	0.476
1	318.15	0.12234	1019.804	0.479
1	318.15	0.15179	1021.53	0.487
2	288.15	0.05587	1048.483	0.615
2	288.15	0.07161	1049.418	0.619
2	288.15	0.0916	1050.598	0.625
2	288.15	0.11094	1051.729	0.63
2	288.15	0.12212	1052.38	0.633
2	288.15	0.14983	1053.974	0.641
2	298.15	0.05587	1044.498	0.596
2	298.15	0.07161	1045.422	0.6
2	298.15	0.0916	1046.585	0.606
2	298.15	0.11094	1047.704	0.611
2	298.15	0.12212	1048.346	0.614
2	298.15	0.14983	1049.927	0.622
2	308.15	0.05587	1039.515	0.572
2	308.15	0.07161	1040.425	0.577
2	308.15	0.0916	1041.574	0.582
2	308.15	0.11094	1042.678	0.587
2	308.15	0.12212	1043.311	0.59
2	308.15	0.14983	1044.874	0.598
2	318.15	0.05587	1034.55	0.549
2	318.15	0.07161	1035.449	0.553
2	318.15	0.0916	1036.585	0.559
2	318.15	0.11094	1037.678	0.564
2	318.15	0.12212	1038.308	0.567
2	318.15	0.14983	1039.859	0.574
3	288.15	0.05011	1065.619	0.696
3	288.15	0.07487	1067.048	0.702
3	288.15	0.08802	1067.796	0.706
3	288.15	0.10067	1068.516	0.709
3	288.15	0.13584	1070.493	0.719
3	288.15	0.16827	1072.287	0.727
3	298.15	0.05011	1060.567	0.672
3	298.15	0.07487	1061.969	0.678
3	298.15	0.08802	1062.709	0.682
3	298.15	0.10067	1063.416	0.685
3	298.15	0.13584	1065.366	0.694
3	298.15	0.16827	1067.144	0.703
3	308.15	0.05011	1054.411	0.643
3	308.15	0.07487	1055.792	0.649
3	308.15	0.08802	1056.522	0.653
3	308.15	0.10067	1057.221	0.656
3	308.15	0.13584	1059.147	0.665
3	308.15	0.16827	1060.903	0.673
3	318.15	0.05011	1050.248	0.623
3	318.15	0.07487	1051.608	0.629
3	318.15	0.08802	1052.327	0.633
3	318.15	0.10067	1053.016	0.636
3	318.15	0.13584	1054.917	0.645
3	318.15	0.16827	1056.655	0.653

System: D-glucose + lithium chloride + water; phases: Liquid
Fixed: Pressure, kPa = 101
Property: Viscosity, Pa*s (Liquid); method: Capillary tube (Ostwald; Ubbelohde) method
Solvent: Molality, mol/kg of lithium chloride	Temperature, K	Molality, mol/kg of D-glucose	Viscosity, Pa*s	uncertainty
0.5	288.15	0.04838	0.001244	8e-06
0.5	288.15	0.06989	0.001259	8e-06
0.5	288.15	0.08851	0.001271	8e-06
0.5	288.15	0.09575	0.001276	8e-06
0.5	288.15	0.12594	0.001295	8e-06
0.5	288.15	0.14759	0.00131	8e-06
0.5	298.15	0.04838	0.000963	7e-06
0.5	298.15	0.06989	0.000973	7e-06
0.5	298.15	0.08851	0.000981	7e-06
0.5	298.15	0.09575	0.000985	7e-06
0.5	298.15	0.12594	0.000999	7e-06
0.5	298.15	0.14759	0.001009	7e-06
0.5	308.15	0.04838	0.000777	6e-06
0.5	308.15	0.06989	0.000784	6e-06
0.5	308.15	0.08851	0.00079	6e-06
0.5	308.15	0.09575	0.000793	6e-06
0.5	308.15	0.12594	0.000803	6e-06
0.5	308.15	0.14759	0.00081	6e-06
0.5	318.15	0.04838	0.000642	6e-06
0.5	318.15	0.06989	0.000647	6e-06
0.5	318.15	0.08851	0.000652	6e-06
0.5	318.15	0.09575	0.000654	6e-06
0.5	318.15	0.12594	0.000661	6e-06
0.5	318.15	0.14759	0.000667	6e-06
1	288.15	0.04815	0.001325	8e-06
1	288.15	0.06472	0.001338	9e-06
1	288.15	0.08061	0.00135	9e-06
1	288.15	0.11013	0.001372	9e-06
1	288.15	0.12234	0.001382	9e-06
1	288.15	0.15179	0.001404	9e-06
1	298.15	0.04815	0.001028	7e-06
1	298.15	0.06472	0.001037	7e-06
1	298.15	0.08061	0.001045	7e-06
1	298.15	0.11013	0.001061	7e-06
1	298.15	0.12234	0.001067	7e-06
1	298.15	0.15179	0.001083	7e-06
1	308.15	0.04815	0.000821	6e-06
1	308.15	0.06472	0.000827	6e-06
1	308.15	0.08061	0.000833	6e-06
1	308.15	0.11013	0.000845	6e-06
1	308.15	0.12234	0.00085	6e-06
1	308.15	0.15179	0.000861	6e-06
1	318.15	0.04815	0.000675	6e-06
1	318.15	0.06472	0.00068	6e-06
1	318.15	0.08061	0.000685	6e-06
1	318.15	0.11013	0.000694	6e-06
1	318.15	0.12234	0.000697	6e-06
1	318.15	0.15179	0.000706	6e-06
2	288.15	0.05587	0.001498	9e-06
2	288.15	0.07161	0.001513	9e-06
2	288.15	0.0916	0.001531	9e-06
2	288.15	0.11094	0.00155	9e-06
2	288.15	0.12212	0.00156	1e-05
2	288.15	0.14983	0.001586	1e-05
2	298.15	0.05587	0.001149	8e-06
2	298.15	0.07161	0.00116	8e-06
2	298.15	0.0916	0.001173	8e-06
2	298.15	0.11094	0.001186	8e-06
2	298.15	0.12212	0.001193	8e-06
2	298.15	0.14983	0.001211	8e-06
2	308.15	0.05587	0.000909	7e-06
2	308.15	0.07161	0.000916	7e-06
2	308.15	0.0916	0.000926	7e-06
2	308.15	0.11094	0.000934	7e-06
2	308.15	0.12212	0.00094	7e-06
2	308.15	0.14983	0.000953	7e-06
2	318.15	0.05587	0.000744	6e-06
2	318.15	0.07161	0.00075	6e-06
2	318.15	0.0916	0.000757	6e-06
2	318.15	0.11094	0.000764	6e-06
2	318.15	0.12212	0.000768	6e-06
2	318.15	0.14983	0.000778	6e-06
3	288.15	0.05011	0.001644	1e-05
3	288.15	0.07487	0.001673	1e-05
3	288.15	0.08802	0.001688	1e-05
3	288.15	0.10067	0.001702	1e-05
3	288.15	0.13584	0.001742	1e-05
3	288.15	0.16827	0.001779	1.1e-05
3	298.15	0.05011	0.00127	8e-06
3	298.15	0.07487	0.001289	8e-06
3	298.15	0.08802	0.0013	8e-06
3	298.15	0.10067	0.00131	8e-06
3	298.15	0.13584	0.001338	9e-06
3	298.15	0.16827	0.001364	9e-06
3	308.15	0.05011	0.000991	7e-06
3	308.15	0.07487	0.001005	7e-06
3	308.15	0.08802	0.001013	7e-06
3	308.15	0.10067	0.00102	7e-06
3	308.15	0.13584	0.00104	7e-06
3	308.15	0.16827	0.001058	7e-06
3	318.15	0.05011	0.000807	6e-06
3	318.15	0.07487	0.000818	6e-06
3	318.15	0.08802	0.000824	6e-06
3	318.15	0.10067	0.000829	6e-06
3	318.15	0.13584	0.000844	6e-06
3	318.15	0.16827	0.000858	6e-06

System: D-mannose + lithium chloride + water; phases: Liquid
Fixed: Pressure, kPa = 101
Property: Mass density, kg/m3 (Liquid); method: VIBTUB:UFactor:12
Solvent: Molality, mol/kg of lithium chloride	Temperature, K	Molality, mol/kg of D-mannose	Mass density, kg/m3	uncertainty
0.5	288.15	0.04864	1015.326	0.446
0.5	288.15	0.07402	1017.015	0.454
0.5	288.15	0.09976	1018.712	0.462
0.5	288.15	0.11904	1019.977	0.468
0.5	288.15	0.13059	1020.73	0.471
0.5	288.15	0.15247	1022.151	0.478
0.5	298.15	0.04864	1012.705	0.433
0.5	298.15	0.07402	1014.374	0.441
0.5	298.15	0.09976	1016.047	0.449
0.5	298.15	0.11904	1017.294	0.455
0.5	298.15	0.13059	1018.032	0.459
0.5	298.15	0.15247	1019.429	0.465
0.5	308.15	0.04864	1009.353	0.418
0.5	308.15	0.07402	1011.016	0.426
0.5	308.15	0.09976	1012.689	0.433
0.5	308.15	0.11904	1013.933	0.439
0.5	308.15	0.13059	1014.675	0.443
0.5	308.15	0.15247	1016.073	0.449
0.5	318.15	0.04864	1005.262	0.399
0.5	318.15	0.07402	1006.912	0.406
0.5	318.15	0.09976	1008.575	0.414
0.5	318.15	0.11904	1009.81	0.42
0.5	318.15	0.13059	1010.545	0.423
0.5	318.15	0.15247	1011.934	0.43
1	288.15	0.04835	1026.966	0.5
1	288.15	0.06795	1028.255	0.507
1	288.15	0.08146	1029.14	0.511
1	288.15	0.09462	1029.998	0.515
1	288.15	0.10076	1030.396	0.517
1	288.15	0.14091	1032.99	0.529
1	298.15	0.04835	1024.11	0.487
1	298.15	0.06795	1025.382	0.493
1	298.15	0.08146	1026.256	0.497
1	298.15	0.09462	1027.104	0.501
1	298.15	0.10076	1027.499	0.503
1	298.15	0.14091	1030.061	0.515
1	308.15	0.04835	1020.252	0.469
1	308.15	0.06795	1021.514	0.475
1	308.15	0.08146	1022.381	0.479
1	308.15	0.09462	1023.221	0.483
1	308.15	0.10076	1023.612	0.485
1	308.15	0.14091	1026.158	0.497
1	318.15	0.04835	1015.501	0.447
1	318.15	0.06795	1016.746	0.453
1	318.15	0.08146	1017.6	0.457
1	318.15	0.09462	1018.429	0.46
1	318.15	0.10076	1018.815	0.462
1	318.15	0.14091	1021.319	0.474
2	288.15	0.05765	1048.749	0.603
2	288.15	0.06981	1049.512	0.606
2	288.15	0.0826	1050.312	0.61
2	288.15	0.1023	1051.54	0.616
2	288.15	0.1257	1052.99	0.623
2	288.15	0.14452	1054.15	0.628
2	298.15	0.05765	1044.776	0.584
2	298.15	0.06981	1045.528	0.588
2	298.15	0.0826	1046.317	0.591
2	298.15	0.1023	1047.527	0.597
2	298.15	0.1257	1048.955	0.604
2	298.15	0.14452	1050.098	0.609
2	308.15	0.05765	1039.797	0.561
2	308.15	0.06981	1040.54	0.564
2	308.15	0.0826	1041.32	0.568
2	308.15	0.1023	1042.515	0.574
2	308.15	0.1257	1043.927	0.58
2	308.15	0.14452	1045.056	0.586
2	318.15	0.05765	1034.828	0.538
2	318.15	0.06981	1035.558	0.541
2	318.15	0.0826	1036.323	0.545
2	318.15	0.1023	1037.495	0.55
2	318.15	0.1257	1038.876	0.557
2	318.15	0.14452	1039.98	0.562
3	288.15	0.04498	1065.364	0.681
3	288.15	0.06274	1066.417	0.686
3	288.15	0.0815	1067.524	0.691
3	288.15	0.10003	1068.612	0.696
3	288.15	0.11998	1069.777	0.702
3	288.15	0.14839	1071.426	0.709
3	298.15	0.04498	1060.33	0.657
3	298.15	0.06274	1061.359	0.662
3	298.15	0.0815	1062.436	0.667
3	298.15	0.10003	1063.491	0.672
3	298.15	0.11998	1064.622	0.677
3	298.15	0.14839	1066.212	0.685
3	308.15	0.04498	1054.186	0.628
3	308.15	0.06274	1055.202	0.633
3	308.15	0.0815	1056.266	0.638
3	308.15	0.10003	1057.308	0.643
3	308.15	0.11998	1058.428	0.648
3	308.15	0.14839	1059.997	0.656
3	318.15	0.04498	1050.032	0.609
3	318.15	0.06274	1051.034	0.614
3	318.15	0.0815	1052.084	0.619
3	318.15	0.10003	1053.113	0.623
3	318.15	0.11998	1054.213	0.629
3	318.15	0.14839	1055.77	0.636

System: D-mannose + lithium chloride + water; phases: Liquid
Fixed: Pressure, kPa = 101
Property: Viscosity, Pa*s (Liquid); method: Capillary tube (Ostwald; Ubbelohde) method
Solvent: Molality, mol/kg of lithium chloride	Temperature, K	Molality, mol/kg of D-mannose	Viscosity, Pa*s	uncertainty
0.5	288.15	0.04864	0.001245	8e-06
0.5	288.15	0.07402	0.001261	8e-06
0.5	288.15	0.09976	0.001278	8e-06
0.5	288.15	0.11904	0.001291	8e-06
0.5	288.15	0.13059	0.001299	8e-06
0.5	288.15	0.15247	0.001313	8e-06
0.5	298.15	0.04864	0.000963	7e-06
0.5	298.15	0.07402	0.000975	7e-06
0.5	298.15	0.09976	0.000987	7e-06
0.5	298.15	0.11904	0.000995	7e-06
0.5	298.15	0.13059	0.001001	7e-06
0.5	298.15	0.15247	0.001011	7e-06
0.5	308.15	0.04864	0.000777	6e-06
0.5	308.15	0.07402	0.000786	6e-06
0.5	308.15	0.09976	0.000795	6e-06
0.5	308.15	0.11904	0.000801	6e-06
0.5	308.15	0.13059	0.000805	6e-06
0.5	308.15	0.15247	0.000813	6e-06
0.5	318.15	0.04864	0.000642	6e-06
0.5	318.15	0.07402	0.000648	6e-06
0.5	318.15	0.09976	0.000655	6e-06
0.5	318.15	0.11904	0.00066	6e-06
0.5	318.15	0.13059	0.000663	6e-06
0.5	318.15	0.15247	0.000669	6e-06
1	288.15	0.04835	0.001325	8e-06
1	288.15	0.06795	0.00134	8e-06
1	288.15	0.08146	0.00135	8e-06
1	288.15	0.09462	0.00136	8e-06
1	288.15	0.10076	0.001365	8e-06
1	288.15	0.14091	0.001395	9e-06
1	298.15	0.04835	0.001028	7e-06
1	298.15	0.06795	0.001039	7e-06
1	298.15	0.08146	0.001046	7e-06
1	298.15	0.09462	0.001053	7e-06
1	298.15	0.10076	0.001056	7e-06
1	298.15	0.14091	0.001077	7e-06
1	308.15	0.04835	0.000821	6e-06
1	308.15	0.06795	0.000829	6e-06
1	308.15	0.08146	0.000834	6e-06
1	308.15	0.09462	0.000839	6e-06
1	308.15	0.10076	0.000842	6e-06
1	308.15	0.14091	0.000857	6e-06
1	318.15	0.04835	0.000676	6e-06
1	318.15	0.06795	0.000681	6e-06
1	318.15	0.08146	0.000685	6e-06
1	318.15	0.09462	0.000689	6e-06
1	318.15	0.10076	0.000691	6e-06
1	318.15	0.14091	0.000703	6e-06
2	288.15	0.05765	0.001499	9e-06
2	288.15	0.06981	0.00151	9e-06
2	288.15	0.0826	0.001522	9e-06
2	288.15	0.1023	0.001541	9e-06
2	288.15	0.1257	0.001562	9e-06
2	288.15	0.14452	0.00158	9e-06
2	298.15	0.05765	0.00115	8e-06
2	298.15	0.06981	0.001158	8e-06
2	298.15	0.0826	0.001166	8e-06
2	298.15	0.1023	0.001179	8e-06
2	298.15	0.1257	0.001195	8e-06
2	298.15	0.14452	0.001207	8e-06
2	308.15	0.05765	0.00091	7e-06
2	308.15	0.06981	0.000916	7e-06
2	308.15	0.0826	0.000922	7e-06
2	308.15	0.1023	0.000932	7e-06
2	308.15	0.1257	0.000943	7e-06
2	308.15	0.14452	0.000952	7e-06
2	318.15	0.05765	0.000745	6e-06
2	318.15	0.06981	0.000749	6e-06
2	318.15	0.0826	0.000754	6e-06
2	318.15	0.1023	0.000761	6e-06
2	318.15	0.1257	0.000769	6e-06
2	318.15	0.14452	0.000776	6e-06
3	288.15	0.04498	0.001638	1e-05
3	288.15	0.06274	0.001658	1e-05
3	288.15	0.0815	0.001679	1e-05
3	288.15	0.10003	0.0017	1e-05
3	288.15	0.11998	0.001722	1e-05
3	288.15	0.14839	0.001754	1e-05
3	298.15	0.04498	0.001266	8e-06
3	298.15	0.06274	0.00128	8e-06
3	298.15	0.0815	0.001295	8e-06
3	298.15	0.10003	0.00131	8e-06
3	298.15	0.11998	0.001326	8e-06
3	298.15	0.14839	0.001349	8e-06
3	308.15	0.04498	0.000989	7e-06
3	308.15	0.06274	0.000999	7e-06
3	308.15	0.0815	0.00101	7e-06
3	308.15	0.10003	0.001021	7e-06
3	308.15	0.11998	0.001032	7e-06
3	308.15	0.14839	0.001048	7e-06
3	318.15	0.04498	0.000805	6e-06
3	318.15	0.06274	0.000813	6e-06
3	318.15	0.0815	0.000821	6e-06
3	318.15	0.10003	0.000829	6e-06
3	318.15	0.11998	0.000837	6e-06
3	318.15	0.14839	0.00085	6e-06

System: (+)-galactose + lithium chloride + water; phases: Liquid
Fixed: Pressure, kPa = 101
Property: Mass density, kg/m3 (Liquid); method: VIBTUB:UFactor:12
Solvent: Molality, mol/kg of lithium chloride	Temperature, K	Molality, mol/kg of (+)-galactose	Mass density, kg/m3	uncertainty
0.5	288.15	0.04932	1015.421	0.45
0.5	288.15	0.05874	1016.059	0.453
0.5	288.15	0.09135	1018.256	0.463
0.5	288.15	0.11009	1019.51	0.469
0.5	288.15	0.12268	1020.349	0.473
0.5	288.15	0.15546	1022.518	0.483
0.5	298.15	0.04932	1012.794	0.437
0.5	298.15	0.05874	1013.424	0.44
0.5	298.15	0.09135	1015.589	0.451
0.5	298.15	0.11009	1016.824	0.456
0.5	298.15	0.12268	1017.65	0.46
0.5	298.15	0.15546	1019.783	0.47
0.5	308.15	0.04932	1009.42	0.422
0.5	308.15	0.05874	1010.041	0.425
0.5	308.15	0.09135	1012.176	0.435
0.5	308.15	0.11009	1013.392	0.44
0.5	308.15	0.12268	1014.205	0.444
0.5	308.15	0.15546	1016.304	0.454
0.5	318.15	0.04932	1005.318	0.402
0.5	318.15	0.05874	1005.931	0.405
0.5	318.15	0.09135	1008.041	0.415
0.5	318.15	0.11009	1009.243	0.421
0.5	318.15	0.12268	1010.046	0.425
0.5	318.15	0.15546	1012.118	0.434
1	288.15	0.04476	1026.701	0.503
1	288.15	0.06939	1028.3	0.51
1	288.15	0.08874	1029.546	0.516
1	288.15	0.11474	1031.207	0.524
1	288.15	0.13058	1032.209	0.529
1	288.15	0.15697	1033.869	0.537
1	298.15	0.04476	1023.849	0.489
1	298.15	0.06939	1025.434	0.497
1	298.15	0.08874	1026.67	0.503
1	298.15	0.11474	1028.321	0.511
1	298.15	0.13058	1029.319	0.515
1	298.15	0.15697	1030.973	0.523
1	308.15	0.04476	1019.986	0.471
1	308.15	0.06939	1021.552	0.479
1	308.15	0.08874	1022.775	0.484
1	308.15	0.11474	1024.408	0.492
1	308.15	0.13058	1025.396	0.497
1	308.15	0.15697	1027.034	0.504
1	318.15	0.04476	1015.235	0.449
1	318.15	0.06939	1016.78	0.456
1	318.15	0.08874	1017.987	0.462
1	318.15	0.11474	1019.598	0.47
1	318.15	0.13058	1020.574	0.474
1	318.15	0.15697	1022.191	0.482
2	288.15	0.04466	1047.889	0.603
2	288.15	0.06657	1049.244	0.609
2	288.15	0.09116	1050.755	0.616
2	288.15	0.10039	1051.318	0.619
2	288.15	0.13267	1053.277	0.628
2	288.15	0.15549	1054.648	0.634
2	298.15	0.04466	1043.928	0.584
2	298.15	0.06657	1045.264	0.59
2	298.15	0.09116	1046.753	0.597
2	298.15	0.10039	1047.309	0.6
2	298.15	0.13267	1049.239	0.609
2	298.15	0.15549	1050.592	0.615
2	308.15	0.04466	1038.956	0.561
2	308.15	0.06657	1040.275	0.567
2	308.15	0.09116	1041.743	0.574
2	308.15	0.10039	1042.291	0.576
2	308.15	0.13267	1044.196	0.585
2	308.15	0.15549	1045.53	0.592
2	318.15	0.04466	1034.002	0.537
2	318.15	0.06657	1035.303	0.543
2	318.15	0.09116	1036.756	0.55
2	318.15	0.10039	1037.299	0.553
2	318.15	0.13267	1039.186	0.562
2	318.15	0.15549	1040.51	0.568
3	288.15	0.05125	1065.729	0.687
3	288.15	0.07199	1066.951	0.692
3	288.15	0.09128	1068.08	0.698
3	288.15	0.10228	1068.72	0.701
3	288.15	0.11896	1069.686	0.705
3	288.15	0.13894	1070.837	0.711
3	298.15	0.05125	1060.698	0.663
3	298.15	0.07199	1061.903	0.669
3	298.15	0.09128	1063.018	0.674
3	298.15	0.10228	1063.649	0.677
3	298.15	0.11896	1064.605	0.681
3	298.15	0.13894	1065.742	0.687
3	308.15	0.05125	1054.542	0.634
3	308.15	0.07199	1055.727	0.64
3	308.15	0.09128	1056.823	0.645
3	308.15	0.10228	1057.445	0.648
3	308.15	0.11896	1058.383	0.652
3	308.15	0.13894	1059.5	0.657
3	318.15	0.05125	1050.378	0.614
3	318.15	0.07199	1051.545	0.62
3	318.15	0.09128	1052.624	0.625
3	318.15	0.10228	1053.237	0.628
3	318.15	0.11896	1054.163	0.632
3	318.15	0.13894	1055.265	0.637

System: (+)-galactose + lithium chloride + water; phases: Liquid
Fixed: Pressure, kPa = 101
Property: Viscosity, Pa*s (Liquid); method: Capillary tube (Ostwald; Ubbelohde) method
Solvent: Molality, mol/kg of lithium chloride	Temperature, K	Molality, mol/kg of (+)-galactose	Viscosity, Pa*s	uncertainty
0.5	288.15	0.04932	0.001244	8e-06
0.5	288.15	0.05874	0.00125	8e-06
0.5	288.15	0.09135	0.00127	8e-06
0.5	288.15	0.11009	0.001282	8e-06
0.5	288.15	0.12268	0.00129	8e-06
0.5	288.15	0.15546	0.00131	8e-06
0.5	298.15	0.04932	0.000962	7e-06
0.5	298.15	0.05874	0.000966	7e-06
0.5	298.15	0.09135	0.000981	7e-06
0.5	298.15	0.11009	0.000989	7e-06
0.5	298.15	0.12268	0.000994	7e-06
0.5	298.15	0.15546	0.001009	7e-06
0.5	308.15	0.04932	0.000776	6e-06
0.5	308.15	0.05874	0.000779	6e-06
0.5	308.15	0.09135	0.00079	6e-06
0.5	308.15	0.11009	0.000796	6e-06
0.5	308.15	0.12268	0.0008	6e-06
0.5	308.15	0.15546	0.000811	6e-06
0.5	318.15	0.04932	0.000641	6e-06
0.5	318.15	0.05874	0.000643	6e-06
0.5	318.15	0.09135	0.000651	6e-06
0.5	318.15	0.11009	0.000656	6e-06
0.5	318.15	0.12268	0.000659	6e-06
0.5	318.15	0.15546	0.000667	6e-06
1	288.15	0.04476	0.00132	8e-06
1	288.15	0.06939	0.001338	8e-06
1	288.15	0.08874	0.001352	8e-06
1	288.15	0.11474	0.00137	9e-06
1	288.15	0.13058	0.001381	9e-06
1	288.15	0.15697	0.0014	9e-06
1	298.15	0.04476	0.001025	7e-06
1	298.15	0.06939	0.001037	7e-06
1	298.15	0.08874	0.001047	7e-06
1	298.15	0.11474	0.00106	7e-06
1	298.15	0.13058	0.001068	7e-06
1	298.15	0.15697	0.001082	7e-06
1	308.15	0.04476	0.000818	6e-06
1	308.15	0.06939	0.000828	6e-06
1	308.15	0.08874	0.000835	6e-06
1	308.15	0.11474	0.000844	6e-06
1	308.15	0.13058	0.00085	6e-06
1	308.15	0.15697	0.00086	6e-06
1	318.15	0.04476	0.000673	6e-06
1	318.15	0.06939	0.00068	6e-06
1	318.15	0.08874	0.000685	6e-06
1	318.15	0.11474	0.000692	6e-06
1	318.15	0.13058	0.000696	6e-06
1	318.15	0.15697	0.000703	6e-06
2	288.15	0.04466	0.001485	9e-06
2	288.15	0.06657	0.001504	9e-06
2	288.15	0.09116	0.001526	9e-06
2	288.15	0.10039	0.001534	9e-06
2	288.15	0.13267	0.001563	9e-06
2	288.15	0.15549	0.001583	1e-05
2	298.15	0.04466	0.00114	8e-06
2	298.15	0.06657	0.001154	8e-06
2	298.15	0.09116	0.00117	8e-06
2	298.15	0.10039	0.001175	8e-06
2	298.15	0.13267	0.001196	8e-06
2	298.15	0.15549	0.00121	8e-06
2	308.15	0.04466	0.000903	7e-06
2	308.15	0.06657	0.000913	7e-06
2	308.15	0.09116	0.000924	7e-06
2	308.15	0.10039	0.000928	7e-06
2	308.15	0.13267	0.000942	7e-06
2	308.15	0.15549	0.000953	7e-06
2	318.15	0.04466	0.000739	6e-06
2	318.15	0.06657	0.000747	6e-06
2	318.15	0.09116	0.000755	6e-06
2	318.15	0.10039	0.000758	6e-06
2	318.15	0.13267	0.000769	6e-06
2	318.15	0.15549	0.000776	6e-06
3	288.15	0.05125	0.001642	1e-05
3	288.15	0.07199	0.001665	1e-05
3	288.15	0.09128	0.001682	1e-05
3	288.15	0.10228	0.001697	1e-05
3	288.15	0.11896	0.001715	1e-05
3	288.15	0.13894	0.001736	1e-05
3	298.15	0.05125	0.001269	8e-06
3	298.15	0.07199	0.001285	8e-06
3	298.15	0.09128	0.0013	8e-06
3	298.15	0.10228	0.001308	8e-06
3	298.15	0.11896	0.001321	8e-06
3	298.15	0.13894	0.001336	8e-06
3	308.15	0.05125	0.000991	7e-06
3	308.15	0.07199	0.001002	7e-06
3	308.15	0.09128	0.001013	7e-06
3	308.15	0.10228	0.001019	7e-06
3	308.15	0.11896	0.001028	7e-06
3	308.15	0.13894	0.001038	7e-06
3	318.15	0.05125	0.000806	6e-06
3	318.15	0.07199	0.000814	6e-06
3	318.15	0.09128	0.000822	6e-06
3	318.15	0.10228	0.000827	6e-06
3	318.15	0.11896	0.000833	6e-06
3	318.15	0.13894	0.000841	6e-06

System: D-fructose + lithium chloride + water; phases: Liquid
Fixed: Pressure, kPa = 101
Property: Mass density, kg/m3 (Liquid); method: VIBTUB:UFactor:12
Solvent: Molality, mol/kg of lithium chloride	Temperature, K	Molality, mol/kg of D-fructose	Mass density, kg/m3	uncertainty
0.5	288.15	0.05228	1015.601	0.459
0.5	288.15	0.08769	1017.979	0.471
0.5	288.15	0.12506	1020.464	0.482
0.5	288.15	0.14578	1021.832	0.489
0.5	288.15	0.18537	1024.425	0.501
0.5	288.15	0.20704	1025.832	0.508
0.5	298.15	0.05228	1012.959	0.447
0.5	298.15	0.08769	1015.297	0.458
0.5	298.15	0.12506	1017.737	0.469
0.5	298.15	0.14578	1019.081	0.476
0.5	298.15	0.18537	1021.626	0.488
0.5	298.15	0.20704	1023.005	0.494
0.5	308.15	0.05228	1009.579	0.431
0.5	308.15	0.08769	1011.884	0.442
0.5	308.15	0.12506	1014.293	0.453
0.5	308.15	0.14578	1015.617	0.459
0.5	308.15	0.18537	1018.128	0.471
0.5	308.15	0.20704	1019.483	0.478
0.5	318.15	0.05228	1005.479	0.412
0.5	318.15	0.08769	1007.758	0.422
0.5	318.15	0.12506	1010.138	0.434
0.5	318.15	0.14578	1011.446	0.44
0.5	318.15	0.18537	1013.923	0.452
0.5	318.15	0.20704	1015.267	0.458
1	288.15	0.05087	1027.12	0.514
1	288.15	0.0674	1028.2	0.519
1	288.15	0.0814	1029.108	0.523
1	288.15	0.09963	1030.285	0.529
1	288.15	0.11184	1031.07	0.532
1	288.15	0.15027	1033.512	0.544
1	298.15	0.05087	1024.249	0.5
1	298.15	0.0674	1025.31	0.505
1	298.15	0.0814	1026.203	0.509
1	298.15	0.09963	1027.361	0.515
1	298.15	0.11184	1028.131	0.519
1	298.15	0.15027	1030.532	0.53
1	308.15	0.05087	1020.374	0.482
1	308.15	0.0674	1021.421	0.487
1	308.15	0.0814	1022.303	0.491
1	308.15	0.09963	1023.446	0.496
1	308.15	0.11184	1024.208	0.5
1	308.15	0.15027	1026.583	0.511
1	318.15	0.05087	1015.617	0.46
1	318.15	0.0674	1016.649	0.464
1	318.15	0.0814	1017.518	0.469
1	318.15	0.09963	1018.643	0.474
1	318.15	0.11184	1019.392	0.477
1	318.15	0.15027	1021.729	0.488
2	288.15	0.04849	1048.125	0.613
2	288.15	0.0671	1049.273	0.618
2	288.15	0.08973	1050.658	0.625
2	288.15	0.10799	1051.767	0.63
2	288.15	0.12237	1052.636	0.634
2	288.15	0.14856	1054.207	0.642
2	298.15	0.04849	1044.147	0.594
2	298.15	0.0671	1045.274	0.6
2	298.15	0.08973	1046.634	0.606
2	298.15	0.10799	1047.722	0.611
2	298.15	0.12237	1048.573	0.615
2	298.15	0.14856	1050.116	0.622
2	308.15	0.04849	1039.171	0.571
2	308.15	0.0671	1040.284	0.576
2	308.15	0.08973	1041.629	0.582
2	308.15	0.10799	1042.706	0.587
2	308.15	0.12237	1043.549	0.591
2	308.15	0.14856	1045.077	0.599
2	318.15	0.04849	1034.215	0.547
2	318.15	0.0671	1035.312	0.553
2	318.15	0.08973	1036.638	0.559
2	318.15	0.10799	1037.702	0.564
2	318.15	0.12237	1038.535	0.568
2	318.15	0.14856	1040.041	0.575
3	288.15	0.04211	1065.195	0.694
3	288.15	0.05815	1066.145	0.698
3	288.15	0.09108	1068.081	0.707
3	288.15	0.11005	1069.186	0.713
3	288.15	0.12358	1069.968	0.716
3	288.15	0.15549	1071.804	0.725
3	298.15	0.04211	1060.16	0.67
3	298.15	0.05815	1061.091	0.674
3	298.15	0.09108	1062.985	0.683
3	298.15	0.11005	1064.067	0.688
3	298.15	0.12358	1064.832	0.692
3	298.15	0.15549	1066.622	0.7
3	308.15	0.04211	1054.017	0.641
3	308.15	0.05815	1054.937	0.645
3	308.15	0.09108	1056.815	0.654
3	308.15	0.11005	1057.888	0.659
3	308.15	0.12358	1058.649	0.663
3	308.15	0.15549	1060.435	0.671
3	318.15	0.04211	1049.865	0.621
3	318.15	0.05815	1050.771	0.626
3	318.15	0.09108	1052.617	0.634
3	318.15	0.11005	1053.673	0.639
3	318.15	0.12358	1054.422	0.643
3	318.15	0.15549	1056.177	0.651

System: D-fructose + lithium chloride + water; phases: Liquid
Fixed: Pressure, kPa = 101
Property: Viscosity, Pa*s (Liquid); method: Capillary tube (Ostwald; Ubbelohde) method
Solvent: Molality, mol/kg of lithium chloride	Temperature, K	Molality, mol/kg of D-fructose	Viscosity, Pa*s	uncertainty
0.5	288.15	0.05228	0.001245	8e-06
0.5	288.15	0.08769	0.001266	8e-06
0.5	288.15	0.12506	0.001289	8e-06
0.5	288.15	0.14578	0.001302	8e-06
0.5	288.15	0.18537	0.001326	8e-06
0.5	288.15	0.20704	0.001338	9e-06
0.5	298.15	0.05228	0.000963	7e-06
0.5	298.15	0.08769	0.000978	7e-06
0.5	298.15	0.12506	0.000994	7e-06
0.5	298.15	0.14578	0.001003	7e-06
0.5	298.15	0.18537	0.00102	7e-06
0.5	298.15	0.20704	0.001029	7e-06
0.5	308.15	0.05228	0.000777	6e-06
0.5	308.15	0.08769	0.000788	6e-06
0.5	308.15	0.12506	0.0008	6e-06
0.5	308.15	0.14578	0.000807	6e-06
0.5	308.15	0.18537	0.000819	6e-06
0.5	308.15	0.20704	0.000826	6e-06
0.5	318.15	0.05228	0.000642	6e-06
0.5	318.15	0.08769	0.00065	6e-06
0.5	318.15	0.12506	0.000659	6e-06
0.5	318.15	0.14578	0.000664	6e-06
0.5	318.15	0.18537	0.000673	6e-06
0.5	318.15	0.20704	0.000678	6e-06
1	288.15	0.05087	0.001324	8e-06
1	288.15	0.0674	0.001334	9e-06
1	288.15	0.0814	0.001344	9e-06
1	288.15	0.09963	0.001356	9e-06
1	288.15	0.11184	0.001364	9e-06
1	288.15	0.15027	0.00139	9e-06
1	298.15	0.05087	0.001027	7e-06
1	298.15	0.0674	0.001035	7e-06
1	298.15	0.0814	0.001041	7e-06
1	298.15	0.09963	0.00105	7e-06
1	298.15	0.11184	0.001056	7e-06
1	298.15	0.15027	0.001074	7e-06
1	308.15	0.05087	0.00082	6e-06
1	308.15	0.0674	0.000825	6e-06
1	308.15	0.0814	0.00083	6e-06
1	308.15	0.09963	0.000837	6e-06
1	308.15	0.11184	0.000841	6e-06
1	308.15	0.15027	0.000854	6e-06
1	318.15	0.05087	0.000674	6e-06
1	318.15	0.0674	0.000679	6e-06
1	318.15	0.0814	0.000682	6e-06
1	318.15	0.09963	0.000687	6e-06
1	318.15	0.11184	0.00069	6e-06
1	318.15	0.15027	0.0007	6e-06
2	288.15	0.04849	0.001487	9e-06
2	288.15	0.0671	0.001503	9e-06
2	288.15	0.08973	0.001523	9e-06
2	288.15	0.10799	0.001538	9e-06
2	288.15	0.12237	0.001551	1e-05
2	288.15	0.14856	0.001573	1e-05
2	298.15	0.04849	0.001142	8e-06
2	298.15	0.0671	0.001153	8e-06
2	298.15	0.08973	0.001167	8e-06
2	298.15	0.10799	0.001178	8e-06
2	298.15	0.12237	0.001187	8e-06
2	298.15	0.14856	0.001203	8e-06
2	308.15	0.04849	0.000904	7e-06
2	308.15	0.0671	0.000912	7e-06
2	308.15	0.08973	0.000922	7e-06
2	308.15	0.10799	0.00093	7e-06
2	308.15	0.12237	0.000937	7e-06
2	308.15	0.14856	0.000948	7e-06
2	318.15	0.04849	0.00074	6e-06
2	318.15	0.0671	0.000746	6e-06
2	318.15	0.08973	0.000753	6e-06
2	318.15	0.10799	0.000759	6e-06
2	318.15	0.12237	0.000764	6e-06
2	318.15	0.14856	0.000772	6e-06
3	288.15	0.04211	0.001631	1e-05
3	288.15	0.05815	0.001649	1e-05
3	288.15	0.09108	0.001683	1e-05
3	288.15	0.11005	0.001703	1e-05
3	288.15	0.12358	0.001717	1e-05
3	288.15	0.15549	0.001751	1e-05
3	298.15	0.04211	0.001261	8e-06
3	298.15	0.05815	0.001274	8e-06
3	298.15	0.09108	0.001299	8e-06
3	298.15	0.11005	0.001313	8e-06
3	298.15	0.12358	0.001323	8e-06
3	298.15	0.15549	0.001347	9e-06
3	308.15	0.04211	0.000985	7e-06
3	308.15	0.05815	0.000994	7e-06
3	308.15	0.09108	0.001012	7e-06
3	308.15	0.11005	0.001022	7e-06
3	308.15	0.12358	0.001029	7e-06
3	308.15	0.15549	0.001047	7e-06
3	318.15	0.04211	0.000802	6e-06
3	318.15	0.05815	0.000808	6e-06
3	318.15	0.09108	0.000821	6e-06
3	318.15	0.11005	0.000829	6e-06
3	318.15	0.12358	0.000834	6e-06
3	318.15	0.15549	0.000846	6e-06

System: 6-.alpha.-D-galactopyranosyl-D-glucopyranose + lithium chloride + water; phases: Liquid
Fixed: Pressure, kPa = 101
Property: Mass density, kg/m3 (Liquid); method: VIBTUB:UFactor:12
Solvent: Molality, mol/kg of lithium chloride	Temperature, K	Molality, mol/kg of 6-.alpha.-D-galactopyranosyl-D-glucopyranose	Mass density, kg/m3	uncertainty
0.5	288.15	0.05725	1019.239	0.477
0.5	288.15	0.08832	1023.064	0.495
0.5	288.15	0.10766	1025.418	0.506
0.5	288.15	0.12384	1027.372	0.515
0.5	288.15	0.13338	1028.516	0.52
0.5	288.15	0.15671	1031.296	0.533
0.5	298.15	0.05725	1016.58	0.464
0.5	298.15	0.08832	1020.356	0.482
0.5	298.15	0.10766	1022.677	0.493
0.5	298.15	0.12384	1024.601	0.502
0.5	298.15	0.13338	1025.724	0.507
0.5	298.15	0.15671	1028.457	0.52
0.5	308.15	0.05725	1013.196	0.448
0.5	308.15	0.08832	1016.952	0.466
0.5	308.15	0.10766	1019.263	0.477
0.5	308.15	0.12384	1021.18	0.486
0.5	308.15	0.13338	1022.304	0.491
0.5	308.15	0.15671	1025.03	0.504
0.5	318.15	0.05725	1009.062	0.429
0.5	318.15	0.08832	1012.771	0.446
0.5	318.15	0.10766	1015.049	0.457
0.5	318.15	0.12384	1016.938	0.466
0.5	318.15	0.13338	1018.045	0.471
0.5	318.15	0.15671	1020.729	0.484
1	288.15	0.0554	1030.569	0.53
1	288.15	0.07046	1032.386	0.539
1	288.15	0.09226	1034.994	0.551
1	288.15	0.11207	1037.336	0.562
1	288.15	0.13521	1040.046	0.575
1	288.15	0.14952	1041.702	0.583
1	298.15	0.0554	1027.698	0.517
1	298.15	0.07046	1029.505	0.525
1	298.15	0.09226	1032.099	0.537
1	298.15	0.11207	1034.433	0.548
1	298.15	0.13521	1037.132	0.561
1	298.15	0.14952	1038.787	0.569
1	308.15	0.0554	1023.798	0.498
1	308.15	0.07046	1025.584	0.507
1	308.15	0.09226	1028.146	0.519
1	308.15	0.11207	1030.451	0.53
1	308.15	0.13521	1033.115	0.542
1	308.15	0.14952	1034.747	0.55
1	318.15	0.0554	1019.034	0.476
1	318.15	0.07046	1020.809	0.484
1	318.15	0.09226	1023.356	0.496
1	318.15	0.11207	1025.649	0.507
1	318.15	0.13521	1028.301	0.519
1	318.15	0.14952	1029.927	0.527
2	288.15	0.0512	1051.108	0.627
2	288.15	0.06275	1052.443	0.633
2	288.15	0.08004	1054.427	0.643
2	288.15	0.09949	1056.639	0.653
2	288.15	0.11259	1058.116	0.66
2	288.15	0.13574	1060.703	0.672
2	298.15	0.0512	1047.122	0.608
2	298.15	0.06275	1048.442	0.615
2	298.15	0.08004	1050.402	0.624
2	298.15	0.09949	1052.586	0.634
2	298.15	0.11259	1054.043	0.641
2	298.15	0.13574	1056.596	0.653
2	308.15	0.0512	1042.137	0.585
2	308.15	0.06275	1043.447	0.591
2	308.15	0.08004	1045.393	0.6
2	308.15	0.09949	1047.562	0.61
2	308.15	0.11259	1049.012	0.617
2	308.15	0.13574	1051.552	0.629
2	318.15	0.0512	1037.158	0.561
2	318.15	0.06275	1038.452	0.567
2	318.15	0.08004	1040.373	0.576
2	318.15	0.09949	1042.516	0.587
2	318.15	0.11259	1043.944	0.593
2	318.15	0.13574	1046.448	0.605
3	288.15	0.04981	1068.251	0.708
3	288.15	0.06648	1070.086	0.717
3	288.15	0.08236	1071.821	0.725
3	288.15	0.09768	1073.481	0.733
3	288.15	0.1137	1075.205	0.741
3	288.15	0.14528	1078.562	0.757
3	298.15	0.04981	1063.21	0.684
3	298.15	0.06648	1065.025	0.693
3	298.15	0.08236	1066.739	0.701
3	298.15	0.09768	1068.381	0.709
3	298.15	0.1137	1070.082	0.717
3	298.15	0.14528	1073.395	0.732
3	308.15	0.04981	1057.056	0.655
3	308.15	0.06648	1058.858	0.664
3	308.15	0.08236	1060.561	0.672
3	308.15	0.09768	1062.191	0.679
3	308.15	0.1137	1063.882	0.687
3	308.15	0.14528	1067.176	0.703
3	318.15	0.04981	1052.882	0.636
3	318.15	0.06648	1054.665	0.644
3	318.15	0.08236	1056.351	0.652
3	318.15	0.09768	1057.964	0.66
3	318.15	0.1137	1059.64	0.667
3	318.15	0.14528	1062.902	0.683

System: 6-.alpha.-D-galactopyranosyl-D-glucopyranose + lithium chloride + water; phases: Liquid
Fixed: Pressure, kPa = 101
Property: Viscosity, Pa*s (Liquid); method: Capillary tube (Ostwald; Ubbelohde) method
Solvent: Molality, mol/kg of lithium chloride	Temperature, K	Molality, mol/kg of 6-.alpha.-D-galactopyranosyl-D-glucopyranose	Viscosity, Pa*s	uncertainty
0.5	288.15	0.05725	0.00128	8e-06
0.5	288.15	0.08832	0.001315	8e-06
0.5	288.15	0.10766	0.001338	9e-06
0.5	288.15	0.12384	0.001356	9e-06
0.5	288.15	0.13338	0.001367	9e-06
0.5	288.15	0.15671	0.001393	9e-06
0.5	298.15	0.05725	0.00099	7e-06
0.5	298.15	0.08832	0.001016	7e-06
0.5	298.15	0.10766	0.001032	7e-06
0.5	298.15	0.12384	0.001046	7e-06
0.5	298.15	0.13338	0.001054	7e-06
0.5	298.15	0.15671	0.001073	7e-06
0.5	308.15	0.05725	0.000798	6e-06
0.5	308.15	0.08832	0.000818	6e-06
0.5	308.15	0.10766	0.00083	6e-06
0.5	308.15	0.12384	0.00084	6e-06
0.5	308.15	0.13338	0.000846	6e-06
0.5	308.15	0.15671	0.000861	6e-06
0.5	318.15	0.05725	0.000658	6e-06
0.5	318.15	0.08832	0.000674	6e-06
0.5	318.15	0.10766	0.000684	6e-06
0.5	318.15	0.12384	0.000692	6e-06
0.5	318.15	0.13338	0.000696	6e-06
0.5	318.15	0.15671	0.000708	6e-06
1	288.15	0.0554	0.001361	9e-06
1	288.15	0.07046	0.001381	9e-06
1	288.15	0.09226	0.001409	9e-06
1	288.15	0.11207	0.001434	9e-06
1	288.15	0.13521	0.001463	9e-06
1	288.15	0.14952	0.001481	9e-06
1	298.15	0.0554	0.001056	7e-06
1	298.15	0.07046	0.001071	7e-06
1	298.15	0.09226	0.001091	7e-06
1	298.15	0.11207	0.00111	8e-06
1	298.15	0.13521	0.001132	8e-06
1	298.15	0.14952	0.001145	8e-06
1	308.15	0.0554	0.000842	6e-06
1	308.15	0.07046	0.000853	6e-06
1	308.15	0.09226	0.000868	7e-06
1	308.15	0.11207	0.000882	7e-06
1	308.15	0.13521	0.000899	7e-06
1	308.15	0.14952	0.000908	7e-06
1	318.15	0.0554	0.000692	6e-06
1	318.15	0.07046	0.0007	6e-06
1	318.15	0.09226	0.000712	6e-06
1	318.15	0.11207	0.000723	6e-06
1	318.15	0.13521	0.000736	6e-06
1	318.15	0.14952	0.000743	6e-06
2	288.15	0.0512	0.001525	9e-06
2	288.15	0.06275	0.001543	9e-06
2	288.15	0.08004	0.00157	1e-05
2	288.15	0.09949	0.0016	1e-05
2	288.15	0.11259	0.00162	1e-05
2	288.15	0.13574	0.001656	1e-05
2	298.15	0.0512	0.001171	8e-06
2	298.15	0.06275	0.001183	8e-06
2	298.15	0.08004	0.001204	8e-06
2	298.15	0.09949	0.001226	8e-06
2	298.15	0.11259	0.001241	8e-06
2	298.15	0.13574	0.001267	8e-06
2	308.15	0.0512	0.000926	7e-06
2	308.15	0.06275	0.000936	7e-06
2	308.15	0.08004	0.000951	7e-06
2	308.15	0.09949	0.000967	7e-06
2	308.15	0.11259	0.000978	7e-06
2	308.15	0.13574	0.000997	7e-06
2	318.15	0.0512	0.000758	6e-06
2	318.15	0.06275	0.000765	6e-06
2	318.15	0.08004	0.000777	6e-06
2	318.15	0.09949	0.000789	6e-06
2	318.15	0.11259	0.000798	6e-06
2	318.15	0.13574	0.000812	6e-06
3	288.15	0.04981	0.001679	1e-05
3	288.15	0.06648	0.00171	1e-05
3	288.15	0.08236	0.001739	1e-05
3	288.15	0.09768	0.001767	1.1e-05
3	288.15	0.1137	0.001796	1.1e-05
3	288.15	0.14528	0.001852	1.1e-05
3	298.15	0.04981	0.001297	8e-06
3	298.15	0.06648	0.001319	8e-06
3	298.15	0.08236	0.00134	9e-06
3	298.15	0.09768	0.001361	9e-06
3	298.15	0.1137	0.001382	9e-06
3	298.15	0.14528	0.001423	9e-06
3	308.15	0.04981	0.001012	7e-06
3	308.15	0.06648	0.001028	7e-06
3	308.15	0.08236	0.001043	7e-06
3	308.15	0.09768	0.001058	7e-06
3	308.15	0.1137	0.001073	7e-06
3	308.15	0.14528	0.001103	8e-06
3	318.15	0.04981	0.000823	6e-06
3	318.15	0.06648	0.000836	6e-06
3	318.15	0.08236	0.000848	6e-06
3	318.15	0.09768	0.000859	6e-06
3	318.15	0.1137	0.000871	7e-06
3	318.15	0.14528	0.000894	7e-06

System: D-cellobiose + lithium chloride + water; phases: Liquid
Fixed: Pressure, kPa = 101
Property: Mass density, kg/m3 (Liquid); method: VIBTUB:UFactor:12
Solvent: Molality, mol/kg of lithium chloride	Temperature, K	Molality, mol/kg of D-cellobiose	Mass density, kg/m3	uncertainty
0.5	288.15	0.0517	1018.674	0.474
0.5	288.15	0.07478	1021.579	0.488
0.5	288.15	0.09226	1023.76	0.498
0.5	288.15	0.10002	1024.722	0.502
0.5	288.15	0.12268	1027.51	0.516
0.5	288.15	0.15726	1031.712	0.535
0.5	298.15	0.0517	1016.036	0.461
0.5	298.15	0.07478	1018.919	0.475
0.5	298.15	0.09226	1021.082	0.485
0.5	298.15	0.10002	1022.037	0.49
0.5	298.15	0.12268	1024.804	0.503
0.5	298.15	0.15726	1028.972	0.523
0.5	308.15	0.0517	1012.647	0.445
0.5	308.15	0.07478	1015.498	0.459
0.5	308.15	0.09226	1017.634	0.469
0.5	308.15	0.10002	1018.576	0.473
0.5	308.15	0.12268	1021.306	0.486
0.5	308.15	0.15726	1025.412	0.506
0.5	318.15	0.0517	1008.545	0.426
0.5	318.15	0.07478	1011.379	0.44
0.5	318.15	0.09226	1013.501	0.45
0.5	318.15	0.10002	1014.437	0.454
0.5	318.15	0.12268	1017.152	0.467
0.5	318.15	0.15726	1021.232	0.486
1	288.15	0.05117	1030.206	0.528
1	288.15	0.07785	1033.504	0.544
1	288.15	0.09983	1036.186	0.557
1	288.15	0.10023	1036.234	0.557
1	288.15	0.12284	1038.965	0.57
1	288.15	0.13862	1040.853	0.579
1	298.15	0.05117	1027.34	0.515
1	298.15	0.07785	1030.617	0.53
1	298.15	0.09983	1033.286	0.543
1	298.15	0.10023	1033.334	0.543
1	298.15	0.12284	1036.052	0.556
1	298.15	0.13862	1037.929	0.565
1	308.15	0.05117	1023.459	0.497
1	308.15	0.07785	1026.706	0.512
1	308.15	0.09983	1029.35	0.524
1	308.15	0.10023	1029.397	0.525
1	308.15	0.12284	1032.089	0.537
1	308.15	0.13862	1033.948	0.546
1	318.15	0.05117	1018.709	0.474
1	318.15	0.07785	1021.934	0.489
1	318.15	0.09983	1024.56	0.502
1	318.15	0.10023	1024.606	0.502
1	318.15	0.12284	1027.278	0.515
1	318.15	0.13862	1029.126	0.523
2	288.15	0.05776	1051.998	0.631
2	288.15	0.07543	1054.07	0.641
2	288.15	0.09886	1056.789	0.654
2	288.15	0.10023	1056.946	0.655
2	288.15	0.1154	1058.69	0.663
2	288.15	0.14596	1062.16	0.679
2	298.15	0.05776	1048.002	0.612
2	298.15	0.07543	1050.049	0.622
2	298.15	0.09886	1052.734	0.635
2	298.15	0.10023	1052.889	0.636
2	298.15	0.1154	1054.609	0.644
2	298.15	0.14596	1058.032	0.66
2	308.15	0.05776	1042.942	0.589
2	308.15	0.07543	1044.955	0.598
2	308.15	0.09886	1047.598	0.611
2	308.15	0.10023	1047.751	0.611
2	308.15	0.1154	1049.445	0.619
2	308.15	0.14596	1052.821	0.635
2	318.15	0.05776	1037.944	0.565
2	318.15	0.07543	1039.93	0.574
2	318.15	0.09886	1042.536	0.587
2	318.15	0.10023	1042.687	0.587
2	318.15	0.1154	1044.355	0.595
2	318.15	0.14596	1047.68	0.611
3	288.15	0.04596	1067.959	0.707
3	288.15	0.06462	1070.072	0.717
3	288.15	0.08226	1072.051	0.726
3	288.15	0.0997	1073.993	0.735
3	288.15	0.10035	1074.064	0.736
3	288.15	0.13574	1077.955	0.754
3	298.15	0.04596	1062.918	0.683
3	298.15	0.06462	1065.007	0.693
3	298.15	0.08226	1066.964	0.702
3	298.15	0.0997	1068.882	0.711
3	298.15	0.10035	1068.952	0.711
3	298.15	0.13574	1072.791	0.73
3	308.15	0.04596	1056.692	0.653
3	308.15	0.06462	1058.735	0.663
3	308.15	0.08226	1060.647	0.672
3	308.15	0.0997	1062.522	0.681
3	308.15	0.10035	1062.591	0.681
3	308.15	0.13574	1066.344	0.699
3	318.15	0.04596	1052.522	0.634
3	318.15	0.06462	1054.541	0.643
3	318.15	0.08226	1056.432	0.652
3	318.15	0.0997	1058.284	0.661
3	318.15	0.10035	1058.352	0.661
3	318.15	0.13574	1062.061	0.679

System: D-cellobiose + lithium chloride + water; phases: Liquid
Fixed: Pressure, kPa = 101
Property: Viscosity, Pa*s (Liquid); method: Capillary tube (Ostwald; Ubbelohde) method
Solvent: Molality, mol/kg of lithium chloride	Temperature, K	Molality, mol/kg of D-cellobiose	Viscosity, Pa*s	uncertainty
0.5	288.15	0.0517	0.001273	8e-06
0.5	288.15	0.07478	0.001299	8e-06
0.5	288.15	0.09226	0.001319	8e-06
0.5	288.15	0.10002	0.001328	8e-06
0.5	288.15	0.12268	0.001354	9e-06
0.5	288.15	0.15726	0.001392	9e-06
0.5	298.15	0.0517	0.000984	7e-06
0.5	298.15	0.07478	0.001004	7e-06
0.5	298.15	0.09226	0.001019	7e-06
0.5	298.15	0.10002	0.001025	7e-06
0.5	298.15	0.12268	0.001044	7e-06
0.5	298.15	0.15726	0.001073	7e-06
0.5	308.15	0.0517	0.000794	6e-06
0.5	308.15	0.07478	0.000809	6e-06
0.5	308.15	0.09226	0.00082	6e-06
0.5	308.15	0.10002	0.000825	6e-06
0.5	308.15	0.12268	0.00084	6e-06
0.5	308.15	0.15726	0.000861	6e-06
0.5	318.15	0.0517	0.000655	6e-06
0.5	318.15	0.07478	0.000667	6e-06
0.5	318.15	0.09226	0.000676	6e-06
0.5	318.15	0.10002	0.00068	6e-06
0.5	318.15	0.12268	0.000691	6e-06
0.5	318.15	0.15726	0.000708	6e-06
1	288.15	0.05117	0.001356	9e-06
1	288.15	0.07785	0.001391	9e-06
1	288.15	0.09983	0.001419	9e-06
1	288.15	0.10023	0.00142	9e-06
1	288.15	0.12284	0.001448	9e-06
1	288.15	0.13862	0.001468	9e-06
1	298.15	0.05117	0.001051	7e-06
1	298.15	0.07785	0.001077	7e-06
1	298.15	0.09983	0.001098	7e-06
1	298.15	0.10023	0.001098	7e-06
1	298.15	0.12284	0.001119	8e-06
1	298.15	0.13862	0.001134	8e-06
1	308.15	0.05117	0.000839	6e-06
1	308.15	0.07785	0.000858	6e-06
1	308.15	0.09983	0.000874	7e-06
1	308.15	0.10023	0.000874	7e-06
1	308.15	0.12284	0.00089	7e-06
1	308.15	0.13862	0.000901	7e-06
1	318.15	0.05117	0.00069	6e-06
1	318.15	0.07785	0.000705	6e-06
1	318.15	0.09983	0.000717	6e-06
1	318.15	0.10023	0.000717	6e-06
1	318.15	0.12284	0.000729	6e-06
1	318.15	0.13862	0.000738	6e-06
2	288.15	0.05776	0.001536	9e-06
2	288.15	0.07543	0.001563	1e-05
2	288.15	0.09886	0.0016	1e-05
2	288.15	0.10023	0.001602	1e-05
2	288.15	0.1154	0.001625	1e-05
2	288.15	0.14596	0.001671	1e-05
2	298.15	0.05776	0.001178	8e-06
2	298.15	0.07543	0.001198	8e-06
2	298.15	0.09886	0.001225	8e-06
2	298.15	0.10023	0.001226	8e-06
2	298.15	0.1154	0.001243	8e-06
2	298.15	0.14596	0.001277	8e-06
2	308.15	0.05776	0.000931	7e-06
2	308.15	0.07543	0.000946	7e-06
2	308.15	0.09886	0.000966	7e-06
2	308.15	0.10023	0.000967	7e-06
2	308.15	0.1154	0.000979	7e-06
2	308.15	0.14596	0.001004	7e-06
2	318.15	0.05776	0.000762	6e-06
2	318.15	0.07543	0.000774	6e-06
2	318.15	0.09886	0.000789	6e-06
2	318.15	0.10023	0.000789	6e-06
2	318.15	0.1154	0.000799	6e-06
2	318.15	0.14596	0.000818	6e-06
3	288.15	0.04596	0.001672	1e-05
3	288.15	0.06462	0.001706	1e-05
3	288.15	0.08226	0.001739	1e-05
3	288.15	0.0997	0.00177	1.1e-05
3	288.15	0.10035	0.001771	1.1e-05
3	288.15	0.13574	0.001835	1.1e-05
3	298.15	0.04596	0.001291	8e-06
3	298.15	0.06462	0.001316	8e-06
3	298.15	0.08226	0.00134	9e-06
3	298.15	0.0997	0.001363	9e-06
3	298.15	0.10035	0.001364	9e-06
3	298.15	0.13574	0.00141	9e-06
3	308.15	0.04596	0.001008	7e-06
3	308.15	0.06462	0.001026	7e-06
3	308.15	0.08226	0.001043	7e-06
3	308.15	0.0997	0.00106	7e-06
3	308.15	0.10035	0.001061	7e-06
3	308.15	0.13574	0.001095	7e-06
3	318.15	0.04596	0.00082	6e-06
3	318.15	0.06462	0.000835	6e-06
3	318.15	0.08226	0.000848	6e-06
3	318.15	0.0997	0.000861	7e-06
3	318.15	0.10035	0.000861	7e-06
3	318.15	0.13574	0.000887	7e-06

System: D-sucrose + lithium chloride + water; phases: Liquid
Fixed: Pressure, kPa = 101
Property: Mass density, kg/m3 (Liquid); method: VIBTUB:UFactor:12
Solvent: Molality, mol/kg of lithium chloride	Temperature, K	Molality, mol/kg of D-sucrose	Mass density, kg/m3	uncertainty
0.5	288.15	0.05364	1018.868	0.493
0.5	288.15	0.06947	1020.85	0.502
0.5	288.15	0.08992	1023.389	0.514
0.5	288.15	0.10704	1025.498	0.524
0.5	288.15	0.12406	1027.578	0.534
0.5	288.15	0.14453	1030.06	0.546
0.5	298.15	0.05364	1016.232	0.48
0.5	298.15	0.06947	1018.199	0.49
0.5	298.15	0.08992	1020.718	0.502
0.5	298.15	0.10704	1022.81	0.512
0.5	298.15	0.12406	1024.874	0.521
0.5	298.15	0.14453	1027.334	0.533
0.5	308.15	0.05364	1012.851	0.464
0.5	308.15	0.06947	1014.804	0.474
0.5	308.15	0.08992	1017.307	0.485
0.5	308.15	0.10704	1019.385	0.495
0.5	308.15	0.12406	1021.435	0.505
0.5	308.15	0.14453	1023.881	0.517
0.5	318.15	0.05364	1008.729	0.445
0.5	318.15	0.06947	1010.662	0.454
0.5	318.15	0.08992	1013.137	0.466
0.5	318.15	0.10704	1015.19	0.475
0.5	318.15	0.12406	1017.213	0.485
0.5	318.15	0.14453	1019.625	0.497
1	288.15	0.04296	1029.06	0.541
1	288.15	0.06998	1032.335	0.557
1	288.15	0.08392	1034.006	0.565
1	288.15	0.09014	1034.746	0.568
1	288.15	0.11286	1037.436	0.581
1	288.15	0.14275	1040.929	0.598
1	298.15	0.04296	1026.208	0.528
1	298.15	0.06998	1029.468	0.543
1	298.15	0.08392	1031.133	0.551
1	298.15	0.09014	1031.873	0.555
1	298.15	0.11286	1034.558	0.568
1	298.15	0.14275	1038.046	0.584
1	308.15	0.04296	1022.34	0.509
1	308.15	0.06998	1025.574	0.525
1	308.15	0.08392	1027.227	0.533
1	308.15	0.09014	1027.96	0.536
1	308.15	0.11286	1030.623	0.549
1	308.15	0.14275	1034.082	0.565
1	318.15	0.04296	1017.582	0.487
1	318.15	0.06998	1020.782	0.502
1	318.15	0.08392	1022.414	0.51
1	318.15	0.09014	1023.138	0.513
1	318.15	0.11286	1025.768	0.526
1	318.15	0.14275	1029.181	0.542
2	288.15	0.04878	1050.814	0.645
2	288.15	0.06674	1052.888	0.655
2	288.15	0.0838	1054.841	0.664
2	288.15	0.10072	1056.763	0.673
2	288.15	0.12594	1059.6	0.687
2	288.15	0.14457	1061.675	0.697
2	298.15	0.04878	1046.822	0.626
2	298.15	0.06674	1048.862	0.636
2	298.15	0.0838	1050.778	0.645
2	298.15	0.10072	1052.662	0.654
2	298.15	0.12594	1055.437	0.667
2	298.15	0.14457	1057.46	0.677
2	308.15	0.04878	1041.854	0.602
2	308.15	0.06674	1043.887	0.612
2	308.15	0.0838	1045.803	0.621
2	308.15	0.10072	1047.689	0.63
2	308.15	0.12594	1050.471	0.643
2	308.15	0.14457	1052.505	0.653
2	318.15	0.04878	1036.873	0.579
2	318.15	0.06674	1038.879	0.588
2	318.15	0.0838	1040.765	0.597
2	318.15	0.10072	1042.621	0.606
2	318.15	0.12594	1045.358	0.619
2	318.15	0.14457	1047.353	0.629
3	288.15	0.04808	1068.057	0.727
3	288.15	0.07013	1070.48	0.739
3	288.15	0.08876	1072.505	0.748
3	288.15	0.09994	1073.71	0.754
3	288.15	0.10015	1073.731	0.754
3	288.15	0.14218	1078.2	0.775
3	298.15	0.04808	1063.023	0.703
3	298.15	0.07013	1065.426	0.714
3	298.15	0.08876	1067.433	0.724
3	298.15	0.09994	1068.63	0.73
3	298.15	0.10015	1068.651	0.73
3	298.15	0.14218	1073.088	0.751
3	308.15	0.04808	1056.852	0.674
3	308.15	0.07013	1059.226	0.685
3	308.15	0.08876	1061.209	0.694
3	308.15	0.09994	1062.389	0.7
3	308.15	0.10015	1062.41	0.7
3	308.15	0.14218	1066.787	0.721
3	318.15	0.04808	1052.677	0.654
3	318.15	0.07013	1055.024	0.665
3	318.15	0.08876	1056.986	0.674
3	318.15	0.09994	1058.154	0.68
3	318.15	0.10015	1058.175	0.68
3	318.15	0.14218	1062.508	0.701

System: D-sucrose + lithium chloride + water; phases: Liquid
Fixed: Pressure, kPa = 101
Property: Viscosity, Pa*s (Liquid); method: Capillary tube (Ostwald; Ubbelohde) method
Solvent: Molality, mol/kg of lithium chloride	Temperature, K	Molality, mol/kg of D-sucrose	Viscosity, Pa*s	uncertainty
0.5	288.15	0.05364	0.001289	9e-06
0.5	288.15	0.06947	0.001311	9e-06
0.5	288.15	0.08992	0.001339	9e-06
0.5	288.15	0.10704	0.001363	9e-06
0.5	288.15	0.12406	0.001386	9e-06
0.5	288.15	0.14453	0.001414	9e-06
0.5	298.15	0.05364	0.000996	7e-06
0.5	298.15	0.06947	0.001012	7e-06
0.5	298.15	0.08992	0.001033	7e-06
0.5	298.15	0.10704	0.00105	7e-06
0.5	298.15	0.12406	0.001067	8e-06
0.5	298.15	0.14453	0.001088	8e-06
0.5	308.15	0.05364	0.000803	6e-06
0.5	308.15	0.06947	0.000816	6e-06
0.5	308.15	0.08992	0.000832	7e-06
0.5	308.15	0.10704	0.000845	7e-06
0.5	308.15	0.12406	0.000859	7e-06
0.5	308.15	0.14453	0.000874	7e-06
0.5	318.15	0.05364	0.000663	6e-06
0.5	318.15	0.06947	0.000673	6e-06
0.5	318.15	0.08992	0.000685	6e-06
0.5	318.15	0.10704	0.000696	6e-06
0.5	318.15	0.12406	0.000706	6e-06
0.5	318.15	0.14453	0.000719	6e-06
1	288.15	0.04296	0.001355	9e-06
1	288.15	0.06998	0.001397	9e-06
1	288.15	0.08392	0.001418	9e-06
1	288.15	0.09014	0.001427	9e-06
1	288.15	0.11286	0.001462	9e-06
1	288.15	0.14275	0.001506	1e-05
1	298.15	0.04296	0.001051	7e-06
1	298.15	0.06998	0.001081	8e-06
1	298.15	0.08392	0.001097	8e-06
1	298.15	0.09014	0.001104	8e-06
1	298.15	0.11286	0.001129	8e-06
1	298.15	0.14275	0.001161	8e-06
1	308.15	0.04296	0.000839	7e-06
1	308.15	0.06998	0.000862	7e-06
1	308.15	0.08392	0.000874	7e-06
1	308.15	0.09014	0.00088	7e-06
1	308.15	0.11286	0.000899	7e-06
1	308.15	0.14275	0.000924	7e-06
1	318.15	0.04296	0.00069	6e-06
1	318.15	0.06998	0.000708	6e-06
1	318.15	0.08392	0.000717	6e-06
1	318.15	0.09014	0.000721	6e-06
1	318.15	0.11286	0.000736	6e-06
1	318.15	0.14275	0.000756	6e-06
2	288.15	0.04878	0.001535	1e-05
2	288.15	0.06674	0.001567	1e-05
2	288.15	0.0838	0.001598	1e-05
2	288.15	0.10072	0.001629	1e-05
2	288.15	0.12594	0.001674	1e-05
2	288.15	0.14457	0.001707	1.1e-05
2	298.15	0.04878	0.001177	8e-06
2	298.15	0.06674	0.001201	8e-06
2	298.15	0.0838	0.001223	8e-06
2	298.15	0.10072	0.001245	8e-06
2	298.15	0.12594	0.001278	8e-06
2	298.15	0.14457	0.001302	9e-06
2	308.15	0.04878	0.000932	7e-06
2	308.15	0.06674	0.00095	7e-06
2	308.15	0.0838	0.000966	7e-06
2	308.15	0.10072	0.000983	7e-06
2	308.15	0.12594	0.001008	7e-06
2	308.15	0.14457	0.001026	7e-06
2	318.15	0.04878	0.000762	6e-06
2	318.15	0.06674	0.000776	6e-06
2	318.15	0.0838	0.000789	6e-06
2	318.15	0.10072	0.000801	6e-06
2	318.15	0.12594	0.00082	6e-06
2	318.15	0.14457	0.000834	7e-06
3	288.15	0.04808	0.00169	1e-05
3	288.15	0.07013	0.001737	1.1e-05
3	288.15	0.08876	0.001777	1.1e-05
3	288.15	0.09994	0.0018	1.1e-05
3	288.15	0.10015	0.001801	1.1e-05
3	288.15	0.14218	0.001888	1.2e-05
3	298.15	0.04808	0.001305	9e-06
3	298.15	0.07013	0.001339	9e-06
3	298.15	0.08876	0.001368	9e-06
3	298.15	0.09994	0.001385	9e-06
3	298.15	0.10015	0.001385	9e-06
3	298.15	0.14218	0.001449	9e-06
3	308.15	0.04808	0.001019	7e-06
3	308.15	0.07013	0.001045	7e-06
3	308.15	0.08876	0.001066	8e-06
3	308.15	0.09994	0.001079	8e-06
3	308.15	0.10015	0.001079	8e-06
3	308.15	0.14218	0.001127	8e-06
3	318.15	0.04808	0.000829	6e-06
3	318.15	0.07013	0.000848	7e-06
3	318.15	0.08876	0.000865	7e-06
3	318.15	0.09994	0.000875	7e-06
3	318.15	0.10015	0.000875	7e-06
3	318.15	0.14218	0.000911	7e-06

System: D-(+)-maltose monohydrate + lithium chloride + water; phases: Liquid
Fixed: Pressure, kPa = 101
Property: Mass density, kg/m3 (Liquid); method: VIBTUB:UFactor:12
Solvent: Molality, mol/kg of lithium chloride	Temperature, K	Molality, mol/kg of D-(+)-maltose monohydrate	Mass density, kg/m3	uncertainty
0.5	288.15	0.05254	1018.834	0.475
0.5	288.15	0.07558	1021.756	0.488
0.5	288.15	0.09159	1023.767	0.498
0.5	288.15	0.11982	1027.276	0.514
0.5	288.15	0.13347	1028.954	0.522
0.5	288.15	0.15523	1031.61	0.535
0.5	298.15	0.05254	1016.165	0.462
0.5	298.15	0.07558	1019.047	0.476
0.5	298.15	0.09159	1021.03	0.485
0.5	298.15	0.11982	1024.489	0.501
0.5	298.15	0.13347	1026.141	0.509
0.5	298.15	0.15523	1028.753	0.521
0.5	308.15	0.05254	1012.743	0.446
0.5	308.15	0.07558	1015.587	0.459
0.5	308.15	0.09159	1017.544	0.469
0.5	308.15	0.11982	1020.957	0.485
0.5	308.15	0.13347	1022.589	0.492
0.5	308.15	0.15523	1025.168	0.505
0.5	318.15	0.05254	1008.589	0.426
0.5	318.15	0.07558	1011.393	0.44
0.5	318.15	0.09159	1013.322	0.449
0.5	318.15	0.11982	1016.683	0.465
0.5	318.15	0.13347	1018.291	0.472
0.5	318.15	0.15523	1020.832	0.484
1	288.15	0.06206	1031.412	0.534
1	288.15	0.07634	1033.139	0.542
1	288.15	0.08543	1034.232	0.547
1	288.15	0.10198	1036.209	0.557
1	288.15	0.12118	1038.481	0.567
1	288.15	0.14476	1041.244	0.58
1	298.15	0.06206	1028.488	0.52
1	298.15	0.07634	1030.187	0.528
1	298.15	0.08543	1031.261	0.533
1	298.15	0.10198	1033.205	0.543
1	298.15	0.12118	1035.438	0.553
1	298.15	0.14476	1038.147	0.566
1	308.15	0.06206	1024.546	0.502
1	308.15	0.07634	1026.218	0.51
1	308.15	0.08543	1027.275	0.515
1	308.15	0.10198	1029.186	0.524
1	308.15	0.12118	1031.38	0.534
1	308.15	0.14476	1034.042	0.546
1	318.15	0.06206	1019.737	0.479
1	318.15	0.07634	1021.39	0.487
1	318.15	0.08543	1022.436	0.492
1	318.15	0.10198	1024.326	0.501
1	318.15	0.12118	1026.5	0.511
1	318.15	0.14476	1029.141	0.523
2	288.15	0.05319	1051.224	0.628
2	288.15	0.06727	1052.818	0.635
2	288.15	0.07548	1053.742	0.64
2	288.15	0.08821	1055.167	0.646
2	288.15	0.11005	1057.59	0.658
2	288.15	0.12096	1058.79	0.663
2	298.15	0.05319	1047.221	0.609
2	298.15	0.06727	1048.794	0.616
2	298.15	0.07548	1049.705	0.62
2	298.15	0.08821	1051.11	0.627
2	298.15	0.11005	1053.5	0.638
2	298.15	0.12096	1054.684	0.644
2	308.15	0.05319	1042.195	0.585
2	308.15	0.06727	1043.744	0.592
2	308.15	0.07548	1044.642	0.597
2	308.15	0.08821	1046.028	0.603
2	308.15	0.11005	1048.382	0.614
2	308.15	0.12096	1049.549	0.62
2	318.15	0.05319	1037.168	0.561
2	318.15	0.06727	1038.685	0.568
2	318.15	0.07548	1039.564	0.573
2	318.15	0.08821	1040.919	0.579
2	318.15	0.11005	1043.221	0.59
2	318.15	0.12096	1044.361	0.595
3	288.15	0.04429	1067.658	0.705
3	288.15	0.05674	1069.036	0.712
3	288.15	0.07005	1070.5	0.719
3	288.15	0.09064	1072.743	0.729
3	288.15	0.12469	1076.397	0.747
3	288.15	0.15227	1079.306	0.76
3	298.15	0.04429	1062.604	0.681
3	298.15	0.05674	1063.964	0.688
3	298.15	0.07005	1065.406	0.695
3	298.15	0.09064	1067.617	0.705
3	298.15	0.12469	1071.217	0.722
3	298.15	0.15227	1074.084	0.736
3	308.15	0.04429	1056.415	0.652
3	308.15	0.05674	1057.752	0.658
3	308.15	0.07005	1059.171	0.665
3	308.15	0.09064	1061.345	0.675
3	308.15	0.12469	1064.884	0.692
3	308.15	0.15227	1067.7	0.705
3	318.15	0.04429	1052.207	0.632
3	318.15	0.05674	1053.518	0.639
3	318.15	0.07005	1054.909	0.645
3	318.15	0.09064	1057.041	0.655
3	318.15	0.12469	1060.514	0.672
3	318.15	0.15227	1063.278	0.685

System: D-(+)-maltose monohydrate + lithium chloride + water; phases: Liquid
Fixed: Pressure, kPa = 101
Property: Viscosity, Pa*s (Liquid); method: Capillary tube (Ostwald; Ubbelohde) method
Solvent: Molality, mol/kg of lithium chloride	Temperature, K	Molality, mol/kg of D-(+)-maltose monohydrate	Viscosity, Pa*s	uncertainty
0.5	288.15	0.05254	0.001291	8e-06
0.5	288.15	0.07558	0.001325	8e-06
0.5	288.15	0.09159	0.001348	9e-06
0.5	288.15	0.11982	0.001391	9e-06
0.5	288.15	0.13347	0.001409	9e-06
0.5	288.15	0.15523	0.00144	9e-06
0.5	298.15	0.05254	0.000998	7e-06
0.5	298.15	0.07558	0.001024	7e-06
0.5	298.15	0.09159	0.001041	7e-06
0.5	298.15	0.11982	0.001071	7e-06
0.5	298.15	0.13347	0.001086	7e-06
0.5	298.15	0.15523	0.001109	8e-06
0.5	308.15	0.05254	0.000805	6e-06
0.5	308.15	0.07558	0.000825	6e-06
0.5	308.15	0.09159	0.000839	6e-06
0.5	308.15	0.11982	0.000862	7e-06
0.5	308.15	0.13347	0.000873	7e-06
0.5	308.15	0.15523	0.000891	7e-06
0.5	318.15	0.05254	0.000665	6e-06
0.5	318.15	0.07558	0.00068	6e-06
0.5	318.15	0.09159	0.00069	6e-06
0.5	318.15	0.11982	0.000709	6e-06
0.5	318.15	0.13347	0.000718	6e-06
0.5	318.15	0.15523	0.000732	6e-06
1	288.15	0.06206	0.001386	9e-06
1	288.15	0.07634	0.001408	9e-06
1	288.15	0.08543	0.001422	9e-06
1	288.15	0.10198	0.001447	9e-06
1	288.15	0.12118	0.001477	9e-06
1	288.15	0.14476	0.001512	9e-06
1	298.15	0.06206	0.001074	7e-06
1	298.15	0.07634	0.001091	7e-06
1	298.15	0.08543	0.001101	7e-06
1	298.15	0.10198	0.00112	8e-06
1	298.15	0.12118	0.001141	8e-06
1	298.15	0.14476	0.001167	8e-06
1	308.15	0.06206	0.000859	6e-06
1	308.15	0.07634	0.000872	7e-06
1	308.15	0.08543	0.00088	7e-06
1	308.15	0.10198	0.000895	7e-06
1	308.15	0.12118	0.000912	7e-06
1	308.15	0.14476	0.000933	7e-06
1	318.15	0.06206	0.000704	6e-06
1	318.15	0.07634	0.000714	6e-06
1	318.15	0.08543	0.00072	6e-06
1	318.15	0.10198	0.000731	6e-06
1	318.15	0.12118	0.000744	6e-06
1	318.15	0.14476	0.00076	6e-06
2	288.15	0.05319	0.001548	9e-06
2	288.15	0.06727	0.001576	1e-05
2	288.15	0.07548	0.001591	1e-05
2	288.15	0.08821	0.001616	1e-05
2	288.15	0.11005	0.001657	1e-05
2	288.15	0.12096	0.001678	1e-05
2	298.15	0.05319	0.001188	8e-06
2	298.15	0.06727	0.001208	8e-06
2	298.15	0.07548	0.001219	8e-06
2	298.15	0.08821	0.001237	8e-06
2	298.15	0.11005	0.001267	8e-06
2	298.15	0.12096	0.001282	8e-06
2	308.15	0.05319	0.00094	7e-06
2	308.15	0.06727	0.000955	7e-06
2	308.15	0.07548	0.000963	7e-06
2	308.15	0.08821	0.000977	7e-06
2	308.15	0.11005	0.001	7e-06
2	308.15	0.12096	0.001011	7e-06
2	318.15	0.05319	0.000768	6e-06
2	318.15	0.06727	0.00078	6e-06
2	318.15	0.07548	0.000787	6e-06
2	318.15	0.08821	0.000797	6e-06
2	318.15	0.11005	0.000815	6e-06
2	318.15	0.12096	0.000823	6e-06
3	288.15	0.04429	0.001688	1e-05
3	288.15	0.05674	0.001716	1e-05
3	288.15	0.07005	0.001746	1e-05
3	288.15	0.09064	0.001792	1.1e-05
3	288.15	0.12469	0.001867	1.1e-05
3	288.15	0.15227	0.001927	1.1e-05
3	298.15	0.04429	0.001304	8e-06
3	298.15	0.05674	0.001324	8e-06
3	298.15	0.07005	0.001346	9e-06
3	298.15	0.09064	0.00138	9e-06
3	298.15	0.12469	0.001435	9e-06
3	298.15	0.15227	0.001478	9e-06
3	308.15	0.04429	0.001018	7e-06
3	308.15	0.05674	0.001033	7e-06
3	308.15	0.07005	0.001049	7e-06
3	308.15	0.09064	0.001075	7e-06
3	308.15	0.12469	0.001115	8e-06
3	308.15	0.15227	0.001148	8e-06
3	318.15	0.04429	0.000828	6e-06
3	318.15	0.05674	0.00084	6e-06
3	318.15	0.07005	0.000852	6e-06
3	318.15	0.09064	0.000872	7e-06
3	318.15	0.12469	0.000903	7e-06
3	318.15	0.15227	0.000928	7e-06

System: lithium chloride + water + 4-O-.beta.-D-galactopyranosyl-D-glucose hydrate (1:1); phases: Liquid
Fixed: Pressure, kPa = 101
Property: Mass density, kg/m3 (Liquid); method: VIBTUB:UFactor:12
Solvent: Molality, mol/kg of lithium chloride	Temperature, K	Molality, mol/kg of 4-O-.beta.-D-galactopyranosyl-D-glucose hydrate (1:1)	Mass density, kg/m3	uncertainty
0.5	288.15	0.05286	1018.739	0.462
0.5	288.15	0.07099	1020.995	0.472
0.5	288.15	0.09234	1023.626	0.485
0.5	288.15	0.10764	1025.496	0.494
0.5	288.15	0.11574	1026.48	0.498
0.5	288.15	0.1385	1029.226	0.511
0.5	298.15	0.05286	1016.096	0.449
0.5	298.15	0.07099	1018.331	0.46
0.5	298.15	0.09234	1020.937	0.472
0.5	298.15	0.10764	1022.787	0.481
0.5	298.15	0.11574	1023.761	0.485
0.5	298.15	0.1385	1026.477	0.498
0.5	308.15	0.05286	1012.709	0.434
0.5	308.15	0.07099	1014.925	0.444
0.5	308.15	0.09234	1017.51	0.456
0.5	308.15	0.10764	1019.343	0.465
0.5	308.15	0.11574	1020.309	0.469
0.5	308.15	0.1385	1023.002	0.482
0.5	318.15	0.05286	1008.589	0.414
0.5	318.15	0.07099	1010.782	0.425
0.5	318.15	0.09234	1013.342	0.437
0.5	318.15	0.10764	1015.156	0.445
0.5	318.15	0.11574	1016.113	0.45
0.5	318.15	0.1385	1018.778	0.462
1	288.15	0.04454	1029.19	0.511
1	288.15	0.07998	1033.419	0.531
1	288.15	0.08286	1033.758	0.532
1	288.15	0.10076	1035.857	0.542
1	288.15	0.12325	1038.47	0.555
1	288.15	0.14521	1040.988	0.566
1	298.15	0.04454	1026.319	0.497
1	298.15	0.07998	1030.505	0.517
1	298.15	0.08286	1030.84	0.519
1	298.15	0.10076	1032.919	0.528
1	298.15	0.12325	1035.504	0.541
1	298.15	0.14521	1037.995	0.552
1	308.15	0.04454	1022.449	0.479
1	308.15	0.07998	1026.603	0.499
1	308.15	0.08286	1026.937	0.5
1	308.15	0.10076	1029.003	0.51
1	308.15	0.12325	1031.57	0.522
1	308.15	0.14521	1034.047	0.534
1	318.15	0.04454	1017.692	0.457
1	318.15	0.07998	1021.812	0.476
1	318.15	0.08286	1022.143	0.478
1	318.15	0.10076	1024.192	0.488
1	318.15	0.12325	1026.739	0.5
1	318.15	0.14521	1029.195	0.511
2	288.15	0.04946	1050.777	0.612
2	288.15	0.06527	1052.561	0.621
2	288.15	0.08068	1054.284	0.629
2	288.15	0.09093	1055.424	0.634
2	288.15	0.1095	1057.468	0.644
2	288.15	0.13586	1060.339	0.657
2	298.15	0.04946	1046.802	0.594
2	298.15	0.06527	1048.571	0.602
2	298.15	0.08068	1050.282	0.61
2	298.15	0.09093	1051.413	0.615
2	298.15	0.1095	1053.447	0.625
2	298.15	0.13586	1056.302	0.638
2	308.15	0.04946	1041.807	0.57
2	308.15	0.06527	1043.554	0.578
2	308.15	0.08068	1045.243	0.586
2	308.15	0.09093	1046.358	0.592
2	308.15	0.1095	1048.365	0.601
2	308.15	0.13586	1051.178	0.614
2	318.15	0.04946	1036.827	0.547
2	318.15	0.06527	1038.554	0.555
2	318.15	0.08068	1040.221	0.563
2	318.15	0.09093	1041.323	0.568
2	318.15	0.1095	1043.302	0.577
2	318.15	0.13586	1046.076	0.59
3	288.15	0.04991	1068.193	0.694
3	288.15	0.06886	1070.252	0.704
3	288.15	0.08832	1072.344	0.714
3	288.15	0.12276	1075.998	0.731
3	288.15	0.13428	1077.205	0.737
3	288.15	0.16482	1080.373	0.751
3	298.15	0.04991	1063.147	0.671
3	298.15	0.06886	1065.179	0.68
3	298.15	0.08832	1067.245	0.69
3	298.15	0.12276	1070.847	0.707
3	298.15	0.13428	1072.035	0.712
3	298.15	0.16482	1075.151	0.727
3	308.15	0.04991	1056.977	0.642
3	308.15	0.06886	1058.987	0.651
3	308.15	0.08832	1061.027	0.661
3	308.15	0.12276	1064.584	0.677
3	308.15	0.13428	1065.758	0.683
3	308.15	0.16482	1068.836	0.697
3	318.15	0.04991	1052.802	0.622
3	318.15	0.06886	1054.788	0.631
3	318.15	0.08832	1056.802	0.641
3	318.15	0.12276	1060.314	0.657
3	318.15	0.13428	1061.472	0.663
3	318.15	0.16482	1064.509	0.677

System: lithium chloride + water + 4-O-.beta.-D-galactopyranosyl-D-glucose hydrate (1:1); phases: Liquid
Fixed: Pressure, kPa = 101
Property: Viscosity, Pa*s (Liquid); method: Capillary tube (Ostwald; Ubbelohde) method
Solvent: Molality, mol/kg of lithium chloride	Temperature, K	Molality, mol/kg of 4-O-.beta.-D-galactopyranosyl-D-glucose hydrate (1:1)	Viscosity, Pa*s	uncertainty
0.5	288.15	0.05286	0.001289	8e-06
0.5	288.15	0.07099	0.001315	8e-06
0.5	288.15	0.09234	0.001332	8e-06
0.5	288.15	0.10764	0.001357	8e-06
0.5	288.15	0.11574	0.001377	9e-06
0.5	288.15	0.1385	0.001409	9e-06
0.5	298.15	0.05286	0.000996	7e-06
0.5	298.15	0.07099	0.001016	7e-06
0.5	298.15	0.09234	0.001038	7e-06
0.5	298.15	0.10764	0.001054	7e-06
0.5	298.15	0.11574	0.001062	7e-06
0.5	298.15	0.1385	0.001085	7e-06
0.5	308.15	0.05286	0.000804	6e-06
0.5	308.15	0.07099	0.000819	6e-06
0.5	308.15	0.09234	0.000836	6e-06
0.5	308.15	0.10764	0.000848	6e-06
0.5	308.15	0.11574	0.000855	6e-06
0.5	308.15	0.1385	0.000873	6e-06
0.5	318.15	0.05286	0.000663	6e-06
0.5	318.15	0.07099	0.000675	6e-06
0.5	318.15	0.09234	0.000688	6e-06
0.5	318.15	0.10764	0.000698	6e-06
0.5	318.15	0.11574	0.000703	6e-06
0.5	318.15	0.1385	0.000717	6e-06
1	288.15	0.04454	0.001359	8e-06
1	288.15	0.07998	0.001414	9e-06
1	288.15	0.08286	0.001418	9e-06
1	288.15	0.10076	0.001446	9e-06
1	288.15	0.12325	0.00148	9e-06
1	288.15	0.14521	0.001513	9e-06
1	298.15	0.04454	0.001054	7e-06
1	298.15	0.07998	0.001095	7e-06
1	298.15	0.08286	0.001098	7e-06
1	298.15	0.10076	0.001118	7e-06
1	298.15	0.12325	0.001144	8e-06
1	298.15	0.14521	0.001168	8e-06
1	308.15	0.04454	0.000842	6e-06
1	308.15	0.07998	0.000873	6e-06
1	308.15	0.08286	0.000875	6e-06
1	308.15	0.10076	0.000891	7e-06
1	308.15	0.12325	0.00091	7e-06
1	308.15	0.14521	0.000929	7e-06
1	318.15	0.04454	0.000692	6e-06
1	318.15	0.07998	0.000716	6e-06
1	318.15	0.08286	0.000718	6e-06
1	318.15	0.10076	0.00073	6e-06
1	318.15	0.12325	0.000745	6e-06
1	318.15	0.14521	0.00076	6e-06
2	288.15	0.04946	0.001538	9e-06
2	288.15	0.06527	0.001567	9e-06
2	288.15	0.08068	0.001596	1e-05
2	288.15	0.09093	0.001614	1e-05
2	288.15	0.1095	0.001648	1e-05
2	288.15	0.13586	0.001696	1e-05
2	298.15	0.04946	0.00118	8e-06
2	298.15	0.06527	0.001202	8e-06
2	298.15	0.08068	0.001223	8e-06
2	298.15	0.09093	0.001236	8e-06
2	298.15	0.1095	0.001261	8e-06
2	298.15	0.13586	0.001296	8e-06
2	308.15	0.04946	0.000934	7e-06
2	308.15	0.06527	0.00095	7e-06
2	308.15	0.08068	0.000966	7e-06
2	308.15	0.09093	0.000976	7e-06
2	308.15	0.1095	0.000995	7e-06
2	308.15	0.13586	0.001021	7e-06
2	318.15	0.04946	0.000764	6e-06
2	318.15	0.06527	0.000776	6e-06
2	318.15	0.08068	0.000788	6e-06
2	318.15	0.09093	0.000796	6e-06
2	318.15	0.1095	0.000811	6e-06
2	318.15	0.13586	0.000831	6e-06
3	288.15	0.04991	0.001696	1e-05
3	288.15	0.06886	0.001737	1e-05
3	288.15	0.08832	0.001778	1e-05
3	288.15	0.12276	0.00185	1.1e-05
3	288.15	0.13428	0.001874	1.1e-05
3	288.15	0.16482	0.001937	1.1e-05
3	298.15	0.04991	0.00131	8e-06
3	298.15	0.06886	0.00134	8e-06
3	298.15	0.08832	0.001371	9e-06
3	298.15	0.12276	0.001424	9e-06
3	298.15	0.13428	0.001441	9e-06
3	298.15	0.16482	0.001488	9e-06
3	308.15	0.04991	0.001023	7e-06
3	308.15	0.06886	0.001045	7e-06
3	308.15	0.08832	0.001068	7e-06
3	308.15	0.12276	0.001109	7e-06
3	308.15	0.13428	0.001122	7e-06
3	308.15	0.16482	0.001157	8e-06
3	318.15	0.04991	0.000832	6e-06
3	318.15	0.06886	0.000849	6e-06
3	318.15	0.08832	0.000867	6e-06
3	318.15	0.12276	0.000898	7e-06
3	318.15	0.13428	0.000908	7e-06
3	318.15	0.16482	0.000935	7e-06

System: D-(+)-trehalose dihydrate + lithium chloride + water; phases: Liquid
Fixed: Pressure, kPa = 101
Property: Mass density, kg/m3 (Liquid); method: VIBTUB:UFactor:12
Solvent: Molality, mol/kg of lithium chloride	Temperature, K	Molality, mol/kg of D-(+)-trehalose dihydrate	Mass density, kg/m3	uncertainty
0.5	288.15	0.04854	1018.202	0.461
0.5	288.15	0.06617	1020.398	0.471
0.5	288.15	0.10171	1024.762	0.492
0.5	288.15	0.12364	1027.415	0.504
0.5	288.15	0.13389	1028.645	0.51
0.5	288.15	0.15087	1030.666	0.519
0.5	298.15	0.04854	1015.538	0.448
0.5	298.15	0.06617	1017.706	0.459
0.5	298.15	0.10171	1022.014	0.479
0.5	298.15	0.12364	1024.632	0.491
0.5	298.15	0.13389	1025.844	0.497
0.5	298.15	0.15087	1027.839	0.506
0.5	308.15	0.04854	1012.125	0.432
0.5	308.15	0.06617	1014.264	0.442
0.5	308.15	0.10171	1018.515	0.462
0.5	308.15	0.12364	1021.097	0.475
0.5	308.15	0.13389	1022.292	0.48
0.5	308.15	0.15087	1024.26	0.489
0.5	318.15	0.04854	1007.976	0.413
0.5	318.15	0.06617	1010.081	0.423
0.5	318.15	0.10171	1014.258	0.442
0.5	318.15	0.12364	1016.794	0.454
0.5	318.15	0.13389	1017.967	0.46
0.5	318.15	0.15087	1019.897	0.469
1	288.15	0.04822	1029.69	0.515
1	288.15	0.06996	1032.31	0.527
1	288.15	0.08845	1034.514	0.538
1	288.15	0.10127	1036.027	0.545
1	288.15	0.12302	1038.572	0.557
1	288.15	0.15087	1041.782	0.572
1	298.15	0.04822	1026.792	0.501
1	298.15	0.06996	1029.378	0.513
1	298.15	0.08845	1031.553	0.524
1	298.15	0.10127	1033.046	0.531
1	298.15	0.12302	1035.559	0.542
1	298.15	0.15087	1038.732	0.557
1	308.15	0.04822	1022.885	0.483
1	308.15	0.06996	1025.436	0.495
1	308.15	0.08845	1027.583	0.505
1	308.15	0.10127	1029.057	0.512
1	308.15	0.12302	1031.539	0.524
1	308.15	0.15087	1034.668	0.538
1	318.15	0.04822	1018.097	0.46
1	318.15	0.06996	1020.617	0.472
1	318.15	0.08845	1022.739	0.482
1	318.15	0.10127	1024.198	0.489
1	318.15	0.12302	1026.65	0.501
1	318.15	0.15087	1029.751	0.515
2	288.15	0.04829	1050.686	0.614
2	288.15	0.06661	1052.762	0.623
2	288.15	0.07227	1053.4	0.626
2	288.15	0.10016	1056.506	0.641
2	288.15	0.11578	1058.224	0.649
2	288.15	0.1452	1061.418	0.664
2	298.15	0.04829	1046.681	0.595
2	298.15	0.06661	1048.732	0.604
2	298.15	0.07227	1049.362	0.607
2	298.15	0.10016	1052.436	0.622
2	298.15	0.11578	1054.137	0.63
2	298.15	0.1452	1057.303	0.645
2	308.15	0.04829	1041.656	0.571
2	308.15	0.06661	1043.664	0.581
2	308.15	0.07227	1044.282	0.584
2	308.15	0.10016	1047.287	0.598
2	308.15	0.11578	1048.948	0.605
2	308.15	0.1452	1052.029	0.62
2	318.15	0.04829	1036.659	0.548
2	318.15	0.06661	1038.642	0.557
2	318.15	0.07227	1039.251	0.56
2	318.15	0.10016	1042.219	0.574
2	318.15	0.11578	1043.861	0.582
2	318.15	0.1452	1046.913	0.596
3	288.15	0.05249	1068.503	0.697
3	288.15	0.06705	1070.087	0.705
3	288.15	0.09208	1072.779	0.718
3	288.15	0.11206	1074.9	0.727
3	288.15	0.14319	1078.155	0.743
3	288.15	0.15587	1079.463	0.749
3	298.15	0.05249	1063.431	0.674
3	298.15	0.06705	1064.993	0.681
3	298.15	0.09208	1067.647	0.693
3	298.15	0.11206	1069.74	0.703
3	298.15	0.14319	1072.952	0.718
3	298.15	0.15587	1074.245	0.724
3	308.15	0.05249	1057.23	0.644
3	308.15	0.06705	1058.767	0.652
3	308.15	0.09208	1061.376	0.664
3	308.15	0.11206	1063.432	0.674
3	308.15	0.14319	1066.586	0.688
3	308.15	0.15587	1067.853	0.694
3	318.15	0.05249	1053.017	0.625
3	318.15	0.06705	1054.527	0.632
3	318.15	0.09208	1057.094	0.644
3	318.15	0.11206	1059.119	0.653
3	318.15	0.14319	1062.226	0.668
3	318.15	0.15587	1063.476	0.674

System: D-(+)-trehalose dihydrate + lithium chloride + water; phases: Liquid
Fixed: Pressure, kPa = 101
Property: Viscosity, Pa*s (Liquid); method: Capillary tube (Ostwald; Ubbelohde) method
Solvent: Molality, mol/kg of lithium chloride	Temperature, K	Molality, mol/kg of D-(+)-trehalose dihydrate	Viscosity, Pa*s	uncertainty
0.5	288.15	0.04854	0.001298	8e-06
0.5	288.15	0.06617	0.001329	8e-06
0.5	288.15	0.10171	0.00139	9e-06
0.5	288.15	0.12364	0.001427	9e-06
0.5	288.15	0.13389	0.001445	9e-06
0.5	288.15	0.15087	0.001473	9e-06
0.5	298.15	0.04854	0.001003	7e-06
0.5	298.15	0.06617	0.001025	7e-06
0.5	298.15	0.10171	0.00107	7e-06
0.5	298.15	0.12364	0.001097	7e-06
0.5	298.15	0.13389	0.00111	7e-06
0.5	298.15	0.15087	0.001131	8e-06
0.5	308.15	0.04854	0.000809	6e-06
0.5	308.15	0.06617	0.000826	6e-06
0.5	308.15	0.10171	0.000861	6e-06
0.5	308.15	0.12364	0.000882	7e-06
0.5	308.15	0.13389	0.000892	7e-06
0.5	308.15	0.15087	0.000908	7e-06
0.5	318.15	0.04854	0.000668	6e-06
0.5	318.15	0.06617	0.000682	6e-06
0.5	318.15	0.10171	0.000709	6e-06
0.5	318.15	0.12364	0.000726	6e-06
0.5	318.15	0.13389	0.000734	6e-06
0.5	318.15	0.15087	0.000747	6e-06
1	288.15	0.04822	0.001381	9e-06
1	288.15	0.06996	0.001422	9e-06
1	288.15	0.08845	0.001457	9e-06
1	288.15	0.10127	0.001481	9e-06
1	288.15	0.12302	0.001521	9e-06
1	288.15	0.15087	0.001572	9e-06
1	298.15	0.04822	0.00107	7e-06
1	298.15	0.06996	0.0011	7e-06
1	298.15	0.08845	0.001126	7e-06
1	298.15	0.10127	0.001143	8e-06
1	298.15	0.12302	0.001172	8e-06
1	298.15	0.15087	0.00121	8e-06
1	308.15	0.04822	0.000854	6e-06
1	308.15	0.06996	0.000877	6e-06
1	308.15	0.08845	0.000897	7e-06
1	308.15	0.10127	0.00091	7e-06
1	308.15	0.12302	0.000933	7e-06
1	308.15	0.15087	0.000961	7e-06
1	318.15	0.04822	0.000702	6e-06
1	318.15	0.06996	0.00072	6e-06
1	318.15	0.08845	0.000736	6e-06
1	318.15	0.10127	0.000746	6e-06
1	318.15	0.12302	0.000764	6e-06
1	318.15	0.15087	0.000786	6e-06
2	288.15	0.04829	0.001554	9e-06
2	288.15	0.06661	0.001595	1e-05
2	288.15	0.07227	0.001608	1e-05
2	288.15	0.10016	0.001669	1e-05
2	288.15	0.11578	0.001704	1e-05
2	288.15	0.1452	0.001767	1e-05
2	298.15	0.04829	0.001192	8e-06
2	298.15	0.06661	0.001222	8e-06
2	298.15	0.07227	0.001231	8e-06
2	298.15	0.10016	0.001276	8e-06
2	298.15	0.11578	0.0013	8e-06
2	298.15	0.1452	0.001346	8e-06
2	308.15	0.04829	0.000943	7e-06
2	308.15	0.06661	0.000965	7e-06
2	308.15	0.07227	0.000972	7e-06
2	308.15	0.10016	0.001006	7e-06
2	308.15	0.11578	0.001025	7e-06
2	308.15	0.1452	0.001059	7e-06
2	318.15	0.04829	0.000771	6e-06
2	318.15	0.06661	0.000789	6e-06
2	318.15	0.07227	0.000794	6e-06
2	318.15	0.10016	0.00082	6e-06
2	318.15	0.11578	0.000835	6e-06
2	318.15	0.1452	0.000862	6e-06
3	288.15	0.05249	0.001725	1e-05
3	288.15	0.06705	0.001762	1e-05
3	288.15	0.09208	0.001827	1.1e-05
3	288.15	0.11206	0.001877	1.1e-05
3	288.15	0.14319	0.001955	1.1e-05
3	288.15	0.15587	0.001986	1.2e-05
3	298.15	0.05249	0.00133	8e-06
3	298.15	0.06705	0.001358	8e-06
3	298.15	0.09208	0.001405	9e-06
3	298.15	0.11206	0.001442	9e-06
3	298.15	0.14319	0.001498	9e-06
3	298.15	0.15587	0.001521	9e-06
3	308.15	0.05249	0.001038	7e-06
3	308.15	0.06705	0.001058	7e-06
3	308.15	0.09208	0.001093	7e-06
3	308.15	0.11206	0.001121	7e-06
3	308.15	0.14319	0.001164	8e-06
3	308.15	0.15587	0.001181	8e-06
3	318.15	0.05249	0.000844	6e-06
3	318.15	0.06705	0.00086	6e-06
3	318.15	0.09208	0.000887	7e-06
3	318.15	0.11206	0.000908	7e-06
3	318.15	0.14319	0.000941	7e-06
3	318.15	0.15587	0.000955	7e-06

System: lithium chloride + water + D-raffinose, pentahydrate; phases: Liquid
Fixed: Pressure, kPa = 101
Property: Mass density, kg/m3 (Liquid); method: VIBTUB:UFactor:12
Solvent: Molality, mol/kg of lithium chloride	Temperature, K	Molality, mol/kg of D-raffinose, pentahydrate	Mass density, kg/m3	uncertainty
2	288.15	0.04927	1053.619	0.626
2	298.15	0.04927	1049.609	0.607
2	308.15	0.04927	1044.61	0.583
2	318.15	0.04927	1039.639	0.56
1	288.15	0.04998	1032.879	0.528
1	298.15	0.04998	1029.956	0.515
1	308.15	0.04998	1026.056	0.496
1	318.15	0.04998	1021.282	0.474
0.5	308.15	0.0516	1015.6	0.447
0.5	318.15	0.0516	1011.469	0.428
0.5	298.15	0.0516	1019.018	0.463
0.5	288.15	0.0516	1021.702	0.476
3	288.15	0.05214	1071.289	0.709
3	298.15	0.05214	1066.231	0.685
3	308.15	0.05214	1060.067	0.656
3	318.15	0.05214	1055.864	0.636
1	288.15	0.06013	1034.686	0.537
1	298.15	0.06013	1031.741	0.523
1	308.15	0.06013	1027.827	0.505
1	318.15	0.06013	1023.041	0.482
3	288.15	0.06506	1073.363	0.719
3	298.15	0.06506	1068.289	0.695
3	308.15	0.06506	1062.111	0.666
3	318.15	0.06506	1057.881	0.646
0.5	298.15	0.0732	1022.9	0.481
0.5	318.15	0.0732	1015.288	0.446
0.5	288.15	0.0732	1025.622	0.494
0.5	308.15	0.0732	1019.446	0.465
2	288.15	0.07987	1058.73	0.65
2	298.15	0.07987	1054.668	0.631
2	308.15	0.07987	1049.624	0.607
2	318.15	0.07987	1044.63	0.584
2	288.15	0.0883	1060.114	0.656
2	298.15	0.0883	1056.038	0.637
2	308.15	0.0883	1050.982	0.613
2	318.15	0.0883	1045.982	0.59
1	308.15	0.08976	1032.912	0.528
1	318.15	0.08976	1028.091	0.506
1	298.15	0.08976	1036.863	0.547
1	288.15	0.08976	1039.876	0.561
0.5	288.15	0.09009	1028.64	0.508
0.5	298.15	0.09009	1025.889	0.495
0.5	318.15	0.09009	1018.228	0.46
0.5	308.15	0.09009	1022.408	0.479
3	288.15	0.09103	1077.461	0.738
3	298.15	0.09103	1072.357	0.714
3	308.15	0.09103	1066.149	0.685
3	318.15	0.09103	1061.864	0.665
0.5	288.15	0.10204	1030.751	0.518
0.5	298.15	0.10204	1027.978	0.505
0.5	318.15	0.10204	1020.284	0.469
0.5	308.15	0.10204	1024.479	0.489
1	308.15	0.1079	1035.965	0.543
1	298.15	0.1079	1039.936	0.561
1	288.15	0.1079	1042.992	0.576
1	318.15	0.1079	1031.123	0.52
3	288.15	0.10817	1080.116	0.75
3	298.15	0.10817	1074.993	0.726
3	308.15	0.10817	1068.762	0.697
3	318.15	0.10817	1064.437	0.677
2	308.15	0.11206	1054.754	0.631
2	318.15	0.11206	1049.744	0.608
2	298.15	0.11206	1059.847	0.655
2	288.15	0.11206	1063.965	0.674
0.5	288.15	0.12158	1034.157	0.534
0.5	298.15	0.12158	1031.353	0.521
0.5	308.15	0.12158	1027.824	0.505
0.5	318.15	0.12158	1023.605	0.485
3	288.15	0.1256	1082.775	0.763
3	298.15	0.1256	1077.635	0.739
3	308.15	0.1256	1071.383	0.709
3	318.15	0.1256	1067.012	0.689
2	308.15	0.13045	1057.621	0.645
2	288.15	0.13045	1066.89	0.688
2	298.15	0.13045	1062.743	0.669
2	318.15	0.13045	1052.604	0.621
1	298.15	0.1427	1045.706	0.589
1	318.15	0.1427	1036.816	0.547
1	288.15	0.1427	1048.846	0.603
1	308.15	0.1427	1041.694	0.57
3	298.15	0.15049	1081.341	0.756
3	288.15	0.15049	1086.504	0.78
3	308.15	0.15049	1075.056	0.726
3	318.15	0.15049	1070.624	0.706
0.5	298.15	0.15127	1036.382	0.545
0.5	308.15	0.15127	1032.808	0.528
0.5	288.15	0.15127	1039.235	0.558
0.5	318.15	0.15127	1028.552	0.508
2	288.15	0.15547	1070.801	0.706
2	308.15	0.15547	1061.446	0.663
2	298.15	0.15547	1066.611	0.687
2	318.15	0.15547	1056.426	0.639
1	318.15	0.15589	1038.933	0.557
1	298.15	0.15589	1047.848	0.599
1	308.15	0.15589	1043.823	0.58
1	288.15	0.15589	1051.021	0.613

System: lithium chloride + water + D-raffinose, pentahydrate; phases: Liquid
Fixed: Pressure, kPa = 101
Property: Viscosity, Pa*s (Liquid); method: Capillary tube (Ostwald; Ubbelohde) method
Solvent: Molality, mol/kg of lithium chloride	Temperature, K	Molality, mol/kg of D-raffinose, pentahydrate	Viscosity, Pa*s	uncertainty
0.5	288.15	0.0516	0.001317	8e-06
0.5	288.15	0.0732	0.001364	8e-06
0.5	288.15	0.09009	0.001393	9e-06
0.5	288.15	0.10204	0.001416	9e-06
0.5	288.15	0.12158	0.001453	9e-06
0.5	288.15	0.15127	0.001508	9e-06
0.5	298.15	0.0516	0.001018	7e-06
0.5	298.15	0.0732	0.001053	7e-06
0.5	298.15	0.09009	0.001074	7e-06
0.5	298.15	0.10204	0.001091	7e-06
0.5	298.15	0.12158	0.001119	7e-06
0.5	298.15	0.15127	0.00116	8e-06
0.5	308.15	0.0516	0.00082	6e-06
0.5	308.15	0.0732	0.000847	6e-06
0.5	308.15	0.09009	0.000863	6e-06
0.5	308.15	0.10204	0.000876	6e-06
0.5	308.15	0.12158	0.000897	7e-06
0.5	308.15	0.15127	0.000929	7e-06
0.5	318.15	0.0516	0.000674	6e-06
0.5	318.15	0.0732	0.000697	6e-06
0.5	318.15	0.09009	0.000709	6e-06
0.5	318.15	0.10204	0.000719	6e-06
0.5	318.15	0.12158	0.000736	6e-06
0.5	318.15	0.15127	0.00076	6e-06
1	288.15	0.04998	0.0014	9e-06
1	288.15	0.06013	0.001422	9e-06
1	288.15	0.08976	0.001487	9e-06
1	288.15	0.1079	0.001523	9e-06
1	288.15	0.1427	0.001595	9e-06
1	288.15	0.15589	0.001622	1e-05
1	298.15	0.04998	0.001084	7e-06
1	298.15	0.06013	0.001101	7e-06
1	298.15	0.08976	0.001148	8e-06
1	298.15	0.1079	0.001176	8e-06
1	298.15	0.1427	0.001229	8e-06
1	298.15	0.15589	0.001249	8e-06
1	308.15	0.04998	0.000865	6e-06
1	308.15	0.06013	0.000877	6e-06
1	308.15	0.08976	0.000913	7e-06
1	308.15	0.1079	0.000935	7e-06
1	308.15	0.1427	0.000975	7e-06
1	308.15	0.15589	0.00099	7e-06
1	318.15	0.04998	0.00071	6e-06
1	318.15	0.06013	0.00072	6e-06
1	318.15	0.08976	0.000748	6e-06
1	318.15	0.1079	0.000765	6e-06
1	318.15	0.1427	0.000796	6e-06
1	318.15	0.15589	0.000808	6e-06
2	288.15	0.04927	0.001574	9e-06
2	288.15	0.07987	0.001669	1e-05
2	288.15	0.0883	0.001674	1e-05
2	288.15	0.11206	0.001725	1e-05
2	288.15	0.13045	0.001778	1e-05
2	288.15	0.15547	0.001838	1.1e-05
2	298.15	0.04927	0.001206	8e-06
2	298.15	0.07987	0.001263	8e-06
2	298.15	0.0883	0.001279	8e-06
2	298.15	0.11206	0.001321	8e-06
2	298.15	0.13045	0.001354	8e-06
2	298.15	0.15547	0.001398	9e-06
2	308.15	0.04927	0.000954	7e-06
2	308.15	0.07987	0.000996	7e-06
2	308.15	0.0883	0.001009	7e-06
2	308.15	0.11206	0.00104	7e-06
2	308.15	0.13045	0.001065	7e-06
2	308.15	0.15547	0.001098	7e-06
2	318.15	0.04927	0.000779	6e-06
2	318.15	0.07987	0.000812	6e-06
2	318.15	0.0883	0.000821	6e-06
2	318.15	0.11206	0.000846	6e-06
2	318.15	0.13045	0.000865	6e-06
2	318.15	0.15547	0.00089	7e-06
3	288.15	0.05214	0.001752	1e-05
3	288.15	0.06506	0.001793	1e-05
3	288.15	0.09103	0.001872	1.1e-05
3	288.15	0.10817	0.001923	1.1e-05
3	288.15	0.1256	0.001974	1.1e-05
3	288.15	0.15049	0.002047	1.2e-05
3	298.15	0.05214	0.001349	8e-06
3	298.15	0.06506	0.001378	9e-06
3	298.15	0.09103	0.001435	9e-06
3	298.15	0.10817	0.001472	9e-06
3	298.15	0.1256	0.00151	9e-06
3	298.15	0.15049	0.001562	9e-06
3	308.15	0.05214	0.001052	7e-06
3	308.15	0.06506	0.001073	7e-06
3	308.15	0.09103	0.001116	7e-06
3	308.15	0.10817	0.001143	8e-06
3	308.15	0.1256	0.001171	8e-06
3	308.15	0.15049	0.00121	8e-06
3	318.15	0.05214	0.000854	6e-06
3	318.15	0.06506	0.000871	6e-06
3	318.15	0.09103	0.000904	7e-06
3	318.15	0.10817	0.000925	7e-06
3	318.15	0.1256	0.000946	7e-06
3	318.15	0.15049	0.000976	7e-06

System: methyl-.alpha.-D-glucopyranoside + lithium chloride + water; phases: Liquid
Fixed: Pressure, kPa = 101
Property: Mass density, kg/m3 (Liquid); method: VIBTUB:UFactor:12
Solvent: Molality, mol/kg of lithium chloride	Temperature, K	Molality, mol/kg of methyl-.alpha.-D-glucopyranoside	Mass density, kg/m3	uncertainty
0.5	288.15	0.0546	1015.327	0.482
0.5	288.15	0.0704	1016.263	0.486
0.5	288.15	0.08546	1017.15	0.49
0.5	288.15	0.10706	1018.415	0.496
0.5	288.15	0.14527	1020.624	0.507
0.5	298.15	0.0546	1012.688	0.469
0.5	298.15	0.0704	1013.611	0.473
0.5	298.15	0.08546	1014.486	0.478
0.5	298.15	0.10706	1015.736	0.484
0.5	298.15	0.14527	1017.924	0.494
0.5	308.15	0.0546	1009.274	0.453
0.5	308.15	0.0704	1010.17	0.457
0.5	308.15	0.08546	1011.018	0.461
0.5	308.15	0.10706	1012.222	0.467
0.5	308.15	0.14527	1014.33	0.477
0.5	318.15	0.0546	1005.149	0.433
0.5	318.15	0.0704	1006.029	0.437
0.5	318.15	0.08546	1006.863	0.441
0.5	318.15	0.10706	1008.053	0.447
0.5	318.15	0.14527	1010.134	0.457
1	288.15	0.05231	1026.775	0.536
1	288.15	0.07019	1027.794	0.541
1	288.15	0.1096	1030.018	0.552
1	288.15	0.11238	1030.173	0.552
1	288.15	0.14207	1031.827	0.56
1	298.15	0.05231	1023.897	0.522
1	298.15	0.07019	1024.897	0.527
1	298.15	0.1096	1027.08	0.538
1	298.15	0.11238	1027.232	0.538
1	298.15	0.14207	1028.857	0.546
1	308.15	0.05231	1020.011	0.504
1	308.15	0.07019	1020.99	0.509
1	308.15	0.1096	1023.132	0.519
1	308.15	0.11238	1023.281	0.52
1	308.15	0.14207	1024.875	0.527
1	318.15	0.05231	1015.222	0.481
1	318.15	0.07019	1016.172	0.486
1	318.15	0.1096	1018.246	0.496
1	318.15	0.11238	1018.389	0.496
1	318.15	0.14207	1019.929	0.504
2	288.15	0.05514	1048.114	0.638
2	288.15	0.07719	1049.303	0.644
2	288.15	0.10578	1050.83	0.651
2	288.15	0.1124	1051.181	0.653
2	288.15	0.14276	1052.779	0.66
2	298.15	0.05514	1044.122	0.619
2	298.15	0.07719	1045.283	0.625
2	298.15	0.10578	1046.774	0.632
2	298.15	0.1124	1047.116	0.633
2	298.15	0.14276	1048.677	0.641
2	308.15	0.05514	1039.124	0.595
2	308.15	0.07719	1040.259	0.601
2	308.15	0.10578	1041.716	0.608
2	308.15	0.1124	1042.051	0.609
2	308.15	0.14276	1043.576	0.616
2	318.15	0.05514	1034.134	0.571
2	318.15	0.07719	1035.244	0.577
2	318.15	0.10578	1036.672	0.584
2	318.15	0.1124	1037.002	0.585
2	318.15	0.14276	1038.501	0.592
3	288.15	0.0527	1065.456	0.721
3	288.15	0.07698	1066.718	0.727
3	288.15	0.09158	1067.471	0.73
3	288.15	0.1142	1068.63	0.736
3	288.15	0.13497	1069.684	0.741
3	298.15	0.0527	1060.4	0.697
3	298.15	0.07698	1061.624	0.703
3	298.15	0.09158	1062.353	0.706
3	298.15	0.1142	1063.472	0.711
3	298.15	0.13497	1064.487	0.716
3	308.15	0.0527	1054.24	0.667
3	308.15	0.07698	1055.445	0.673
3	308.15	0.09158	1056.164	0.676
3	308.15	0.1142	1057.269	0.682
3	308.15	0.13497	1058.275	0.687
3	318.15	0.0527	1050.043	0.647
3	318.15	0.07698	1051.213	0.653
3	318.15	0.09158	1051.911	0.656
3	318.15	0.1142	1052.985	0.661
3	318.15	0.13497	1053.964	0.666

System: methyl-.alpha.-D-glucopyranoside + lithium chloride + water; phases: Liquid
Fixed: Pressure, kPa = 101
Property: Viscosity, Pa*s (Liquid); method: Capillary tube (Ostwald; Ubbelohde) method
Solvent: Molality, mol/kg of lithium chloride	Temperature, K	Molality, mol/kg of methyl-.alpha.-D-glucopyranoside	Viscosity, Pa*s	uncertainty
0.5	288.15	0.0546	0.001246	8e-06
0.5	288.15	0.0704	0.001255	8e-06
0.5	288.15	0.08546	0.001265	8e-06
0.5	288.15	0.10706	0.001278	9e-06
0.5	288.15	0.14527	0.001301	9e-06
0.5	298.15	0.0546	0.000964	7e-06
0.5	298.15	0.0704	0.000971	7e-06
0.5	298.15	0.08546	0.000977	7e-06
0.5	298.15	0.10706	0.000987	7e-06
0.5	298.15	0.14527	0.001003	7e-06
0.5	308.15	0.0546	0.000778	6e-06
0.5	308.15	0.0704	0.000784	6e-06
0.5	308.15	0.08546	0.000789	6e-06
0.5	308.15	0.10706	0.000796	6e-06
0.5	308.15	0.14527	0.000808	6e-06
0.5	318.15	0.0546	0.000643	6e-06
0.5	318.15	0.0704	0.000647	6e-06
0.5	318.15	0.08546	0.000651	6e-06
0.5	318.15	0.10706	0.000656	6e-06
0.5	318.15	0.14527	0.000665	6e-06
1	288.15	0.05231	0.001326	9e-06
1	288.15	0.07019	0.001339	9e-06
1	288.15	0.1096	0.001367	9e-06
1	288.15	0.11238	0.001369	9e-06
1	288.15	0.14207	0.00139	9e-06
1	298.15	0.05231	0.001029	7e-06
1	298.15	0.07019	0.001038	7e-06
1	298.15	0.1096	0.001058	8e-06
1	298.15	0.11238	0.001059	8e-06
1	298.15	0.14207	0.001074	8e-06
1	308.15	0.05231	0.000821	6e-06
1	308.15	0.07019	0.000828	7e-06
1	308.15	0.1096	0.000843	7e-06
1	308.15	0.11238	0.000844	7e-06
1	308.15	0.14207	0.000855	7e-06
1	318.15	0.05231	0.000676	6e-06
1	318.15	0.07019	0.000681	6e-06
1	318.15	0.1096	0.000692	6e-06
1	318.15	0.11238	0.000693	6e-06
1	318.15	0.14207	0.000701	6e-06
2	288.15	0.05514	0.001495	1e-05
2	288.15	0.07719	0.001515	1e-05
2	288.15	0.10578	0.001541	1e-05
2	288.15	0.1124	0.001547	1e-05
2	288.15	0.14276	0.001575	1e-05
2	298.15	0.05514	0.001148	8e-06
2	298.15	0.07719	0.001162	8e-06
2	298.15	0.10578	0.001181	8e-06
2	298.15	0.1124	0.001185	8e-06
2	298.15	0.14276	0.001204	8e-06
2	308.15	0.05514	0.000909	7e-06
2	308.15	0.07719	0.000919	7e-06
2	308.15	0.10578	0.000933	7e-06
2	308.15	0.1124	0.000936	7e-06
2	308.15	0.14276	0.000951	7e-06
2	318.15	0.05514	0.000744	6e-06
2	318.15	0.07719	0.000752	6e-06
2	318.15	0.10578	0.000762	6e-06
2	318.15	0.1124	0.000764	6e-06
2	318.15	0.14276	0.000775	6e-06
3	288.15	0.0527	0.001643	1e-05
3	288.15	0.07698	0.001669	1e-05
3	288.15	0.09158	0.001684	1.1e-05
3	288.15	0.1142	0.001708	1.1e-05
3	288.15	0.13497	0.00173	1.1e-05
3	298.15	0.0527	0.001269	9e-06
3	298.15	0.07698	0.001288	9e-06
3	298.15	0.09158	0.001299	9e-06
3	298.15	0.1142	0.001316	9e-06
3	298.15	0.13497	0.001331	9e-06
3	308.15	0.0527	0.000991	7e-06
3	308.15	0.07698	0.001005	7e-06
3	308.15	0.09158	0.001013	7e-06
3	308.15	0.1142	0.001025	7e-06
3	308.15	0.13497	0.001036	7e-06
3	318.15	0.0527	0.000807	6e-06
3	318.15	0.07698	0.000817	6e-06
3	318.15	0.09158	0.000823	7e-06
3	318.15	0.1142	0.000832	7e-06
3	318.15	0.13497	0.000841	7e-06

System: methyl .alpha.-D-xylopyranoside + lithium chloride + water; phases: Liquid
Fixed: Pressure, kPa = 101
Property: Mass density, kg/m3 (Liquid); method: VIBTUB:UFactor:12
Solvent: Molality, mol/kg of lithium chloride	Temperature, K	Molality, mol/kg of methyl .alpha.-D-xylopyranoside	Mass density, kg/m3	uncertainty
0.5	288.15	0.05196	1014.559	0.549
0.5	288.15	0.08516	1016.143	0.557
0.5	288.15	0.10032	1016.862	0.56
0.5	288.15	0.13458	1018.475	0.568
0.5	288.15	0.15547	1019.45	0.573
0.5	298.15	0.05196	1011.928	0.536
0.5	298.15	0.08516	1013.481	0.544
0.5	298.15	0.10032	1014.186	0.547
0.5	298.15	0.13458	1015.766	0.555
0.5	298.15	0.15547	1016.72	0.56
0.5	308.15	0.05196	1008.551	0.52
0.5	308.15	0.08516	1010.075	0.527
0.5	308.15	0.10032	1010.765	0.53
0.5	308.15	0.13458	1012.314	0.538
0.5	308.15	0.15547	1013.25	0.543
0.5	318.15	0.05196	1004.434	0.499
0.5	318.15	0.08516	1005.928	0.507
0.5	318.15	0.10032	1006.604	0.51
0.5	318.15	0.13458	1008.123	0.517
0.5	318.15	0.15547	1009.043	0.522
1	288.15	0.05076	1026.141	0.606
1	288.15	0.08086	1027.538	0.613
1	288.15	0.10057	1028.447	0.617
1	288.15	0.15463	1030.913	0.629
1	288.15	0.17482	1031.825	0.634
1	288.15	0.1936	1032.669	0.638
1	298.15	0.05076	1023.275	0.592
1	298.15	0.08086	1024.643	0.598
1	298.15	0.10057	1025.532	0.603
1	298.15	0.15463	1027.943	0.615
1	298.15	0.17482	1028.834	0.619
1	298.15	0.1936	1029.657	0.623
1	308.15	0.05076	1019.401	0.573
1	308.15	0.08086	1020.74	0.579
1	308.15	0.10057	1021.608	0.584
1	308.15	0.15463	1023.964	0.595
1	308.15	0.17482	1024.833	0.599
1	308.15	0.1936	1025.636	0.603
1	318.15	0.05076	1014.636	0.549
1	318.15	0.08086	1015.946	0.556
1	318.15	0.10057	1016.797	0.56
1	318.15	0.15463	1019.107	0.571
1	318.15	0.17482	1019.961	0.576
1	318.15	0.1936	1020.75	0.579
2	288.15	0.05116	1047.329	0.71
2	288.15	0.06274	1047.827	0.712
2	288.15	0.08012	1048.571	0.716
2	288.15	0.09596	1049.245	0.719
2	288.15	0.10002	1049.416	0.72
2	298.15	0.05116	1043.366	0.69
2	298.15	0.06274	1043.857	0.693
2	298.15	0.08012	1044.588	0.697
2	298.15	0.09596	1045.251	0.7
2	298.15	0.10002	1045.421	0.701
2	308.15	0.05116	1038.38	0.666
2	308.15	0.06274	1038.858	0.668
2	308.15	0.08012	1039.571	0.672
2	308.15	0.09596	1040.215	0.675
2	308.15	0.10002	1040.379	0.676
2	318.15	0.05116	1033.405	0.642
2	318.15	0.06274	1033.869	0.644
2	318.15	0.08012	1034.561	0.647
2	318.15	0.09596	1035.186	0.65
2	318.15	0.10002	1035.346	0.651
3	288.15	0.0543	1064.92	0.796
3	288.15	0.0769	1065.841	0.801
3	288.15	0.09946	1066.752	0.806
3	288.15	0.11597	1067.414	0.809
3	288.15	0.13358	1068.114	0.812
3	298.15	0.0543	1059.89	0.772
3	298.15	0.0769	1060.794	0.776
3	298.15	0.09946	1061.688	0.781
3	298.15	0.11597	1062.338	0.784
3	298.15	0.13358	1063.028	0.787
3	308.15	0.0543	1053.737	0.741
3	308.15	0.0769	1054.623	0.746
3	308.15	0.09946	1055.502	0.75
3	308.15	0.11597	1056.142	0.753
3	308.15	0.13358	1056.818	0.757
3	318.15	0.0543	1049.554	0.721
3	318.15	0.0769	1050.412	0.725
3	318.15	0.09946	1051.264	0.729
3	318.15	0.11597	1051.882	0.732
3	318.15	0.13358	1052.54	0.736

System: methyl .alpha.-D-xylopyranoside + lithium chloride + water; phases: Liquid
Fixed: Pressure, kPa = 101
Property: Viscosity, Pa*s (Liquid); method: Capillary tube (Ostwald; Ubbelohde) method
Solvent: Molality, mol/kg of lithium chloride	Temperature, K	Molality, mol/kg of methyl .alpha.-D-xylopyranoside	Viscosity, Pa*s	uncertainty
0.5	288.15	0.05196	0.001212	9e-06
0.5	288.15	0.08516	0.001233	9e-06
0.5	288.15	0.10032	0.001247	9e-06
0.5	288.15	0.13458	0.001253	9e-06
0.5	288.15	0.15547	0.001266	9e-06
0.5	298.15	0.05196	0.000955	8e-06
0.5	298.15	0.08516	0.000964	8e-06
0.5	298.15	0.10032	0.000969	8e-06
0.5	298.15	0.13458	0.000979	8e-06
0.5	298.15	0.15547	0.000984	8e-06
0.5	308.15	0.05196	0.000771	7e-06
0.5	308.15	0.08516	0.000779	7e-06
0.5	308.15	0.10032	0.000782	7e-06
0.5	308.15	0.13458	0.000789	7e-06
0.5	308.15	0.15547	0.000794	7e-06
0.5	318.15	0.05196	0.000637	6e-06
0.5	318.15	0.08516	0.000643	6e-06
0.5	318.15	0.10032	0.000645	6e-06
0.5	318.15	0.13458	0.000651	6e-06
0.5	318.15	0.15547	0.000654	6e-06
1	288.15	0.05076	0.001311	1e-05
1	288.15	0.08086	0.001325	1e-05
1	288.15	0.10057	0.001334	1e-05
1	288.15	0.15463	0.001357	1e-05
1	288.15	0.17482	0.001366	1e-05
1	288.15	0.1936	0.001375	1e-05
1	298.15	0.05076	0.001018	8e-06
1	298.15	0.08086	0.001028	8e-06
1	298.15	0.10057	0.001034	8e-06
1	298.15	0.15463	0.001051	8e-06
1	298.15	0.17482	0.001057	8e-06
1	298.15	0.1936	0.001063	8e-06
1	308.15	0.05076	0.000814	7e-06
1	308.15	0.08086	0.000821	7e-06
1	308.15	0.10057	0.000825	7e-06
1	308.15	0.15463	0.000838	7e-06
1	308.15	0.17482	0.000842	7e-06
1	308.15	0.1936	0.000847	7e-06
1	318.15	0.05076	0.00067	6e-06
1	318.15	0.08086	0.000675	6e-06
1	318.15	0.10057	0.000679	6e-06
1	318.15	0.15463	0.000688	6e-06
1	318.15	0.17482	0.000691	6e-06
1	318.15	0.1936	0.000694	6e-06
2	288.15	0.05116	0.001475	1e-05
2	288.15	0.06274	0.001482	1e-05
2	288.15	0.08012	0.001493	1.1e-05
2	288.15	0.09596	0.001502	1.1e-05
2	288.15	0.10002	0.001505	1.1e-05
2	298.15	0.05116	0.001134	9e-06
2	298.15	0.06274	0.001139	9e-06
2	298.15	0.08012	0.001146	9e-06
2	298.15	0.09596	0.001153	9e-06
2	298.15	0.10002	0.001154	9e-06
2	308.15	0.05116	0.000898	7e-06
2	308.15	0.06274	0.000901	7e-06
2	308.15	0.08012	0.000907	7e-06
2	308.15	0.09596	0.000911	7e-06
2	308.15	0.10002	0.000913	7e-06
2	318.15	0.05116	0.000735	7e-06
2	318.15	0.06274	0.000738	7e-06
2	318.15	0.08012	0.000742	7e-06
2	318.15	0.09596	0.000745	7e-06
2	318.15	0.10002	0.000746	7e-06
3	288.15	0.0543	0.001627	1.1e-05
3	288.15	0.0769	0.001643	1.1e-05
3	288.15	0.09946	0.00166	1.1e-05
3	288.15	0.11597	0.001672	1.2e-05
3	288.15	0.13358	0.001685	1.2e-05
3	298.15	0.0543	0.001257	9e-06
3	298.15	0.0769	0.001269	9e-06
3	298.15	0.09946	0.001281	9e-06
3	298.15	0.11597	0.001289	9e-06
3	298.15	0.13358	0.001299	9e-06
3	308.15	0.0543	0.000982	8e-06
3	308.15	0.0769	0.000991	8e-06
3	308.15	0.09946	0.000999	8e-06
3	308.15	0.11597	0.001005	8e-06
3	308.15	0.13358	0.001012	8e-06
3	318.15	0.0543	0.0008	7e-06
3	318.15	0.0769	0.000806	7e-06
3	318.15	0.09946	0.000812	7e-06
3	318.15	0.11597	0.000816	7e-06
3	318.15	0.13358	0.000821	7e-06

System: methyl .beta.-D-xylopyranoside + lithium chloride + water; phases: Liquid
Fixed: Pressure, kPa = 101
Property: Mass density, kg/m3 (Liquid); method: VIBTUB:UFactor:12
Solvent: Molality, mol/kg of lithium chloride	Temperature, K	Molality, mol/kg of methyl .beta.-D-xylopyranoside	Mass density, kg/m3	uncertainty
0.5	288.15	0.0507	1014.467	0.549
0.5	288.15	0.06284	1015.04	0.551
0.5	288.15	0.07906	1015.8	0.555
0.5	288.15	0.1104	1017.256	0.562
0.5	288.15	0.14857	1019.006	0.571
0.5	298.15	0.0507	1011.826	0.536
0.5	298.15	0.06284	1012.387	0.538
0.5	298.15	0.07906	1013.133	0.542
0.5	298.15	0.1104	1014.566	0.549
0.5	298.15	0.14857	1016.296	0.557
0.5	308.15	0.0507	1008.423	0.519
0.5	308.15	0.06284	1008.965	0.522
0.5	308.15	0.07906	1009.687	0.525
0.5	308.15	0.1104	1011.071	0.532
0.5	308.15	0.14857	1012.739	0.54
0.5	318.15	0.0507	1004.29	0.499
0.5	318.15	0.06284	1004.817	0.501
0.5	318.15	0.07906	1005.52	0.505
0.5	318.15	0.1104	1006.868	0.511
0.5	318.15	0.14857	1008.494	0.519
1	288.15	0.05207	1026.167	0.606
1	288.15	0.07514	1027.217	0.611
1	288.15	0.0997	1028.323	0.617
1	288.15	0.11245	1028.894	0.619
1	288.15	0.1452	1030.346	0.626
1	298.15	0.05207	1023.292	0.592
1	298.15	0.07514	1024.323	0.597
1	298.15	0.0997	1025.412	0.602
1	298.15	0.11245	1025.974	0.605
1	298.15	0.1452	1027.408	0.612
1	308.15	0.05207	1019.385	0.573
1	308.15	0.07514	1020.378	0.578
1	308.15	0.0997	1021.427	0.583
1	308.15	0.11245	1021.968	0.585
1	308.15	0.1452	1023.347	0.592
1	318.15	0.05207	1014.595	0.549
1	318.15	0.07514	1015.553	0.554
1	318.15	0.0997	1016.564	0.559
1	318.15	0.11245	1017.086	0.561
1	318.15	0.1452	1018.414	0.568
2	288.15	0.05504	1047.523	0.711
2	288.15	0.0723	1048.271	0.715
2	288.15	0.08842	1048.963	0.718
2	288.15	0.10054	1049.48	0.721
2	288.15	0.1136	1050.034	0.723
2	298.15	0.05504	1043.527	0.691
2	298.15	0.0723	1044.252	0.695
2	298.15	0.08842	1044.925	0.698
2	298.15	0.10054	1045.427	0.701
2	298.15	0.1136	1045.967	0.703
2	308.15	0.05504	1038.502	0.667
2	308.15	0.0723	1039.198	0.67
2	308.15	0.08842	1039.844	0.673
2	308.15	0.10054	1040.327	0.676
2	308.15	0.1136	1040.843	0.678
2	318.15	0.05504	1033.491	0.642
2	318.15	0.0723	1034.158	0.645
2	318.15	0.08842	1034.775	0.648
2	318.15	0.10054	1035.235	0.651
2	318.15	0.1136	1035.727	0.653
3	288.15	0.05404	1064.959	0.797
3	288.15	0.0726	1065.731	0.8
3	288.15	0.09941	1066.834	0.806
3	288.15	0.11318	1067.398	0.809
3	288.15	0.13366	1068.228	0.813
3	298.15	0.05404	1059.895	0.772
3	298.15	0.0726	1060.641	0.775
3	298.15	0.09941	1061.704	0.781
3	298.15	0.11318	1062.244	0.783
3	298.15	0.13366	1063.044	0.787
3	308.15	0.05404	1053.706	0.741
3	308.15	0.0726	1054.425	0.745
3	308.15	0.09941	1055.454	0.75
3	308.15	0.11318	1055.979	0.753
3	308.15	0.13366	1056.753	0.756
3	318.15	0.05404	1049.495	0.721
3	318.15	0.0726	1050.181	0.724
3	318.15	0.09941	1051.162	0.729
3	318.15	0.11318	1051.662	0.731
3	318.15	0.13366	1052.4	0.735

System: methyl .beta.-D-xylopyranoside + lithium chloride + water; phases: Liquid
Fixed: Pressure, kPa = 101
Property: Viscosity, Pa*s (Liquid); method: Capillary tube (Ostwald; Ubbelohde) method
Solvent: Molality, mol/kg of lithium chloride	Temperature, K	Molality, mol/kg of methyl .beta.-D-xylopyranoside	Viscosity, Pa*s	uncertainty
0.5	288.15	0.0507	0.001233	9e-06
0.5	288.15	0.06284	0.001238	9e-06
0.5	288.15	0.07906	0.001245	9e-06
0.5	288.15	0.1104	0.001258	9e-06
0.5	288.15	0.14857	0.001273	9e-06
0.5	298.15	0.0507	0.000955	8e-06
0.5	298.15	0.06284	0.000959	8e-06
0.5	298.15	0.07906	0.000963	8e-06
0.5	298.15	0.1104	0.000973	8e-06
0.5	298.15	0.14857	0.000984	8e-06
0.5	308.15	0.0507	0.000771	7e-06
0.5	308.15	0.06284	0.000774	7e-06
0.5	308.15	0.07906	0.000777	7e-06
0.5	308.15	0.1104	0.000784	7e-06
0.5	308.15	0.14857	0.000792	7e-06
0.5	318.15	0.0507	0.000637	6e-06
0.5	318.15	0.06284	0.000639	6e-06
0.5	318.15	0.07906	0.000642	6e-06
0.5	318.15	0.1104	0.000647	6e-06
0.5	318.15	0.14857	0.000653	6e-06
1	288.15	0.05207	0.001312	1e-05
1	288.15	0.07514	0.001323	1e-05
1	288.15	0.0997	0.001334	1e-05
1	288.15	0.11245	0.001339	1e-05
1	288.15	0.1452	0.001354	1e-05
1	298.15	0.05207	0.001019	8e-06
1	298.15	0.07514	0.001026	8e-06
1	298.15	0.0997	0.001034	8e-06
1	298.15	0.11245	0.001039	8e-06
1	298.15	0.1452	0.001049	8e-06
1	308.15	0.05207	0.000814	7e-06
1	308.15	0.07514	0.00082	7e-06
1	308.15	0.0997	0.000826	7e-06
1	308.15	0.11245	0.000829	7e-06
1	308.15	0.1452	0.000836	7e-06
1	318.15	0.05207	0.00067	6e-06
1	318.15	0.07514	0.000675	6e-06
1	318.15	0.0997	0.000679	6e-06
1	318.15	0.11245	0.000681	6e-06
1	318.15	0.1452	0.000687	6e-06
2	288.15	0.05504	0.001476	1e-05
2	288.15	0.0723	0.001486	1.1e-05
2	288.15	0.08842	0.001496	1.1e-05
2	288.15	0.10054	0.001503	1.1e-05
2	288.15	0.1136	0.00151	1.1e-05
2	298.15	0.05504	0.001134	9e-06
2	298.15	0.0723	0.001141	9e-06
2	298.15	0.08842	0.001148	9e-06
2	298.15	0.10054	0.001153	9e-06
2	298.15	0.1136	0.001158	9e-06
2	308.15	0.05504	0.000898	7e-06
2	308.15	0.0723	0.000903	7e-06
2	308.15	0.08842	0.000908	7e-06
2	308.15	0.10054	0.000912	7e-06
2	308.15	0.1136	0.000915	7e-06
2	318.15	0.05504	0.000736	7e-06
2	318.15	0.0723	0.000739	7e-06
2	318.15	0.08842	0.000743	7e-06
2	318.15	0.10054	0.000745	7e-06
2	318.15	0.1136	0.000748	7e-06
3	288.15	0.05404	0.001626	1.1e-05
3	288.15	0.0726	0.001639	1.1e-05
3	288.15	0.09941	0.001659	1.1e-05
3	288.15	0.11318	0.001668	1.2e-05
3	288.15	0.13366	0.001683	1.2e-05
3	298.15	0.05404	0.001256	9e-06
3	298.15	0.0726	0.001266	9e-06
3	298.15	0.09941	0.001279	9e-06
3	298.15	0.11318	0.001286	9e-06
3	298.15	0.13366	0.001297	9e-06
3	308.15	0.05404	0.000982	8e-06
3	308.15	0.0726	0.000989	8e-06
3	308.15	0.09941	0.000998	8e-06
3	308.15	0.11318	0.001003	8e-06
3	308.15	0.13366	0.00101	8e-06
3	318.15	0.05404	0.000799	7e-06
3	318.15	0.0726	0.000804	7e-06
3	318.15	0.09941	0.000811	7e-06
3	318.15	0.11318	0.000815	7e-06
3	318.15	0.13366	0.00082	7e-06

System: lithium chloride + water; phases: Liquid
Fixed: Pressure, kPa = 101
Property: Mass density, kg/m3 (Liquid); method: VIBTUB:UFactor:12
Molality, mol/kg of lithium chloride	Temperature, K	Mass density, kg/m3	uncertainty
0.5	288.15	1012.049	0.43
0.5	298.15	1009.463	0.418
0.5	308.15	1006.13	0.403
0.5	318.15	1002.068	0.384
1	288.15	1023.756	0.485
1	298.15	1020.938	0.472
1	308.15	1017.112	0.454
1	318.15	1012.401	0.432
2	288.15	1045.096	0.586
2	298.15	1041.174	0.567
2	308.15	1036.24	0.544
2	318.15	1031.324	0.521
3	288.15	1062.674	0.668
3	298.15	1057.689	0.645
3	308.15	1051.579	0.616
3	318.15	1047.466	0.597

System: lithium chloride + water; phases: Liquid
Fixed: Pressure, kPa = 101
Property: Viscosity, Pa*s (Liquid); method: Capillary tube (Ostwald; Ubbelohde) method
Molality, mol/kg of lithium chloride	Temperature, K	Viscosity, Pa*s	uncertainty
0.5	288.15	0.001212	8e-06
0.5	298.15	0.00094	7e-06
0.5	308.15	0.00076	6e-06
0.5	318.15	0.000629	6e-06
1	288.15	0.001288	8e-06
1	298.15	0.001002	7e-06
1	308.15	0.000802	6e-06
1	318.15	0.000661	6e-06
2	288.15	0.001444	9e-06
2	298.15	0.001112	7e-06
2	308.15	0.000882	6e-06
2	318.15	0.000724	6e-06
3	288.15	0.001586	9e-06
3	298.15	0.001229	8e-06
3	308.15	0.000962	7e-06
3	318.15	0.000785	6e-06
