Measured thermophysical data. Liquid Liquid Equilibrium for Ternary Systems Containing Water, Oleic Acid, and Alcohols at 313.15 K. Effect of Alcohol Chain Length
Source: J. Chem. Eng. Data, 2015, 10.1021/je501174y
Compound 1: ethanol, C2H6O, InChI=1S/C2H6O/c1-2-3/h3H,2H2,1H3, purity 99.8%
Compound 2: propan-1-ol, C3H8O, InChI=1S/C3H8O/c1-2-3-4/h4H,2-3H2,1H3, purity 99.5%
Compound 3: propan-2-ol, C3H8O, InChI=1S/C3H8O/c1-3(2)4/h3-4H,1-2H3, purity 99.5%
Compound 4: butan-1-ol, C4H10O, InChI=1S/C4H10O/c1-2-3-4-5/h5H,2-4H2,1H3, purity 99.4%
Compound 5: hexan-1-ol, C6H14O, InChI=1S/C6H14O/c1-2-3-4-5-6-7/h7H,2-6H2,1H3, purity 99%
Compound 6: octan-1-ol, C8H18O, InChI=1S/C8H18O/c1-2-3-4-5-6-7-8-9/h9H,2-8H2,1H3, purity 99%
Compound 7: water, H2O, InChI=1S/H2O/h1H2, purity 99.9%
Compound 8: (Z)-9-octadecenoic acid, C18H34O2, InChI=1S/C18H34O2/c1-2-3-4-5-6-7-8-9-10-11-12-13-14-15-16-17-18(19)20/h9-10H,2-8,11-17H2,1H3,(H,19,20)/b10-9-, purity 99.9%

System: ethanol + (Z)-9-octadecenoic acid + water; phases: Liquid mixture 2, Liquid mixture 1
Fixed: Pressure, kPa = 101
Fixed: Temperature, K = 313.15
Property: Mass fraction of (Z)-9-octadecenoic acid (Liquid mixture 2); method: TITR:UFactor:4
Mass fraction of water	Mass fraction of (Z)-9-octadecenoic acid	uncertainty
0.865	0.0019	0.001
0.7499	0.002	0.001
0.7198	0.0023	0.001
0.6096	0.0037	0.0011
0.5554	0.0058	0.0012
0.5045	0.0164	0.0021
0.4691	0.0243	0.003

System: ethanol + (Z)-9-octadecenoic acid + water; phases: Liquid mixture 1, Liquid mixture 2
Fixed: Temperature, K = 313.15
Fixed: Pressure, kPa = 101
Property: Mass fraction of water (Liquid mixture 1); method: TITR:UFactor:4
Mass fraction of (Z)-9-octadecenoic acid	Mass fraction of water	uncertainty
0.892	0.0189	0.0024
0.8262	0.0403	0.005
0.7853	0.0508	0.0063
0.6765	0.0793	0.0098
0.613	0.1014	0.0126
0.4725	0.1485	0.0184
0.4353	0.1548	0.0192

System: propan-1-ol + (Z)-9-octadecenoic acid + water; phases: Liquid mixture 1, Liquid mixture 2
Fixed: Temperature, K = 313.15
Fixed: Pressure, kPa = 101
Property: Mass fraction of water (Liquid mixture 1); method: TITR:UFactor:4
Mass fraction of (Z)-9-octadecenoic acid	Mass fraction of water	uncertainty
0.967	0.0154	0.0019
0.8345	0.0398	0.0049
0.7376	0.0592	0.0073
0.6123	0.0869	0.0108
0.5139	0.1171	0.0145
0.3491	0.1909	0.0237

System: propan-1-ol + (Z)-9-octadecenoic acid + water; phases: Liquid mixture 2, Liquid mixture 1
Fixed: Temperature, K = 313.15
Fixed: Pressure, kPa = 101
Property: Mass fraction of (Z)-9-octadecenoic acid (Liquid mixture 2); method: TITR:UFactor:4
Mass fraction of water	Mass fraction of (Z)-9-octadecenoic acid	uncertainty
0.9123	0.0018	0.001
0.8492	0.0018	0.001
0.8127	0.0017	0.001
0.7806	0.0017	0.001
0.7595	0.0021	0.001
0.7005	0.0044	0.0011

System: propan-2-ol + (Z)-9-octadecenoic acid + water; phases: Liquid mixture 1, Liquid mixture 2
Fixed: Temperature, K = 313.15
Fixed: Pressure, kPa = 101
Property: Mass fraction of water (Liquid mixture 1); method: TITR:UFactor:4
Mass fraction of (Z)-9-octadecenoic acid	Mass fraction of water	uncertainty
0.938	0.0143	0.0018
0.8221	0.0343	0.0043
0.623	0.0803	0.01
0.5624	0.1043	0.0129
0.4248	0.1705	0.0211
0.7292	0.0543	0.0067

System: propan-2-ol + (Z)-9-octadecenoic acid + water; phases: Liquid mixture 2, Liquid mixture 1
Fixed: Temperature, K = 313.15
Fixed: Pressure, kPa = 101
Property: Mass fraction of (Z)-9-octadecenoic acid (Liquid mixture 2); method: TITR:UFactor:4
Mass fraction of water	Mass fraction of (Z)-9-octadecenoic acid	uncertainty
0.968	0.0015	0.001
0.895	0.0017	0.001
0.7651	0.0017	0.001
0.7331	0.0015	0.001
0.6598	0.0067	0.0013
0.8223	0.002	0.001

System: butan-1-ol + (Z)-9-octadecenoic acid + water; phases: Liquid mixture 1, Liquid mixture 2
Fixed: Temperature, K = 313.15
Fixed: Pressure, kPa = 101
Property: Mass fraction of water (Liquid mixture 1); method: TITR:UFactor:4
Mass fraction of (Z)-9-octadecenoic acid	Mass fraction of water	uncertainty
0.8051	0.0285	0.0035
0.703	0.04	0.005
0.6273	0.0506	0.0063
0.5006	0.0846	0.0105
0.3418	0.1044	0.0129
0.2587	0.1139	0.0141

System: butan-1-ol + (Z)-9-octadecenoic acid + water; phases: Liquid mixture 2, Liquid mixture 1
Fixed: Pressure, kPa = 101
Fixed: Temperature, K = 313.15
Property: Mass fraction of (Z)-9-octadecenoic acid (Liquid mixture 2); method: TITR:UFactor:4
Mass fraction of water	Mass fraction of (Z)-9-octadecenoic acid	uncertainty
0.9929	0.0018	0.001
0.9897	0.0013	0.001
0.9674	0.0021	0.001
0.9733	0.003	0.0011
0.9394	0.0019	0.001
0.9402	0.0019	0.001

System: hexan-1-ol + (Z)-9-octadecenoic acid + water; phases: Liquid mixture 1, Liquid mixture 2
Fixed: Temperature, K = 313.15
Fixed: Pressure, kPa = 101
Property: Mass fraction of water (Liquid mixture 1); method: TITR:UFactor:4
Mass fraction of (Z)-9-octadecenoic acid	Mass fraction of water	uncertainty
0.8331	0.0198	0.0025
0.8625	0.0169	0.0021
0.6575	0.0304	0.0038
0.493	0.0389	0.0048
0.3818	0.0508	0.0063
0.2655	0.0455	0.0056

System: hexan-1-ol + (Z)-9-octadecenoic acid + water; phases: Liquid mixture 2, Liquid mixture 1
Fixed: Temperature, K = 313.15
Fixed: Pressure, kPa = 101
Property: Mass fraction of (Z)-9-octadecenoic acid (Liquid mixture 2); method: TITR:UFactor:4
Mass fraction of water	Mass fraction of (Z)-9-octadecenoic acid	uncertainty
0.9828	0.0016	0.001
0.9957	0.0019	0.001
0.9846	0.0017	0.001
0.9882	0.0014	0.001
0.9944	0.0016	0.001
0.9874	0.0013	0.001

System: octan-1-ol + (Z)-9-octadecenoic acid + water; phases: Liquid mixture 1, Liquid mixture 2
Fixed: Temperature, K = 313.15
Fixed: Pressure, kPa = 101
Property: Mass fraction of water (Liquid mixture 1); method: TITR:UFactor:4
Mass fraction of (Z)-9-octadecenoic acid	Mass fraction of water	uncertainty
0.8159	0.0145	0.0018
0.8759	0.0147	0.0018
0.6659	0.0203	0.0025
0.5	0.0242	0.003
0.3878	0.0255	0.0032
0.2652	0.0297	0.0037

System: octan-1-ol + (Z)-9-octadecenoic acid + water; phases: Liquid mixture 2, Liquid mixture 1
Fixed: Temperature, K = 313.15
Fixed: Pressure, kPa = 101
Property: Mass fraction of (Z)-9-octadecenoic acid (Liquid mixture 2); method: TITR:UFactor:4
Mass fraction of water	Mass fraction of (Z)-9-octadecenoic acid	uncertainty
0.9784	0.0018	0.001
0.9954	0.0017	0.001
0.9927	0.0018	0.0011
0.9983	0.0017	0.001
0.9986	0.0014	0.001
0.994	0.0012	0.001
