Measured thermophysical data. Isothermal Vapor Liquid Equilibrium Data for the 1,1,2,3,3,3-Hexafluoroprop-1-ene +1,1,2,2,3,3,4,4-Octafluorocyclobutane Binary System: Measurement and Modeling from (292 to 352) K and Pressures up to 2.6 MPa
Source: J. Chem. Eng. Data, 2015, 10.1021/je501047e
Compound 1: hexafluoropropene, C3F6, InChI=1S/C3F6/c4-1(2(5)6)3(7,8)9, purity 99.9%
Compound 2: octafluorocyclobutane, C4F8, InChI=1S/C4F8/c5-1(6)2(7,8)4(11,12)3(1,9)10, purity 99.7%

System: octafluorocyclobutane + hexafluoropropene; phases: Liquid, Gas
Property: Vapor or sublimation pressure, kPa (Liquid); method: Closed cell (Static) method
Mole fraction of hexafluoropropene	Temperature, K	Vapor or sublimation pressure, kPa	uncertainty
0.092	292.89	286	5
0.152	292.89	309	5
0.227	292.89	336	5
0.319	292.89	368	6
0.399	292.89	397	7
0.482	292.89	428	7
0.538	292.89	447	7
0.612	292.89	477	7
0.691	292.89	504	6
0.744	292.89	528	6
0.838	292.89	558	6
0.904	292.89	588	6
0.108	323.02	713	5
0.204	323.02	783	10
0.269	323.02	833	8
0.384	323.02	921	14
0.469	323.02	986	11
0.551	323.02	1047	13
0.604	323.02	1089	6
0.671	323.02	1142	12
0.782	323.02	1228	8
0.885	323.02	1313	16
0.091	352.71	1419	9
0.185	352.71	1534	13
0.315	352.71	1722	19
0.396	352.71	1839	20
0.555	352.71	2060	20
0.687	352.71	2258	19
0.766	352.71	2361	18
0.867	352.71	2528	15
0.91	352.71	2609	13

System: octafluorocyclobutane + hexafluoropropene; phases: Gas, Liquid
Property: Mole fraction of hexafluoropropene (Gas); method: Chromatography
Mole fraction of hexafluoropropene	Temperature, K	Mole fraction of hexafluoropropene	uncertainty
0.092	292.89	0.177	0.01
0.152	292.89	0.275	0.014
0.227	292.89	0.382	0.015
0.319	292.89	0.491	0.018
0.399	292.89	0.586	0.017
0.482	292.89	0.662	0.015
0.538	292.89	0.709	0.014
0.612	292.89	0.771	0.012
0.691	292.89	0.821	0.01
0.744	292.89	0.859	0.008
0.838	292.89	0.906	0.006
0.904	292.89	0.95	0.005
0.108	323.02	0.179	0.009
0.204	323.02	0.31	0.015
0.269	323.02	0.396	0.016
0.384	323.02	0.524	0.017
0.469	323.02	0.605	0.015
0.551	323.02	0.675	0.015
0.604	323.02	0.72	0.013
0.671	323.02	0.773	0.011
0.782	323.02	0.852	0.008
0.885	323.02	0.922	0.005
0.091	352.71	0.129	0.008
0.185	352.71	0.24	0.012
0.315	352.71	0.403	0.018
0.396	352.71	0.483	0.017
0.555	352.71	0.639	0.015
0.687	352.71	0.752	0.013
0.766	352.71	0.816	0.01
0.867	352.71	0.895	0.007
0.91	352.71	0.93	0.006
