Measured thermophysical data. Isobaric Vapor Liquid Equilibrium of tert-Butyl Alcohol + Water + Triethanolamine-Based Ionic Liquid Ternary Systems at 101.3 kPa
Source: J. Chem. Eng. Data, 2015, 10.1021/je501098j
Compound 1: 2-methylpropan-2-ol, C4H10O, InChI=1S/C4H10O/c1-4(2,3)5/h5H,1-3H3, purity 99%
Compound 2: water, H2O, InChI=1S/H2O/h1H2, purity 99.8%
Compound 3: triethanolamine, C6H15NO3, InChI=1S/C6H15NO3/c8-4-1-7(2-5-9)3-6-10/h8-10H,1-6H2, purity 99%
Compound 4: triethanolamine formate, C7H17NO5, InChI=1S/C6H15NO3.CH2O2/c8-4-1-7(2-5-9)3-6-10;2-1-3/h8-10H,1-6H2;1H,(H,2,3), purity 98%
Compound 5: triethanolammonium acetate, C8H19NO5, InChI=1S/C6H15NO3.C2H4O2/c8-4-1-7(2-5-9)3-6-10;1-2(3)4/h8-10H,1-6H2;1H3,(H,3,4), purity 98%
Compound 6: triethanolamine lactate, C9H21NO6, InChI=1S/C6H15NO3.C3H6O3/c8-4-1-7(2-5-9)3-6-10;1-2(4)3(5)6/h8-10H,1-6H2;2,4H,1H3,(H,5,6), purity 98%

System: 2-methylpropan-2-ol; phases: Liquid, Gas
Property: Vapor or sublimation pressure, kPa (Liquid); method: Ebulliometric method (Recirculating still)
Temperature, K	Vapor or sublimation pressure, kPa	uncertainty
355.56	101	2

System: 2-methylpropan-2-ol + water; phases: Gas, Liquid
Fixed: Pressure, kPa = 101.3
Property: Mole fraction of 2-methylpropan-2-ol (Gas); method: Chromatography
Mole fraction of 2-methylpropan-2-ol	Mole fraction of 2-methylpropan-2-ol	uncertainty
0.04	0.471	0.015
0.071	0.501	0.012
0.121	0.515	0.011
0.152	0.512	0.011
0.192	0.516	0.012
0.222	0.536	0.013
0.343	0.551	0.011
0.394	0.571	0.012
0.434	0.588	0.011
0.505	0.604	0.011
0.546	0.61	0.012
0.636	0.656	0.011
0.677	0.658	0.013
0.798	0.757	0.013
0.838	0.775	0.013
0.889	0.823	0.016
0.929	0.892	0.018
0.97	0.939	0.015

System: 2-methylpropan-2-ol + water; phases: Liquid, Gas
Fixed: Pressure, kPa = 101.3
Property: Boiling temperature at pressure P, K (Liquid); method: Ebulliometric method (Recirculating still)
Mole fraction of 2-methylpropan-2-ol	Boiling temperature at pressure P, K	uncertainty
0.04	356.41	0.43
0.071	355.57	0.37
0.121	354.98	0.35
0.152	354.75	0.34
0.192	354.49	0.34
0.222	354.3	0.34
0.343	353.65	0.34
0.394	353.39	0.34
0.434	353.23	0.33
0.505	352.97	0.33
0.546	352.85	0.33
0.636	352.7	0.33
0.677	352.69	0.33
0.798	353.01	0.34
0.838	353.25	0.34
0.889	353.7	0.35
0.929	354.25	0.37
0.97	354.95	0.38

System: 2-methylpropan-2-ol + triethanolamine; phases: Liquid, Gas
Fixed: Pressure, kPa = 101
Property: Boiling temperature at pressure P, K (Liquid); method: Ebulliometric method (Recirculating still)
Mole fraction of 2-methylpropan-2-ol	Boiling temperature at pressure P, K	uncertainty
1	355.56	0.33
0.978	356.13	0.43
0.946	357.01	0.44
0.916	357.88	0.45
0.854	359.83	0.47
0.794	361.93	0.5
0.738	364.08	0.53
0.645	368.06	0.56
0.583	370.99	0.59
0.517	374.32	0.61

System: 2-methylpropan-2-ol + triethanolammonium acetate; phases: Liquid, Gas
Fixed: Pressure, kPa = 101.3
Property: Boiling temperature at pressure P, K (Liquid); method: Ebulliometric method (Recirculating still)
Mole fraction of 2-methylpropan-2-ol	Boiling temperature at pressure P, K	uncertainty
1	355.56	0.33
0.986	355.92	0.43
0.964	356.51	0.44
0.927	357.57	0.45
0.881	359.02	0.47
0.837	360.59	0.5
0.795	362.24	0.54
0.746	364.4	0.58
0.695	366.98	0.65
0.644	370.02	0.68

System: 2-methylpropan-2-ol + triethanolamine formate; phases: Liquid, Gas
Fixed: Pressure, kPa = 101.3
Property: Boiling temperature at pressure P, K (Liquid); method: Ebulliometric method (Recirculating still)
Mole fraction of 2-methylpropan-2-ol	Boiling temperature at pressure P, K	uncertainty
1	355.56	0.33
0.987	355.87	0.4
0.966	356.33	0.37
0.922	356.99	0.36
0.894	357.22	0.34
0.861	357.3	0.34
0.805	356.99	0.35
0.742	355.94	0.4
0.685	354.43	0.46
0.623	352.15	0.5

System: 2-methylpropan-2-ol + triethanolamine lactate; phases: Liquid, Gas
Fixed: Pressure, kPa = 101.3
Property: Boiling temperature at pressure P, K (Liquid); method: Ebulliometric method (Recirculating still)
Mole fraction of 2-methylpropan-2-ol	Boiling temperature at pressure P, K	uncertainty
1	355.56	0.33
0.992	355.77	0.38
0.97	356.26	0.39
0.922	357.15	0.37
0.884	357.62	0.34
0.822	357.94	0.34
0.755	357.64	0.35
0.686	356.6	0.39
0.624	355.04	0.45
0.561	352.88	0.48

System: triethanolamine + water; phases: Liquid, Gas
Fixed: Pressure, kPa = 101.3
Property: Boiling temperature at pressure P, K (Liquid); method: Ebulliometric method (Recirculating still)
Mole fraction of water	Boiling temperature at pressure P, K	uncertainty
1	373.15	0.33
0.982	373.64	0.43
0.965	374.08	0.41
0.927	375.01	0.41
0.875	376.18	0.4
0.824	377.28	0.4
0.766	378.52	0.4
0.693	380.18	0.41
0.611	382.34	0.44
0.545	384.47	0.46

System: water + triethanolammonium acetate; phases: Liquid, Gas
Fixed: Pressure, kPa = 101.3
Property: Boiling temperature at pressure P, K (Liquid); method: Ebulliometric method (Recirculating still)
Mole fraction of water	Boiling temperature at pressure P, K	uncertainty
1	373.15	0.33
0.987	373.52	0.44
0.975	373.86	0.44
0.956	374.43	0.46
0.912	375.88	0.49
0.853	378.09	0.52
0.813	379.84	0.59
0.745	383.28	0.67
0.665	388.43	0.81
0.594	394.38	0.9

System: water + triethanolamine formate; phases: Liquid, Gas
Fixed: Pressure, kPa = 101.3
Property: Boiling temperature at pressure P, K (Liquid); method: Ebulliometric method (Recirculating still)
Mole fraction of water	Boiling temperature at pressure P, K	uncertainty
1	373.15	0.33
0.991	373.41	0.42
0.965	374.15	0.44
0.922	375.41	0.45
0.886	376.51	0.45
0.847	377.72	0.46
0.815	378.78	0.47
0.764	380.48	0.48
0.729	381.72	0.49
0.676	383.68	0.5

System: water + triethanolamine lactate; phases: Liquid, Gas
Fixed: Pressure, kPa = 101.3
Property: Boiling temperature at pressure P, K (Liquid); method: Ebulliometric method (Recirculating still)
Mole fraction of water	Boiling temperature at pressure P, K	uncertainty
1	373.15	0.33
0.987	373.51	0.44
0.942	374.84	0.45
0.903	376.03	0.46
0.852	377.7	0.47
0.805	379.34	0.49
0.745	381.52	0.49
0.693	383.44	0.5
0.652	384.99	0.5
0.587	387.34	0.49

System: 2-methylpropan-2-ol + triethanolamine + water; phases: Liquid, Gas
Fixed: Pressure, kPa = 101.3
Property: Boiling temperature at pressure P, K (Liquid); method: Ebulliometric method (Recirculating still)
Mole fraction of 2-methylpropan-2-ol	Mole fraction of triethanolamine	Boiling temperature at pressure P, K	uncertainty
0.802	0.198	356.86	0.46
0.778	0.201	356.27	0.4
0.74	0.199	355.59	0.37
0.709	0.197	355.21	0.35
0.611	0.202	354.69	0.34
0.586	0.201	354.64	0.34
0.543	0.199	354.67	0.34
0.492	0.203	354.79	0.34
0.442	0.202	355.08	0.34
0.386	0.2	355.48	0.34
0.351	0.198	355.82	0.35
0.288	0.201	356.55	0.36
0.228	0.203	357.56	0.38
0.199	0.199	358.19	0.41
0.154	0.197	359.33	0.48
0.125	0.203	360.26	0.74
0.066	0.197	362.63	1.23
0.023	0.199	367.73	1.98
0	0.201	376.34	0.35
0.598	0.402	357.39	0.54
0.582	0.396	356.48	0.38
0.563	0.403	355.96	0.35
0.512	0.399	355.24	0.34
0.455	0.402	354.78	0.35
0.428	0.401	354.83	0.38
0.414	0.397	354.84	0.78
0.389	0.399	354.99	0.36
0.351	0.4	355.18	0.34
0.316	0.397	355.48	0.36
0.284	0.402	355.85	1.02
0.26	0.398	356.22	0.44
0.23	0.404	356.74	0.37
0.202	0.399	357.23	0.73
0.164	0.396	358.19	0.55
0.138	0.401	359.07	0.57
0.098	0.399	361.53	0.79
0.029	0.403	369.94	1.92
0	0.397	380.97	0.36
0.501	0.499	359.46	0.44
0.491	0.504	359.15	0.39
0.461	0.5	358.62	0.4
0.442	0.497	358.68	0.38
0.412	0.503	358.86	0.36
0.377	0.499	359.23	0.42
0.356	0.505	359.66	0.42
0.316	0.498	360.52	0.4
0.289	0.502	361.36	0.59
0.247	0.499	362.87	0.4
0.229	0.503	363.52	0.7
0.186	0.501	365.62	0.66
0.169	0.5	366.34	0.6
0.147	0.502	367.79	0.55
0.118	0.496	369.57	0.96
0.062	0.498	374.72	1.04
0.036	0.503	377.92	2.54
0.011	0.504	383.03	1.93
0	0.501	386.54	0.41
0.403	0.597	361.05	0.35
0.389	0.604	361.1	0.37
0.377	0.6	361.22	0.37
0.359	0.599	361.46	0.37
0.333	0.601	361.82	0.41
0.31	0.596	362.36	0.43
0.273	0.603	363.41	0.46
0.265	0.601	363.58	0.5
0.247	0.592	364.28	0.46
0.229	0.595	364.92	0.55
0.214	0.602	365.46	0.61
0.193	0.598	366.65	0.66
0.167	0.6	368.57	0.92
0.142	0.597	370.86	0.94
0.113	0.599	373.44	1.21
0.083	0.602	376.51	1.3
0.038	0.6	382.72	1.53
0.022	0.602	385.66	1.82
0	0.596	392.75	0.44

System: 2-methylpropan-2-ol + triethanolamine + water; phases: Gas, Liquid
Fixed: Pressure, kPa = 101.3
Property: Mole fraction of 2-methylpropan-2-ol (Gas); method: Chromatography
Mole fraction of 2-methylpropan-2-ol	Mole fraction of triethanolamine	Mole fraction of 2-methylpropan-2-ol	uncertainty
0.802	0.198	1	
0.778	0.201	0.959	0.021
0.74	0.199	0.895	0.019
0.709	0.197	0.854	0.017
0.611	0.202	0.743	0.014
0.586	0.201	0.721	0.013
0.543	0.199	0.696	0.014
0.492	0.203	0.657	0.013
0.442	0.202	0.638	0.012
0.386	0.2	0.597	0.013
0.351	0.198	0.575	0.013
0.288	0.201	0.535	0.012
0.228	0.203	0.51	0.012
0.199	0.199	0.499	0.012
0.154	0.197	0.486	0.016
0.125	0.203	0.459	0.026
0.066	0.197	0.356	0.04
0.023	0.199	0.192	0.053
0	0.201	0	
0.598	0.402	1	
0.582	0.396	0.958	0.02
0.563	0.403	0.919	0.018
0.512	0.399	0.847	0.016
0.455	0.402	0.773	0.015
0.428	0.401	0.737	0.019
0.414	0.397	0.713	0.025
0.389	0.399	0.689	0.014
0.351	0.4	0.653	0.015
0.316	0.397	0.632	0.012
0.284	0.402	0.608	0.015
0.26	0.398	0.597	0.014
0.23	0.404	0.558	0.014
0.202	0.399	0.535	0.014
0.164	0.396	0.516	0.012
0.138	0.401	0.498	0.012
0.098	0.399	0.478	0.022
0.029	0.403	0.298	0.044
0	0.397	0	
0.501	0.499	1	
0.491	0.504	0.981	0.019
0.461	0.5	0.918	0.023
0.442	0.497	0.883	0.02
0.412	0.503	0.833	0.02
0.377	0.499	0.783	0.017
0.356	0.505	0.762	0.017
0.316	0.498	0.72	0.016
0.289	0.502	0.683	0.019
0.247	0.499	0.619	0.016
0.229	0.503	0.6	0.013
0.186	0.501	0.583	0.012
0.169	0.5	0.571	0.017
0.147	0.502	0.53	0.014
0.118	0.496	0.491	0.018
0.062	0.498	0.427	0.023
0.036	0.503	0.315	0.09
0.011	0.504	0.131	0.076
0	0.501	0	
0.403	0.597	1	
0.389	0.604	0.975	0.023
0.377	0.6	0.946	0.023
0.359	0.599	0.909	0.025
0.333	0.601	0.852	0.021
0.31	0.596	0.814	0.019
0.273	0.603	0.766	0.019
0.265	0.601	0.76	0.02
0.247	0.592	0.726	0.018
0.229	0.595	0.701	0.015
0.214	0.602	0.675	0.016
0.193	0.598	0.679	0.015
0.167	0.6	0.646	0.018
0.142	0.597	0.595	0.015
0.113	0.599	0.566	0.02
0.083	0.602	0.515	0.022
0.038	0.6	0.427	0.03
0.022	0.602	0.328	0.065
0	0.596	0	

System: 2-methylpropan-2-ol + water + triethanolammonium acetate; phases: Liquid, Gas
Fixed: Pressure, kPa = 101.3
Property: Boiling temperature at pressure P, K (Liquid); method: Ebulliometric method (Recirculating still)
Mole fraction of triethanolammonium acetate	Mole fraction of 2-methylpropan-2-ol	Boiling temperature at pressure P, K	uncertainty
0.099	0.901	356.29	0.35
0.102	0.874	356.1	0.35
0.1	0.84	355.82	0.34
0.099	0.785	355.48	0.34
0.102	0.756	355.35	0.34
0.101	0.678	355.16	0.34
0.1	0.581	355.31	0.34
0.099	0.538	355.55	0.34
0.102	0.479	355.82	0.34
0.101	0.431	356.12	0.34
0.1	0.388	356.41	0.34
0.097	0.296	357.11	0.34
0.101	0.224	357.72	0.36
0.098	0.21	357.98	0.36
0.099	0.158	358.92	0.4
0.103	0.06	361.23	0.45
0.1	0.039	362.83	2.6
0.099	0.016	368.74	2.6
0.102	0	374.91	0.33
0.203	0.797	356.74	0.44
0.199	0.789	356.4	0.44
0.201	0.755	355.66	0.39
0.202	0.731	355.32	0.38
0.2	0.666	354.57	0.35
0.203	0.613	354.31	0.34
0.199	0.555	354.49	0.36
0.198	0.507	354.81	0.36
0.2	0.459	355.19	0.34
0.203	0.371	356.17	0.36
0.199	0.298	357.16	0.37
0.201	0.223	358.54	0.4
0.197	0.177	359.53	0.36
0.203	0.139	360.55	0.47
0.199	0.116	361.27	0.47
0.2	0.069	363.24	0.75
0.201	0.036	366.85	1.84
0.197	0.007	372.49	1.92
0.203	0	375.88	1.21
0.299	0.701	358.48	0.45
0.302	0.677	357.87	0.41
0.3	0.652	357.32	0.37
0.299	0.593	356.82	0.36
0.297	0.515	357.33	0.37
0.303	0.468	357.93	0.37
0.3	0.41	358.82	0.4
0.298	0.362	359.71	0.41
0.301	0.326	360.49	0.42
0.303	0.275	361.81	0.46
0.297	0.241	362.66	0.49
0.302	0.186	364.43	0.54
0.3	0.135	366.58	0.65
0.299	0.115	367.55	0.62
0.297	0.097	368.57	1.02
0.302	0.07	370.61	1.04
0.303	0.031	374.55	1.75
0.3	0.017	377.24	1.65
0.301	0	382.35	0.44
0.402	0.598	360.34	0.37
0.398	0.579	360.41	0.37
0.402	0.547	360.58	0.37
0.4	0.508	360.87	0.38
0.401	0.43	361.84	0.39
0.399	0.38	362.69	0.43
0.402	0.328	363.84	0.54
0.398	0.322	364.12	0.52
0.399	0.293	365.34	0.58
0.401	0.254	367.21	0.61
0.397	0.228	368.42	0.62
0.401	0.201	369.85	0.66
0.403	0.145	372.92	0.73
0.399	0.127	374.15	0.71
0.401	0.112	375.12	0.85
0.4	0.075	377.92	0.96
0.398	0.045	380.55	1.17
0.399	0.022	383.54	1.35
0.402	0	388.82	0.42

System: 2-methylpropan-2-ol + water + triethanolammonium acetate; phases: Gas, Liquid
Fixed: Pressure, kPa = 101.3
Property: Mole fraction of 2-methylpropan-2-ol (Gas); method: Chromatography
Mole fraction of triethanolammonium acetate	Mole fraction of 2-methylpropan-2-ol	Mole fraction of 2-methylpropan-2-ol	uncertainty
0.099	0.901	1	
0.102	0.874	0.951	0.02
0.1	0.84	0.893	0.017
0.099	0.785	0.834	0.017
0.102	0.756	0.79	0.015
0.101	0.678	0.735	0.013
0.1	0.581	0.675	0.013
0.099	0.538	0.656	0.012
0.102	0.479	0.63	0.012
0.101	0.431	0.617	0.012
0.1	0.388	0.6	0.012
0.097	0.296	0.578	0.012
0.101	0.224	0.566	0.012
0.098	0.21	0.561	0.012
0.099	0.158	0.539	0.013
0.103	0.06	0.468	0.015
0.1	0.039	0.405	0.063
0.099	0.016	0.263	0.063
0.102	0	0	
0.203	0.797	1	
0.199	0.789	0.979	0.021
0.201	0.755	0.927	0.02
0.202	0.731	0.892	0.017
0.2	0.666	0.819	0.015
0.203	0.613	0.772	0.013
0.199	0.555	0.732	0.012
0.198	0.507	0.707	0.013
0.2	0.459	0.676	0.012
0.203	0.371	0.643	0.012
0.199	0.298	0.619	0.012
0.201	0.223	0.607	0.011
0.197	0.177	0.589	0.013
0.203	0.139	0.569	0.014
0.199	0.116	0.552	0.015
0.2	0.069	0.493	0.023
0.201	0.036	0.391	0.075
0.197	0.007	0.184	0.104
0.203	0	0	
0.299	0.701	1	
0.302	0.677	0.96	0.019
0.3	0.652	0.918	0.017
0.299	0.593	0.85	0.015
0.297	0.515	0.783	0.014
0.303	0.468	0.739	0.014
0.3	0.41	0.707	0.012
0.298	0.362	0.697	0.012
0.301	0.326	0.679	0.012
0.303	0.275	0.654	0.012
0.297	0.241	0.635	0.012
0.302	0.186	0.624	0.012
0.3	0.135	0.606	0.012
0.299	0.115	0.593	0.014
0.297	0.097	0.575	0.014
0.302	0.07	0.538	0.033
0.303	0.031	0.423	0.079
0.3	0.017	0.328	0.067
0.301	0	0	
0.402	0.598	1	
0.398	0.579	0.969	0.019
0.402	0.547	0.927	0.017
0.4	0.508	0.878	0.016
0.401	0.43	0.796	0.015
0.399	0.38	0.754	0.013
0.402	0.328	0.732	0.013
0.398	0.322	0.724	0.012
0.399	0.293	0.715	0.011
0.401	0.254	0.705	0.012
0.397	0.228	0.683	0.012
0.401	0.201	0.677	0.012
0.403	0.145	0.654	0.012
0.399	0.127	0.647	0.013
0.401	0.112	0.637	0.014
0.4	0.075	0.603	0.017
0.398	0.045	0.552	0.04
0.399	0.022	0.392	0.071
0.402	0	0	

System: 2-methylpropan-2-ol + water + triethanolamine formate; phases: Gas, Liquid
Fixed: Pressure, kPa = 101.3
Property: Mole fraction of 2-methylpropan-2-ol (Gas); method: Chromatography
Mole fraction of triethanolamine formate	Mole fraction of 2-methylpropan-2-ol	Mole fraction of 2-methylpropan-2-ol	uncertainty
0.101	0.899	1	
0.1	0.867	0.951	0.019
0.098	0.821	0.881	0.017
0.097	0.77	0.828	0.016
0.1	0.717	0.771	0.014
0.098	0.66	0.732	0.012
0.102	0.56	0.688	0.012
0.099	0.519	0.667	0.012
0.101	0.453	0.642	0.012
0.099	0.421	0.628	0.012
0.102	0.381	0.617	0.012
0.099	0.326	0.605	0.011
0.098	0.254	0.591	0.012
0.102	0.201	0.58	0.012
0.1	0.14	0.549	0.014
0.103	0.07	0.479	0.03
0.098	0.032	0.37	0.095
0.1	0.013	0.193	0.093
0.103	0	0	
0.201	0.799	1	
0.198	0.766	0.943	0.017
0.203	0.721	0.888	0.015
0.2	0.675	0.845	0.015
0.199	0.64	0.818	0.014
0.201	0.595	0.779	0.013
0.202	0.566	0.761	0.012
0.199	0.531	0.742	0.012
0.201	0.478	0.718	0.012
0.199	0.438	0.695	0.012
0.201	0.362	0.669	0.012
0.198	0.289	0.642	0.012
0.201	0.238	0.638	0.012
0.199	0.181	0.618	0.012
0.2	0.131	0.597	0.012
0.197	0.091	0.574	0.024
0.203	0.051	0.526	0.021
0.201	0.018	0.37	0.096
0.199	0	0	
0.301	0.699	1	
0.298	0.683	0.973	0.017
0.303	0.647	0.918	0.015
0.298	0.596	0.869	0.015
0.302	0.543	0.831	0.013
0.299	0.501	0.798	0.012
0.301	0.436	0.763	0.012
0.3	0.411	0.743	0.012
0.298	0.344	0.722	0.011
0.3	0.31	0.709	0.012
0.302	0.278	0.697	0.012
0.298	0.241	0.681	0.012
0.301	0.185	0.665	0.012
0.303	0.148	0.649	0.014
0.299	0.116	0.633	0.018
0.299	0.06	0.562	0.019
0.301	0.041	0.533	0.104
0.298	0.022	0.372	0.044
0.303	0	0	
0.399	0.601	1	
0.401	0.573	0.965	0.017
0.403	0.547	0.932	0.017
0.399	0.517	0.899	0.015
0.397	0.481	0.862	0.013
0.4	0.435	0.834	0.013
0.403	0.416	0.828	0.012
0.398	0.393	0.805	0.012
0.401	0.338	0.782	0.011
0.398	0.266	0.755	0.011
0.401	0.219	0.747	0.011
0.403	0.205	0.749	0.011
0.399	0.173	0.739	0.012
0.4	0.158	0.72	0.017
0.403	0.133	0.714	0.037
0.399	0.08	0.67	0.039
0.397	0.032	0.492	0.081
0.401	0.008	0.226	0.051
0.399	0	0	

System: 2-methylpropan-2-ol + water + triethanolamine formate; phases: Gas, Liquid
Fixed: Pressure, kPa = 101.3
Property: Boiling temperature at pressure P, K (Gas); method: Ebulliometric method (Recirculating still)
Mole fraction of triethanolamine formate	Mole fraction of 2-methylpropan-2-ol	Boiling temperature at pressure P, K	uncertainty
0.101	0.899	357.01	0.35
0.1	0.867	356.69	0.35
0.098	0.821	356.34	0.35
0.097	0.77	356.03	0.34
0.1	0.717	355.69	0.34
0.098	0.66	355.38	0.34
0.102	0.56	355.56	0.34
0.099	0.519	355.81	0.34
0.101	0.453	356.13	0.34
0.099	0.421	356.47	0.35
0.102	0.381	356.74	0.35
0.099	0.326	357.22	0.36
0.098	0.254	358.08	0.37
0.102	0.201	358.7	0.38
0.1	0.14	359.46	0.4
0.103	0.07	360.88	0.85
0.098	0.032	363.38	3.19
0.1	0.013	369.51	3.21
0.103	0	374.91	0.35
0.201	0.799	357.81	0.37
0.198	0.766	357.27	0.36
0.203	0.721	356.75	0.38
0.2	0.675	356.41	0.41
0.199	0.64	356.28	0.35
0.201	0.595	356.31	0.36
0.202	0.566	356.42	0.34
0.199	0.531	356.69	0.35
0.201	0.478	357.13	0.36
0.199	0.438	357.54	0.36
0.201	0.362	358.47	0.38
0.198	0.289	359.61	0.38
0.201	0.238	360.65	0.37
0.199	0.181	362.01	0.44
0.2	0.131	363.21	0.59
0.197	0.091	365.44	1.02
0.203	0.051	368.66	0.96
0.201	0.018	373.38	2.03
0.199	0	377.21	0.4
0.301	0.699	360.05	0.41
0.298	0.683	359.62	0.36
0.303	0.647	359.13	0.35
0.298	0.596	359.34	0.36
0.302	0.543	359.78	0.39
0.299	0.501	360.31	0.38
0.301	0.436	361.27	0.38
0.3	0.411	361.73	0.44
0.298	0.344	363.31	0.44
0.3	0.31	364.28	0.47
0.302	0.278	365.29	0.53
0.298	0.241	366.52	0.57
0.301	0.185	368.55	0.55
0.303	0.148	370.13	0.84
0.299	0.116	372.11	0.94
0.299	0.06	376.75	0.99
0.301	0.041	378.82	1.59
0.298	0.022	381.49	1.31
0.303	0	385.79	0.49
0.399	0.601	362.14	0.35
0.401	0.573	362.26	0.36
0.403	0.547	362.52	0.36
0.399	0.517	362.79	0.37
0.397	0.481	363.31	0.39
0.4	0.435	363.85	0.41
0.403	0.416	364.03	0.43
0.398	0.393	364.72	0.42
0.401	0.338	366.11	0.48
0.398	0.266	368.87	0.6
0.401	0.219	371.93	0.84
0.403	0.205	373.07	0.84
0.399	0.173	375.32	0.88
0.4	0.158	376.46	0.84
0.403	0.133	378.44	1.15
0.399	0.08	382.99	1.25
0.397	0.032	388.36	1.42
0.401	0.008	392.11	1.09
0.399	0	393.75	0.47

System: 2-methylpropan-2-ol + water + triethanolamine lactate; phases: Gas, Liquid
Fixed: Pressure, kPa = 101.3
Property: Mole fraction of 2-methylpropan-2-ol (Gas); method: Chromatography
Mole fraction of triethanolamine lactate	Mole fraction of 2-methylpropan-2-ol	Mole fraction of 2-methylpropan-2-ol	uncertainty
0.099	0.901	1	
0.103	0.866	0.953	0.019
0.1	0.817	0.878	0.016
0.101	0.757	0.814	0.015
0.102	0.71	0.773	0.013
0.097	0.65	0.749	0.012
0.1	0.628	0.745	0.012
0.098	0.597	0.725	0.013
0.102	0.519	0.693	0.012
0.098	0.446	0.671	0.012
0.099	0.404	0.652	0.012
0.102	0.349	0.635	0.012
0.097	0.317	0.619	0.012
0.101	0.264	0.612	0.012
0.098	0.187	0.599	0.012
0.1	0.103	0.558	0.013
0.099	0.066	0.525	0.058
0.103	0.02	0.256	0.058
0.099	0	0	
0.202	0.798	1	
0.199	0.775	0.966	0.017
0.2	0.737	0.92	0.016
0.202	0.709	0.899	0.014
0.201	0.667	0.863	0.014
0.203	0.603	0.815	0.013
0.199	0.569	0.791	0.013
0.198	0.544	0.776	0.012
0.203	0.515	0.759	0.012
0.201	0.465	0.733	0.012
0.202	0.394	0.705	0.012
0.199	0.362	0.694	0.011
0.203	0.325	0.682	0.011
0.2	0.258	0.666	0.011
0.197	0.205	0.652	0.012
0.2	0.159	0.638	0.013
0.199	0.067	0.575	0.034
0.202	0.011	0.29	0.219
0.198	0	0	
0.301	0.699	1	
0.299	0.683	0.986	0.013
0.303	0.64	0.941	0.014
0.299	0.567	0.875	0.013
0.301	0.509	0.832	0.012
0.297	0.452	0.798	0.012
0.299	0.399	0.771	0.012
0.303	0.345	0.749	0.011
0.299	0.299	0.734	0.012
0.3	0.264	0.722	0.011
0.298	0.215	0.71	0.011
0.303	0.193	0.698	0.012
0.3	0.16	0.692	0.012
0.298	0.117	0.674	0.017
0.303	0.084	0.631	0.016
0.301	0.06	0.602	0.022
0.3	0.041	0.547	0.106
0.297	0.015	0.256	0.131
0.302	0	0	

System: 2-methylpropan-2-ol + water + triethanolamine lactate; phases: Gas, Liquid
Fixed: Pressure, kPa = 101.3
Property: Boiling temperature at pressure P, K (Gas); method: Ebulliometric method (Recirculating still)
Mole fraction of triethanolamine lactate	Mole fraction of 2-methylpropan-2-ol	Boiling temperature at pressure P, K	uncertainty
0.099	0.901	358.01	0.37
0.103	0.866	357.49	0.36
0.1	0.817	357.01	0.35
0.101	0.757	356.54	0.35
0.102	0.71	356.22	0.34
0.097	0.65	356.1	0.34
0.1	0.628	356.26	0.34
0.098	0.597	356.43	0.35
0.102	0.519	356.96	0.35
0.098	0.446	357.6	0.35
0.099	0.404	357.98	0.37
0.102	0.349	358.64	0.37
0.097	0.317	359.12	0.37
0.101	0.264	359.79	0.39
0.098	0.187	360.74	0.41
0.1	0.103	362.32	0.5
0.099	0.066	364.22	1.62
0.103	0.02	371.91	1.68
0.099	0	377.89	0.34
0.202	0.798	359.27	0.42
0.199	0.775	358.62	0.4
0.2	0.737	357.86	0.35
0.202	0.709	357.62	0.35
0.201	0.667	357.44	0.37
0.203	0.603	357.73	0.36
0.199	0.569	358.01	0.39
0.198	0.544	358.23	0.36
0.203	0.515	358.52	0.37
0.201	0.465	359.15	0.4
0.202	0.394	360.37	0.42
0.199	0.362	361.08	0.4
0.203	0.325	361.84	0.44
0.2	0.258	363.19	0.41
0.197	0.205	364.62	0.45
0.2	0.159	366.03	0.57
0.199	0.067	370.41	0.93
0.202	0.011	376.72	1.99
0.198	0	379.63	1.49
0.301	0.699	361.84	0.39
0.299	0.683	361.95	0.39
0.303	0.64	362.32	0.4
0.299	0.567	362.87	0.4
0.301	0.509	363.42	0.41
0.297	0.452	364.18	0.41
0.299	0.399	364.93	0.44
0.303	0.345	366.11	0.48
0.299	0.299	367.22	0.44
0.3	0.264	368.01	0.46
0.298	0.215	369.25	0.5
0.303	0.193	369.87	0.52
0.3	0.16	371.21	0.55
0.298	0.117	373.05	0.85
0.303	0.084	374.76	1.21
0.301	0.06	377.38	1.32
0.3	0.041	379.97	2.11
0.297	0.015	385.07	2.31
0.302	0	389.49	0.94
