Measured thermophysical data. Influence of LiTFSI Addition on Conductivity, Diffusion Coefficient, Spin Lattice Relaxation Times, and Chemical Shift of One-Dimensional NMR Spectroscopy in LiTFSI-Doped Dual-Functionalized Imidazolium-Based Ionic Liquids
Source: J. Chem. Eng. Data, 2015, 10.1021/je500431h
Compound 1: lithium bis((trifluoromethyl)sulfonyl)amide, C2F6LiNO4S2, InChI=1S/C2F6NO4S2.Li/c3-1(4,5)14(10,11)9-15(12,13)2(6,7)8;/q-1;+1, purity 99%
Compound 2: 1-allyl-3-(2-methoxyethyl)-1H-imidazol-3-ium bis((trifluoromethyl)sulfonyl)amide, C11H15F6N3O5S2, InChI=1S/C9H15N2O.C2F6NO4S2/c1-3-4-10-5-6-11(9-10)7-8-12-2;3-1(4,5)14(10,11)9-15(12,13)2(6,7)8/h3,5-6,9H,1,4,7-8H2,2H3;/q+1;-1, purity 99%

System: 1-allyl-3-(2-methoxyethyl)-1H-imidazol-3-ium bis((trifluoromethyl)sulfonyl)amide; phases: Liquid
Fixed: Pressure, kPa = 101
Property: Mass density, kg/m3 (Liquid); method: Pycnometric method
Temperature, K	Mass density, kg/m3	uncertainty
309	1437	2.2
314	1432.3	2.2
317	1429.6	2.2
323.5	1423.5	2.2
328	1419.4	2.2
334	1413.9	2.2
338.5	1409.9	2.2
344	1404.9	2.2
348	1401.3	2.2
354.2	1395.8	2.2

System: 1-allyl-3-(2-methoxyethyl)-1H-imidazol-3-ium bis((trifluoromethyl)sulfonyl)amide; phases: Liquid
Fixed: Pressure, kPa = 101
Property: Viscosity, Pa*s (Liquid); method: CAPTUB:UFactor:4
Temperature, K	Viscosity, Pa*s	uncertainty
309	0.0237	0.001
314	0.0203	0.0009
317	0.0178	0.0008
323.5	0.0146	0.0006
328	0.0131	0.0006
334	0.0112	0.0005
338.5	0.01	0.0004
344	0.0088	0.0004
348	0.0082	0.0004
354.2	0.007	0.0003

System: 1-allyl-3-(2-methoxyethyl)-1H-imidazol-3-ium bis((trifluoromethyl)sulfonyl)amide; phases: Liquid
Fixed: Pressure, kPa = 101
Property: Electrical conductivity, S/m (Liquid); method: conductivity meter LF 340 and a standard conductivity cell TetraCon
Temperature, K	Electrical conductivity, S/m	uncertainty
308.7	0.546	0.033
313.3	0.627	0.038
318.1	0.72	0.043
323.3	0.828	0.05
327.9	0.935	0.056
332.9	1.056	0.063
337.6	1.18	0.071
343	1.332	0.08
348.1	1.475	0.089
352	1.601	0.096

System: lithium bis((trifluoromethyl)sulfonyl)amide + 1-allyl-3-(2-methoxyethyl)-1H-imidazol-3-ium bis((trifluoromethyl)sulfonyl)amide; phases: Liquid
Fixed: Pressure, kPa = 101
Property: Mass density, kg/m3 (Liquid); method: Pycnometric method
Mole fraction of lithium bis((trifluoromethyl)sulfonyl)amide	Temperature, K	Mass density, kg/m3	uncertainty
0	309	1437	2.2
0	314	1432.3	2.2
0	317	1429.6	2.2
0	323.5	1423.5	2.2
0	328	1419.4	2.2
0	334	1413.9	2.2
0	338.5	1409.9	2.2
0	344	1404.9	2.2
0	348	1401.3	2.2
0	354.2	1395.8	2.2
0.1007	309	1459.7	2.3
0.1007	315	1453.9	2.2
0.1007	319.5	1449.6	2.2
0.1007	325.2	1444.2	2.2
0.1007	327.2	1442.3	2.2
0.1007	334.2	1435.7	2.2
0.1007	338.1	1432	2.2
0.1007	343.2	1427.3	2.2
0.1007	349	1421.9	2.2
0.1007	354.5	1416.9	2.2
0.176	308	1480.1	2.4
0.176	313	1475.4	2.3
0.176	318	1470.7	2.3
0.176	323	1466	2.3
0.176	327.2	1462	2.3
0.176	334	1455.7	2.3
0.176	338	1452.1	2.3
0.176	344	1446.6	2.3
0.176	349	1442	2.3
0.176	355	1436.6	2.2
0.2508	308	1505.3	2.3
0.2508	313	1500.4	2.4
0.2508	317	1496.4	2.4
0.2508	324	1489.5	2.4
0.2508	328	1485.6	2.3
0.2508	334	1479.8	2.4
0.2508	338	1475.9	2.3
0.2508	345	1469.2	2.3
0.2508	349	1465.4	2.3
0.2508	355	1459.8	2.4
0.3254	308	1525.3	2.5
0.3254	313	1520.3	2.4
0.3254	317	1516.3	2.4
0.3254	323	1510.4	2.4
0.3254	327	1506.5	2.4
0.3254	334	1499.7	2.4
0.3254	337	1496.9	2.4
0.3254	343	1491.1	2.4
0.3254	347	1487.3	2.4
0.3254	356	1478.8	2.4
0.4001	309.24	1551.1	2.5
0.4001	314	1546.3	2.5
0.4001	318	1542.3	2.5
0.4001	324	1536.2	2.5
0.4001	328	1532.2	2.5
0.4001	334	1526.3	2.5
0.4001	339	1521.4	2.5
0.4001	344	1516.5	2.5
0.4001	349	1511.6	2.5
0.4001	355	1505.8	2.5

System: lithium bis((trifluoromethyl)sulfonyl)amide + 1-allyl-3-(2-methoxyethyl)-1H-imidazol-3-ium bis((trifluoromethyl)sulfonyl)amide; phases: Liquid
Fixed: Pressure, kPa = 101
Property: Viscosity, Pa*s (Liquid); method: CAPTUB:UFactor:4
Mole fraction of lithium bis((trifluoromethyl)sulfonyl)amide	Temperature, K	Viscosity, Pa*s	uncertainty
0	309	0.0237	0.001
0	314	0.0203	0.0009
0	317	0.0178	0.0008
0	323.5	0.0146	0.0006
0	328	0.0131	0.0006
0	334	0.0112	0.0005
0	338.5	0.01	0.0004
0	344	0.0088	0.0004
0	348	0.0082	0.0004
0	354.2	0.007	0.0003
0.1007	309	0.038	0.0017
0.1007	315	0.0279	0.0012
0.1007	319.5	0.0228	0.001
0.1007	325.2	0.0196	0.0009
0.1007	327.2	0.0177	0.0008
0.1007	334.2	0.0153	0.0007
0.1007	338.1	0.0129	0.0006
0.1007	343.2	0.0114	0.0005
0.1007	349	0.0103	0.0005
0.1007	354.5	0.0095	0.0004
0.176	308	0.0562	0.0024
0.176	313	0.0444	0.002
0.176	318	0.0358	0.0016
0.176	323	0.0296	0.0013
0.176	327.2	0.0254	0.0011
0.176	334	0.0204	0.0009
0.176	338	0.0182	0.0008
0.176	344	0.0154	0.0007
0.176	349	0.0137	0.0006
0.176	355	0.0119	0.0005
0.2508	308	0.0722	0.0035
0.2508	313	0.0571	0.0024
0.2508	317	0.0478	0.0021
0.2508	324	0.0374	0.0016
0.2508	328	0.0323	0.0014
0.2508	334	0.0259	0.0011
0.2508	338	0.0229	0.001
0.2508	345	0.0192	0.0008
0.2508	349	0.0171	0.0008
0.2508	355	0.0146	0.0006
0.3254	308	0.1164	0.008
0.3254	313	0.0894	0.0049
0.3254	317	0.0751	0.0037
0.3254	323	0.0568	0.0024
0.3254	327	0.049	0.0021
0.3254	334	0.0371	0.0016
0.3254	337	0.032	0.0014
0.3254	343	0.0273	0.0012
0.3254	347	0.024	0.001
0.3254	356	0.0189	0.0008
0.4001	309.2	0.2216	0.0225
0.4001	314	0.1683	0.0145
0.4001	318	0.1385	0.0105
0.4001	324	0.1009	0.0061
0.4001	328	0.0821	0.0043
0.4001	334	0.0632	0.0028
0.4001	339	0.0542	0.0022
0.4001	344	0.0448	0.002
0.4001	349	0.038	0.0017
0.4001	355	0.0317	0.0014

System: lithium bis((trifluoromethyl)sulfonyl)amide + 1-allyl-3-(2-methoxyethyl)-1H-imidazol-3-ium bis((trifluoromethyl)sulfonyl)amide; phases: Liquid
Fixed: Pressure, kPa = 101
Property: Electrical conductivity, S/m (Liquid); method: conductivity meter LF 340 and a standard conductivity cell TetraCon
Mole fraction of lithium bis((trifluoromethyl)sulfonyl)amide	Temperature, K	Electrical conductivity, S/m	uncertainty
0	308.7	0.546	0.033
0	313.3	0.627	0.038
0	318.1	0.72	0.043
0	323.3	0.828	0.05
0	327.9	0.935	0.056
0	332.9	1.056	0.063
0	337.6	1.18	0.071
0	343	1.332	0.08
0	348.1	1.475	0.089
0	352	1.601	0.096
0.1007	308.9	0.425	0.026
0.1007	314.4	0.514	0.031
0.1007	319.2	0.596	0.036
0.1007	324.4	0.694	0.042
0.1007	328.9	0.778	0.047
0.1007	334	0.885	0.053
0.1007	339	0.986	0.059
0.1007	344.5	1.106	0.066
0.1007	348.3	1.193	0.072
0.1007	354.9	1.35	0.081
0.176	308.2	0.3	0.018
0.176	313.9	0.372	0.022
0.176	319.6	0.453	0.027
0.176	322.4	0.493	0.03
0.176	328.7	0.588	0.035
0.176	334.5	0.691	0.041
0.176	338.9	0.76	0.046
0.176	343.8	0.858	0.051
0.176	348.6	0.954	0.057
0.176	354.9	1.09	0.065
0.2508	308.7	0.228	0.014
0.2508	314.4	0.284	0.017
0.2508	317.9	0.327	0.02
0.2508	324.6	0.41	0.025
0.2508	328.5	0.467	0.028
0.2508	333.4	0.535	0.032
0.2508	337.4	0.6	0.036
0.2508	343.5	0.698	0.042
0.2508	348.2	0.784	0.047
0.2508	352.5	0.858	0.051
0.3254	308.8	0.1598	0.0096
0.3254	313.5	0.2	0.012
0.3254	319	0.248	0.015
0.3254	323.9	0.3	0.018
0.3254	328.8	0.353	0.021
0.3254	333.1	0.405	0.024
0.3254	338.5	0.474	0.028
0.3254	343.3	0.539	0.032
0.3254	348.5	0.62	0.037
0.3254	353.3	0.694	0.042
0.4001	308.2	0.0856	0.0051
0.4001	313.4	0.1126	0.0068
0.4001	318.1	0.1411	0.0085
0.4001	324.1	0.1832	0.011
0.4001	327.5	0.214	0.013
0.4001	334.3	0.275	0.017
0.4001	339.3	0.323	0.019
0.4001	344.4	0.385	0.023
0.4001	348.7	0.436	0.026
0.4001	353.5	0.498	0.03
