Measured thermophysical data. Density, Speed of Sound, Viscosity, and Excess Properties of N-Ethyl-2-pyrrolidone + 2-(Methylamino)ethanol [or 2-(Ethylamino)ethanol] from T = (293.15 to 323.15) K
Source: J. Chem. Eng. Data, 2015, 10.1021/je500917k
Compound 1: 1-ethyl-2-pyrrolidinone, C6H11NO, InChI=1S/C6H11NO/c1-2-7-5-3-4-6(7)8/h2-5H2,1H3, purity 98%
Compound 2: 2-(methylamino)ethanol, C3H9NO, InChI=1S/C3H9NO/c1-4-2-3-5/h4-5H,2-3H2,1H3, purity 99%
Compound 3: 2-(ethylamino)ethanol, C4H11NO, InChI=1S/C4H11NO/c1-2-5-3-4-6/h5-6H,2-4H2,1H3, purity 99%

System: 1-ethyl-2-pyrrolidinone; phases: Liquid
Fixed: Pressure, kPa = 100
Property: Mass density, kg/m3 (Liquid); method: VIBTUB:UFactor:4
Temperature, K	Mass density, kg/m3	uncertainty
293.15	997.71	0.94
303.15	989.14	0.94
313.15	980.56	0.94
323.15	971.96	0.94

System: 1-ethyl-2-pyrrolidinone; phases: Liquid
Fixed: Pressure, kPa = 100
Fixed: Frequency, MHz = 2
Property: Speed of sound, m/s (Liquid); method: FPINT:UFactor:2
Temperature, K	Speed of sound, m/s	uncertainty
293.15	1512.1	3.4
303.15	1474.2	3.4
313.15	1436	3.4
323.15	1398.5	3.4

System: 1-ethyl-2-pyrrolidinone; phases: Liquid
Fixed: Pressure, kPa = 100
Property: Viscosity, Pa*s (Liquid); method: CAPTUB:UFactor:4
Temperature, K	Viscosity, Pa*s	uncertainty
293.15	0.002117	5.3e-05
303.15	0.001771	4.5e-05
313.15	0.001518	3.9e-05
323.15	0.001299	3.4e-05

System: 2-(methylamino)ethanol; phases: Liquid
Fixed: Pressure, kPa = 100
Property: Mass density, kg/m3 (Liquid); method: VIBTUB:UFactor:4
Temperature, K	Mass density, kg/m3	uncertainty
293.15	941.79	0.54
303.15	934.02	0.54
313.15	926.18	0.55
323.15	918.25	0.55

System: 2-(methylamino)ethanol; phases: Liquid
Fixed: Pressure, kPa = 100
Fixed: Frequency, MHz = 2
Property: Speed of sound, m/s (Liquid); method: FPINT:UFactor:2
Temperature, K	Speed of sound, m/s	uncertainty
293.15	1486.5	2.9
303.15	1454.6	2.9
313.15	1422.7	2.9
323.15	1390.9	2.9

System: 2-(methylamino)ethanol; phases: Liquid
Fixed: Pressure, kPa = 100
Property: Viscosity, Pa*s (Liquid); method: CAPTUB:UFactor:4
Temperature, K	Viscosity, Pa*s	uncertainty
293.15	0.013418	0.000248
303.15	0.00858	0.00017
313.15	0.005869	0.000125
323.15	0.004096	9.2e-05

System: 2-(ethylamino)ethanol; phases: Liquid
Fixed: Pressure, kPa = 100
Property: Mass density, kg/m3 (Liquid); method: VIBTUB:UFactor:4
Temperature, K	Mass density, kg/m3	uncertainty
293.15	917.79	0.55
303.15	909.82	0.56
313.15	901.79	0.57
323.15	893.68	0.57

System: 2-(ethylamino)ethanol; phases: Liquid
Fixed: Pressure, kPa = 100
Fixed: Frequency, MHz = 2
Property: Speed of sound, m/s (Liquid); method: FPINT:UFactor:2
Temperature, K	Speed of sound, m/s	uncertainty
293.15	1442.4	2.9
303.15	1408.3	2.9
313.15	1374.5	2.9
323.15	1340.9	2.9

System: 2-(ethylamino)ethanol; phases: Liquid
Fixed: Pressure, kPa = 100
Property: Viscosity, Pa*s (Liquid); method: CAPTUB:UFactor:4
Temperature, K	Viscosity, Pa*s	uncertainty
293.15	0.015281	0.000279
303.15	0.00959	0.000186
313.15	0.006406	0.000134
323.15	0.004527	0.000101

System: 2-(methylamino)ethanol + 1-ethyl-2-pyrrolidinone; phases: Liquid
Fixed: Pressure, kPa = 100
Property: Mass density, kg/m3 (Liquid); method: VIBTUB:UFactor:4
Mole fraction of 1-ethyl-2-pyrrolidinone	Temperature, K	Mass density, kg/m3	uncertainty
0	293.15	941.79	0.54
0.0905	293.15	947.11	0.56
0.1825	293.15	953.11	0.58
0.2767	293.15	958.92	0.61
0.3731	293.15	964.75	0.63
0.4713	293.15	970.4	0.67
0.5725	293.15	975.84	0.71
0.6756	293.15	981.28	0.75
0.7808	293.15	986.73	0.81
0.8888	293.15	992.12	0.87
1	293.15	997.71	0.94
0	303.15	934.02	0.54
0.0905	303.15	939.11	0.57
0.1825	303.15	944.94	0.59
0.2767	303.15	950.62	0.61
0.3731	303.15	956.31	0.64
0.4713	303.15	961.92	0.67
0.5725	303.15	967.33	0.71
0.6756	303.15	972.75	0.76
0.7808	303.15	978.18	0.81
0.8888	303.15	983.56	0.87
1	303.15	989.14	0.94
0	313.15	926.18	0.55
0.0905	313.15	931.05	0.57
0.1825	313.15	936.73	0.59
0.2767	313.15	942.28	0.62
0.3731	313.15	947.87	0.64
0.4713	313.15	953.42	0.68
0.5725	313.15	958.78	0.72
0.6756	313.15	964.1	0.76
0.7808	313.15	969.61	0.81
0.8888	313.15	974.99	0.87
1	313.15	980.56	0.94
0	323.15	918.25	0.55
0.0905	323.15	922.92	0.58
0.1825	323.15	928.44	0.6
0.2767	323.15	933.89	0.62
0.3731	323.15	939.38	0.65
0.4713	323.15	944.88	0.68
0.5725	323.15	950.21	0.72
0.6756	323.15	955.61	0.76
0.7808	323.15	961.03	0.82
0.8888	323.15	966.4	0.87
1	323.15	971.96	0.94

System: 2-(methylamino)ethanol + 1-ethyl-2-pyrrolidinone; phases: Liquid
Fixed: Pressure, kPa = 100
Fixed: Frequency, MHz = 2
Property: Speed of sound, m/s (Liquid); method: FPINT:UFactor:2
Mole fraction of 1-ethyl-2-pyrrolidinone	Temperature, K	Speed of sound, m/s	uncertainty
0	293.15	1486.5	2.9
0.0905	293.15	1479.8	3
0.1825	293.15	1478.5	3
0.2767	293.15	1478.5	3
0.3731	293.15	1480.1	3.1
0.4713	293.15	1483.1	3.1
0.5725	293.15	1486.9	3.2
0.6756	293.15	1491.4	3.2
0.7808	293.15	1497.9	3.3
0.8888	293.15	1504.7	3.3
1	293.15	1512.1	3.4
0	303.15	1454.6	2.9
0.0905	303.15	1447.2	2.9
0.1825	303.15	1445.2	3
0.2767	303.15	1444.1	3
0.3731	303.15	1444.9	3.1
0.4713	303.15	1447.3	3.1
0.5725	303.15	1450.6	3.2
0.6756	303.15	1454.6	3.2
0.7808	303.15	1460.6	3.3
0.8888	303.15	1467	3.3
1	303.15	1474.2	3.4
0	313.15	1422.7	2.9
0.0905	313.15	1414.1	2.9
0.1825	313.15	1411.3	3
0.2767	313.15	1409.4	3
0.3731	313.15	1409.5	3
0.4713	313.15	1411.6	3.1
0.5725	313.15	1414.3	3.1
0.6756	313.15	1418	3.2
0.7808	313.15	1423.5	3.3
0.8888	313.15	1429.4	3.3
1	313.15	1436	3.4
0	323.15	1390.9	2.9
0.0905	323.15	1381	2.9
0.1825	323.15	1377.6	3
0.2767	323.15	1375.1	3
0.3731	323.15	1374.6	3
0.4713	323.15	1376.1	3.1
0.5725	323.15	1378.3	3.1
0.6756	323.15	1381.7	3.2
0.7808	323.15	1386.8	3.2
0.8888	323.15	1392.3	3.3
1	323.15	1398.5	3.4

System: 2-(methylamino)ethanol + 1-ethyl-2-pyrrolidinone; phases: Liquid
Fixed: Pressure, kPa = 100
Property: Viscosity, Pa*s (Liquid); method: CAPTUB:UFactor:4
Mole fraction of 1-ethyl-2-pyrrolidinone	Temperature, K	Viscosity, Pa*s	uncertainty
0	293.15	0.013418	0.000248
0.0905	293.15	0.009188	0.00019
0.1825	293.15	0.00679	0.000146
0.2767	293.15	0.005162	0.000118
0.3731	293.15	0.004095	9.5e-05
0.4713	293.15	0.003496	8.2e-05
0.5725	293.15	0.002951	7e-05
0.6756	293.15	0.002648	6.4e-05
0.7808	293.15	0.002358	5.8e-05
0.8888	293.15	0.002231	5.5e-05
1	293.15	0.002117	5.3e-05
0	303.15	0.00858	0.00017
0.0905	303.15	0.006239	0.000136
0.1825	303.15	0.004715	0.000109
0.2767	303.15	0.003747	8.7e-05
0.3731	303.15	0.003068	7.2e-05
0.4713	303.15	0.002666	6.3e-05
0.5725	303.15	0.002339	5.6e-05
0.6756	303.15	0.002125	5.2e-05
0.7808	303.15	0.00194	4.8e-05
0.8888	303.15	0.00183	4.6e-05
1	303.15	0.001771	4.5e-05
0	313.15	0.005869	0.000125
0.0905	313.15	0.004394	0.000101
0.1825	313.15	0.003488	8.1e-05
0.2767	313.15	0.00289	6.8e-05
0.3731	313.15	0.002409	5.7e-05
0.4713	313.15	0.002123	5.1e-05
0.5725	313.15	0.001914	4.7e-05
0.6756	313.15	0.001776	4.4e-05
0.7808	313.15	0.001639	4.1e-05
0.8888	313.15	0.001546	3.9e-05
1	313.15	0.001518	3.9e-05
0	323.15	0.004096	9.2e-05
0.0905	323.15	0.003293	7.6e-05
0.1825	323.15	0.002683	6.3e-05
0.2767	323.15	0.002267	5.4e-05
0.3731	323.15	0.001943	4.7e-05
0.4713	323.15	0.001747	4.3e-05
0.5725	323.15	0.00158	3.9e-05
0.6756	323.15	0.001478	3.7e-05
0.7808	323.15	0.00141	3.6e-05
0.8888	323.15	0.001331	3.4e-05
1	323.15	0.001299	3.4e-05

System: 2-(ethylamino)ethanol + 1-ethyl-2-pyrrolidinone; phases: Liquid
Fixed: Pressure, kPa = 100
Property: Mass density, kg/m3 (Liquid); method: VIBTUB:UFactor:4
Mole fraction of 1-ethyl-2-pyrrolidinone	Temperature, K	Mass density, kg/m3	uncertainty
0	293.15	917.79	0.55
0.111	293.15	925.54	0.59
0.2179	293.15	933.77	0.61
0.3242	293.15	941.8	0.64
0.4274	293.15	949.86	0.67
0.5359	293.15	958.36	0.71
0.6269	293.15	965.64	0.74
0.7225	293.15	973.71	0.79
0.8177	293.15	981.7	0.84
0.9095	293.15	989.6	0.89
1	293.15	997.71	0.94
0	303.15	909.82	0.56
0.111	303.15	917.42	0.59
0.2179	303.15	925.53	0.61
0.3242	303.15	933.46	0.64
0.4274	303.15	941.44	0.67
0.5359	303.15	949.89	0.71
0.6269	303.15	957.14	0.75
0.7225	303.15	965.19	0.79
0.8177	303.15	973.17	0.84
0.9095	303.15	981.06	0.89
1	303.15	989.14	0.94
0	313.15	901.79	0.57
0.111	313.15	909.24	0.6
0.2179	313.15	917.23	0.62
0.3242	313.15	925.07	0.65
0.4274	313.15	932.99	0.68
0.5359	313.15	941.38	0.71
0.6269	313.15	948.61	0.75
0.7225	313.15	956.65	0.79
0.8177	313.15	964.63	0.84
0.9095	313.15	972.5	0.89
1	313.15	980.56	0.94
0	323.15	893.68	0.57
0.111	323.15	900.98	0.6
0.2179	323.15	908.86	0.62
0.3242	323.15	916.63	0.65
0.4274	323.15	924.49	0.68
0.5359	323.15	932.84	0.72
0.6269	323.15	940.06	0.75
0.7225	323.15	948.09	0.8
0.8177	323.15	956.06	0.84
0.9095	323.15	963.93	0.89
1	323.15	971.96	0.94

System: 2-(ethylamino)ethanol + 1-ethyl-2-pyrrolidinone; phases: Liquid
Fixed: Pressure, kPa = 100
Fixed: Frequency, MHz = 2
Property: Speed of sound, m/s (Liquid); method: FPINT:UFactor:2
Mole fraction of 1-ethyl-2-pyrrolidinone	Temperature, K	Speed of sound, m/s	uncertainty
0	293.15	1442.4	2.9
0.111	293.15	1444.5	3
0.2179	293.15	1448.8	3
0.3242	293.15	1453.7	3
0.4274	293.15	1459.7	3.1
0.5359	293.15	1468	3.1
0.6269	293.15	1473.3	3.2
0.7225	293.15	1482	3.2
0.8177	293.15	1491.1	3.3
0.9095	293.15	1501	3.4
1	293.15	1512.1	3.4
0	303.15	1408.3	2.9
0.111	303.15	1409.8	2.9
0.2179	303.15	1413.7	3
0.3242	303.15	1418.1	3
0.4274	303.15	1423.5	3.1
0.5359	303.15	1431.6	3.1
0.6269	303.15	1436.5	3.2
0.7225	303.15	1445	3.2
0.8177	303.15	1453.7	3.3
0.9095	303.15	1463.3	3.3
1	303.15	1474.2	3.4
0	313.15	1374.5	2.9
0.111	313.15	1375.4	2.9
0.2179	313.15	1378.8	3
0.3242	313.15	1382.8	3
0.4274	313.15	1387.9	3.1
0.5359	313.15	1395.5	3.1
0.6269	313.15	1400	3.2
0.7225	313.15	1408.2	3.2
0.8177	313.15	1416.7	3.3
0.9095	313.15	1425.7	3.3
1	313.15	1436	3.4
0	323.15	1340.9	2.9
0.111	323.15	1341.1	2.9
0.2179	323.15	1344.1	3
0.3242	323.15	1347.7	3
0.4274	323.15	1352.5	3.1
0.5359	323.15	1359.8	3.1
0.6269	323.15	1364.2	3.2
0.7225	323.15	1372	3.2
0.8177	323.15	1380	3.3
0.9095	323.15	1388.8	3.3
1	323.15	1398.5	3.4

System: 2-(ethylamino)ethanol + 1-ethyl-2-pyrrolidinone; phases: Liquid
Fixed: Pressure, kPa = 100
Property: Viscosity, Pa*s (Liquid); method: CAPTUB:UFactor:4
Mole fraction of 1-ethyl-2-pyrrolidinone	Temperature, K	Viscosity, Pa*s	uncertainty
0	293.15	0.015281	0.000279
0.111	293.15	0.010345	0.000208
0.2179	293.15	0.007447	0.000157
0.3242	293.15	0.005665	0.000127
0.4274	293.15	0.004571	0.000106
0.5359	293.15	0.003849	9.1e-05
0.6269	293.15	0.003126	7.5e-05
0.7225	293.15	0.002717	6.6e-05
0.8177	293.15	0.002458	6e-05
0.9095	293.15	0.002261	5.6e-05
1	293.15	0.002117	5.3e-05
0	303.15	0.00959	0.000186
0.111	303.15	0.006874	0.000146
0.2179	303.15	0.005212	0.000118
0.3242	303.15	0.004093	9.5e-05
0.4274	303.15	0.003257	7.7e-05
0.5359	303.15	0.002917	6.9e-05
0.6269	303.15	0.002458	5.9e-05
0.7225	303.15	0.002205	5.4e-05
0.8177	303.15	0.002013	5e-05
0.9095	303.15	0.001891	4.7e-05
1	303.15	0.001771	4.5e-05
0	313.15	0.006406	0.000134
0.111	313.15	0.004824	0.00011
0.2179	313.15	0.00379	8.8e-05
0.3242	313.15	0.003092	7.3e-05
0.4274	313.15	0.002609	6.2e-05
0.5359	313.15	0.002311	5.6e-05
0.6269	313.15	0.001979	4.8e-05
0.7225	313.15	0.001834	4.5e-05
0.8177	313.15	0.001684	4.2e-05
0.9095	313.15	0.001578	4e-05
1	313.15	0.001518	3.9e-05
0	323.15	0.004527	0.000101
0.111	323.15	0.003563	8.2e-05
0.2179	323.15	0.002873	6.7e-05
0.3242	323.15	0.002399	5.7e-05
0.4274	323.15	0.002053	5e-05
0.5359	323.15	0.001833	4.5e-05
0.6269	323.15	0.001664	4.1e-05
0.7225	323.15	0.001547	3.9e-05
0.8177	323.15	0.001435	3.6e-05
0.9095	323.15	0.001367	3.5e-05
1	323.15	0.001299	3.4e-05
