Measured thermophysical data. Densities and Speeds of Sound of Glycine, l-Alanine, and l-Valine in Aqueous 1-Ethyl-3-methylimidazolium Chloride Solutions at Different Temperatures
Source: J. Chem. Eng. Data, 2015, 10.1021/je500324a
Compound 1: 1-ethyl-3-methylimidazolium chloride, C6H11ClN2, InChI=1S/C6H11N2.ClH/c1-3-8-5-4-7(2)6-8;/h4-6H,3H2,1-2H3;1H/q+1;/p-1, purity 97%
Compound 2: 2-aminoacetic acid, C2H5NO2, InChI=1S/C2H5NO2/c3-1-2(4)5/h1,3H2,(H,4,5), purity 99%
Compound 3: (S)-2-aminopropanoic acid, C3H7NO2, InChI=1S/C3H7NO2/c1-2(4)3(5)6/h2H,4H2,1H3,(H,5,6)/t2-/m0/s1, purity 99%
Compound 4: L-valine, C5H11NO2, InChI=1S/C5H11NO2/c1-3(2)4(6)5(7)8/h3-4H,6H2,1-2H3,(H,7,8)/t4-/m0/s1, purity 99%
Compound 5: water, H2O, InChI=1S/H2O/h1H2

System: 2-aminoacetic acid + water + 1-ethyl-3-methylimidazolium chloride; phases: Liquid
Fixed: Pressure, kPa = 101
Property: Mass density, kg/m3 (Liquid); method: Vibrating tube method
Temperature, K	Solvent: Molality, mol/kg of 1-ethyl-3-methylimidazolium chloride	Molality, mol/kg of 2-aminoacetic acid	Mass density, kg/m3	uncertainty
288.15	0.0981	0.0684	1003.954	4.374
288.15	0.0981	0.1185	1005.522	4.382
288.15	0.0981	0.2441	1009.478	4.403
288.15	0.0981	0.3745	1013.624	4.424
288.15	0.0981	0.4407	1015.75	4.435
288.15	0.0981	0.5737	1020.05	4.458
288.15	0.0981	0.6604	1022.88	4.472
288.15	0.0981	0.7894	1027.12	4.494
288.15	0.0981	0.9189	1031.44	4.517
293.15	0.0981	0.0684	1002.98	4.369
293.15	0.0981	0.1185	1004.53	4.377
293.15	0.0981	0.2441	1008.435	4.397
293.15	0.0981	0.3745	1012.53	4.419
293.15	0.0981	0.4407	1014.64	4.43
293.15	0.0981	0.5737	1018.89	4.452
293.15	0.0981	0.6604	1021.7	4.466
293.15	0.0981	0.7894	1025.9	4.488
293.15	0.0981	0.9189	1030.14	4.51
298.15	0.0981	0.0684	1001.75	4.363
298.15	0.0981	0.1185	1003.275	4.371
298.15	0.0981	0.2441	1007.135	4.391
298.15	0.0981	0.3745	1011.19	4.412
298.15	0.0981	0.4407	1013.265	4.422
298.15	0.0981	0.5737	1017.48	4.444
298.15	0.0981	0.6604	1020.25	4.459
298.15	0.0981	0.7894	1024.43	4.48
298.15	0.0981	0.9189	1028.65	4.502
303.15	0.0981	0.0684	1000.3	4.355
303.15	0.0981	0.1185	1001.82	4.363
303.15	0.0981	0.2441	1005.65	4.383
303.15	0.0981	0.3745	1009.68	4.404
303.15	0.0981	0.4407	1011.74	4.415
303.15	0.0981	0.5737	1015.92	4.436
303.15	0.0981	0.6604	1018.675	4.451
303.15	0.0981	0.7894	1022.8	4.472
303.15	0.0981	0.9189	1026.99	4.494
308.15	0.0981	0.0684	998.624	4.347
308.15	0.0981	0.1185	1000.122	4.355
308.15	0.0981	0.2441	1003.91	4.374
308.15	0.0981	0.3745	1007.9	4.395
308.15	0.0981	0.4407	1009.94	4.405
308.15	0.0981	0.5737	1014.09	4.427
308.15	0.0981	0.6604	1016.81	4.441
308.15	0.0981	0.7894	1020.925	4.462
308.15	0.0981	0.9189	1025.1	4.484
288.15	0.3003	0.0663	1007.19	4.391
288.15	0.3003	0.1303	1009.444	4.403
288.15	0.3003	0.2556	1013.72	4.425
288.15	0.3003	0.3705	1017.47	4.444
288.15	0.3003	0.457	1020.199	4.458
288.15	0.3003	0.6063	1024.69	4.482
288.15	0.3003	0.6424	1025.73	4.487
288.15	0.3003	0.7973	1030.095	4.51
288.15	0.3003	0.8314	1031.029	4.515
293.15	0.3003	0.0663	1006.145	4.386
293.15	0.3003	0.1303	1008.37	4.397
293.15	0.3003	0.2556	1012.61	4.419
293.15	0.3003	0.3705	1016.32	4.438
293.15	0.3003	0.457	1019	4.452
293.15	0.3003	0.6063	1023.48	4.475
293.15	0.3003	0.6424	1024.49	4.481
293.15	0.3003	0.7973	1028.8	4.503
293.15	0.3003	0.8314	1029.69	4.508
298.15	0.3003	0.0663	1004.83	4.379
298.15	0.3003	0.1303	1007.02	4.39
298.15	0.3003	0.2556	1011.19	4.412
298.15	0.3003	0.3705	1014.84	4.431
298.15	0.3003	0.457	1017.5	4.444
298.15	0.3003	0.6063	1021.9	4.467
298.15	0.3003	0.6424	1022.935	4.473
298.15	0.3003	0.7973	1027.15	4.495
298.15	0.3003	0.8314	1028.08	4.499
303.15	0.3003	0.0663	1003.31	4.371
303.15	0.3003	0.1303	1005.48	4.382
303.15	0.3003	0.2556	1009.6	4.403
303.15	0.3003	0.3705	1013.22	4.422
303.15	0.3003	0.457	1015.84	4.436
303.15	0.3003	0.6063	1020.19	4.458
303.15	0.3003	0.6424	1021.2	4.464
303.15	0.3003	0.7973	1025.37	4.485
303.15	0.3003	0.8314	1026.29	4.49
308.15	0.3003	0.0663	1001.575	4.362
308.15	0.3003	0.1303	1003.72	4.373
308.15	0.3003	0.2556	1007.78	4.394
308.15	0.3003	0.3705	1011.357	4.413
308.15	0.3003	0.457	1013.95	4.426
308.15	0.3003	0.6063	1018.23	4.448
308.15	0.3003	0.6424	1019.22	4.453
308.15	0.3003	0.7973	1023.35	4.475
308.15	0.3003	0.8314	1024.26	4.479

System: 2-aminoacetic acid + water + 1-ethyl-3-methylimidazolium chloride; phases: Liquid
Fixed: Pressure, kPa = 101
Property: Speed of sound, m/s (Liquid); method: Sing-around technique in a fixed-path interferometer
Temperature, K	Solvent: Molality, mol/kg of 1-ethyl-3-methylimidazolium chloride	Molality, mol/kg of 2-aminoacetic acid	Speed of sound, m/s	uncertainty
288.15	0.0981	0.0684	1482.09	4.29
288.15	0.0981	0.1185	1485.45	4.3
288.15	0.0981	0.2441	1492.08	4.3
288.15	0.0981	0.3745	1499.2	4.3
288.15	0.0981	0.4407	1502.95	4.3
288.15	0.0981	0.5737	1507.69	4.3
288.15	0.0981	0.6604	1514.96	4.3
288.15	0.0981	0.7894	1522.95	4.3
288.15	0.0981	0.9189	1529.71	4.3
293.15	0.0981	0.0684	1497.35	4.3
293.15	0.0981	0.1185	1500.47	4.3
293.15	0.0981	0.2441	1507.13	4.3
293.15	0.0981	0.3745	1513.66	4.3
293.15	0.0981	0.4407	1517.65	4.3
293.15	0.0981	0.5737	1524.77	4.3
293.15	0.0981	0.6604	1529.14	4.3
293.15	0.0981	0.7894	1536.94	4.3
293.15	0.0981	0.9189	1543.24	4.3
298.15	0.0981	0.0684	1510.78	4.3
298.15	0.0981	0.1185	1513.71	4.3
298.15	0.0981	0.2441	1520.28	4.3
298.15	0.0981	0.3745	1526.54	4.3
298.15	0.0981	0.4407	1530.39	4.3
298.15	0.0981	0.5737	1537.27	4.3
298.15	0.0981	0.6604	1541.6	4.3
298.15	0.0981	0.7894	1549.15	4.3
298.15	0.0981	0.9189	1555.21	4.3
303.15	0.0981	0.0684	1520.12	4.3
303.15	0.0981	0.1185	1523.16	4.3
303.15	0.0981	0.2441	1531.04	4.3
303.15	0.0981	0.3745	1537.36	4.3
303.15	0.0981	0.4407	1541.21	4.3
303.15	0.0981	0.5737	1546.99	4.3
303.15	0.0981	0.6604	1551.23	4.3
303.15	0.0981	0.7894	1559.34	4.3
303.15	0.0981	0.9189	1564.34	4.3
308.15	0.0981	0.0684	1532.85	4.3
308.15	0.0981	0.1185	1535.16	4.3
308.15	0.0981	0.2441	1541.04	4.3
308.15	0.0981	0.3745	1547.36	4.3
308.15	0.0981	0.4407	1551.3	4.3
308.15	0.0981	0.5737	1557.46	4.3
308.15	0.0981	0.6604	1561.68	4.3
308.15	0.0981	0.7894	1569.22	4.3
308.15	0.0981	0.9189	1574.5	4.3
288.15	0.3003	0.0663	1508.53	4.3
288.15	0.3003	0.1303	1512.57	4.3
288.15	0.3003	0.2556	1518.71	4.3
288.15	0.3003	0.3705	1525.53	4.3
288.15	0.3003	0.457	1529.33	4.3
288.15	0.3003	0.6063	1538.19	4.3
288.15	0.3003	0.6424	1539.33	4.3
288.15	0.3003	0.7973	1548.34	4.3
288.15	0.3003	0.8314	1550.55	4.3
293.15	0.3003	0.0663	1522.12	4.3
293.15	0.3003	0.1303	1526.09	4.3
293.15	0.3003	0.2556	1531.96	4.3
293.15	0.3003	0.3705	1538.63	4.3
293.15	0.3003	0.457	1542.3	4.3
293.15	0.3003	0.6063	1550.55	4.3
293.15	0.3003	0.6424	1552.53	4.3
293.15	0.3003	0.7973	1560.69	4.3
293.15	0.3003	0.8314	1562.57	4.3
298.15	0.3003	0.0663	1533.96	4.3
298.15	0.3003	0.1303	1537.94	4.3
298.15	0.3003	0.2556	1543.57	4.3
298.15	0.3003	0.3705	1550.07	4.3
298.15	0.3003	0.457	1553.59	4.3
298.15	0.3003	0.6063	1561.55	4.3
298.15	0.3003	0.6424	1563.53	4.3
298.15	0.3003	0.7973	1571.42	4.3
298.15	0.3003	0.8314	1573.25	4.3
303.15	0.3003	0.0663	1544.2	4.3
303.15	0.3003	0.1303	1548.14	4.3
303.15	0.3003	0.2556	1553.51	4.3
303.15	0.3003	0.3705	1559.89	4.3
303.15	0.3003	0.457	1563.27	4.3
303.15	0.3003	0.6063	1571.05	4.3
303.15	0.3003	0.6424	1573.04	4.3
303.15	0.3003	0.7973	1580.6	4.3
303.15	0.3003	0.8314	1582.45	4.3
308.15	0.3003	0.0663	1553.23	4.3
308.15	0.3003	0.1303	1556.54	4.3
308.15	0.3003	0.2556	1561.83	4.3
308.15	0.3003	0.3705	1568.03	4.3
308.15	0.3003	0.457	1571.63	4.3
308.15	0.3003	0.6063	1579.13	4.3
308.15	0.3003	0.6424	1581.09	4.3
308.15	0.3003	0.7973	1588.18	4.3
308.15	0.3003	0.8314	1590.27	4.3

System: (S)-2-aminopropanoic acid + water + 1-ethyl-3-methylimidazolium chloride; phases: Liquid
Fixed: Pressure, kPa = 101
Property: Mass density, kg/m3 (Liquid); method: Vibrating tube method
Temperature, K	Solvent: Molality, mol/kg of 1-ethyl-3-methylimidazolium chloride	Molality, mol/kg of (S)-2-aminopropanoic acid	Mass density, kg/m3	uncertainty
288.15	0.0981	0.0505	1003.196	4.37
288.15	0.0981	0.1005	1004.564	4.377
288.15	0.0981	0.2143	1007.731	4.394
288.15	0.0981	0.2981	1010.11	4.406
288.15	0.0981	0.5017	1016.07	4.437
288.15	0.0981	0.6146	1019.43	4.454
288.15	0.0981	0.6768	1021.33	4.464
288.15	0.0981	0.8087	1025.42	4.486
288.15	0.0981	0.9612	1030.22	4.511
293.15	0.0981	0.0505	1002.22	4.365
293.15	0.0981	0.1005	1003.566	4.372
293.15	0.0981	0.2143	1006.679	4.388
293.15	0.0981	0.2981	1009.03	4.401
293.15	0.0981	0.5017	1014.91	4.431
293.15	0.0981	0.6146	1018.26	4.448
293.15	0.0981	0.6768	1020.14	4.458
293.15	0.0981	0.8087	1024.144	4.479
293.15	0.0981	0.9612	1028.91	4.504
298.15	0.0981	0.0505	1000.995	4.359
298.15	0.0981	0.1005	1002.31	4.366
298.15	0.0981	0.2143	1005.381	4.382
298.15	0.0981	0.2981	1007.68	4.394
298.15	0.0981	0.5017	1013.47	4.423
298.15	0.0981	0.6146	1016.78	4.441
298.15	0.0981	0.6768	1018.65	4.45
298.15	0.0981	0.8087	1022.67	4.471
298.15	0.0981	0.9612	1027.38	4.496
303.15	0.0981	0.0505	999.54	4.352
303.15	0.0981	0.1005	1000.84	4.358
303.15	0.0981	0.2143	1003.87	4.374
303.15	0.0981	0.2981	1006.15	4.386
303.15	0.0981	0.5017	1011.85	4.415
303.15	0.0981	0.6146	1015.15	4.432
303.15	0.0981	0.6768	1016.98	4.442
303.15	0.0981	0.8087	1020.95	4.462
303.15	0.0981	0.9612	1025.628	4.487
308.15	0.0981	0.0505	997.874	4.344
308.15	0.0981	0.1005	999.16	4.35
308.15	0.0981	0.2143	1002.14	4.365
308.15	0.0981	0.2981	1004.4	4.377
308.15	0.0981	0.5017	1010.07	4.406
308.15	0.0981	0.6146	1013.32	4.423
308.15	0.0981	0.6768	1015.13	4.432
308.15	0.0981	0.8087	1019.1	4.453
308.15	0.0981	0.9612	1023.74	4.477
288.15	0.3003	0.0666	1006.886	4.389
288.15	0.3003	0.1231	1008.64	4.399
288.15	0.3003	0.2619	1012.885	4.42
288.15	0.3003	0.3674	1016.055	4.437
288.15	0.3003	0.454	1018.62	4.45
288.15	0.3003	0.5795	1022.285	4.469
288.15	0.3003	0.6228	1023.54	4.476
288.15	0.3003	0.7706	1027.736	4.498
288.15	0.3003	0.8437	1029.8	4.508
293.15	0.3003	0.0666	1005.845	4.384
293.15	0.3003	0.1231	1007.584	4.393
293.15	0.3003	0.2619	1011.79	4.415
293.15	0.3003	0.3674	1014.93	4.431
293.15	0.3003	0.454	1017.46	4.444
293.15	0.3003	0.5795	1021.07	4.463
293.15	0.3003	0.6228	1022.299	4.469
293.15	0.3003	0.7706	1026.43	4.491
293.15	0.3003	0.8437	1028.46	4.501
298.15	0.3003	0.0666	1004.55	4.377
298.15	0.3003	0.1231	1006.27	4.386
298.15	0.3003	0.2619	1010.43	4.408
298.15	0.3003	0.3674	1013.53	4.424
298.15	0.3003	0.454	1016.03	4.437
298.15	0.3003	0.5795	1019.594	4.455
298.15	0.3003	0.6228	1020.81	4.462
298.15	0.3003	0.7706	1024.9	4.483
298.15	0.3003	0.8437	1026.89	4.493
303.15	0.3003	0.0666	1003.043	4.37
303.15	0.3003	0.1231	1004.753	4.378
303.15	0.3003	0.2619	1008.884	4.4
303.15	0.3003	0.3674	1011.96	4.416
303.15	0.3003	0.454	1014.435	4.428
303.15	0.3003	0.5795	1017.97	4.447
303.15	0.3003	0.6228	1019.17	4.453
303.15	0.3003	0.7706	1023.21	4.474
303.15	0.3003	0.8437	1025.18	4.484
308.15	0.3003	0.0666	1001.33	4.361
308.15	0.3003	0.1231	1003.028	4.37
308.15	0.3003	0.2619	1007.122	4.391
308.15	0.3003	0.3674	1010.162	4.406
308.15	0.3003	0.454	1012.613	4.419
308.15	0.3003	0.5795	1016.1	4.437
308.15	0.3003	0.6228	1017.292	4.443
308.15	0.3003	0.7706	1021.26	4.464
308.15	0.3003	0.8437	1023.2	4.474

System: (S)-2-aminopropanoic acid + water + 1-ethyl-3-methylimidazolium chloride; phases: Liquid
Fixed: Pressure, kPa = 101
Property: Speed of sound, m/s (Liquid); method: Sing-around technique in a fixed-path interferometer
Temperature, K	Solvent: Molality, mol/kg of 1-ethyl-3-methylimidazolium chloride	Molality, mol/kg of (S)-2-aminopropanoic acid	Speed of sound, m/s	uncertainty
288.15	0.0981	0.0505	1481.68	4.29
288.15	0.0981	0.1005	1485.3	4.3
288.15	0.0981	0.2143	1492.88	4.3
288.15	0.0981	0.2981	1499.16	4.3
288.15	0.0981	0.5017	1513.53	4.3
288.15	0.0981	0.6146	1522.05	4.3
288.15	0.0981	0.6768	1526.79	4.3
288.15	0.0981	0.8087	1535.93	4.3
288.15	0.0981	0.9612	1545	4.3
293.15	0.0981	0.0505	1496.94	4.3
293.15	0.0981	0.1005	1500.48	4.3
293.15	0.0981	0.2143	1507.73	4.3
293.15	0.0981	0.2981	1513.82	4.3
293.15	0.0981	0.5017	1527.57	4.3
293.15	0.0981	0.6146	1535.8	4.3
293.15	0.0981	0.6768	1540.12	4.3
293.15	0.0981	0.8087	1549.13	4.3
293.15	0.0981	0.9612	1557.39	4.3
298.15	0.0981	0.0505	1510.28	4.3
298.15	0.0981	0.1005	1513.79	4.3
298.15	0.0981	0.2143	1520.75	4.3
298.15	0.0981	0.2981	1526.61	4.3
298.15	0.0981	0.5017	1539.89	4.3
298.15	0.0981	0.6146	1547.79	4.3
298.15	0.0981	0.6768	1551.91	4.3
298.15	0.0981	0.8087	1560.63	4.3
298.15	0.0981	0.9612	1569.61	4.3
303.15	0.0981	0.0505	1521.89	4.3
303.15	0.0981	0.1005	1525.26	4.3
303.15	0.0981	0.2143	1532.06	4.3
303.15	0.0981	0.2981	1537.74	4.3
303.15	0.0981	0.5017	1550.56	4.3
303.15	0.0981	0.6146	1558.04	4.3
303.15	0.0981	0.6768	1562.11	4.3
303.15	0.0981	0.8087	1570.53	4.3
303.15	0.0981	0.9612	1579.61	4.3
308.15	0.0981	0.0505	1531.86	4.3
308.15	0.0981	0.1005	1535.39	4.3
308.15	0.0981	0.2143	1541.76	4.3
308.15	0.0981	0.2981	1547.06	4.3
308.15	0.0981	0.5017	1559.64	4.3
308.15	0.0981	0.6146	1567.39	4.3
308.15	0.0981	0.6768	1570.81	4.3
308.15	0.0981	0.8087	1578.76	4.3
308.15	0.0981	0.9612	1589.64	4.3
288.15	0.3003	0.0666	1509.47	4.3
288.15	0.3003	0.1231	1513.35	4.3
288.15	0.3003	0.2619	1522.85	4.3
288.15	0.3003	0.3674	1530.4	4.3
288.15	0.3003	0.454	1536.75	4.3
288.15	0.3003	0.5795	1545.06	4.3
288.15	0.3003	0.6228	1548.12	4.3
288.15	0.3003	0.7706	1558.67	4.3
288.15	0.3003	0.8437	1563.7	4.3
293.15	0.3003	0.0666	1523.02	4.3
293.15	0.3003	0.1231	1526.72	4.3
293.15	0.3003	0.2619	1535.9	4.3
293.15	0.3003	0.3674	1543.17	4.3
293.15	0.3003	0.454	1548.9	4.3
293.15	0.3003	0.5795	1557.21	4.3
293.15	0.3003	0.6228	1560.22	4.3
293.15	0.3003	0.7706	1570.31	4.3
293.15	0.3003	0.8437	1575.17	4.3
298.15	0.3003	0.0666	1534.82	4.3
298.15	0.3003	0.1231	1538.42	4.3
298.15	0.3003	0.2619	1547.26	4.3
298.15	0.3003	0.3674	1554.28	4.3
298.15	0.3003	0.454	1559.78	4.3
298.15	0.3003	0.5795	1567.8	4.3
298.15	0.3003	0.6228	1570.65	4.3
298.15	0.3003	0.7706	1580.43	4.3
298.15	0.3003	0.8437	1585.11	4.3
303.15	0.3003	0.0666	1542	4.3
303.15	0.3003	0.1231	1546	4.3
303.15	0.3003	0.2619	1555.06	4.3
303.15	0.3003	0.3674	1561.6	4.3
303.15	0.3003	0.454	1567.12	4.3
303.15	0.3003	0.5795	1575.07	4.3
303.15	0.3003	0.6228	1577.98	4.3
303.15	0.3003	0.7706	1587.11	4.3
303.15	0.3003	0.8437	1592.01	4.3
308.15	0.3003	0.0666	1551.04	4.3
308.15	0.3003	0.1231	1555.12	4.3
308.15	0.3003	0.2619	1563	4.3
308.15	0.3003	0.3674	1570	4.3
308.15	0.3003	0.454	1575.66	4.3
308.15	0.3003	0.5795	1584.05	4.3
308.15	0.3003	0.6228	1586.81	4.3
308.15	0.3003	0.7706	1595.76	4.3
308.15	0.3003	0.8437	1600.55	4.3

System: L-valine + water + 1-ethyl-3-methylimidazolium chloride; phases: Liquid
Fixed: Pressure, kPa = 101
Property: Mass density, kg/m3 (Liquid); method: Vibrating tube method
Temperature, K	Solvent: Molality, mol/kg of 1-ethyl-3-methylimidazolium chloride	Molality, mol/kg of L-valine	Mass density, kg/m3	uncertainty
288.15	0.0981	0.0552	1003.18	4.37
288.15	0.0981	0.0643	1003.406	4.371
288.15	0.0981	0.0951	1004.187	4.375
288.15	0.0981	0.1329	1005.16	4.38
288.15	0.0981	0.1742	1006.25	4.386
288.15	0.0981	0.2715	1008.905	4.4
288.15	0.0981	0.3658	1011.6	4.414
288.15	0.0981	0.4432	1013.9	4.426
293.15	0.0981	0.0552	1002.21	4.365
293.15	0.0981	0.0643	1002.435	4.366
293.15	0.0981	0.0951	1003.201	4.37
293.15	0.0981	0.1329	1004.17	4.375
293.15	0.0981	0.1742	1005.24	4.381
293.15	0.0981	0.2715	1007.88	4.395
293.15	0.0981	0.3658	1010.56	4.408
293.15	0.0981	0.4432	1012.82	4.42
298.15	0.0981	0.0552	1000.97	4.359
298.15	0.0981	0.0643	1001.185	4.36
298.15	0.0981	0.0951	1001.93	4.364
298.15	0.0981	0.1329	1002.875	4.369
298.15	0.0981	0.1742	1003.925	4.374
298.15	0.0981	0.2715	1006.52	4.388
298.15	0.0981	0.3658	1009.193	4.401
298.15	0.0981	0.4432	1011.49	4.413
303.15	0.0981	0.0552	999.514	4.352
303.15	0.0981	0.0643	999.73	4.353
303.15	0.0981	0.0951	1000.47	4.356
303.15	0.0981	0.1329	1001.4	4.361
303.15	0.0981	0.1742	1002.44	4.366
303.15	0.0981	0.2715	1005.01	4.38
303.15	0.0981	0.3658	1007.64	4.393
303.15	0.0981	0.4432	1009.92	4.405
308.15	0.0981	0.0552	997.832	4.343
308.15	0.0981	0.0643	998.043	4.344
308.15	0.0981	0.0951	998.765	4.348
308.15	0.0981	0.1329	999.68	4.352
308.15	0.0981	0.1742	1000.71	4.358
308.15	0.0981	0.2715	1003.255	4.371
308.15	0.0981	0.3658	1005.88	4.384
308.15	0.0981	0.4432	1008.121	4.396
288.15	0.3003	0.0378	1006.059	4.385
288.15	0.3003	0.0627	1006.865	4.389
288.15	0.3003	0.0959	1007.903	4.395
288.15	0.3003	0.1272	1008.847	4.4
288.15	0.3003	0.1641	1009.962	4.405
288.15	0.3003	0.2166	1011.502	4.413
288.15	0.3003	0.362	1015.412	4.434
288.15	0.3003	0.442	1017.492	4.444
293.15	0.3003	0.0378	1004.985	4.38
293.15	0.3003	0.0627	1005.758	4.384
293.15	0.3003	0.0959	1006.758	4.389
293.15	0.3003	0.1272	1007.675	4.394
293.15	0.3003	0.1641	1008.733	4.399
293.15	0.3003	0.2166	1010.215	4.407
293.15	0.3003	0.362	1014.05	4.426
293.15	0.3003	0.442	1016.05	4.437
298.15	0.3003	0.0378	1003.643	4.373
298.15	0.3003	0.0627	1004.382	4.377
298.15	0.3003	0.0959	1005.324	4.381
298.15	0.3003	0.1272	1006.207	4.386
298.15	0.3003	0.1641	1007.207	4.391
298.15	0.3003	0.2166	1008.632	4.398
298.15	0.3003	0.362	1012.412	4.418
298.15	0.3003	0.442	1014.492	4.429
303.15	0.3003	0.0378	1002.123	4.365
303.15	0.3003	0.0627	1002.843	4.369
303.15	0.3003	0.0959	1003.783	4.373
303.15	0.3003	0.1272	1004.644	4.378
303.15	0.3003	0.1641	1005.621	4.383
303.15	0.3003	0.2166	1006.988	4.39
303.15	0.3003	0.362	1010.774	4.41
303.15	0.3003	0.442	1012.884	4.42
308.15	0.3003	0.0378	1000.399	4.356
308.15	0.3003	0.0627	1001.113	4.36
308.15	0.3003	0.0959	1002.025	4.364
308.15	0.3003	0.1272	1002.864	4.369
308.15	0.3003	0.1641	1003.841	4.374
308.15	0.3003	0.2166	1005.178	4.381
308.15	0.3003	0.362	1009.194	4.401
308.15	0.3003	0.442	1011.534	4.413

System: L-valine + water + 1-ethyl-3-methylimidazolium chloride; phases: Liquid
Fixed: Pressure, kPa = 101
Property: Speed of sound, m/s (Liquid); method: Sing-around technique in a fixed-path interferometer
Temperature, K	Solvent: Molality, mol/kg of 1-ethyl-3-methylimidazolium chloride	Molality, mol/kg of L-valine	Speed of sound, m/s	uncertainty
288.15	0.3003	0.0378	1504.97	6.74
288.15	0.3003	0.0627	1507.59	6.74
288.15	0.3003	0.0959	1511.08	6.74
288.15	0.3003	0.1272	1514.37	6.74
288.15	0.3003	0.1641	1518.25	6.74
288.15	0.3003	0.2166	1523.76	6.74
288.15	0.3003	0.362	1539.05	6.74
288.15	0.3003	0.442	1547.45	6.74
293.15	0.3003	0.0378	1523.86	6.74
293.15	0.3003	0.0627	1526.4	6.74
293.15	0.3003	0.0959	1529.79	6.74
293.15	0.3003	0.1272	1532.99	6.74
293.15	0.3003	0.1641	1536.75	6.74
293.15	0.3003	0.2166	1542.11	6.74
293.15	0.3003	0.362	1556.96	6.74
293.15	0.3003	0.442	1565.13	6.74
298.15	0.3003	0.0378	1533.6	6.74
298.15	0.3003	0.0627	1535.97	6.74
298.15	0.3003	0.0959	1539.13	6.74
298.15	0.3003	0.1272	1542.11	6.74
298.15	0.3003	0.1641	1545.62	6.74
298.15	0.3003	0.2166	1550.62	6.74
298.15	0.3003	0.362	1564.46	6.74
298.15	0.3003	0.442	1572.08	6.74
303.15	0.3003	0.0378	1543.47	6.74
303.15	0.3003	0.0627	1545.75	6.74
303.15	0.3003	0.0959	1548.8	6.74
303.15	0.3003	0.1272	1551.67	6.74
303.15	0.3003	0.1641	1555.05	6.74
303.15	0.3003	0.2166	1559.87	6.74
303.15	0.3003	0.362	1573.21	6.74
303.15	0.3003	0.442	1580.54	6.74
308.15	0.3003	0.0378	1555.13	6.74
308.15	0.3003	0.0627	1557.2	6.74
308.15	0.3003	0.0959	1559.95	6.74
308.15	0.3003	0.1272	1562.55	6.74
308.15	0.3003	0.1641	1565.61	6.74
308.15	0.3003	0.2166	1569.96	6.74
308.15	0.3003	0.362	1582.02	6.74
308.15	0.3003	0.442	1588.65	6.75
288.15	0.0981	0.0552	1484.02	6.74
288.15	0.0981	0.0643	1484.8	6.74
288.15	0.0981	0.0951	1488.55	6.74
288.15	0.0981	0.1329	1492.42	6.74
288.15	0.0981	0.1742	1497	6.74
288.15	0.0981	0.2715	1507.43	6.74
288.15	0.0981	0.3658	1518.05	6.74
288.15	0.0981	0.4432	1525.92	6.74
293.15	0.0981	0.0552	1499.11	6.74
293.15	0.0981	0.0643	1500.01	6.74
293.15	0.0981	0.0951	1503	6.74
293.15	0.0981	0.1329	1507.15	6.74
293.15	0.0981	0.1742	1511	6.74
293.15	0.0981	0.2715	1521.45	6.74
293.15	0.0981	0.3658	1531.56	6.74
293.15	0.0981	0.4432	1539.06	6.74
298.15	0.0981	0.0552	1512.03	6.74
298.15	0.0981	0.0643	1512.88	6.74
298.15	0.0981	0.0951	1516	6.74
298.15	0.0981	0.1329	1520.04	6.74
298.15	0.0981	0.1742	1524	6.74
298.15	0.0981	0.2715	1533.69	6.74
298.15	0.0981	0.3658	1543.37	6.74
298.15	0.0981	0.4432	1550.55	6.74
303.15	0.0981	0.0552	1523	6.74
303.15	0.0981	0.0643	1524.03	6.74
303.15	0.0981	0.0951	1527.01	6.74
303.15	0.0981	0.1329	1530.8	6.74
303.15	0.0981	0.1742	1534.5	6.74
303.15	0.0981	0.2715	1544.23	6.74
303.15	0.0981	0.3658	1553.44	6.74
303.15	0.0981	0.4432	1560.31	6.74
308.15	0.0981	0.0552	1533.49	6.74
308.15	0.0981	0.0643	1534	6.74
308.15	0.0981	0.0951	1537.02	6.74
308.15	0.0981	0.1329	1540.7	6.74
308.15	0.0981	0.1742	1544.5	6.74
308.15	0.0981	0.2715	1553.08	6.74
308.15	0.0981	0.3658	1561.85	6.74
308.15	0.0981	0.4432	1568.45	6.74
