Measured thermophysical data. Solid Liquid Equilibrium and Phase Diagram for the Ternary Succinic Acid + Glutaric Acid + Water System
Source: J. Chem. Eng. Data, 2014, 10.1021/je5003785
Compound 1: 1,6-hexanedioic acid, C6H10O4, InChI=1S/C6H10O4/c7-5(8)3-1-2-4-6(9)10/h1-4H2,(H,7,8)(H,9,10)
Compound 2: water, H2O, InChI=1S/H2O/h1H2
Compound 3: butanedioic acid, C4H6O4, InChI=1S/C4H6O4/c5-3(6)1-2-4(7)8/h1-2H2,(H,5,6)(H,7,8)
Compound 4: 1,5-pentanedioic acid, C5H8O4, InChI=1S/C5H8O4/c6-4(7)2-1-3-5(8)9/h1-3H2,(H,6,7)(H,8,9)

System: 1,6-hexanedioic acid + water; phases: Liquid, Crystal
Fixed: Pressure, kPa = 100
Property: Mole fraction of 1,6-hexanedioic acid (Liquid); method: Chromatography
Temperature, K	Mole fraction of 1,6-hexanedioic acid	uncertainty
273.15	0.00086	3e-05
283.15	0.00141	6e-05
293.15	0.00225	9e-05
303.15	0.00376	0.00015
313.15	0.00626	0.00025
333.15	0.02077	0.00083

System: butanedioic acid + 1,5-pentanedioic acid + water; phases: Liquid, Crystal
Fixed: Pressure, kPa = 100
Property: Mass fraction of butanedioic acid (Liquid); method: Chromatography
Temperature, K	Mass fraction of 1,5-pentanedioic acid	Mass fraction of butanedioic acid	uncertainty
298.15	0.5937	0	
298.15	0.5859	0.006	0.006
298.15	0.5733	0.0155	0.0155
298.15	0.5607	0.0292	0.0191
298.15	0.5426	0.0419	0.0153
303.15	0.6444	0	
303.15	0.6291	0.011	0.011
303.15	0.6135	0.024	0.0184
303.15	0.5952	0.0364	0.0172
303.15	0.5828	0.0462	0.0185
308.15	0.6917	0	
308.15	0.6709	0.0138	0.0138
308.15	0.6513	0.0274	0.0174
308.15	0.6335	0.0387	0.0175
308.15	0.6209	0.0484	0.0192

System: butanedioic acid + 1,5-pentanedioic acid + water; phases: Liquid, Crystal
Fixed: Pressure, kPa = 100
Property: Mass fraction of butanedioic acid (Liquid); method: Chromatography
Temperature, K	Mass fraction of 1,5-pentanedioic acid	Mass fraction of butanedioic acid	uncertainty
298.15	0.4921	0.0572	0.0025
298.15	0.4365	0.0603	0.0026
298.15	0.4092	0.0619	0.0025
298.15	0.3755	0.0624	0.0025
298.15	0.3331	0.0633	0.0026
298.15	0.2763	0.0652	0.0027
298.15	0.2239	0.0686	0.0028
298.15	0.1537	0.074	0.003
298.15	0.0846	0.0782	0.0031
298.15	0	0.0783	0.0031
303.15	0.5287	0.058	0.0031
303.15	0.4879	0.0616	0.0028
303.15	0.4399	0.0649	0.0027
303.15	0.3851	0.0669	0.0029
303.15	0.3501	0.0705	0.0031
303.15	0.3121	0.072	0.0029
303.15	0.265	0.0738	0.0031
303.15	0.2259	0.0763	0.0031
303.15	0.1588	0.0807	0.0032
303.15	0.0857	0.0835	0.0034
303.15	0	0.0914	0.0037
308.15	0.5653	0.0692	0.0038
308.15	0.5227	0.0741	0.0036
308.15	0.4964	0.076	0.0033
308.15	0.4441	0.0793	0.0034
308.15	0.3992	0.0819	0.0036
308.15	0.3677	0.087	0.0038
308.15	0.3456	0.0876	0.0037
308.15	0.303	0.0916	0.0038
308.15	0.231	0.0968	0.004
308.15	0.1624	0.1033	0.0042
308.15	0.0939	0.1077	0.0043
308.15	0	0.117	0.0047

System: butanedioic acid + 1,5-pentanedioic acid + water; phases: Liquid, Crystal, Crystal
Fixed: Pressure, kPa = 100
Property: Mass fraction of butanedioic acid (Liquid); method: Chromatography
Temperature, K	Mass fraction of butanedioic acid	uncertainty
298.15	0.0563	0.0023
303.15	0.0575	0.0023
308.15	0.0665	0.0027

System: butanedioic acid + 1,5-pentanedioic acid + water; phases: Liquid, Crystal, Crystal
Fixed: Pressure, kPa = 100
Property: Mass fraction of 1,5-pentanedioic acid (Liquid); method: Chromatography
Temperature, K	Mass fraction of 1,5-pentanedioic acid	uncertainty
298.15	0.5239	0.021
303.15	0.5655	0.0227
308.15	0.5932	0.0238

System: butanedioic acid + 1,5-pentanedioic acid + water; phases: Liquid, Crystal
Fixed: Pressure, kPa = 100
Property: Mass density, kg/m3 (Liquid); method: Pycnometric method
Temperature, K	Mass fraction of 1,5-pentanedioic acid	Mass density, kg/m3	uncertainty
298.15	0.5937	1167	29.7
298.15	0.5859	1176.7	20
298.15	0.5733	1184.7	20
298.15	0.5607	1198.4	16.4
298.15	0.5426	1207.4	11.1
303.15	0.6444	1210.5	8.2
303.15	0.6291	1215.3	8.8
303.15	0.6135	1221.2	9.1
303.15	0.5952	1227.8	7.2
303.15	0.5828	1229.1	3.8
308.15	0.6917	1221.2	9.6
308.15	0.6709	1228.3	6.5
308.15	0.6513	1230.8	7
308.15	0.6335	1238.2	8.5
308.15	0.6209	1240.7	5.1

System: butanedioic acid + 1,5-pentanedioic acid + water; phases: Liquid, Crystal
Fixed: Pressure, kPa = 100
Property: Mass density, kg/m3 (Liquid); method: Pycnometric method
Temperature, K	Mass fraction of 1,5-pentanedioic acid	Mass density, kg/m3	uncertainty
298.15	0.4921	1199.7	7.8
298.15	0.4365	1177.7	6.8
298.15	0.4092	1167.3	6.4
298.15	0.3755	1153.9	5.8
298.15	0.3331	1137.7	5
298.15	0.2763	1116.9	3.9
298.15	0.2239	1099.2	3
298.15	0.1537	1076.6	2
298.15	0.0846	1054.8	1.1
298.15	0	1027.4	0.4
303.15	0.5287	1216.1	8.2
303.15	0.4879	1200.2	7.8
303.15	0.4399	1181.5	6.9
303.15	0.3851	1160	5.8
303.15	0.3501	1147.8	5
303.15	0.3121	1133.6	4.7
303.15	0.265	1116.6	3.6
303.15	0.2259	1103.3	3.1
303.15	0.1588	1081.2	2.1
303.15	0.0857	1057.3	1.2
303.15	0	1032.5	0.5
308.15	0.5653	1238.8	8.8
308.15	0.5227	1222.2	8.3
308.15	0.4964	1211.5	8
308.15	0.4441	1190.7	7
308.15	0.3992	1173.2	5.9
308.15	0.3677	1162.9	5.3
308.15	0.3456	1153.8	5
308.15	0.303	1139.4	4.2
308.15	0.231	1114.4	3.2
308.15	0.1624	1092.3	2.2
308.15	0.0939	1070.1	1.4
308.15	0	1042.5	0.7

System: butanedioic acid + 1,5-pentanedioic acid + water; phases: Liquid, Crystal, Crystal
Fixed: Pressure, kPa = 100
Property: Mass density, kg/m3 (Liquid); method: Pycnometric method
Temperature, K	Mass density, kg/m3	uncertainty
298.15	1214.5	1.1
303.15	1233.3	1.1
308.15	1250.2	1

System: 1,5-pentanedioic acid + water; phases: Liquid, Crystal
Fixed: Pressure, kPa = 101
Property: Mass fraction of 1,5-pentanedioic acid (Liquid); method: Chromatography
Temperature, K	Mass fraction of 1,5-pentanedioic acid	uncertainty
298.15	0.5937	0.0238
303.15	0.6444	0.0258
308.15	0.6917	0.0277

System: butanedioic acid + water; phases: Liquid, Crystal
Fixed: Pressure, kPa = 100
Property: Mass fraction of butanedioic acid (Liquid); method: Chromatography
Temperature, K	Mass fraction of butanedioic acid	uncertainty
298.15	0.0783	0.0031
303.15	0.0914	0.0037
308.15	0.117	0.0047

System: butanedioic acid + water; phases: Liquid, Crystal
Fixed: Pressure, kPa = 100
Property: Mass density, kg/m3 (Liquid); method: Pycnometric method
Temperature, K	Mass density, kg/m3	uncertainty
298.15	1027.4	0.4
303.15	1032.5	0.5
308.15	1042.5	0.7
