Measured thermophysical data. Solubilities of n-Butyl Esters in Supercritical Carbon Dioxide
Source: J. Chem. Eng. Data, 2014, 10.1021/je500309x
Compound 1: butyl octadecanoate, C22H44O2, InChI=1S/C22H44O2/c1-3-5-7-8-9-10-11-12-13-14-15-16-17-18-19-20-22(23)24-21-6-4-2/h3-21H2,1-2H3, purity 95%
Compound 2: butyl dodecanoate, C16H32O2, InChI=1S/C16H32O2/c1-3-5-7-8-9-10-11-12-13-14-16(17)18-15-6-4-2/h3-15H2,1-2H3, purity 99%
Compound 3: carbon dioxide, CO2, InChI=1S/CO2/c2-1-3, purity 99%

System: butyl octadecanoate + carbon dioxide; phases: Gas, Liquid
Property: Mole fraction of butyl octadecanoate (Gas); method: Flow saturation technique
Temperature, K	Pressure, kPa	Mole fraction of butyl octadecanoate	uncertainty
308	10000	0.003	0.0006
308	12000	0.0046	0.0008
308	13000	0.0054	0.0009
308	14000	0.0055	0.0009
308	16000	0.006	0.001
313	10000	0.0013	0.0003
313	12000	0.0027	0.0006
313	13000	0.0046	0.0009
313	14000	0.005	0.0008
313	16000	0.0055	0.0009
318	10000	0.0005	0.0003
318	12000	0.0022	0.0005
318	13000	0.0028	0.0006
318	14000	0.0038	0.0007
318	16000	0.0051	0.0008
323	10000	0.0003	0.0001
323	12000	0.0007	0.0002
323	13000	0.0019	0.0004
323	14000	0.0021	0.0004
323	16000	0.0033	0.0006

System: butyl dodecanoate + carbon dioxide; phases: Gas, Liquid
Property: Mole fraction of butyl dodecanoate (Gas); method: Flow saturation technique
Temperature, K	Pressure, kPa	Mole fraction of butyl dodecanoate	uncertainty
313	10000	0.0158	0.0025
313	12000	0.0165	0.0027
313	13000	0.0194	0.0032
313	14000	0.02	0.0032
313	16000	0.023	0.0037
318	10000	0.0099	0.0017
318	12000	0.012	0.0021
318	13000	0.0159	0.0027
318	14000	0.0167	0.0027
318	16000	0.019	0.0031
323	10000	0.0025	0.0017
323	12000	0.013	0.0027
323	13000	0.0158	0.0026
323	14000	0.0161	0.0026
323	16000	0.0193	0.0031
328	10000	0.0013	0.0008
328	12000	0.0054	0.0016
328	13000	0.0115	0.0025
328	14000	0.0135	0.0023
328	16000	0.0182	0.003
