Measured thermophysical data. Experimental Measurements and Correlations of Excess Molar Enthalpies for the Binary and Ternary Mixtures of (Cyclohexane, 1,4-Dioxane and Piperidine) or (Cyclohexane, Morpholine and Piperidine) at 308.15 K and Atmospheric Pressure
Source: J. Chem. Eng. Data, 2014, 10.1021/je500088z
Compound 1: cyclohexane, C6H12, InChI=1S/C6H12/c1-2-4-6-5-3-1/h1-6H2, purity 99%
Compound 2: piperidine, C5H11N, InChI=1S/C5H11N/c1-2-4-6-5-3-1/h6H,1-5H2, purity 99%
Compound 3: tetrahydro-1,4-oxazine, C4H9NO, InChI=1S/C4H9NO/c1-3-6-4-2-5-1/h5H,1-4H2, purity 99%
Compound 4: 1,4-dioxane, C4H8O2, InChI=1S/C4H8O2/c1-2-6-4-3-5-1/h1-4H2, purity 99%

System: piperidine + tetrahydro-1,4-oxazine; phases: Liquid
Fixed: Pressure, kPa = 101
Fixed: Temperature, K = 308.15
Property: Excess molar enthalpy (molar enthalpy of mixing), kJ/mol (Liquid); method: Calvet calorimetry
Mole fraction of tetrahydro-1,4-oxazine	Excess molar enthalpy (molar enthalpy of mixing), kJ/mol	uncertainty
0.126	0.105	0.004
0.2	0.157	0.005
0.33	0.222	0.007
0.435	0.253	0.008
0.499	0.264	0.008
0.601	0.262	0.008
0.701	0.236	0.007
0.802	0.187	0.006
0.901	0.109	0.004

System: cyclohexane + piperidine + tetrahydro-1,4-oxazine; phases: Liquid
Fixed: Temperature, K = 308.15
Fixed: Pressure, kPa = 101
Property: Molar enthalpy of mixing with solvent, kJ/mol of piperidine (Liquid); method: Calvet calorimetry
Solvent: Amount ratio of component to other component of binary solvent of cyclohexane	Mole fraction of piperidine	Molar enthalpy of mixing with solvent, kJ/mol of piperidine	uncertainty
0.25	0.101	0.058	0.002
0.25	0.203	0.056	0.002
0.25	0.3	0.054	0.002
0.25	0.401	0.044	0.002
0.25	0.501	0.032	0.001
0.25	0.602	0.041	0.002
0.25	0.7	0.067	0.002
1	0.2	0.019	0.001
1	0.301	0.018	0.001
1	0.4	0.016	0.001
1	0.495	0.01	0.001
1	0.6	0.013	0.001
1	0.7	0.063	0.002
4	0.101	0.145	0.005
4	0.201	0.223	0.007
4	0.301	0.263	0.008
4	0.698	0.308	0.01

System: cyclohexane + piperidine + 1,4-dioxane; phases: Liquid
Fixed: Pressure, kPa = 101
Fixed: Temperature, K = 308.15
Property: Molar enthalpy of mixing with solvent, kJ/mol of piperidine (Liquid); method: Calvet calorimetry
Solvent: Amount ratio of component to other component of binary solvent of cyclohexane	Mole fraction of piperidine	Molar enthalpy of mixing with solvent, kJ/mol of piperidine	uncertainty
0.25	0.1	0.185	0.006
0.25	0.2	0.303	0.01
0.25	0.3	0.392	0.012
0.25	0.4	0.453	0.014
0.25	0.5	0.49	0.015
0.25	0.6	0.505	0.016
0.25	0.7	0.475	0.015
0.25	0.8	0.403	0.013
1	0.1	0.124	0.004
1	0.2	0.186	0.006
1	0.3	0.229	0.007
1	0.4	0.261	0.008
1	0.5	0.278	0.009
1	0.7	0.324	0.01
1	0.8	0.309	0.01
4	0.1	0.193	0.006
4	0.2	0.325	0.01
4	0.302	0.412	0.013
4	0.4	0.447	0.014
4	0.5	0.492	0.015
4	0.6	0.489	0.015
4	0.701	0.428	0.013
4	0.804	0.344	0.011

System: piperidine + 1,4-dioxane; phases: Liquid
Fixed: Temperature, K = 308.15
Fixed: Pressure, kPa = 101
Property: Excess molar enthalpy (molar enthalpy of mixing), kJ/mol (Liquid); method: Calvet calorimetry
Mole fraction of 1,4-dioxane	Excess molar enthalpy (molar enthalpy of mixing), kJ/mol	uncertainty
0.113	0.357	0.011
0.2	0.55	0.017
0.297	0.698	0.022
0.401	0.787	0.024
0.515	0.817	0.025
0.6	0.78	0.024
0.703	0.667	0.021
0.825	0.451	0.014
0.9	0.274	0.009
