Measured thermophysical data. Solubility and Miscibility for the Mixture of (Ethyl Fluoride + Alkylbenzene Oil)
Source: J. Chem. Eng. Data, 2014, 10.1021/je500075h
Compound 1: fluoroethane, C2H5F, InChI=1S/C2H5F/c1-2-3/h2H2,1H3, purity 99.74%
Compound 2: hexadecylbenzene, C22H38, InChI=1S/C22H38/c1-2-3-4-5-6-7-8-9-10-11-12-13-14-16-19-22-20-17-15-18-21-22/h15,17-18,20-21H,2-14,16,19H2,1H3, purity 92%

System: fluoroethane + hexadecylbenzene; phases: Liquid, Gas
Property: Vapor or sublimation pressure, kPa (Liquid); method: EBULLIO:UFactor:16
Temperature, K	Mass fraction of fluoroethane	Vapor or sublimation pressure, kPa	uncertainty
348.15	0.1245	1124.03	75.94
338.15	0.1262	1016.05	68.26
328.15	0.1282	902.14	60.23
318.15	0.131	785.75	51.79
308.15	0.1326	657.36	43.23
298.15	0.1339	534.09	35.26
288.15	0.135	424.2	28.07
278.15	0.1379	329.07	21.79
338.15	0.1675	1223.31	79.59
348.15	0.1697	1395.64	91.1
328.15	0.1728	1084.33	70.36
318.15	0.2273	1057.72	68.25
308.15	0.2296	867.98	56.12
298.15	0.2315	713.21	46.14
288.15	0.2331	561.04	36.37
278.15	0.2361	416.35	27.01
348.15	0.2788	1873.7	119.64
338.15	0.2792	1610.92	102.79
328.15	0.2818	1373.55	87.6
318.15	0.2828	1152.2	73.41
308.15	0.2868	980.21	62.5
298.15	0.2889	777.11	49.65
288.15	0.2919	598.86	38.4
348.15	0.3955	2213.81	139.92
338.15	0.3983	1866.75	117.99
328.15	0.4006	1555.79	98.37
318.15	0.4042	1281.66	81.1
308.15	0.4075	1045.96	66.24
298.15	0.4093	835.21	53.04
288.15	0.4107	646.16	41.16
278.15	0.4118	490.06	31.38
348.15	0.4806	2395.7	150.7
338.15	0.482	1994.86	125.5
328.15	0.486	1645.58	103.6
318.15	0.4871	1338.7	84.39
308.15	0.4897	1069.28	67.51
298.15	0.4942	881.54	55.75
288.15	0.4955	672.21	42.65
278.15	0.4966	504.55	32.16
348.15	0.5277	2479.92	155.65
318.15	0.5343	1365.21	85.88
348.15	0.6071	2601.82	162.85
338.15	0.6127	2146.14	134.41
328.15	0.6171	1748.99	109.62
318.15	0.6207	1406.83	88.28
308.15	0.6264	1143.21	71.85
298.15	0.6283	908.62	57.21
288.15	0.6293	691.87	43.71
278.15	0.63	509.7	32.36
348.15	0.7117	2733.07	170.59
338.15	0.7188	2241.02	139.96
328.15	0.7223	1814.21	113.4
318.15	0.7253	1449.69	90.73
308.15	0.7283	1166.04	73.09
298.15	0.731	914.51	57.45
288.15	0.7318	692.54	43.66
278.15	0.7324	510.18	32.32
348.15	0.8406	2861.94	178.22
338.15	0.8437	2331.87	145.32
328.15	0.8461	1878.57	117.18
318.15	0.8477	1493.69	93.3
308.15	0.8494	1179.65	73.8
298.15	0.8505	918.84	57.62
288.15	0.8509	693.8	43.66
278.15	0.8512	511.45	32.35
348.15	0.8912	2905.03	180.79
338.15	0.8937	2363.51	147.25
328.15	0.8956	1901.57	118.59
318.15	0.8971	1510.18	94.32
308.15	0.8985	1197.46	74.91
298.15	0.8992	921.29	57.77
288.15	0.8994	695.02	43.73
278.15	0.8996	512.37	32.39
