Measured thermophysical data. Density Measurement and PC-SAFT/tPC-PSAFT Modeling of the CO2 + H2O System over a Wide Temperature Range
Source: J. Chem. Eng. Data, 2014, 10.1021/je500062a
Compound 1: water, H2O, InChI=1S/H2O/h1H2, purity 99.99%
Compound 2: carbon dioxide, CO2, InChI=1S/CO2/c2-1-3, purity 99.99%

System: water; phases: Liquid
Property: Mass density, kg/m3 (Liquid); method: Buoyancy - hydrostatic balance with magnetic suspension - one sinker
Temperature, K	Pressure, kPa	Mass density, kg/m3	uncertainty
274.15	10004	1005.19	0.31
274.16	12008	1005.98	0.31
274.18	14002	1006.77	0.31
274.16	16004	1007.56	0.31
274.17	18006	1008.34	0.31
276.18	10001	1005.17	0.31
276.19	12007	1005.95	0.31
276.16	13999	1006.73	0.31
276.17	16002	1007.51	0.31
276.2	18003	1008.27	0.31
278.17	10001	1005.1	0.31
278.15	12005	1005.87	0.31
278.16	14008	1006.63	0.31
278.18	16010	1007.4	0.31
278.16	17998	1008.15	0.31
283.15	9997	1004.68	0.31
283.18	12006	1005.43	0.31
283.19	13998	1006.15	0.31
283.16	16003	1006.91	0.31
283.16	18008	1007.64	0.31
293.17	10010	1003	0.31
293.17	12003	1003.71	0.31
293.18	14007	1004.43	0.31
293.18	16001	1005.13	0.31
293.18	18004	1005.84	0.31
303.19	9996	1000.38	0.31
303.18	11999	1001.07	0.31
303.17	14000	1001.76	0.31
303.17	15994	1002.44	0.31
303.15	18016	1003.14	0.31
313.12	9994	996.94	0.31
313.14	11998	997.62	0.31
313.14	14000	998.29	0.31
313.15	16006	998.97	0.31
313.15	18000	999.64	0.31
323.13	10007	992.81	0.31
323.13	12001	993.48	0.31
323.11	14003	994.17	0.31
323.1	15995	994.84	0.31
323.12	17999	995.49	0.31
333.22	9999	987.55	0.31
333.2	12007	988.24	0.31
333.18	14002	988.93	0.31
333.19	15997	989.59	0.31
333.19	18001	990.25	0.31
343.17	9995	982.69	0.31
343.18	11999	983.38	0.31
343.19	14003	984.06	0.31
343.22	16009	984.73	0.31
343.18	18002	985.45	0.31
353.15	10004	976.35	0.31
353.18	12001	977.05	0.31
353.23	14006	977.75	0.31
353.23	16001	978.43	0.31
353.18	18008	979.16	0.31
363.15	10005	970.29	0.31
363.14	11999	971.01	0.31
363.15	14000	971.73	0.31
363.16	16006	972.44	0.31
363.14	18009	973.16	0.31
373.18	10003	963.33	0.31
373.16	12008	964.07	0.31
373.18	14014	964.81	0.31
373.19	16001	965.54	0.31
373.18	18006	966.28	0.31
383.13	9998	956.24	0.31
383.13	12003	957	0.31
383.14	13997	957.74	0.31
383.13	16002	958.54	0.31
383.12	17997	959.29	0.31
393.15	10007	948.46	0.31
393.15	12002	949.25	0.31
393.14	14001	950.07	0.31
393.13	15998	950.87	0.31
393.13	18003	951.66	0.31
403.16	10007	940.26	0.31
403.14	12003	941.11	0.31
403.16	13998	941.94	0.31
403.18	16001	942.74	0.31
403.11	18003	943.65	0.31
413.14	10006	931.9	0.31
413.17	12004	932.76	0.31
413.14	14009	933.67	0.31
413.15	16007	934.54	0.31
413.14	18000	935.42	0.31

System: carbon dioxide + water; phases: Liquid
Property: Mass density, kg/m3 (Liquid); method: Buoyancy - hydrostatic balance with magnetic suspension - one sinker
Mole fraction of carbon dioxide	Temperature, K	Pressure, kPa	Mass density, kg/m3	uncertainty
0.0042	274.22	10006	1007.55	0.32
0.0042	274.25	10997	1007.94	0.32
0.0042	274.24	12004	1008.33	0.32
0.0042	274.23	12993	1008.71	0.32
0.0042	274.21	13997	1009.1	0.32
0.0042	274.2	14993	1009.49	0.32
0.0042	274.23	16000	1009.88	0.32
0.0042	274.25	17011	1010.27	0.32
0.0042	274.24	17997	1010.66	0.32
0.0042	276.24	9999	1007.54	0.32
0.0042	276.25	11001	1007.92	0.32
0.0042	276.27	11999	1008.3	0.32
0.0042	276.25	13003	1008.69	0.32
0.0042	276.24	14003	1009.07	0.32
0.0042	276.25	15010	1009.46	0.32
0.0042	276.24	16006	1009.84	0.32
0.0042	276.24	17011	1010.24	0.32
0.0042	276.25	18014	1010.61	0.32
0.0042	278.15	9996	1007.45	0.32
0.0042	278.14	10995	1007.84	0.32
0.0042	278.17	12000	1008.22	0.32
0.0042	278.18	13000	1008.6	0.32
0.0042	278.18	13994	1008.97	0.32
0.0042	278.17	15001	1009.35	0.32
0.0042	278.16	15998	1009.73	0.32
0.0042	278.15	16999	1010.1	0.32
0.0042	278.15	17999	1010.48	0.32
0.0042	283.15	10003	1007.04	0.33
0.0042	283.13	11003	1007.42	0.33
0.0042	283.14	12012	1007.78	0.33
0.0042	283.17	13003	1008.15	0.33
0.0042	283.19	14008	1008.51	0.33
0.0042	283.18	14997	1008.88	0.33
0.0042	283.16	16003	1009.25	0.33
0.0042	283.15	17003	1009.62	0.33
0.0042	283.14	18006	1009.98	0.33
0.0042	293.13	9996	1005.34	0.34
0.0042	293.12	10992	1005.69	0.33
0.0042	293.12	12003	1006.04	0.33
0.0042	293.12	13000	1006.39	0.33
0.0042	293.14	13996	1006.74	0.33
0.0042	293.15	14988	1007.09	0.33
0.0042	293.16	16005	1007.44	0.33
0.0042	293.16	17006	1007.79	0.33
0.0042	293.14	17999	1008.14	0.34
0.0042	303.09	10002	1002.68	0.34
0.0042	303.11	11004	1003.02	0.33
0.0042	303.13	12003	1003.36	0.33
0.0042	303.13	13004	1003.71	0.33
0.0042	333.28	15006	991.61	0.34
0.0042	333.31	16013	991.93	0.34
0.0042	333.31	17003	992.27	0.34
0.0042	333.31	18006	992.61	0.34
0.0042	343.24	9999	984.52	0.34
0.0042	343.24	10997	984.87	0.34
0.0042	343.26	11994	985.2	0.34
0.0042	343.28	12996	985.53	0.34
0.0042	343.29	14000	985.86	0.34
0.0042	343.29	14996	986.21	0.34
0.0042	343.22	16005	986.58	0.34
0.0042	343.17	16994	986.96	0.34
0.0042	343.19	17995	987.33	0.35
0.0042	353.3	9996	978.5	0.34
0.0042	353.3	11002	978.85	0.34
0.0042	353.3	12011	979.19	0.34
0.0042	353.29	13011	979.56	0.34
0.0042	353.3	14005	979.9	0.34
0.0042	353.34	15011	980.23	0.34
0.0042	353.34	15998	980.57	0.34
0.0042	353.32	16999	980.94	0.34
0.0042	353.28	18001	981.32	0.34
0.0042	363.28	9997	972.06	0.33
0.0042	363.28	10995	972.42	0.33
0.0042	363.29	11993	972.77	0.33
0.0042	363.29	12995	973.11	0.33
0.0042	363.27	13990	973.5	0.33
0.0042	363.28	14996	973.85	0.33
0.0042	363.3	16005	974.21	0.33
0.0042	363.3	17005	974.56	0.33
0.0042	363.27	18006	974.94	0.33
0.0042	373.2	9993	965.14	0.34
0.0042	373.2	10998	965.51	0.34
0.0042	373.22	12009	965.88	0.34
0.0042	373.23	12998	966.24	0.34
0.0042	373.23	14004	966.62	0.34
0.0042	373.2	14999	967.01	0.34
0.0042	373.2	16008	967.38	0.34
0.0042	373.2	16999	967.75	0.34
0.0042	373.21	17991	968.12	0.34
0.0042	383.3	10000	957.68	0.33
0.0042	383.3	10997	958.06	0.33
0.0042	383.27	12006	958.48	0.33
0.0042	383.25	12995	958.88	0.33
0.0042	383.29	13999	959.23	0.33
0.0042	383.34	14996	959.6	0.33
0.0042	383.3	15995	960.01	0.33
0.0042	383.34	16996	960.38	0.33
0.0042	383.32	17997	960.78	0.33
0.0042	303.13	14007	1004.05	0.33
0.0042	303.12	15008	1004.39	0.33
0.0042	303.12	16002	1004.73	0.33
0.0042	303.11	17001	1005.07	0.33
0.0042	303.12	17998	1005.42	0.34
0.0042	313.24	9989	999.02	0.34
0.0042	313.23	10991	999.36	0.34
0.0042	313.23	12003	999.7	0.34
0.0042	313.23	13004	1000.04	0.34
0.0042	313.23	14008	1000.38	0.34
0.0042	313.25	14996	1000.7	0.34
0.0042	313.24	16004	1001.05	0.34
0.0042	313.24	17008	1001.39	0.34
0.0042	313.22	17998	1001.73	0.34
0.0042	323.34	9995	994.72	0.34
0.0042	323.33	10991	995.07	0.34
0.0042	323.34	12001	995.42	0.34
0.0042	323.32	13000	995.78	0.34
0.0042	323.32	13995	996.11	0.34
0.0042	323.34	15001	996.44	0.34
0.0042	323.33	16009	996.77	0.34
0.0042	323.32	16998	997.11	0.34
0.0042	323.32	17998	997.45	0.34
0.0042	333.33	9992	989.89	0.34
0.0042	333.33	11004	990.23	0.34
0.0042	333.32	12014	990.58	0.34
0.0042	333.28	13005	990.94	0.34
0.0042	333.28	14008	991.28	0.34
0.0042	393.19	10006	950.18	0.33
0.0042	393.2	10997	950.61	0.32
0.0042	393.18	12007	951.05	0.32
0.0042	393.17	12997	951.44	0.32
0.0042	393.15	14001	951.88	0.32
0.0042	393.19	15007	952.24	0.32
0.0042	393.2	16007	952.62	0.32
0.0042	393.2	17010	953.05	0.33
0.0042	393.17	18001	953.44	0.33
0.0042	403.16	9998	942.06	0.32
0.0042	403.17	10997	942.48	0.31
0.0042	403.14	11996	942.93	0.32
0.0042	403.14	12997	943.37	0.32
0.0042	403.17	14002	943.78	0.32
0.0042	403.19	14998	944.15	0.32
0.0042	403.17	16007	944.6	0.32
0.0042	403.14	16998	945.06	0.32
0.0042	403.14	18008	945.46	0.32
0.0042	413.19	10001	933.34	0.32
0.0042	413.16	10997	933.83	0.32
0.0042	413.14	12006	934.27	0.32
0.0042	413.18	13008	934.72	0.32
0.0042	413.19	14002	935.18	0.32
0.0042	413.21	15010	935.61	0.32
0.0042	413.19	16000	936.05	0.32
0.0042	413.19	16997	936.48	0.32
0.0042	413.18	18001	936.95	0.32
0.0084	274.15	9998	1008.48	0.33
0.0084	274.19	11002	1008.86	0.33
0.0084	274.24	12002	1009.26	0.33
0.0084	274.24	13001	1009.66	0.33
0.0084	274.22	14004	1010.04	0.33
0.0084	274.19	15001	1010.42	0.33
0.0084	274.17	15997	1010.81	0.33
0.0084	274.18	16999	1011.2	0.33
0.0084	274.21	18000	1011.58	0.33
0.0084	276.25	10003	1008.46	0.33
0.0084	276.25	10997	1008.83	0.33
0.0084	276.24	11996	1009.21	0.33
0.0084	276.24	12995	1009.6	0.33
0.0084	276.25	13998	1009.99	0.33
0.0084	276.26	15004	1010.37	0.33
0.0084	276.25	15999	1010.75	0.33
0.0084	276.24	16999	1011.13	0.33
0.0084	276.24	17997	1011.52	0.33
0.0084	278.09	9999	1008.42	0.33
0.0084	278.13	11004	1008.8	0.33
0.0084	278.15	12004	1009.18	0.33
0.0084	278.14	13005	1009.55	0.33
0.0084	278.13	13998	1009.93	0.33
0.0084	278.13	15006	1010.31	0.33
0.0084	278.12	16003	1010.69	0.33
0.0084	278.12	17005	1011.06	0.33
0.0084	278.13	17997	1011.44	0.33
0.0084	283.15	9997	1008.09	0.33
0.0084	283.14	11002	1008.47	0.33
0.0084	283.15	12002	1008.84	0.33
0.0084	283.15	13002	1009.2	0.33
0.0084	283.15	14005	1009.57	0.33
0.0084	283.15	14993	1009.93	0.33
0.0084	283.15	16001	1010.3	0.33
0.0084	283.15	17004	1010.66	0.33
0.0084	283.14	18006	1011.02	0.33
0.0084	293.1	10005	1006.43	0.34
0.0084	293.11	11000	1006.78	0.34
0.0084	293.09	11999	1007.14	0.34
0.0084	293.11	12998	1007.49	0.34
0.0084	293.12	14002	1007.83	0.34
0.0084	293.11	14999	1008.19	0.34
0.0084	293.1	16006	1008.54	0.34
0.0084	293.1	17006	1008.89	0.34
0.0084	293.09	18005	1009.24	0.34
0.0084	303.2	10004	1003.79	0.34
0.0084	303.23	10999	1004.12	0.34
0.0084	303.21	11999	1004.47	0.34
0.0084	303.19	12999	1004.82	0.34
0.0084	303.19	14005	1005.16	0.34
0.0084	303.19	15000	1005.5	0.34
0.0084	303.19	15999	1005.83	0.34
0.0084	303.19	17000	1006.17	0.34
0.0084	303.2	18003	1006.51	0.34
0.0084	313.21	10005	1000.3	0.34
0.0084	313.21	11002	1000.64	0.34
0.0084	313.21	11999	1000.97	0.34
0.0084	313.22	12999	1001.31	0.34
0.0084	313.23	14003	1001.64	0.34
0.0084	313.24	14997	1001.98	0.34
0.0084	313.23	16004	1002.31	0.34
0.0084	313.22	17003	1002.66	0.34
0.0084	313.23	18002	1002.98	0.34
0.0084	323.24	9996	996.08	0.34
0.0084	323.31	11003	996.38	0.34
0.0084	323.31	12004	996.72	0.34
0.0084	323.22	13005	997.1	0.34
0.0084	323.18	14000	997.45	0.34
0.0084	323.2	14998	997.77	0.34
0.0084	323.24	16007	998.09	0.34
0.0084	323.24	16999	998.41	0.34
0.0084	323.25	18004	998.76	0.34
0.0084	333.3	10003	991.28	0.34
0.0084	333.29	11010	991.63	0.34
0.0084	333.27	12008	991.98	0.34
0.0084	333.26	12998	992.32	0.34
0.0084	333.3	13992	992.64	0.34
0.0084	333.31	14999	992.98	0.34
0.0084	333.31	16007	993.32	0.33
0.0084	333.3	17006	993.66	0.34
0.0084	333.3	18006	993.99	0.34
0.0084	343.13	9993	985.98	0.33
0.0084	343.16	11001	986.32	0.33
0.0084	343.14	12001	986.67	0.33
0.0084	343.1	13003	987.04	0.33
0.0084	343.09	13999	987.4	0.33
0.0084	343.08	14997	987.74	0.33
0.0084	343.09	16008	988.07	0.33
0.0084	343.1	16994	988.42	0.33
0.0084	343.11	17996	988.79	0.33
0.0084	353.19	10006	979.86	0.33
0.0084	353.2	11002	980.2	0.33
0.0084	353.22	12002	980.54	0.33
0.0084	353.21	12994	980.89	0.33
0.0084	353.22	13998	981.26	0.33
0.0084	353.25	15003	981.58	0.33
0.0084	353.28	16002	981.91	0.33
0.0084	353.24	17001	982.28	0.33
0.0084	353.21	18002	982.66	0.33
0.0084	363.09	9997	973.37	0.33
0.0084	363.07	11004	973.74	0.33
0.0084	363.09	12002	974.09	0.33
0.0084	363.1	13004	974.45	0.33
0.0084	363.1	14009	974.81	0.33
0.0084	363.1	14995	975.18	0.33
0.0084	363.1	15997	975.53	0.33
0.0084	363.11	16998	975.88	0.33
0.0084	363.13	18003	976.23	0.33
0.0084	373.07	9997	966.61	0.33
0.0084	373.08	10996	966.97	0.33
0.0084	373.1	11996	967.34	0.33
0.0084	373.11	12998	967.72	0.33
0.0084	373.1	14001	968.09	0.33
0.0084	373.1	14998	968.47	0.33
0.0084	373.11	16006	968.85	0.33
0.0084	373.1	16994	969.23	0.33
0.0084	373.1	17997	969.59	0.33
0.0084	383.16	9998	958.96	0.32
0.0084	383.15	11007	959.36	0.32
0.0084	383.15	12005	959.75	0.32
0.0084	383.14	12997	960.13	0.32
0.0084	383.15	14001	960.52	0.32
0.0084	383.15	14998	960.91	0.32
0.0084	383.15	15998	961.29	0.32
0.0084	383.14	17000	961.69	0.32
0.0084	383.15	18005	962.06	0.32
0.0084	393.16	9997	951.15	0.32
0.0084	393.18	11006	951.56	0.32
0.0084	393.16	12004	951.95	0.32
0.0084	393.19	12996	952.38	0.32
0.0084	393.22	14000	952.74	0.32
0.0084	393.21	14996	953.18	0.32
0.0084	393.2	16005	953.58	0.32
0.0084	393.2	17003	954.02	0.32
0.0084	393.19	18004	954.42	0.32
0.0084	403.17	9996	942.86	0.32
0.0084	403.18	11005	943.29	0.32
0.0084	403.17	11992	943.7	0.32
0.0084	403.16	12995	944.14	0.32
0.0084	403.17	14000	944.55	0.32
0.0084	403.19	15007	944.97	0.32
0.0084	403.19	16006	945.39	0.32
0.0084	403.2	17007	945.81	0.32
0.0084	403.21	18001	946.23	0.32
0.0084	413.24	10001	934.25	0.31
0.0084	413.24	10999	934.7	0.31
0.0084	413.25	11998	935.14	0.31
0.0084	413.21	13001	935.61	0.31
0.0084	413.22	14005	936.08	0.31
0.0084	413.26	15002	936.51	0.31
0.0084	413.27	15999	936.92	0.31
0.0084	413.25	16999	937.4	0.31
0.0084	413.24	18003	937.84	0.31
0.0124	274.11	9995	1009.85	0.34
0.0124	274.13	11998	1010.62	0.34
0.0124	274.13	12997	1011.01	0.34
0.0124	274.12	13999	1011.4	0.34
0.0124	274.12	14998	1011.78	0.34
0.0124	274.13	16004	1012.17	0.34
0.0124	274.13	17004	1012.55	0.34
0.0124	274.13	18006	1012.93	0.34
0.0124	276.14	10001	1009.88	0.34
0.0124	276.14	10995	1010.25	0.34
0.0124	276.15	12005	1010.64	0.34
0.0124	276.13	13003	1011.02	0.34
0.0124	276.11	13996	1011.4	0.34
0.0124	276.09	15003	1011.78	0.34
0.0124	276.12	15998	1012.16	0.34
0.0124	276.18	17000	1012.53	0.34
0.0124	276.15	17998	1012.91	0.34
0.0124	278.24	9998	1009.85	0.34
0.0124	278.25	11002	1010.23	0.34
0.0124	278.26	12001	1010.6	0.34
0.0124	278.27	13000	1010.98	0.34
0.0124	278.27	14002	1011.35	0.34
0.0124	278.26	15000	1011.73	0.34
0.0124	278.26	16007	1012.11	0.34
0.0124	278.25	16997	1012.48	0.34
0.0124	278.26	18000	1012.85	0.34
0.0124	283.2	9998	1009.53	0.33
0.0124	283.22	11001	1009.9	0.34
0.0124	283.24	12001	1010.26	0.34
0.0124	283.24	13000	1010.62	0.34
0.0124	283.24	13992	1010.99	0.34
0.0124	283.25	14999	1011.35	0.34
0.0124	283.25	16005	1011.71	0.34
0.0124	283.24	17004	1012.08	0.34
0.0124	283.22	18005	1012.45	0.33
0.0124	293.21	10000	1007.99	0.33
0.0124	293.2	11004	1008.34	0.34
0.0124	293.21	12003	1008.7	0.34
0.0124	293.21	13003	1009.04	0.34
0.0124	293.2	14005	1009.39	0.34
0.0124	293.2	15003	1009.74	0.34
0.0124	293.19	16000	1010.09	0.34
0.0124	293.19	17000	1010.43	0.34
0.0124	293.2	18002	1010.78	0.33
0.0124	303.25	9998	1005.31	0.33
0.0124	303.24	11004	1005.65	0.34
0.0124	303.25	12002	1005.99	0.34
0.0124	303.25	13001	1006.33	0.34
0.0124	303.26	13996	1006.67	0.34
0.0124	303.23	15001	1007.02	0.34
0.0124	303.22	15999	1007.36	0.34
0.0124	303.23	16998	1007.7	0.34
0.0124	303.23	17999	1008.03	0.33
0.0124	313.22	10001	1001.81	0.33
0.0124	313.23	11007	1002.15	0.34
0.0124	313.22	12006	1002.49	0.34
0.0124	313.2	13005	1002.84	0.34
0.0124	313.23	14002	1003.16	0.34
0.0124	313.25	14997	1003.49	0.34
0.0124	313.25	15997	1003.82	0.34
0.0124	313.23	16999	1004.17	0.34
0.0124	313.21	18001	1004.5	0.34
0.0124	323.15	9999	997.58	0.33
0.0124	323.17	10997	997.91	0.34
0.0124	323.17	12005	998.25	0.34
0.0124	323.16	12997	998.6	0.34
0.0124	323.13	14000	998.95	0.34
0.0124	323.12	14994	999.28	0.34
0.0124	323.13	16004	999.61	0.33
0.0124	323.14	17004	999.96	0.34
0.0124	323.14	18004	1000.29	0.33
0.0124	333.17	10004	992.65	0.33
0.0124	333.15	11001	993.01	0.33
0.0124	333.09	11999	993.38	0.33
0.0124	333.08	12999	993.72	0.33
0.0124	333.09	14005	994.05	0.33
0.0124	333.11	15000	994.38	0.33
0.0124	333.1	17000	995.06	0.33
0.0124	333.1	18003	995.39	0.33
0.0124	343.12	10004	987.13	0.32
0.0124	343.13	11002	987.48	0.33
0.0124	343.14	11999	987.82	0.33
0.0124	343.13	13001	988.17	0.33
0.0124	343.11	14005	988.53	0.33
0.0124	343.11	15001	988.88	0.33
0.0124	343.12	15999	989.22	0.32
0.0124	343.12	17000	989.56	0.33
0.0124	343.12	18003	989.9	0.32
0.0124	353.27	10002	981	0.32
0.0124	353.25	11000	981.36	0.33
0.0124	353.24	11998	981.71	0.33
0.0124	353.23	13000	982.07	0.33
0.0124	353.25	14006	982.42	0.33
0.0124	353.26	15003	982.76	0.33
0.0124	353.27	16003	983.11	0.33
0.0124	353.26	17005	983.47	0.33
0.0124	353.25	18008	983.83	0.33
0.0124	363.02	9995	974.5	0.32
0.0124	363.03	11002	974.88	0.33
0.0124	363.03	12000	975.23	0.33
0.0124	363.03	13002	975.59	0.33
0.0124	363.03	13996	975.96	0.33
0.0124	363.03	15002	976.33	0.33
0.0124	363.02	16001	976.69	0.33
0.0124	363	17001	977.07	0.33
0.0124	363.01	18003	977.43	0.32
0.0124	373.13	9999	967.37	0.32
0.0124	373.12	11007	967.76	0.32
0.0124	373.12	11995	968.12	0.32
0.0124	373.11	12999	968.51	0.32
0.0124	373.1	14003	968.9	0.32
0.0124	373.1	14999	969.26	0.32
0.0124	373.11	15999	969.63	0.32
0.0124	373.13	16999	969.99	0.32
0.0124	373.13	18002	970.37	0.32
0.0124	383.19	9996	959.78	0.32
0.0124	383.19	10994	960.18	0.32
0.0124	383.19	12002	960.57	0.32
0.0124	383.18	13003	960.97	0.32
0.0124	383.19	13998	961.35	0.32
0.0124	383.19	14993	961.76	0.32
0.0124	383.18	16003	962.14	0.32
0.0124	383.17	17004	962.55	0.32
0.0124	383.16	17997	962.94	0.32
0.0124	393.21	10001	951.81	0.31
0.0124	393.2	10999	952.21	0.31
0.0124	393.2	11998	952.61	0.31
0.0124	393.2	13001	953.03	0.31
0.0124	393.2	13996	953.44	0.31
0.0124	393.2	15003	953.85	0.31
0.0124	393.19	16003	954.27	0.31
0.0124	393.19	17005	954.67	0.31
0.0124	393.2	17999	955.06	0.31
0.0124	403.26	9998	943.35	0.31
0.0124	403.27	10996	943.78	0.31
0.0124	403.26	12004	944.22	0.31
0.0124	403.25	12996	944.67	0.31
0.0124	403.27	14001	945.11	0.31
0.0124	403.26	14998	945.51	0.31
0.0124	403.21	15997	945.99	0.31
0.0124	403.19	16999	946.47	0.31
0.0124	403.22	18003	946.86	0.31
0.0124	413.28	9995	934.48	0.31
0.0124	413.28	11004	934.96	0.31
0.0124	413.27	12004	935.4	0.31
0.0124	413.25	13006	935.86	0.31
0.0124	413.26	14001	936.27	0.31
0.0124	413.28	14998	936.73	0.31
0.0124	413.28	16010	937.18	0.31
0.0124	413.28	17000	937.65	0.31
0.0124	413.27	18004	938.09	0.31
