Measured thermophysical data. Measurement and Correlation of the Solubility of L-Carnitine in Different Pure Solvents and Ethanol Acetone Solvent Mixture
Source: J. Chem. Eng. Data, 2014, 10.1021/je500078n
Compound 1: (R)-3-hydroxy-4-(trimethylammonio)butanoate, C7H15NO3, InChI=1S/C7H15NO3/c1-8(2,3)5-6(9)4-7(10)11/h6,9H,4-5H2,1-3H3/t6-/m1/s1, purity 99.8%
Compound 2: methanol, CH4O, InChI=1S/CH4O/c1-2/h2H,1H3, purity 99.5%
Compound 3: ethanol, C2H6O, InChI=1S/C2H6O/c1-2-3/h3H,2H2,1H3, purity 99.5%
Compound 4: propan-2-ol, C3H8O, InChI=1S/C3H8O/c1-3(2)4/h3-4H,1-2H3, purity 99.5%
Compound 5: acetone, C3H6O, InChI=1S/C3H6O/c1-3(2)4/h1-2H3, purity 99.5%

System: methanol + (R)-3-hydroxy-4-(trimethylammonio)butanoate; phases: Liquid, Crystal
Fixed: Pressure, kPa = 101.3
Property: Mole fraction of (R)-3-hydroxy-4-(trimethylammonio)butanoate (Liquid); method: gravimetric method
Temperature, K	Mole fraction of (R)-3-hydroxy-4-(trimethylammonio)butanoate	uncertainty
278.15	0.096244	0.003088
283.15	0.098234	0.003154
288.15	0.103688	0.003335
293.15	0.110635	0.003561
298.15	0.118964	0.003829
303.15	0.127123	0.00409
308.15	0.135565	0.004361
313.15	0.144165	0.004638
318.15	0.154137	0.004961
323.15	0.165167	0.005318
328.15	0.177535	0.005714
333.15	0.189346	0.006091

System: ethanol + (R)-3-hydroxy-4-(trimethylammonio)butanoate; phases: Liquid, Crystal
Fixed: Pressure, kPa = 101.3
Property: Mole fraction of (R)-3-hydroxy-4-(trimethylammonio)butanoate (Liquid); method: gravimetric method
Temperature, K	Mole fraction of (R)-3-hydroxy-4-(trimethylammonio)butanoate	uncertainty
278.15	0.039164	0.001258
283.15	0.040825	0.001312
288.15	0.043106	0.001385
293.15	0.045224	0.001454
298.15	0.04833	0.001555
303.15	0.051747	0.001664
308.15	0.054583	0.001754
313.15	0.057644	0.001853
318.15	0.060725	0.001953
323.15	0.064804	0.002086
328.15	0.06975	0.002246
333.15	0.074721	0.002405
338.15	0.080095	0.002578
343.15	0.085518	0.002753
348.15	0.091938	0.00296

System: propan-2-ol + (R)-3-hydroxy-4-(trimethylammonio)butanoate; phases: Liquid, Crystal
Fixed: Pressure, kPa = 101.3
Property: Mole fraction of (R)-3-hydroxy-4-(trimethylammonio)butanoate (Liquid); method: gravimetric method
Temperature, K	Mole fraction of (R)-3-hydroxy-4-(trimethylammonio)butanoate	uncertainty
278.15	0.001463	4.9e-05
283.15	0.00181	6e-05
288.15	0.002233	7.4e-05
293.15	0.002708	9e-05
298.15	0.003404	0.000113
303.15	0.004173	0.000139
308.15	0.005266	0.000174
313.15	0.006295	0.000208
318.15	0.007779	0.000259
323.15	0.009831	0.000326
328.15	0.011835	0.000391
333.15	0.014427	0.000474

System: acetone + (R)-3-hydroxy-4-(trimethylammonio)butanoate; phases: Liquid, Crystal
Fixed: Pressure, kPa = 101.3
Property: Mole fraction of (R)-3-hydroxy-4-(trimethylammonio)butanoate (Liquid); method: gravimetric method
Temperature, K	Mole fraction of (R)-3-hydroxy-4-(trimethylammonio)butanoate	uncertainty
278.15	7.1e-05	2e-06
283.15	8.1e-05	3e-06
288.15	9.1e-05	3e-06
293.15	0.000106	3e-06
298.15	0.000117	4e-06
303.15	0.000131	4e-06
308.15	0.000143	5e-06
313.15	0.000157	5e-06
318.15	0.000175	6e-06
323.15	0.000195	6e-06
328.15	0.00022	7e-06

System: ethanol + acetone + (R)-3-hydroxy-4-(trimethylammonio)butanoate; phases: Liquid, Crystal
Fixed: Pressure, kPa = 101.3
Property: Mole fraction of (R)-3-hydroxy-4-(trimethylammonio)butanoate (Liquid); method: gravimetric method
Solvent: Mole fraction of acetone	Temperature, K	Mole fraction of (R)-3-hydroxy-4-(trimethylammonio)butanoate	uncertainty
0.0817	278.15	0.035195	0.001129
0.0817	283.15	0.035756	0.001148
0.0817	288.15	0.037832	0.001217
0.0817	293.15	0.040375	0.001298
0.0817	298.15	0.042068	0.001353
0.0817	303.15	0.04536	0.001459
0.0817	308.15	0.047331	0.001521
0.0817	313.15	0.050187	0.001612
0.0817	318.15	0.05209	0.001674
0.0817	323.15	0.055725	0.001798
0.0817	328.15	0.061791	0.001996
0.1655	278.15	0.031248	0.001004
0.1655	283.15	0.032132	0.001032
0.1655	288.15	0.033991	0.001092
0.1655	293.15	0.035577	0.001143
0.1655	298.15	0.037115	0.001192
0.1655	303.15	0.038419	0.001234
0.1655	308.15	0.040556	0.001304
0.1655	313.15	0.042861	0.001377
0.1655	318.15	0.044908	0.001442
0.1655	323.15	0.046379	0.001489
0.1655	328.15	0.048805	0.001571
0.253	278.15	0.024733	0.000794
0.253	283.15	0.025323	0.000813
0.253	288.15	0.026709	0.000858
0.253	293.15	0.027433	0.000881
0.253	298.15	0.028791	0.000924
0.253	303.15	0.029486	0.000947
0.253	308.15	0.031057	0.000997
0.253	313.15	0.03201	0.001028
0.253	318.15	0.034044	0.001095
0.253	323.15	0.036086	0.001161
0.253	328.15	0.038409	0.001237
0.3463	278.15	0.017707	0.000568
0.3463	283.15	0.01845	0.000593
0.3463	288.15	0.019442	0.000624
0.3463	293.15	0.019405	0.000622
0.3463	298.15	0.019953	0.00064
0.3463	303.15	0.02048	0.000657
0.3463	308.15	0.021353	0.000686
0.3463	313.15	0.022412	0.00072
0.3463	318.15	0.023494	0.000757
0.3463	323.15	0.02595	0.000839
0.3463	328.15	0.02862	0.000927
0.4431	278.15	0.011929	0.000383
0.4431	283.15	0.012259	0.000393
0.4431	288.15	0.012353	0.000396
0.4431	293.15	0.012863	0.000413
0.4431	298.15	0.013147	0.000422
0.4431	303.15	0.013694	0.00044
0.4431	308.15	0.014023	0.00045
0.4431	313.15	0.014617	0.00047
0.4431	318.15	0.015935	0.000514
0.4431	323.15	0.017595	0.000571
0.4431	328.15	0.020183	0.000653
0.5432	278.15	0.00732	0.000235
0.5432	283.15	0.007382	0.000237
0.5432	288.15	0.007651	0.000245
0.5432	293.15	0.007582	0.000243
0.5432	298.15	0.007692	0.000247
0.5432	303.15	0.008105	0.00026
0.5432	308.15	0.008391	0.000269
0.5432	313.15	0.008738	0.00028
0.5432	318.15	0.008987	0.000289
0.5432	323.15	0.009618	0.000309
0.5432	328.15	0.010205	0.000341
0.6479	278.15	0.004103	0.000132
0.6479	283.15	0.004229	0.000136
0.6479	288.15	0.004307	0.000138
0.6479	293.15	0.004496	0.000144
0.6479	298.15	0.004624	0.000148
0.6479	303.15	0.004707	0.000151
0.6479	308.15	0.004767	0.000153
0.6479	313.15	0.00489	0.000157
0.6479	318.15	0.005103	0.000164
0.6479	323.15	0.005253	0.000169
0.6479	328.15	0.005391	0.000177
0.7597	278.15	0.001354	4.9e-05
0.7597	283.15	0.001447	4.7e-05
0.7597	288.15	0.001537	4.9e-05
0.7597	293.15	0.001649	5.3e-05
0.7597	298.15	0.001777	5.7e-05
0.7597	303.15	0.00193	6.2e-05
0.7597	308.15	0.002085	6.7e-05
0.7597	313.15	0.00223	7.2e-05
0.7597	318.15	0.002375	7.6e-05
0.7597	323.15	0.00253	8.1e-05
0.7597	328.15	0.002746	9.1e-05
0.8761	278.15	0.000504	1.6e-05
0.8761	283.15	0.000546	1.8e-05
0.8761	288.15	0.000587	1.9e-05
0.8761	293.15	0.000639	2.1e-05
0.8761	298.15	0.000693	2.2e-05
0.8761	303.15	0.000757	2.4e-05
0.8761	308.15	0.000823	2.7e-05
0.8761	313.15	0.000885	2.9e-05
0.8761	318.15	0.000951	3.1e-05
0.8761	323.15	0.00102	3.3e-05
0.8761	328.15	0.001115	3.6e-05
