Measured thermophysical data. Investigation on liquid density data at the bubble point and equations for the refrigerant HFC-404A over a wide temperature range
Source: J. Chem. Eng. Data, 2014, 10.1021/je500077d
Compound 1: pentafluoroethane, C2HF5, InChI=1S/C2HF5/c3-1(4)2(5,6)7/h1H, purity 99.9%
Compound 2: 1,1,1-trifluoroethane, C2H3F3, InChI=1S/C2H3F3/c1-2(3,4)5/h1H3, purity 99.9%
Compound 3: 1,1,1,2-tetrafluoroethane, C2H2F4, InChI=1S/C2H2F4/c3-1-2(4,5)6/h1H2, purity 99.9%

System: pentafluoroethane + 1,1,1-trifluoroethane + 1,1,1,2-tetrafluoroethane; phases: Liquid, Gas
Fixed: Mass fraction of 1,1,1-trifluoroethane = 0.52
Fixed: Mass fraction of pentafluoroethane = 0.44
Property: Vapor or sublimation pressure, kPa (Liquid); method: EBULLIO:UFactor:4
Temperature, K	Vapor or sublimation pressure, kPa	uncertainty
227.25	104.8	3.6
229	113.9	3.7
231.13	125.2	3.7
233.65	140	3.8
236.65	160.8	4
238.93	176.4	4.1
241.17	194.2	4.3
243.67	214	4.5
246.15	233.4	4.7
248.8	262.5	5
251.46	290.9	5.3
253.53	314.5	5.6
256.2	345.5	6
258.87	382.2	6.4
261.54	418.1	6.9
264.32	458.2	7.4
267.17	506.9	8
269.53	546	8.6
272.3	597.5	9.4
274.85	645.4	10.2
277.35	692.4	10.9
279.96	749.7	11.8
282.79	820.3	12.9
285.27	887.6	13.9
287.82	955.3	15
290.35	1024.3	16
292.99	1093	17.1
295.62	1176.6	18.4
298.31	1264.8	19.8
300.94	1353.2	21.1
303.74	1442.8	22.5
306.35	1550.8	24.2
309.09	1660.6	25.9
311.74	1782.9	27.8
314.35	1892.8	29.5
316.99	2006.6	31.3
319.6	2135.4	33.3
322.18	2274.8	35.4
324.88	2417.6	37.6
327.98	2588.3	40.3
330.72	2730.5	42.5
333.3	2918.6	45.4
335.45	3058	47.6
337.95	3215.5	50
340.2	3344	52
341.31	3468.7	53.9

System: pentafluoroethane + 1,1,1-trifluoroethane + 1,1,1,2-tetrafluoroethane; phases: Liquid, Gas
Fixed: Mass fraction of pentafluoroethane = 0.44
Fixed: Mass fraction of 1,1,1-trifluoroethane = 0.52
Property: Mass density, kg/m3 (Liquid); method: Vibrating tube method
Temperature, K	Mass density, kg/m3	uncertainty
227.25	1311.81	1.02
229	1306.65	1.02
231.13	1299.96	1.01
233.65	1292.07	1.01
236.65	1282.7	1.01
238.93	1275.33	1.01
241.17	1268.12	1.01
243.67	1260.13	1.01
246.15	1251.99	1.01
248.8	1243.21	1.01
251.46	1234.49	1.01
253.53	1227.39	1.01
256.2	1218.32	1.01
258.87	1209.06	1.01
261.54	1199.78	1.01
264.32	1189.72	1.01
267.17	1179.44	1.01
269.53	1170.43	1.01
272.3	1159.85	1.01
274.85	1149.89	1.01
277.35	1139.93	1.01
279.96	1129.44	1.01
282.79	1118.41	1.01
285.27	1107.93	1.01
287.82	1097.24	1.01
290.35	1086.13	1.01
292.99	1074.43	1.01
295.62	1062.34	1.01
298.31	1049.79	1.01
300.94	1037.02	1.01
303.74	1022.97	1.01
306.35	1009.51	1.01
309.09	994.81	1.01
311.74	980.42	1.01
314.35	965.08	1.01
316.99	948.95	1.01
319.6	931.51	1.01
322.18	912.66	1.01
324.88	892.87	1.02
327.98	867.04	1.02
330.72	843.76	1.02
333.3	816.24	1.03
335.45	793.34	1.03
337.95	762.75	1.04
340.2	734.21	1.05
341.31	713.96	1.07
