Measured thermophysical data. PvT Measurements of trans-1,3,3,3-Tetrafluoroprop-1-ene + Methane and trans-1,3,3,3-Tetrafluoroprop-1-ene + Nitrogen Binary Pairs
Source: J. Chem. Eng. Data, 2014, 10.1021/je500669y
Compound 1: trans-1,3,3,3-tetrafluoropropene, C3H2F4, InChI=1S/C3H2F4/c4-2-1-3(5,6)7/h1-2H/b2-1+, purity 99.5%
Compound 2: methane, CH4, InChI=1S/CH4/h1H4, purity 99.99%
Compound 3: nitrogen, N2, InChI=1S/N2/c1-2, purity 99.99%

System: methane + trans-1,3,3,3-tetrafluoropropene; phases: Gas
Property: Specific volume, m3/kg (Gas); method: ISOCHOR
Mole fraction of methane	Temperature, K	Pressure, kPa	Specific volume, m3/kg	uncertainty
0.31	273.14	216.8	0.12	0.01
0.31	283.07	225.4	0.12	0.01
0.31	293.03	233.9	0.12	0.01
0.31	303.16	242.4	0.12	0.01
0.31	313.15	251	0.121	0.01
0.31	323.17	259	0.121	0.01
0.31	333.27	267.5	0.121	0.01
0.31	343.18	275.8	0.121	0.01
0.31	353.17	284.2	0.121	0.01
0.31	363.15	292.6	0.121	0.01
0.31	373.2	301	0.121	0.01
0.31	383.28	309.5	0.121	0.01
0.31	393.13	317.8	0.121	0.01
0.31	403.18	326.4	0.121	0.01
0.31	413.34	334.9	0.121	0.01
0.496	288.33	665.7	0.051	0.01
0.496	293.33	681.4	0.051	0.01
0.496	303.16	711.2	0.051	0.01
0.496	313.24	738.5	0.051	0.01
0.496	323.19	765.2	0.051	0.01
0.496	333.2	792	0.051	0.01
0.496	343.23	818.7	0.051	0.01
0.496	353.24	845	0.051	0.01
0.496	363.25	871.2	0.051	0.01
0.496	373.23	897.8	0.051	0.01
0.496	383.33	924.1	0.051	0.01
0.496	393.32	950.3	0.051	0.01
0.496	403.27	976.2	0.051	0.01
0.496	413.3	1002.5	0.052	0.01
0.513	273.11	305.7	0.113	0.01
0.513	283.38	319	0.113	0.01
0.513	293.06	330.6	0.113	0.01
0.513	303.23	342.7	0.113	0.01
0.513	313.19	354.4	0.113	0.01
0.513	323.19	366.1	0.113	0.01
0.513	333.25	378.1	0.113	0.01
0.513	343.16	389.7	0.113	0.01
0.513	353.22	401.5	0.113	0.01
0.513	363.24	413.1	0.114	0.01
0.513	373.1	424.6	0.114	0.01
0.513	383.3	437	0.114	0.01
0.513	393.22	448.6	0.114	0.01
0.513	403.17	460.3	0.114	0.01
0.513	413.18	472	0.114	0.01
0.748	283.29	1326.6	0.041	0.01
0.748	293.17	1381	0.041	0.01
0.748	303.16	1435.1	0.041	0.01
0.748	313.2	1488.8	0.041	0.01
0.748	323.29	1542.4	0.041	0.01
0.748	333.25	1595.7	0.041	0.01
0.748	343.23	1648.5	0.041	0.01
0.748	353.23	1701.4	0.041	0.01
0.748	363.28	1754.1	0.041	0.01
0.748	373.27	1806.6	0.041	0.01
0.748	383.31	1859.5	0.041	0.01
0.748	393.33	1911.9	0.041	0.01
0.748	403.26	1963.8	0.041	0.01
0.748	413.29	2016	0.041	0.01
0.747	263.12	541.7	0.092	0.01
0.747	273.19	565.7	0.092	0.01
0.747	283.3	588.9	0.092	0.01
0.747	293.03	611.2	0.092	0.01
0.747	303.22	634.1	0.092	0.01
0.747	313.23	657.6	0.092	0.01
0.747	323.35	680.5	0.092	0.01
0.747	333.2	702.6	0.092	0.01
0.747	343.25	725.3	0.092	0.01
0.747	353.15	747.4	0.092	0.01
0.747	363.21	770.2	0.092	0.01
0.747	373.27	792.6	0.092	0.01
0.747	383.25	815	0.092	0.01
0.747	393.14	837.2	0.092	0.01
0.747	403.21	860	0.092	0.01
0.747	413.23	881.9	0.092	0.01
0.261	313.15	995.8	0.026	0.01
0.261	323.21	1040.8	0.026	0.01
0.261	333.25	1083.7	0.026	0.01
0.261	343.12	1126.5	0.026	0.01
0.261	353.23	1167.7	0.026	0.01
0.261	363.16	1209.5	0.026	0.01
0.261	373.1	1251.1	0.026	0.01
0.261	383.18	1291.3	0.026	0.01
0.261	393.06	1327	0.026	0.01
0.261	403.12	1366.9	0.026	0.01
0.261	413.15	1405.5	0.026	0.01
0.251	293.26	456.1	0.056	0.01
0.251	303.15	474.1	0.056	0.01
0.251	323.17	510.4	0.056	0.01
0.251	343.11	546.9	0.056	0.01
0.251	373.23	600.7	0.056	0.01
0.251	413.38	671.6	0.056	0.01
0.513	313.22	1512.1	0.024	0.01
0.513	323.27	1573.2	0.024	0.01
0.513	333.18	1636.8	0.024	0.01
0.513	343.34	1700.6	0.024	0.01
0.513	353.34	1759	0.024	0.01
0.513	363.19	1820.5	0.024	0.01
0.513	373.11	1881.5	0.024	0.01
0.513	383.17	1940.6	0.025	0.01
0.513	393.1	2000.7	0.025	0.01
0.513	403.03	2059.7	0.025	0.01
0.513	412.96	2117.2	0.025	0.01

System: nitrogen + trans-1,3,3,3-tetrafluoropropene; phases: Gas
Property: Specific volume, m3/kg (Gas); method: ISOCHOR
Mole fraction of nitrogen	Temperature, K	Pressure, kPa	Specific volume, m3/kg	uncertainty
0.254	303.18	196.3	0.136	0.01
0.254	313.14	203.2	0.136	0.01
0.254	323.13	209.9	0.136	0.01
0.254	333.34	216.7	0.136	0.01
0.254	343.12	223.3	0.136	0.01
0.254	353.08	229.5	0.136	0.01
0.254	363.06	236.3	0.136	0.01
0.254	373	242.6	0.136	0.01
0.254	383.26	249.6	0.136	0.01
0.254	393.14	256.3	0.136	0.01
0.254	403.14	262.9	0.137	0.01
0.254	413.13	269.4	0.137	0.01
0.25	303.19	381.3	0.069	0.01
0.25	313.17	396.1	0.069	0.01
0.25	323.15	410.2	0.069	0.01
0.25	333.16	423.9	0.069	0.01
0.25	343.14	438.2	0.069	0.01
0.25	353.05	451.9	0.069	0.01
0.25	363.1	465.8	0.069	0.01
0.25	373.1	479.5	0.069	0.01
0.25	383.06	494.4	0.069	0.01
0.25	393.05	508.1	0.069	0.01
0.25	403.04	521.2	0.069	0.01
0.25	413.01	535.2	0.069	0.01
0.495	283.07	291.8	0.11	0.01
0.495	293.08	302.8	0.11	0.01
0.495	303.05	313.9	0.11	0.01
0.495	313.18	324.5	0.11	0.01
0.495	323.17	335.3	0.11	0.01
0.495	333.18	346.1	0.11	0.01
0.495	343.12	356.8	0.11	0.01
0.495	353.11	367.5	0.111	0.01
0.495	363.1	378.2	0.111	0.01
0.495	373.09	389.2	0.111	0.01
0.495	383.09	399.9	0.111	0.01
0.495	393.08	410.6	0.111	0.01
0.495	402.99	421.1	0.111	0.01
0.495	413	432.1	0.111	0.01
0.5	273.19	464.3	0.066	0.01
0.5	283.12	485.7	0.066	0.01
0.5	293.11	506.5	0.066	0.01
0.5	303.16	525.9	0.066	0.01
0.5	313.17	545.2	0.066	0.01
0.5	323.17	564	0.066	0.01
0.5	333.17	582.8	0.066	0.01
0.5	343.11	601.4	0.066	0.01
0.5	353.1	619.5	0.066	0.01
0.5	363.12	638.7	0.066	0.01
0.5	373.09	657	0.066	0.01
0.5	383.05	675.5	0.066	0.01
0.5	393.06	694	0.066	0.01
0.5	403.05	712.5	0.066	0.01
0.5	413.1	731	0.066	0.01
0.75	263.05	383.1	0.114	0.01
0.75	273.12	398.4	0.114	0.01
0.75	283.1	413.5	0.114	0.01
0.75	293.13	428.7	0.114	0.01
0.75	303.17	443.8	0.114	0.01
0.75	313.18	458.8	0.114	0.01
0.75	323.16	473.2	0.114	0.01
0.75	333.19	488.7	0.114	0.01
0.75	343.14	503.4	0.114	0.01
0.75	353.13	518.1	0.114	0.01
0.75	363.25	533.3	0.114	0.01
0.75	373.07	547.3	0.114	0.01
0.75	383.09	562.6	0.114	0.01
0.75	393.06	577.5	0.114	0.01
0.75	403.04	592.5	0.114	0.01
0.75	413.06	607.4	0.114	0.01
0.746	263.16	622.6	0.069	0.01
0.746	273.13	648.5	0.069	0.01
0.746	283.1	673.7	0.069	0.01
0.746	293.09	699	0.069	0.01
0.746	303.35	724.8	0.069	0.01
0.746	313.2	749.1	0.069	0.01
0.746	323.17	773.9	0.069	0.01
0.746	333.17	799.4	0.069	0.01
0.746	343.13	823.9	0.069	0.01
0.746	353.13	848.5	0.069	0.01
0.746	363.1	872.9	0.069	0.01
0.746	373.16	897.7	0.069	0.01
0.746	383.08	922.8	0.069	0.01
0.746	393.13	947.3	0.069	0.01
0.746	403.1	971.7	0.069	0.01
0.746	413.04	995.8	0.069	0.01
