Measured thermophysical data. Solubility, Activity Coefficients, and Protonation Sequence of Risedronic Acid
Source: J. Chem. Eng. Data, 2014, 10.1021/je500621v
Compound 1: risedronic acid, C7H11NO7P2, InChI=1S/C7H11NO7P2/c9-7(16(10,11)12,17(13,14)15)4-6-2-1-3-8-5-6/h1-3,5,9H,4H2,(H2,10,11,12)(H2,13,14,15), purity 99%
Compound 2: sodium chloride, ClNa, InChI=1S/ClH.Na/h1H;/q;+1/p-1, purity 99.9%
Compound 3: water, H2O, InChI=1S/H2O/h1H2, purity 99.9%
Compound 4: tetraethylammonium iodide, C8H20IN, InChI=1S/C8H20N.HI/c1-5-9(6-2,7-3)8-4;/h5-8H2,1-4H3;1H/q+1;/p-1, purity 99%

System: sodium chloride + water + risedronic acid; phases: Liquid, Crystal
Fixed: Pressure, kPa = 101
Fixed: Temperature, K = 298.15
Property: Molality, mol/kg of risedronic acid (Liquid); method: Titration
Solvent: Molality, mol/kg of sodium chloride	Molality, mol/kg of risedronic acid	uncertainty
0.006	0.002729	8.7e-05
0.006	0.002729	8.7e-05
0.006	0.00271	8.6e-05
0.111	0.003311	0.000106
0.111	0.003177	0.000101
0.111	0.003162	0.000101
0.505	0.004236	0.000135
0.505	0.004256	0.000136
0.971	0.004742	0.000151
0.971	0.004797	0.000153
2.992	0.004786	0.000153
2.992	0.004808	0.000153
3.018	0.004898	0.000156
3.018	0.004977	0.000159
4.13	0.00455	0.000145
4.13	0.004571	0.000146
5.344	0.004009	0.000128
5.408	0.00375	0.00012
5.408	0.00375	0.00012

System: tetraethylammonium iodide + water + risedronic acid; phases: Liquid, Crystal
Fixed: Pressure, kPa = 101
Fixed: Temperature, K = 298.15
Property: Molality, mol/kg of risedronic acid (Liquid); method: UNKNOWN
Solvent: Molality, mol/kg of tetraethylammonium iodide	Molality, mol/kg of risedronic acid	uncertainty
0.119	0.0025823	8.24e-05
0.119	0.0025704	8.2e-05
0.205	0.0026122	8.33e-05
0.205	0.0026303	8.39e-05
0.521	0.002355	7.51e-05
0.521	0.002355	7.51e-05
0.629	0.002133	6.8e-05
0.942	0.0017989	5.74e-05
0.942	0.0017989	5.74e-05
0.942	0.0017906	5.71e-05
