Measured thermophysical data. Solubility of Two Polymorphs of Erlotinib Hydrochloride in Isopropanol and Acetone from (273.15 to 303.15) K
Source: J. Chem. Eng. Data, 2014, 10.1021/je500482k
Compound 1: propan-2-ol, C3H8O, InChI=1S/C3H8O/c1-3(2)4/h3-4H,1-2H3, purity 99.5%
Compound 2: N-(3-ethynylphenyl)-6,7-bis(2-methoxyethoxy)quinazolin-4-amine hydrochloride, C22H24ClN3O4, InChI=1S/C22H23N3O4.ClH/c1-4-16-6-5-7-17(12-16)25-22-18-13-20(28-10-8-26-2)21(29-11-9-27-3)14-19(18)23-15-24-22;/h1,5-7,12-15H,8-11H2,2-3H3,(H,23,24,25);1H, purity 99.5%
Compound 3: acetone, C3H6O, InChI=1S/C3H6O/c1-3(2)4/h1-2H3, purity 99.5%

System: propan-2-ol + N-(3-ethynylphenyl)-6,7-bis(2-methoxyethoxy)quinazolin-4-amine hydrochloride; phases: Liquid, Metastable crystal
Fixed: Pressure, kPa = 100
Property: Mole fraction of N-(3-ethynylphenyl)-6,7-bis(2-methoxyethoxy)quinazolin-4-amine hydrochloride (Liquid); method: HPLC
Temperature, K	Mole fraction of N-(3-ethynylphenyl)-6,7-bis(2-methoxyethoxy)quinazolin-4-amine hydrochloride	uncertainty
273.15	7.3774e-06	1.1829e-06
278.15	9.2507e-06	1.4824e-06
283.15	1.13661e-05	1.8208e-06
288.15	1.35355e-05	2.1677e-06
293.15	1.57586e-05	2.5232e-06
298.15	1.80722e-05	2.8946e-06
303.15	2.21184e-05	3.543e-06

System: propan-2-ol + N-(3-ethynylphenyl)-6,7-bis(2-methoxyethoxy)quinazolin-4-amine hydrochloride; phases: Liquid, Crystal
Fixed: Pressure, kPa = 100
Property: Mole fraction of N-(3-ethynylphenyl)-6,7-bis(2-methoxyethoxy)quinazolin-4-amine hydrochloride (Liquid); method: HPLC
Temperature, K	Mole fraction of N-(3-ethynylphenyl)-6,7-bis(2-methoxyethoxy)quinazolin-4-amine hydrochloride	uncertainty
273.15	5.1631e-06	8.267e-07
278.15	5.8913e-06	9.436e-07
283.15	7.2688e-06	1.1641e-06
288.15	8.3097e-06	1.3305e-06
293.15	9.6323e-06	1.5422e-06
298.15	1.09829e-05	1.7587e-06
303.15	1.29989e-05	2.0816e-06

System: acetone + N-(3-ethynylphenyl)-6,7-bis(2-methoxyethoxy)quinazolin-4-amine hydrochloride; phases: Liquid, Metastable crystal
Fixed: Pressure, kPa = 100
Property: Mole fraction of N-(3-ethynylphenyl)-6,7-bis(2-methoxyethoxy)quinazolin-4-amine hydrochloride (Liquid); method: HPLC
Temperature, K	Mole fraction of N-(3-ethynylphenyl)-6,7-bis(2-methoxyethoxy)quinazolin-4-amine hydrochloride	uncertainty
273.15	2.4349e-06	3.898e-07
278.15	2.7286e-06	4.368e-07
283.15	3.0435e-06	4.872e-07
288.15	3.3411e-06	5.348e-07
293.15	3.6558e-06	5.851e-07
298.15	3.9008e-06	6.243e-07
303.15	4.3257e-06	6.924e-07

System: acetone + N-(3-ethynylphenyl)-6,7-bis(2-methoxyethoxy)quinazolin-4-amine hydrochloride; phases: Liquid, Crystal
Fixed: Pressure, kPa = 100
Property: Mole fraction of N-(3-ethynylphenyl)-6,7-bis(2-methoxyethoxy)quinazolin-4-amine hydrochloride (Liquid); method: HPLC
Temperature, K	Mole fraction of N-(3-ethynylphenyl)-6,7-bis(2-methoxyethoxy)quinazolin-4-amine hydrochloride	uncertainty
273.15	1.4298e-06	2.289e-07
278.15	1.6022e-06	2.565e-07
283.15	1.7872e-06	2.861e-07
288.15	1.9618e-06	3.14e-07
293.15	2.1468e-06	3.436e-07
298.15	2.2905e-06	3.666e-07
303.15	2.5401e-06	4.066e-07
