Measured thermophysical data. Low Temperature Densities from (218 to 364) K and up to 50 MPa in Pressure and Surface Tension for Trihexyl(tetradecyl)phosphonium Bis(trifluoromethylsulfonyl)imide and Dicyanamide and 1-Hexyl-3-methylimidazolium Hexafluorophosphate
Source: J. Chem. Eng. Data, 2014, 10.1021/je500239t
Compound 1: trihexyl(tetradecyl)phosphonium bis[(trifluoromethyl)sulfonyl]imide, C34H68F6NO4PS2, InChI=1S/C32H68P.C2F6NO4S2/c1-5-9-13-17-18-19-20-21-22-23-24-28-32-33(29-25-14-10-6-2,30-26-15-11-7-3)31-27-16-12-8-4;3-1(4,5)14(10,11)9-15(12,13)2(6,7)8/h5-32H2,1-4H3;/q+1;-1
Compound 2: tetradecyl(trihexyl)phosphonium dicyanamide, C34H68N3P, InChI=1S/C32H68P.C2N3/c1-5-9-13-17-18-19-20-21-22-23-24-28-32-33(29-25-14-10-6-2,30-26-15-11-7-3)31-27-16-12-8-4;3-1-5-2-4/h5-32H2,1-4H3;/q+1;-1
Compound 3: 1-hexyl-3-methylimidazolium hexafluorophosphate, C10H19F6N2P, InChI=1S/C10H19N2.F6P/c1-3-4-5-6-7-12-9-8-11(2)10-12;1-7(2,3,4,5)6/h8-10H,3-7H2,1-2H3;/q+1;-1

System: trihexyl(tetradecyl)phosphonium bis[(trifluoromethyl)sulfonyl]imide; phases: Liquid
Property: Mass density, kg/m3 (Liquid); method: ISOCHOR
Temperature, K	Pressure, kPa	Mass density, kg/m3	uncertainty
298.165	191.9	1068.8	1.45
298.167	19640	1081.39	1.45
288.914	10149	1082.04	1.45
308.08	30024	1080.67	1.45
318.028	39710	1079.97	1.45
328.985	49945	1079.21	1.45
281.02	1048.9	1082.63	1.45
307.846	10007.4	1068.57	1.45
299.08	1497.9	1069.18	1.45
318.079	19796.8	1067.86	1.45
329.129	30007	1067.09	1.45
339.972	40003	1066.34	1.45
350.84	50030	1065.58	1.44
328.726	10024	1053.67	1.44
318.959	1508.5	1054.33	1.44
353.152	31348	1052.01	1.44
340.034	20057	1052.9	1.44
353.161	11244	1038.09	1.43
340.84	1346	1038.9	1.43
340.844	10036	1045.42	1.44
353.148	20345	1044.59	1.44
329.824	733.9	1046.15	1.44
329.835	19983	1059.65	1.44
353.155	40207	1058.06	1.44
341.21	30097	1058.87	1.44
318.157	9063.9	1060.46	1.44
309.271	1043.1	1061.06	1.44
288.922	30030	1093.15	1.46
280.161	20417	1093.79	1.46
270.689	9770.1	1094.49	1.46
263.549	901	1095.02	1.46
298.003	39766	1092.49	1.46
307.499	49581	1091.81	1.46
270.613	30010	1105.4	1.46
262.298	20026	1106.02	1.46
254.362	9848.1	1106.63	1.46
247.707	1577.7	1107.13	1.46
279.463	39911	1104.75	1.46
288.561	49907	1104.08	1.46
254.338	29998	1115.78	1.47
246.698	20172	1116.37	1.47
233.472	2869.4	1117.39	1.47
254.339	29850	1115.68	1.47
262.462	40028	1115.06	1.47
270.949	49862	1114.43	1.47
239.496	10003	1116.86	1.47
239.506	29986	1124.87	1.47
247.353	40212	1124.27	1.47
255.793	51007	1123.62	1.47
232.158	19479	1125.46	1.47
225.426	10086	1125.99	1.47
219.01	845.2	1126.5	1.47
225.426	30200	1132.83	1.48

System: trihexyl(tetradecyl)phosphonium bis[(trifluoromethyl)sulfonyl]imide; phases: Liquid
Fixed: Pressure, kPa = 100
Property: Mass density, kg/m3 (Liquid); method: ISOCHOR
Temperature, K	Mass density, kg/m3	uncertainty
268.29	1090.79	0.8
273.26	1087.18	0.8
278.4	1083.71	0.8
283.3	1079.84	0.79
288.55	1076.14	0.79
292.93	1072.95	0.79
298.19	1068.54	0.78
303.24	1065.2	0.78
308.01	1061.72	0.78
313.17	1057.68	0.77
318.05	1054.69	0.77
323.08	1051.01	0.77
328.31	1047.34	0.77
333.03	1044.1	0.76
338.51	1040.38	0.76
342.84	1037.08	0.76
348.34	1033.83	0.76
353.13	1030.2	0.75
358.18	1026.93	0.75
364.28	1022.11	0.75

System: trihexyl(tetradecyl)phosphonium bis[(trifluoromethyl)sulfonyl]imide; phases: Liquid, Air at 1 atmosphere
Property: Surface tension liquid-gas, N/m (Liquid); method: Ring tensiometer
Temperature, K	Surface tension liquid-gas, N/m	uncertainty
273.52	0.03151	0.0005
278.52	0.03121	0.00049
283.39	0.03094	0.00049
288.38	0.03066	0.00049
293.37	0.03035	0.00048
298.25	0.03011	0.00048
303.15	0.02982	0.00047
308.21	0.02937	0.00047
313.21	0.02915	0.00046
318.23	0.02886	0.00046
323.28	0.02854	0.00046
328.28	0.02799	0.00046
333.15	0.02789	0.00045
338.1	0.02759	0.00045
343.05	0.0273	0.00044
348.34	0.02692	0.00044
353.32	0.02656	0.00043
358.1	0.02638	0.00043
364.97	0.02593	0.00043
273.49	0.03149	0.0005
278.33	0.03118	0.00049
283.37	0.03085	0.00049
288.5	0.03056	0.00048
293.37	0.03035	0.00048
298.24	0.03013	0.00048
303.17	0.02989	0.00047
308.18	0.02956	0.00047
313.22	0.02924	0.00046
318.2	0.02903	0.00046
323.19	0.02856	0.00046
328.11	0.02834	0.00046
333.15	0.02798	0.00045
338.13	0.02794	0.00045
343	0.02746	0.00044
348	0.02714	0.00044
353.33	0.02679	0.00044
358.49	0.02645	0.00043
364.76	0.02601	0.00043

System: tetradecyl(trihexyl)phosphonium dicyanamide; phases: Liquid
Property: Mass density, kg/m3 (Liquid); method: ISOCHOR
Temperature, K	Pressure, kPa	Mass density, kg/m3	uncertainty
298.147	119.7	898.63	2.27
298.143	20028	907.66	2.31
306.529	28505	907.16	2.31
289.741	10390	908.18	2.31
281.409	1813.9	908.67	2.31
316.647	39471	906.55	2.3
327.542	49978	905.9	2.3
307.055	9995.2	898.22	2.26
298.398	1119.7	898.73	2.27
316.644	19643	897.65	2.26
327.667	30114	897.01	2.26
338.634	41032	896.36	2.26
348.374	49973	895.79	2.25
327.659	10032	887.3	2.21
338.233	19830	886.69	2.21
318.368	1160.7	887.84	2.21
349.279	29863	886.05	2.21
349.274	10043	875.89	2.16
339.216	1500.6	876.45	2.16
289.036	30059	917.24	2.36
280.336	20094	917.77	2.36
271.537	9121.6	918.33	2.36
265.01	1331.4	918.74	2.36
297.727	39781	916.7	2.35
307.267	49935	916.12	2.35
271.947	29894	926.34	2.4
279.985	39498	925.84	2.4
288.089	48847	925.34	2.4
263.312	20048	927.4	2.41
255.19	9753	927.91	2.41
248.446	1061.1	928.34	2.41
247.901	20013	935.78	2.45
240.449	9948.1	936.26	2.45
255.476	30358	935.75	2.45
263.193	40368	935.25	2.45
255.466	29932	935.43	2.45
271.011	49601	934.43	2.44

System: tetradecyl(trihexyl)phosphonium dicyanamide; phases: Liquid
Fixed: Pressure, kPa = 100
Property: Mass density, kg/m3 (Liquid); method: ISOCHOR
Temperature, K	Mass density, kg/m3	uncertainty
262.34	919.18	2.37
268.5	915.58	2.35
273.37	912.9	2.34
278.2	910.1	2.32
283.3	907.06	2.31
288.37	904.29	2.29
293.14	901.37	2.28
298.21	898.81	2.27
303.08	895.87	2.25
308.18	892.91	2.24
313.09	890.2	2.23
318.03	887.53	2.21
323.32	884.69	2.2
328.16	881.94	2.19
332.96	879.42	2.17
338.03	876.79	2.16
342.86	873.89	2.15
348.12	871.1	2.14
353.28	868.29	2.12
358	865.81	2.11
364.53	862.18	2.09

System: tetradecyl(trihexyl)phosphonium dicyanamide; phases: Liquid, Air at 1 atmosphere
Property: Surface tension liquid-gas, N/m (Liquid); method: Ring tensiometer
Temperature, K	Surface tension liquid-gas, N/m	uncertainty
283.57	0.03246	0.00073
288.09	0.03193	0.00072
293.35	0.03185	0.00071
298.2	0.03168	0.00071
303.15	0.03098	0.0007
308.16	0.03028	0.00068
313.21	0.02967	0.00067
318.29	0.02957	0.00067
323.39	0.02941	0.00066
328.05	0.02872	0.00065
333.58	0.02862	0.00065
338.55	0.02821	0.00064
343.55	0.02783	0.00063
348.56	0.02759	0.00063
353.46	0.02645	0.0006
358.44	0.02617	0.00062
365.15	0.02574	0.00059
283.61	0.03269	0.00073
288.08	0.03254	0.00073
293.41	0.03202	0.00072
298.24	0.03182	0.00071
303.2	0.03132	0.0007
308.17	0.03084	0.00069
313.25	0.0304	0.00068
318.3	0.03008	0.00068
323.33	0.02965	0.00067
328.09	0.02918	0.00066
333.58	0.02877	0.00065
338.57	0.02835	0.00064
343.57	0.02793	0.00063
348.64	0.02756	0.00063
353.49	0.02711	0.00062
358.57	0.0267	0.00063
365.21	0.02614	0.0006

System: 1-hexyl-3-methylimidazolium hexafluorophosphate; phases: Liquid
Property: Mass density, kg/m3 (Liquid); method: ISOCHOR
Temperature, K	Pressure, kPa	Mass density, kg/m3	uncertainty
298.161	127.6	1293.38	1.82
300.723	20089	1301.27	1.82
293.332	11116	1301.92	1.82
285.977	1730.8	1302.58	1.82
308.932	30141	1300.53	1.82
318.19	41900	1299.68	1.82
325.525	47639	1299.1	1.82
308.929	10526	1290.11	1.82
316.343	18783	1289.47	1.82
301.51	940.4	1290.78	1.82
325.703	29844	1288.64	1.82
336.109	41946	1287.71	1.82
347.934	50753	1286.78	1.82
325.86	10002	1276.79	1.82
334.933	20139	1276.01	1.82
345.063	30866	1275.14	1.82
318.477	1643.7	1277.43	1.82
353.148	40148	1274.42	1.82
345.064	10024	1262.06	1.82
336.594	1430	1262.76	1.82
353.149	18882	1261.36	1.82
353.162	10034	1256.16	1.82
344.61	1230.6	1256.88	1.82
293.383	30030	1312.37	1.82
285.885	20217	1313.06	1.82
278.387	10230	1313.74	1.82
272.251	1996.3	1314.31	1.82
301.064	39951	1311.66	1.82
309.515	50444	1310.89	1.82
278.374	29980	1323.33	1.82
271.115	19945	1324.01	1.82
264.306	10326	1324.65	1.82
258.251	1630.4	1325.22	1.82
285.602	39832	1322.66	1.82
294.298	49916	1321.89	1.82
264.302	29775	1334.34	1.82
257.326	19488	1335.01	1.82
251.033	10204	1335.6	1.82
244.906	1121.9	1336.19	1.82
271.723	40378	1333.63	1.82
251.053	29930	1344.61	1.82
264.817	50312	1343.28	1.82
244.581	20078	1345.49	1.82
257.739	40140	1344.21	1.82
238.378	10065	1345.53	1.82
232.755	1468.4	1346.06	1.82
238.316	29843	1354.3	1.82
250.818	49360	1353.07	1.82
244.526	39522	1353.69	1.82
232.439	20355	1354.89	1.82
226.304	10334	1355.5	1.82
221.314	2190	1355.99	1.82
226.337	30167	1363.64	1.82
239.109	50924	1362.36	1.82
232.2	39852	1363.05	1.82
220.784	20693	1364.2	1.82
264.315	29966	1334.29	1.82
278.814	49975	1332.93	1.82

System: 1-hexyl-3-methylimidazolium hexafluorophosphate; phases: Liquid
Fixed: Pressure, kPa = 100
Property: Mass density, kg/m3 (Liquid); method: ISOCHOR
Temperature, K	Mass density, kg/m3	uncertainty
277.88	1308.85	0.56
283.3	1304.78	0.56
288.37	1300.82	0.56
293.01	1296.84	0.56
298.21	1293.14	0.56
303	1289.6	0.55
308.05	1285.34	0.55
313.17	1280.96	0.55
317.93	1277.34	0.55
323.16	1273.19	0.55
328.09	1269.64	0.55
333.28	1265.48	0.55
338.63	1261.76	0.55
343.3	1257.98	0.55
348.55	1254.47	0.55
353.61	1250.75	0.55
358.19	1247.22	0.55
364.46	1242.36	0.55
