Measured thermophysical data. Determination and Correlation of Solubilities of 2-Isopropylthioxanthone (ITX) in Seven Different Solvents from (299.15 to 329.85) K
Source: J. Chem. Eng. Data, 2015, 10.1021/je501011t
Compound 1: 2-isopropylthioxanthone, C16H14OS, InChI=1S/C16H14OS/c1-10(2)11-7-8-15-13(9-11)16(17)12-5-3-4-6-14(12)18-15/h3-10H,1-2H3, purity 98%
Compound 2: methanol, CH4O, InChI=1S/CH4O/c1-2/h2H,1H3, purity 99.5%
Compound 3: ethanol, C2H6O, InChI=1S/C2H6O/c1-2-3/h3H,2H2,1H3, purity 99.5%
Compound 4: acetone, C3H6O, InChI=1S/C3H6O/c1-3(2)4/h1-2H3, purity 99.5%
Compound 5: toluene, C7H8, InChI=1S/C7H8/c1-7-5-3-2-4-6-7/h2-6H,1H3, purity 99.5%
Compound 6: ethyl acetate, C4H8O2, InChI=1S/C4H8O2/c1-3-6-4(2)5/h3H2,1-2H3, purity 99.5%
Compound 7: 1,4-dioxane, C4H8O2, InChI=1S/C4H8O2/c1-2-6-4-3-5-1/h1-4H2, purity 99.5%
Compound 8: 1,2-dichloroethane, C2H4Cl2, InChI=1S/C2H4Cl2/c3-1-2-4/h1-2H2, purity 99.5%

System: methanol + 2-isopropylthioxanthone; phases: Liquid, Crystal
Fixed: Pressure, kPa = 100
Property: Mole fraction of 2-isopropylthioxanthone (Liquid); method: Laser beam
Temperature, K	Mole fraction of 2-isopropylthioxanthone	uncertainty
299.15	0.005556	0.000355
302.15	0.006426	0.000411
305.15	0.007614	0.000487
308.15	0.009112	0.000584
311.15	0.011347	0.000728
314.15	0.014485	0.000933
317.15	0.019619	0.001265
320.15	0.026412	0.001697

System: ethanol + 2-isopropylthioxanthone; phases: Liquid, Crystal
Fixed: Pressure, kPa = 100
Property: Mole fraction of 2-isopropylthioxanthone (Liquid); method: Laser beam
Temperature, K	Mole fraction of 2-isopropylthioxanthone	uncertainty
305.65	0.042363	0.002714
307.95	0.049281	0.003155
309.65	0.055651	0.00358
312.15	0.070344	0.004552
315.15	0.099964	0.006516
318.15	0.15383	0.01015
321.15	0.26004	0.01693

System: acetone + 2-isopropylthioxanthone; phases: Liquid, Crystal
Fixed: Pressure, kPa = 100
Property: Mole fraction of 2-isopropylthioxanthone (Liquid); method: Laser beam
Temperature, K	Mole fraction of 2-isopropylthioxanthone	uncertainty
299.15	0.12623	0.0081
303.15	0.16747	0.01073
307.15	0.21937	0.01404
310.15	0.2662	0.01701
314.25	0.31946	0.02038
317.15	0.3578	0.02281
320.15	0.3833	0.02443
323.15	0.41727	0.02659

System: toluene + 2-isopropylthioxanthone; phases: Liquid, Crystal
Fixed: Pressure, kPa = 100
Property: Mole fraction of 2-isopropylthioxanthone (Liquid); method: Laser beam
Temperature, K	Mole fraction of 2-isopropylthioxanthone	uncertainty
304.65	0.33192	0.02117
308.15	0.37372	0.02382
311.65	0.41228	0.02628
315.15	0.45331	0.02889
318.15	0.48891	0.03116
321.05	0.52597	0.03352

System: ethyl acetate + 2-isopropylthioxanthone; phases: Liquid, Crystal
Fixed: Pressure, kPa = 100
Property: Mole fraction of 2-isopropylthioxanthone (Liquid); method: Laser beam
Temperature, K	Mole fraction of 2-isopropylthioxanthone	uncertainty
305.25	0.19228	0.01235
308.15	0.23957	0.01532
311.65	0.28273	0.01806
314.15	0.32452	0.02071
317.05	0.35454	0.02262
320.15	0.40932	0.02611
323.65	0.46103	0.02939
327.15	0.51127	0.03259

System: 1,4-dioxane + 2-isopropylthioxanthone; phases: Liquid, Crystal
Fixed: Pressure, kPa = 100
Property: Mole fraction of 2-isopropylthioxanthone (Liquid); method: Laser beam
Temperature, K	Mole fraction of 2-isopropylthioxanthone	uncertainty
307.15	0.33971	0.02167
310.15	0.38075	0.02428
314.05	0.42936	0.02737
317.15	0.4746	0.03025
320.05	0.51244	0.03265
323.15	0.54318	0.03461
326.65	0.58893	0.03753
329.85	0.63689	0.04058

System: 1,2-dichloroethane + 2-isopropylthioxanthone; phases: Liquid, Crystal
Fixed: Pressure, kPa = 100
Property: Mole fraction of 2-isopropylthioxanthone (Liquid); method: Laser beam
Temperature, K	Mole fraction of 2-isopropylthioxanthone	uncertainty
306.25	0.392	0.02499
309.15	0.42437	0.02705
311.25	0.45455	0.02896
315.15	0.48566	0.03094
318.15	0.51592	0.03287
321.15	0.54637	0.0348
324.65	0.5724	0.03647
326.85	0.61476	0.03919
