Measured thermophysical data. Fast Determination of Binary Vapor Liquid Equilibrium of CO2-Based Mixtures at Elevated Pressures
Source: J. Chem. Eng. Data, 2015, 10.1021/je501023n
Compound 1: carbon dioxide, CO2, InChI=1S/CO2/c2-1-3
Compound 2: ethyl butanoate, C6H12O2, InChI=1S/C6H12O2/c1-3-5-6(7)8-4-2/h3-5H2,1-2H3, purity 99.9%
Compound 3: diethylene glycol diethyl ether, C8H18O3, InChI=1S/C8H18O3/c1-3-9-5-7-11-8-6-10-4-2/h3-8H2,1-2H3, purity 99.9%
Compound 4: 2-methylpropyl ethanoate, C6H12O2, InChI=1S/C6H12O2/c1-5(2)4-8-6(3)7/h5H,4H2,1-3H3, purity 99.9%

System: ethyl butanoate + carbon dioxide; phases: Liquid, Gas
Property: Vapor or sublimation pressure, kPa (Liquid); method: Closed cell (Static) method
Mole fraction of carbon dioxide	Temperature, K	Vapor or sublimation pressure, kPa	uncertainty
0.1583	313.15	550	650
0.2426	313.15	1130	730
0.2992	313.15	1460	740
0.3827	313.15	2150	770
0.4623	313.15	2780	830
0.5188	313.15	3250	870
0.5512	313.15	3530	860
0.5937	313.15	3920	920
0.6727	313.15	4660	1010
0.7121	313.15	5070	1060
0.7515	313.15	5510	1100
0.8001	313.15	6040	1210
0.8443	313.15	6570	1410
0.8804	313.15	7070	1210
0.9084	313.15	7520	1250
0.9621	313.15	8600	650
0.1793	323.15	650	1060
0.2325	323.15	1190	1150
0.2771	323.15	1840	1070
0.3426	323.15	2450	1180
0.3945	323.15	2940	1070
0.4534	323.15	3740	1020
0.4921	323.15	4030	1090
0.5341	323.15	4520	1170
0.5592	323.15	4790	1230
0.5958	323.15	5240	1220
0.6575	323.15	5940	1190
0.6868	323.15	6380	1200
0.7407	323.15	6890	1240
0.8015	323.15	7600	1230
0.8657	323.15	8460	1130
0.9428	323.15	9310	720
0.2331	333.15	1360	1080
0.2499	333.15	1610	1030
0.3289	333.15	2420	1100
0.3801	333.15	2950	1080
0.5018	333.15	4330	1190
0.5284	333.15	4650	1220
0.5945	333.15	5430	1230
0.6194	333.15	5800	1330
0.6558	333.15	6320	1360
0.6959	333.15	6890	1470
0.7239	333.15	7280	1510
0.7598	333.15	7810	1610
0.7968	333.15	8410	1730
0.8392	333.15	9120	1600
0.8721	333.15	9790	1760
0.9049	333.15	10500	1840

System: ethyl butanoate + carbon dioxide; phases: Gas, Liquid
Property: Mole fraction of carbon dioxide (Gas); method: Chromatography
Mole fraction of carbon dioxide	Temperature, K	Mole fraction of carbon dioxide	uncertainty
0.1583	313.15	0.9978	0.0022
0.2426	313.15	0.9965	0.0035
0.2992	313.15	0.9988	0.0012
0.3827	313.15	0.9989	0.0011
0.4623	313.15	0.9994	0.0006
0.5188	313.15	0.9991	0.0009
0.5512	313.15	0.9989	0.0011
0.5937	313.15	0.9987	0.0013
0.6727	313.15	0.9993	0.0007
0.7121	313.15	0.9988	0.0012
0.7515	313.15	0.9952	0.0048
0.8001	313.15	0.9987	0.0013
0.8443	313.15	0.9993	0.0007
0.8804	313.15	0.9952	0.0048
0.9084	313.15	0.9898	0.0102
0.9621	313.15	0.9679	0.0321
0.1793	323.15	0.9866	0.0134
0.2325	323.15	0.9889	0.0111
0.2771	323.15	0.9754	0.0246
0.3426	323.15	0.9851	0.0149
0.3945	323.15	0.9788	0.0212
0.4534	323.15	0.9767	0.0233
0.4921	323.15	0.9853	0.0147
0.5341	323.15	0.9826	0.0174
0.5592	323.15	0.9847	0.0153
0.5958	323.15	0.9799	0.0201
0.6575	323.15	0.9805	0.0195
0.6868	323.15	0.9813	0.0187
0.7407	323.15	0.9801	0.0199
0.8015	323.15	0.9774	0.0226
0.8657	323.15	0.9769	0.0231
0.9428	323.15	0.9675	0.0325
0.2331	333.15	0.9647	0.0353
0.2499	333.15	0.9758	0.0242
0.3289	333.15	0.9766	0.0234
0.3801	333.15	0.9789	0.0211
0.5018	333.15	0.9774	0.0226
0.5284	333.15	0.9768	0.0232
0.5945	333.15	0.9753	0.0247
0.6194	333.15	0.9749	0.0251
0.6558	333.15	0.9688	0.0312
0.6959	333.15	0.9669	0.0331
0.7239	333.15	0.9689	0.0311
0.7598	333.15	0.9691	0.0309
0.7968	333.15	0.9665	0.0335
0.8392	333.15	0.9671	0.0329
0.8721	333.15	0.9573	0.0427
0.9049	333.15	0.9485	0.0515

System: diethylene glycol diethyl ether + carbon dioxide; phases: Liquid, Gas
Property: Vapor or sublimation pressure, kPa (Liquid); method: Closed cell (Static) method
Mole fraction of carbon dioxide	Temperature, K	Vapor or sublimation pressure, kPa	uncertainty
0.1724	313.15	1200	740
0.2597	313.15	1770	860
0.3444	313.15	2470	810
0.3907	313.15	2890	870
0.4931	313.15	3800	990
0.5588	313.15	4430	990
0.6379	313.15	5320	1040
0.6961	313.15	5920	1150
0.7885	313.15	6860	1020
0.8741	313.15	8060	1200
0.1913	323.15	1670	950
0.3084	323.15	2730	1020
0.3558	323.15	3170	1140
0.3948	323.15	3560	1110
0.4361	323.15	4110	1230
0.5593	323.15	5730	1310
0.6251	323.15	6580	1380
0.6687	323.15	7120	1450
0.7245	323.15	7880	1160
0.8003	323.15	9100	1190
0.1937	333.15	1830	910
0.2265	333.15	2160	910
0.2818	333.15	2750	1100
0.3139	333.15	2920	1080
0.3453	333.15	3240	1080
0.3759	333.15	3720	1150
0.4073	333.15	4130	1160
0.4458	333.15	4550	1410
0.5381	333.15	5730	1400
0.5776	333.15	6500	1490
0.6153	333.15	7050	1490
0.6621	333.15	7710	1580
0.7184	333.15	8610	1490
0.8008	333.15	9890	1570
0.8413	333.15	10410	1470

System: diethylene glycol diethyl ether + carbon dioxide; phases: Gas, Liquid
Property: Mole fraction of carbon dioxide (Gas); method: Chromatography
Mole fraction of carbon dioxide	Temperature, K	Mole fraction of carbon dioxide	uncertainty
0.1724	313.15	0.9927	0.0073
0.2597	313.15	0.9933	0.0067
0.3444	313.15	0.9923	0.0077
0.3907	313.15	0.9986	0.0014
0.4931	313.15	0.9951	0.0049
0.5588	313.15	0.9899	0.0101
0.6379	313.15	0.9925	0.0075
0.6961	313.15	0.9894	0.0106
0.7885	313.15	0.9825	0.0175
0.8741	313.15	0.9789	0.0211
0.1913	323.15	0.9918	0.0082
0.3084	323.15	0.9987	0.0013
0.3558	323.15	0.9925	0.0075
0.3948	323.15	0.9917	0.0083
0.4361	323.15	0.9894	0.0106
0.5593	323.15	0.9905	0.0095
0.6251	323.15	0.9937	0.0063
0.6687	323.15	0.9979	0.0021
0.7245	323.15	0.9954	0.0046
0.8003	323.15	0.9988	0.0012
0.1937	333.15	0.9889	0.0111
0.2265	333.15	0.9891	0.0109
0.2818	333.15	0.9937	0.0063
0.3139	333.15	0.9954	0.0046
0.3453	333.15	0.9989	0.0011
0.3759	333.15	0.9888	0.0112
0.4073	333.15	0.9994	0.0006
0.4458	333.15	0.9979	0.0021
0.5381	333.15	0.9987	0.0013
0.5776	333.15	0.9894	0.0106
0.6153	333.15	0.9892	0.0108
0.6621	333.15	0.9905	0.0095
0.7184	333.15	0.9981	0.0019
0.8008	333.15	0.9883	0.0117
0.8413	333.15	0.9951	0.0049

System: 2-methylpropyl ethanoate + carbon dioxide; phases: Liquid, Gas
Property: Vapor or sublimation pressure, kPa (Liquid); method: Closed cell (Static) method
Mole fraction of carbon dioxide	Temperature, K	Vapor or sublimation pressure, kPa	uncertainty
0.206	313.15	840	640
0.259	313.15	1200	620
0.371	313.15	1890	660
0.444	313.15	2380	680
0.533	313.15	3010	730
0.595	313.15	3490	780
0.637	313.15	3840	860
0.703	313.15	4420	960
0.758	313.15	4950	1140
0.812	313.15	5580	1330
0.856	313.15	6130	1120
0.896	313.15	6770	1320
0.929	313.15	7420	1120
0.189	323.15	960	640
0.311	323.15	1680	660
0.348	323.15	1940	680
0.426	323.15	2540	770
0.484	323.15	2970	790
0.549	323.15	3510	860
0.588	323.15	3840	930
0.667	323.15	4610	1020
0.704	323.15	5020	1160
0.745	323.15	5470	1200
0.782	323.15	5890	1440
0.836	323.15	6710	1300
0.859	323.15	7100	1460
0.892	323.15	7850	1780
0.914	323.15	8250	1520
0.143	333.15	740	730
0.188	333.15	1060	740
0.256	333.15	1560	750
0.315	333.15	2000	780
0.358	333.15	2360	820
0.424	333.15	2900	880
0.482	333.15	3420	920
0.524	333.15	3800	950
0.552	333.15	4080	990
0.603	333.15	4620	1090
0.656	333.15	5210	1190
0.701	333.15	5750	1250
0.726	333.15	6070	1460
0.762	333.15	6580	1540
0.803	333.15	7230	1450
0.824	333.15	7670	1560
0.865	333.15	8440	1810

System: 2-methylpropyl ethanoate + carbon dioxide; phases: Gas, Liquid
Property: Mole fraction of carbon dioxide (Gas); method: Chromatography
Mole fraction of carbon dioxide	Temperature, K	Mole fraction of carbon dioxide	uncertainty
0.206	313.15	0.9888	0.0112
0.259	313.15	0.9926	0.0074
0.371	313.15	0.9889	0.0111
0.444	313.15	0.9894	0.0106
0.533	313.15	0.9891	0.0109
0.595	313.15	0.9905	0.0095
0.637	313.15	0.9892	0.0108
0.703	313.15	0.9937	0.0063
0.758	313.15	0.9979	0.0021
0.812	313.15	0.9954	0.0046
0.856	313.15	0.9994	0.0006
0.896	313.15	0.9987	0.0013
0.929	313.15	0.9989	0.0011
0.189	323.15	0.9936	0.0064
0.311	323.15	0.9915	0.0085
0.348	323.15	0.9937	0.0063
0.426	323.15	0.9899	0.0101
0.484	323.15	0.9911	0.0089
0.549	323.15	0.9883	0.0117
0.588	323.15	0.9945	0.0055
0.667	323.15	0.9955	0.0045
0.704	323.15	0.9947	0.0053
0.745	323.15	0.9918	0.0082
0.782	323.15	0.9987	0.0013
0.836	323.15	0.9925	0.0075
0.859	323.15	0.9917	0.0083
0.892	323.15	0.9894	0.0106
0.914	323.15	0.9922	0.0078
0.143	333.15	0.9873	0.0127
0.188	333.15	0.9896	0.0104
0.256	333.15	0.9897	0.0103
0.315	333.15	0.9891	0.0109
0.358	333.15	0.9855	0.0145
0.424	333.15	0.9888	0.0112
0.482	333.15	0.9898	0.0102
0.524	333.15	0.9917	0.0083
0.552	333.15	0.9916	0.0084
0.603	333.15	0.9894	0.0106
0.656	333.15	0.9911	0.0089
0.701	333.15	0.9939	0.0061
0.726	333.15	0.9942	0.0058
0.762	333.15	0.9957	0.0043
0.803	333.15	0.9957	0.0043
0.824	333.15	0.9974	0.0026
0.865	333.15	0.9978	0.0022
