Measured thermophysical data. Liquid Phase Equilibria of Water + Formic Acid + Dimethyl Carbonate Ternary System at Several Temperatures
Source: J. Chem. Eng. Data, 2014, 10.1021/je500422t
Compound 1: formic acid, CH2O2, InChI=1S/CH2O2/c2-1-3/h1H,(H,2,3), purity 99%
Compound 2: water, H2O, InChI=1S/H2O/h1H2, purity 99.9%
Compound 3: dimethyl carbonate, C3H6O3, InChI=1S/C3H6O3/c1-5-3(4)6-2/h1-2H3, purity 99%

System: formic acid; phases: Liquid
Property: Mass density, kg/m3 (Liquid); method: Vibrating tube method
Temperature, K	Pressure, kPa	Mass density, kg/m3	uncertainty
298.2	101.325	1220.04	1.07

System: formic acid; phases: Liquid
Property: Refractive index (Na D-line) (Liquid); method: Standard Abbe refractometry
Temperature, K	Pressure, kPa	Refractive index (Na D-line)	uncertainty
298.2	101.325	1.37144	0.00039

System: formic acid; phases: Liquid, Gas
Property: Normal boiling temperature, K (Liquid); method: Distillation
Normal boiling temperature, K	uncertainty
374.4	1.1

System: dimethyl carbonate; phases: Liquid
Property: Mass density, kg/m3 (Liquid); method: Vibrating tube method
Temperature, K	Pressure, kPa	Mass density, kg/m3	uncertainty
298.2	101.325	1061.9	1.03

System: dimethyl carbonate; phases: Liquid
Property: Refractive index (Na D-line) (Liquid); method: Standard Abbe refractometry
Temperature, K	Pressure, kPa	Refractive index (Na D-line)	uncertainty
298.2	101.325	1.3685	0.0004

System: dimethyl carbonate; phases: Liquid, Gas
Property: Normal boiling temperature, K (Liquid); method: Distillation
Normal boiling temperature, K	uncertainty
363.23	1.07

System: formic acid + dimethyl carbonate + water; phases: Liquid mixture 1, Liquid mixture 2
Fixed: Pressure, kPa = 101
Property: Mass fraction of formic acid (Liquid mixture 1); method: TITR:UFactor:4
Temperature, K	Mass fraction of water	Mass fraction of formic acid	uncertainty
298.2	0.0332	0	
298.2	0.104	0.0977	0.0122
298.2	0.1823	0.1255	0.0156
298.2	0.3064	0.1479	0.0183
298.2	0.4108	0.1586	0.0197
298.2	0.552	0.1453	0.018
298.2	0.655	0.1185	0.0147
298.2	0.7697	0.0717	0.009
298.2	0.8619	0	
308.2	0.0402	0	
308.2	0.1147	0.0747	0.0094
308.2	0.1697	0.1126	0.014
308.2	0.3145	0.1327	0.0164
308.2	0.4208	0.1385	0.0172
308.2	0.5019	0.1373	0.017
308.2	0.6249	0.1181	0.0146
308.2	0.7773	0.0543	0.0068
308.2	0.8449	0	
318.2	0.0516	0	
318.2	0.1239	0.0605	0.0077
318.2	0.1697	0.093	0.0116
318.2	0.3192	0.1359	0.0168
318.2	0.4276	0.1426	0.0177
318.2	0.8057	0.0335	0.0046
318.2	0.6304	0.1217	0.0151
318.2	0.5135	0.1305	0.0162
318.2	0.8453	0	

System: formic acid + dimethyl carbonate + water; phases: Liquid mixture 1, Liquid mixture 2
Fixed: Pressure, kPa = 101
Property: Mass fraction of formic acid (Liquid mixture 1); method: Chromatography
Property: Mass fraction of formic acid (Liquid mixture 2); method: Chromatography
Property: Mass fraction of water (Liquid mixture 2); method: Chromatography
Temperature, K	Mass fraction of water	Mass fraction of formic acid	uncertainty	Mass fraction of formic acid	uncertainty	Mass fraction of water	uncertainty
298.2	0.7968	0.0563	0.0108	0.0277	0.017	0.0356	
298.2	0.7013	0.1059	0.0101	0.0631	0.0119	0.0596	
298.2	0.5548	0.1435	0.0099	0.1096	0.0111	0.1389	
308.2	0.7773	0.0579	0.0104	0.0286	0.0138	0.0612	
308.2	0.6482	0.1126	0.01	0.0684	0.0126	0.0993	
308.2	0.5434	0.131	0.0099	0.1009	0.0115	0.1453	
318.2	0.7651	0.0586	0.0106	0.0295	0.0117	0.0758	
318.2	0.6549	0.1108	0.0101	0.0692	0.011	0.1312	
318.2	0.5369	0.1366	0.0098	0.1023	0.0106	0.2026	

System: dimethyl carbonate + water; phases: Liquid mixture 1, Liquid mixture 2
Fixed: Pressure, kPa = 101
Property: Mass fraction of water (Liquid mixture 1); method: TITR:UFactor:4
Temperature, K	Mass fraction of water	uncertainty
298.2	0.0332	0.0097
308.2	0.0402	0.0098
318.2	0.0516	0.01

System: dimethyl carbonate + water; phases: Liquid mixture 2, Liquid mixture 1
Fixed: Pressure, kPa = 101
Property: Mass fraction of water (Liquid mixture 2); method: TITR:UFactor:4
Temperature, K	Mass fraction of water	uncertainty
298.2	0.8619	0.0123
308.2	0.8449	0.013
318.2	0.8453	0.013
