Measured thermophysical data. Vapor Liquid Equilibria for the ZnSO4 H2SO4 H2O and MgSO4 H2SO4 H2O Systems at (30, 60, 90, and 101.3) kPa
Source: J. Chem. Eng. Data, 2014, 10.1021/je5004252
Compound 1: zinc sulfate, O4SZn, InChI=1S/H2O4S.Zn/c1-5(2,3)4;/h(H2,1,2,3,4);/q;+2/p-2, purity 99.5%
Compound 2: magnesium sulfate, MgO4S, InChI=1S/Mg.H2O4S/c;1-5(2,3)4/h;(H2,1,2,3,4)/q+2;/p-2, purity 99%
Compound 3: sulfuric acid, H2O4S, InChI=1S/H2O4S/c1-5(2,3)4/h(H2,1,2,3,4), purity 99%
Compound 4: water, H2O, InChI=1S/H2O/h1H2, purity 99.8%

System: water + zinc sulfate; phases: Liquid, Gas
Property: Boiling temperature at pressure P, K (Liquid); method: Ebulliometric method (Recirculating still)
Pressure, kPa	Molality, mol/kg of zinc sulfate	Boiling temperature at pressure P, K	uncertainty
30	0	342.22	1.01
30	0.25	342.32	1
30	0.5	342.42	1
30	0.75	342.52	1
30	1	342.62	1
30	1.5	342.83	1
30	2	343.08	1
30	2.5	343.38	1
30	3	343.94	1
30	3.5	344.4	1.01
60	0	359.13	0.85
60	0.25	359.18	0.84
60	0.5	359.28	0.84
60	0.75	359.33	0.84
60	1	359.43	0.84
60	1.5	359.64	0.84
60	2	359.89	0.84
60	2.5	360.25	0.84
60	3	360.76	0.84
60	3.5	361.32	0.84
90	0	369.89	0.67
90	0.25	369.94	0.67
90	0.5	369.99	0.67
90	0.75	370.09	0.67
90	1	370.24	0.67
90	1.5	370.35	0.67
90	2	370.55	0.67
90	2.5	370.96	0.67
90	3	371.47	0.67
90	3.5	371.93	0.66
101.3	0	373.16	0.59
101.3	0.25	373.21	0.59
101.3	0.5	373.26	0.59
101.3	0.75	373.36	0.59
101.3	1	373.51	0.58
101.3	1.5	373.72	0.6
101.3	2	373.87	0.61
101.3	2.5	374.36	0.61
101.3	3	374.87	0.6
101.3	3.5	375.28	0.6

System: sulfuric acid + water + zinc sulfate; phases: Liquid, Gas
Property: Boiling temperature at pressure P, K (Liquid); method: Ebulliometric method (Recirculating still)
Molality, mol/kg of sulfuric acid	Pressure, kPa	Molality, mol/kg of zinc sulfate	Boiling temperature at pressure P, K	uncertainty
1	30	0	343.18	1
1	30	0.25	343.28	1.01
1	30	0.5	343.43	1
1	30	0.75	343.64	1
1	30	1	343.89	1
1	30	1.25	344.04	1
1	30	1.5	344.24	1
1	30	1.75	344.45	1
1	30	2	344.65	1
1	30	2.5	345.31	1
1	60	0	360.04	0.85
1	60	0.25	360.2	0.85
1	60	0.5	360.3	0.85
1	60	0.75	360.5	0.85
1	60	1	360.71	0.85
1	60	1.25	360.91	0.85
1	60	1.5	361.11	0.85
1	60	1.75	361.32	0.85
1	60	2	361.52	0.85
1	60	2.5	362.18	0.85
1	90	0	370.91	0.67
1	90	0.25	371.01	0.68
1	90	0.5	371.16	0.68
1	90	0.75	371.37	0.68
1	90	1	371.57	0.68
1	90	1.25	371.73	0.68
1	90	1.5	371.93	0.68
1	90	1.75	372.13	0.68
1	90	2	372.39	0.68
1	90	2.5	373	0.67
1	101.3	0	374.21	0.59
1	101.3	0.25	374.36	0.6
1	101.3	0.5	374.46	0.6
1	101.3	0.75	374.72	0.59
1	101.3	1	374.92	0.6
1	101.3	1.25	375.07	0.6
1	101.3	1.5	375.28	0.6
1	101.3	1.75	375.53	0.6
1	101.3	2	375.78	0.61
1	101.3	2.5	376.39	0.6
2	30	0	344.4	1
2	30	0.25	344.6	1
2	30	0.5	344.85	1
2	30	0.75	345.07	1
2	30	1	345.41	1
2	30	1.25	345.71	1
2	30	1.5	346.02	1
2	30	1.75	346.32	1
2	30	2	346.63	1
2	60	0	361.32	0.85
2	60	0.25	361.52	0.85
2	60	0.5	361.72	0.85
2	60	0.75	362	0.85
2	60	1	362.34	0.85
2	60	1.25	362.64	0.85
2	60	1.5	362.95	0.85
2	60	1.75	363.2	0.85
2	60	2	363.56	0.85
2	90	0	372.24	0.68
2	90	0.25	372.44	0.69
2	90	0.5	372.7	0.69
2	90	0.75	372.92	0.69
2	90	1	373.31	0.68
2	90	1.25	373.62	0.68
2	90	1.5	373.91	0.68
2	90	1.75	374.21	0.69
2	90	2	374.51	0.68
2	101.3	0	375.63	0.62
2	101.3	0.25	375.83	0.61
2	101.3	0.5	376.04	0.61
2	101.3	0.75	376.29	0.62
2	101.3	1	376.64	0.6
2	101.3	1.25	376.95	0.6
2	101.3	1.5	377.25	0.6
2	101.3	1.75	377.56	0.61
2	101.3	2	377.86	0.62
3	30	0	345.97	1.01
3	30	0.25	346.32	1.01
3	30	0.5	346.63	1.01
3	30	0.75	346.98	1.01
3	30	1	347.34	1.01
3	30	1.25	347.69	1.01
3	30	1.5	348.1	1.01
3	30	1.75	348.5	1.01
3	30	2	349.01	1.01
3	60	0	363	0.86
3	60	0.25	363.3	0.85
3	60	0.5	363.66	0.86
3	60	0.75	363.97	0.85
3	60	1	364.32	0.85
3	60	1.25	364.68	0.85
3	60	1.5	365.09	0.86
3	60	1.75	365.55	0.86
3	60	2	366.01	0.86
3	90	0	374.01	0.68
3	90	0.25	374.31	0.69
3	90	0.5	374.67	0.69
3	90	0.75	374.97	0.69
3	90	1	375.33	0.69
3	90	1.25	375.68	0.69
3	90	1.5	376.14	0.69
3	90	1.75	376.54	0.69
3	90	2	377.05	0.69
3	101.3	0	377.36	0.61
3	101.3	0.25	377.66	0.61
3	101.3	0.5	378.01	0.6
3	101.3	0.75	378.32	0.61
3	101.3	1	378.67	0.61
3	101.3	1.25	379.03	0.61
3	101.3	1.5	379.49	0.61
3	101.3	1.75	379.89	0.61
3	101.3	2	380.4	0.6
4	30	0	347.89	1.01
4	30	0.25	348.35	1.01
4	30	0.5	348.71	1.01
4	30	0.75	349.16	1.01
4	30	1	349.62	1.01
4	30	1.25	350.08	1.01
4	30	1.5	350.53	1.01
4	30	1.75	350.99	1.02
4	30	2	351.4	1.02
4	60	0	364.88	0.85
4	60	0.25	365.39	0.85
4	60	0.5	365.75	0.86
4	60	0.75	366.21	0.86
4	60	1	366.67	0.86
4	60	1.25	367.13	0.86
4	60	1.5	367.59	0.86
4	60	1.75	368.1	0.86
4	60	2	368.56	0.86
4	90	0	375.83	0.68
4	90	0.25	376.34	0.68
4	90	0.5	376.8	0.69
4	90	0.75	377.3	0.69
4	90	1	377.71	0.69
4	90	1.25	378.17	0.69
4	90	1.5	378.67	0.69
4	90	1.75	379.03	0.68
4	90	2	379.64	0.68
4	101.3	0	379.33	0.62
4	101.3	0.25	379.79	0.61
4	101.3	0.5	380.2	0.61
4	101.3	0.75	380.66	0.6
4	101.3	1	381.11	0.6
4	101.3	1.25	381.52	0.6
4	101.3	1.5	382.08	0.6
4	101.3	1.75	382.48	0.62
4	101.3	2	382.99	0.6

System: magnesium sulfate + sulfuric acid + water; phases: Liquid, Gas
Property: Boiling temperature at pressure P, K (Liquid); method: Ebulliometric method (Recirculating still)
Molality, mol/kg of sulfuric acid	Pressure, kPa	Molality, mol/kg of magnesium sulfate	Boiling temperature at pressure P, K	uncertainty
0	30	0.5	342.47	1
0	30	1	342.52	1
0	30	1.5	342.59	1
0	30	2	342.67	1
0	30	2.5	343.13	1.01
0	30	3	343.38	1
0	30	3.5	343.84	1.01
0	60	0.5	359.22	0.84
0	60	1	359.38	0.85
0	60	1.5	359.48	0.85
0	60	2	359.53	0.85
0	60	2.5	359.99	0.85
0	60	3	360.2	0.85
0	60	3.5	360.76	0.85
0	90	0.5	369.98	0.67
0	90	1	370.19	0.67
0	90	1.5	370.29	0.67
0	90	2	370.4	0.68
0	90	2.5	370.86	0.67
0	90	3	371.01	0.7
0	90	3.5	371.57	0.69
0	101.3	0.5	373.26	0.59
0	101.3	1	373.36	0.58
0	101.3	1.5	373.57	0.58
0	101.3	2	373.62	0.59
0	101.3	2.5	373.96	0.56
0	101.3	3	374.11	0.75
0	101.3	3.5	374.72	0.67
1	30	0.25	342.52	1.01
1	30	0.5	343.03	0.99
1	30	0.75	343.13	1
1	30	1	343.14	0.99
1	30	1.25	343.39	0.98
1	30	1.5	343.44	0.99
1	30	1.75	343.84	1
1	30	2	344.03	0.99
1	30	2.25	344.24	1
1	30	2.5	344.45	1
1	60	0.25	359.44	0.88
1	60	0.5	359.6	0.84
1	60	0.75	359.85	0.87
1	60	1	359.83	0.84
1	60	1.25	359.79	0.85
1	60	1.5	360.21	0.85
1	60	1.75	360.5	0.85
1	60	2	360.74	0.84
1	60	2.25	360.96	0.85
1	60	2.5	361.22	0.85
1	90	0.25	370.21	0.67
1	90	0.5	370.41	0.68
1	90	0.75	370.59	0.67
1	90	1	370.54	0.67
1	90	1.25	370.7	0.68
1	90	1.5	371.12	0.67
1	90	1.75	371.42	0.67
1	90	2	371.61	0.67
1	90	2.25	371.83	0.67
1	90	2.5	372.09	0.67
1	101.3	0.25	373.58	0.6
1	101.3	0.5	373.79	0.6
1	101.3	0.75	374.01	0.59
1	101.3	1	373.93	0.61
1	101.3	1.25	373.91	0.59
1	101.3	1.5	374.22	0.56
1	101.3	1.75	374.47	0.56
1	101.3	2	374.72	0.56
1	101.3	2.25	374.92	0.56
1	101.3	2.5	375.13	0.56
