Measured thermophysical data. Experimental Measurements and Modeling of the Solubility of Aceclofenac in Six Pure Solvents from (293.35 to 338.25) K
Source: J. Chem. Eng. Data, 2014, 10.1021/je500038u
Compound 1: Aceclofenac, C16H13Cl2NO4, InChI=1S/C16H13Cl2NO4/c17-11-5-3-6-12(18)16(11)19-13-7-2-1-4-10(13)8-15(22)23-9-14(20)21/h1-7,19H,8-9H2,(H,20,21), purity 98%
Compound 2: methanol, CH4O, InChI=1S/CH4O/c1-2/h2H,1H3, purity 98%
Compound 3: ethanol, C2H6O, InChI=1S/C2H6O/c1-2-3/h3H,2H2,1H3, purity 99.7%
Compound 4: acetone, C3H6O, InChI=1S/C3H6O/c1-3(2)4/h1-2H3, purity 99.5%
Compound 5: ethyl acetate, C4H8O2, InChI=1S/C4H8O2/c1-3-6-4(2)5/h3H2,1-2H3, purity 99.5%
Compound 6: propan-2-ol, C3H8O, InChI=1S/C3H8O/c1-3(2)4/h3-4H,1-2H3, purity 99.5%
Compound 7: toluene, C7H8, InChI=1S/C7H8/c1-7-5-3-2-4-6-7/h2-6H,1H3, purity 99.5%

System: methanol + Aceclofenac; phases: Liquid, Crystal
Fixed: Pressure, kPa = 101
Property: Mole fraction of Aceclofenac (Liquid); method: laser beam
Temperature, K	Mole fraction of Aceclofenac	uncertainty
294.25	0.00809	0.00017
299.05	0.01025	0.00021
303.25	0.01303	0.00027
308.75	0.01696	0.00035
313.15	0.02193	0.00046
317.95	0.02819	0.00059
323.65	0.03855	0.00081
328.65	0.05197	0.00109
333.25	0.06884	0.00143

System: ethanol + Aceclofenac; phases: Liquid, Crystal
Fixed: Pressure, kPa = 101
Property: Mole fraction of Aceclofenac (Liquid); method: laser beam
Temperature, K	Mole fraction of Aceclofenac	uncertainty
293.85	0.00853	0.00018
301.95	0.01284	0.00027
302.85	0.01355	0.00028
308.15	0.01742	0.00036
313.95	0.02396	0.0005
318.75	0.03064	0.00064
323.35	0.03931	0.00082
328.45	0.05091	0.00107
333.25	0.06843	0.00144
337.95	0.0903	0.00187

System: acetone + Aceclofenac; phases: Liquid, Crystal
Fixed: Pressure, kPa = 101
Property: Mole fraction of Aceclofenac (Liquid); method: laser beam
Temperature, K	Mole fraction of Aceclofenac	uncertainty
293.35	0.05324	0.00108
298.95	0.06079	0.00123
303.15	0.06777	0.00137
308.25	0.07657	0.00155
314.15	0.08816	0.00179
318.55	0.09789	0.00198
323.25	0.10904	0.00221

System: ethyl acetate + Aceclofenac; phases: Liquid, Crystal
Fixed: Pressure, kPa = 101
Property: Mole fraction of Aceclofenac (Liquid); method: laser beam
Temperature, K	Mole fraction of Aceclofenac	uncertainty
293.55	0.03025	0.00061
298.25	0.03403	0.00069
304.05	0.04022	0.00082
307.95	0.04503	0.00092
313.35	0.05321	0.00108
318.45	0.06081	0.00123
322.95	0.06835	0.00139
328.55	0.08046	0.00163
332.75	0.09007	0.00183
338.25	0.10471	0.00212

System: propan-2-ol + Aceclofenac; phases: Liquid, Crystal
Fixed: Pressure, kPa = 101
Property: Mole fraction of Aceclofenac (Liquid); method: laser beam
Temperature, K	Mole fraction of Aceclofenac	uncertainty
293.75	0.00597	0.00012
298.65	0.00695	0.00014
303.05	0.00823	0.00017
307.95	0.00971	0.0002
312.35	0.01156	0.00024
317.65	0.01422	0.00029
322.75	0.01749	0.00036
328.55	0.02232	0.00046
333.25	0.02748	0.00057
338.05	0.03519	0.00073

System: toluene + Aceclofenac; phases: Liquid, Crystal
Fixed: Pressure, kPa = 101
Property: Mole fraction of Aceclofenac (Liquid); method: laser beam
Temperature, K	Mole fraction of Aceclofenac	uncertainty
298.15	0.00043	3e-05
303.35	0.00055	4e-05
308.15	0.00065	4e-05
313.55	0.00089	6e-05
317.85	0.00111	7e-05
323.05	0.0016	0.0001
327.55	0.00224	0.00014
334.75	0.00442	0.00028
