Measured thermophysical data. Measurement and Correlation of the Solubility of Enrofloxacin in Different Solvents from (303.15 to 321.05) K
Source: J. Chem. Eng. Data, 2014, 10.1021/je5002158
Compound 1: Enrofloxacin, C19H22FN3O3, InChI=1S/C19H22FN3O3/c1-2-21-5-7-22(8-6-21)17-10-16-13(9-15(17)20)18(24)14(19(25)26)11-23(16)12-3-4-12/h9-12H,2-8H2,1H3,(H,25,26), purity 99%
Compound 2: ethanol, C2H6O, InChI=1S/C2H6O/c1-2-3/h3H,2H2,1H3, purity 99.7%
Compound 3: water, H2O, InChI=1S/H2O/h1H2, purity 99.7%
Compound 4: propan-2-ol, C3H8O, InChI=1S/C3H8O/c1-3(2)4/h3-4H,1-2H3, purity 99.7%
Compound 5: acetonitrile, C2H3N, InChI=1S/C2H3N/c1-2-3/h1H3, purity 99.7%
Compound 6: ethyl acetate, C4H8O2, InChI=1S/C4H8O2/c1-3-6-4(2)5/h3H2,1-2H3, purity 99.7%

System: ethanol + Enrofloxacin; phases: Liquid, Crystal
Fixed: Pressure, kPa = 101
Property: Mole fraction of Enrofloxacin (Liquid); method: spectrophotometer detector
Temperature, K	Mole fraction of Enrofloxacin	uncertainty
303.15	0.0006314	6.32e-05
306.35	0.0007161	7.17e-05
309.15	0.0007883	7.89e-05
312.15	0.0008974	8.99e-05
314.95	0.0011016	0.0001105
318.55	0.0014018	0.0001405
321.05	0.0016393	0.0001642

System: water + Enrofloxacin; phases: Liquid, Crystal
Fixed: Pressure, kPa = 101
Property: Mole fraction of Enrofloxacin (Liquid); method: spectrophotometer detector
Temperature, K	Mole fraction of Enrofloxacin	uncertainty
303.15	1.15e-05	1.2e-06
306.35	1.53e-05	1.5e-06
309.15	1.79e-05	1.8e-06
312.15	2.17e-05	2.2e-06
314.95	2.72e-05	2.7e-06
318.55	3.35e-05	3.4e-06
321.05	4.18e-05	4.2e-06

System: propan-2-ol + Enrofloxacin; phases: Liquid, Crystal
Fixed: Pressure, kPa = 101
Property: Mole fraction of Enrofloxacin (Liquid); method: spectrophotometer detector
Temperature, K	Mole fraction of Enrofloxacin	uncertainty
303.15	0.0007321	7.32e-05
306.35	0.0007706	7.71e-05
309.15	0.000869	8.7e-05
312.15	0.0010032	0.0001006
314.95	0.0012455	0.000125
318.55	0.0016509	0.0001655
321.05	0.0019005	0.0001904

System: acetonitrile + Enrofloxacin; phases: Liquid, Crystal
Fixed: Pressure, kPa = 101
Property: Mole fraction of Enrofloxacin (Liquid); method: spectrophotometer detector
Temperature, K	Mole fraction of Enrofloxacin	uncertainty
303.15	0.0011344	0.0001138
306.35	0.0014124	0.0001417
309.15	0.0017669	0.0001771
312.15	0.0020786	0.0002082
314.95	0.002414	0.0002416
318.55	0.0027013	0.0002704
321.05	0.0030573	0.0003061

System: ethyl acetate + Enrofloxacin; phases: Liquid, Crystal
Fixed: Pressure, kPa = 101
Property: Mole fraction of Enrofloxacin (Liquid); method: spectrophotometer detector
Temperature, K	Mole fraction of Enrofloxacin	uncertainty
303.15	0.001053	0.0001054
306.35	0.0011623	0.0001163
309.15	0.0012316	0.0001232
312.15	0.0013641	0.0001366
314.95	0.0016076	0.000161
318.55	0.0018556	0.0001857
321.05	0.0020384	0.000204
