Measured thermophysical data. Thermodynamic Models for Determination of the Solubility of the (1:1) Complex of (Urea + l-Malic Acid) in (Methanol + Acetonitrile) Binary Solvent Mixtures
Source: J. Chem. Eng. Data, 2015, 10.1021/je500991b
Compound 1: urea (S)-2-hydroxysuccinate, C5H10N2O6, InChI=1S/C4H6O5.CH4N2O/c5-2(4(8)9)1-3(6)7;2-1(3)4/h2,5H,1H2,(H,6,7)(H,8,9);(H4,2,3,4)/t2-;/m0./s1, purity 98%
Compound 2: methanol, CH4O, InChI=1S/CH4O/c1-2/h2H,1H3, purity 99.7%
Compound 3: acetonitrile, C2H3N, InChI=1S/C2H3N/c1-2-3/h1H3, purity 99.7%

System: methanol + acetonitrile + urea (S)-2-hydroxysuccinate; phases: Liquid, Crystal
Fixed: Pressure, kPa = 101.3
Property: Mole fraction of urea (S)-2-hydroxysuccinate (Liquid); method: gravimetric
Temperature, K	Solvent: Mole fraction of acetonitrile	Mole fraction of urea (S)-2-hydroxysuccinate	uncertainty
278.15	0	0.03491	0.00629
278.15	0.079	0.03279	0.0059
278.15	0.205	0.03025	0.00545
278.15	0.341	0.02908	0.00524
278.15	0.487	0.02803	0.00505
278.15	0.644	0.02668	0.0048
278.15	0.815	0.02521	0.00454
278.15	1	0.02358	0.00424
283.15	0	0.03815	0.00687
283.15	0.079	0.03526	0.00635
283.15	0.205	0.03241	0.00584
283.15	0.341	0.0308	0.00554
283.15	0.487	0.02936	0.00529
283.15	0.644	0.02768	0.00498
283.15	0.815	0.02578	0.00464
283.15	1	0.0239	0.0043
288.15	0	0.04182	0.00753
288.15	0.079	0.03865	0.00696
288.15	0.205	0.03477	0.00626
288.15	0.341	0.03287	0.00592
288.15	0.487	0.0309	0.00556
288.15	0.644	0.02882	0.00519
288.15	0.815	0.02646	0.00476
288.15	1	0.02424	0.00436
293.15	0	0.04637	0.00835
293.15	0.079	0.04185	0.00754
293.15	0.205	0.03758	0.00677
293.15	0.341	0.03518	0.00633
293.15	0.487	0.03264	0.00588
293.15	0.644	0.02996	0.00539
293.15	0.815	0.02709	0.00488
293.15	1	0.02457	0.00442
298.15	0	0.05093	0.00917
298.15	0.079	0.04554	0.0082
298.15	0.205	0.04082	0.00735
298.15	0.341	0.03756	0.00676
298.15	0.487	0.03451	0.00621
298.15	0.644	0.03118	0.00561
298.15	0.815	0.0278	0.005
298.15	1	0.02492	0.00449
303.15	0	0.05636	0.01015
303.15	0.079	0.04989	0.00898
303.15	0.205	0.04437	0.00799
303.15	0.341	0.03988	0.00718
303.15	0.487	0.03632	0.00654
303.15	0.644	0.03243	0.00584
303.15	0.815	0.0285	0.00513
303.15	1	0.02523	0.00454
308.15	0	0.06164	0.0111
308.15	0.079	0.0547	0.00985
308.15	0.205	0.04847	0.00873
308.15	0.341	0.04305	0.00775
308.15	0.487	0.03832	0.0069
308.15	0.644	0.03364	0.00606
308.15	0.815	0.02913	0.00524
308.15	1	0.02556	0.0046
313.15	0	0.06738	0.01213
313.15	0.079	0.05994	0.01079
313.15	0.205	0.05246	0.00945
313.15	0.341	0.04606	0.00829
313.15	0.487	0.04034	0.00726
313.15	0.644	0.03497	0.0063
313.15	0.815	0.02995	0.00539
313.15	1	0.0259	0.00466
318.15	0	0.07345	0.01322
318.15	0.079	0.06513	0.01173
318.15	0.205	0.0565	0.01017
318.15	0.341	0.04926	0.00887
318.15	0.487	0.04255	0.00766
318.15	0.644	0.03632	0.00654
318.15	0.815	0.03067	0.00552
318.15	1	0.0262	0.00472
323.15	0	0.08073	0.01454
323.15	0.079	0.07131	0.01284
323.15	0.205	0.061	0.01098
323.15	0.341	0.05239	0.00943
323.15	0.487	0.04477	0.00806
323.15	0.644	0.03782	0.00681
323.15	0.815	0.03136	0.00565
323.15	1	0.0265	0.00477
328.15	0	0.09087	0.01636
328.15	0.079	0.07816	0.01407
328.15	0.205	0.06529	0.01176
328.15	0.341	0.05575	0.01004
328.15	0.487	0.04702	0.00847
328.15	0.644	0.03932	0.00708
328.15	0.815	0.03208	0.00578
328.15	1	0.02684	0.00483
333.15	0	0.09824	0.01769
333.15	0.079	0.08412	0.01515
333.15	0.205	0.07016	0.01263
333.15	0.341	0.059	0.01062
333.15	0.487	0.04928	0.00887
333.15	0.644	0.04057	0.0073
333.15	0.815	0.0329	0.00592
333.15	1	0.02717	0.00489

System: methanol + urea (S)-2-hydroxysuccinate; phases: Liquid, Crystal
Fixed: Pressure, kPa = 101.3
Property: Mole fraction of urea (S)-2-hydroxysuccinate (Liquid); method: gravimetric
Temperature, K	Mole fraction of urea (S)-2-hydroxysuccinate	uncertainty
278.15	0.03491	0.00629
283.15	0.03815	0.00687
288.15	0.04182	0.00753
293.15	0.04637	0.00835
298.15	0.05093	0.00917
303.15	0.05636	0.01015
308.15	0.06164	0.0111
313.15	0.06738	0.01213
318.15	0.07345	0.01322
323.15	0.08073	0.01454
328.15	0.09087	0.01636
333.15	0.09824	0.01769

System: acetonitrile + urea (S)-2-hydroxysuccinate; phases: Liquid, Crystal
Fixed: Pressure, kPa = 101.3
Property: Mole fraction of urea (S)-2-hydroxysuccinate (Liquid); method: gravimetric
Temperature, K	Mole fraction of urea (S)-2-hydroxysuccinate	uncertainty
278.15	0.02358	0.00424
283.15	0.0239	0.0043
288.15	0.02424	0.00436
293.15	0.02457	0.00442
298.15	0.02492	0.00449
303.15	0.02523	0.00454
308.15	0.02556	0.0046
313.15	0.0259	0.00466
318.15	0.0262	0.00472
323.15	0.0265	0.00477
328.15	0.02684	0.00483
333.15	0.02717	0.00489
