Measured thermophysical data. Densities, Sound Speed and UV Absorption Studies of Trisodium Citrate and Tripotassium Citrate in Aqueous Solutions of 1-Hexyl-3-Methylimidazolium Chloride [C6mim][Cl]
Source: J. Chem. Eng. Data, 2014, 10.1021/je5006906
Compound 1: 1-hexyl-3-methylimidazolium chloride, C10H19ClN2, InChI=1S/C10H19N2.ClH/c1-3-4-5-6-7-12-9-8-11(2)10-12;/h8-10H,3-7H2,1-2H3;1H/q+1;/p-1, purity 98.5%
Compound 2: trisodium citrate, C6H5Na3O7, InChI=1S/C6H8O7.3Na/c7-3(8)1-6(13,5(11)12)2-4(9)10;;;/h13H,1-2H2,(H,7,8)(H,9,10)(H,11,12);;;/q;3*+1/p-3, purity 99%
Compound 3: potassium citrate, C6H5K3O7, InChI=1S/C6H8O7.3K/c7-3(8)1-6(13,5(11)12)2-4(9)10;;;/h13H,1-2H2,(H,7,8)(H,9,10)(H,11,12);;;/q;3*+1/p-3, purity 99%
Compound 4: water, H2O, InChI=1S/H2O/h1H2, purity 99.9%

System: trisodium citrate + water + 1-hexyl-3-methylimidazolium chloride; phases: Liquid
Fixed: Pressure, kPa = 100
Property: Mass density, kg/m3 (Liquid); method: VIBTUB:UFactor:2
Solvent: Molality, mol/kg of 1-hexyl-3-methylimidazolium chloride	Temperature, K	Molality, mol/kg of trisodium citrate	Mass density, kg/m3	uncertainty
0	288.15	0.01959	1002.846	0.219
0	288.15	0.04954	1008.487	0.224
0	288.15	0.06743	1011.813	0.227
0	288.15	0.09908	1017.64	0.232
0	288.15	0.19983	1035.594	0.249
0	288.15	0.29918	1052.468	0.267
0	288.15	0.39514	1068.031	0.284
0	288.15	0.48759	1082.255	0.3
0	288.15	0.59704	1098.255	0.318
0	288.15	0.69512	1111.625	0.333
0	288.15	0.78612	1123.747	0.346
0	288.15	0.88436	1135.935	0.36
0	288.15	0.99939	1149.327	0.375
0	293.15	0.01959	1001.892	0.218
0	293.15	0.04954	1007.475	0.223
0	293.15	0.06743	1010.764	0.226
0	293.15	0.09908	1016.533	0.231
0	293.15	0.19983	1034.231	0.248
0	293.15	0.29918	1050.868	0.266
0	293.15	0.39514	1066.171	0.283
0	293.15	0.48759	1080.177	0.298
0	293.15	0.59704	1095.905	0.316
0	293.15	0.69512	1109.148	0.33
0	293.15	0.78612	1121.059	0.344
0	293.15	0.88436	1133.063	0.357
0	293.15	0.99939	1146.434	0.372
0	298.15	0.01959	1000.685	0.217
0	298.15	0.04954	1006.18	0.222
0	298.15	0.06743	1009.435	0.225
0	298.15	0.09908	1015.115	0.23
0	298.15	0.19983	1032.635	0.246
0	298.15	0.29918	1049.051	0.264
0	298.15	0.39514	1064.141	0.28
0	298.15	0.48759	1077.922	0.296
0	298.15	0.59704	1093.52	0.313
0	298.15	0.69512	1106.644	0.328
0	298.15	0.78612	1118.249	0.341
0	298.15	0.88436	1130.1	0.354
0	298.15	0.99939	1143.182	0.369
0	303.15	0.01959	999.26	0.217
0	303.15	0.04954	1004.698	0.221
0	303.15	0.06743	1007.919	0.224
0	303.15	0.09908	1013.535	0.229
0	303.15	0.19983	1030.885	0.244
0	303.15	0.29918	1047.186	0.262
0	303.15	0.39514	1062.141	0.278
0	303.15	0.48759	1075.751	0.293
0	303.15	0.59704	1091.15	0.31
0	303.15	0.69512	1104.176	0.325
0	303.15	0.78612	1115.718	0.338
0	303.15	0.88436	1127.321	0.351
0	303.15	0.99939	1140.137	0.365
0	308.15	0.01959	997.602	0.218
0	308.15	0.04954	1002.99	0.22
0	308.15	0.06743	1006.175	0.222
0	308.15	0.09908	1011.725	0.227
0	308.15	0.19983	1028.9	0.243
0	308.15	0.29918	1045.014	0.26
0	308.15	0.39514	1059.787	0.276
0	308.15	0.48759	1073.29	0.291
0	308.15	0.59704	1088.543	0.308
0	308.15	0.69512	1101.303	0.322
0	308.15	0.78612	1112.61	0.335
0	308.15	0.88436	1124.19	0.348
0	308.15	0.99939	1136.843	0.362
0.01	288.15	0.0212	1003.894	0.22
0.01	288.15	0.04992	1009.237	0.225
0.01	288.15	0.07188	1013.272	0.228
0.01	288.15	0.09994	1018.372	0.233
0.01	288.15	0.19994	1036.051	0.249
0.01	288.15	0.29742	1052.565	0.267
0.01	288.15	0.40087	1069.286	0.286
0.01	288.15	0.4974	1084.138	0.302
0.01	288.15	0.59183	1098.054	0.317
0.01	288.15	0.69326	1112.225	0.333
0.01	288.15	0.79125	1125.25	0.348
0.01	288.15	0.9031	1139.272	0.363
0.01	288.15	1.0025	1151.076	0.376
0.01	293.15	0.0212	1002.955	0.219
0.01	293.15	0.04992	1008.249	0.224
0.01	293.15	0.07188	1012.253	0.227
0.01	293.15	0.09994	1017.335	0.232
0.01	293.15	0.19994	1034.877	0.248
0.01	293.15	0.29742	1051.199	0.266
0.01	293.15	0.40087	1067.811	0.284
0.01	293.15	0.4974	1082.552	0.3
0.01	293.15	0.59183	1096.339	0.316
0.01	293.15	0.69326	1110.312	0.331
0.01	293.15	0.79125	1123.254	0.346
0.01	293.15	0.9031	1137.135	0.361
0.01	293.15	1.0025	1148.963	0.375
0.01	298.15	0.0212	1001.749	0.218
0.01	298.15	0.04992	1006.993	0.223
0.01	298.15	0.07188	1010.961	0.226
0.01	298.15	0.09994	1015.979	0.231
0.01	298.15	0.19994	1033.346	0.247
0.01	298.15	0.29742	1049.552	0.264
0.01	298.15	0.40087	1065.998	0.282
0.01	298.15	0.4974	1080.573	0.298
0.01	298.15	0.59183	1094.245	0.314
0.01	298.15	0.69326	1108.183	0.329
0.01	298.15	0.79125	1120.992	0.343
0.01	298.15	0.9031	1134.571	0.359
0.01	298.15	1.0025	1146.242	0.372
0.01	303.15	0.0212	1000.317	0.217
0.01	303.15	0.04992	1005.52	0.22
0.01	303.15	0.07188	1009.454	0.225
0.01	303.15	0.09994	1014.433	0.23
0.01	303.15	0.19994	1031.663	0.245
0.01	303.15	0.29742	1047.755	0.262
0.01	303.15	0.40087	1064.009	0.28
0.01	303.15	0.4974	1078.473	0.296
0.01	303.15	0.59183	1091.975	0.311
0.01	303.15	0.69326	1105.911	0.327
0.01	303.15	0.79125	1118.611	0.341
0.01	303.15	0.9031	1132.188	0.356
0.01	303.15	1.0025	1143.564	0.369
0.01	308.15	0.0212	998.665	0.218
0.01	308.15	0.04992	1003.825	0.22
0.01	308.15	0.07188	1007.719	0.224
0.01	308.15	0.09994	1012.661	0.228
0.01	308.15	0.19994	1029.752	0.244
0.01	308.15	0.29742	1045.7	0.261
0.01	308.15	0.40087	1061.853	0.279
0.01	308.15	0.4974	1076.221	0.294
0.01	308.15	0.59183	1089.616	0.309
0.01	308.15	0.69326	1103.283	0.325
0.01	308.15	0.79125	1115.838	0.339
0.01	308.15	0.9031	1129.475	0.354
0.01	308.15	1.0025	1140.803	0.368
0.03	288.15	0.02052	1004	0.22
0.03	288.15	0.04988	1009.414	0.225
0.03	288.15	0.06975	1013.029	0.228
0.03	288.15	0.10121	1018.71	0.233
0.03	288.15	0.20079	1036.116	0.249
0.03	288.15	0.29924	1052.541	0.267
0.03	288.15	0.40117	1068.735	0.285
0.03	288.15	0.50683	1084.563	0.303
0.03	288.15	0.60004	1097.912	0.318
0.03	288.15	0.70061	1111.438	0.333
0.03	288.15	0.78538	1122.377	0.345
0.03	288.15	0.89874	1136.091	0.36
0.03	288.15	0.9923	1146.722	0.373
0.03	293.15	0.02052	1003.019	0.219
0.03	293.15	0.04988	1008.352	0.224
0.03	293.15	0.06975	1011.916	0.227
0.03	293.15	0.10121	1017.499	0.232
0.03	293.15	0.20079	1034.646	0.248
0.03	293.15	0.29924	1050.809	0.266
0.03	293.15	0.40117	1066.755	0.283
0.03	293.15	0.50683	1082.341	0.301
0.03	293.15	0.60004	1095.423	0.315
0.03	293.15	0.70061	1108.794	0.33
0.03	293.15	0.78538	1119.475	0.342
0.03	293.15	0.89874	1132.906	0.357
0.03	293.15	0.9923	1143.326	0.369
0.03	298.15	0.02052	1001.771	0.218
0.03	298.15	0.04988	1007.034	0.223
0.03	298.15	0.06975	1010.551	0.226
0.03	298.15	0.10121	1016.08	0.231
0.03	298.15	0.20079	1033.002	0.246
0.03	298.15	0.29924	1048.934	0.264
0.03	298.15	0.40117	1064.671	0.281
0.03	298.15	0.50683	1079.979	0.298
0.03	298.15	0.60004	1092.834	0.312
0.03	298.15	0.70061	1105.975	0.327
0.03	298.15	0.78538	1116.463	0.339
0.03	298.15	0.89874	1129.75	0.354
0.03	298.15	0.9923	1139.963	0.365
0.03	303.15	0.02052	1000.308	0.217
0.03	303.15	0.04988	1005.512	0.222
0.03	303.15	0.06975	1009.002	0.225
0.03	303.15	0.10121	1014.45	0.23
0.03	303.15	0.20079	1031.201	0.245
0.03	303.15	0.29924	1046.941	0.262
0.03	303.15	0.40117	1062.477	0.279
0.03	303.15	0.50683	1077.73	0.296
0.03	303.15	0.60004	1090.486	0.31
0.03	303.15	0.70061	1103.469	0.324
0.03	303.15	0.78538	1113.766	0.336
0.03	303.15	0.89874	1126.749	0.35
0.03	303.15	0.9923	1137.012	0.362
0.03	308.15	0.02052	998.651	0.217
0.03	308.15	0.04988	1003.797	0.22
0.03	308.15	0.06975	1007.242	0.223
0.03	308.15	0.10121	1012.639	0.228
0.03	308.15	0.20079	1029.181	0.243
0.03	308.15	0.29924	1044.777	0.26
0.03	308.15	0.40117	1060.071	0.276
0.03	308.15	0.50683	1075.141	0.293
0.03	308.15	0.60004	1087.763	0.307
0.03	308.15	0.70061	1100.577	0.321
0.03	308.15	0.78538	1110.784	0.333
0.03	308.15	0.89874	1123.669	0.347
0.03	308.15	0.9923	1133.819	0.358

System: trisodium citrate + water + 1-hexyl-3-methylimidazolium chloride; phases: Liquid
Fixed: Pressure, kPa = 101
Fixed: Frequency, MHz = 3
Property: Speed of sound, m/s (Liquid); method: FPINT:UFactor:4
Solvent: Molality, mol/kg of 1-hexyl-3-methylimidazolium chloride	Temperature, K	Molality, mol/kg of trisodium citrate	Speed of sound, m/s	uncertainty
0	288.15	0.01959	1467.21	3.04
0	293.15	0.01959	1485.18	3.06
0	298.15	0.01959	1499.69	3.08
0	303.15	0.01959	1512.58	3.1
0	308.15	0.01959	1522.76	3.11
0.03	288.15	0.02052	1476.18	3.05
0.03	293.15	0.02052	1492.62	3.07
0.03	298.15	0.02052	1507.22	3.09
0.03	303.15	0.02052	1520.19	3.11
0.03	308.15	0.02052	1531.48	3.12
0.01	288.15	0.0212	1472.99	3.05
0.01	293.15	0.0212	1488.99	3.07
0.01	298.15	0.0212	1502.95	3.08
0.01	303.15	0.0212	1515.15	3.1
0.01	308.15	0.0212	1525.36	3.11
0	298.15	0.04954	1505.59	3.09
0	303.15	0.04954	1518.34	3.1
0	308.15	0.04954	1528.31	3.12
0	288.15	0.04954	1473.47	3.05
0	293.15	0.04954	1491.36	3.07
0.03	288.15	0.04988	1481.75	3.06
0.03	293.15	0.04988	1498.19	3.08
0.03	298.15	0.04988	1512.48	3.1
0.03	303.15	0.04988	1525.29	3.12
0.03	308.15	0.04988	1536.35	3.13
0.01	288.15	0.04992	1478.95	3.06
0.01	293.15	0.04992	1494.94	3.08
0.01	298.15	0.04992	1508.65	3.09
0.01	303.15	0.04992	1520.75	3.11
0.01	308.15	0.04992	1530.88	3.12
0	303.15	0.06743	1521.74	3.11
0	308.15	0.06743	1531.54	3.12
0	288.15	0.06743	1477.25	3.06
0	293.15	0.06743	1495.04	3.08
0	298.15	0.06743	1509.07	3.09
0.03	288.15	0.06975	1485.58	3.06
0.03	293.15	0.06975	1501.89	3.09
0.03	298.15	0.06975	1516.05	3.1
0.03	303.15	0.06975	1528.78	3.12
0.03	308.15	0.06975	1539.68	3.14
0.01	288.15	0.07188	1483.45	3.06
0.01	293.15	0.07188	1499.37	3.08
0.01	298.15	0.07188	1513.09	3.1
0.01	303.15	0.07188	1525.11	3.11
0.01	308.15	0.07188	1535.16	3.13
0	308.15	0.09908	1537.42	3.13
0	293.15	0.09908	1501.61	3.09
0	303.15	0.09908	1527.87	3.12
0	298.15	0.09908	1515.26	3.1
0	288.15	0.09908	1483.88	3.07
0.01	288.15	0.09994	1489.21	3.07
0.01	293.15	0.09994	1505.05	3.09
0.01	298.15	0.09994	1518.57	3.11
0.01	303.15	0.09994	1530.54	3.12
0.01	308.15	0.09994	1540.49	3.13
0.03	288.15	0.10121	1491.63	3.07
0.03	293.15	0.10121	1507.85	3.09
0.03	298.15	0.10121	1521.79	3.11
0.03	303.15	0.10121	1534.35	3.13
0.03	308.15	0.10121	1544.94	3.14
0	298.15	0.19983	1534.94	3.13
0	288.15	0.19983	1505.26	3.1
0	303.15	0.19983	1546.94	3.14
0	293.15	0.19983	1522.71	3.12
0	308.15	0.19983	1555.44	3.16
0.01	288.15	0.19994	1509.89	3.1
0.01	293.15	0.19994	1525.72	3.12
0.01	298.15	0.19994	1537.89	3.13
0.01	303.15	0.19994	1549.74	3.15
0.01	308.15	0.19994	1559.25	3.16
0.03	288.15	0.20079	1510.72	3.1
0.03	293.15	0.20079	1526.76	3.12
0.03	298.15	0.20079	1539.68	3.14
0.03	303.15	0.20079	1551.75	3.15
0.03	308.15	0.20079	1561.77	3.17
0.01	293.15	0.29742	1545.13	3.15
0.01	298.15	0.29742	1556.45	3.16
0.01	303.15	0.29742	1567.84	3.18
0.01	308.15	0.29742	1576.95	3.19
0.01	288.15	0.29742	1529.53	3.13
0	293.15	0.29918	1542.77	3.14
0	303.15	0.29918	1565.08	3.17
0	298.15	0.29918	1553.94	3.16
0	288.15	0.29918	1525.93	3.13
0	308.15	0.29918	1573.01	3.18
0.03	288.15	0.29924	1529.84	3.13
0.03	293.15	0.29924	1545.45	3.15
0.03	298.15	0.29924	1557.43	3.16
0.03	303.15	0.29924	1568.82	3.18
0.03	308.15	0.29924	1578.23	3.19
0	293.15	0.39514	1561.82	3.17
0	303.15	0.39514	1582.54	3.2
0	298.15	0.39514	1571.84	3.18
0	288.15	0.39514	1546.04	3.15
0	308.15	0.39514	1589.44	3.2
0.01	298.15	0.40087	1574.92	3.19
0.01	303.15	0.40087	1586.57	3.2
0.01	308.15	0.40087	1594.65	3.21
0.01	288.15	0.40087	1549.85	3.16
0.01	293.15	0.40087	1564.69	3.17
0.03	288.15	0.40117	1549.58	3.16
0.03	293.15	0.40117	1564.73	3.18
0.03	298.15	0.40117	1575.81	3.19
0.03	303.15	0.40117	1586.18	3.2
0.03	308.15	0.40117	1594.85	3.21
0	303.15	0.48759	1598.51	3.22
0	293.15	0.48759	1579.77	3.2
0	298.15	0.48759	1588.71	3.21
0	288.15	0.48759	1565.06	3.18
0	308.15	0.48759	1604.26	3.23
0.01	303.15	0.4974	1602.42	3.23
0.01	308.15	0.4974	1609.93	3.23
0.01	293.15	0.4974	1582.38	3.2
0.01	298.15	0.4974	1591.63	3.21
0.01	288.15	0.4974	1568.38	3.18
0.03	288.15	0.50683	1569.22	3.19
0.03	293.15	0.50683	1584.53	3.2
0.03	298.15	0.50683	1594.32	3.21
0.03	303.15	0.50683	1603.82	3.23
0.03	308.15	0.50683	1611.77	3.24
0.01	308.15	0.59183	1623.99	3.25
0.01	303.15	0.59183	1617.48	3.25
0.01	293.15	0.59183	1598.34	3.22
0.01	298.15	0.59183	1606.79	3.23
0.01	288.15	0.59183	1585.67	3.21
0	303.15	0.59704	1615.56	3.24
0	293.15	0.59704	1599.75	3.22
0	298.15	0.59704	1606.72	3.23
0	288.15	0.59704	1586.88	3.21
0	308.15	0.59704	1619.92	3.25
0.03	288.15	0.60004	1586.81	3.21
0.03	293.15	0.60004	1600.94	3.23
0.03	298.15	0.60004	1610.24	3.24
0.03	303.15	0.60004	1618.97	3.25
0.03	308.15	0.60004	1625.91	3.26
0.01	298.15	0.69326	1622.56	3.26
0.01	308.15	0.69326	1638.32	3.28
0.01	303.15	0.69326	1631.45	3.27
0.01	293.15	0.69326	1614.89	3.25
0.01	288.15	0.69326	1602.73	3.23
0	293.15	0.69512	1615.98	3.25
0	298.15	0.69512	1621.1	3.25
0	308.15	0.69512	1632.43	3.27
0	303.15	0.69512	1628.73	3.26
0	288.15	0.69512	1604.46	3.23
0.03	293.15	0.70061	1618.58	3.25
0.03	298.15	0.70061	1626.81	3.26
0.03	303.15	0.70061	1635.17	3.27
0.03	288.15	0.70061	1605.51	3.24
0.03	308.15	0.70061	1640.87	3.28
0.03	293.15	0.78538	1632.81	3.27
0.03	288.15	0.78538	1620.08	3.26
0.03	298.15	0.78538	1640.36	3.28
0.03	303.15	0.78538	1647.79	3.29
0.03	308.15	0.78538	1652.78	3.3
0	308.15	0.78612	1640.94	3.28
0	298.15	0.78612	1632.59	3.27
0	293.15	0.78612	1629.94	3.26
0	288.15	0.78612	1618.77	3.25
0	303.15	0.78612	1639.72	3.28
0.01	303.15	0.79125	1645.45	3.29
0.01	288.15	0.79125	1618.19	3.25
0.01	293.15	0.79125	1628.96	3.27
0.01	308.15	0.79125	1650.12	3.29
0.01	298.15	0.79125	1636.82	3.28
0	303.15	0.88436	1648.36	3.29
0	298.15	0.88436	1643.73	3.28
0	293.15	0.88436	1642.7	3.28
0	288.15	0.88436	1632.44	3.27
0	308.15	0.88436	1649.13	3.29
0.03	303.15	0.89874	1664.17	3.31
0.03	298.15	0.89874	1657.27	3.31
0.03	288.15	0.89874	1639.65	3.29
0.03	293.15	0.89874	1651.74	3.3
0.03	308.15	0.89874	1668.05	3.32
0.01	303.15	0.9031	1657.54	3.31
0.01	293.15	0.9031	1646.06	3.29
0.01	308.15	0.9031	1662.34	3.31
0.01	288.15	0.9031	1634.67	3.28
0.01	298.15	0.9031	1651.52	3.3
0.03	293.15	0.9923	1666.82	3.32
0.03	303.15	0.9923	1676.13	3.33
0.03	298.15	0.9923	1671.02	3.32
0.03	288.15	0.9923	1655.26	3.31
0.03	308.15	0.9923	1679.44	3.34
0	308.15	0.99939	1655.94	3.3
0	293.15	0.99939	1654.58	3.3
0	303.15	0.99939	1655.76	3.3
0	288.15	0.99939	1646.15	3.29
0	298.15	0.99939	1652.29	3.3
0.01	308.15	1.0025	1670.71	3.32
0.01	288.15	1.0025	1648.04	3.29
0.01	298.15	1.0025	1662.52	3.31
0.01	303.15	1.0025	1667.25	3.32
0.01	293.15	1.0025	1658.68	3.31

System: potassium citrate + water + 1-hexyl-3-methylimidazolium chloride; phases: Liquid
Fixed: Pressure, kPa = 100
Property: Mass density, kg/m3 (Liquid); method: VIBTUB:UFactor:2
Solvent: Molality, mol/kg of 1-hexyl-3-methylimidazolium chloride	Temperature, K	Molality, mol/kg of potassium citrate	Mass density, kg/m3	uncertainty
0	288.15	0.02026	1003.334	0.219
0	288.15	0.0491	1009.283	0.225
0	288.15	0.06926	1013.385	0.228
0	288.15	0.09937	1019.455	0.234
0	288.15	0.19724	1038.677	0.252
0	288.15	0.29804	1057.592	0.273
0	288.15	0.39472	1074.963	0.292
0	288.15	0.49947	1092.896	0.312
0	288.15	0.57886	1105.98	0.326
0	288.15	0.69593	1124.407	0.347
0	288.15	0.79601	1139.132	0.363
0	288.15	0.88725	1152.05	0.378
0	288.15	0.99316	1166.127	0.394
0	293.15	0.02026	1002.398	0.219
0	293.15	0.0491	1008.28	0.224
0	293.15	0.06926	1012.35	0.227
0	293.15	0.09937	1018.344	0.233
0	293.15	0.19724	1037.362	0.251
0	293.15	0.29804	1056.03	0.271
0	293.15	0.39472	1073.241	0.29
0	293.15	0.49947	1091.055	0.31
0	293.15	0.57886	1104.022	0.324
0	293.15	0.69593	1122.178	0.345
0	293.15	0.79601	1136.88	0.361
0	293.15	0.88725	1149.581	0.375
0	293.15	0.99316	1163.554	0.391
0	298.15	0.02026	1001.182	0.218
0	298.15	0.0491	1007.002	0.223
0	298.15	0.06926	1011.026	0.226
0	298.15	0.09937	1016.985	0.232
0	298.15	0.19724	1035.83	0.249
0	298.15	0.29804	1054.336	0.27
0	298.15	0.39472	1071.362	0.288
0	298.15	0.49947	1088.945	0.308
0	298.15	0.57886	1101.723	0.322
0	298.15	0.69593	1119.746	0.342
0	298.15	0.79601	1134.217	0.358
0	298.15	0.88725	1146.808	0.372
0	298.15	0.99316	1160.643	0.388
0	303.15	0.02026	999.758	0.217
0	303.15	0.0491	1005.537	0.222
0	303.15	0.06926	1009.528	0.225
0	303.15	0.09937	1015.445	0.23
0	303.15	0.19724	1034.057	0.248
0	303.15	0.29804	1052.462	0.268
0	303.15	0.39472	1069.255	0.286
0	303.15	0.49947	1086.78	0.306
0	303.15	0.57886	1099.481	0.32
0	303.15	0.69593	1117.27	0.339
0	303.15	0.79601	1131.481	0.355
0	303.15	0.88725	1143.923	0.369
0	303.15	0.99316	1157.519	0.385
0	308.15	0.02026	998.094	0.218
0	308.15	0.0491	1003.82	0.22
0	308.15	0.06926	1007.771	0.224
0	308.15	0.09937	1013.615	0.229
0	308.15	0.19724	1032.102	0.246
0	308.15	0.29804	1050.265	0.266
0	308.15	0.39472	1066.915	0.284
0	308.15	0.49947	1084.168	0.303
0	308.15	0.57886	1096.612	0.317
0	308.15	0.69593	1114.182	0.337
0	308.15	0.79601	1128.445	0.352
0	308.15	0.88725	1140.757	0.366
0	308.15	0.99316	1154.417	0.381
0.01	288.15	0.02128	1004.264	0.22
0.01	288.15	0.05144	1010.372	0.226
0.01	288.15	0.07903	1015.899	0.23
0.01	288.15	0.10059	1020.173	0.234
0.01	288.15	0.29917	1057.798	0.273
0.01	288.15	0.39891	1075.537	0.293
0.01	288.15	0.49366	1091.667	0.31
0.01	288.15	0.58796	1107.097	0.328
0.01	288.15	0.69758	1124.143	0.346
0.01	288.15	0.80003	1139.339	0.363
0.01	288.15	0.9132	1155.277	0.381
0.01	288.15	0.99282	1165.874	0.393
0.01	293.15	0.02128	1003.326	0.219
0.01	293.15	0.05144	1009.383	0.225
0.01	293.15	0.07903	1014.861	0.23
0.01	293.15	0.10059	1019.104	0.233
0.01	293.15	0.29917	1056.425	0.272
0.01	293.15	0.39891	1074.019	0.291
0.01	293.15	0.49366	1090.08	0.309
0.01	293.15	0.58796	1105.314	0.326
0.01	293.15	0.69758	1122.274	0.345
0.01	293.15	0.80003	1137.389	0.361
0.01	293.15	0.9132	1153.172	0.379
0.01	293.15	0.99282	1163.674	0.391
0.01	298.15	0.02128	1002.126	0.219
0.01	298.15	0.05144	1008.133	0.224
0.01	298.15	0.07903	1013.568	0.229
0.01	298.15	0.10059	1017.77	0.232
0.01	298.15	0.29917	1054.77	0.27
0.01	298.15	0.39891	1072.216	0.289
0.01	298.15	0.49366	1088.077	0.307
0.01	298.15	0.58796	1103.194	0.323
0.01	298.15	0.69758	1119.961	0.342
0.01	298.15	0.80003	1134.887	0.359
0.01	298.15	0.9132	1150.51	0.376
0.01	298.15	0.99282	1161.078	0.388
0.01	303.15	0.02128	1000.695	0.217
0.01	303.15	0.05144	1006.668	0.223
0.01	303.15	0.07903	1012.073	0.227
0.01	303.15	0.10059	1016.245	0.231
0.01	303.15	0.29917	1053	0.268
0.01	303.15	0.39891	1070.331	0.287
0.01	303.15	0.49366	1086.12	0.305
0.01	303.15	0.58796	1101.159	0.321
0.01	303.15	0.69758	1117.823	0.34
0.01	303.15	0.80003	1132.7	0.36
0.01	303.15	0.9132	1148.228	0.374
0.01	303.15	0.99282	1158.57	0.385
0.01	308.15	0.02128	999.045	0.217
0.01	308.15	0.05144	1004.972	0.221
0.01	308.15	0.07903	1010.336	0.226
0.01	308.15	0.10059	1014.495	0.23
0.01	308.15	0.29917	1050.989	0.266
0.01	308.15	0.39891	1068.19	0.285
0.01	308.15	0.49366	1083.875	0.303
0.01	308.15	0.58796	1098.828	0.319
0.01	308.15	0.69758	1115.317	0.338
0.01	308.15	0.80003	1130.061	0.354
0.01	308.15	0.9132	1145.421	0.371
0.01	308.15	0.99282	1155.863	0.384
0.03	288.15	0.01981	1004.218	0.22
0.03	288.15	0.05025	1010.376	0.226
0.03	288.15	0.06898	1014.122	0.229
0.03	288.15	0.09907	1020.077	0.234
0.03	288.15	0.19782	1039.086	0.253
0.03	288.15	0.29554	1057.133	0.272
0.03	288.15	0.39831	1075.266	0.292
0.03	288.15	0.49835	1092.054	0.311
0.03	288.15	0.59973	1108.216	0.329
0.03	288.15	0.69505	1122.747	0.345
0.03	288.15	0.79627	1137.316	0.361
0.03	288.15	0.89399	1150.739	0.376
0.03	288.15	0.98838	1162.937	0.39
0.03	293.15	0.01981	1003.254	0.219
0.03	293.15	0.05025	1009.347	0.225
0.03	293.15	0.06898	1013.062	0.228
0.03	293.15	0.09907	1018.964	0.233
0.03	293.15	0.19782	1037.822	0.251
0.03	293.15	0.29554	1055.69	0.271
0.03	293.15	0.39831	1073.618	0.291
0.03	293.15	0.49835	1090.239	0.309
0.03	293.15	0.59973	1106.308	0.327
0.03	293.15	0.69505	1120.676	0.343
0.03	293.15	0.79627	1135.154	0.359
0.03	293.15	0.89399	1148.315	0.374
0.03	293.15	0.98838	1160.379	0.388
0.03	298.15	0.01981	1002.025	0.218
0.03	298.15	0.05025	1008.06	0.224
0.03	298.15	0.06898	1011.731	0.227
0.03	298.15	0.09907	1017.584	0.232
0.03	298.15	0.19782	1036.216	0.25
0.03	298.15	0.29554	1053.893	0.269
0.03	298.15	0.39831	1071.592	0.289
0.03	298.15	0.49835	1088.036	0.307
0.03	298.15	0.59973	1103.842	0.324
0.03	298.15	0.69505	1118.04	0.34
0.03	298.15	0.79627	1132.302	0.356
0.03	298.15	0.89399	1145.361	0.371
0.03	298.15	0.98838	1157.275	0.384
0.03	303.15	0.01981	1000.565	0.217
0.03	303.15	0.05025	1006.556	0.223
0.03	303.15	0.06898	1010.205	0.226
0.03	303.15	0.09907	1016.014	0.231
0.03	303.15	0.19782	1034.501	0.248
0.03	303.15	0.29554	1052.019	0.267
0.03	303.15	0.39831	1069.643	0.287
0.03	303.15	0.49835	1085.819	0.304
0.03	303.15	0.59973	1101.579	0.322
0.03	303.15	0.69505	1115.557	0.337
0.03	303.15	0.79627	1129.682	0.353
0.03	303.15	0.89399	1142.52	0.368
0.03	303.15	0.98838	1154.221	0.381
0.03	308.15	0.01981	998.918	0.217
0.03	308.15	0.05025	1004.859	0.221
0.03	308.15	0.06898	1008.479	0.224
0.03	308.15	0.09907	1014.224	0.229
0.03	308.15	0.19782	1032.561	0.246
0.03	308.15	0.29554	1049.897	0.265
0.03	308.15	0.39831	1067.286	0.284
0.03	308.15	0.49835	1083.422	0.302
0.03	308.15	0.59973	1098.988	0.319
0.03	308.15	0.69505	1112.852	0.335
0.03	308.15	0.79627	1126.784	0.35
0.03	308.15	0.89399	1139.535	0.365
0.03	308.15	0.98838	1151.148	0.378

System: potassium citrate + water + 1-hexyl-3-methylimidazolium chloride; phases: Liquid
Fixed: Pressure, kPa = 101
Fixed: Frequency, MHz = 3
Property: Speed of sound, m/s (Liquid); method: FPINT:UFactor:4
Solvent: Molality, mol/kg of 1-hexyl-3-methylimidazolium chloride	Temperature, K	Molality, mol/kg of potassium citrate	Speed of sound, m/s	uncertainty
0	288.15	0.02026	1467.22	3.04
0	288.15	0.0491	1473.04	3.05
0	288.15	0.06926	1477.18	3.06
0	288.15	0.09937	1483.37	3.06
0	288.15	0.19724	1503.69	3.09
0	288.15	0.29804	1525.09	3.12
0	288.15	0.39472	1545.64	3.15
0	288.15	0.49947	1566.79	3.18
0	288.15	0.57886	1582.54	3.2
0	288.15	0.69593	1604.16	3.23
0	288.15	0.79601	1619.83	3.25
0	288.15	0.88725	1633.83	3.27
0	288.15	0.99316	1647.52	3.29
0	293.15	0.02026	1485.13	3.06
0	293.15	0.0491	1490.85	3.07
0	293.15	0.06926	1494.91	3.08
0	293.15	0.09937	1501.09	3.09
0	293.15	0.19724	1520.95	3.11
0	293.15	0.29804	1541.37	3.14
0	293.15	0.39472	1560.89	3.17
0	293.15	0.49947	1581.25	3.2
0	293.15	0.57886	1596.15	3.22
0	293.15	0.69593	1616.26	3.25
0	293.15	0.79601	1630.37	3.27
0	293.15	0.88725	1642.41	3.28
0	293.15	0.99316	1655.47	3.3
0	298.15	0.02026	1499.69	3.08
0	298.15	0.0491	1505.19	3.09
0	298.15	0.06926	1509.04	3.09
0	298.15	0.09937	1514.85	3.1
0	298.15	0.19724	1533.77	3.13
0	298.15	0.29804	1552.91	3.16
0	298.15	0.39472	1571.29	3.18
0	298.15	0.49947	1590.02	3.21
0	298.15	0.57886	1603.25	3.23
0	298.15	0.69593	1622.05	3.25
0	298.15	0.79601	1635.25	3.27
0	298.15	0.88725	1645.62	3.29
0	298.15	0.99316	1656.11	3.3
0	303.15	0.02026	1512.6	3.1
0	303.15	0.0491	1517.98	3.1
0	303.15	0.06926	1521.75	3.11
0	303.15	0.09937	1527.41	3.12
0	303.15	0.19724	1545.87	3.14
0	303.15	0.29804	1564.44	3.17
0	303.15	0.39472	1581.87	3.2
0	303.15	0.49947	1599.58	3.22
0	303.15	0.57886	1612.14	3.24
0	303.15	0.69593	1628.76	3.26
0	303.15	0.79601	1641.49	3.28
0	303.15	0.88725	1650.75	3.29
0	303.15	0.99316	1658.95	3.31
0	308.15	0.02026	1522.81	3.11
0	308.15	0.0491	1528.04	3.12
0	308.15	0.06926	1531.67	3.12
0	308.15	0.09937	1537.13	3.13
0	308.15	0.19724	1554.77	3.15
0	308.15	0.29804	1572.58	3.18
0	308.15	0.39472	1589.01	3.2
0	308.15	0.49947	1605.45	3.23
0	308.15	0.57886	1617.43	3.24
0	308.15	0.69593	1632.58	3.27
0	308.15	0.79601	1644.04	3.28
0	308.15	0.88725	1651.81	3.29
0	308.15	0.99316	1659.96	3.31
0.01	288.15	0.02128	1472.95	3.05
0.01	288.15	0.05144	1479.11	3.06
0.01	288.15	0.07903	1484.79	3.06
0.01	288.15	0.10059	1489.24	3.07
0.01	288.15	0.19841	1509.02	3.1
0.01	288.15	0.29917	1529.39	3.13
0.01	288.15	0.39891	1548.91	3.15
0.01	288.15	0.49366	1566.81	3.18
0.01	288.15	0.58796	1583.52	3.2
0.01	288.15	0.69758	1601.56	3.23
0.01	288.15	0.80003	1617.78	3.25
0.01	288.15	0.9132	1632.21	3.27
0.01	288.15	0.99282	1642.04	3.28
0.01	293.15	0.02128	1488.94	3.07
0.01	293.15	0.05144	1494.98	3.08
0.01	293.15	0.07903	1500.63	3.08
0.01	293.15	0.10059	1504.83	3.09
0.01	293.15	0.19841	1524.14	3.12
0.01	293.15	0.29917	1543.98	3.14
0.01	293.15	0.39891	1562.89	3.17
0.01	293.15	0.49366	1579.61	3.2
0.01	293.15	0.58796	1595.73	3.22
0.01	293.15	0.69758	1612.69	3.24
0.01	293.15	0.80003	1628.25	3.26
0.01	293.15	0.9132	1643.29	3.29
0.01	293.15	0.99282	1653.22	3.3
0.01	298.15	0.02128	1502.82	3.08
0.01	298.15	0.05144	1508.59	3.09
0.01	298.15	0.07903	1513.88	3.1
0.01	298.15	0.10059	1517.96	3.11
0.01	298.15	0.19841	1536.67	3.13
0.01	298.15	0.29917	1555.58	3.16
0.01	298.15	0.39891	1573.55	3.18
0.01	298.15	0.49366	1589.52	3.21
0.01	298.15	0.58796	1604.83	3.23
0.01	298.15	0.69758	1620.69	3.25
0.01	298.15	0.80003	1634.4	3.3
0.01	298.15	0.9132	1648.84	3.29
0.01	298.15	0.99282	1656.37	3.3
0.01	303.15	0.02128	1515.03	3.1
0.01	303.15	0.05144	1520.81	3.11
0.01	303.15	0.07903	1525.98	3.11
0.01	303.15	0.10059	1530.18	3.12
0.01	303.15	0.19841	1548.45	3.15
0.01	303.15	0.29917	1566.86	3.17
0.01	303.15	0.39891	1584.01	3.2
0.01	303.15	0.49366	1599.51	3.22
0.01	303.15	0.58796	1613.85	3.24
0.01	303.15	0.69758	1629.35	3.26
0.01	303.15	0.80003	1642.44	3.28
0.01	303.15	0.9132	1655.4	3.3
0.01	303.15	0.99282	1663.22	3.31
0.01	308.15	0.02128	1525.24	3.11
0.01	308.15	0.05144	1530.88	3.12
0.01	308.15	0.07903	1535.96	3.13
0.01	308.15	0.10059	1539.91	3.13
0.01	308.15	0.19841	1557.54	3.16
0.01	308.15	0.29917	1575.11	3.18
0.01	308.15	0.39891	1591.64	3.21
0.01	308.15	0.49366	1606.77	3.23
0.01	308.15	0.58796	1620.21	3.25
0.01	308.15	0.69758	1635.27	3.27
0.01	308.15	0.80003	1647.8	3.29
0.01	308.15	0.9132	1660.13	3.31
0.01	308.15	0.99282	1666.83	3.32
0.03	288.15	0.01981	1476.41	3.05
0.03	288.15	0.05025	1482.64	3.06
0.03	288.15	0.06898	1486.54	3.07
0.03	288.15	0.09907	1492.68	3.07
0.03	288.15	0.19782	1512.72	3.1
0.03	288.15	0.29554	1532.48	3.13
0.03	288.15	0.39831	1552.59	3.16
0.03	288.15	0.49835	1570.95	3.18
0.03	288.15	0.59973	1588.82	3.21
0.03	288.15	0.69505	1604.55	3.23
0.03	288.15	0.79627	1620.21	3.25
0.03	288.15	0.89399	1634.65	3.27
0.03	288.15	0.98838	1645.76	3.29
0.03	293.15	0.01981	1492.75	3.07
0.03	293.15	0.05025	1498.82	3.08
0.03	293.15	0.06898	1502.48	3.09
0.03	293.15	0.09907	1508.31	3.09
0.03	293.15	0.19782	1527.54	3.12
0.03	293.15	0.29554	1545.85	3.15
0.03	293.15	0.39831	1564.45	3.17
0.03	293.15	0.49835	1582.47	3.2
0.03	293.15	0.59973	1597.95	3.22
0.03	293.15	0.69505	1614.06	3.24
0.03	293.15	0.79627	1625.79	3.26
0.03	293.15	0.89399	1639.48	3.28
0.03	293.15	0.98838	1651.08	3.29
0.03	298.15	0.01981	1507.17	3.09
0.03	298.15	0.05025	1512.78	3.1
0.03	298.15	0.06898	1516.28	3.1
0.03	298.15	0.09907	1521.75	3.11
0.03	298.15	0.19782	1539.91	3.14
0.03	298.15	0.29554	1556.99	3.16
0.03	298.15	0.39831	1574.95	3.19
0.03	298.15	0.49835	1591.19	3.21
0.03	298.15	0.59973	1606.26	3.23
0.03	298.15	0.69505	1620.15	3.25
0.03	298.15	0.79627	1630.69	3.27
0.03	298.15	0.89399	1642.2	3.3
0.03	298.15	0.98838	1651.47	3.29
0.03	303.15	0.01981	1520.15	3.11
0.03	303.15	0.05025	1525.46	3.12
0.03	303.15	0.06898	1528.77	3.12
0.03	303.15	0.09907	1534.05	3.13
0.03	303.15	0.19782	1551.05	3.15
0.03	303.15	0.29554	1567.72	3.17
0.03	303.15	0.39831	1584.19	3.2
0.03	303.15	0.49835	1600.06	3.22
0.03	303.15	0.59973	1614.42	3.24
0.03	303.15	0.69505	1626.74	3.26
0.03	303.15	0.79627	1637.65	3.27
0.03	303.15	0.89399	1647.41	3.29
0.03	303.15	0.98838	1656.94	3.3
0.03	308.15	0.01981	1531.35	3.12
0.03	308.15	0.05025	1536.4	3.13
0.03	308.15	0.06898	1539.48	3.13
0.03	308.15	0.09907	1544.52	3.14
0.03	308.15	0.19782	1560.42	3.16
0.03	308.15	0.29554	1575.81	3.19
0.03	308.15	0.39831	1591.71	3.21
0.03	308.15	0.49835	1606.19	3.23
0.03	308.15	0.59973	1619.49	3.25
0.03	308.15	0.69505	1630.26	3.26
0.03	308.15	0.79627	1639.85	3.28
0.03	308.15	0.89399	1647.97	3.29
0.03	308.15	0.98838	1656.26	3.3

System: trisodium citrate + water; phases: Liquid
Fixed: Pressure, kPa = 100
Property: Mass density, kg/m3 (Liquid); method: VIBTUB:UFactor:2
Temperature, K	Molality, mol/kg of trisodium citrate	Mass density, kg/m3	uncertainty
288.15	0.01959	1002.846	0.219
288.15	0.04954	1008.487	0.224
288.15	0.06743	1011.813	0.227
288.15	0.09908	1017.64	0.232
288.15	0.19983	1035.594	0.249
288.15	0.29918	1052.468	0.267
288.15	0.39514	1068.031	0.284
288.15	0.48759	1082.255	0.3
288.15	0.59704	1098.255	0.318
288.15	0.69512	1111.625	0.333
288.15	0.78612	1123.747	0.346
288.15	0.88436	1135.935	0.36
288.15	0.99939	1149.327	0.375
293.15	0.01959	1001.892	0.218
293.15	0.04954	1007.475	0.223
293.15	0.06743	1010.764	0.226
293.15	0.09908	1016.533	0.231
293.15	0.19983	1034.231	0.248
293.15	0.29918	1050.868	0.266
293.15	0.39514	1066.171	0.283
293.15	0.48759	1080.177	0.298
293.15	0.59704	1095.905	0.316
293.15	0.69512	1109.148	0.33
293.15	0.78612	1121.059	0.344
293.15	0.88436	1133.063	0.357
293.15	0.99939	1146.434	0.372
298.15	0.01959	1000.685	0.217
298.15	0.04954	1006.18	0.222
298.15	0.06743	1009.435	0.225
298.15	0.09908	1015.115	0.23
298.15	0.19983	1032.635	0.246
298.15	0.29918	1049.051	0.264
298.15	0.39514	1064.141	0.28
298.15	0.48759	1077.922	0.296
298.15	0.59704	1093.52	0.313
298.15	0.69512	1106.644	0.328
298.15	0.78612	1118.249	0.341
298.15	0.88436	1130.1	0.354
298.15	0.99939	1143.182	0.369
303.15	0.01959	999.26	0.217
303.15	0.04954	1004.698	0.221
303.15	0.06743	1007.919	0.224
303.15	0.09908	1013.535	0.229
303.15	0.19983	1030.885	0.244
303.15	0.29918	1047.186	0.262
303.15	0.39514	1062.141	0.278
303.15	0.48759	1075.751	0.293
303.15	0.59704	1091.15	0.31
303.15	0.69512	1104.176	0.325
303.15	0.78612	1115.718	0.338
303.15	0.88436	1127.321	0.351
303.15	0.99939	1140.137	0.365
308.15	0.01959	997.602	0.218
308.15	0.04954	1002.99	0.22
308.15	0.06743	1006.175	0.222
308.15	0.09908	1011.725	0.227
308.15	0.19983	1028.9	0.243
308.15	0.29918	1045.014	0.26
308.15	0.39514	1059.787	0.276
308.15	0.48759	1073.29	0.291
308.15	0.59704	1088.543	0.308
308.15	0.69512	1101.303	0.322
308.15	0.78612	1112.61	0.335
308.15	0.88436	1124.19	0.348
308.15	0.99939	1136.843	0.362

System: trisodium citrate + water; phases: Liquid
Fixed: Pressure, kPa = 101
Fixed: Frequency, MHz = 3
Property: Speed of sound, m/s (Liquid); method: FPINT:UFactor:4
Temperature, K	Molality, mol/kg of trisodium citrate	Speed of sound, m/s	uncertainty
288.15	0.01959	1467.21	3.04
293.15	0.01959	1485.18	3.06
298.15	0.01959	1499.69	3.08
303.15	0.01959	1512.58	3.1
308.15	0.01959	1522.76	3.11
298.15	0.04954	1505.59	3.09
303.15	0.04954	1518.34	3.1
308.15	0.04954	1528.31	3.12
288.15	0.04954	1473.47	3.05
293.15	0.04954	1491.36	3.07
303.15	0.06743	1521.74	3.11
308.15	0.06743	1531.54	3.12
288.15	0.06743	1477.25	3.06
293.15	0.06743	1495.04	3.08
298.15	0.06743	1509.07	3.09
308.15	0.09908	1537.42	3.13
293.15	0.09908	1501.61	3.09
303.15	0.09908	1527.87	3.12
298.15	0.09908	1515.26	3.1
288.15	0.09908	1483.88	3.07
298.15	0.19983	1534.94	3.13
288.15	0.19983	1505.26	3.1
303.15	0.19983	1546.94	3.14
293.15	0.19983	1522.71	3.12
308.15	0.19983	1555.44	3.16
293.15	0.29918	1542.77	3.14
303.15	0.29918	1565.08	3.17
298.15	0.29918	1553.94	3.16
288.15	0.29918	1525.93	3.13
308.15	0.29918	1573.01	3.18
293.15	0.39514	1561.82	3.17
303.15	0.39514	1582.54	3.2
298.15	0.39514	1571.84	3.18
288.15	0.39514	1546.04	3.15
308.15	0.39514	1589.44	3.2
303.15	0.48759	1598.51	3.22
293.15	0.48759	1579.77	3.2
298.15	0.48759	1588.71	3.21
288.15	0.48759	1565.06	3.18
308.15	0.48759	1604.26	3.23
303.15	0.59704	1615.56	3.24
293.15	0.59704	1599.75	3.22
298.15	0.59704	1606.72	3.23
288.15	0.59704	1586.88	3.21
308.15	0.59704	1619.92	3.25
293.15	0.69512	1615.98	3.25
298.15	0.69512	1621.1	3.25
308.15	0.69512	1632.43	3.27
303.15	0.69512	1628.73	3.26
288.15	0.69512	1604.46	3.23
308.15	0.78612	1640.94	3.28
298.15	0.78612	1632.59	3.27
293.15	0.78612	1629.94	3.26
288.15	0.78612	1618.77	3.25
303.15	0.78612	1639.72	3.28
303.15	0.88436	1648.36	3.29
298.15	0.88436	1643.73	3.28
293.15	0.88436	1642.7	3.28
288.15	0.88436	1632.44	3.27
308.15	0.88436	1649.13	3.29
308.15	0.99939	1655.94	3.3
293.15	0.99939	1654.58	3.3
303.15	0.99939	1655.76	3.3
288.15	0.99939	1646.15	3.29
298.15	0.99939	1652.29	3.3

System: potassium citrate + water; phases: Liquid
Fixed: Pressure, kPa = 100
Property: Mass density, kg/m3 (Liquid); method: VIBTUB:UFactor:2
Temperature, K	Molality, mol/kg of potassium citrate	Mass density, kg/m3	uncertainty
288.15	0.02026	1003.334	0.219
288.15	0.0491	1009.283	0.225
288.15	0.06926	1013.385	0.228
288.15	0.09937	1019.455	0.234
288.15	0.19724	1038.677	0.252
288.15	0.29804	1057.592	0.273
288.15	0.39472	1074.963	0.292
288.15	0.49947	1092.896	0.312
288.15	0.57886	1105.98	0.326
288.15	0.69593	1124.407	0.347
288.15	0.79601	1139.132	0.363
288.15	0.88725	1152.05	0.378
288.15	0.99316	1166.127	0.394
293.15	0.02026	1002.398	0.219
293.15	0.0491	1008.28	0.224
293.15	0.06926	1012.35	0.227
293.15	0.09937	1018.344	0.233
293.15	0.19724	1037.362	0.251
293.15	0.29804	1056.03	0.271
293.15	0.39472	1073.241	0.29
293.15	0.49947	1091.055	0.31
293.15	0.57886	1104.022	0.324
293.15	0.69593	1122.178	0.345
293.15	0.79601	1136.88	0.361
293.15	0.88725	1149.581	0.375
293.15	0.99316	1163.554	0.391
298.15	0.02026	1001.182	0.218
298.15	0.0491	1007.002	0.223
298.15	0.06926	1011.026	0.226
298.15	0.09937	1016.985	0.232
298.15	0.19724	1035.83	0.249
298.15	0.29804	1054.336	0.27
298.15	0.39472	1071.362	0.288
298.15	0.49947	1088.945	0.308
298.15	0.57886	1101.723	0.322
298.15	0.69593	1119.746	0.342
298.15	0.79601	1134.217	0.358
298.15	0.88725	1146.808	0.372
298.15	0.99316	1160.643	0.388
303.15	0.02026	999.758	0.217
303.15	0.0491	1005.537	0.222
303.15	0.06926	1009.528	0.225
303.15	0.09937	1015.445	0.23
303.15	0.19724	1034.057	0.248
303.15	0.29804	1052.462	0.268
303.15	0.39472	1069.255	0.286
303.15	0.49947	1086.78	0.306
303.15	0.57886	1099.481	0.32
303.15	0.69593	1117.27	0.339
303.15	0.79601	1131.481	0.355
303.15	0.88725	1143.923	0.369
303.15	0.99316	1157.519	0.385
308.15	0.02026	998.094	0.218
308.15	0.0491	1003.82	0.22
308.15	0.06926	1007.771	0.224
308.15	0.09937	1013.615	0.229
308.15	0.19724	1032.102	0.246
308.15	0.29804	1050.265	0.266
308.15	0.39472	1066.915	0.284
308.15	0.49947	1084.168	0.303
308.15	0.57886	1096.612	0.317
308.15	0.69593	1114.182	0.337
308.15	0.79601	1128.445	0.352
308.15	0.88725	1140.757	0.366
308.15	0.99316	1154.417	0.381

System: potassium citrate + water; phases: Liquid
Fixed: Pressure, kPa = 101
Fixed: Frequency, MHz = 3
Property: Speed of sound, m/s (Liquid); method: FPINT:UFactor:4
Temperature, K	Molality, mol/kg of potassium citrate	Speed of sound, m/s	uncertainty
288.15	0.02026	1467.22	3.04
288.15	0.0491	1473.04	3.05
288.15	0.06926	1477.18	3.06
288.15	0.09937	1483.37	3.06
288.15	0.19724	1503.69	3.09
288.15	0.29804	1525.09	3.12
288.15	0.39472	1545.64	3.15
288.15	0.49947	1566.79	3.18
288.15	0.57886	1582.54	3.2
288.15	0.69593	1604.16	3.23
288.15	0.79601	1619.83	3.25
288.15	0.88725	1633.83	3.27
288.15	0.99316	1647.52	3.29
293.15	0.02026	1485.13	3.06
293.15	0.0491	1490.85	3.07
293.15	0.06926	1494.91	3.08
293.15	0.09937	1501.09	3.09
293.15	0.19724	1520.95	3.11
293.15	0.29804	1541.37	3.14
293.15	0.39472	1560.89	3.17
293.15	0.49947	1581.25	3.2
293.15	0.57886	1596.15	3.22
293.15	0.69593	1616.26	3.25
293.15	0.79601	1630.37	3.27
293.15	0.88725	1642.41	3.28
293.15	0.99316	1655.47	3.3
298.15	0.02026	1499.69	3.08
298.15	0.0491	1505.19	3.09
298.15	0.06926	1509.04	3.09
298.15	0.09937	1514.85	3.1
298.15	0.19724	1533.77	3.13
298.15	0.29804	1552.91	3.16
298.15	0.39472	1571.29	3.18
298.15	0.49947	1590.02	3.21
298.15	0.57886	1603.25	3.23
298.15	0.69593	1622.05	3.25
298.15	0.79601	1635.25	3.27
298.15	0.88725	1645.62	3.29
298.15	0.99316	1656.11	3.3
303.15	0.02026	1512.6	3.1
303.15	0.0491	1517.98	3.1
303.15	0.06926	1521.75	3.11
303.15	0.09937	1527.41	3.12
303.15	0.19724	1545.87	3.14
303.15	0.29804	1564.44	3.17
303.15	0.39472	1581.87	3.2
303.15	0.49947	1599.58	3.22
303.15	0.57886	1612.14	3.24
303.15	0.69593	1628.76	3.26
303.15	0.79601	1641.49	3.28
303.15	0.88725	1650.75	3.29
303.15	0.99316	1658.95	3.31
308.15	0.02026	1522.81	3.11
308.15	0.0491	1528.04	3.12
308.15	0.06926	1531.67	3.12
308.15	0.09937	1537.13	3.13
308.15	0.19724	1554.77	3.15
308.15	0.29804	1572.58	3.18
308.15	0.39472	1589.01	3.2
308.15	0.49947	1605.45	3.23
308.15	0.57886	1617.43	3.24
308.15	0.69593	1632.58	3.27
308.15	0.79601	1644.04	3.28
308.15	0.88725	1651.81	3.29
308.15	0.99316	1659.96	3.31
