Measured thermophysical data. Enthalpies of Vaporization and Sublimation of the Halogen-Substituted Aromatic Hydrocarbons at 298.15 K: Application of Solution Calorimetry Approach
Source: J. Chem. Eng. Data, 2015, 10.1021/je5008795
Compound 1: 1,3-dichlorobenzene, C6H4Cl2, InChI=1S/C6H4Cl2/c7-5-2-1-3-6(8)4-5/h1-4H, purity 97%
Compound 2: 1-bromo-4-chlorobenzene, C6H4BrCl, InChI=1S/C6H4BrCl/c7-5-1-3-6(8)4-2-5/h1-4H, purity 99%
Compound 3: 1,3-dibromobenzene, C6H4Br2, InChI=1S/C6H4Br2/c7-5-2-1-3-6(8)4-5/h1-4H, purity 97%
Compound 4: 1,4-dibromobenzene, C6H4Br2, InChI=1S/C6H4Br2/c7-5-1-2-6(8)4-3-5/h1-4H, purity 98%
Compound 5: 1,2,4,5-tetrachlorobenzene, C6H2Cl4, InChI=1S/C6H2Cl4/c7-3-1-4(8)6(10)2-5(3)9/h1-2H, purity 97%
Compound 6: hexachlorobenzene, C6Cl6, InChI=1S/C6Cl6/c7-1-2(8)4(10)6(12)5(11)3(1)9, purity 98%
Compound 7: 1-bromonaphthalene, C10H7Br, InChI=1S/C10H7Br/c11-10-7-3-5-8-4-1-2-6-9(8)10/h1-7H, purity 97%
Compound 8: 1-iodonaphthalene, C10H7I, InChI=1S/C10H7I/c11-10-7-3-5-8-4-1-2-6-9(8)10/h1-7H, purity 97%
Compound 9: 1,4-dibromonaphthalene, C10H6Br2, InChI=1S/C10H6Br2/c11-9-5-6-10(12)8-4-2-1-3-7(8)9/h1-6H, purity 98%
Compound 10: 4-bromo-1,1'-biphenyl, C12H9Br, InChI=1S/C12H9Br/c13-12-8-6-11(7-9-12)10-4-2-1-3-5-10/h1-9H, purity 98%
Compound 11: 4,4'-dibromo-1,1'-biphenyl, C12H8Br2, InChI=1S/C12H8Br2/c13-11-5-1-9(2-6-11)10-3-7-12(14)8-4-10/h1-8H, purity 98%
Compound 12: 9-chloroanthracene, C14H9Cl, InChI=1S/C14H9Cl/c15-14-12-7-3-1-5-10(12)9-11-6-2-4-8-13(11)14/h1-9H, purity 96%
Compound 13: 9-bromoanthracene, C14H9Br, InChI=1S/C14H9Br/c15-14-12-7-3-1-5-10(12)9-11-6-2-4-8-13(11)14/h1-9H, purity 96%
Compound 14: 9,10-dichloroanthracene, C14H8Cl2, InChI=1S/C14H8Cl2/c15-13-9-5-1-2-6-10(9)14(16)12-8-4-3-7-11(12)13/h1-8H, purity 97%
Compound 15: 9,10-dibromoanthracene, C14H8Br2, InChI=1S/C14H8Br2/c15-13-9-5-1-2-6-10(9)14(16)12-8-4-3-7-11(12)13/h1-8H, purity 98%
Compound 16: benzene, C6H6, InChI=1S/C6H6/c1-2-4-6-5-3-1/h1-6H, purity 0.98%
Compound 17: 1,2-dibromobenzene, C6H4Br2, InChI=1S/C6H4Br2/c7-5-3-1-2-4-6(5)8/h1-4H, purity 98%
Compound 18: tetrachloromethane, CCl4, InChI=1S/CCl4/c2-1(3,4)5, purity 98%

System: 1,3-dichlorobenzene; phases: Liquid, Gas
Property: Molar enthalpy of vaporization or sublimation, kJ/mol (Liquid); method: derived
Temperature, K	Molar enthalpy of vaporization or sublimation, kJ/mol	uncertainty
298.15	47.3	0.4

System: 1-bromo-4-chlorobenzene; phases: Crystal, Gas
Property: Molar enthalpy of vaporization or sublimation, kJ/mol (Crystal); method: derived
Temperature, K	Molar enthalpy of vaporization or sublimation, kJ/mol	uncertainty
298.15	67.3	0.2

System: 1,3-dibromobenzene; phases: Liquid, Gas
Property: Molar enthalpy of vaporization or sublimation, kJ/mol (Liquid); method: derived
Temperature, K	Molar enthalpy of vaporization or sublimation, kJ/mol	uncertainty
298.15	55	0.3

System: 1,3-dibromobenzene; phases: Liquid, Gas
Property: Vapor or sublimation pressure, kPa (Liquid); method: Transpiration method
Temperature, K	Vapor or sublimation pressure, kPa	uncertainty
276.4	0.00508	0.00037
278.7	0.00646	0.00047
281.1	0.00785	0.00056
282.3	0.0086	0.00062
284.7	0.01072	0.00077
286.9	0.01274	0.00091
288.8	0.01468	0.00108
289.2	0.0154	0.00113
292.3	0.01899	0.00138
292.8	0.01997	0.00144
295	0.02324	0.00165
296.2	0.02592	0.00186
298.8	0.03143	0.00224
301	0.03698	0.00265
301.1	0.03822	0.00273
304.2	0.04771	0.00332
304.9	0.0474	0.0034
307.2	0.05893	0.00421
308.9	0.06635	0.00471
310	0.07138	0.00504
312.9	0.08294	0.00599
313.3	0.08608	0.0062
315.2	0.10121	0.00719
317.8	0.11784	0.00831

System: 1,4-dibromobenzene; phases: Crystal, Gas
Property: Molar enthalpy of vaporization or sublimation, kJ/mol (Crystal); method: derived
Temperature, K	Molar enthalpy of vaporization or sublimation, kJ/mol	uncertainty
298.15	73.3	0.5

System: 1,4-dibromobenzene; phases: Crystal, Gas
Property: Vapor or sublimation pressure, kPa (Crystal); method: Transpiration method
Temperature, K	Vapor or sublimation pressure, kPa	uncertainty
296.5	0.00693	0.00051
299.5	0.00922	0.00067
302.4	0.01272	0.00092
303.5	0.01383	0.00101
305.4	0.01701	0.00123
308.4	0.02188	0.00157
309.4	0.02467	0.00179
311.4	0.02936	0.00211
314.4	0.03757	0.00268
317.4	0.04642	0.00334
319.4	0.05898	0.00426
320.4	0.06313	0.00457
323.4	0.08309	0.00605
329.6	0.14302	0.01015

System: 1,2,4,5-tetrachlorobenzene; phases: Crystal, Gas
Property: Molar enthalpy of vaporization or sublimation, kJ/mol (Crystal); method: derived
Temperature, K	Molar enthalpy of vaporization or sublimation, kJ/mol	uncertainty
298.15	80.9	1

System: hexachlorobenzene; phases: Crystal, Gas
Property: Molar enthalpy of vaporization or sublimation, kJ/mol (Crystal); method: derived
Temperature, K	Molar enthalpy of vaporization or sublimation, kJ/mol	uncertainty
298.15	94.3	0.6

System: 1-bromonaphthalene; phases: Liquid, Gas
Property: Molar enthalpy of vaporization or sublimation, kJ/mol (Liquid); method: derived
Temperature, K	Molar enthalpy of vaporization or sublimation, kJ/mol	uncertainty
298.15	64	0.4

System: 1-iodonaphthalene; phases: Liquid, Gas
Property: Molar enthalpy of vaporization or sublimation, kJ/mol (Liquid); method: derived
Temperature, K	Molar enthalpy of vaporization or sublimation, kJ/mol	uncertainty
298.15	70.1	0.4

System: 1,4-dibromonaphthalene; phases: Crystal, Liquid, Air at 1 atmosphere
Property: Molar enthalpy of transition or fusion, kJ/mol (Crystal); method: DSC
Molar enthalpy of transition or fusion, kJ/mol	uncertainty
21.1	0.5

System: 1,4-dibromonaphthalene; phases: Crystal, Liquid, Air at 1 atmosphere
Property: Normal melting temperature, K (Crystal); method: DTA
Normal melting temperature, K	uncertainty
353.1	0.9

System: 1,4-dibromonaphthalene; phases: Crystal, Gas
Property: Molar enthalpy of vaporization or sublimation, kJ/mol (Crystal); method: derived
Temperature, K	Molar enthalpy of vaporization or sublimation, kJ/mol	uncertainty
298.15	94.4	0.9

System: 4-bromo-1,1'-biphenyl; phases: Crystal, Liquid, Air at 1 atmosphere
Property: Molar enthalpy of transition or fusion, kJ/mol (Crystal); method: DSC
Molar enthalpy of transition or fusion, kJ/mol	uncertainty
16.3	0.5

System: 4-bromo-1,1'-biphenyl; phases: Crystal, Liquid, Air at 1 atmosphere
Property: Normal melting temperature, K (Crystal); method: DTA
Normal melting temperature, K	uncertainty
362.1	0.5

System: 4-bromo-1,1'-biphenyl; phases: Crystal, Gas
Property: Molar enthalpy of vaporization or sublimation, kJ/mol (Crystal); method: derived
Temperature, K	Molar enthalpy of vaporization or sublimation, kJ/mol	uncertainty
298.15	93.7	0.8

System: 4-bromo-1,1'-biphenyl; phases: Crystal, Gas
Property: Vapor or sublimation pressure, kPa (Crystal); method: Transpiration method
Temperature, K	Vapor or sublimation pressure, kPa	uncertainty
303.2	9e-05	1e-05
308.2	0.00016	1e-05
313	0.00027	2e-05
318.3	0.00048	4e-05
323.4	0.00083	6e-05
326.2	0.00109	8e-05
328.2	0.00137	0.0001
333.3	0.0023	0.00017
338.3	0.00364	0.00026
343.1	0.0056	0.0004
348.3	0.00907	0.00066
353	0.01426	0.00101
355.7	0.0165	0.00118
358.4	0.02207	0.00159
360.2	0.0253	0.0018

System: 4,4'-dibromo-1,1'-biphenyl; phases: Crystal, Gas
Property: Molar enthalpy of vaporization or sublimation, kJ/mol (Crystal); method: derived
Temperature, K	Molar enthalpy of vaporization or sublimation, kJ/mol	uncertainty
298.15	106.2	1.1

System: 4,4'-dibromo-1,1'-biphenyl; phases: Crystal, Gas
Property: Vapor or sublimation pressure, kPa (Crystal); method: Transpiration method
Temperature, K	Vapor or sublimation pressure, kPa	uncertainty
358.1	0.00038	3e-05
363.9	0.00067	5e-05
365.4	0.00077	6e-05
368.4	0.00099	7e-05
373.5	0.00162	0.00012
378.5	0.00243	0.00017
383.5	0.00367	0.00026
388.6	0.00579	0.00042
393.3	0.00851	0.0006
396.6	0.01049	0.00075
399.6	0.0138	0.00098
400.4	0.0144	0.00103
402.6	0.0171	0.00123
404.4	0.02039	0.00147

System: 9-chloroanthracene; phases: Crystal, Liquid, Air at 1 atmosphere
Property: Molar enthalpy of transition or fusion, kJ/mol (Crystal); method: DSC
Molar enthalpy of transition or fusion, kJ/mol	uncertainty
22	0.5

System: 9-chloroanthracene; phases: Crystal, Liquid, Air at 1 atmosphere
Property: Normal melting temperature, K (Crystal); method: DTA
Normal melting temperature, K	uncertainty
376.6	2.2

System: 9-chloroanthracene; phases: Crystal, Gas
Property: Molar enthalpy of vaporization or sublimation, kJ/mol (Crystal); method: derived
Temperature, K	Molar enthalpy of vaporization or sublimation, kJ/mol	uncertainty
298.15	103.3	0.9

System: 9-bromoanthracene; phases: Crystal, Gas
Property: Molar enthalpy of vaporization or sublimation, kJ/mol (Crystal); method: derived
Temperature, K	Molar enthalpy of vaporization or sublimation, kJ/mol	uncertainty
298.15	105.9	0.9

System: 9,10-dichloroanthracene; phases: Crystal, Liquid, Air at 1 atmosphere
Property: Molar enthalpy of transition or fusion, kJ/mol (Crystal); method: DSC
Molar enthalpy of transition or fusion, kJ/mol	uncertainty
25.1	0.8

System: 9,10-dichloroanthracene; phases: Crystal, Liquid, Air at 1 atmosphere
Property: Normal melting temperature, K (Crystal); method: DTA
Normal melting temperature, K	uncertainty
486.6	0.5

System: 9,10-dichloroanthracene; phases: Crystal, Gas
Property: Molar enthalpy of vaporization or sublimation, kJ/mol (Crystal); method: derived
Temperature, K	Molar enthalpy of vaporization or sublimation, kJ/mol	uncertainty
298.15	114.7	1.3

System: 9,10-dibromoanthracene; phases: Crystal, Liquid, Air at 1 atmosphere
Property: Molar enthalpy of transition or fusion, kJ/mol (Crystal); method: DSC
Molar enthalpy of transition or fusion, kJ/mol	uncertainty
28.7	0.7

System: 9,10-dibromoanthracene; phases: Crystal, Liquid, Air at 1 atmosphere
Property: Normal melting temperature, K (Crystal); method: DTA
Normal melting temperature, K	uncertainty
497.8	0.4

System: 9,10-dibromoanthracene; phases: Crystal, Gas
Property: Molar enthalpy of vaporization or sublimation, kJ/mol (Crystal); method: derived
Temperature, K	Molar enthalpy of vaporization or sublimation, kJ/mol	uncertainty
298.15	118.2	1.3

System: benzene; phases: Liquid
Property: Refractive index (Na D-line) (Liquid); method: Standard Abbe refractometry
Temperature, K	Pressure, kPa	Refractive index (Na D-line)	uncertainty
298.15	101.325	1.49755	0.00031

System: benzene; phases: Liquid
Fixed: Pressure, kPa = 101
Fixed: Temperature, K = 298.15
Property: Mass density, kg/m3 (Liquid); method: Vibrating tube method
Mass density, kg/m3	uncertainty
873.613	0.127
873.652	0.127
873.616	0.127
873.633	0.127
873.671	0.127
873.478	0.127

System: 1,2-dibromobenzene; phases: Liquid, Gas
Property: Molar enthalpy of vaporization or sublimation, kJ/mol (Liquid); method: derived
Temperature, K	Molar enthalpy of vaporization or sublimation, kJ/mol	uncertainty
298.15	53.1	0.2

System: 1,2-dibromobenzene; phases: Liquid, Gas
Property: Vapor or sublimation pressure, kPa (Liquid); method: Transpiration method
Temperature, K	Vapor or sublimation pressure, kPa	uncertainty
290.3	0.01251	0.00088
292.4	0.01408	0.001
292.5	0.01451	0.00103
295.8	0.01802	0.00128
298.2	0.02158	0.00154
301.2	0.02661	0.00191
304.2	0.03482	0.00247
307.3	0.04115	0.00292
310.2	0.05236	0.00373
313.2	0.06399	0.00453
316.3	0.07736	0.00547
319.3	0.09284	0.00653
320.6	0.09686	0.00683
322.1	0.10748	0.00765
325.2	0.13242	0.00937
325.3	0.13497	0.00954
328.2	0.15786	0.01111

System: tetrachloromethane; phases: Liquid
Property: Refractive index (Na D-line) (Liquid); method: Standard Abbe refractometry
Temperature, K	Pressure, kPa	Refractive index (Na D-line)	uncertainty
298.15	101.325	1.45715	0.00031

System: tetrachloromethane; phases: Liquid
Property: Mass density, kg/m3 (Liquid); method: Vibrating tube method
Pressure, kPa	Temperature, K	Mass density, kg/m3	uncertainty
101	298.15	1584.255	0.267

System: benzene + 1-bromo-4-chlorobenzene; phases: Liquid
Property: Molar enthalpy of solution, kJ/mol (Liquid); method: Calvet calorimetry
Mole fraction of 1-bromo-4-chlorobenzene	Pressure, kPa	Temperature, K	Molar enthalpy of solution, kJ/mol	uncertainty
0	101	298.15	17.67	0.19

System: benzene + 1-bromo-4-chlorobenzene; phases: Liquid
Fixed: Temperature, K = 298.15
Fixed: Pressure, kPa = 101
Property: Refractive index (Na D-line) (Liquid); method: Standard Abbe refractometry
Mole fraction of 1-bromo-4-chlorobenzene	Refractive index (Na D-line)	uncertainty
0	1.49755	0.00031
0.00231	1.49779	0.00031
0.00268	1.49782	0.00031
0.00253	1.49781	0.00031

System: benzene + 1-bromo-4-chlorobenzene; phases: Liquid
Fixed: Pressure, kPa = 101
Fixed: Temperature, K = 298.15
Property: Mass density, kg/m3 (Liquid); method: Vibrating tube method
Mole fraction of 1-bromo-4-chlorobenzene	Mass density, kg/m3	uncertainty
0	873.613	0.16
0.00231	875.875	0.16
0.00268	876.25	0.164
0.00253	876.093	0.162

System: benzene + 1,2-dibromobenzene; phases: Liquid
Property: Molar enthalpy of solution, kJ/mol (Liquid); method: Titration calorimetry
Mole fraction of 1,2-dibromobenzene	Pressure, kPa	Temperature, K	Molar enthalpy of solution, kJ/mol	uncertainty
0	101	298.15	1.16	0.01

System: benzene + 1,2-dibromobenzene; phases: Liquid
Fixed: Pressure, kPa = 101
Fixed: Temperature, K = 298.15
Property: Mass density, kg/m3 (Liquid); method: Vibrating tube method
Mole fraction of 1,2-dibromobenzene	Mass density, kg/m3	uncertainty
0.00278	877.563	0.193
0.00365	878.834	0.193
0.00738	884.292	0.192
0.01251	891.807	0.191
0	873.478	0.194

System: benzene + 1,2-dibromobenzene; phases: Liquid
Fixed: Temperature, K = 298.15
Fixed: Pressure, kPa = 101
Property: Refractive index (Na D-line) (Liquid); method: Standard Abbe refractometry
Mole fraction of 1,2-dibromobenzene	Refractive index (Na D-line)	uncertainty
0.00278	1.49816	0.00031
0.00365	1.49829	0.00031
0.00738	1.49882	0.00031
0.01251	1.49961	0.00031
0	1.49776	0.00031

System: benzene + 1,3-dibromobenzene; phases: Liquid
Property: Molar enthalpy of solution, kJ/mol (Liquid); method: Titration calorimetry
Mole fraction of 1,3-dibromobenzene	Pressure, kPa	Temperature, K	Molar enthalpy of solution, kJ/mol	uncertainty
0	101	298.15	2	0.1

System: benzene + 1,4-dibromobenzene; phases: Liquid
Property: Molar enthalpy of solution, kJ/mol (Liquid); method: Calvet calorimetry
Mole fraction of 1,4-dibromobenzene	Pressure, kPa	Temperature, K	Molar enthalpy of solution, kJ/mol	uncertainty
0	101	298.15	19.8	0.3

System: benzene + 1,4-dibromobenzene; phases: Liquid
Fixed: Temperature, K = 298.15
Fixed: Pressure, kPa = 101
Property: Refractive index (Na D-line) (Liquid); method: Standard Abbe refractometry
Mole fraction of 1,4-dibromobenzene	Refractive index (Na D-line)	uncertainty
0	1.49755	0.00031
0.0018	1.49781	0.00031
0.00185	1.49784	0.00031
0.0025	1.49795	0.00031
0.0033	1.49808	0.00031

System: benzene + 1,4-dibromobenzene; phases: Liquid
Fixed: Pressure, kPa = 101
Fixed: Temperature, K = 298.15
Property: Mass density, kg/m3 (Liquid); method: Vibrating tube method
Mole fraction of 1,4-dibromobenzene	Mass density, kg/m3	uncertainty
0	873.671	0.19
0.0018	876.211	0.192
0.00185	876.342	0.192
0.0025	877.295	0.191
0.0033	878.419	0.188

System: benzene + 1-bromonaphthalene; phases: Liquid
Property: Molar enthalpy of solution, kJ/mol (Liquid); method: Titration calorimetry
Mole fraction of 1-bromonaphthalene	Pressure, kPa	Temperature, K	Molar enthalpy of solution, kJ/mol	uncertainty
0	101	298.15	1.24	0.01

System: benzene + 1-iodonaphthalene; phases: Liquid
Property: Molar enthalpy of solution, kJ/mol (Liquid); method: Titration calorimetry
Mole fraction of 1-iodonaphthalene	Pressure, kPa	Temperature, K	Molar enthalpy of solution, kJ/mol	uncertainty
0	101	298.15	1.7	0.1

System: benzene + 1,4-dibromonaphthalene; phases: Liquid
Property: Molar enthalpy of solution, kJ/mol (Liquid); method: Calvet calorimetry
Mole fraction of 1,4-dibromonaphthalene	Pressure, kPa	Temperature, K	Molar enthalpy of solution, kJ/mol	uncertainty
0	101	298.15	20.6	0.4

System: benzene + 1,4-dibromonaphthalene; phases: Liquid
Fixed: Temperature, K = 298.15
Fixed: Pressure, kPa = 101
Property: Refractive index (Na D-line) (Liquid); method: Standard Abbe refractometry
Mole fraction of 1,4-dibromonaphthalene	Refractive index (Na D-line)	uncertainty
0	1.49755	0.00031
0.00087	1.49786	0.00031
0.00208	1.49828	0.00031
0.00189	1.4982	0.00031
0.00321	1.49872	0.00031

System: benzene + 1,4-dibromonaphthalene; phases: Liquid
Fixed: Pressure, kPa = 101
Fixed: Temperature, K = 298.15
Property: Mass density, kg/m3 (Liquid); method: Vibrating tube method
Mole fraction of 1,4-dibromonaphthalene	Mass density, kg/m3	uncertainty
0	873.652	0.21
0.00087	875.112	0.209
0.00208	877.158	0.23
0.00189	876.792	0.23
0.00321	879.019	0.207

System: benzene + 4-bromo-1,1'-biphenyl; phases: Liquid
Property: Molar enthalpy of solution, kJ/mol (Liquid); method: Calvet calorimetry
Mole fraction of 4-bromo-1,1'-biphenyl	Pressure, kPa	Temperature, K	Molar enthalpy of solution, kJ/mol	uncertainty
0	101	298.15	20.1	0.3

System: benzene + 4-bromo-1,1'-biphenyl; phases: Liquid
Fixed: Temperature, K = 298.15
Fixed: Pressure, kPa = 101
Property: Refractive index (Na D-line) (Liquid); method: Standard Abbe refractometry
Mole fraction of 4-bromo-1,1'-biphenyl	Refractive index (Na D-line)	uncertainty
0	1.49755	0.00031
0.00109	1.49787	0.00031
0.00186	1.4981	0.00031
0.00189	1.49809	0.00031
0.00237	1.4982	0.00031

System: benzene + 4-bromo-1,1'-biphenyl; phases: Liquid
Fixed: Pressure, kPa = 101
Fixed: Temperature, K = 298.15
Property: Mass density, kg/m3 (Liquid); method: Vibrating tube method
Mole fraction of 4-bromo-1,1'-biphenyl	Mass density, kg/m3	uncertainty
0	873.616	0.161
0.00109	874.692	0.161
0.00186	875.469	0.162
0.00189	875.45	0.161
0.00237	875.983	0.168

System: benzene + 4,4'-dibromo-1,1'-biphenyl; phases: Liquid
Property: Molar enthalpy of solution, kJ/mol (Liquid); method: Calvet calorimetry
Mole fraction of 4,4'-dibromo-1,1'-biphenyl	Pressure, kPa	Temperature, K	Molar enthalpy of solution, kJ/mol	uncertainty
0	101	298.15	23.1	0.4

System: benzene + 4,4'-dibromo-1,1'-biphenyl; phases: Liquid
Fixed: Temperature, K = 298.15
Fixed: Pressure, kPa = 101
Property: Refractive index (Na D-line) (Liquid); method: Standard Abbe refractometry
Mole fraction of 4,4'-dibromo-1,1'-biphenyl	Refractive index (Na D-line)	uncertainty
0	1.49755	0.00031
0.00116	1.49802	0.00031
0.00107	1.49796	0.00031
0.0009	1.49791	0.00031
0.00076	1.49787	0.00031

System: benzene + 4,4'-dibromo-1,1'-biphenyl; phases: Liquid
Fixed: Pressure, kPa = 101
Fixed: Temperature, K = 298.15
Property: Mass density, kg/m3 (Liquid); method: Vibrating tube method
Mole fraction of 4,4'-dibromo-1,1'-biphenyl	Mass density, kg/m3	uncertainty
0	873.633	0.22
0.00116	875.632	0.205
0.00107	875.48	0.201
0.0009	875.213	0.2
0.00076	875.001	0.197

System: benzene + 9-chloroanthracene; phases: Liquid
Property: Molar enthalpy of solution, kJ/mol (Liquid); method: Calvet calorimetry
Mole fraction of 9-chloroanthracene	Pressure, kPa	Temperature, K	Molar enthalpy of solution, kJ/mol	uncertainty
0	101	298.15	21.5	0.3

System: benzene + 9-bromoanthracene; phases: Liquid
Property: Molar enthalpy of solution, kJ/mol (Liquid); method: Calvet calorimetry
Mole fraction of 9-bromoanthracene	Pressure, kPa	Temperature, K	Molar enthalpy of solution, kJ/mol	uncertainty
0	101	298.15	21.4	0.3

System: benzene + 9,10-dichloroanthracene; phases: Liquid
Property: Molar enthalpy of solution, kJ/mol (Liquid); method: Calvet calorimetry
Mole fraction of 9,10-dichloroanthracene	Pressure, kPa	Temperature, K	Molar enthalpy of solution, kJ/mol	uncertainty
0	101	298.15	27.7	0.5

System: benzene + 9,10-dibromoanthracene; phases: Liquid
Property: Molar enthalpy of solution, kJ/mol (Liquid); method: Calvet calorimetry
Mole fraction of 9,10-dibromoanthracene	Pressure, kPa	Temperature, K	Molar enthalpy of solution, kJ/mol	uncertainty
0	101	298.15	24.8	0.5

System: tetrachloromethane + hexachlorobenzene; phases: Liquid
Fixed: Temperature, K = 298.15
Fixed: Pressure, kPa = 101
Property: Refractive index (Na D-line) (Liquid); method: Standard Abbe refractometry
Mole fraction of hexachlorobenzene	Refractive index (Na D-line)	uncertainty
0	1.45715	0.00031
0.00028	1.45724	0.00031
0.00052	1.45734	0.00031
0.00066	1.45735	0.00031
0.00094	1.45743	0.00031

System: tetrachloromethane + hexachlorobenzene; phases: Liquid
Fixed: Pressure, kPa = 101
Fixed: Temperature, K = 298.15
Property: Mass density, kg/m3 (Liquid); method: Vibrating tube method
Mole fraction of hexachlorobenzene	Mass density, kg/m3	uncertainty
0	1584.255	0.27
0.00028	1584.372	0.272
0.00052	1584.534	0.271
0.00066	1584.525	0.268
0.00094	1584.626	0.27
