Measured thermophysical data. Solid Liquid Phase Equilibrium of Phosphoramidic acid, N,N'-1,2-Ethanediylbis-P,P,P',P'-tetraphenyl Ester in Selected Solvents
Source: J. Chem. Eng. Data, 2015, 10.1021/je5010565
Compound 1: methanol, CH4O, InChI=1S/CH4O/c1-2/h2H,1H3, purity 99.5%
Compound 2: acetone, C3H6O, InChI=1S/C3H6O/c1-3(2)4/h1-2H3, purity 99.5%
Compound 3: tetrahydrofuran, C4H8O, InChI=1S/C4H8O/c1-2-4-5-3-1/h1-4H2, purity 99.8%
Compound 4: ethyl acetate, C4H8O2, InChI=1S/C4H8O2/c1-3-6-4(2)5/h3H2,1-2H3, purity 99.5%
Compound 5: trichloromethane, CHCl3, InChI=1S/CHCl3/c2-1(3)4/h1H, purity 99.5%
Compound 6: ethanol, C2H6O, InChI=1S/C2H6O/c1-2-3/h3H,2H2,1H3, purity 99.5%
Compound 7: benzene, C6H6, InChI=1S/C6H6/c1-2-4-6-5-3-1/h1-6H, purity 99.5%
Compound 8: methyl ethanoate, C3H6O2, InChI=1S/C3H6O2/c1-3(4)5-2/h1-2H3, purity 99.5%
Compound 9: toluene, C7H8, InChI=1S/C7H8/c1-7-5-3-2-4-6-7/h2-6H,1H3, purity 99.5%
Compound 10: acetonitrile, C2H3N, InChI=1S/C2H3N/c1-2-3/h1H3, purity 99.5%
Compound 11: diphenyl N,N'-(ethane-1,2-diyl)bis(P-phenylphosphonamidate), C26H26N2O6P2, InChI=1S/C26H26N2O6P2/c29-35(31-23-13-5-1-6-14-23,32-24-15-7-2-8-16-24)27-21-22-28-36(30,33-25-17-9-3-10-18-25)34-26-19-11-4-12-20-26/h1-20H,21-22H2,(H,27,29)(H,28,30), purity 99%

System: diphenyl N,N'-(ethane-1,2-diyl)bis(P-phenylphosphonamidate); phases: Crystal, Liquid, Air at 1 atmosphere
Property: Normal melting temperature, K (Crystal); method: DTA
Normal melting temperature, K	uncertainty
412.36	0.63

System: diphenyl N,N'-(ethane-1,2-diyl)bis(P-phenylphosphonamidate); phases: Crystal, Liquid, Air at 1 atmosphere
Property: Molar enthalpy of transition or fusion, kJ/mol (Crystal); method: DSC
Molar enthalpy of transition or fusion, kJ/mol	uncertainty
44.23	1.1

System: methanol + diphenyl N,N'-(ethane-1,2-diyl)bis(P-phenylphosphonamidate); phases: Liquid, Crystal
Fixed: Pressure, kPa = 100
Property: Mole fraction of diphenyl N,N'-(ethane-1,2-diyl)bis(P-phenylphosphonamidate) (Liquid); method: Gravimetric
Temperature, K	Mole fraction of diphenyl N,N'-(ethane-1,2-diyl)bis(P-phenylphosphonamidate)	uncertainty
293.15	0.00201	8e-05
298.15	0.00296	0.00012
303.15	0.00415	0.00017
308.15	0.00599	0.00025
313.15	0.00863	0.00035
318.15	0.01198	0.00049
323.15	0.01667	0.00068
328.15	0.02362	0.00096
333.15	0.03222	0.00131

System: acetone + diphenyl N,N'-(ethane-1,2-diyl)bis(P-phenylphosphonamidate); phases: Liquid, Crystal
Fixed: Pressure, kPa = 100
Property: Mole fraction of diphenyl N,N'-(ethane-1,2-diyl)bis(P-phenylphosphonamidate) (Liquid); method: Gravimetric
Temperature, K	Mole fraction of diphenyl N,N'-(ethane-1,2-diyl)bis(P-phenylphosphonamidate)	uncertainty
293.15	0.00183	8e-05
298.15	0.00276	0.00011
303.15	0.00395	0.00016
308.15	0.00556	0.00023
313.15	0.00784	0.00032
318.15	0.01106	0.00045
323.15	0.01487	0.00061
328.15	0.02129	0.00087

System: tetrahydrofuran + diphenyl N,N'-(ethane-1,2-diyl)bis(P-phenylphosphonamidate); phases: Liquid, Crystal
Fixed: Pressure, kPa = 100
Property: Mole fraction of diphenyl N,N'-(ethane-1,2-diyl)bis(P-phenylphosphonamidate) (Liquid); method: Gravimetric
Temperature, K	Mole fraction of diphenyl N,N'-(ethane-1,2-diyl)bis(P-phenylphosphonamidate)	uncertainty
293.15	0.01347	0.00054
298.15	0.01657	0.00067
303.15	0.02018	0.00081
308.15	0.02421	0.00098
313.15	0.02881	0.00116
318.15	0.03312	0.00133
323.15	0.04001	0.00161
328.15	0.04574	0.00184

System: ethyl acetate + diphenyl N,N'-(ethane-1,2-diyl)bis(P-phenylphosphonamidate); phases: Liquid, Crystal
Fixed: Pressure, kPa = 100
Property: Mole fraction of diphenyl N,N'-(ethane-1,2-diyl)bis(P-phenylphosphonamidate) (Liquid); method: Gravimetric
Temperature, K	Mole fraction of diphenyl N,N'-(ethane-1,2-diyl)bis(P-phenylphosphonamidate)	uncertainty
293.15	0.00292	0.00012
298.15	0.0038	0.00015
303.15	0.00472	0.00019
308.15	0.00611	0.00025
313.15	0.00738	0.0003
318.15	0.00896	0.00036
323.15	0.01094	0.00044
328.15	0.01345	0.00054
333.15	0.01696	0.00068
338.15	0.02026	0.00082
343.15	0.02343	0.00094

System: trichloromethane + diphenyl N,N'-(ethane-1,2-diyl)bis(P-phenylphosphonamidate); phases: Liquid, Crystal
Fixed: Pressure, kPa = 100
Property: Mole fraction of diphenyl N,N'-(ethane-1,2-diyl)bis(P-phenylphosphonamidate) (Liquid); method: Gravimetric
Temperature, K	Mole fraction of diphenyl N,N'-(ethane-1,2-diyl)bis(P-phenylphosphonamidate)	uncertainty
293.15	0.01544	0.00063
298.15	0.02039	0.00083
303.15	0.0252	0.00102
308.15	0.03147	0.00127
313.15	0.03971	0.0016
318.15	0.04712	0.0019
323.15	0.05814	0.00235
328.15	0.07149	0.00288

System: ethanol + diphenyl N,N'-(ethane-1,2-diyl)bis(P-phenylphosphonamidate); phases: Liquid, Crystal
Fixed: Pressure, kPa = 100
Property: Mole fraction of diphenyl N,N'-(ethane-1,2-diyl)bis(P-phenylphosphonamidate) (Liquid); method: Gravimetric
Temperature, K	Mole fraction of diphenyl N,N'-(ethane-1,2-diyl)bis(P-phenylphosphonamidate)	uncertainty
293.15	0.00178	7e-05
298.15	0.00247	0.0001
303.15	0.00339	0.00014
308.15	0.005	0.0002
313.15	0.00674	0.00027
318.15	0.00898	0.00037
323.15	0.01212	0.00049
328.15	0.01595	0.00065
333.15	0.02121	0.00086
338.15	0.02848	0.00116
343.15	0.03785	0.00153

System: benzene + diphenyl N,N'-(ethane-1,2-diyl)bis(P-phenylphosphonamidate); phases: Liquid, Crystal
Fixed: Pressure, kPa = 100
Property: Mole fraction of diphenyl N,N'-(ethane-1,2-diyl)bis(P-phenylphosphonamidate) (Liquid); method: Gravimetric
Temperature, K	Mole fraction of diphenyl N,N'-(ethane-1,2-diyl)bis(P-phenylphosphonamidate)	uncertainty
293.15	0.0005	2e-05
298.15	0.00075	3e-05
303.15	0.00116	5e-05
308.15	0.00166	7e-05
313.15	0.0023	9e-05
318.15	0.00333	0.00014
323.15	0.00485	0.0002
328.15	0.00664	0.00027
333.15	0.00926	0.00038
338.15	0.01267	0.00051
343.15	0.01647	0.00067

System: methyl ethanoate + diphenyl N,N'-(ethane-1,2-diyl)bis(P-phenylphosphonamidate); phases: Liquid, Crystal
Fixed: Pressure, kPa = 100
Property: Mole fraction of diphenyl N,N'-(ethane-1,2-diyl)bis(P-phenylphosphonamidate) (Liquid); method: Gravimetric
Temperature, K	Mole fraction of diphenyl N,N'-(ethane-1,2-diyl)bis(P-phenylphosphonamidate)	uncertainty
293.15	0.00201	8e-05
298.15	0.0027	0.00011
303.15	0.00353	0.00014
308.15	0.00474	0.00019
313.15	0.00598	0.00024
318.15	0.00778	0.00032
323.15	0.01046	0.00042
328.15	0.01308	0.00053

System: toluene + diphenyl N,N'-(ethane-1,2-diyl)bis(P-phenylphosphonamidate); phases: Liquid, Crystal
Fixed: Pressure, kPa = 100
Property: Mole fraction of diphenyl N,N'-(ethane-1,2-diyl)bis(P-phenylphosphonamidate) (Liquid); method: Gravimetric
Temperature, K	Mole fraction of diphenyl N,N'-(ethane-1,2-diyl)bis(P-phenylphosphonamidate)	uncertainty
293.15	0.00048	2e-05
298.15	0.00063	3e-05
303.15	0.00079	3e-05
308.15	0.001	4e-05
313.15	0.00122	5e-05
318.15	0.00152	6e-05
323.15	0.00191	8e-05
328.15	0.00242	0.0001
333.15	0.00294	0.00012

System: acetonitrile + diphenyl N,N'-(ethane-1,2-diyl)bis(P-phenylphosphonamidate); phases: Liquid, Crystal
Fixed: Pressure, kPa = 100
Property: Mole fraction of diphenyl N,N'-(ethane-1,2-diyl)bis(P-phenylphosphonamidate) (Liquid); method: Gravimetric
Temperature, K	Mole fraction of diphenyl N,N'-(ethane-1,2-diyl)bis(P-phenylphosphonamidate)	uncertainty
293.15	0.00359	0.00015
298.15	0.00436	0.00018
303.15	0.00499	0.0002
308.15	0.0059	0.00024
313.15	0.0068	0.00027
318.15	0.00768	0.00031
323.15	0.0088	0.00035
328.15	0.01002	0.0004
333.15	0.01161	0.00047
