Measured thermophysical data. Solubility of Hydrofluorocarbons in Halobenzene Solvents
Source: J. Chem. Eng. Data, 2014, 10.1021/je500525q
Compound 1: tetrafluoromethane, CF4, InChI=1S/CF4/c2-1(3,4)5, purity 99%
Compound 2: fluorobenzene, C6H5F, InChI=1S/C6H5F/c7-6-4-2-1-3-5-6/h1-5H, purity 99%
Compound 3: chlorobenzene, C6H5Cl, InChI=1S/C6H5Cl/c7-6-4-2-1-3-5-6/h1-5H, purity 99.9%
Compound 4: bromobenzene, C6H5Br, InChI=1S/C6H5Br/c7-6-4-2-1-3-5-6/h1-5H, purity 99%
Compound 5: trifluoromethane, CHF3, InChI=1S/CHF3/c2-1(3)4/h1H, purity 99%
Compound 6: difluoromethane, CH2F2, InChI=1S/CH2F2/c2-1-3/h1H2, purity 99%
Compound 7: fluoromethane, CH3F, InChI=1S/CH3F/c1-2/h1H3, purity 99.5%

System: tetrafluoromethane + fluorobenzene; phases: Liquid, Gas
Property: Mole fraction of tetrafluoromethane (Liquid); method: change in gas volume
Pressure, kPa	Temperature, K	Mole fraction of tetrafluoromethane	uncertainty
98.53	288.15	0.000676	1.4e-05
99.46	290.65	0.000658	1.3e-05
100.78	293.23	0.000644	1.3e-05
102.14	295.65	0.000627	1.3e-05
101.84	298.15	0.000593	1.2e-05
102.25	300.65	0.000569	1.1e-05
98.25	303.24	0.000542	1.1e-05
100.41	305.65	0.000538	1.1e-05
101.22	308.26	0.000517	1e-05

System: tetrafluoromethane + chlorobenzene; phases: Liquid, Gas
Property: Mole fraction of tetrafluoromethane (Liquid); method: change in gas volume
Pressure, kPa	Temperature, K	Mole fraction of tetrafluoromethane	uncertainty
99.35	288.15	0.00056	1.1e-05
100.68	290.65	0.000514	1e-05
103.68	293.19	0.000506	1e-05
102.24	295.75	0.000485	1e-05
102.22	298.26	0.000452	9e-06
101.84	300.65	0.000431	9e-06
98.03	303.15	0.0004	8e-06
100.96	305.65	0.000384	8e-06
99.39	308.23	0.000357	7e-06

System: tetrafluoromethane + bromobenzene; phases: Liquid, Gas
Property: Mole fraction of tetrafluoromethane (Liquid); method: change in gas volume
Pressure, kPa	Temperature, K	Mole fraction of tetrafluoromethane	uncertainty
101.48	288.15	0.000442	9e-06
102.71	290.71	0.000419	8e-06
100.16	293.15	0.000401	8e-06
102.81	295.69	0.000393	8e-06
103.72	298.44	0.000375	8e-06
97.75	300.65	0.000368	7e-06
103.48	303.19	0.000362	7e-06
99.24	305.65	0.000344	7e-06
101.99	308.15	0.000327	7e-06

System: trifluoromethane + fluorobenzene; phases: Liquid, Gas
Property: Mole fraction of trifluoromethane (Liquid); method: change in gas volume
Pressure, kPa	Temperature, K	Mole fraction of trifluoromethane	uncertainty
103.38	288.17	0.01062	0.00021
99.93	290.71	0.00993	0.0002
100.93	293.16	0.00968	0.00019
100.76	295.65	0.00891	0.00018
100.14	298.35	0.0088	0.00018
101.12	300.86	0.00827	0.00017
98.69	303.21	0.00801	0.00016
102.1	308.21	0.00751	0.00015
101.11	305.73	0.00779	0.00016

System: trifluoromethane + chlorobenzene; phases: Liquid, Gas
Property: Mole fraction of trifluoromethane (Liquid); method: change in gas volume
Pressure, kPa	Temperature, K	Mole fraction of trifluoromethane	uncertainty
100.38	288.17	0.00642	0.00013
100.4	290.67	0.00583	0.00012
101.16	293.21	0.0054	0.00011
101.26	295.67	0.00493	0.0001
101.12	298.2	0.00476	0.0001
100.34	300.66	0.00444	9e-05
102.75	303.23	0.00434	9e-05
101.02	305.73	0.00405	8e-05
101.03	308.21	0.00396	8e-05

System: trifluoromethane + bromobenzene; phases: Liquid, Gas
Property: Mole fraction of trifluoromethane (Liquid); method: change in gas volume
Pressure, kPa	Temperature, K	Mole fraction of trifluoromethane	uncertainty
103.23	288.25	0.00495	0.0001
103.43	290.72	0.00474	9e-05
100.34	293.18	0.00443	9e-05
102.04	295.67	0.00432	9e-05
100.53	298.25	0.00418	8e-05
102.71	300.65	0.00398	8e-05
103.11	303.21	0.00382	8e-05
99.97	305.67	0.00361	7e-05
101.93	308.23	0.00352	7e-05

System: difluoromethane + fluorobenzene; phases: Liquid, Gas
Property: Mole fraction of difluoromethane (Liquid); method: change in gas volume
Pressure, kPa	Temperature, K	Mole fraction of difluoromethane	uncertainty
101.16	288.15	0.02571	0.00051
101.73	290.63	0.02384	0.00048
99.39	293.47	0.0234	0.00047
100.99	295.65	0.02207	0.00044
99.96	298.39	0.02127	0.00043
102.83	300.68	0.02017	0.0004
101.95	303.27	0.01981	0.0004
102.1	305.65	0.01903	0.00038
103.24	308.17	0.01865	0.00037

System: difluoromethane + chlorobenzene; phases: Liquid, Gas
Property: Mole fraction of difluoromethane (Liquid); method: change in gas volume
Pressure, kPa	Temperature, K	Mole fraction of difluoromethane	uncertainty
101.89	288.27	0.0202	0.00064
101.41	290.73	0.01913	0.00061
101.16	293.22	0.01891	0.0006
102.72	295.72	0.0178	0.00057
101.15	298.19	0.01736	0.00055
101.58	300.7	0.0162	0.00052
101.93	303.23	0.01578	0.0005
102.37	305.67	0.01493	0.00048
101.65	308.2	0.01436	0.00046

System: difluoromethane + bromobenzene; phases: Liquid, Gas
Property: Mole fraction of difluoromethane (Liquid); method: change in gas volume
Pressure, kPa	Temperature, K	Mole fraction of difluoromethane	uncertainty
99.61	288.22	0.01905	0.00038
100.34	290.7	0.01842	0.00037
100.71	293.19	0.01781	0.00036
98.76	295.65	0.0173	0.00035
102.06	298.46	0.0162	0.00032
101.95	300.65	0.01583	0.00032
102.21	303.24	0.01488	0.0003
101.14	305.69	0.01426	0.00029
103.13	308.21	0.0138	0.00028

System: fluorobenzene + fluoromethane; phases: Liquid, Gas
Property: Mole fraction of fluorobenzene (Liquid); method: change in gas volume
Pressure, kPa	Temperature, K	Mole fraction of fluorobenzene	uncertainty
100.24	288.13	0.02065	0.00041
104.59	290.7	0.01938	0.00039
100.19	293.21	0.01844	0.00037
101.87	295.71	0.01803	0.00036
100.46	298.39	0.01771	0.00035
100.66	300.71	0.01703	0.00034
100.36	303.24	0.01565	0.00031
102.01	305.65	0.01533	0.00031
101.85	308.23	0.01462	0.00029

System: chlorobenzene + fluoromethane; phases: Liquid, Gas
Property: Mole fraction of chlorobenzene (Liquid); method: change in gas volume
Pressure, kPa	Temperature, K	Mole fraction of chlorobenzene	uncertainty
98.06	288.24	0.01791	0.00036
99.7	290.69	0.01741	0.00035
98.38	293.17	0.01686	0.00034
100.32	295.84	0.0161	0.00032
99.5	298.21	0.01555	0.00031
100.08	300.73	0.01499	0.0003
99.41	303.15	0.01458	0.00029
101.29	305.65	0.01396	0.00028
101.05	308.23	0.01318	0.00026

System: bromobenzene + fluoromethane; phases: Liquid, Gas
Property: Mole fraction of bromobenzene (Liquid); method: change in gas volume
Pressure, kPa	Temperature, K	Mole fraction of bromobenzene	uncertainty
102.6	288.13	0.01736	0.00035
98.45	290.72	0.01618	0.00032
100.81	293.21	0.01565	0.00031
97.56	295.65	0.01502	0.0003
99.52	298.51	0.01486	0.0003
104.77	300.71	0.0141	0.00028
102.51	303.19	0.01354	0.00027
101.43	305.75	0.01313	0.00026
101.11	308.19	0.01252	0.00025
