Measured thermophysical data. Viscoelastic, Surface, and Volumetric Properties of Ionic Liquids [BMIM][OcSO4], [BMIM][PF6] and [EMIM][MeSO3]
Source: J. Chem. Eng. Data, 2014, 10.1021/je5000617
Compound 1: 1-butyl-3-methylimidazolium octyl sulfate, C16H32N2O4S, InChI=1S/C8H15N2.C8H18O4S/c1-3-4-5-10-7-6-9(2)8-10;1-2-3-4-5-6-7-8-12-13(9,10)11/h6-8H,3-5H2,1-2H3;2-8H2,1H3,(H,9,10,11)/q+1;/p-1, purity 95%
Compound 2: 1-butyl-3-methylimidazolium hexafluorophosphate, C8H15F6N2P, InChI=1S/C8H15N2.F6P/c1-3-4-5-10-7-6-9(2)8-10;1-7(2,3,4,5)6/h6-8H,3-5H2,1-2H3;/q+1;-1, purity 98.5%
Compound 3: 1-ethyl-3-methylimidazolium methanesulfonate, C7H14N2O3S, InChI=1S/C6H11N2.CH4O3S/c1-3-8-5-4-7(2)6-8;1-5(2,3)4/h4-6H,3H2,1-2H3;1H3,(H,2,3,4)/q+1;/p-1, purity 95%

System: 1-butyl-3-methylimidazolium octyl sulfate; phases: Liquid
Fixed: Pressure, kPa = 101.325
Property: Mass density, kg/m3 (Liquid); method: PYCNOM:UFactor:16
Temperature, K	Mass density, kg/m3	uncertainty
303	1060.2	10.4
308	1057.8	10.6
313	1053.2	10.7
318	1050.8	10.8
323	1046.4	10.9
328	1042.2	11.1
333	1039.8	11.2

System: 1-butyl-3-methylimidazolium octyl sulfate; phases: Liquid, Air at 1 atmosphere
Property: Surface tension liquid-gas, N/m (Liquid); method: DROPSH:UFactor:8
Temperature, K	Surface tension liquid-gas, N/m	uncertainty
303	0.0357	0.003
308	0.0352	0.0029
313	0.0349	0.0029
318	0.0347	0.0029
323	0.0343	0.0029
328	0.0339	0.0028

System: 1-butyl-3-methylimidazolium octyl sulfate; phases: Liquid
Fixed: Pressure, kPa = 101.325
Property: Speed of sound, m/s (Liquid); method: LVPAI:UFactor:8
Temperature, K	Speed of sound, m/s	uncertainty
303	1461	13
308	1450	13
313	1430	13
318	1419	13
323	1406	13
328	1391	13
333	1380	13

System: 1-butyl-3-methylimidazolium hexafluorophosphate; phases: Liquid
Fixed: Pressure, kPa = 101.325
Property: Viscosity, Pa*s (Liquid); method: Concentric cylinders viscometry
Temperature, K	Viscosity, Pa*s	uncertainty
303	0.19	0.005
308	0.15	0.004
313	0.132	0.003
318	0.106	0.003
323	0.09	0.002
328	0.075	0.002
333	0.058	0.002

System: 1-butyl-3-methylimidazolium hexafluorophosphate; phases: Liquid
Fixed: Pressure, kPa = 101.325
Property: Mass density, kg/m3 (Liquid); method: PYCNOM:UFactor:12
Temperature, K	Mass density, kg/m3	uncertainty
303	1359.4	5.2
308	1358.2	5.4
313	1353.2	5.5
318	1349.8	5.6
323	1346.8	5.7
328	1343.8	5.9
333	1340.6	6

System: 1-butyl-3-methylimidazolium hexafluorophosphate; phases: Liquid, Air at 1 atmosphere
Property: Surface tension liquid-gas, N/m (Liquid); method: DROPSH:UFactor:8
Temperature, K	Surface tension liquid-gas, N/m	uncertainty
303	0.0453	0.0034
308	0.045	0.0034
313	0.0447	0.0034
318	0.0444	0.0034
323	0.0441	0.0034
328	0.0438	0.0034
333	0.0435	0.0033

System: 1-butyl-3-methylimidazolium hexafluorophosphate; phases: Liquid
Fixed: Pressure, kPa = 101.325
Property: Speed of sound, m/s (Liquid); method: LVPAI:UFactor:8
Temperature, K	Speed of sound, m/s	uncertainty
303	1433	12
308	1417	12
313	1408	12
318	1395	12
323	1384	12
328	1374	12
333	1363	12

System: 1-ethyl-3-methylimidazolium methanesulfonate; phases: Liquid
Fixed: Pressure, kPa = 101.325
Property: Viscosity, Pa*s (Liquid); method: Concentric cylinders viscometry
Temperature, K	Viscosity, Pa*s	uncertainty
303	0.12	0.02
308	0.087	0.02
313	0.063	0.02
318	0.048	0.02
323	0.037	0.02
328	0.029	0.02
333	0.02	0.02

System: 1-ethyl-3-methylimidazolium methanesulfonate; phases: Liquid
Fixed: Pressure, kPa = 101.325
Property: Mass density, kg/m3 (Liquid); method: PYCNOM:UFactor:16
Temperature, K	Mass density, kg/m3	uncertainty
303	1247	13.7
308	1243.2	13.8
313	1240.2	13.9
318	1237.6	14
323	1234.4	14.2
328	1232.4	14.3
333	1230.2	14.5

System: 1-ethyl-3-methylimidazolium methanesulfonate; phases: Liquid, Air at 1 atmosphere
Property: Surface tension liquid-gas, N/m (Liquid); method: DROPSH:UFactor:8
Temperature, K	Surface tension liquid-gas, N/m	uncertainty
303	0.0478	0.0038
308	0.0474	0.0037
313	0.047	0.0037
318	0.0467	0.0037
323	0.0461	0.0037
328	0.0457	0.0036
333	0.0454	0.0036

System: 1-ethyl-3-methylimidazolium methanesulfonate; phases: Liquid
Fixed: Pressure, kPa = 101.325
Property: Speed of sound, m/s (Liquid); method: LVPAI:UFactor:8
Temperature, K	Speed of sound, m/s	uncertainty
303	1796	15
308	1778	15
313	1764	15
318	1752	15
323	1738	15
328	1727	15
333	1708	15
