Measured thermophysical data. Volumetric Properties of Mixed Electrolyte Aqueous Solutions at Elevated Temperatures and Pressures. The Systems CaCl2 NaCl H2O and MgCl2 NaCl H2O to 523.15 K, 70 MPa, and Ionic Strength from (0.1 to 18) mol*kg 1
Source: J. Chem. Eng. Data, 2014, 10.1021/je500371u
Compound 1: sodium chloride, ClNa, InChI=1S/ClH.Na/h1H;/q;+1/p-1, purity 99.5%
Compound 2: magnesium chloride, Cl2Mg, InChI=1S/2ClH.Mg/h2*1H;/q;;+2/p-2, purity 99%
Compound 3: calcium chloride, CaCl2, InChI=1S/Ca.2ClH/h;2*1H/q+2;;/p-2, purity 99%
Compound 4: water, H2O, InChI=1S/H2O/h1H2, purity 99.9%

System: sodium chloride + water + calcium chloride; phases: Liquid
Fixed: Pressure, kPa = 100
Property: Mass density, kg/m3 (Liquid); method: Vibrating tube method
Temperature, K	Molality, mol/kg of sodium chloride	Molality, mol/kg of calcium chloride	Mass density, kg/m3	uncertainty
298.14	0.50003	0.1	28.73	0.14
298.15	0.10014	3.001	231.63	0.95
298.15	0.50048	0.01	21.04	1.13
298.15	1.02093	0.011	41.77	1.11
298.15	0.49908	0.1	28.76	1.09
298.15	1.00183	0.1	47.72	1.19
298.15	0.10007	0.1	13.04	1.17
298.15	3.00001	0.101	116.7	0.89
298.15	0.10089	0.2	22.04	1.12
298.15	1.00156	0.208	56.77	1.11
298.15	0.10023	0.5	47.67	1.09
298.15	0.50005	0.5	62.6	1.06
298.15	3.00476	0.5	143.91	0.94
298.15	1.00447	0.501	81.26	1.03
298.15	0.50141	1	102.31	1.04
298.15	3.00863	1.002	180.98	0.9
298.15	3.00338	1.791	232.01	0.87
298.15	1.05232	3.009	257.67	0.94
298.15	0.09999	1	88.69	1.07

System: sodium chloride + water + calcium chloride; phases: Liquid
Fixed: Pressure, kPa = 2000
Property: Mass density, kg/m3 (Liquid); method: Vibrating tube method
Temperature, K	Molality, mol/kg of sodium chloride	Molality, mol/kg of calcium chloride	Mass density, kg/m3	uncertainty
373.15	0.49987	2.999	239.39	0.94
373.15	0.10007	0.1	13.01	1.13
373.15	0.50003	0.1	28.02	1.1
373.15	0.10023	0.5	47.59	1.09
373.15	0.50005	0.5	61.67	1.06
373.15	0.50139	1	101.42	0.93
373.15	0.09999	1	88.38	1.07
373.15	0.10014	3.001	229.12	0.96
473.13	0.50139	1	115.16	1
473.14	0.10007	0.1	15.65	1.29
473.14	0.50004	0.1	33.03	1.24
473.15	0.10023	0.5	55.33	1.24
473.15	0.49987	2.999	261.77	1.01
473.15	0.10014	3.001	251.81	1.03
473.15	0.09999	1	100.95	1.2
473.15	0.50005	0.5	71.14	1.19

System: sodium chloride + water + calcium chloride; phases: Liquid
Fixed: Pressure, kPa = 5000
Property: Mass density, kg/m3 (Liquid); method: Vibrating tube method
Temperature, K	Molality, mol/kg of sodium chloride	Molality, mol/kg of calcium chloride	Mass density, kg/m3	uncertainty
298.15	0.50003	0.1	28.67	1.03
298.15	0.10014	3.001	231.18	1.01
298.15	0.50048	0.01	20.94	1.07
298.15	0.50041	0.05	24.52	1.08
298.15	0	0.099	9.14	1.14
298.15	0.4991	0.1	28.66	1.03
298.15	1.00183	0.1	47.55	1.19
298.15	3.00338	0.101	116.21	0.91
298.15	0.10089	0.2	21.99	1.12
298.15	1.00156	0.208	56.62	1.1
298.15	0	0.49	43.27	1.1
298.15	0.50005	0.5	62.35	1.06
298.15	3.00863	0.5	143.37	0.96
298.15	1.00097	0.501	80.51	1.09
298.15	1.00447	0.501	80.98	1.09
298.15	0.50141	1	101.95	0.95
298.15	3.00863	1.002	180.28	0.94
298.15	0	1.005	85.67	1.08
298.15	1.00096	1.006	120.07	1.04
298.15	3.00476	1.791	231.17	0.93
298.15	0.48483	2.908	236.22	0.99
298.15	1.05232	3.009	256.79	0.98
298.15	0.10023	0.5	47.55	1.08
298.15	0.09999	1	88.49	1.08
298.16	0.10007	0.1	13.04	1.15
373.15	0.10011	0.01	4.94	1.17
373.15	0.50048	0.01	20.15	1.1
373.15	3.0021	0.01	105.7	0.85
373.15	1.01314	0.011	39.22	1.75
373.15	3.01468	0.05	108.99	0.93
373.15	0.10054	0.05	8.63	1.18
373.15	1.00934	0.051	42.33	1.14
373.15	0	0.099	9.18	1.13
373.15	0.49994	0.1	28.06	1.12
373.15	1.00183	0.1	46.12	1.07
373.15	0.10002	0.1	13.02	1.14
373.15	3.00001	0.101	112.16	1.4
373.15	0.50272	0.2	36.61	1.07
373.15	0.10089	0.2	21.87	1.12
373.15	3.02274	0.202	120.51	0.91
373.15	1.00156	0.208	55.16	1.04
373.15	0	0.49	43.28	1.09
373.15	3.00476	0.5	141.05	0.93
373.15	1.00097	0.501	78.65	1.1
373.15	3.00563	0.501	141.14	0.93
373.15	1.00447	0.501	78.66	1.13
373.15	0.10011	1	88.27	0.94
373.15	0.50139	1	101.31	0.93
373.15	1.00844	1.002	117.36	1.08
373.15	3.00863	1.002	175.81	0.9
373.15	0	1.005	85.21	0.94
373.15	1.00096	1.006	117.77	1.07
373.15	3.00338	1.791	226.62	0.98
373.15	1.99123	1.995	214.08	1.04
373.15	0.10033	2.998	228.88	0.85
373.15	0.49994	2.999	239.21	0.99
373.15	1.05232	3.009	252.4	0.99
373.15	0	5.953	377.23	0.91
373.15	0.10066	6.004	386.04	0.93
373.15	0.50005	0.5	61.57	1.05
373.15	0.10023	0.5	47.54	1.08
373.16	0	3.004	226.54	0.89
423.15	0.50139	1	106.01	0.95
423.15	0.09999	1	92.61	1.15
423.15	0.10014	3.001	236.47	0.87
423.15	0.49987	2.999	246.37	1.01
423.15	0.10011	0.01	5.33	1.21
423.15	0.50048	0.01	21.49	0.99
423.15	3.0021	0.01	109.83	0.96
423.15	1.0209	0.011	41.61	1.13
423.15	3.35813	0.012	121.91	0.93
423.15	3.01468	0.05	113.45	0.91
423.15	0.50041	0.05	25.04	1.08
423.15	0.1003	0.05	9.16	1.21
423.15	1.0093	0.051	44.8	0.94
423.15	0	0.099	9.69	1.18
423.15	1.00183	0.1	48.53	1.12
423.15	0.10007	0.1	13.9	1.21
423.15	0.50003	0.1	29.7	1.18
423.15	3.00001	0.101	117.6	1.28
423.15	0.5027	0.2	38.84	1.14
423.15	0.10089	0.2	23.24	1.19
423.15	1.0016	0.208	57.92	1.09
423.15	0.10023	0.5	50.3	1.13
423.15	0.50005	0.5	64.76	1.09
423.15	3.00476	0.5	146.75	0.95
423.15	1.00447	0.501	82.6	1.06
423.15	3.00863	1.002	180.94	0.92
423.15	0	1.005	89.35	0.97
423.15	3.00338	1.791	233.42	1.03
423.15	0.10066	6.004	395.09	386.09
423.16	3.02274	0.202	124.69	1.01
423.16	0	0.49	45.61	1.14
423.16	1.00844	1.002	122.26	1.07
423.16	0	3.004	234.51	0.89
423.16	1.05232	3.009	260.07	1
473.14	0.50048	0.01	23.8	0.9
473.15	0.101	0.01	6.09	1.39
473.15	1.0209	0.011	45.87	1.19
473.15	3.35813	0.012	131.38	1
473.15	3.01468	0.05	122.98	0.8
473.15	0.50041	0.05	27.81	1.2
473.15	0.10054	0.05	10.38	1.38
473.15	1.0093	0.051	49.24	0.72
473.15	1.00934	0.051	49.27	0.72
473.15	1.0013	0.099	53.2	1.22
473.15	0	0.099	11.54	1.31
473.15	3.00001	0.101	126.04	0.97
473.15	0.10048	0.2	25.7	1.28
473.15	0.50272	0.2	42.71	1.22
473.15	0.9959	0.201	62.8	1.17
473.15	3.02274	0.202	134.69	1.06
473.15	0	0.49	50.77	1.24
473.15	1.001	0.501	89.93	1.12
473.15	3.00563	0.501	156.93	0.99
473.15	1.00255	0.999	131.45	1.17
473.15	0.50139	1	114.63	0.99
473.15	0	1.005	98.01	1.03
473.15	0.49987	2.999	260.73	1.06
473.15	0	3.004	249.84	1.09
473.15	1.00241	3.006	272.91	1.05
473.15	0.10023	0.5	55.11	1.21
473.15	0.10007	0.1	15.56	1.31
473.16	0.50005	0.5	70.77	1.17
473.16	0.09999	1	100.42	1.24
473.16	0.10014	3.001	250.84	1.09
473.16	0.50004	0.1	32.84	1.27
473.16	3.00863	1.002	193.52	1.07
523.14	3.35813	0.012	149.17	1.02
523.14	0.10007	0.1	18.72	1.56
523.14	0.50005	0.5	81.3	1.29
523.14	0.50003	0.1	38.86	1.47
523.15	3.01468	0.05	140.17	1.11
523.15	0.50139	1	128.85	1.27
523.15	0.10011	0.01	7.6	1.58
523.15	1.00157	0.1	62.78	1.58
523.15	3.00001	0.101	143.37	0.99
523.15	0.50041	0.05	33.61	1.38
523.15	3.00476	0.5	176.15	1.06
523.15	0.49434	3.012	285.32	1.14
523.15	0.50048	0.01	28.9	1.76
523.15	1.02093	0.011	54.29	1.49
523.15	0.99588	0.201	73	1.3
523.15	3.02274	0.202	152.92	1.13
523.15	0.10023	0.5	63.35	1.35
523.15	0.09999	1	113.24	1.32
523.15	0	1.005	110.13	1.13
523.15	3.00338	1.791	270.15	1.05
523.15	1.00241	3.006	298.76	1.11
523.15	0.50272	0.2	50.37	1.39
523.15	1.00097	0.501	102.53	1.24
523.15	0.1003	0.05	12.55	1.59
523.15	0	0.49	57.84	1.4
523.15	1.00549	1	148.58	1.2
523.15	0	0.099	13.08	1.49
523.15	0.10014	3.001	274.26	1.16
523.16	0.10089	0.2	30.55	1.46
523.16	1.05232	3.009	298.39	1.11
523.16	3.00863	1.002	213.99	1.03
523.16	0	3.004	272.46	1.17

System: sodium chloride + water + calcium chloride; phases: Liquid
Fixed: Pressure, kPa = 10000
Property: Mass density, kg/m3 (Liquid); method: Vibrating tube method
Temperature, K	Molality, mol/kg of sodium chloride	Molality, mol/kg of calcium chloride	Mass density, kg/m3	uncertainty
298.15	0.50048	0.01	20.85	1.06
298.15	0.50041	0.05	24.36	1.08
298.15	0	0.099	9.13	1.13
298.15	0.4991	0.1	28.51	1.04
298.15	1.00183	0.1	47.29	1.19
298.15	3.00001	0.101	115.75	0.93
298.15	0.10089	0.2	21.85	1.12
298.15	1.00156	0.208	56.33	1.11
298.15	0	0.49	43.15	1.1
298.15	0.50005	0.5	62.15	1.07
298.15	3.00476	0.5	142.91	0.99
298.15	1.00097	0.501	80.3	1.1
298.15	1.00447	0.501	80.67	1.1
298.15	0.50141	1	101.64	0.97
298.15	3.00863	1.002	179.76	0.99
298.15	0	1.005	85.44	1.09
298.15	1.00096	1.006	119.76	1.06
298.15	3.00338	1.791	230.6	1.01
298.15	0.48483	2.908	235.7	1.08
298.15	0.10014	3.001	230.79	1.09
298.15	1.05232	3.009	256.22	1.08
298.15	0.10023	0.5	47.41	1.09
298.15	0.09999	1	88.25	1.09
298.15	0.10007	0.1	12.98	1.14
298.16	0.50003	0.1	28.58	1.04
373.15	0.10023	0.5	47.35	1.08
373.15	0.50005	0.5	61.36	1.06
373.15	0.10011	0.01	4.96	1.18
373.15	0.50048	0.01	20.2	1.09
373.15	3.0021	0.01	105.42	0.87
373.15	1.01314	0.011	39.13	1.71
373.15	3.01468	0.05	108.75	0.95
373.15	0.10054	0.05	8.61	1.17
373.15	1.00934	0.051	42.28	1.14
373.15	0	0.099	9.23	1.13
373.15	0.49994	0.1	27.94	1.12
373.15	1.00183	0.1	46.01	1.08
373.15	0.10002	0.1	12.96	1.14
373.15	3.00001	0.101	111.84	1.4
373.15	0.50272	0.2	36.61	1.07
373.15	0.10089	0.2	21.87	1.12
373.15	3.02274	0.202	120.18	0.94
373.15	1.00156	0.208	55.06	1.04
373.15	0	0.49	43.22	1.09
373.15	3.00476	0.5	140.67	0.96
373.15	3.00563	0.501	140.72	0.96
373.15	1.00447	0.501	78.39	1.13
373.15	0.10011	1	88	0.95
373.15	0.50139	1	101.02	0.94
373.15	1.00844	1.002	117.04	1.1
373.15	3.00863	1.002	175.32	0.96
373.15	0	1.005	85.07	0.96
373.15	3.00338	1.791	226.17	1.06
373.15	1.99123	1.995	213.68	1.1
373.15	0.10033	2.998	228.34	0.94
373.15	1.05232	3.009	251.84	1.08
373.15	0	5.953	376.57	1.13
373.15	0.10066	6.004	385.54	1.15
373.15	1.00096	1.006	117.41	1.09
373.15	0.49987	2.999	238.6	1.08
373.16	1.00097	0.501	78.38	1.1
373.16	0	3.004	226.08	0.98
423.14	0.10066	6.004	394.22	1.35
423.15	0.10023	0.5	50.05	1.13
423.15	0.10011	0.01	5.23	1.19
423.15	0.50048	0.01	21.35	0.99
423.15	3.0021	0.01	109.35	0.99
423.15	1.0209	0.011	41.37	1.13
423.15	3.35813	0.012	121.28	0.95
423.15	3.01468	0.05	112.98	0.94
423.15	0.50041	0.05	24.99	1.07
423.15	0.1003	0.05	9.11	1.21
423.15	1.0093	0.051	44.61	0.94
423.15	0	0.099	9.55	1.17
423.15	1.00183	0.1	48.29	1.12
423.15	0.10007	0.1	13.81	1.22
423.15	3.00001	0.101	117.12	1.29
423.15	0.5027	0.2	38.64	1.13
423.15	0.10089	0.2	23.19	1.18
423.15	1.0016	0.208	57.67	1.09
423.15	0	0.49	45.35	1.15
423.15	0.50005	0.5	64.46	1.1
423.15	3.00476	0.5	146.27	0.98
423.15	1.00447	0.501	82.22	1.06
423.15	0.50139	1	105.59	0.97
423.15	0.09999	1	92.23	1.15
423.15	3.00863	1.002	180.21	0.98
423.15	0	1.005	89.07	0.99
423.15	3.00338	1.791	232.65	1.11
423.15	0.10014	3.001	235.72	0.97
423.15	0.49987	2.999	245.62	1.1
423.15	0.50003	0.1	29.52	1.18
423.16	3.02274	0.202	124.17	1.04
423.16	1.00844	1.002	121.78	1.09
423.16	0	3.004	233.74	0.99
423.16	1.05232	3.009	259.3	1.1
473.14	0.10014	3.001	249.38	1.17
473.15	0.49987	2.999	259.26	1.16
473.15	0.50048	0.01	23.69	0.92
473.15	0.101	0.01	6.06	1.4
473.15	1.0209	0.011	45.42	1.19
473.15	3.35813	0.012	130.4	1.03
473.15	3.01468	0.05	122.06	0.87
473.15	0.50041	0.05	27.59	1.18
473.15	0.10054	0.05	10.32	1.37
473.15	1.00934	0.051	48.81	0.77
473.15	1.0013	0.099	52.76	1.21
473.15	0	0.099	11.47	1.3
473.15	3.00001	0.101	125.12	0.99
473.15	0.10048	0.2	25.46	1.27
473.15	0.50272	0.2	42.33	1.22
473.15	0.9959	0.201	62.19	1.17
473.15	3.02274	0.202	133.74	1.08
473.15	0	0.49	50.38	1.24
473.15	1.001	0.501	89.27	1.13
473.15	3.00563	0.501	155.78	1.03
473.15	1.00255	0.999	130.52	1.19
473.15	0.09999	1	99.68	1.24
473.15	0	1.005	97.34	1.04
473.15	0	3.004	248.38	1.18
473.15	1.00241	3.006	271.38	1.16
473.15	0.10007	0.1	15.41	1.3
473.15	0.5014	1	113.84	1.01
473.16	0.10023	0.5	54.64	1.21
473.16	0.50004	0.1	32.54	1.26
473.16	0.50005	0.5	70.23	1.17
473.16	3.00863	1.002	192.24	1.12
523.15	0.50041	0.05	33.06	1.36
523.15	0.1003	0.05	12.31	1.58
523.15	1.05232	3.009	295.26	1.23
523.15	0.10011	0.01	7.34	1.58
523.15	1.02093	0.011	53.25	1.47
523.15	3.35813	0.012	146.92	1.06
523.15	1.00157	0.1	61.74	1.56
523.15	0.10007	0.1	18.32	1.54
523.15	3.02274	0.202	150.7	1.17
523.15	0	0.49	57.09	1.39
523.15	0.10023	0.5	62.38	1.34
523.15	3.00863	1.002	211.24	1.1
523.15	0	1.005	108.61	1.14
523.15	0.10014	3.001	271.19	1.26
523.15	1.00241	3.006	295.49	1.23
523.15	0.49434	3.012	282.2	1.25
523.15	0.09999	1	111.64	1.33
523.15	3.01468	0.05	137.22	1.2
523.15	0.50003	0.1	38.14	1.45
523.15	0.10089	0.2	30.02	1.44
523.15	1.00097	0.501	101.03	1.25
523.15	0.50139	1	126.99	1.28
523.15	1.00549	1	146.56	1.22
523.15	3.00338	1.791	267.05	1.16
523.16	0	3.004	269.36	1.26
523.16	3.00001	0.101	141.35	1.14
523.16	0.50272	0.2	49.47	1.37
523.16	0	0.099	12.89	1.48
523.16	0.99588	0.201	71.78	1.3
523.16	3.00476	0.5	173.87	1.1
523.16	0.50048	0.01	28.32	1.78
523.16	0.50005	0.5	79.89	1.28

System: sodium chloride + water + calcium chloride; phases: Liquid
Fixed: Pressure, kPa = 20000
Property: Mass density, kg/m3 (Liquid); method: Vibrating tube method
Temperature, K	Molality, mol/kg of sodium chloride	Molality, mol/kg of calcium chloride	Mass density, kg/m3	uncertainty
298.15	0.50048	0.01	20.73	1.05
298.15	0.50041	0.05	24.2	1.07
298.15	0	0.099	9.08	1.13
298.15	0.4991	0.1	28.27	1.03
298.15	1.00183	0.1	46.95	1.2
298.15	0.10007	0.1	12.9	1.15
298.15	0.50003	0.1	28.34	1.03
298.15	3.00001	0.101	115.07	1
298.15	0.10089	0.2	21.78	1.12
298.15	1.00156	0.208	55.99	1.12
298.15	0	0.49	42.94	1.11
298.15	0.50005	0.5	61.81	1.08
298.15	3.00476	0.5	142.09	1.09
298.15	1.00097	0.501	79.78	1.12
298.15	1.00447	0.501	80.19	1.12
298.15	0.50141	1	101.06	1.02
298.15	0.09999	1	87.84	1.12
298.15	3.00863	1.002	178.9	1.14
298.15	0	1.005	85.02	1.12
298.15	1.00096	1.006	119.12	1.13
298.15	3.00338	1.791	229.6	1.25
298.15	0.48483	2.908	234.73	1.31
298.15	1.05232	3.009	255.27	1.34
298.15	0.10023	0.5	47.19	1.09
298.16	0.10014	3.001	229.92	1.3
373.15	0.10023	0.5	47.1	1.09
373.15	0.50005	0.5	61.03	1.07
373.15	0.50139	1	100.5	1
373.15	0.10014	3.001	227.4	1.18
373.15	0.10011	0.01	4.84	1.18
373.15	0.50048	0.01	20	1.09
373.15	3.0021	0.01	104.83	0.91
373.15	1.01314	0.011	38.87	1.68
373.15	3.01468	0.05	108.1	1.01
373.15	0.10054	0.05	8.54	1.18
373.15	1.00934	0.051	41.98	1.14
373.15	0	0.099	9.11	1.12
373.15	0.49994	0.1	27.78	1.12
373.15	1.00183	0.1	45.66	1.08
373.15	0.10002	0.1	12.89	1.13
373.15	3.00001	0.101	111.09	1.42
373.15	0.50272	0.2	36.36	1.07
373.15	0.10089	0.2	21.67	1.12
373.15	3.02274	0.202	119.51	1.01
373.15	1.00156	0.208	54.71	1.04
373.15	0	0.49	42.94	1.1
373.15	3.00476	0.5	139.81	1.05
373.15	1.00447	0.501	77.84	1.17
373.15	0.10011	1	87.57	1.16
373.15	1.00844	1.002	116.38	1.16
373.15	3.00863	1.002	174.36	1.1
373.15	0	1.005	84.61	0.99
373.15	3.00338	1.791	225.05	1.27
373.15	1.99123	1.995	212.62	1.29
373.15	0.49987	2.999	237.66	1.31
373.15	1.05232	3.009	250.77	1.34
373.15	0	5.953	375.4	1.63
373.15	1.00096	1.006	116.89	1.16
373.15	1.00097	0.501	77.74	1.1
373.16	3.00563	0.501	140.02	1.05
373.16	0	3.004	225.09	1.21
373.16	0.10066	6.004	384.27	1.67
423.14	0.49987	2.999	244.12	1.34
423.15	0.10023	0.5	49.61	1.13
423.15	0.10011	0.01	5.08	1.19
423.15	0.50048	0.01	21.15	1.01
423.15	1.0209	0.011	40.95	1.14
423.15	3.35813	0.012	120.31	1.03
423.15	3.01468	0.05	111.92	1
423.15	0.50041	0.05	24.75	1.08
423.15	0.1003	0.05	9.01	1.21
423.15	1.0093	0.051	44.21	0.99
423.15	0	0.099	9.44	1.17
423.15	1.00183	0.1	47.95	1.12
423.15	0.10007	0.1	13.67	1.21
423.15	0.50003	0.1	29.25	1.17
423.15	3.00001	0.101	116.25	1.31
423.15	0.5027	0.2	38.32	1.13
423.15	0.10089	0.2	22.95	1.18
423.15	1.0016	0.208	57.19	1.1
423.15	0.50005	0.5	63.91	1.11
423.15	3.00476	0.5	145.26	1.08
423.15	1.00447	0.501	81.59	1.1
423.15	0.50139	1	104.76	1.02
423.15	0.09999	1	91.49	1.18
423.15	3.00863	1.002	178.91	1.13
423.15	0	1.005	88.46	1.02
423.15	3.00338	1.791	231.2	1.32
423.15	0.10014	3.001	234.29	1.21
423.15	0.10066	6.004	392.18	1.83
423.16	3.0021	0.01	108.45	1.07
423.16	3.02274	0.202	123.01	1.11
423.16	0	0.49	44.96	1.15
423.16	1.00844	1.002	121.11	1.15
423.16	0	3.004	232.38	1.23
423.16	1.05232	3.009	257.75	1.36
473.15	0.50048	0.01	23.23	0.98
473.15	0.101	0.01	5.94	1.4
473.15	1.0209	0.011	44.66	1.2
473.15	3.35813	0.012	128.65	1.1
473.15	3.01468	0.05	120.36	0.98
473.15	0.10054	0.05	10.13	1.36
473.15	1.00934	0.051	48.02	0.82
473.15	1.0013	0.099	51.85	1.22
473.15	0	0.099	11.35	1.29
473.15	0.10048	0.2	25.06	1.26
473.15	0.50272	0.2	41.71	1.22
473.15	0.9959	0.201	61.28	1.18
473.15	3.02274	0.202	131.9	1.15
473.15	0	0.49	49.7	1.24
473.15	1.001	0.501	88.01	1.15
473.15	3.00563	0.501	153.89	1.14
473.15	1.00255	0.999	128.85	1.24
473.15	0.09999	1	98.35	1.27
473.15	3.00863	1.002	189.99	1.26
473.15	0	1.005	96.15	1.08
473.15	0.49987	2.999	256.67	1.41
473.15	0.10014	3.001	246.85	1.4
473.15	0	3.004	245.8	1.4
473.15	1.00241	3.006	268.65	1.43
473.15	0.50003	0.1	31.95	1.27
473.15	0.50005	0.5	69.21	1.18
473.15	0.10023	0.5	53.83	1.21
473.15	0.50139	1	112.36	1.07
473.16	0.10007	0.1	15.13	1.28
473.16	0.50041	0.05	27.18	1.18
473.16	3.00001	0.101	123.43	1.07
523.14	3.00863	1.002	206.5	1.28
523.15	0	3.004	264.02	1.51
523.15	0.1003	0.05	11.87	1.53
523.15	0.10007	0.1	17.68	1.5
523.15	0.50005	0.5	77.67	1.29
523.15	0.50139	1	123.86	1.33
523.15	1.00241	3.006	289.85	1.53
523.15	1.05232	3.009	289.63	1.53
523.15	0.49434	3.012	276.73	1.52
523.15	0.50048	0.01	27.28	1.72
523.15	0.50003	0.1	35.66	1.43
523.15	1.00549	1	142.99	1.29
523.15	0.50041	0.05	31.92	1.21
523.15	3.00001	0.101	137.64	1.22
523.15	0.99588	0.201	69.63	1.29
523.15	3.02274	0.202	146.77	1.25
523.16	3.01468	0.05	133.49	1.26
523.16	1.00157	0.1	59.78	1.61
523.16	0.10089	0.2	29.06	1.41
523.16	3.00476	0.5	169.65	1.22
523.16	3.00338	1.791	261.7	1.42
523.16	0.50272	0.2	47.95	1.37
523.16	0.09999	1	108.82	1.35
523.16	0.10011	0.01	7.04	1.53
523.16	0.10014	3.001	265.93	1.51
523.16	1.02093	0.011	51.51	1.45
523.16	3.35813	0.012	142.98	1.15
523.16	0	0.49	55.47	1.37
523.16	0.10023	0.5	60.64	1.33
523.16	0	1.005	105.88	1.18
523.16	1.00097	0.501	98.23	1.27
523.16	0	0.099	12.44	1.44

System: sodium chloride + water + calcium chloride; phases: Liquid
Fixed: Pressure, kPa = 40000
Property: Mass density, kg/m3 (Liquid); method: Vibrating tube method
Temperature, K	Molality, mol/kg of sodium chloride	Molality, mol/kg of calcium chloride	Mass density, kg/m3	uncertainty
298.15	0.50048	0.01	20.42	1.06
298.15	0.50041	0.05	23.84	1.08
298.15	0	0.099	8.92	1.12
298.15	0.4991	0.1	27.85	1.04
298.15	1.00183	0.1	46.32	1.21
298.15	0.10007	0.1	12.78	1.15
298.15	0.50003	0.1	27.99	1.05
298.15	3.00001	0.101	113.55	1.2
298.15	0.10089	0.2	21.57	1.12
298.15	1.00156	0.208	55.26	1.16
298.15	0	0.49	42.43	1.13
298.15	0.50005	0.5	61.02	1.13
298.15	3.00476	0.5	140.5	1.36
298.15	1.00097	0.501	78.9	1.2
298.15	1.00447	0.501	79.19	1.2
298.15	0.50141	1	100	1.17
298.15	0.09999	1	87.04	1.23
298.15	3.00863	1.002	177.03	1.54
298.15	0	1.005	84.22	1.22
298.15	1.00096	1.006	117.88	1.32
298.15	3.00338	1.791	227.49	1.82
298.15	0.48483	2.908	232.89	1.88
298.15	1.05232	3.009	253.24	2
298.15	0.10023	0.5	46.72	1.12
298.15	0.10014	3.001	228.24	1.86
373.14	1.00096	1.006	115.82	1.33
373.15	0.10011	0.01	4.88	1.14
373.15	0.50048	0.01	19.79	1.09
373.15	3.0021	0.01	103.65	1.12
373.15	1.01314	0.011	38.41	1.62
373.15	3.01468	0.05	106.93	1.19
373.15	0.10054	0.05	8.46	1.14
373.15	1.00934	0.051	41.37	1.16
373.15	0	0.099	8.98	1.12
373.15	0.49994	0.1	27.4	1.13
373.15	1.00183	0.1	45.21	1.12
373.15	0.10002	0.1	12.69	1.12
373.15	3.00001	0.101	110.02	1.53
373.15	0.50272	0.2	36	1.09
373.15	3.02274	0.202	118.26	1.23
373.15	1.00156	0.208	54.15	1.1
373.15	0	0.49	42.53	1.12
373.15	0.10023	0.5	46.6	1.11
373.15	0.50005	0.5	60.39	1.12
373.15	3.00476	0.5	138.53	1.33
373.15	1.00097	0.501	77.23	1.21
373.15	1.00447	0.501	77.13	1.21
373.15	0.10011	1	86.74	1.26
373.15	0.50139	1	99.54	1.15
373.15	1.00844	1.002	115.36	1.33
373.15	3.00863	1.002	172.92	1.5
373.15	3.00338	1.791	223.34	1.82
373.15	0.49987	2.999	235.93	1.9
373.15	0.10014	3.001	225.72	1.77
373.15	1.05232	3.009	249.05	1.97
373.15	0	5.953	373.16	2.72
373.15	0.10066	6.004	382.08	2.78
373.16	3.00563	0.501	138.61	1.33
373.16	0.10089	0.2	21.43	1.11
373.16	0	1.005	83.87	1.11
373.16	1.99123	1.995	211.02	1.78
373.16	0	3.004	223.42	1.78
423.14	0.49987	2.999	241.63	1.94
423.15	0.10011	0.01	5.07	1.16
423.15	0.50048	0.01	20.66	1.03
423.15	1.0209	0.011	40.23	1.16
423.15	3.35813	0.012	118.64	1.24
423.15	3.01468	0.05	110.39	1.19
423.15	0.50041	0.05	24.31	1.09
423.15	0.1003	0.05	8.8	1.18
423.15	1.0093	0.051	43.44	1.04
423.15	0	0.099	9.24	1.16
423.15	1.00183	0.1	47.13	1.16
423.15	0.10007	0.1	13.43	1.19
423.15	3.00001	0.101	114.48	1.45
423.15	0.5027	0.2	37.61	1.14
423.15	0.10089	0.2	22.51	1.17
423.15	1.0016	0.208	56.34	1.15
423.15	0.10023	0.5	48.88	1.16
423.15	0.50005	0.5	62.96	1.17
423.15	3.00476	0.5	143.25	1.37
423.15	1.00447	0.501	80.54	1.18
423.15	0.09999	1	90.28	1.28
423.15	3.00863	1.002	176.91	1.53
423.15	3.00338	1.791	228.81	1.87
423.15	0.10014	3.001	231.87	1.82
423.15	0	3.004	229.98	1.82
423.15	0.10066	6.004	389.14	2.92
423.15	0.50003	0.1	28.73	1.17
423.15	0.50139	1	103.39	1.19
423.16	3.0021	0.01	106.82	1.25
423.16	3.02274	0.202	121.23	1.31
423.16	0	0.49	44.42	1.17
423.16	1.00844	1.002	119.33	1.34
423.16	0	1.005	87.2	1.14
423.16	1.05232	3.009	255.27	2.02
473.14	0.49987	2.999	252.4	2.04
473.15	0.50048	0.01	22.58	1.04
473.15	0.101	0.01	5.72	1.38
473.15	1.0209	0.011	43.44	1.22
473.15	3.35813	0.012	125.79	1.32
473.15	3.01468	0.05	117.64	1.22
473.15	0.10054	0.05	9.78	1.34
473.15	1.00934	0.051	46.72	0.93
473.15	1.0013	0.099	50.47	1.24
473.15	0	0.099	11.03	1.27
473.15	0.10048	0.2	24.33	1.24
473.15	0.50272	0.2	40.64	1.22
473.15	0.9959	0.201	59.72	1.22
473.15	3.02274	0.202	128.93	1.37
473.15	0	0.49	48.59	1.25
473.15	1.001	0.501	86.03	1.25
473.15	3.00563	0.501	150.62	1.44
473.15	1.00255	0.999	126.21	1.43
473.15	0.09999	1	96.2	1.36
473.15	0	1.005	94.1	1.21
473.15	0.10014	3.001	242.74	1.99
473.15	0	3.004	241.8	1.99
473.15	1.00241	3.006	269.33	2.13
473.15	0.10023	0.5	52.52	1.23
473.15	0.50139	1	109.94	1.25
473.16	0.50003	0.1	31.04	1.25
473.16	0.50041	0.05	26.39	1.17
473.16	0.10007	0.1	14.69	1.26
473.16	3.00001	0.101	120.61	1.29
473.16	0.50005	0.5	67.54	1.24
473.16	3.00863	1.002	186.43	1.65
523.14	0.1003	0.05	11.18	1.47
523.15	0.50048	0.01	25.73	1.65
523.15	0.50041	0.05	30.18	1.32
523.15	0	0.099	11.74	1.39
523.15	0.10007	0.1	16.7	1.44
523.15	0.10089	0.2	27.62	1.37
523.15	0.10014	3.001	257.9	2.13
523.15	0	3.004	256.04	2.12
523.15	1.00241	3.006	281.39	2.24
523.15	3.00001	0.101	131.99	1.54
523.15	0.50005	0.5	74.34	1.33
523.15	0.50003	0.1	34.96	1.39
523.15	3.00476	0.5	163.31	1.55
523.15	0.49434	3.012	268.55	2.18
523.15	3.00863	1.002	199.43	1.73
523.16	0.10023	0.5	57.99	1.34
523.16	0.50139	1	119.13	1.48
523.16	0	1.005	101.81	1.31
523.16	1.05232	3.009	281.22	2.24
523.16	0.10011	0.01	6.55	1.46
523.16	1.00157	0.1	56.9	1.52
523.16	1.00549	1	137.67	1.51
523.16	0.50272	0.2	45.61	1.34
523.16	3.00338	1.791	253.6	2.05
523.16	1.00097	0.501	94.16	1.37
523.16	3.02274	0.202	140.88	1.49
523.16	0	0.49	53.19	1.37
523.16	3.01468	0.05	127.92	1.46
523.16	0.99588	0.201	66.39	1.32
523.16	0.09999	1	104.61	1.46
523.16	1.02093	0.011	48.86	1.43
523.17	3.35813	0.012	137.08	1.4

System: sodium chloride + water + calcium chloride; phases: Liquid
Fixed: Pressure, kPa = 70000
Property: Mass density, kg/m3 (Liquid); method: Vibrating tube method
Temperature, K	Molality, mol/kg of sodium chloride	Molality, mol/kg of calcium chloride	Mass density, kg/m3	uncertainty
298.15	0.50048	0.01	20.02	1.08
298.15	0.50041	0.05	23.24	1.09
298.15	0	0.099	8.82	1.11
298.15	0.10089	0.2	21.17	1.1
298.15	1.00156	0.208	54.29	1.23
298.15	0	0.49	41.94	1.19
298.15	1.00097	0.501	77.51	1.37
298.15	0	1.005	83.18	1.44
298.15	1.00096	1.006	116.26	1.7
298.15	0.48483	2.908	230.49	2.87
373.15	0.10011	0.01	4.73	1.16
373.15	0.50048	0.01	19.53	0.91
373.15	3.0021	0.01	102.14	1.52
373.15	1.02093	0.011	37.88	1.23
373.15	3.01468	0.05	105.36	1.58
373.15	0.50041	0.05	22.87	1.08
373.15	0.1003	0.05	8.27	1.16
373.15	1.00934	0.051	40.83	1.56
373.15	0	0.099	9.06	1.11
373.15	0.49985	0.099	27.02	1.11
373.15	1.00183	0.1	44.52	1.28
373.15	0.09998	0.1	12.48	1.13
373.15	3.00001	0.101	108.38	1.57
373.15	0.50272	0.2	35.46	1.08
373.15	0.10089	0.2	21.1	1.2
373.15	3.02274	0.202	116.84	1.66
373.15	1.00156	0.208	53.44	1.19
373.15	0	0.49	42.11	1.18
373.15	3.00476	0.5	136.71	1.85
373.15	1.00447	0.501	76.06	1.36
373.15	0.48992	0.979	96.7	1.47
373.15	0.10023	0.999	85.7	1.38
373.15	1.00844	1.002	113.91	1.69
373.15	3.00863	1.002	170.8	2.19
373.15	0	1.005	82.71	1.35
373.15	3.00338	1.791	220.87	2.73
373.15	1.99123	1.995	208.65	2.63
373.15	0.10051	2.995	223.62	2.73
373.15	0.5	2.999	233.78	2.89
373.15	1.05232	3.009	246.6	3.02
373.15	0	5.953	370.1	4.38
373.16	0	3.004	221.22	2.72
373.16	0.10066	6.004	379.05	4.49
423.15	0.10011	0.01	4.96	1.18
423.15	0.50048	0.01	20.32	1.04
423.15	1.0209	0.011	39.42	1.21
423.15	3.35813	0.012	116.66	1.65
423.15	3.01468	0.05	108.44	1.57
423.15	0.50041	0.05	23.78	1.13
423.15	0.1003	0.05	8.65	1.18
423.15	1.0093	0.051	42.55	1.14
423.15	0	0.099	9.27	1.14
423.15	0.49985	0.099	28.01	1.17
423.15	1.00183	0.1	46.28	1.22
423.15	0.09998	0.1	13.12	1.18
423.15	3.00001	0.101	112.54	1.75
423.15	0.5027	0.2	36.94	1.23
423.15	0.10089	0.2	22.12	1.23
423.15	1.0016	0.208	55.25	1.25
423.15	3.00476	0.5	140.99	1.9
423.15	1.00447	0.501	79.08	1.41
423.15	3.00863	1.002	174.32	2.23
423.15	3.00338	1.791	225.86	2.79
423.15	0	3.004	227.05	2.78
423.15	0.10066	6.004	385.63	4.65
423.16	3.0021	0.01	104.99	1.6
423.16	3.02274	0.202	119.37	1.72
423.16	0	0.49	43.64	1.22
423.16	1.00844	1.002	117.5	1.71
423.16	0	1.005	85.89	1.39
423.16	1.05232	3.009	252.24	3.09
473.15	0.50048	0.01	21.77	1.26
473.15	0.10113	0.011	5.55	1.37
473.15	1.0209	0.011	42.14	1.34
473.15	3.35813	0.012	122.53	1.74
473.15	3.01468	0.05	114.57	1.66
473.15	0.10054	0.05	9.43	1.31
473.15	1.00934	0.051	45.31	1.45
473.15	1.0013	0.099	49.11	1.38
473.15	0	0.099	10.63	1.23
473.15	0.09998	0.1	14.16	1.26
473.15	0.50272	0.2	39.37	1.28
473.15	0.9959	0.201	58.02	1.33
473.15	3.02274	0.202	125.68	1.79
473.15	0	0.49	47.24	1.31
473.15	1.001	0.501	83.8	1.49
473.15	3.00563	0.501	147.06	1.99
473.15	1.00255	0.999	123.31	1.79
473.15	0.10023	0.999	94.06	1.5
473.15	0	1.005	91.76	1.48
473.15	0.5	2.999	247.96	3.09
473.15	0	3.004	237.26	2.96
473.15	1.00241	3.006	259.71	3.19
473.16	0.10048	0.2	23.71	1.26
473.16	0.50041	0.05	25.49	1.25
473.16	3.00001	0.101	117.44	1.7
473.16	3.00863	1.002	182.39	2.35

System: sodium chloride + water + magnesium chloride; phases: Liquid
Fixed: Temperature, K = 298.15
Fixed: Pressure, kPa = 100
Property: Mass density, kg/m3 (Liquid); method: Vibrating tube method
Molality, mol/kg of sodium chloride	Molality, mol/kg of magnesium chloride	Mass density, kg/m3	uncertainty
0.99911	0.1001	46.51	0.22
3.00012	0.5005	140.52	0.15
0	1.0003	73.84	0.23
1.00125	3.0093	226.59	0.3
0.10007	3.0097	201.59	0.29
0.2019	3.0098	204.47	0.29
0.4998	3.0101	212.74	0.29

System: sodium chloride + water + magnesium chloride; phases: Liquid
Fixed: Pressure, kPa = 5000
Property: Mass density, kg/m3 (Liquid); method: Vibrating tube method
Temperature, K	Molality, mol/kg of sodium chloride	Molality, mol/kg of magnesium chloride	Mass density, kg/m3	uncertainty
298.15	2.99998	0.0998	114.72	0.3
298.15	0.20014	0.1	15.87	0.26
298.15	0	0.1	7.78	0.26
298.15	0.99911	0.1001	46.34	0.26
298.15	0.50434	0.1017	27.82	0.26
298.15	0.19961	0.4998	45.35	0.26
298.15	0	0.5	37.82	0.26
298.15	1.00005	0.5	74.05	0.27
298.15	3.00012	0.5005	140.06	0.32
298.15	0.5004	0.5006	56.4	0.27
298.15	0.10047	0.5039	41.91	0.26
298.15	1.00053	0.9996	107.32	0.3
298.15	0.10021	1	76.81	0.28
298.15	3.00001	1	169.29	0.35
298.15	0	1.0003	73.57	0.26
298.15	0.20007	1.0005	80.68	0.29
298.15	0.49992	1.0006	90.93	0.29
298.15	1.00608	1.2355	122.97	0.32
298.15	0	3.0001	197.33	0.4
298.15	1.00125	3.0093	225.97	0.43
298.15	0.10007	3.0097	200.97	0.4
298.15	0.2019	3.0098	203.91	0.4
298.15	0.4998	3.0101	212.07	0.41
373.15	0.50434	0.1017	27.49	0.26
373.15	0	3.0001	203.28	0.41
373.15	2.99998	0.0998	111.23	0.28
373.15	0	0.1	8.18	0.27
373.15	0.99911	0.1001	44.97	0.25
373.15	0.10074	0.1008	12.07	0.26
373.15	0.19961	0.4998	46.39	0.27
373.15	0	0.5	39.25	0.27
373.15	3.00012	0.5005	137.16	0.32
373.15	0.5004	0.5006	56.94	0.27
373.15	0.10047	0.5039	43.13	0.27
373.15	3.00001	1	167.62	0.37
373.15	0	1.0003	76.07	0.27
373.15	0.20007	1.0005	82.8	0.3
373.15	0.49992	1.0006	92.59	0.31
373.15	1.00125	3.0093	229.7	0.44
373.15	0.10007	3.0097	206.92	0.42
373.15	0.2019	3.0098	209.61	0.42
373.15	0.4998	3.0101	217.6	0.43
373.15	1.00005	0.5	73.84	0.28
373.15	0.10021	1	79.15	0.3
373.15	1.00053	0.9996	108.2	0.31
373.15	1.00608	1.2355	124.38	0.35
373.15	0.20014	0.1	15.88	0.26
423.13	0.4998	3.0101	230.58	0.45
423.14	1.00125	3.0093	242.65	0.47
423.15	2.99998	0.0998	115.94	0.31
423.15	0.20014	0.1	17.09	0.29
423.15	0	0.1	9.02	0.29
423.15	0.10074	0.1008	13.25	0.29
423.15	0.50434	0.1017	29.11	0.28
423.15	0	0.2	17.73	0.29
423.15	0.19961	0.4998	50.11	0.29
423.15	0	0.5	42.6	0.29
423.15	1.00005	0.5	78.75	0.3
423.15	3.00012	0.5005	143.09	0.34
423.15	0.5004	0.5006	60.98	0.29
423.15	0.10047	0.5039	46.74	0.29
423.15	1.00053	0.9996	115.21	0.33
423.15	0.10021	1	85.3	0.32
423.15	3.00001	1	175.22	0.39
423.15	0	1.0003	81.95	0.28
423.15	0.20007	1.0005	88.68	0.32
423.15	0.49992	1.0006	98.9	0.32
423.15	1.00608	1.2355	131.93	0.36
423.15	0	3.0001	216.58	0.44
423.15	0.10007	3.0097	219.99	0.44
423.15	0.99911	0.1001	47.56	0.28
423.2	0.2019	3.0098	222.67	0.44
473.15	2.99998	0.0998	125.71	0.33
473.15	0.20014	0.1	19.35	0.32
473.15	0	0.1	10.45	0.32
473.15	0.99911	0.1001	52.65	0.31
473.15	0.10074	0.1008	15.2	0.32
473.15	0.50434	0.1017	32.4	0.32
473.15	0	0.2	20.17	0.33
473.15	0.19961	0.4998	55.97	0.33
473.15	0	0.5	48.08	0.32
473.15	1.00005	0.5	86.85	0.33
473.15	3.00012	0.5005	154.89	0.38
473.15	0.5004	0.5006	67.92	0.33
473.15	0.10047	0.5039	52.56	0.33
473.15	1.00053	0.9996	126.77	0.37
473.15	0.10021	1	95	0.36
473.15	3.00001	1	189.78	0.43
473.15	0	1.0003	91.46	0.32
473.15	0.20007	1.0005	98.81	0.36
473.15	0.49992	1.0006	109.47	0.36
473.15	1.00608	1.2355	144.87	0.41
473.15	0	3.0001	236.99	0.49
473.15	1.00125	3.0093	263.64	0.51
473.15	0.10007	3.0097	241.24	0.49
473.15	0.2019	3.0098	243.69	0.49
473.15	0.4998	3.0101	251.66	0.5
523.14	1.00005	0.5	100.97	0.39
523.14	0.5004	0.5006	79.81	0.39
523.15	2.99998	0.0998	143.08	0.41
523.15	0.20014	0.1	23.46	0.38
523.15	0.10074	0.1008	18.65	0.38
523.15	0.49992	1.0006	126.46	0.42
523.15	0.4998	3.0101	281.87	0.58
523.15	0	0.1	13.16	0.4
523.15	0.50434	0.1017	39.15	0.38
523.15	0	0.2	24.53	0.4
523.15	0.19961	0.4998	66.34	0.39
523.15	0	0.5	57.59	0.39
523.15	3.00012	0.5005	175.1	0.44
523.15	1.00053	0.9996	145.42	0.43
523.15	0.10021	1	110.48	0.42
523.15	0	1.0003	106.88	0.37
523.15	0.20007	1.0005	114.61	0.42
523.15	1.00608	1.2355	165.52	0.45
523.15	0.10006	3.0097	271.33	0.57
523.15	0.10047	0.5039	62.18	0.39
523.15	0.99911	0.1001	62.52	0.37
523.15	0	3.0001	266.96	0.56
523.15	0.2019	3.0098	273.82	0.57
523.16	1.00125	3.0093	294.81	0.59
523.16	3.00001	1	212.72	0.48

System: sodium chloride + water + magnesium chloride; phases: Liquid
Fixed: Pressure, kPa = 10000
Property: Mass density, kg/m3 (Liquid); method: Vibrating tube method
Temperature, K	Molality, mol/kg of sodium chloride	Molality, mol/kg of magnesium chloride	Mass density, kg/m3	uncertainty
298.15	2.99998	0.0998	114.31	0.37
298.15	0.20014	0.1	15.77	0.26
298.15	0	0.1	7.73	0.26
298.15	0.99911	0.1001	46.17	0.27
298.15	0.50434	0.1017	27.71	0.26
298.15	0.19961	0.4998	45.18	0.28
298.15	0	0.5	37.67	0.27
298.15	1.00005	0.5	73.75	0.31
298.15	3.00012	0.5005	139.59	0.41
298.15	0.5004	0.5006	56.2	0.29
298.15	0.10047	0.5039	41.71	0.27
298.15	1.00053	0.9996	106.91	0.36
298.15	0.10021	1	76.51	0.32
298.15	3.00001	1	168.75	0.47
298.15	0	1.0003	73.26	0.29
298.15	0.20007	1.0005	80.37	0.32
298.15	0.49992	1.0006	90.57	0.34
298.15	1.00608	1.2355	122.56	0.39
298.15	0	3.0001	196.71	0.53
298.15	1.00125	3.0093	225.36	0.59
298.15	0.10007	3.0097	200.41	0.54
298.15	0.2019	3.0098	203.3	0.54
298.15	0.4998	3.0101	211.51	0.56
373.15	0.10021	1	78.83	0.33
373.15	1.00005	0.5	73.56	0.31
373.15	0.99911	0.1001	44.82	0.27
373.15	0.10074	0.1008	12.07	0.27
373.15	0.19961	0.4998	46.21	0.29
373.15	3.00012	0.5005	136.77	0.41
373.15	0.10047	0.5039	42.96	0.28
373.15	3.00001	1	167.11	0.48
373.15	0	1.0003	75.73	0.3
373.15	1.00125	3.0093	229.16	0.6
373.15	0.10007	3.0097	206.32	0.56
373.15	0.2019	3.0098	208.97	0.56
373.15	0.4998	3.0101	217.01	0.58
373.15	2.99998	0.0998	110.89	0.35
373.15	1.00608	1.2355	123.95	0.42
373.15	1.00053	0.9996	107.81	0.37
373.15	0.20007	1.0005	82.55	0.34
373.16	0	0.5	38.98	0.28
373.16	0.49992	1.0006	92.26	0.35
373.16	0.50434	0.1017	27.31	0.27
373.16	0	3.0001	202.75	0.55
373.16	0.5004	0.5006	56.76	0.3
373.16	0.20014	0.1	15.81	0.27
373.16	0	0.1	8.05	0.27
423.15	2.99998	0.0998	115.43	0.37
423.15	0.20014	0.1	16.9	0.29
423.15	0	0.1	8.93	0.29
423.15	0.99911	0.1001	47.33	0.29
423.15	0.50434	0.1017	28.96	0.29
423.15	0	0.2	17.58	0.29
423.15	0.19961	0.4998	49.76	0.31
423.15	0	0.5	42.25	0.3
423.15	1.00005	0.5	78.35	0.33
423.15	3.00012	0.5005	142.49	0.43
423.15	0.5004	0.5006	60.68	0.32
423.15	0.10047	0.5039	46.49	0.31
423.15	1.00053	0.9996	114.65	0.39
423.15	0.10021	1	84.9	0.36
423.15	3.00001	1	174.45	0.5
423.15	0	1.0003	81.55	0.32
423.15	0.20007	1.0005	88.32	0.36
423.15	0.49992	1.0006	98.49	0.37
423.15	1.00608	1.2355	131.27	0.44
423.15	0	3.0001	215.66	0.58
423.15	1.00125	3.0093	241.77	0.64
423.15	0.10007	3.0097	219.09	0.59
423.15	0.4998	3.0101	229.75	0.61
423.15	0.10074	0.1008	13.19	0.29
423.17	0.2019	3.0098	221.79	0.6
473.15	2.99998	0.0998	124.69	0.41
473.15	0.20014	0.1	19.13	0.32
473.15	0	0.1	10.7	0.32
473.15	0.99911	0.1001	52.47	0.32
473.15	0.10074	0.1008	14.99	0.32
473.15	0.50434	0.1017	32.41	0.32
473.15	0	0.2	20	0.33
473.15	0.19961	0.4998	55.49	0.35
473.15	0	0.5	47.96	0.34
473.15	1.00005	0.5	86.05	0.37
473.15	3.00012	0.5005	153.71	0.47
473.15	0.5004	0.5006	67.33	0.35
473.15	0.10047	0.5039	52.08	0.34
473.15	1.00053	0.9996	125.8	0.43
473.15	0.10021	1	94.24	0.4
473.15	3.00001	1	188.42	0.55
473.15	0	1.0003	90.56	0.36
473.15	0.20007	1.0005	98	0.41
473.15	0.49992	1.0006	108.57	0.42
473.15	1.00608	1.2355	143.74	0.49
473.15	0	3.0001	235.13	0.65
473.15	1.00125	3.0093	261.82	0.7
473.15	0.10007	3.0097	239.38	0.65
473.15	0.2019	3.0098	241.77	0.66
473.15	0.4998	3.0101	249.74	0.67
523.14	0.10006	3.0097	267.88	0.75
523.15	0.2019	3.0098	270.34	0.76
523.15	2.99998	0.0998	140.91	0.49
523.15	0.20014	0.1	23	0.38
523.15	0.10074	0.1008	18.3	0.38
523.15	1.00005	0.5	99.32	0.44
523.15	3.00012	0.5005	172.55	0.55
523.15	0.5004	0.5006	78.41	0.42
523.15	3.00001	1	209.76	0.62
523.15	0	3.0001	263.54	0.74
523.15	1.00125	3.0093	291.2	0.8
523.15	0	0.5	56.53	0.4
523.15	1.00053	0.9996	143.16	0.51
523.15	0.99911	0.1001	61.35	0.39
523.15	0.50434	0.1017	38.27	0.39
523.15	0	1.0003	105.09	0.43
523.15	0.4998	3.0101	278.4	0.77
523.16	0.19961	0.4998	65.15	0.41
523.16	0	0.2	24	0.4
523.16	0.10021	1	108.64	0.47
523.16	0.20007	1.0005	112.72	0.47
523.16	0	0.1	12.87	0.39
523.16	0.10047	0.5039	61.08	0.41
523.16	0.49992	1.0006	124.49	0.48
523.16	1.00608	1.2355	163.05	0.55

System: sodium chloride + water + magnesium chloride; phases: Liquid
Fixed: Pressure, kPa = 20000
Property: Mass density, kg/m3 (Liquid); method: Vibrating tube method
Temperature, K	Molality, mol/kg of sodium chloride	Molality, mol/kg of magnesium chloride	Mass density, kg/m3	uncertainty
298.15	2.99998	0.0998	113.6	0.52
298.15	0.20014	0.1	15.62	0.27
298.15	0	0.1	7.68	0.26
298.15	0.99911	0.1001	45.85	0.31
298.15	0.50434	0.1017	27.51	0.28
298.15	0.19961	0.4998	44.83	0.32
298.15	0	0.5	37.37	0.3
298.15	1.00005	0.5	73.25	0.39
298.15	3.00012	0.5005	138.65	0.6
298.15	0.5004	0.5006	55.8	0.34
298.15	0.10047	0.5039	41.41	0.31
298.15	1.00053	0.9996	106.21	0.5
298.15	0.10021	1	76.01	0.4
298.15	3.00001	1	167.72	0.71
298.15	0	1.0003	72.84	0.38
298.15	0.20007	1.0005	79.82	0.41
298.15	0.49992	1.0006	89.97	0.44
298.15	1.00608	1.2355	121.76	0.55
298.15	0	3.0001	195.55	0.82
298.15	1.00125	3.0093	224.03	0.92
298.15	0.10007	3.0097	199.14	0.83
298.15	0.2019	3.0098	202.02	0.84
298.15	0.4998	3.0101	210.18	0.87
373.14	0.19961	0.4998	45.84	0.33
373.14	0.10047	0.5039	42.65	0.32
373.14	0	0.5	38.76	0.31
373.14	0.5004	0.5006	56.33	0.35
373.14	0.20014	0.1	15.65	0.27
373.15	3.00001	1	166.2	0.71
373.15	0.20007	1.0005	82	0.43
373.15	1.00053	0.9996	107.11	0.5
373.15	1.00005	0.5	73.09	0.39
373.15	2.99998	0.0998	110.23	0.5
373.15	0.99911	0.1001	44.47	0.31
373.15	0.10074	0.1008	11.92	0.27
373.15	3.00012	0.5005	135.92	0.6
373.15	0	1.0003	75.18	0.39
373.15	1.00608	1.2355	123.18	0.58
373.15	1.00125	3.0093	227.85	0.94
373.15	0.10007	3.0097	205.12	0.85
373.15	0.2019	3.0098	207.76	0.86
373.15	0.4998	3.0101	215.7	0.89
373.15	0	0.1	8.06	0.27
373.15	0.10021	1	78.33	0.42
373.15	0.49992	1.0006	91.65	0.46
373.16	0.50434	0.1017	27.22	0.28
373.16	0	3.0001	201.54	0.84
423.14	1.00125	3.0093	239.87	0.99
423.15	2.99998	0.0998	114.34	0.53
423.15	0.20014	0.1	16.69	0.29
423.15	0	0.1	8.77	0.29
423.15	0.99911	0.1001	46.83	0.34
423.15	0.10074	0.1008	13	0.29
423.15	0.50434	0.1017	28.66	0.31
423.15	0	0.2	17.33	0.3
423.15	0.19961	0.4998	49.26	0.35
423.15	0	0.5	41.85	0.33
423.15	1.00005	0.5	77.61	0.42
423.15	3.00012	0.5005	141.31	0.62
423.15	0.5004	0.5006	60.03	0.37
423.15	0.10047	0.5039	45.99	0.34
423.15	1.00053	0.9996	113.56	0.53
423.15	0.10021	1	84.01	0.45
423.15	3.00001	1	173.05	0.74
423.15	0.20007	1.0005	87.38	0.46
423.15	0.49992	1.0006	97.45	0.49
423.15	1.00608	1.2355	130.12	0.6
423.15	0	3.0001	213.81	0.89
423.15	0.10007	3.0097	217.36	0.91
423.15	0	1.0003	80.74	0.42
423.15	0.4998	3.0101	227.97	0.95
423.15	0.2019	3.0098	220	0.92
473.15	2.99998	0.0998	122.99	0.57
473.15	0.20014	0.1	18.73	0.33
473.15	0	0.1	10.13	0.32
473.15	0.99911	0.1001	51.29	0.37
473.15	0.10074	0.1008	14.72	0.32
473.15	0.50434	0.1017	31.48	0.34
473.15	0	0.2	19.59	0.33
473.15	0.19961	0.4998	54.48	0.39
473.15	0	0.5	46.81	0.37
473.15	1.00005	0.5	84.73	0.47
473.15	3.00012	0.5005	151.66	0.68
473.15	0.5004	0.5006	66.25	0.42
473.15	0.10047	0.5039	51.07	0.38
473.15	1.00053	0.9996	123.96	0.59
473.15	0.10021	1	92.78	0.5
473.15	3.00001	1	185.98	0.81
473.15	0	1.0003	89.15	0.46
473.15	0.20007	1.0005	96.49	0.51
473.15	0.49992	1.0006	106.91	0.54
473.15	1.00608	1.2355	141.74	0.67
473.15	0	3.0001	227.42	0.96
473.15	1.00125	3.0093	258.69	1.08
473.15	0.10007	3.0097	236.54	1
473.15	0.2019	3.0098	238.89	1
473.15	0.4998	3.0101	246.75	1.03
523.15	0.2019	3.0098	264.3	1.13
523.15	0.20014	0.1	22.15	0.39
523.15	0.10074	0.1008	17.63	0.38
523.15	0	0.5	54.72	0.44
523.15	3.00012	0.5005	168.14	0.77
523.15	0.10006	3.0097	261.91	1.13
523.15	0.4998	3.0101	272.26	1.16
523.15	0.10047	0.5039	59.13	0.45
523.15	1.00608	1.2355	158.78	0.75
523.15	1.00125	3.0093	284.96	1.21
523.15	2.99998	0.0998	137.14	0.67
523.15	0	0.1	12.36	0.39
523.15	1.00005	0.5	96.42	0.54
523.15	1.00053	0.9996	139.29	0.68
523.15	0.10021	1	105.48	0.58
523.16	3.00001	1	204.78	0.91
523.16	0	1.0003	102.05	0.55
523.16	0.20007	1.0005	109.5	0.59
523.16	0	0.2	23.14	0.4
523.16	0.5004	0.5006	76.05	0.49
523.16	0.49992	1.0006	121	0.63
523.16	0	3.0001	257.62	1.11
523.16	0.19961	0.4998	63.12	0.46
523.16	0.50434	0.1017	37.03	0.4
523.16	0.99911	0.1001	59.38	0.44

System: sodium chloride + water + magnesium chloride; phases: Liquid
Fixed: Pressure, kPa = 40000
Property: Mass density, kg/m3 (Liquid); method: Vibrating tube method
Temperature, K	Molality, mol/kg of sodium chloride	Molality, mol/kg of magnesium chloride	Mass density, kg/m3	uncertainty
298.15	2.99998	0.0998	112.18	0.84
298.15	0.20014	0.1	15.46	0.28
298.15	0	0.1	7.62	0.26
298.15	0.99911	0.1001	45.23	0.42
298.15	0.50434	0.1017	27.19	0.33
298.15	0.19961	0.4998	44.25	0.42
298.15	0	0.5	36.94	0.38
298.15	1.00005	0.5	72.31	0.58
298.15	3.00012	0.5005	137	1.01
298.15	0.5004	0.5006	55.07	0.48
298.15	0.10047	0.5039	40.89	0.39
298.15	1.00053	0.9996	104.79	0.79
298.15	0.10021	1	75.01	0.6
298.15	3.00001	1	165.81	1.2
298.15	0	1.0003	71.84	0.57
298.15	0.20007	1.0005	78.78	0.63
298.15	0.49992	1.0006	88.81	0.69
298.15	1.00608	1.2355	120.23	0.9
298.15	0	3.0001	193.31	1.39
298.15	1.00125	3.0093	221.63	1.59
298.15	0.10007	3.0097	196.93	1.42
298.15	0.2019	3.0098	199.79	1.44
298.15	0.4998	3.0101	207.84	1.49
373.15	1.00608	1.2355	121.74	0.92
373.15	3.00001	1	164.47	1.2
373.15	0.10021	1	77.29	0.62
373.15	1.00053	0.9996	105.83	0.8
373.15	0.20014	0.1	15.43	0.29
373.15	0.99911	0.1001	44	0.41
373.15	0.10074	0.1008	11.86	0.28
373.15	0.19961	0.4998	45.26	0.43
373.15	0	0.5	38.23	0.39
373.15	3.00012	0.5005	134.5	0.99
373.15	0	1.0003	74.24	0.59
373.15	0.20007	1.0005	80.97	0.65
373.15	0.49992	1.0006	90.51	0.71
373.15	1.00125	3.0093	225.42	1.62
373.15	0.10007	3.0097	202.9	1.46
373.15	0.2019	3.0098	205.5	1.48
373.15	0.4998	3.0101	213.48	1.53
373.15	0.50434	0.1017	26.84	0.33
373.15	2.99998	0.0998	109.02	0.82
373.15	0	0.1	7.92	0.27
373.15	1.00005	0.5	72.19	0.58
373.15	0.10047	0.5039	42.08	0.41
373.15	0.5004	0.5006	55.64	0.48
373.16	0	3.0001	199.32	1.44
423.15	2.99998	0.0998	112.77	0.85
423.15	0.20014	0.1	16.53	0.31
423.15	0	0.1	8.66	0.3
423.15	0.99911	0.1001	46.01	0.44
423.15	0.10074	0.1008	12.78	0.3
423.15	0.50434	0.1017	28.25	0.35
423.15	0	0.2	17.06	0.31
423.15	0.19961	0.4998	48.45	0.46
423.15	0	0.5	41.09	0.42
423.15	1.00005	0.5	76.3	0.62
423.15	3.00012	0.5005	139.27	1.03
423.15	0.5004	0.5006	59.02	0.52
423.15	0.10047	0.5039	45.23	0.44
423.15	1.00053	0.9996	111.84	0.85
423.15	0.10021	1	82.64	0.66
423.15	3.00001	1	170.62	1.25
423.15	0	1.0003	79.3	0.63
423.15	0.20007	1.0005	85.97	0.69
423.15	0.49992	1.0006	95.89	0.75
423.15	1.00608	1.2355	128.05	0.96
423.15	0	3.0001	210.76	1.52
423.15	0.10007	3.0097	214.28	1.55
423.15	1.00125	3.0093	236.7	1.7
423.15	0.2019	3.0098	216.89	1.56
423.16	0.4998	3.0101	224.84	1.62
473.15	2.99998	0.0998	120.06	0.91
473.15	0.20014	0.1	18.13	0.34
473.15	0	0.1	9.72	0.33
473.15	0.99911	0.1001	49.9	0.48
473.15	0.10074	0.1008	14.22	0.33
473.15	0.50434	0.1017	30.56	0.39
473.15	0	0.2	18.94	0.35
473.15	0.19961	0.4998	52.97	0.51
473.15	0	0.5	45.43	0.46
473.15	1.00005	0.5	82.54	0.68
473.15	3.00012	0.5005	148.29	1.11
473.15	0.5004	0.5006	64.35	0.57
473.15	0.10047	0.5039	49.7	0.49
473.15	1.00053	0.9996	120.83	0.93
473.15	0.10021	1	90.29	0.73
473.15	3.00001	1	182.02	1.34
473.15	0	1.0003	86.69	0.7
473.15	0.20007	1.0005	93.91	0.76
473.15	0.49992	1.0006	104.18	0.82
473.15	1.00608	1.2355	138.28	1.05
473.15	0	3.0001	227.17	1.65
473.15	1.00125	3.0093	253.5	1.83
473.15	0.10007	3.0097	231.37	1.68
473.15	0.2019	3.0098	233.76	1.7
473.15	0.4998	3.0101	241.56	1.75
523.15	0.20014	0.1	20.82	0.4
523.15	3.00012	0.5005	161.42	1.23
523.15	0	3.0001	248.39	1.83
523.15	0.10006	3.0097	252.62	1.86
523.15	0	0.5	51.87	0.55
523.15	1.00125	3.0093	275.35	2.01
523.15	0.10074	0.1008	16.57	0.39
523.15	0.99911	0.1001	56.36	0.56
523.15	0.4998	3.0101	262.82	1.93
523.15	0.2019	3.0098	255.03	1.88
523.16	3.00001	1	197.07	1.47
523.16	2.99998	0.0998	131.39	1.03
523.16	1.00005	0.5	91.99	0.78
523.16	0.50434	0.1017	35	0.46
523.16	1.00608	1.2355	152.25	1.18
523.16	1.00053	0.9996	133.36	1.05
523.16	0.5004	0.5006	72.44	0.66
523.16	0.49992	1.0006	115.7	0.93
523.16	0.20007	1.0005	104.53	0.86
523.16	0.19961	0.4998	60.03	0.59
523.16	0.10047	0.5039	56.2	0.57
523.16	0	0.1	11.62	0.38
523.16	0.10021	1	100.71	0.84
523.16	0	1.0003	97.41	0.8
523.17	0	0.2	21.82	0.41

System: sodium chloride + water + magnesium chloride; phases: Liquid
Fixed: Pressure, kPa = 70000
Property: Mass density, kg/m3 (Liquid); method: Vibrating tube method
Temperature, K	Molality, mol/kg of sodium chloride	Molality, mol/kg of magnesium chloride	Mass density, kg/m3	uncertainty
298.14	0.19961	0.4998	43.3	0.58
298.15	2.99998	0.0998	110.23	1.33
298.15	0.20014	0.1	15.02	0.32
298.15	0	0.1	7.33	0.27
298.15	0.99911	0.1001	44.19	0.59
298.15	0.50434	0.1017	26.5	0.41
298.15	0	0.5	36.15	0.51
298.15	1.00005	0.5	70.91	0.88
298.15	3.00012	0.5005	134.65	1.61
298.15	0.5004	0.5006	53.97	0.7
298.15	0.10047	0.5039	40.05	0.55
298.15	1.00053	0.9996	103.04	1.25
298.15	0.10021	1	73.57	0.92
298.15	3.00001	1	163.1	1.94
298.15	0	1.0003	70.4	0.87
298.15	0.20007	1.0005	77.23	0.96
298.15	0.49992	1.0006	87.12	1.07
298.15	1.00608	1.2355	118.13	1.42
298.15	0	3.0001	190.29	2.25
298.15	1.00125	3.0093	218.3	2.57
298.15	0.10007	3.0097	193.93	2.29
298.15	0.2019	3.0098	196.69	2.33
298.15	0.4998	3.0101	204.77	2.42
373.15	0.99911	0.1001	43.36	0.57
373.15	0.10074	0.1008	11.66	0.3
373.15	3.00012	0.5005	132.64	1.59
373.15	0	1.0003	73	0.91
373.15	1.00125	3.0093	222.38	2.62
373.15	0.10007	3.0097	199.88	2.36
373.15	0.2019	3.0098	202.52	2.39
373.15	0.4998	3.0101	210.55	2.49
423.15	2.99998	0.0998	110.7	1.34
423.15	0.20014	0.1	16.05	0.35
423.15	0	0.1	8.37	0.31
423.15	0.10074	0.1008	12.5	0.32
423.15	0.50434	0.1017	27.59	0.44
423.15	0	0.2	16.54	0.35
423.15	0.19961	0.4998	47.23	0.64
423.15	0	0.5	40.16	0.57
423.15	1.00005	0.5	74.77	0.93
423.15	3.00012	0.5005	136.75	1.64
423.15	0.5004	0.5006	57.77	0.75
423.15	0.10047	0.5039	44.11	0.61
423.15	1.00053	0.9996	109.57	1.33
423.15	0.10021	1	80.78	1.01
423.15	3.00001	1	167.73	2
423.15	0.20007	1.0005	84.11	1.04
423.15	0.49992	1.0006	93.9	1.15
423.15	1.00608	1.2355	125.66	1.52
423.15	0	3.0001	207.02	2.45
473.15	2.99998	0.0998	117.03	1.43
473.15	0.20014	0.1	17.46	0.38
473.15	0	0.1	9.31	0.34
473.15	0.99911	0.1001	48.32	0.67
473.15	0.10074	0.1008	13.67	0.36
473.15	0.50434	0.1017	29.5	0.48
473.15	0	0.2	18.23	0.39
473.15	0.19961	0.4998	51.29	0.7
473.15	0	0.5	43.89	0.63
473.15	1.00005	0.5	80.15	1.01
473.15	3.00012	0.5005	144.55	1.74
473.15	0.5004	0.5006	62.45	0.82
473.15	0.10047	0.5039	48.07	0.67
473.15	1.00053	0.9996	117.61	1.44
473.15	0.10021	1	87.63	1.1
473.15	3.00001	1	177.77	2.13
473.15	0	1.0003	84.17	1.05
473.15	0.20007	1.0005	91.21	1.14
473.15	0.49992	1.0006	101.21	1.25
473.15	1.00608	1.2355	134.66	1.63
473.15	0	3.0001	221.66	2.63
473.15	1.00125	3.0093	247.22	2.93
473.15	0.10007	3.0097	225.76	2.68
473.15	0.2019	3.0098	228.16	2.71
473.15	0.4998	3.0101	235.83	2.8
