Measured thermophysical data. Experimental Measurement and Modeling of the Solubility of Biotin in Six Pure Solvents at Temperatures from 298.15 K to 333.85 K
Source: J. Chem. Eng. Data, 2014, 10.1021/je500787x
Compound 1: D(+)-Biotin, C10H16N2O3S, InChI=1S/C10H16N2O3S/c13-8(14)4-2-1-3-7-9-6(5-16-7)11-10(15)12-9/h6-7,9H,1-5H2,(H,13,14)(H2,11,12,15)/t6-,7-,9-/m0/s1, purity 99.7%
Compound 2: methanol, CH4O, InChI=1S/CH4O/c1-2/h2H,1H3, purity 99.5%
Compound 3: ethanol, C2H6O, InChI=1S/C2H6O/c1-2-3/h3H,2H2,1H3, purity 99.7%
Compound 4: acetic acid, C2H4O2, InChI=1S/C2H4O2/c1-2(3)4/h1H3,(H,3,4), purity 99.5%
Compound 5: dimethylformamide, C3H7NO, InChI=1S/C3H7NO/c1-4(2)3-5/h3H,1-2H3, purity 99.5%
Compound 6: dimethyl sulfoxide, C2H6OS, InChI=1S/C2H6OS/c1-4(2)3/h1-2H3, purity 99%
Compound 7: water, H2O, InChI=1S/H2O/h1H2

System: D(+)-Biotin + methanol; phases: Liquid, Crystal
Fixed: Pressure, kPa = 100
Property: Mole fraction of D(+)-Biotin (Liquid); method: laser monitoring dynamic technique
Temperature, K	Mole fraction of D(+)-Biotin	uncertainty
298.15	6.919e-05	1.4e-06
302.75	9.372e-05	1.89e-06
308.05	0.00014306	2.89e-06
313.25	0.00020824	4.2e-06
317.85	0.0002982	6.02e-06
323.55	0.00045967	9.27e-06
327.65	0.00060056	1.211e-05
332.95	0.00086205	1.737e-05

System: D(+)-Biotin + ethanol; phases: Liquid, Crystal
Fixed: Pressure, kPa = 100
Property: Mole fraction of D(+)-Biotin (Liquid); method: laser monitoring dynamic technique
Temperature, K	Mole fraction of D(+)-Biotin	uncertainty
298.15	6.35e-05	1.28e-06
302.95	8.687e-05	1.75e-06
308.85	0.00013268	2.67e-06
313.95	0.00017563	3.54e-06
318.45	0.00022999	4.63e-06
323.55	0.00030935	6.23e-06
329.35	0.00044194	8.9e-06
333.85	0.0005817	1.172e-05

System: D(+)-Biotin + acetic acid; phases: Liquid, Crystal
Fixed: Pressure, kPa = 100
Property: Mole fraction of D(+)-Biotin (Liquid); method: laser monitoring dynamic technique
Temperature, K	Mole fraction of D(+)-Biotin	uncertainty
298.15	0.0022568	4.54e-05
303.15	0.0028349	5.71e-05
308.15	0.0035003	7.05e-05
313.25	0.004243	8.54e-05
317.95	0.0050934	0.0001025
323.45	0.0064613	0.0001301
327.85	0.0076614	0.0001542
333.25	0.0092241	0.0001856

System: D(+)-Biotin + dimethylformamide; phases: Liquid, Crystal
Fixed: Pressure, kPa = 100
Property: Mole fraction of D(+)-Biotin (Liquid); method: laser monitoring dynamic technique
Temperature, K	Mole fraction of D(+)-Biotin	uncertainty
298.65	0.0035632	7.17e-05
303.25	0.0041288	8.31e-05
308.15	0.0049686	0.0001
313.15	0.0060287	0.0001214
318.15	0.0074996	0.0001509
323.25	0.0090235	0.0001816
328.15	0.010683	0.000215
333.15	0.012773	0.000257

System: D(+)-Biotin + dimethyl sulfoxide; phases: Liquid, Crystal
Fixed: Pressure, kPa = 100
Property: Mole fraction of D(+)-Biotin (Liquid); method: laser monitoring dynamic technique
Temperature, K	Mole fraction of D(+)-Biotin	uncertainty
298.15	0.037784	0.00076
303.15	0.042481	0.000855
308.15	0.047855	0.000963
313.15	0.052959	0.001065
318.05	0.058192	0.001171
322.75	0.063329	0.001274
327.65	0.068735	0.001383
332.85	0.074762	0.001504

System: D(+)-Biotin + water; phases: Liquid, Crystal
Fixed: Pressure, kPa = 100
Property: Mole fraction of D(+)-Biotin (Liquid); method: laser monitoring dynamic technique
Temperature, K	Mole fraction of D(+)-Biotin	uncertainty
298.15	4.97e-06	1e-07
303.15	8.18e-06	1.7e-07
308.05	1.277e-05	2.6e-07
312.75	2.055e-05	4.2e-07
318.55	3.523e-05	7.1e-07
323.15	5.425e-05	1.1e-06
328.95	9.122e-05	1.84e-06
332.95	0.00012853	2.59e-06
