Measured thermophysical data. Densities and Viscosities of Binary Mixtures Containing Ethyl Formate and 2-Alkanols: Friction Theory and Free Volume Theory
Source: J. Chem. Eng. Data, 2015, 10.1021/je500848q
Compound 1: ethyl methanoate, C3H6O2, InChI=1S/C3H6O2/c1-2-5-3-4/h3H,2H2,1H3, purity 99.5%
Compound 2: propan-2-ol, C3H8O, InChI=1S/C3H8O/c1-3(2)4/h3-4H,1-2H3, purity 99.5%
Compound 3: butan-2-ol, C4H10O, InChI=1S/C4H10O/c1-3-4(2)5/h4-5H,3H2,1-2H3, purity 99.5%
Compound 4: pentan-2-ol, C5H12O, InChI=1S/C5H12O/c1-3-4-5(2)6/h5-6H,3-4H2,1-2H3, purity 99.5%

System: ethyl methanoate; phases: Liquid
Fixed: Pressure, kPa = 100
Property: Mass density, kg/m3 (Liquid); method: VIBTUB:UFactor:6
Temperature, K	Mass density, kg/m3	uncertainty
293.15	916.6	0.6
298.15	910.1	0.6
303.15	903.6	0.6
308.15	897.1	0.6
313.15	890.5	0.6
318.15	883	0.6
323.15	876	0.6

System: ethyl methanoate; phases: Liquid
Fixed: Pressure, kPa = 100
Property: Viscosity, Pa*s (Liquid); method: Concentric cylinders viscometry
Temperature, K	Viscosity, Pa*s	uncertainty
293.15	0.000402	9e-06
298.15	0.00038	9e-06
303.15	0.00036	9e-06
308.15	0.000345	8e-06
313.15	0.000328	8e-06
318.15	0.00031	8e-06
323.15	0.00029	7e-06

System: propan-2-ol; phases: Liquid
Fixed: Pressure, kPa = 100
Property: Mass density, kg/m3 (Liquid); method: VIBTUB:UFactor:6
Temperature, K	Mass density, kg/m3	uncertainty
293.15	785.4	0.8
298.15	781.1	0.8
303.15	776.8	0.8
308.15	772.4	0.8
313.15	768	0.8
318.15	763.4	0.8
323.15	758.8	0.8

System: propan-2-ol; phases: Liquid
Fixed: Pressure, kPa = 100
Property: Viscosity, Pa*s (Liquid); method: Concentric cylinders viscometry
Temperature, K	Viscosity, Pa*s	uncertainty
293.15	0.00242	5e-05
298.15	0.00208	4e-05
303.15	0.0018	4e-05
308.15	0.00156	3e-05
313.15	0.00136	3e-05
318.15	0.00119	3e-05
323.15	0.00105	2e-05

System: butan-2-ol; phases: Liquid
Fixed: Pressure, kPa = 100
Property: Mass density, kg/m3 (Liquid); method: VIBTUB:UFactor:6
Temperature, K	Mass density, kg/m3	uncertainty
293.15	806.7	0.7
298.15	802.7	0.7
303.15	798.4	0.7
308.15	794.1	0.8
313.15	789.8	0.8
318.15	785.2	0.8
323.15	780.6	0.8

System: butan-2-ol; phases: Liquid
Fixed: Pressure, kPa = 100
Property: Viscosity, Pa*s (Liquid); method: Concentric cylinders viscometry
Temperature, K	Viscosity, Pa*s	uncertainty
293.15	0.00367	8e-05
298.15	0.00304	6e-05
303.15	0.00254	5e-05
308.15	0.00213	4e-05
313.15	0.0018	4e-05
318.15	0.00154	3e-05
323.15	0.00133	3e-05

System: pentan-2-ol; phases: Liquid
Fixed: Pressure, kPa = 100
Property: Mass density, kg/m3 (Liquid); method: VIBTUB:UFactor:6
Temperature, K	Mass density, kg/m3	uncertainty
293.15	809.3	0.7
298.15	805.3	0.7
303.15	801.2	0.7
308.15	797	0.8
313.15	792.7	0.8
318.15	788.4	0.8
323.15	784	0.8

System: pentan-2-ol; phases: Liquid
Fixed: Pressure, kPa = 100
Property: Viscosity, Pa*s (Liquid); method: Concentric cylinders viscometry
Temperature, K	Viscosity, Pa*s	uncertainty
293.15	0.00397	8e-05
298.15	0.00344	7e-05
303.15	0.00294	6e-05
308.15	0.00248	5e-05
313.15	0.00204	4e-05
318.15	0.00165	3e-05
323.15	0.00129	3e-05

System: propan-2-ol + ethyl methanoate; phases: Liquid
Fixed: Pressure, kPa = 100
Property: Mass density, kg/m3 (Liquid); method: VIBTUB:UFactor:6
Temperature, K	Mole fraction of ethyl methanoate	Mass density, kg/m3	uncertainty
293.15	0	785.4	0.8
293.15	0.0814	795.4	0.8
293.15	0.1589	804.8	0.7
293.15	0.2351	814	0.7
293.15	0.3413	826.8	0.7
293.15	0.4351	838.3	0.7
293.15	0.5587	853.9	0.7
293.15	0.6507	865.7	0.6
293.15	0.7349	877.1	0.6
293.15	0.8498	893.5	0.6
293.15	0.9394	907.1	0.6
293.15	1	916.6	0.6
298.15	0	781.1	0.8
298.15	0.0814	790.7	0.8
298.15	0.1589	799.9	0.7
298.15	0.2351	808.8	0.7
298.15	0.3413	821.5	0.7
298.15	0.4351	832.8	0.7
298.15	0.5587	848.2	0.7
298.15	0.6507	859.9	0.6
298.15	0.7349	871	0.6
298.15	0.8498	887.2	0.6
298.15	0.9394	900.6	0.6
298.15	1	910.1	0.6
303.15	0	776.8	0.8
303.15	0.0814	786.1	0.8
303.15	0.1589	795	0.8
303.15	0.2351	803.8	0.7
303.15	0.3413	816.2	0.7
303.15	0.4351	827.4	0.7
303.15	0.5587	842.5	0.7
303.15	0.6507	854	0.7
303.15	0.7349	865	0.6
303.15	0.8498	880.8	0.6
303.15	0.9394	894	0.6
303.15	1	903.6	0.6
308.15	0	772.4	0.8
308.15	0.0814	781.4	0.8
308.15	0.1589	790.1	0.8
308.15	0.2351	798.8	0.7
308.15	0.3413	811	0.7
308.15	0.4351	822	0.7
308.15	0.5587	836.8	0.7
308.15	0.6507	848	0.7
308.15	0.7349	858.6	0.6
308.15	0.8498	874.1	0.6
308.15	0.9394	887.3	0.6
308.15	1	897.1	0.6
313.15	0	768	0.8
313.15	0.0814	776.6	0.8
313.15	0.1589	785.1	0.8
313.15	0.2351	793.6	0.8
313.15	0.3413	805.7	0.7
313.15	0.4351	816.5	0.7
313.15	0.5587	831.1	0.7
313.15	0.6507	842.1	0.7
313.15	0.7349	852.4	0.7
313.15	0.8498	867.6	0.6
313.15	0.9394	880.8	0.6
313.15	1	890.5	0.6
318.15	0	763.4	0.8
318.15	0.0814	771.8	0.8
318.15	0.1589	780.1	0.8
318.15	0.2351	788.3	0.8
318.15	0.3413	800	0.7
318.15	0.4351	810.5	0.7
318.15	0.5587	824.7	0.7
318.15	0.6507	835.4	0.7
318.15	0.7349	845.6	0.7
318.15	0.8498	860.4	0.6
318.15	0.9394	873.5	0.6
318.15	1	883	0.6
323.15	0	758.8	0.8
323.15	0.0814	766.7	0.8
323.15	0.1589	774.8	0.8
323.15	0.2351	782.8	0.8
323.15	0.3413	794.4	0.8
323.15	0.4351	804.8	0.7
323.15	0.5587	818.6	0.7
323.15	0.6507	829.2	0.7
323.15	0.7349	839.1	0.7
323.15	0.8498	853.8	0.7
323.15	0.9394	866.7	0.6
323.15	1	876	0.6

System: propan-2-ol + ethyl methanoate; phases: Liquid
Fixed: Pressure, kPa = 100
Property: Viscosity, Pa*s (Liquid); method: Concentric cylinders viscometry
Temperature, K	Mole fraction of ethyl methanoate	Viscosity, Pa*s	uncertainty
293.15	0	0.00242	5e-05
293.15	0.0814	0.00177	4e-05
293.15	0.1589	0.00133	3e-05
293.15	0.2351	0.00106	2e-05
293.15	0.3413	0.00082	2e-05
293.15	0.4351	0.00068	2e-05
293.15	0.5587	0.00057	1e-05
293.15	0.6507	0.00052	1e-05
293.15	0.7349	0.00048	1e-05
293.15	0.8498	0.00044	1e-05
293.15	0.9394	0.00042	1e-05
293.15	1	0.000402	9e-06
298.15	0	0.00208	4e-05
298.15	0.0814	0.00153	3e-05
298.15	0.1589	0.00118	3e-05
298.15	0.2351	0.00095	2e-05
298.15	0.3413	0.00076	2e-05
298.15	0.4351	0.00064	2e-05
298.15	0.5587	0.00054	1e-05
298.15	0.6507	0.00049	1e-05
298.15	0.7349	0.00046	1e-05
298.15	0.8498	0.00042	1e-05
298.15	0.9394	0.0004	1e-05
298.15	1	0.00038	9e-06
303.15	0	0.0018	4e-05
303.15	0.0814	0.00135	3e-05
303.15	0.1589	0.00106	2e-05
303.15	0.2351	0.00087	2e-05
303.15	0.3413	0.0007	2e-05
303.15	0.4351	0.00059	1e-05
303.15	0.5587	0.00051	1e-05
303.15	0.6507	0.00046	1e-05
303.15	0.7349	0.00043	1e-05
303.15	0.8498	0.0004	1e-05
303.15	0.9394	0.00038	1e-05
303.15	1	0.00036	9e-06
308.15	0	0.00156	3e-05
308.15	0.0814	0.00119	3e-05
308.15	0.1589	0.00095	2e-05
308.15	0.2351	0.00079	2e-05
308.15	0.3413	0.00065	2e-05
308.15	0.4351	0.00056	1e-05
308.15	0.5587	0.00048	1e-05
308.15	0.6507	0.00044	1e-05
308.15	0.7349	0.00041	1e-05
308.15	0.8498	0.00038	1e-05
308.15	0.9394	0.00036	1e-05
308.15	1	0.000345	8e-06
313.15	0	0.00136	3e-05
313.15	0.0814	0.00105	2e-05
313.15	0.1589	0.00085	2e-05
313.15	0.2351	0.00071	2e-05
313.15	0.3413	0.00059	1e-05
313.15	0.4351	0.00052	1e-05
313.15	0.5587	0.00045	1e-05
313.15	0.6507	0.00041	1e-05
313.15	0.7349	0.00039	1e-05
313.15	0.8498	0.00036	1e-05
313.15	0.9394	0.00034	1e-05
313.15	1	0.000328	8e-06
318.15	0	0.00119	3e-05
318.15	0.0814	0.00092	2e-05
318.15	0.1589	0.00075	2e-05
318.15	0.2351	0.00064	2e-05
318.15	0.3413	0.00054	1e-05
318.15	0.4351	0.00048	1e-05
318.15	0.5587	0.00042	1e-05
318.15	0.6507	0.00039	1e-05
318.15	0.7349	0.00036	1e-05
318.15	0.8498	0.00034	1e-05
318.15	0.9394	0.00032	1e-05
318.15	1	0.00031	8e-06
323.15	0	0.00105	2e-05
323.15	0.0814	0.00081	2e-05
323.15	0.1589	0.00067	2e-05
323.15	0.2351	0.00057	1e-05
323.15	0.3413	0.00049	1e-05
323.15	0.4351	0.00044	1e-05
323.15	0.5587	0.00038	1e-05
323.15	0.6507	0.00036	1e-05
323.15	0.7349	0.00033	1e-05
323.15	0.8498	0.00031	1e-05
323.15	0.9394	0.0003	1e-05
323.15	1	0.00029	7e-06

System: butan-2-ol + ethyl methanoate; phases: Liquid
Fixed: Pressure, kPa = 100
Property: Mass density, kg/m3 (Liquid); method: VIBTUB:UFactor:6
Temperature, K	Mole fraction of ethyl methanoate	Mass density, kg/m3	uncertainty
293.15	0	806.7	0.7
293.15	0.0818	813	0.7
293.15	0.1617	819.5	0.7
293.15	0.2415	826.3	0.7
293.15	0.3497	836.2	0.7
293.15	0.4398	845.2	0.7
293.15	0.5611	858.2	0.6
293.15	0.65	868.5	0.6
293.15	0.7399	879.8	0.6
293.15	0.85	894.6	0.6
293.15	0.9396	907.5	0.6
293.15	1	916.6	0.6
298.15	0	802.7	0.7
298.15	0.0818	808.8	0.7
298.15	0.1617	814.9	0.7
298.15	0.2415	821.5	0.7
298.15	0.3497	831.1	0.7
298.15	0.4398	839.9	0.7
298.15	0.5611	852.7	0.7
298.15	0.65	862.8	0.6
298.15	0.7399	873.8	0.6
298.15	0.85	888.4	0.6
298.15	0.9396	901.2	0.6
298.15	1	910.1	0.6
303.15	0	798.4	0.7
303.15	0.0818	804.2	0.7
303.15	0.1617	810.2	0.7
303.15	0.2415	816.6	0.7
303.15	0.3497	826.1	0.7
303.15	0.4398	834.6	0.7
303.15	0.5611	847.1	0.7
303.15	0.65	857.1	0.7
303.15	0.7399	867.9	0.6
303.15	0.85	882.2	0.6
303.15	0.9396	894.8	0.6
303.15	1	903.6	0.6
308.15	0	794.1	0.8
308.15	0.0818	799.6	0.7
308.15	0.1617	805.5	0.7
308.15	0.2415	811.8	0.7
308.15	0.3497	820.9	0.7
308.15	0.4398	829.3	0.7
308.15	0.5611	841.5	0.7
308.15	0.65	851.3	0.7
308.15	0.7399	862	0.6
308.15	0.85	876	0.6
308.15	0.9396	888.3	0.6
308.15	1	897.1	0.6
313.15	0	789.8	0.8
313.15	0.0818	795.1	0.8
313.15	0.1617	800.7	0.7
313.15	0.2415	806.8	0.7
313.15	0.3497	815.8	0.7
313.15	0.4398	824	0.7
313.15	0.5611	835.9	0.7
313.15	0.65	845.4	0.7
313.15	0.7399	855.9	0.7
313.15	0.85	869.8	0.6
313.15	0.9396	881.8	0.6
313.15	1	890.5	0.6
318.15	0	785.2	0.8
318.15	0.0818	790.3	0.8
318.15	0.1617	795.7	0.8
318.15	0.2415	801.5	0.7
318.15	0.3497	810.2	0.7
318.15	0.4398	818.1	0.7
318.15	0.5611	829.7	0.7
318.15	0.65	839	0.7
318.15	0.7399	849.2	0.7
318.15	0.85	862.8	0.6
318.15	0.9396	874.5	0.6
318.15	1	883	0.6
323.15	0	780.6	0.8
323.15	0.0818	785.4	0.8
323.15	0.1617	790.6	0.8
323.15	0.2415	796.3	0.8
323.15	0.3497	804.8	0.7
323.15	0.4398	812.5	0.7
323.15	0.5611	823.8	0.7
323.15	0.65	832.8	0.7
323.15	0.7399	842.9	0.7
323.15	0.85	856.2	0.7
323.15	0.9396	867.9	0.6
323.15	1	876	0.6

System: butan-2-ol + ethyl methanoate; phases: Liquid
Fixed: Pressure, kPa = 100
Property: Viscosity, Pa*s (Liquid); method: Concentric cylinders viscometry
Temperature, K	Mole fraction of ethyl methanoate	Viscosity, Pa*s	uncertainty
293.15	0	0.00367	8e-05
293.15	0.0818	0.00241	5e-05
293.15	0.1617	0.00174	4e-05
293.15	0.2415	0.00135	3e-05
293.15	0.3497	0.00104	2e-05
293.15	0.4398	0.00086	2e-05
293.15	0.5611	0.00069	2e-05
293.15	0.65	0.00059	1e-05
293.15	0.7399	0.00053	1e-05
293.15	0.85	0.00048	1e-05
293.15	0.9396	0.00044	1e-05
293.15	1	0.000402	9e-06
298.15	0	0.00304	6e-05
298.15	0.0818	0.00203	4e-05
298.15	0.1617	0.00151	3e-05
298.15	0.2415	0.0012	3e-05
298.15	0.3497	0.00094	2e-05
298.15	0.4398	0.00078	2e-05
298.15	0.5611	0.00062	1e-05
298.15	0.65	0.00055	1e-05
298.15	0.7399	0.0005	1e-05
298.15	0.85	0.00045	1e-05
298.15	0.9396	0.00042	1e-05
298.15	1	0.00038	1e-05
303.15	0	0.00254	5e-05
303.15	0.0818	0.00174	4e-05
303.15	0.1617	0.00132	3e-05
303.15	0.2415	0.00107	2e-05
303.15	0.3497	0.00084	2e-05
303.15	0.4398	0.00071	2e-05
303.15	0.5611	0.00058	1e-05
303.15	0.65	0.00051	1e-05
303.15	0.7399	0.00047	1e-05
303.15	0.85	0.00043	1e-05
303.15	0.9396	0.0004	1e-05
303.15	1	0.00036	1e-05
308.15	0	0.00213	4e-05
308.15	0.0818	0.0015	3e-05
308.15	0.1617	0.00117	3e-05
308.15	0.2415	0.00096	2e-05
308.15	0.3497	0.00077	2e-05
308.15	0.4398	0.00066	2e-05
308.15	0.5611	0.00055	1e-05
308.15	0.65	0.00049	1e-05
308.15	0.7399	0.00045	1e-05
308.15	0.85	0.00041	1e-05
308.15	0.9396	0.00038	1e-05
308.15	1	0.000345	8e-06
313.15	0	0.0018	4e-05
313.15	0.0818	0.0013	3e-05
313.15	0.1617	0.00102	2e-05
313.15	0.2415	0.00085	2e-05
313.15	0.3497	0.00071	2e-05
313.15	0.4398	0.00061	1e-05
313.15	0.5611	0.00051	1e-05
313.15	0.65	0.00046	1e-05
313.15	0.7399	0.00042	1e-05
313.15	0.85	0.00039	1e-05
313.15	0.9396	0.00036	1e-05
313.15	1	0.000328	8e-06
318.15	0	0.00154	3e-05
318.15	0.0818	0.00113	2e-05
318.15	0.1617	0.0009	2e-05
318.15	0.2415	0.00077	2e-05
318.15	0.3497	0.00065	2e-05
318.15	0.4398	0.00057	1e-05
318.15	0.5611	0.00048	1e-05
318.15	0.65	0.00043	1e-05
318.15	0.7399	0.00039	1e-05
318.15	0.85	0.00036	1e-05
318.15	0.9396	0.00034	1e-05
318.15	1	0.00031	1e-05
323.15	0	0.00133	3e-05
323.15	0.0818	0.001	2e-05
323.15	0.1617	0.00082	2e-05
323.15	0.2415	0.00072	2e-05
323.15	0.3497	0.00061	1e-05
323.15	0.4398	0.00055	1e-05
323.15	0.5611	0.00047	1e-05
323.15	0.65	0.00042	1e-05
323.15	0.7399	0.00038	1e-05
323.15	0.85	0.00035	1e-05
323.15	0.9396	0.00032	1e-05
323.15	1	0.00029	1e-05

System: ethyl methanoate + pentan-2-ol; phases: Liquid
Fixed: Pressure, kPa = 100
Property: Mass density, kg/m3 (Liquid); method: VIBTUB:UFactor:6
Temperature, K	Mole fraction of ethyl methanoate	Mass density, kg/m3	uncertainty
293.15	0	809.3	0.7
293.15	0.0826	814.4	0.7
293.15	0.1603	819.6	0.7
293.15	0.2396	825.4	0.7
293.15	0.3504	834.5	0.7
293.15	0.4402	842.6	0.7
293.15	0.5595	854.7	0.7
293.15	0.6497	865	0.6
293.15	0.74	876.4	0.6
293.15	0.8501	892	0.6
293.15	0.9381	906	0.6
293.15	1	916.6	0.6
298.15	0	805.3	0.7
298.15	0.0826	810.3	0.7
298.15	0.1603	815.4	0.7
298.15	0.2396	821	0.7
298.15	0.3504	829.7	0.7
298.15	0.4402	837.6	0.7
298.15	0.5595	849.4	0.7
298.15	0.6497	859.4	0.6
298.15	0.74	870.4	0.6
298.15	0.8501	885.7	0.6
298.15	0.9381	899.4	0.6
298.15	1	910.1	0.6
303.15	0	801.2	0.7
303.15	0.0826	806	0.7
303.15	0.1603	811	0.7
303.15	0.2396	816.5	0.7
303.15	0.3504	825	0.7
303.15	0.4402	832.6	0.7
303.15	0.5595	844	0.7
303.15	0.6497	853.7	0.7
303.15	0.74	864.6	0.6
303.15	0.8501	879.6	0.6
303.15	0.9381	893	0.6
303.15	1	903.6	0.6
308.15	0	797	0.8
308.15	0.0826	801.7	0.7
308.15	0.1603	806.5	0.7
308.15	0.2396	811.8	0.7
308.15	0.3504	820	0.7
308.15	0.4402	827.5	0.7
308.15	0.5595	838.7	0.7
308.15	0.6497	848.1	0.7
308.15	0.74	858.7	0.6
308.15	0.8501	873.4	0.6
308.15	0.9381	886.7	0.6
308.15	1	897.1	0.6
313.15	0	792.7	0.8
313.15	0.0826	797.3	0.8
313.15	0.1603	802	0.7
313.15	0.2396	807.2	0.7
313.15	0.3504	815.2	0.7
313.15	0.4402	822.4	0.7
313.15	0.5595	833.2	0.7
313.15	0.6497	842.4	0.7
313.15	0.74	852.9	0.7
313.15	0.8501	867.2	0.6
313.15	0.9381	880.2	0.6
313.15	1	890.5	0.6
318.15	0	788.4	0.8
318.15	0.0826	792.9	0.8
318.15	0.1603	797.4	0.8
318.15	0.2396	802.3	0.7
318.15	0.3504	809.9	0.7
318.15	0.4402	816.9	0.7
318.15	0.5595	827.3	0.7
318.15	0.6497	836.2	0.7
318.15	0.74	846.2	0.7
318.15	0.8501	860.2	0.6
318.15	0.9381	872.8	0.6
318.15	1	883	0.6
323.15	0	784	0.8
323.15	0.0826	788.3	0.8
323.15	0.1603	792.6	0.8
323.15	0.2396	797.3	0.8
323.15	0.3504	804.7	0.7
323.15	0.4402	811.4	0.7
323.15	0.5595	821.5	0.7
323.15	0.6497	830.2	0.7
323.15	0.74	839.9	0.7
323.15	0.8501	853.6	0.7
323.15	0.9381	866	0.6
323.15	1	876	0.6

System: ethyl methanoate + pentan-2-ol; phases: Liquid
Fixed: Pressure, kPa = 100
Property: Viscosity, Pa*s (Liquid); method: Concentric cylinders viscometry
Temperature, K	Mole fraction of ethyl methanoate	Viscosity, Pa*s	uncertainty
293.15	0	0.00397	8e-05
293.15	0.0826	0.00284	6e-05
293.15	0.1603	0.00216	4e-05
293.15	0.2396	0.00173	4e-05
293.15	0.3504	0.00134	3e-05
293.15	0.4402	0.00112	2e-05
293.15	0.5595	0.00091	2e-05
293.15	0.6497	0.00078	2e-05
293.15	0.74	0.00065	2e-05
293.15	0.8501	0.00052	1e-05
293.15	0.9381	0.00045	1e-05
293.15	1	0.000402	9e-06
298.15	0	0.00344	7e-05
298.15	0.0826	0.0025	5e-05
298.15	0.1603	0.00196	4e-05
298.15	0.2396	0.00157	3e-05
298.15	0.3504	0.00123	3e-05
298.15	0.4402	0.00102	2e-05
298.15	0.5595	0.00085	2e-05
298.15	0.6497	0.00073	2e-05
298.15	0.74	0.0006	1e-05
298.15	0.8501	0.00049	1e-05
298.15	0.9381	0.00043	1e-05
298.15	1	0.00038	1e-05
303.15	0	0.00294	6e-05
303.15	0.0826	0.0022	5e-05
303.15	0.1603	0.00174	4e-05
303.15	0.2396	0.0014	3e-05
303.15	0.3504	0.00111	2e-05
303.15	0.4402	0.00093	2e-05
303.15	0.5595	0.00077	2e-05
303.15	0.6497	0.00067	2e-05
303.15	0.74	0.00057	1e-05
303.15	0.8501	0.00046	1e-05
303.15	0.9381	0.00041	1e-05
303.15	1	0.00036	1e-05
308.15	0	0.00248	5e-05
308.15	0.0826	0.0019	4e-05
308.15	0.1603	0.00153	3e-05
308.15	0.2396	0.00123	3e-05
308.15	0.3504	0.00098	2e-05
308.15	0.4402	0.00084	2e-05
308.15	0.5595	0.0007	2e-05
308.15	0.6497	0.0006	1e-05
308.15	0.74	0.00052	1e-05
308.15	0.8501	0.00043	1e-05
308.15	0.9381	0.00039	1e-05
308.15	1	0.000345	8e-06
313.15	0	0.00204	4e-05
313.15	0.0826	0.0016	3e-05
313.15	0.1603	0.0013	3e-05
313.15	0.2396	0.00105	2e-05
313.15	0.3504	0.00086	2e-05
313.15	0.4402	0.00075	2e-05
313.15	0.5595	0.00063	1e-05
313.15	0.6497	0.00054	1e-05
313.15	0.74	0.00046	1e-05
313.15	0.8501	0.0004	1e-05
313.15	0.9381	0.00036	1e-05
313.15	1	0.000328	8e-06
318.15	0	0.00165	3e-05
318.15	0.0826	0.00132	3e-05
318.15	0.1603	0.00106	2e-05
318.15	0.2396	0.00089	2e-05
318.15	0.3504	0.00073	2e-05
318.15	0.4402	0.00064	2e-05
318.15	0.5595	0.00054	1e-05
318.15	0.6497	0.00047	1e-05
318.15	0.74	0.00041	1e-05
318.15	0.8501	0.00036	1e-05
318.15	0.9381	0.00033	1e-05
318.15	1	0.00031	1e-05
323.15	0	0.00129	3e-05
323.15	0.0826	0.00106	2e-05
323.15	0.1603	0.00084	2e-05
323.15	0.2396	0.0007	2e-05
323.15	0.3504	0.00059	1e-05
323.15	0.4402	0.00053	1e-05
323.15	0.5595	0.00045	1e-05
323.15	0.6497	0.0004	1e-05
323.15	0.74	0.00036	1e-05
323.15	0.8501	0.00033	1e-05
323.15	0.9381	0.00031	1e-05
323.15	1	0.00029	1e-05
