Measured thermophysical data. Phase Equilibria in the Ternary System Hexacosane + Dibenzofuran + Biphenyl: Experimental Data and Prediction with DISQUAC Model
Source: J. Chem. Eng. Data, 2014, 10.1021/je5001389
Compound 1: hexacosane, C26H54, InChI=1S/C26H54/c1-3-5-7-9-11-13-15-17-19-21-23-25-26-24-22-20-18-16-14-12-10-8-6-4-2/h3-26H2,1-2H3, purity 99%
Compound 2: dibenzo[bd]furan, C12H8O, InChI=1S/C12H8O/c1-3-7-11-9(5-1)10-6-2-4-8-12(10)13-11/h1-8H, purity 98%
Compound 3: biphenyl, C12H10, InChI=1S/C12H10/c1-3-7-11(8-4-1)12-9-5-2-6-10-12/h1-10H, purity 99%

System: hexacosane; phases: Crystal 2, Crystal 1, Air at 1 atmosphere
Property: Molar enthalpy of transition or fusion, kJ/mol (Crystal 2); method: DSC
Molar enthalpy of transition or fusion, kJ/mol	uncertainty
36.718	1.019

System: hexacosane; phases: Crystal 1, Liquid, Air at 1 atmosphere
Property: Triple point temperature, K (Crystal 1); method: DTA
Triple point temperature, K	uncertainty
329.21	0.5

System: hexacosane; phases: Crystal 1, Liquid, Air at 1 atmosphere
Property: Molar enthalpy of transition or fusion, kJ/mol (Crystal 1); method: DSC
Molar enthalpy of transition or fusion, kJ/mol	uncertainty
68.345	1.809

System: hexacosane; phases: Crystal 2, Crystal 1, Air at 1 atmosphere
Property: Triple point temperature, K (Crystal 2); method: DTA
Triple point temperature, K	uncertainty
326.4	0.5

System: dibenzo[bd]furan; phases: Crystal, Liquid, Air at 1 atmosphere
Property: Triple point temperature, K (Crystal); method: DTA
Triple point temperature, K	uncertainty
353.87	0.5

System: dibenzo[bd]furan; phases: Crystal, Liquid, Air at 1 atmosphere
Property: Molar enthalpy of transition or fusion, kJ/mol (Crystal); method: DSC
Molar enthalpy of transition or fusion, kJ/mol	uncertainty
22.297	0.665

System: biphenyl; phases: Crystal, Liquid, Air at 1 atmosphere
Property: Triple point temperature, K (Crystal); method: DTA
Triple point temperature, K	uncertainty
340.69	0.5

System: biphenyl; phases: Crystal, Liquid, Air at 1 atmosphere
Property: Molar enthalpy of transition or fusion, kJ/mol (Crystal); method: DSC
Molar enthalpy of transition or fusion, kJ/mol	uncertainty
18.608	0.567

System: dibenzo[bd]furan + hexacosane; phases: Crystal, Crystal 2, Liquid, Air at 1 atmosphere
Property: Eutectic temperature, K (Crystal); method: DTA
Eutectic temperature, K	uncertainty
323.32	0.5

System: dibenzo[bd]furan + hexacosane; phases: Liquid, Crystal
Fixed: Pressure, kPa = 100
Property: Solid-liquid equilibrium temperature, K (Liquid); method: DTA
Mole fraction of hexacosane	Solid-liquid equilibrium temperature, K	uncertainty
0	353.87	1.06
0.0998	348.44	1.06
0.2009	338.9	1.06
0.3001	334.15	1.06
0.4	329.35	1.06
0.5	323.32	1.06

System: dibenzo[bd]furan + hexacosane; phases: Liquid, Crystal 2
Fixed: Pressure, kPa = 100
Property: Solid-liquid equilibrium temperature, K (Liquid); method: DTA
Mole fraction of hexacosane	Solid-liquid equilibrium temperature, K	uncertainty
0.5986	324.37	1.06
0.7	325.47	1.06
0.8101	326.15	1.06
0.8902	326.25	1.06

System: dibenzo[bd]furan + hexacosane; phases: Liquid, Crystal 1
Property: Solid-liquid equilibrium temperature, K (Liquid); method: DTA
Mole fraction of hexacosane	Pressure, kPa	Solid-liquid equilibrium temperature, K	uncertainty
1	100	329.21	1.06

System: biphenyl + hexacosane; phases: Crystal, Crystal 2, Liquid, Air at 1 atmosphere
Property: Eutectic temperature, K (Crystal); method: DTA
Eutectic temperature, K	uncertainty
321.96	0.5

System: biphenyl + hexacosane; phases: Liquid, Crystal
Fixed: Pressure, kPa = 100
Property: Solid-liquid equilibrium temperature, K (Liquid); method: DTA
Mole fraction of hexacosane	Solid-liquid equilibrium temperature, K	uncertainty
0	340.69	1
0.1098	336.94	1
0.2004	333.37	1
0.297	329.54	1
0.4001	321.54	1

System: biphenyl + hexacosane; phases: Liquid, Crystal 2
Fixed: Pressure, kPa = 100
Property: Solid-liquid equilibrium temperature, K (Liquid); method: DTA
Mole fraction of hexacosane	Solid-liquid equilibrium temperature, K	uncertainty
0.4607	323.46	1.06
0.5023	323.78	1.06
0.6008	324.82	1.06
0.7002	325.07	1.06
0.8062	326.22	1.06

System: biphenyl + hexacosane; phases: Liquid, Crystal 1
Fixed: Pressure, kPa = 100
Property: Solid-liquid equilibrium temperature, K (Liquid); method: DTA
Mole fraction of hexacosane	Solid-liquid equilibrium temperature, K	uncertainty
0.9112	328.25	1.06
1	329.21	1.06

System: biphenyl + dibenzo[bd]furan; phases: Crystal, Crystal, Liquid, Air at 1 atmosphere
Property: Eutectic temperature, K (Crystal); method: DTA
Eutectic temperature, K	uncertainty
321.94	0.5

System: biphenyl + dibenzo[bd]furan; phases: Liquid, Crystal
Fixed: Pressure, kPa = 100
Property: Solid-liquid equilibrium temperature, K (Liquid); method: DTA
Mole fraction of dibenzo[bd]furan	Solid-liquid equilibrium temperature, K	uncertainty
0	340.69	1.06
0.1002	335.96	1.06
0.2001	330.89	1.06
0.3001	329.02	1.06
0.4	326.57	1.06
0.5	321.99	1.06

System: biphenyl + dibenzo[bd]furan; phases: Liquid, Crystal
Fixed: Pressure, kPa = 100
Property: Solid-liquid equilibrium temperature, K (Liquid); method: DTA
Mole fraction of dibenzo[bd]furan	Solid-liquid equilibrium temperature, K	uncertainty
0.6	330.47	1.06
0.7	338.11	1.06
0.8002	341.45	1.06
0.9001	346.9	1.06
1	353.87	1.06

System: biphenyl + dibenzo[bd]furan + hexacosane; phases: Liquid, Crystal
Fixed: Pressure, kPa = 100
Fixed: Solvent: Amount ratio of component to other component of binary solvent of dibenzo[bd]furan = 3
Property: Solid-liquid equilibrium temperature, K (Liquid); method: DTA
Mole fraction of biphenyl	Solid-liquid equilibrium temperature, K	uncertainty
0	337.02	1.06
0.049	335.86	1.06
0.1002	333.04	1.06
0.2001	325.91	1.06
0.2901	318.92	1.06

System: biphenyl + dibenzo[bd]furan + hexacosane; phases: Liquid, Crystal
Fixed: Pressure, kPa = 100
Fixed: Solvent: Amount ratio of component to other component of binary solvent of dibenzo[bd]furan = 3
Property: Solid-liquid equilibrium temperature, K (Liquid); method: DTA
Mole fraction of biphenyl	Solid-liquid equilibrium temperature, K	uncertainty
0.4106	321.97	1.06
0.5	323.2	1.06
0.6008	324.62	1.06
0.6902	326.85	1.06
0.8	331.26	1.06
0.9057	336.39	1.06
1	340.69	1.06

System: biphenyl + dibenzo[bd]furan + hexacosane; phases: Liquid, Crystal
Fixed: Pressure, kPa = 100
Fixed: Solvent: Amount ratio of component to other component of binary solvent of dibenzo[bd]furan = 3
Property: Solid-liquid equilibrium temperature, K (Liquid); method: DTA
Mole fraction of biphenyl	Solid-liquid equilibrium temperature, K	uncertainty
0	334.34	1.06
0.049	330.3	1.06
0.1103	326.85	1.06
0.21	322.66	1.06
0.2908	318.92	1.06

System: biphenyl + dibenzo[bd]furan + hexacosane; phases: Liquid, Crystal
Fixed: Pressure, kPa = 100
Fixed: Solvent: Amount ratio of component to other component of binary solvent of dibenzo[bd]furan = 3
Property: Solid-liquid equilibrium temperature, K (Liquid); method: DTA
Mole fraction of biphenyl	Solid-liquid equilibrium temperature, K	uncertainty
0.35	319.61	1.06
0.4	322.13	1.06
0.4948	326.51	1.06
0.6069	333.24	1.06
0.6999	337.23	1.06
0.7998	342.91	1.06
0.9001	348.11	1.06
1	353.87	1.06

System: biphenyl + dibenzo[bd]furan + hexacosane; phases: Liquid, Crystal
Fixed: Pressure, kPa = 100
Fixed: Solvent: Amount ratio of component to other component of binary solvent of dibenzo[bd]furan = 3
Property: Solid-liquid equilibrium temperature, K (Liquid); method: DTA
Mole fraction of biphenyl	Solid-liquid equilibrium temperature, K	uncertainty
0	339.23	1.06
0.057	337.08	1.06
0.1006	335.7	1.06
0.2006	331.28	1.06
0.3105	326.21	1.06
0.3999	321.1	1.06

System: biphenyl + dibenzo[bd]furan + hexacosane; phases: Liquid, Crystal 2
Fixed: Pressure, kPa = 100
Fixed: Solvent: Amount ratio of component to other component of binary solvent of dibenzo[bd]furan = 3
Property: Solid-liquid equilibrium temperature, K (Liquid); method: DTA
Mole fraction of biphenyl	Solid-liquid equilibrium temperature, K	uncertainty
0.4999	322.66	1.06
0.6	323.46	1.06
0.7004	324.1	1.06
0.8109	325.57	1.06
0.8999	326.09	1.06

System: biphenyl + dibenzo[bd]furan + hexacosane; phases: Liquid, Crystal 1
Property: Solid-liquid equilibrium temperature, K (Liquid); method: DTA
Mole fraction of biphenyl	Pressure, kPa	Solvent: Amount ratio of component to other component of binary solvent of dibenzo[bd]furan	Solid-liquid equilibrium temperature, K	uncertainty
1	100	3	329.21	1.06
