Measured thermophysical data. Solubility of Ibuprofen Sodium Dihydrate in Acetone + Water Mixtures: Experimental Measurement and Thermodynamic Modeling
Source: J. Chem. Eng. Data, 2014, 10.1021/je5004093
Compound 1: sodium ibuprofen, C13H17NaO2, InChI=1S/C13H18O2.Na/c1-9(2)8-11-4-6-12(7-5-11)10(3)13(14)15;/h4-7,9-10H,8H2,1-3H3,(H,14,15);/q;+1/p-1, purity 99.8%
Compound 2: sodium 2-(4-isobutylphenyl)propanoate dihydrate, C13H21NaO4, InChI=1S/C13H18O2.Na.2H2O/c1-9(2)8-11-4-6-12(7-5-11)10(3)13(14)15;;;/h4-7,9-10H,8H2,1-3H3,(H,14,15);;2*1H2/q;+1;;/p-1, purity 99.8%
Compound 3: acetone, C3H6O, InChI=1S/C3H6O/c1-3(2)4/h1-2H3, purity 99.5%
Compound 4: water, H2O, InChI=1S/H2O/h1H2

System: acetone + sodium ibuprofen; phases: Liquid, Crystal
Fixed: Pressure, kPa = 101
Property: Mole fraction of sodium ibuprofen (Liquid); method: gravimetric
Temperature, K	Mole fraction of sodium ibuprofen	uncertainty
278.15	3.77e-05	1.5e-06
283.15	4.07e-05	1.6e-06
288.15	4.58e-05	1.8e-06
293.15	4.89e-05	2e-06
298.15	5.59e-05	2.2e-06
303.15	6.19e-05	2.5e-06
308.15	7.52e-05	3e-06
313.15	8.3e-05	3.3e-06

System: acetone + sodium 2-(4-isobutylphenyl)propanoate dihydrate; phases: Liquid, Crystal
Fixed: Pressure, kPa = 101
Property: Mole fraction of sodium 2-(4-isobutylphenyl)propanoate dihydrate (Liquid); method: gravimetric
Temperature, K	Mole fraction of sodium 2-(4-isobutylphenyl)propanoate dihydrate	uncertainty
279.55	0.000253	1e-05
282.35	0.000273	1.1e-05
287.35	0.000305	1.2e-05
292.35	0.000349	1.4e-05
297.25	0.000389	1.6e-05
302.25	0.00045	1.8e-05
307.25	0.000504	2e-05
312.05	0.00062	2.5e-05

System: acetone + water + sodium 2-(4-isobutylphenyl)propanoate dihydrate; phases: Liquid, Crystal
Fixed: Pressure, kPa = 101
Property: Mole fraction of sodium 2-(4-isobutylphenyl)propanoate dihydrate (Liquid); method: gravimetric
Temperature, K	Solvent: Mass fraction of acetone	Mole fraction of sodium 2-(4-isobutylphenyl)propanoate dihydrate	uncertainty
279.55	0.1	0.009364	0.0009
282.35	0.1	0.012316	0.001178
287.35	0.1	0.01427	0.001364
292.35	0.1	0.017901	0.001712
297.25	0.1	0.023238	0.002224
302.25	0.1	0.032987	0.003154
307.25	0.1	0.040052	0.003827
312.05	0.1	0.047728	0.00456
279.55	0.2	0.012116	0.001164
282.35	0.2	0.015089	0.001443
287.35	0.2	0.018318	0.001752
292.35	0.2	0.024461	0.002338
297.25	0.2	0.029426	0.002814
302.25	0.2	0.039989	0.003823
307.25	0.2	0.047927	0.004578
312.05	0.2	0.054013	0.005159
279.55	0.3	0.012979	0.001243
282.35	0.3	0.015715	0.001502
287.35	0.3	0.018796	0.001798
292.35	0.3	0.025926	0.002478
297.25	0.3	0.030056	0.002874
302.25	0.3	0.041286	0.003947
307.25	0.3	0.048922	0.004674
312.05	0.3	0.058234	0.005563
279.55	0.4	0.01375	0.001319
282.35	0.4	0.016412	0.001569
287.35	0.4	0.019077	0.001824
292.35	0.4	0.026496	0.002533
297.25	0.4	0.031829	0.003043
302.25	0.4	0.042208	0.004034
307.25	0.4	0.049787	0.004757
312.05	0.4	0.059575	0.005691
279.55	0.5	0.012047	0.001153
282.35	0.5	0.014387	0.001376
287.35	0.5	0.018045	0.001725
292.35	0.5	0.022633	0.002164
297.25	0.5	0.029341	0.002807
302.25	0.5	0.039079	0.003736
307.25	0.5	0.047226	0.004512
312.05	0.5	0.05378	0.005137
279.55	0.6	0.011194	0.001073
282.35	0.6	0.013129	0.001255
287.35	0.6	0.015373	0.001469
292.35	0.6	0.019667	0.001881
297.25	0.6	0.025621	0.002451
302.25	0.6	0.034914	0.003339
307.25	0.6	0.043609	0.004166
312.05	0.6	0.047925	0.004577
279.55	0.7	0.008241	0.000794
282.35	0.7	0.010599	0.001014
287.35	0.7	0.012628	0.001207
292.35	0.7	0.015402	0.001473
297.25	0.7	0.020324	0.001944
302.25	0.7	0.027533	0.002633
307.25	0.7	0.035573	0.0034
312.05	0.7	0.04188	0.004
279.55	0.8	0.003733	0.000357
282.35	0.8	0.004656	0.000447
287.35	0.8	0.007658	0.000733
292.35	0.8	0.009246	0.000884
297.25	0.8	0.012248	0.001172
302.25	0.8	0.016605	0.001589
307.25	0.8	0.022007	0.002105
312.05	0.8	0.028035	0.002678
279.55	0.9	0.001171	0.000113
282.35	0.9	0.001636	0.000156
287.35	0.9	0.001843	0.000176
292.35	0.9	0.002205	0.000211
297.25	0.9	0.002979	0.000285
302.25	0.9	0.004013	0.000384
307.25	0.9	0.004803	0.00046
312.05	0.9	0.007661	0.000734

System: water + sodium 2-(4-isobutylphenyl)propanoate dihydrate; phases: Liquid, Crystal
Fixed: Pressure, kPa = 101
Property: Mole fraction of sodium 2-(4-isobutylphenyl)propanoate dihydrate (Liquid); method: gravimetric
Temperature, K	Mole fraction of sodium 2-(4-isobutylphenyl)propanoate dihydrate	uncertainty
279.55	0.003831	0.000367
282.35	0.004752	0.000457
287.35	0.007753	0.000744
292.35	0.012189	0.001168
297.25	0.017443	0.001671
302.25	0.025214	0.002413
307.25	0.034323	0.003281
312.05	0.041253	0.003942
