Measured thermophysical data. Vapor Pressure of Triethyl and Tri-n-Propyl Phosphates and Diethyl Malonate
Source: J. Chem. Eng. Data, 2014, 10.1021/je500428d
Compound 1: ethyl phosphate, C6H15O4P, InChI=1S/C6H15O4P/c1-4-8-11(7,9-5-2)10-6-3/h4-6H2,1-3H3, purity 99%
Compound 2: tripropyl phosphate, C9H21O4P, InChI=1S/C9H21O4P/c1-4-7-11-14(10,12-8-5-2)13-9-6-3/h4-9H2,1-3H3, purity 99%
Compound 3: diethyl 1,3-propanedioate, C7H12O4, InChI=1S/C7H12O4/c1-3-10-6(8)5-7(9)11-4-2/h3-5H2,1-2H3, purity 98%

System: ethyl phosphate; phases: Liquid, Gas
Property: Vapor or sublimation pressure, kPa (Liquid); method: Calculated from knudsen effusion weight loss
Temperature, K	Vapor or sublimation pressure, kPa	uncertainty
271.25	0.0012	0.0001
272.25	0.00124	0.0001
275.25	0.00169	0.00015
278.05	0.00222	0.00021
283.15	0.00382	0.00039

System: ethyl phosphate; phases: Liquid, Gas
Property: Vapor or sublimation pressure, kPa (Liquid); method: Transpiration method
Temperature, K	Vapor or sublimation pressure, kPa	uncertainty
289.15	0.00686	0.00033
295.15	0.012	0.0006

System: ethyl phosphate; phases: Liquid, Gas
Property: Vapor or sublimation pressure, kPa (Liquid); method: Rate of evaporation
Temperature, K	Vapor or sublimation pressure, kPa	uncertainty
359.15	0.8	0.383
363.15	1.07	0.43
365.15	1.33	0.562
375.15	2	0.452
378.15	2.67	0.574
389.15	4	0.622
396.15	5.33	0.793
407.15	8	0.992
413.15	10.67	1.215
420.15	13.33	1.51
430.15	20	1.877
440.15	26.66	2.436
452.15	40	3.456
457.15	53.33	4.323
468.15	66.66	5.319
473.15	79.99	6.694
479.15	101.34	7.851
480.15	101.54	7.867

System: tripropyl phosphate; phases: Liquid, Gas
Property: Vapor or sublimation pressure, kPa (Liquid); method: Transpiration method
Temperature, K	Vapor or sublimation pressure, kPa	uncertainty
263.15	1.69e-05	1e-06
273.15	6.03e-05	3.5e-06
283.15	0.000209	1.3e-05
293.15	0.000657	4.3e-05

System: tripropyl phosphate; phases: Liquid, Gas
Property: Vapor or sublimation pressure, kPa (Liquid); method: Rate of evaporation
Temperature, K	Vapor or sublimation pressure, kPa	uncertainty
401.09	1.37	0.458
415.07	2.72	0.502
426.16	4.04	0.673
437.33	6.71	0.907
445.23	9.24	1.128
455.56	13.31	1.432
468.2	20.01	1.892
484.77	33.38	2.771

System: diethyl 1,3-propanedioate; phases: Liquid, Gas
Property: Vapor or sublimation pressure, kPa (Liquid); method: Calculated from knudsen effusion weight loss
Temperature, K	Vapor or sublimation pressure, kPa	uncertainty
265.15	0.00144	0.00013
267.65	0.00189	0.00017
269.05	0.00194	0.00018
270.55	0.00241	0.00023
271.65	0.00255	0.00025
272.85	0.00338	0.00034
274.15	0.00328	0.00033
275.65	0.00436	0.00046
276.75	0.00446	0.00047
277.85	0.00546	0.00059
279.85	0.00637	0.0007
282.85	0.00797	0.0009
284.55	0.00915	0.00106
287.95	0.0123	0.0015

System: diethyl 1,3-propanedioate; phases: Liquid, Gas
Property: Vapor or sublimation pressure, kPa (Liquid); method: Rate of evaporation
Temperature, K	Vapor or sublimation pressure, kPa	uncertainty
346.05	0.71	0.262
346.15	0.68	0.254
347.75	0.79	0.278
348.55	0.84	0.286
348.75	0.77	0.272
350.05	0.89	0.297
351.15	1	0.319
351.65	0.99	0.316
351.85	1	0.319
352.35	1	0.319
352.55	1.07	0.328
353.65	1.12	0.34
353.75	1.15	0.338
354.85	1.23	0.356
354.95	1.29	0.36
356.75	1.35	0.373
356.95	1.39	0.382
359.05	1.61	0.416
361.15	1.76	0.434
363.35	2.01	0.467
366.05	2.27	0.514
370.15	2.73	0.557
374.35	3.35	0.633
378.45	4.04	0.709
384.25	5.27	0.847
389.75	6.64	0.982
394.35	8	1.112
397.65	9.24	1.227
401.45	10.71	1.359
404.15	11.97	1.465
406.35	13.04	1.563
411.65	15.65	1.776
416.15	18.53	2.009
421.95	22.65	2.339
427.05	26.72	2.658
433.35	33.38	3.169
439.05	40.02	3.687
443.15	45.09	4.063
447.85	52.9	4.714
452.05	60.02	5.262
455.65	66.93	5.836
462.15	79.97	6.867
463.15	87.94	7.477
465.55	88.03	7.485
469.05	100.81	8.53
469.35	101.51	8.549
469.55	93.29	7.932
470.25	103.38	8.707
470.45	104.22	8.777
470.65	103.34	8.703
471.25	104.15	8.772
