Measured thermophysical data. Measurements of Density, Viscosity, and Vapor Pressure for 1,1,1-Trifluoro-2,3-dichloropropane
Source: J. Chem. Eng. Data, 2015, 10.1021/je5010593
Compound 1: 2,3-dichloro-1,1,1-trifluoropropane, C3H3Cl2F3, InChI=1S/C3H3Cl2F3/c4-1-2(5)3(6,7)8/h2H,1H2, purity 99.9%

System: 2,3-dichloro-1,1,1-trifluoropropane; phases: Liquid
Fixed: Pressure, kPa = 101.325
Property: Mass density, kg/m3 (Liquid); method: Vibrating tube method
Temperature, K	Mass density, kg/m3	uncertainty
273.15	1500.8	0.5
275.15	1496.8	0.5
277.15	1493.1	0.5
279.15	1489.3	0.5
281.15	1485.3	0.5
283.15	1481.3	0.5
285.15	1477.6	0.5
287.15	1473.9	0.5
289.15	1470.1	0.5
291.15	1466.3	0.5
293.15	1462.3	0.5
295.15	1458.4	0.5
297.15	1454.5	0.5
299.15	1450.6	0.5
301.15	1446.6	0.5
303.15	1442.7	0.5
305.15	1438.7	0.5
307.15	1434.7	0.5
309.15	1430.8	0.5
311.15	1426.8	0.5
313.15	1422.8	0.5
315.15	1418.8	0.5
317.15	1414.8	0.5
319.15	1410.8	0.5
321.15	1406.7	0.5
323.15	1402.7	0.5
325.15	1398.6	0.5
327.15	1394.5	0.5
329.15	1390.4	0.5
331.15	1386.3	0.5
333.15	1382.3	0.5

System: 2,3-dichloro-1,1,1-trifluoropropane; phases: Liquid
Fixed: Pressure, kPa = 101.325
Property: Viscosity, Pa*s (Liquid); method: CONCYL:UFactor:2
Temperature, K	Viscosity, Pa*s	uncertainty
273.15	0.001174	1.5e-05
275.15	0.001136	1.5e-05
277.15	0.001097	1.5e-05
279.15	0.001063	1.4e-05
281.15	0.001028	1.4e-05
283.15	0.000997	1.4e-05
285.15	0.000967	1.4e-05
287.15	0.000937	1.4e-05
289.15	0.000911	1.4e-05
291.15	0.000882	1.3e-05
293.15	0.000855	1.3e-05
295.15	0.000829	1.3e-05
297.15	0.000804	1.3e-05
299.15	0.000782	1.3e-05
301.15	0.000761	1.3e-05
303.15	0.000738	1.3e-05
305.15	0.000715	1.3e-05
307.15	0.000693	1.3e-05
309.15	0.000674	1.2e-05
311.15	0.000656	1.2e-05
313.15	0.000641	1.2e-05
315.15	0.000626	1.2e-05
317.15	0.00061	1.2e-05
319.15	0.000593	1.2e-05
321.15	0.000578	1.2e-05
323.15	0.000567	1.2e-05
325.15	0.000556	1.2e-05
327.15	0.000545	1.2e-05
329.15	0.000533	1.2e-05
331.15	0.000521	1.2e-05
333.15	0.000511	1.2e-05

System: 2,3-dichloro-1,1,1-trifluoropropane; phases: Liquid, Gas
Property: Vapor or sublimation pressure, kPa (Liquid); method: ISOPVT
Temperature, K	Vapor or sublimation pressure, kPa	uncertainty
293.59	19	5
295.22	20	5
297.85	22	5
299.71	24	5
301.48	25	5
302.81	26	5
304.77	28	5
306.67	30	5
308.94	32	5
310.84	35	5
312.83	37	5
314.86	39	5
316.73	42	5
318.85	45	5
320.87	48	5
322.92	51	5
324.95	54	5
326.95	58	5
327.71	60	5
328.96	61	5
330.96	65	5
332.97	69	5
334.96	73	5
336.92	78	5
337.73	80	5
339	83	5
341.25	89	5
343	93	5
345.02	99	5
345.61	102	5
347	105	5
348.98	111	5
350.9	118	5
352.86	124	5
354.88	132	5
356.76	139	5
358.8	147	5
360.79	155	5
362.69	162	5
364.7	171	5
366.7	181	5
368.69	191	5
370.94	203	5
372.76	212	5
374.73	224	5
376.83	236	5
378.96	249	5
380.82	261	5
382.86	274	5
384.8	287	5
386.91	302	5
389.07	318	5
391.28	335	5
392.91	348	5
394.91	365	5
396.85	381	5
398.99	400	5
400.8	415	5
