Measured thermophysical data. Experimental Measurement and Correlation of Solubility Data and Thermodynamic Properties of Protocatechuic Acid in Four Organic Solvents
Source: J. Chem. Eng. Data, 2015, 10.1021/je500519y
Compound 1: 3,4-dihydroxybenzoic acid, C7H6O4, InChI=1S/C7H6O4/c8-5-2-1-4(7(10)11)3-6(5)9/h1-3,8-9H,(H,10,11), purity 97%
Compound 2: methanol, CH4O, InChI=1S/CH4O/c1-2/h2H,1H3, purity 99.7%
Compound 3: ethanol, C2H6O, InChI=1S/C2H6O/c1-2-3/h3H,2H2,1H3, purity 99.8%
Compound 4: methyl ethanoate, C3H6O2, InChI=1S/C3H6O2/c1-3(4)5-2/h1-2H3, purity 99.6%
Compound 5: ethyl acetate, C4H8O2, InChI=1S/C4H8O2/c1-3-6-4(2)5/h3H2,1-2H3, purity 99.6%

System: methanol + 3,4-dihydroxybenzoic acid; phases: Liquid, Crystal
Fixed: Pressure, kPa = 101
Property: Mole fraction of 3,4-dihydroxybenzoic acid (Liquid); method: UV/vis spectrophotometer
Temperature, K	Mole fraction of 3,4-dihydroxybenzoic acid	uncertainty
293.15	0.03374	0.00135
298.15	0.04508	0.00181
303.15	0.06538	0.00262
308.15	0.09298	0.00372
313.15	0.12611	0.00505
318.15	0.16721	0.0067

System: ethanol + 3,4-dihydroxybenzoic acid; phases: Liquid, Crystal
Fixed: Pressure, kPa = 101
Property: Mole fraction of 3,4-dihydroxybenzoic acid (Liquid); method: UV/vis spectrophotometer
Temperature, K	Mole fraction of 3,4-dihydroxybenzoic acid	uncertainty
293.15	0.03024	0.00121
298.15	0.04099	0.00164
303.15	0.0495	0.00198
308.15	0.0665	0.00266
313.15	0.08465	0.00339
318.15	0.10812	0.00433

System: methyl ethanoate + 3,4-dihydroxybenzoic acid; phases: Liquid, Crystal
Fixed: Pressure, kPa = 101
Property: Mole fraction of 3,4-dihydroxybenzoic acid (Liquid); method: UV/vis spectrophotometer
Temperature, K	Mole fraction of 3,4-dihydroxybenzoic acid	uncertainty
293.15	0.00563	0.00023
298.15	0.00843	0.00034
303.15	0.0115	0.00046
308.15	0.01665	0.00067
313.15	0.02254	0.0009
318.15	0.03003	0.0012

System: 3,4-dihydroxybenzoic acid + ethyl acetate; phases: Liquid, Crystal
Fixed: Pressure, kPa = 101
Property: Mole fraction of 3,4-dihydroxybenzoic acid (Liquid); method: UV/vis spectrophotometer
Temperature, K	Mole fraction of 3,4-dihydroxybenzoic acid	uncertainty
293.15	0.00478	0.00019
298.15	0.00671	0.00027
303.15	0.00906	0.00036
308.15	0.013	0.00052
313.15	0.01791	0.00072
318.15	0.02329	0.00093
