Measured thermophysical data. Solubility of Benzothiazolium Ionic Liquids in Water and in Furfural
Source: J. Chem. Eng. Data, 2015, 10.1021/je500762n
Compound 1: water, H2O, InChI=1S/H2O/h1H2
Compound 2: 2-furaldehyde, C5H4O2, InChI=1S/C5H4O2/c6-4-5-2-1-3-7-5/h1-4H
Compound 3: 3-butylbenzo[d]thiazol-3-ium hexafluorophosphate(V), C11H14F6NPS, InChI=1S/C11H14NS.F6P/c1-2-3-8-12-9-13-11-7-5-4-6-10(11)12;1-7(2,3,4,5)6/h4-7,9H,2-3,8H2,1H3;/q+1;-1
Compound 4: N-pentylbenzothiazolium hexafluorophosphate, C12H16F6NPS, InChI=1S/C12H16NS.F6P/c1-2-3-6-9-13-10-14-12-8-5-4-7-11(12)13;1-7(2,3,4,5)6/h4-5,7-8,10H,2-3,6,9H2,1H3;/q+1;-1
Compound 5: N-hexylbenzothiazolium hexafluorophosphate, C13H18F6NPS, InChI=1S/C13H18NS.F6P/c1-2-3-4-7-10-14-11-15-13-9-6-5-8-12(13)14;1-7(2,3,4,5)6/h5-6,8-9,11H,2-4,7,10H2,1H3;/q+1;-1
Compound 6: 3-heptylbenzo[d]thiazol-3-ium hexafluorophosphate, C14H20F6NPS, InChI=1S/C14H20NS.F6P/c1-2-3-4-5-8-11-15-12-16-14-10-7-6-9-13(14)15;1-7(2,3,4,5)6/h6-7,9-10,12H,2-5,8,11H2,1H3;/q+1;-1
Compound 7: N-octylbenzothiazolium hexafluorophosphate, C15H22F6NPS, InChI=1S/C15H22NS.F6P/c1-2-3-4-5-6-9-12-16-13-17-15-11-8-7-10-14(15)16;1-7(2,3,4,5)6/h7-8,10-11,13H,2-6,9,12H2,1H3;/q+1;-1

System: 3-butylbenzo[d]thiazol-3-ium hexafluorophosphate(V); phases: Crystal 2, Crystal 1, Air at 1 atmosphere
Property: Triple point temperature, K (Crystal 2); method: DTA
Triple point temperature, K	uncertainty
338.51	0.5

System: 3-butylbenzo[d]thiazol-3-ium hexafluorophosphate(V); phases: Crystal 2, Crystal 1, Air at 1 atmosphere
Property: Molar enthalpy of transition or fusion, kJ/mol (Crystal 2); method: DSC
Molar enthalpy of transition or fusion, kJ/mol	uncertainty
3.7	0.3

System: 3-butylbenzo[d]thiazol-3-ium hexafluorophosphate(V); phases: Crystal 1, Liquid, Air at 1 atmosphere
Property: Molar enthalpy of transition or fusion, kJ/mol (Crystal 1); method: DSC
Molar enthalpy of transition or fusion, kJ/mol	uncertainty
18.6	0.6

System: 3-butylbenzo[d]thiazol-3-ium hexafluorophosphate(V); phases: Crystal 1, Liquid, Air at 1 atmosphere
Property: Normal melting temperature, K (Crystal 1); method: DTA
Normal melting temperature, K	uncertainty
394.85	0.5

System: N-pentylbenzothiazolium hexafluorophosphate; phases: Crystal, Liquid, Air at 1 atmosphere
Property: Normal melting temperature, K (Crystal); method: DTA
Normal melting temperature, K	uncertainty
412.26	0.5

System: N-pentylbenzothiazolium hexafluorophosphate; phases: Crystal, Liquid, Air at 1 atmosphere
Property: Molar enthalpy of transition or fusion, kJ/mol (Crystal); method: DSC
Molar enthalpy of transition or fusion, kJ/mol	uncertainty
30.2	0.9

System: N-hexylbenzothiazolium hexafluorophosphate; phases: Crystal, Liquid, Air at 1 atmosphere
Property: Normal melting temperature, K (Crystal); method: DTA
Normal melting temperature, K	uncertainty
358.79	0.5

System: N-hexylbenzothiazolium hexafluorophosphate; phases: Crystal, Liquid, Air at 1 atmosphere
Property: Molar enthalpy of transition or fusion, kJ/mol (Crystal); method: DSC
Molar enthalpy of transition or fusion, kJ/mol	uncertainty
23.5	0.7

System: 3-heptylbenzo[d]thiazol-3-ium hexafluorophosphate; phases: Crystal, Liquid, Air at 1 atmosphere
Property: Normal melting temperature, K (Crystal); method: DTA
Normal melting temperature, K	uncertainty
359.3	0.5

System: 3-heptylbenzo[d]thiazol-3-ium hexafluorophosphate; phases: Crystal, Liquid, Air at 1 atmosphere
Property: Molar enthalpy of transition or fusion, kJ/mol (Crystal); method: DSC
Molar enthalpy of transition or fusion, kJ/mol	uncertainty
20.1	0.7

System: N-octylbenzothiazolium hexafluorophosphate; phases: Crystal, Liquid, Air at 1 atmosphere
Property: Normal melting temperature, K (Crystal); method: DTA
Normal melting temperature, K	uncertainty
334.22	0.5

System: N-octylbenzothiazolium hexafluorophosphate; phases: Crystal, Liquid, Air at 1 atmosphere
Property: Molar enthalpy of transition or fusion, kJ/mol (Crystal); method: DSC
Molar enthalpy of transition or fusion, kJ/mol	uncertainty
15	0.5

System: water + 3-butylbenzo[d]thiazol-3-ium hexafluorophosphate(V); phases: Liquid, Crystal 1
Fixed: Pressure, kPa = 101
Property: Mole fraction of 3-butylbenzo[d]thiazol-3-ium hexafluorophosphate(V) (Liquid); method: spectroscopy
Temperature, K	Mole fraction of 3-butylbenzo[d]thiazol-3-ium hexafluorophosphate(V)	uncertainty
363	0.00175	0.00017
367.9	0.00198	0.00019

System: water + 3-butylbenzo[d]thiazol-3-ium hexafluorophosphate(V); phases: Liquid, Crystal 2
Fixed: Pressure, kPa = 101
Property: Mole fraction of 3-butylbenzo[d]thiazol-3-ium hexafluorophosphate(V) (Liquid); method: spectroscopy
Temperature, K	Mole fraction of 3-butylbenzo[d]thiazol-3-ium hexafluorophosphate(V)	uncertainty
278.15	6.76e-05	6.5e-06
283.2	8.72e-05	8.3e-06
288.1	0.000113	1.1e-05
293.05	0.000139	1.3e-05
298.15	0.000168	1.6e-05
302.95	0.000204	1.9e-05
308.55	0.000237	2.3e-05
313.15	0.000297	2.8e-05
318.1	0.000355	3.4e-05
323	0.000405	3.9e-05
327.95	0.000478	4.6e-05
333.1	0.0006	5.7e-05
338.05	0.000721	6.9e-05
343.1	0.000839	8e-05
348	0.001	0.0001
353.15	0.00116	0.00011
357.9	0.00142	0.00014

System: water + N-pentylbenzothiazolium hexafluorophosphate; phases: Liquid, Crystal
Fixed: Pressure, kPa = 101
Property: Mole fraction of N-pentylbenzothiazolium hexafluorophosphate (Liquid); method: spectroscopy
Temperature, K	Mole fraction of N-pentylbenzothiazolium hexafluorophosphate	uncertainty
278.15	2.36e-05	3.8e-06
282.35	2.97e-05	4.7e-06
290.15	4.01e-05	6.4e-06
295.15	4.89e-05	7.8e-06
302.15	6.5e-05	1.03e-05
308.15	8.63e-05	1.37e-05
313.25	0.00011	1.8e-05
318.15	0.00013	2.1e-05
323.15	0.000153	2.4e-05
328.15	0.000189	3e-05
330.05	0.000205	3.3e-05
333.15	0.000226	3.6e-05
338.05	0.000259	4.1e-05
342.75	0.000293	4.7e-05
348.15	0.000356	5.7e-05
353.15	0.000466	7.4e-05
357.95	0.000676	0.000108
363.15	0.000878	0.00014
368.05	0.00109	0.00017

System: water + N-hexylbenzothiazolium hexafluorophosphate; phases: Liquid mixture 1, Liquid mixture 2
Fixed: Pressure, kPa = 101
Property: Mole fraction of N-hexylbenzothiazolium hexafluorophosphate (Liquid mixture 1); method: spectroscopy
Temperature, K	Mole fraction of N-hexylbenzothiazolium hexafluorophosphate	uncertainty
347.95	0.000463	4.5e-05
352.95	0.000543	5.3e-05
357.75	0.000595	5.8e-05
362.95	0.000659	6.4e-05
367.95	0.000743	7.3e-05

System: water + N-hexylbenzothiazolium hexafluorophosphate; phases: Liquid, Crystal
Fixed: Pressure, kPa = 101
Property: Mole fraction of N-hexylbenzothiazolium hexafluorophosphate (Liquid); method: spectroscopy
Temperature, K	Mole fraction of N-hexylbenzothiazolium hexafluorophosphate	uncertainty
278.15	3.17e-05	5e-06
282.75	3.31e-05	5.3e-06
289.15	4.3e-05	6.8e-06
294.15	5.12e-05	8.2e-06
298.15	6.5e-05	1.03e-05
303.15	7.64e-05	1.22e-05
308.15	9.38e-05	1.49e-05
313.15	0.000109	1.7e-05
318.15	0.000129	2.1e-05
323.15	0.000156	2.5e-05
328.15	0.00021	3.3e-05
330.15	0.000235	3.7e-05
333.05	0.000256	4.1e-05
338.05	0.000322	5.1e-05
342.75	0.000404	6.4e-05

System: water + 3-heptylbenzo[d]thiazol-3-ium hexafluorophosphate; phases: Liquid, Crystal
Fixed: Pressure, kPa = 101
Property: Mole fraction of 3-heptylbenzo[d]thiazol-3-ium hexafluorophosphate (Liquid); method: spectroscopy
Temperature, K	Mole fraction of 3-heptylbenzo[d]thiazol-3-ium hexafluorophosphate	uncertainty
278.15	2.26e-05	2.2e-06
282.35	2.91e-05	2.8e-06
288.15	3.5e-05	3.3e-06
294.15	4.2e-05	4e-06
300.15	5.5e-05	5.3e-06
308.15	7.07e-05	6.8e-06
313.05	8.48e-05	8.1e-06
318.15	0.000106	1e-05
323.15	0.000124	1.2e-05
328.15	0.000155	1.5e-05
333.15	0.000186	1.8e-05
338.05	0.00023	2.2e-05
342.75	0.000272	2.6e-05
348.45	0.000311	3e-05
353.15	0.000357	3.4e-05
358.15	0.00041	3.9e-05

System: water + 3-heptylbenzo[d]thiazol-3-ium hexafluorophosphate; phases: Liquid mixture 1, Liquid mixture 2
Fixed: Pressure, kPa = 101
Property: Mole fraction of 3-heptylbenzo[d]thiazol-3-ium hexafluorophosphate (Liquid mixture 1); method: spectroscopy
Temperature, K	Mole fraction of 3-heptylbenzo[d]thiazol-3-ium hexafluorophosphate	uncertainty
363.35	0.000464	4.5e-05
368.55	0.000521	5.1e-05

System: water + N-octylbenzothiazolium hexafluorophosphate; phases: Liquid mixture 1, Liquid mixture 2
Fixed: Pressure, kPa = 101
Property: Mole fraction of N-octylbenzothiazolium hexafluorophosphate (Liquid mixture 1); method: spectroscopy
Temperature, K	Mole fraction of N-octylbenzothiazolium hexafluorophosphate	uncertainty
338.15	0.000163	1.6e-05
342.95	0.000179	1.8e-05
348.15	0.000196	1.9e-05
352.75	0.000212	2.1e-05
358.05	0.000235	2.3e-05
363.15	0.000261	2.6e-05
367.75	0.000285	2.8e-05

System: water + N-octylbenzothiazolium hexafluorophosphate; phases: Liquid, Crystal
Fixed: Pressure, kPa = 101
Property: Mole fraction of N-octylbenzothiazolium hexafluorophosphate (Liquid); method: spectroscopy
Temperature, K	Mole fraction of N-octylbenzothiazolium hexafluorophosphate	uncertainty
278.15	1.79e-05	1.7e-06
283.2	2.1e-05	2e-06
290.15	2.61e-05	2.5e-06
294.15	3.12e-05	3e-06
300.15	4.01e-05	3.8e-06
308.15	5.5e-05	5.3e-06
313.15	7e-05	6.7e-06
318.15	9.11e-05	8.7e-06
323.15	0.000107	1e-05
328.15	0.000128	1.2e-05
333.15	0.000142	1.4e-05

System: 2-furaldehyde + 3-butylbenzo[d]thiazol-3-ium hexafluorophosphate(V); phases: Liquid, Crystal
Fixed: Pressure, kPa = 101
Property: Solid-liquid equilibrium temperature, K (Liquid); method: titration
Mole fraction of 3-butylbenzo[d]thiazol-3-ium hexafluorophosphate(V)	Solid-liquid equilibrium temperature, K	uncertainty
0.155	273.3	1.56
0.185	281.45	2.01
0.205	288.25	2.05
0.246	298.35	2.26
0.263	302.93	2.23
0.3	311	2.3
0.333	317.62	2.56
0.364	324.5	3
0.393	331.25	3.32

System: 2-furaldehyde + N-pentylbenzothiazolium hexafluorophosphate; phases: Liquid, Crystal
Fixed: Pressure, kPa = 101
Property: Solid-liquid equilibrium temperature, K (Liquid); method: titration
Mole fraction of N-pentylbenzothiazolium hexafluorophosphate	Solid-liquid equilibrium temperature, K	uncertainty
0.085	272.3	9.47
0.0866	277.25	9.65
0.0981	284.65	2.28
0.108	290.85	2.28
0.118	296.15	2.25
0.131	302.85	2.51
0.151	313.5	2.5
0.171	321.04	1.87
0.189	324.75	1.47
0.214	330	1.63
0.239	335.04	1.78

System: 2-furaldehyde + N-hexylbenzothiazolium hexafluorophosphate; phases: Liquid, Crystal
Fixed: Pressure, kPa = 101
Property: Solid-liquid equilibrium temperature, K (Liquid); method: titration
Mole fraction of N-hexylbenzothiazolium hexafluorophosphate	Solid-liquid equilibrium temperature, K	uncertainty
0.201	273.25	2.87
0.208	276	1.96
0.345	305.08	2.03
0.366	308.23	2.29
0.479	325.05	1.71
0.513	327.64	1.58
0.234	282.04	2
0.269	290.19	2.19
0.297	296.05	2.26
0.321	301.03	2.21
0.385	311.95	2.7
0.406	315.95	2.45
0.424	318.39	1.95
0.451	321.62	2
0.55	330.95	1.75
0.581	333.5	1.57
0.616	335.75	1.48

System: 2-furaldehyde + 3-heptylbenzo[d]thiazol-3-ium hexafluorophosphate; phases: Liquid, Crystal
Fixed: Pressure, kPa = 101
Property: Solid-liquid equilibrium temperature, K (Liquid); method: titration
Mole fraction of 3-heptylbenzo[d]thiazol-3-ium hexafluorophosphate	Solid-liquid equilibrium temperature, K	uncertainty
0.27	272.2	3.83
0.276	274.55	3.15
0.297	280.85	2.6
0.318	284.65	2.39
0.35	291.71	2.48
0.38	296.7	2.2
0.41	301.2	2.13
0.433	304.21	2.45
0.451	307.6	2.75
0.47	310.41	2.9
0.487	313.72	2.79
0.503	315.6	2.02
0.532	318.68	2.43
0.561	322.88	2.82
0.582	325.58	2.61
0.601	327.81	2.41
0.622	329.99	2.15
0.644	331.87	2.02

System: 2-furaldehyde + N-octylbenzothiazolium hexafluorophosphate; phases: Liquid, Crystal
Fixed: Pressure, kPa = 101
Property: Solid-liquid equilibrium temperature, K (Liquid); method: titration
Mole fraction of N-octylbenzothiazolium hexafluorophosphate	Solid-liquid equilibrium temperature, K	uncertainty
0.33	271.1	2.33
0.35	274.97	1.87
0.38	278.47	1.93
0.396	281.46	2.22
0.423	285.15	1.89
0.445	287.37	1.49
0.471	289.48	1.62
0.5	292.47	1.73
0.541	296.07	1.75
0.597	300.95	2.07
0.64	305.47	2.18
0.711	311.66	2.34
0.745	314.97	2.6
0.786	318.86	2.86
0.81	321.52	3.37
0.829	323.8	3.47
0.858	327.08	3.51
