Measured thermophysical data. Density, Viscosity, Refractive Index, and Freezing Point for Binary Mixtures of 1,1'-Bicyclohexyl with Alkylcyclohexane
Source: J. Chem. Eng. Data, 2014, 10.1021/je500275j
Compound 1: 1,1'-bicyclohexyl, C12H22, InChI=1S/C12H22/c1-3-7-11(8-4-1)12-9-5-2-6-10-12/h11-12H,1-10H2, purity 99%
Compound 2: methylcyclohexane, C7H14, InChI=1S/C7H14/c1-7-5-3-2-4-6-7/h7H,2-6H2,1H3, purity 99%
Compound 3: ethylcyclohexane, C8H16, InChI=1S/C8H16/c1-2-8-6-4-3-5-7-8/h8H,2-7H2,1H3, purity 98%
Compound 4: butylcyclohexane, C10H20, InChI=1S/C10H20/c1-2-3-7-10-8-5-4-6-9-10/h10H,2-9H2,1H3, purity 99%

System: 1,1'-bicyclohexyl; phases: Liquid
Property: Refractive index (Na D-line) (Liquid); method: Standard Abbe refractometry
Temperature, K	Pressure, kPa	Refractive index (Na D-line)	uncertainty
293.15	101.325	1.4787	0.004

System: 1,1'-bicyclohexyl; phases: Crystal, Liquid, Air at 1 atmosphere
Property: Normal melting temperature, K (Crystal); method: DTA
Normal melting temperature, K	uncertainty
275.75	6

System: 1,1'-bicyclohexyl; phases: Liquid
Fixed: Pressure, kPa = 100
Property: Mass density, kg/m3 (Liquid); method: Vibrating tube method
Temperature, K	Mass density, kg/m3	uncertainty
293.15	886.39	0.15
298.15	882.79	0.15
303.15	879.19	0.15
308.15	875.6	0.15
313.15	872.01	0.15
318.15	868.43	0.15

System: 1,1'-bicyclohexyl; phases: Liquid
Fixed: Pressure, kPa = 100
Property: Viscosity, Pa*s (Liquid); method: Falling or rolling sphere viscometry
Temperature, K	Viscosity, Pa*s	uncertainty
293.15	0.004017	3.3e-05
298.15	0.003541	2.9e-05
303.15	0.003145	2.6e-05
308.15	0.002817	2.3e-05
313.15	0.00254	2.2e-05
318.15	0.002302	2e-05

System: methylcyclohexane; phases: Liquid
Property: Refractive index (Na D-line) (Liquid); method: Standard Abbe refractometry
Temperature, K	Pressure, kPa	Refractive index (Na D-line)	uncertainty
293.15	101.325	1.4175	0.004

System: methylcyclohexane; phases: Liquid
Fixed: Pressure, kPa = 100
Property: Mass density, kg/m3 (Liquid); method: Vibrating tube method
Temperature, K	Mass density, kg/m3	uncertainty
293.15	769.58	0.15
298.15	765.23	0.15
303.15	760.89	0.15
308.15	756.53	0.15
313.15	752.17	0.16
318.15	747.78	0.16

System: methylcyclohexane; phases: Liquid
Fixed: Pressure, kPa = 100
Property: Viscosity, Pa*s (Liquid); method: Falling or rolling sphere viscometry
Temperature, K	Viscosity, Pa*s	uncertainty
293.15	0.000733	1.1e-05
298.15	0.000687	1.1e-05
303.15	0.000645	1.1e-05
308.15	0.000608	1.1e-05
313.15	0.000575	1.1e-05
318.15	0.000545	1.1e-05

System: ethylcyclohexane; phases: Liquid
Property: Refractive index (Na D-line) (Liquid); method: Standard Abbe refractometry
Temperature, K	Pressure, kPa	Refractive index (Na D-line)	uncertainty
293.15	101.325	1.4275	0.004

System: ethylcyclohexane; phases: Liquid
Fixed: Pressure, kPa = 100
Property: Mass density, kg/m3 (Liquid); method: Vibrating tube method
Temperature, K	Mass density, kg/m3	uncertainty
293.15	788.23	0.15
298.15	784.2	0.15
303.15	780.16	0.15
308.15	776.11	0.15
313.15	772.04	0.15
318.15	767.96	0.15

System: ethylcyclohexane; phases: Liquid
Fixed: Pressure, kPa = 100
Property: Viscosity, Pa*s (Liquid); method: Falling or rolling sphere viscometry
Temperature, K	Viscosity, Pa*s	uncertainty
293.15	0.000851	1.2e-05
298.15	0.000796	1.2e-05
303.15	0.000748	1.1e-05
308.15	0.000704	1.1e-05
313.15	0.000665	1.1e-05
318.15	0.000629	1.1e-05

System: butylcyclohexane; phases: Liquid
Property: Refractive index (Na D-line) (Liquid); method: Standard Abbe refractometry
Temperature, K	Pressure, kPa	Refractive index (Na D-line)	uncertainty
293.15	101.325	1.4399	0.004

System: butylcyclohexane; phases: Liquid
Fixed: Pressure, kPa = 100
Property: Mass density, kg/m3 (Liquid); method: Vibrating tube method
Temperature, K	Mass density, kg/m3	uncertainty
293.15	799.6	0.15
298.15	795.85	0.15
303.15	792.1	0.15
308.15	788.33	0.15
313.15	784.56	0.15
318.15	780.78	0.15

System: butylcyclohexane; phases: Liquid
Fixed: Pressure, kPa = 100
Property: Viscosity, Pa*s (Liquid); method: Falling or rolling sphere viscometry
Temperature, K	Viscosity, Pa*s	uncertainty
293.15	0.0013	1.4e-05
298.15	0.001198	1.3e-05
303.15	0.001109	1.3e-05
308.15	0.00103	1.3e-05
313.15	0.00096	1.2e-05
318.15	0.000898	1.2e-05

System: 1,1'-bicyclohexyl + methylcyclohexane; phases: Liquid
Fixed: Pressure, kPa = 100
Property: Mass density, kg/m3 (Liquid); method: Vibrating tube method
Temperature, K	Mole fraction of 1,1'-bicyclohexyl	Mass density, kg/m3	uncertainty
293.15	0	769.58	0.15
293.15	0.0999	786.65	0.15
293.15	0.2015	802.4	0.15
293.15	0.3012	816.38	0.14
293.15	0.4007	828.96	0.14
293.15	0.4994	840.4	0.14
293.15	0.5986	850.98	0.14
293.15	0.7002	861.06	0.14
293.15	0.7998	870.05	0.14
293.15	0.8998	878.51	0.14
293.15	1	886.39	0.15
298.15	0	765.23	0.15
298.15	0.0999	782.49	0.15
298.15	0.2015	798.27	0.15
298.15	0.3012	812.39	0.15
298.15	0.4007	825.06	0.14
298.15	0.4994	836.55	0.14
298.15	0.5986	847.21	0.14
298.15	0.7002	857.36	0.14
298.15	0.7998	866.41	0.14
298.15	0.8998	874.87	0.14
298.15	1	882.79	0.15
303.15	0	760.89	0.15
303.15	0.0999	778.28	0.15
303.15	0.2015	794.17	0.15
303.15	0.3012	808.39	0.15
303.15	0.4007	821.14	0.14
303.15	0.4994	832.74	0.14
303.15	0.5986	843.46	0.14
303.15	0.7002	853.63	0.14
303.15	0.7998	862.73	0.14
303.15	0.8998	871.23	0.15
303.15	1	879.19	0.15
308.15	0	756.53	0.15
308.15	0.0999	774.06	0.15
308.15	0.2015	790.07	0.15
308.15	0.3012	804.38	0.15
308.15	0.4007	817.21	0.15
308.15	0.4994	828.85	0.14
308.15	0.5986	839.63	0.14
308.15	0.7002	849.8	0.14
308.15	0.7998	859.05	0.14
308.15	0.8998	867.6	0.15
308.15	1	875.6	0.15
313.15	0	752.17	0.16
313.15	0.0999	769.83	0.16
313.15	0.2015	785.95	0.15
313.15	0.3012	800.36	0.15
313.15	0.4007	813.28	0.15
313.15	0.4994	824.98	0.15
313.15	0.5986	835.85	0.14
313.15	0.7002	846.15	0.14
313.15	0.7998	855.37	0.15
313.15	0.8998	863.97	0.15
313.15	1	872.01	0.15
318.15	0	747.78	0.16
318.15	0.0999	765.59	0.16
318.15	0.2015	781.82	0.15
318.15	0.3012	796.34	0.15
318.15	0.4007	809.35	0.15
318.15	0.4994	821.14	0.15
318.15	0.5986	832.06	0.15
318.15	0.7002	842.45	0.15
318.15	0.7998	851.7	0.15
318.15	0.8998	860.35	0.15
318.15	1	868.43	0.15

System: 1,1'-bicyclohexyl + methylcyclohexane; phases: Liquid
Fixed: Pressure, kPa = 100
Property: Viscosity, Pa*s (Liquid); method: Falling or rolling sphere viscometry
Temperature, K	Mole fraction of 1,1'-bicyclohexyl	Viscosity, Pa*s	uncertainty
293.15	0	0.000733	1.1e-05
293.15	0.0999	0.000882	1.2e-05
293.15	0.2015	0.001053	1.3e-05
293.15	0.3012	0.001269	1.4e-05
293.15	0.4007	0.001513	1.5e-05
293.15	0.4994	0.00177	1.6e-05
293.15	0.5986	0.00212	1.8e-05
293.15	0.7002	0.002507	2.1e-05
293.15	0.7998	0.002935	2.4e-05
293.15	0.8998	0.003428	2.8e-05
293.15	1	0.004017	3.3e-05
298.15	0	0.000687	1.1e-05
298.15	0.0999	0.000821	1.2e-05
298.15	0.2015	0.000977	1.2e-05
298.15	0.3012	0.001173	1.3e-05
298.15	0.4007	0.001389	1.4e-05
298.15	0.4994	0.001616	1.5e-05
298.15	0.5986	0.001923	1.7e-05
298.15	0.7002	0.002261	1.9e-05
298.15	0.7998	0.002628	2.2e-05
298.15	0.8998	0.00305	2.5e-05
298.15	1	0.003541	2.9e-05
303.15	0	0.000645	1.1e-05
303.15	0.0999	0.000768	1.1e-05
303.15	0.2015	0.000905	1.2e-05
303.15	0.3012	0.001086	1.3e-05
303.15	0.4007	0.00128	1.4e-05
303.15	0.4994	0.00149	1.5e-05
303.15	0.5986	0.001754	1.6e-05
303.15	0.7002	0.002056	1.8e-05
303.15	0.7998	0.002367	2e-05
303.15	0.8998	0.00273	2.3e-05
303.15	1	0.003145	2.6e-05
308.15	0	0.000608	1.1e-05
308.15	0.0999	0.000722	1.1e-05
308.15	0.2015	0.00085	1.2e-05
308.15	0.3012	0.00101	1.2e-05
308.15	0.4007	0.001185	1.3e-05
308.15	0.4994	0.001373	1.4e-05
308.15	0.5986	0.001609	1.5e-05
308.15	0.7002	0.001871	1.7e-05
308.15	0.7998	0.002143	1.9e-05
308.15	0.8998	0.002459	2.1e-05
308.15	1	0.002817	2.3e-05
313.15	0	0.000575	1.1e-05
313.15	0.0999	0.000679	1.1e-05
313.15	0.2015	0.000795	1.2e-05
313.15	0.3012	0.000942	1.2e-05
313.15	0.4007	0.001102	1.3e-05
313.15	0.4994	0.001268	1.4e-05
313.15	0.5986	0.001474	1.5e-05
313.15	0.7002	0.001708	1.6e-05
313.15	0.7998	0.001953	1.8e-05
313.15	0.8998	0.002227	1.9e-05
313.15	1	0.00254	2.2e-05
318.15	0	0.000545	1.1e-05
318.15	0.0999	0.000641	1.1e-05
318.15	0.2015	0.000747	1.1e-05
318.15	0.3012	0.000882	1.2e-05
318.15	0.4007	0.001025	1.2e-05
318.15	0.4994	0.001177	1.3e-05
318.15	0.5986	0.00137	1.4e-05
318.15	0.7002	0.001582	1.5e-05
318.15	0.7998	0.001788	1.7e-05
318.15	0.8998	0.002032	1.8e-05
318.15	1	0.002302	2e-05

System: 1,1'-bicyclohexyl + methylcyclohexane; phases: Liquid, Crystal
Fixed: Pressure, kPa = 101
Property: Solid-liquid equilibrium temperature, K (Liquid); method: DTA
Mole fraction of 1,1'-bicyclohexyl	Solid-liquid equilibrium temperature, K	uncertainty
0.3	219.15	6
0.401	238.35	6
0.498	248.05	6
0.5979	251.75	6
0.7031	257.45	6
0.7998	260.65	6
0.8998	269.25	6
1	275.75	6

System: 1,1'-bicyclohexyl + ethylcyclohexane; phases: Liquid
Fixed: Pressure, kPa = 100
Property: Mass density, kg/m3 (Liquid); method: Vibrating tube method
Temperature, K	Mole fraction of 1,1'-bicyclohexyl	Mass density, kg/m3	uncertainty
293.15	0	788.23	0.15
293.15	0.1001	801.13	0.15
293.15	0.2003	813.19	0.14
293.15	0.3001	824.41	0.14
293.15	0.4002	835.03	0.14
293.15	0.498	844.69	0.14
293.15	0.5996	854.14	0.14
293.15	0.6996	862.93	0.14
293.15	0.7983	871.02	0.14
293.15	0.901	879.05	0.14
293.15	1	886.39	0.15
298.15	0	784.2	0.15
298.15	0.1001	797.17	0.15
298.15	0.2003	809.29	0.14
298.15	0.3001	820.56	0.14
298.15	0.4002	831.23	0.14
298.15	0.498	840.93	0.14
298.15	0.5996	850.42	0.14
298.15	0.6996	859.24	0.14
298.15	0.7983	867.36	0.14
298.15	0.901	875.42	0.14
298.15	1	882.79	0.15
303.15	0	780.16	0.15
303.15	0.1001	793.2	0.15
303.15	0.2003	805.38	0.15
303.15	0.3001	816.7	0.14
303.15	0.4002	827.42	0.14
303.15	0.498	837.16	0.14
303.15	0.5996	846.72	0.14
303.15	0.6996	855.55	0.14
303.15	0.7983	863.7	0.14
303.15	0.901	871.8	0.15
303.15	1	879.19	0.15
308.15	0	776.11	0.15
308.15	0.1001	789.22	0.15
308.15	0.2003	801.46	0.15
308.15	0.3001	812.84	0.14
308.15	0.4002	823.6	0.14
308.15	0.498	833.39	0.14
308.15	0.5996	842.97	0.14
308.15	0.6996	851.86	0.14
308.15	0.7983	860.05	0.14
308.15	0.901	868.18	0.15
308.15	1	875.6	0.15
313.15	0	772.04	0.15
313.15	0.1001	785.22	0.15
313.15	0.2003	797.53	0.15
313.15	0.3001	808.96	0.15
313.15	0.4002	819.79	0.14
313.15	0.498	829.62	0.14
313.15	0.5996	839.25	0.14
313.15	0.6996	848.18	0.14
313.15	0.7983	856.4	0.14
313.15	0.901	864.56	0.15
313.15	1	872.01	0.15
318.15	0	767.96	0.15
318.15	0.1001	781.22	0.15
318.15	0.2003	793.59	0.15
318.15	0.3001	805.08	0.15
318.15	0.4002	815.96	0.15
318.15	0.498	825.85	0.14
318.15	0.5996	835.52	0.14
318.15	0.6996	844.5	0.14
318.15	0.7983	852.76	0.15
318.15	0.901	860.95	0.15
318.15	1	868.43	0.15

System: 1,1'-bicyclohexyl + ethylcyclohexane; phases: Liquid
Fixed: Pressure, kPa = 100
Property: Viscosity, Pa*s (Liquid); method: Falling or rolling sphere viscometry
Temperature, K	Mole fraction of 1,1'-bicyclohexyl	Viscosity, Pa*s	uncertainty
293.15	0	0.000851	1.2e-05
293.15	0.1001	0.000996	1.2e-05
293.15	0.2003	0.001164	1.3e-05
293.15	0.3001	0.001369	1.4e-05
293.15	0.4002	0.001621	1.5e-05
293.15	0.498	0.001848	1.7e-05
293.15	0.5996	0.002139	1.9e-05
293.15	0.6996	0.002451	2.1e-05
293.15	0.7983	0.002874	2.4e-05
293.15	0.901	0.003379	2.7e-05
293.15	1	0.004017	3.3e-05
298.15	0	0.000796	1.2e-05
298.15	0.1001	0.000934	1.2e-05
298.15	0.2003	0.001079	1.3e-05
298.15	0.3001	0.001264	1.4e-05
298.15	0.4002	0.001488	1.5e-05
298.15	0.498	0.001685	1.6e-05
298.15	0.5996	0.00194	1.7e-05
298.15	0.6996	0.00221	1.9e-05
298.15	0.7983	0.002574	2.2e-05
298.15	0.901	0.003003	2.5e-05
298.15	1	0.003541	2.9e-05
303.15	0	0.000748	1.1e-05
303.15	0.1001	0.000874	1.2e-05
303.15	0.2003	0.001004	1.2e-05
303.15	0.3001	0.001173	1.3e-05
303.15	0.4002	0.001372	1.4e-05
303.15	0.498	0.001547	1.5e-05
303.15	0.5996	0.00177	1.6e-05
303.15	0.6996	0.002005	1.8e-05
303.15	0.7983	0.002322	2e-05
303.15	0.901	0.002689	2.2e-05
303.15	1	0.003145	2.6e-05
308.15	0	0.000704	1.1e-05
308.15	0.1001	0.00082	1.2e-05
308.15	0.2003	0.000938	1.2e-05
308.15	0.3001	0.001091	1.3e-05
308.15	0.4002	0.001258	1.4e-05
308.15	0.498	0.001428	1.4e-05
308.15	0.5996	0.001626	1.6e-05
308.15	0.6996	0.001828	1.7e-05
308.15	0.7983	0.002106	1.9e-05
308.15	0.901	0.002425	2.1e-05
308.15	1	0.002817	2.3e-05
313.15	0	0.000665	1.1e-05
313.15	0.1001	0.00077	1.1e-05
313.15	0.2003	0.000879	1.2e-05
313.15	0.3001	0.001018	1.2e-05
313.15	0.4002	0.001175	1.3e-05
313.15	0.498	0.00132	1.4e-05
313.15	0.5996	0.001492	1.5e-05
313.15	0.6996	0.001675	1.6e-05
313.15	0.7983	0.00192	1.7e-05
313.15	0.901	0.002197	1.9e-05
313.15	1	0.00254	2.2e-05
318.15	0	0.000629	1.1e-05
318.15	0.1001	0.000727	1.1e-05
318.15	0.2003	0.000825	1.2e-05
318.15	0.3001	0.000951	1.2e-05
318.15	0.4002	0.001094	1.3e-05
318.15	0.498	0.001225	1.3e-05
318.15	0.5996	0.001381	1.4e-05
318.15	0.6996	0.001542	1.5e-05
318.15	0.7983	0.001759	1.6e-05
318.15	0.901	0.002002	1.8e-05
318.15	1	0.002302	2e-05

System: 1,1'-bicyclohexyl + ethylcyclohexane; phases: Liquid, Crystal
Fixed: Pressure, kPa = 101
Property: Solid-liquid equilibrium temperature, K (Liquid); method: DTA
Mole fraction of 1,1'-bicyclohexyl	Solid-liquid equilibrium temperature, K	uncertainty
0.3008	223.45	6
0.3991	232.05	6
0.4982	237.15	6
0.5995	239.65	6
0.6992	251.75	6
0.799	258.45	6
0.8996	267.35	6
1	275.75	6

System: 1,1'-bicyclohexyl + butylcyclohexane; phases: Liquid
Fixed: Pressure, kPa = 100
Property: Mass density, kg/m3 (Liquid); method: Vibrating tube method
Temperature, K	Mole fraction of 1,1'-bicyclohexyl	Mass density, kg/m3	uncertainty
293.15	0	799.6	0.15
293.15	0.1002	809.11	0.15
293.15	0.2003	818.37	0.15
293.15	0.2997	827.41	0.15
293.15	0.4002	836.41	0.15
293.15	0.4999	845.11	0.15
293.15	0.6011	853.76	0.15
293.15	0.7003	862.14	0.15
293.15	0.7999	870.34	0.15
293.15	0.9008	878.53	0.15
293.15	1	886.39	0.15
298.15	0	795.85	0.15
298.15	0.1002	805.38	0.15
298.15	0.2003	814.66	0.15
298.15	0.2997	823.71	0.15
298.15	0.4002	832.69	0.15
298.15	0.4999	841.44	0.15
298.15	0.6011	850.11	0.15
298.15	0.7003	858.51	0.15
298.15	0.7999	866.72	0.15
298.15	0.9008	874.92	0.15
298.15	1	882.79	0.15
303.15	0	792.1	0.15
303.15	0.1002	801.64	0.15
303.15	0.2003	810.94	0.15
303.15	0.2997	820.01	0.15
303.15	0.4002	829.01	0.15
303.15	0.4999	837.77	0.15
303.15	0.6011	846.46	0.15
303.15	0.7003	854.87	0.15
303.15	0.7999	863.09	0.15
303.15	0.9008	871.31	0.15
303.15	1	879.19	0.15
308.15	0	788.33	0.15
308.15	0.1002	797.9	0.15
308.15	0.2003	807.21	0.15
308.15	0.2997	816.31	0.15
308.15	0.4002	825.32	0.15
308.15	0.4999	834.1	0.15
308.15	0.6011	842.81	0.15
308.15	0.7003	851.24	0.15
308.15	0.7999	859.47	0.15
308.15	0.9008	867.7	0.15
308.15	1	875.6	0.15
313.15	0	784.56	0.15
313.15	0.1002	794.15	0.15
313.15	0.2003	803.48	0.15
313.15	0.2997	812.6	0.15
313.15	0.4002	821.64	0.15
313.15	0.4999	830.43	0.15
313.15	0.6011	839.15	0.15
313.15	0.7003	847.6	0.15
313.15	0.7999	855.85	0.15
313.15	0.9008	864.1	0.15
313.15	1	872.01	0.15
318.15	0	780.78	0.15
318.15	0.1002	790.39	0.15
318.15	0.2003	799.75	0.15
318.15	0.2997	808.89	0.15
318.15	0.4002	817.94	0.15
318.15	0.4999	826.76	0.15
318.15	0.6011	835.5	0.15
318.15	0.7003	843.97	0.15
318.15	0.7999	852.23	0.15
318.15	0.9008	860.5	0.15
318.15	1	868.43	0.15

System: 1,1'-bicyclohexyl + butylcyclohexane; phases: Liquid
Fixed: Pressure, kPa = 100
Property: Viscosity, Pa*s (Liquid); method: Falling or rolling sphere viscometry
Temperature, K	Mole fraction of 1,1'-bicyclohexyl	Viscosity, Pa*s	uncertainty
293.15	0	0.0013	1.4e-05
293.15	0.1002	0.00143	1.4e-05
293.15	0.2003	0.001585	1.5e-05
293.15	0.2997	0.001757	1.6e-05
293.15	0.4002	0.001952	1.8e-05
293.15	0.4999	0.002184	1.9e-05
293.15	0.6011	0.00245	2.1e-05
293.15	0.7003	0.002759	2.3e-05
293.15	0.7999	0.003132	2.5e-05
293.15	0.9008	0.003563	2.9e-05
293.15	1	0.004017	3.3e-05
298.15	0	0.001198	1.3e-05
298.15	0.1002	0.001311	1.4e-05
298.15	0.2003	0.001449	1.5e-05
298.15	0.2997	0.0016	1.5e-05
298.15	0.4002	0.001772	1.6e-05
298.15	0.4999	0.001975	1.8e-05
298.15	0.6011	0.002205	1.9e-05
298.15	0.7003	0.002471	2.1e-05
298.15	0.7999	0.002797	2.3e-05
298.15	0.9008	0.00315	2.6e-05
298.15	1	0.003541	2.9e-05
303.15	0	0.001109	1.3e-05
303.15	0.1002	0.001209	1.3e-05
303.15	0.2003	0.001332	1.4e-05
303.15	0.2997	0.001466	1.5e-05
303.15	0.4002	0.001619	1.6e-05
303.15	0.4999	0.001796	1.7e-05
303.15	0.6011	0.001998	1.8e-05
303.15	0.7003	0.002231	1.9e-05
303.15	0.7999	0.002508	2.1e-05
303.15	0.9008	0.002812	2.3e-05
303.15	1	0.003145	2.6e-05
308.15	0	0.00103	1.3e-05
308.15	0.1002	0.00112	1.3e-05
308.15	0.2003	0.001229	1.3e-05
308.15	0.2997	0.001349	1.4e-05
308.15	0.4002	0.001485	1.5e-05
308.15	0.4999	0.001643	1.6e-05
308.15	0.6011	0.001821	1.7e-05
308.15	0.7003	0.002022	1.8e-05
308.15	0.7999	0.002272	2e-05
308.15	0.9008	0.00253	2.1e-05
308.15	1	0.002817	2.3e-05
313.15	0	0.00096	1.2e-05
313.15	0.1002	0.001041	1.3e-05
313.15	0.2003	0.001139	1.3e-05
313.15	0.2997	0.001247	1.4e-05
313.15	0.4002	0.001368	1.4e-05
313.15	0.4999	0.001508	1.5e-05
313.15	0.6011	0.001665	1.6e-05
313.15	0.7003	0.001844	1.7e-05
313.15	0.7999	0.002061	1.8e-05
313.15	0.9008	0.002288	2e-05
313.15	1	0.00254	2.2e-05
318.15	0	0.000898	1.2e-05
318.15	0.1002	0.000971	1.2e-05
318.15	0.2003	0.001059	1.3e-05
318.15	0.2997	0.001157	1.3e-05
318.15	0.4002	0.001265	1.4e-05
318.15	0.4999	0.001391	1.4e-05
318.15	0.6011	0.001532	1.5e-05
318.15	0.7003	0.001689	1.6e-05
318.15	0.7999	0.001883	1.7e-05
318.15	0.9008	0.002082	1.9e-05
318.15	1	0.002302	2e-05

System: 1,1'-bicyclohexyl + butylcyclohexane; phases: Liquid, Crystal
Fixed: Pressure, kPa = 101
Property: Solid-liquid equilibrium temperature, K (Liquid); method: DTA
Mole fraction of 1,1'-bicyclohexyl	Solid-liquid equilibrium temperature, K	uncertainty
0.2999	204.75	6
0.4	217.95	6
0.5008	233.75	6
0.6007	241.05	6
0.7001	249.75	6
0.7997	258.65	6
0.8863	265.85	6
1	275.75	6
