Measured thermophysical data. Measurement and Correlation of Solubility and Dissolution Thermodynamic Properties of Furan-2-carboxylic Acid in Pure and Binary Solvents
Source: J. Chem. Eng. Data, 2014, 10.1021/je500012b
Compound 1: 2-furancarboxylic acid, C5H4O3, InChI=1S/C5H4O3/c6-5(7)4-2-1-3-8-4/h1-3H,(H,6,7), purity 98%
Compound 2: ethanol, C2H6O, InChI=1S/C2H6O/c1-2-3/h3H,2H2,1H3, purity 99.7%
Compound 3: acetone, C3H6O, InChI=1S/C3H6O/c1-3(2)4/h1-2H3, purity 99.7%
Compound 4: propan-1-ol, C3H8O, InChI=1S/C3H8O/c1-2-3-4/h4H,2-3H2,1H3, purity 99.8%
Compound 5: methyl ethanoate, C3H6O2, InChI=1S/C3H6O2/c1-3(4)5-2/h1-2H3, purity 99.6%
Compound 6: ethyl acetate, C4H8O2, InChI=1S/C4H8O2/c1-3-6-4(2)5/h3H2,1-2H3, purity 99.6%
Compound 7: water, H2O, InChI=1S/H2O/h1H2, purity 99.8%

System: 2-furancarboxylic acid; phases: Crystal, Liquid, Air at 1 atmosphere
Property: Normal melting temperature, K (Crystal); method: DTA
Normal melting temperature, K	uncertainty
403.55	1.06

System: 2-furancarboxylic acid; phases: Crystal, Liquid, Gas
Property: Molar enthalpy of transition or fusion, kJ/mol (Crystal); method: DSC
Molar enthalpy of transition or fusion, kJ/mol	uncertainty
20.5	0.745

System: ethanol + 2-furancarboxylic acid; phases: Liquid, Crystal
Fixed: Pressure, kPa = 101
Property: Solid-liquid equilibrium temperature, K (Liquid); method: VISOBS
Mole fraction of 2-furancarboxylic acid	Solid-liquid equilibrium temperature, K	uncertainty
0.1522	279.35	5.13
0.1623	282.75	5.46
0.176	287.35	5.78
0.1982	294.55	6.38
0.2081	297.65	6.58
0.2251	303.05	6.77
0.2496	310.15	6.28
0.268	313.75	7.03
0.2903	320.75	8.06
0.3113	325.75	7.42

System: acetone + 2-furancarboxylic acid; phases: Liquid, Crystal
Fixed: Pressure, kPa = 101
Property: Solid-liquid equilibrium temperature, K (Liquid); method: VISOBS
Mole fraction of 2-furancarboxylic acid	Solid-liquid equilibrium temperature, K	uncertainty
0.1531	280.15	7.91
0.1591	283.25	7.11
0.1717	288.55	5.73
0.1888	293.25	5.86
0.2059	299.15	6.86
0.218	302.95	6.48
0.2371	308.45	6.39
0.2654	315.75	6.85

System: propan-1-ol + 2-furancarboxylic acid; phases: Liquid, Crystal
Fixed: Pressure, kPa = 101
Property: Solid-liquid equilibrium temperature, K (Liquid); method: VISOBS
Mole fraction of 2-furancarboxylic acid	Solid-liquid equilibrium temperature, K	uncertainty
0.1384	282.95	3.88
0.1577	288.35	4.51
0.1762	293.75	4.4
0.1946	297.55	5.62
0.2082	303.15	6.65
0.2259	307.65	6
0.2436	312.55	5.9
0.2583	315.45	6.43
0.2725	319.75	6.96
0.2997	326.15	7.06

System: methyl ethanoate + 2-furancarboxylic acid; phases: Liquid, Crystal
Fixed: Pressure, kPa = 101
Property: Solid-liquid equilibrium temperature, K (Liquid); method: VISOBS
Mole fraction of 2-furancarboxylic acid	Solid-liquid equilibrium temperature, K	uncertainty
0.1063	280.85	3.32
0.1169	284.15	3.9
0.127	287.75	4.7
0.1372	291.65	5.25
0.1461	295.05	5.55
0.1559	298.75	5.84
0.1656	302.35	5.52
0.1842	308.25	5.07
0.2161	316.35	5.06
0.2323	319.35	4.31

System: 2-furancarboxylic acid + ethyl acetate; phases: Liquid, Crystal
Fixed: Pressure, kPa = 101
Property: Solid-liquid equilibrium temperature, K (Liquid); method: VISOBS
Mole fraction of 2-furancarboxylic acid	Solid-liquid equilibrium temperature, K	uncertainty
0.0858	281.35	3.92
0.0983	287.05	4.26
0.1103	291.95	4.06
0.1241	296.55	4.3
0.1372	301.25	5.06
0.1474	305.15	4.66
0.1569	307.45	4.68
0.1711	312.15	4.42
0.191	316.35	4.31
0.2165	322.35	5.1

System: acetone + 2-furancarboxylic acid + water; phases: Liquid, Crystal
Fixed: Pressure, kPa = 101
Property: Solid-liquid equilibrium temperature, K (Liquid); method: VISOBS
Solvent: Mole fraction of acetone	Mole fraction of 2-furancarboxylic acid	Solid-liquid equilibrium temperature, K	uncertainty
0.05	0.0101	280.15	2.75
0.1	0.0271	280.15	3.58
0.2	0.0763	280.15	5.32
0.3	0.122	280.15	6.67
0.5	0.1702	280.15	9.25
0.7	0.1843	280.15	1.58
0.9	0.1732	280.15	8.05
0.05	0.0137	285.15	2.64
0.1	0.0367	285.15	3.99
0.2	0.0891	285.15	5.36
0.3	0.1349	285.15	6.49
0.5	0.1807	285.15	8.63
0.7	0.1942	285.15	8.61
0.9	0.1844	285.15	7.77
0.05	0.0184	290.15	2.49
0.1	0.0468	290.15	4.1
0.2	0.104	290.15	5.23
0.3	0.1498	290.15	6.46
0.5	0.1932	290.15	8.29
0.7	0.2071	290.15	8.61
0.9	0.1978	290.15	7.51
0.05	0.0243	295.15	2.48
0.1	0.0579	295.15	4.02
0.2	0.1203	295.15	4.75
0.3	0.1643	295.15	6.67
0.5	0.2068	295.15	8.06
0.7	0.2201	295.15	8.8
0.9	0.2114	295.15	7.62
0.05	0.0317	300.15	2.43
0.1	0.0712	300.15	3.57
0.2	0.1373	300.15	4.89
0.3	0.1803	300.15	5.65
0.5	0.2221	300.15	8.53
0.7	0.2348	300.15	9.3
0.9	0.2261	300.15	7.58
0.05	0.0423	305.15	2.42
0.1	0.0857	305.15	3.32
0.2	0.1549	305.15	5.09
0.3	0.1967	305.15	6.19
0.5	0.2365	305.15	7.36
0.7	0.2485	305.15	7.92
0.9	0.2417	305.15	7.3
0.05	0.0556	310.15	2.31
0.1	0.104	310.15	3.1
0.2	0.1732	310.15	5.14
0.3	0.2125	310.15	6.49
0.5	0.2517	310.15	7.92
0.7	0.2641	310.15	8.58
0.9	0.2594	310.15	7.53
0.05	0.074	315.15	2.47
0.1	0.1286	315.15	3.2
0.2	0.1928	315.15	5.39
0.3	0.231	315.15	6.48
0.5	0.2685	315.15	8.05
0.7	0.2793	315.15	9.2
0.9	0.2763	315.15	8.19

System: ethanol + 2-furancarboxylic acid + water; phases: Liquid, Crystal
Fixed: Pressure, kPa = 101
Property: Solid-liquid equilibrium temperature, K (Liquid); method: VISOBS
Solvent: Mole fraction of ethanol	Mole fraction of 2-furancarboxylic acid	Solid-liquid equilibrium temperature, K	uncertainty
0.05	0.0028	280.15	2.64
0.1	0.0102	280.15	3.3
0.2	0.0389	280.15	4.75
0.3	0.0614	280.15	3.89
0.5	0.1123	280.15	5.74
0.7	0.1334	280.15	3.68
0.9	0.1442	280.15	4.33
0.05	0.0043	285.15	2.26
0.1	0.0141	285.15	3.25
0.2	0.0482	285.15	4.59
0.3	0.0754	285.15	4.18
0.5	0.1263	285.15	5.54
0.7	0.1491	285.15	4.62
0.9	0.1622	285.15	4.74
0.05	0.0066	290.15	1.91
0.1	0.0195	290.15	3.03
0.2	0.0594	290.15	3.2
0.3	0.0911	290.15	4.29
0.5	0.1415	290.15	5.7
0.7	0.1656	290.15	4.99
0.9	0.1815	290.15	5.04
0.05	0.0101	295.15	1.86
0.1	0.0268	295.15	3.03
0.2	0.0728	295.15	3.28
0.3	0.1084	295.15	3.97
0.5	0.1578	295.15	5.8
0.7	0.1828	295.15	5.4
0.9	0.202	295.15	5.36
0.05	0.0152	300.15	1.82
0.1	0.0365	300.15	2.65
0.2	0.0885	300.15	3.66
0.3	0.1271	300.15	4.07
0.5	0.1753	300.15	5.36
0.7	0.2007	300.15	5.84
0.9	0.2238	300.15	5.72
0.05	0.0226	305.15	1.77
0.1	0.0494	305.15	2.55
0.2	0.107	305.15	3.34
0.3	0.1471	305.15	4.24
0.5	0.1941	305.15	5.52
0.7	0.2192	305.15	4.93
0.9	0.2466	305.15	5.68
0.05	0.0334	310.15	1.65
0.1	0.0666	310.15	2.32
0.2	0.1287	310.15	3.33
0.3	0.168	310.15	4.18
0.5	0.2141	310.15	5.41
0.7	0.2483	310.15	5.38
0.9	0.2706	310.15	6.07
0.05	0.0489	315.15	1.88
0.1	0.0893	315.15	2.47
0.2	0.1538	315.15	3.52
0.3	0.1896	315.15	4.69
0.5	0.2354	315.15	5.88
0.7	0.2678	315.15	7.15
0.9	0.2957	315.15	6.4

System: 2-furancarboxylic acid + water; phases: Liquid, Crystal
Fixed: Pressure, kPa = 101
Property: Solid-liquid equilibrium temperature, K (Liquid); method: VISOBS
Mole fraction of 2-furancarboxylic acid	Solid-liquid equilibrium temperature, K	uncertainty
0.0032	284.85	1.07
0.0064	295.25	2.02
0.0079	299.45	2.41
0.0095	304.65	2.17
0.0127	310.65	1.82
0.0156	313.25	1.71
0.0184	316.85	1.78
0.022	319.45	1.14
0.0282	321.95	1.25
0.0342	324.75	1.61
