Measured thermophysical data. Density, Speed of Sound, Viscosity, and Excess Properties of Binary Mixtures Formed by Ethanol and Bis(trifluorosulfonyl)imide-Based Ionic Liquids
Source: J. Chem. Eng. Data, 2015, 10.1021/je500594z
Compound 1: 1-ethyl-3-methylimidazolium bis((trifluoromethyl)sulfonyl)imide, C8H11F6N3O4S2, InChI=1S/C6H11N2.C2F6NO4S2/c1-3-8-5-4-7(2)6-8;3-1(4,5)14(10,11)9-15(12,13)2(6,7)8/h4-6H,3H2,1-2H3;/q+1;-1, purity 99.9%
Compound 2: 1-butyl-3-methylimidazolium bis(trifluoromethylsulfonyl)imide, C10H15F6N3O4S2, InChI=1S/C8H15N2.C2F6NO4S2/c1-3-4-5-10-7-6-9(2)8-10;3-1(4,5)14(10,11)9-15(12,13)2(6,7)8/h6-8H,3-5H2,1-2H3;/q+1;-1, purity 99.9%
Compound 3: 1-hexyl-3-methylimidazolium bis[(trifluoromethyl)sulfonyl]imide, C12H19F6N3O4S2, InChI=1S/C10H19N2.C2F6NO4S2/c1-3-4-5-6-7-12-9-8-11(2)10-12;3-1(4,5)14(10,11)9-15(12,13)2(6,7)8/h8-10H,3-7H2,1-2H3;/q+1;-1, purity 99.9%
Compound 4: ethanol, C2H6O, InChI=1S/C2H6O/c1-2-3/h3H,2H2,1H3, purity 99.9%

System: 1-ethyl-3-methylimidazolium bis((trifluoromethyl)sulfonyl)imide; phases: Liquid
Fixed: Pressure, kPa = 101
Property: Mass density, kg/m3 (Liquid); method: Vibrating tube method
Temperature, K	Mass density, kg/m3	uncertainty
278.15	1538.23	0.25
298.15	1517.76	0.24
318.15	1497.65	0.23
338.15	1477.86	0.22

System: 1-ethyl-3-methylimidazolium bis((trifluoromethyl)sulfonyl)imide; phases: Liquid
Fixed: Pressure, kPa = 101
Property: Speed of sound, m/s (Liquid); method: Sing-around technique in a fixed-path interferometer
Temperature, K	Speed of sound, m/s	uncertainty
278.15	1284.91	0.66
298.15	1240.12	0.64
318.15	1196.62	0.63
338.15	1155.76	0.61

System: 1-ethyl-3-methylimidazolium bis((trifluoromethyl)sulfonyl)imide; phases: Liquid
Fixed: Pressure, kPa = 101
Property: Viscosity, Pa*s (Liquid); method: Falling or rolling sphere viscometry
Temperature, K	Viscosity, Pa*s	uncertainty
278.15	0.07508	0.00103
298.15	0.03202	0.00025
318.15	0.01732	0.00014
338.15	0.01082	8e-05

System: 1-butyl-3-methylimidazolium bis(trifluoromethylsulfonyl)imide; phases: Liquid
Fixed: Pressure, kPa = 101
Property: Mass density, kg/m3 (Liquid); method: Vibrating tube method
Temperature, K	Mass density, kg/m3	uncertainty
278.15	1453.69	0.21
298.15	1434.23	0.21
318.15	1415.13	0.2
338.15	1396.35	0.19

System: 1-butyl-3-methylimidazolium bis(trifluoromethylsulfonyl)imide; phases: Liquid
Fixed: Pressure, kPa = 101
Property: Speed of sound, m/s (Liquid); method: Sing-around technique in a fixed-path interferometer
Temperature, K	Speed of sound, m/s	uncertainty
278.15	1273.78	0.66
298.15	1227.52	0.64
318.15	1183.99	0.62
338.15	1142.7	0.61

System: 1-butyl-3-methylimidazolium bis(trifluoromethylsulfonyl)imide; phases: Liquid
Fixed: Pressure, kPa = 101
Property: Viscosity, Pa*s (Liquid); method: Falling or rolling sphere viscometry
Temperature, K	Viscosity, Pa*s	uncertainty
278.15	0.13982	0.00484
298.15	0.05122	0.00012
318.15	0.02436	0.00019
338.15	0.01394	0.00011

System: 1-hexyl-3-methylimidazolium bis[(trifluoromethyl)sulfonyl]imide; phases: Liquid
Fixed: Pressure, kPa = 101
Property: Mass density, kg/m3 (Liquid); method: Vibrating tube method
Temperature, K	Mass density, kg/m3	uncertainty
278.15	1390.3	0.19
298.15	1371.64	0.18
318.15	1353.31	0.17
338.15	1335.25	0.17

System: 1-hexyl-3-methylimidazolium bis[(trifluoromethyl)sulfonyl]imide; phases: Liquid
Fixed: Pressure, kPa = 101
Property: Speed of sound, m/s (Liquid); method: Sing-around technique in a fixed-path interferometer
Temperature, K	Speed of sound, m/s	uncertainty
278.15	1274.62	0.66
298.15	1226.82	0.64
318.15	1182.03	0.62
338.15	1139.28	0.61

System: 1-hexyl-3-methylimidazolium bis[(trifluoromethyl)sulfonyl]imide; phases: Liquid
Fixed: Pressure, kPa = 101
Property: Viscosity, Pa*s (Liquid); method: Falling or rolling sphere viscometry
Temperature, K	Viscosity, Pa*s	uncertainty
278.15	0.21131	0.01025
298.15	0.07046	0.00082
318.15	0.03022	0.00024

System: ethanol; phases: Liquid
Fixed: Pressure, kPa = 101
Property: Mass density, kg/m3 (Liquid); method: Vibrating tube method
Temperature, K	Mass density, kg/m3	uncertainty
278.15	802.39	0.11
298.15	785.32	0.12
318.15	767.84	0.12
338.15	749.54	0.13

System: ethanol; phases: Liquid
Fixed: Pressure, kPa = 101
Property: Speed of sound, m/s (Liquid); method: Sing-around technique in a fixed-path interferometer
Temperature, K	Speed of sound, m/s	uncertainty
278.15	1212.93	0.64
298.15	1143.07	0.61
318.15	1075.67	0.58
338.15	1009.39	0.56

System: ethanol; phases: Liquid
Fixed: Pressure, kPa = 101
Property: Viscosity, Pa*s (Liquid); method: Falling or rolling sphere viscometry
Temperature, K	Viscosity, Pa*s	uncertainty
278.15	0.00159	1e-05
298.15	0.00108	1e-05
318.15	0.00077	1e-05
338.15	0.00056	1e-05

System: ethanol + 1-ethyl-3-methylimidazolium bis((trifluoromethyl)sulfonyl)imide; phases: Liquid
Fixed: Pressure, kPa = 101
Property: Mass density, kg/m3 (Liquid); method: Vibrating tube method
Temperature, K	Mole fraction of 1-ethyl-3-methylimidazolium bis((trifluoromethyl)sulfonyl)imide	Mass density, kg/m3	uncertainty
278.15	0	802.39	0.11
278.15	0.051	946.21	0.14
278.15	0.102	1052.67	0.18
278.15	0.198	1191.39	0.26
278.15	0.292	1281.48	0.28
278.15	0.402	1356.04	0.3
278.15	0.501	1405.04	0.29
278.15	0.619	1449.8	0.25
278.15	0.71	1476.96	0.24
278.15	0.811	1502.1	0.24
278.15	0.907	1521.68	0.24
278.15	1	1538.23	0.25
298.15	0	785.32	0.12
298.15	0.051	927.85	0.14
298.15	0.102	1033.54	0.17
298.15	0.198	1171.44	0.26
298.15	0.292	1261.14	0.27
298.15	0.402	1335.52	0.29
298.15	0.501	1384.32	0.28
298.15	0.619	1429.22	0.24
298.15	0.71	1456.41	0.23
298.15	0.811	1481.59	0.23
298.15	0.907	1501.19	0.23
298.15	1	1517.76	0.24
318.15	0	767.84	0.12
318.15	0.051	909.21	0.14
318.15	0.102	1014.18	0.17
318.15	0.198	1151.39	0.25
318.15	0.292	1240.83	0.27
318.15	0.402	1315.11	0.29
318.15	0.501	1363.99	0.28
318.15	0.619	1408.9	0.24
318.15	0.71	1436.15	0.22
318.15	0.811	1461.4	0.22
318.15	0.907	1481.05	0.23
318.15	1	1497.65	0.23
338.15	0	749.54	0.13
338.15	0.051	889.98	0.15
338.15	0.102	994.4	0.17
338.15	0.198	1131.14	0.25
338.15	0.292	1220.47	0.26
338.15	0.402	1294.8	0.28
338.15	0.501	1343.74	0.27
338.15	0.619	1388.81	0.23
338.15	0.71	1416.16	0.21
338.15	0.811	1441.5	0.21
338.15	0.907	1461.23	0.22
338.15	1	1477.86	0.22

System: ethanol + 1-ethyl-3-methylimidazolium bis((trifluoromethyl)sulfonyl)imide; phases: Liquid
Fixed: Pressure, kPa = 101
Property: Speed of sound, m/s (Liquid); method: Sing-around technique in a fixed-path interferometer
Temperature, K	Mole fraction of 1-ethyl-3-methylimidazolium bis((trifluoromethyl)sulfonyl)imide	Speed of sound, m/s	uncertainty
278.15	0	1212.93	0.64
278.15	0.051	1201.4	0.63
278.15	0.102	1199.91	0.63
278.15	0.198	1210.57	0.63
278.15	0.292	1224.43	0.64
278.15	0.402	1239.13	0.65
278.15	0.501	1250.35	0.65
278.15	0.619	1261.17	0.65
278.15	0.71	1268.14	0.66
278.15	0.811	1274.82	0.66
278.15	0.907	1279.99	0.66
278.15	1	1284.91	0.66
298.15	0	1143.07	0.61
298.15	0.051	1139.3	0.61
298.15	0.102	1142.58	0.61
298.15	0.198	1158.16	0.61
298.15	0.292	1174.52	0.62
298.15	0.402	1190.87	0.63
298.15	0.501	1203	0.63
298.15	0.619	1214.59	0.64
298.15	0.71	1221.97	0.64
298.15	0.811	1228.98	0.64
298.15	0.907	1234.39	0.64
298.15	1	1240.12	0.64
318.15	0	1075.67	0.58
318.15	0.051	1079.42	0.58
318.15	0.102	1087.3	0.59
318.15	0.198	1107.66	0.6
318.15	0.292	1126.45	0.6
318.15	0.402	1144.47	0.61
318.15	0.501	1157.59	0.62
318.15	0.619	1170.01	0.62
318.15	0.71	1177.86	0.62
318.15	0.811	1185.35	0.62
318.15	0.907	1191.16	0.63
318.15	1	1196.62	0.63
338.15	0	1009.39	0.56
338.15	0.051	1020.73	0.56
338.15	0.102	1033.24	0.57
338.15	0.198	1058.32	0.58
338.15	0.292	1079.67	0.59
338.15	0.402	1099.7	0.59
338.15	0.501	1113.92	0.6
338.15	0.619	1127.34	0.6
338.15	0.71	1135.61	0.61
338.15	0.811	1143.69	0.61
338.15	0.907	1149.96	0.61
338.15	1	1155.76	0.61

System: ethanol + 1-ethyl-3-methylimidazolium bis((trifluoromethyl)sulfonyl)imide; phases: Liquid
Fixed: Pressure, kPa = 101
Property: Viscosity, Pa*s (Liquid); method: Falling or rolling sphere viscometry
Temperature, K	Mole fraction of 1-ethyl-3-methylimidazolium bis((trifluoromethyl)sulfonyl)imide	Viscosity, Pa*s	uncertainty
278.15	0	0.00159	1e-05
278.15	0.051	0.00242	2e-05
278.15	0.102	0.00344	3e-05
278.15	0.198	0.0059	5e-05
278.15	0.292	0.00891	7e-05
278.15	0.402	0.01341	0.00011
278.15	0.501	0.01824	0.00014
278.15	0.619	0.02583	0.0002
278.15	0.71	0.03319	0.00026
278.15	0.811	0.04383	0.00034
278.15	0.907	0.05633	0.00023
278.15	1	0.07508	0.00103
298.15	0	0.00108	1e-05
298.15	0.051	0.00157	1e-05
298.15	0.102	0.00216	2e-05
298.15	0.198	0.00347	3e-05
298.15	0.292	0.00502	4e-05
298.15	0.402	0.00716	6e-05
298.15	0.501	0.00966	8e-05
298.15	0.619	0.01322	0.0001
298.15	0.71	0.01641	0.00013
298.15	0.811	0.02091	0.00016
298.15	0.907	0.02567	0.0002
298.15	1	0.03202	0.00025
318.15	0	0.00077	1e-05
318.15	0.051	0.00109	1e-05
318.15	0.102	0.00146	1e-05
318.15	0.198	0.00227	2e-05
318.15	0.292	0.00321	3e-05
318.15	0.402	0.00459	4e-05
318.15	0.501	0.00585	5e-05
318.15	0.619	0.00784	6e-05
318.15	0.71	0.00967	8e-05
318.15	0.811	0.01196	9e-05
318.15	0.907	0.01435	0.00011
318.15	1	0.01732	0.00014
338.15	0	0.00056	1e-05
338.15	0.051	0.00079	1e-05
338.15	0.102	0.00105	1e-05
338.15	0.198	0.0016	1e-05
338.15	0.292	0.00223	2e-05
338.15	0.402	0.00316	3e-05
338.15	0.501	0.00399	3e-05
338.15	0.619	0.00523	4e-05
338.15	0.71	0.00635	5e-05
338.15	0.811	0.0077	6e-05
338.15	0.907	0.00911	7e-05
338.15	1	0.01082	8e-05

System: ethanol + 1-butyl-3-methylimidazolium bis(trifluoromethylsulfonyl)imide; phases: Liquid
Fixed: Pressure, kPa = 101
Property: Mass density, kg/m3 (Liquid); method: Vibrating tube method
Temperature, K	Mole fraction of 1-butyl-3-methylimidazolium bis(trifluoromethylsulfonyl)imide	Mass density, kg/m3	uncertainty
278.15	0	802.39	0.11
278.15	0.049	939.65	0.13
278.15	0.096	1032.42	0.15
278.15	0.194	1162.65	0.23
278.15	0.288	1241.69	0.24
278.15	0.39	1300.98	0.25
278.15	0.484	1340.75	0.25
278.15	0.591	1375.63	0.22
278.15	0.696	1401.82	0.2
278.15	0.818	1426.17	0.21
278.15	0.9	1439.65	0.21
278.15	1	1453.69	0.21
298.15	0	785.32	0.12
298.15	0.049	921.49	0.13
298.15	0.096	1013.65	0.15
298.15	0.194	1143.26	0.23
298.15	0.288	1222.07	0.24
298.15	0.39	1281.27	0.25
298.15	0.484	1321.04	0.24
298.15	0.591	1355.98	0.21
298.15	0.696	1382.23	0.2
298.15	0.818	1406.65	0.2
298.15	0.9	1420.19	0.2
298.15	1	1434.23	0.21
318.15	0	767.84	0.12
318.15	0.049	903.02	0.14
318.15	0.096	994.64	0.15
318.15	0.194	1123.77	0.23
318.15	0.288	1202.45	0.23
318.15	0.39	1261.65	0.24
318.15	0.484	1301.51	0.24
318.15	0.591	1336.54	0.21
318.15	0.696	1362.91	0.19
318.15	0.818	1387.44	0.19
318.15	0.9	1401.04	0.19
318.15	1	1415.13	0.2
338.15	0	749.54	0.13
338.15	0.049	883.95	0.14
338.15	0.096	975.18	0.15
338.15	0.194	1104.04	0.23
338.15	0.288	1182.73	0.23
338.15	0.39	1242.06	0.24
338.15	0.484	1282.08	0.23
338.15	0.591	1317.28	0.2
338.15	0.696	1343.8	0.18
338.15	0.818	1368.47	0.18
338.15	0.9	1382.15	0.19
338.15	1	1396.35	0.19

System: ethanol + 1-butyl-3-methylimidazolium bis(trifluoromethylsulfonyl)imide; phases: Liquid
Fixed: Pressure, kPa = 101
Property: Speed of sound, m/s (Liquid); method: Sing-around technique in a fixed-path interferometer
Temperature, K	Mole fraction of 1-butyl-3-methylimidazolium bis(trifluoromethylsulfonyl)imide	Speed of sound, m/s	uncertainty
278.15	0	1212.93	0.64
278.15	0.049	1204.59	0.63
278.15	0.096	1204.48	0.63
278.15	0.194	1213.94	0.64
278.15	0.288	1225.36	0.64
278.15	0.39	1237.09	0.64
278.15	0.484	1245.52	0.65
278.15	0.591	1253.55	0.65
278.15	0.696	1260.01	0.65
278.15	0.818	1266.28	0.65
278.15	0.9	1269.84	0.66
278.15	1	1273.78	0.66
298.15	0	1143.07	0.61
298.15	0.049	1142.44	0.61
298.15	0.096	1146.39	0.61
298.15	0.194	1160.7	0.62
298.15	0.288	1174.61	0.62
298.15	0.39	1187.98	0.63
298.15	0.484	1197.38	0.63
298.15	0.591	1206.18	0.63
298.15	0.696	1213.19	0.63
298.15	0.818	1219.85	0.64
298.15	0.9	1223.63	0.64
298.15	1	1227.52	0.64
318.15	0	1075.67	0.58
318.15	0.049	1082.05	0.59
318.15	0.096	1090.03	0.59
318.15	0.194	1109.13	0.6
318.15	0.288	1125.52	0.6
318.15	0.39	1140.52	0.61
318.15	0.484	1150.77	0.61
318.15	0.591	1160.65	0.62
318.15	0.696	1168.28	0.62
318.15	0.818	1175.6	0.62
318.15	0.9	1179.73	0.62
318.15	1	1183.99	0.62
338.15	0	1009.39	0.56
338.15	0.049	1022.47	0.56
338.15	0.096	1034.5	0.57
338.15	0.194	1058.47	0.58
338.15	0.288	1077.42	0.59
338.15	0.39	1094.23	0.59
338.15	0.484	1105.77	0.6
338.15	0.591	1116.53	0.6
338.15	0.696	1124.94	0.6
338.15	0.818	1133	0.6
338.15	0.9	1137.58	0.61
338.15	1	1142.7	0.61

System: ethanol + 1-butyl-3-methylimidazolium bis(trifluoromethylsulfonyl)imide; phases: Liquid
Fixed: Pressure, kPa = 101
Property: Viscosity, Pa*s (Liquid); method: Falling or rolling sphere viscometry
Temperature, K	Mole fraction of 1-butyl-3-methylimidazolium bis(trifluoromethylsulfonyl)imide	Viscosity, Pa*s	uncertainty
278.15	0	0.00159	1e-05
278.15	0.049	0.00264	2e-05
278.15	0.096	0.0038	3e-05
278.15	0.194	0.0074	6e-05
278.15	0.288	0.01259	0.0001
278.15	0.39	0.01882	0.00015
278.15	0.484	0.02693	0.00021
278.15	0.591	0.038	0.0003
278.15	0.696	0.05296	0.00015
278.15	0.818	0.07799	0.00117
278.15	0.9	0.09943	0.0023
278.15	1	0.13982	0.00484
298.15	0	0.00108	1e-05
298.15	0.049	0.00171	1e-05
298.15	0.096	0.00235	2e-05
298.15	0.194	0.00413	3e-05
298.15	0.288	0.00664	5e-05
298.15	0.39	0.0095	8e-05
298.15	0.484	0.01292	0.0001
298.15	0.591	0.0173	0.00014
298.15	0.696	0.02286	0.00018
298.15	0.818	0.03121	0.00024
298.15	0.9	0.03805	0.0003
298.15	1	0.05122	0.00012
318.15	0	0.00077	1e-05
318.15	0.049	0.00118	1e-05
318.15	0.096	0.00157	1e-05
318.15	0.194	0.00261	2e-05
318.15	0.288	0.00395	3e-05
318.15	0.39	0.00562	4e-05
318.15	0.484	0.00752	6e-05
318.15	0.591	0.00976	8e-05
318.15	0.696	0.01242	0.0001
318.15	0.818	0.01616	0.00013
318.15	0.9	0.01903	0.00015
318.15	1	0.02436	0.00019
338.15	0	0.00056	1e-05
338.15	0.049	0.00085	1e-05
338.15	0.096	0.00112	1e-05
338.15	0.194	0.00179	2e-05
338.15	0.288	0.00271	2e-05
338.15	0.39	0.0037	3e-05
338.15	0.484	0.00486	4e-05
338.15	0.591	0.00626	5e-05
338.15	0.696	0.00779	6e-05
338.15	0.818	0.00983	8e-05
338.15	0.9	0.01128	9e-05
338.15	1	0.01394	0.00011

System: ethanol + 1-hexyl-3-methylimidazolium bis[(trifluoromethyl)sulfonyl]imide; phases: Liquid
Fixed: Pressure, kPa = 101
Property: Mass density, kg/m3 (Liquid); method: Vibrating tube method
Temperature, K	Mole fraction of 1-hexyl-3-methylimidazolium bis[(trifluoromethyl)sulfonyl]imide	Mass density, kg/m3	uncertainty
278.15	0	802.39	0.11
278.15	0.047	933.23	0.12
278.15	0.097	1026.67	0.14
278.15	0.198	1146.24	0.21
278.15	0.292	1215.04	0.21
278.15	0.39	1263.14	0.22
278.15	0.47	1292.55	0.21
278.15	0.596	1327.21	0.19
278.15	0.694	1347.34	0.18
278.15	0.799	1364.86	0.18
278.15	0.903	1379.2	0.18
278.15	1	1390.3	0.19
298.15	0	785.32	0.12
298.15	0.047	915.22	0.13
298.15	0.097	1008.17	0.14
298.15	0.198	1127.27	0.21
298.15	0.292	1195.96	0.21
298.15	0.39	1244.05	0.22
298.15	0.47	1273.5	0.2
298.15	0.596	1308.27	0.19
298.15	0.694	1328.48	0.17
298.15	0.799	1346.07	0.17
298.15	0.903	1360.48	0.18
298.15	1	1371.64	0.18
318.15	0	767.84	0.12
318.15	0.047	896.92	0.13
318.15	0.097	989.44	0.14
318.15	0.198	1108.22	0.21
318.15	0.292	1176.89	0.21
318.15	0.39	1225.05	0.21
318.15	0.47	1254.61	0.2
318.15	0.596	1289.55	0.18
318.15	0.694	1309.88	0.17
318.15	0.799	1327.59	0.17
318.15	0.903	1342.08	0.17
318.15	1	1353.31	0.17
338.15	0	749.54	0.13
338.15	0.047	878.04	0.14
338.15	0.097	970.28	0.14
338.15	0.198	1088.96	0.21
338.15	0.292	1157.75	0.2
338.15	0.39	1206.1	0.21
338.15	0.47	1235.83	0.19
338.15	0.596	1271.01	0.17
338.15	0.694	1291.5	0.16
338.15	0.799	1309.35	0.16
338.15	0.903	1323.94	0.16
338.15	1	1335.25	0.17

System: ethanol + 1-hexyl-3-methylimidazolium bis[(trifluoromethyl)sulfonyl]imide; phases: Liquid
Fixed: Pressure, kPa = 101
Property: Speed of sound, m/s (Liquid); method: Sing-around technique in a fixed-path interferometer
Temperature, K	Mole fraction of 1-hexyl-3-methylimidazolium bis[(trifluoromethyl)sulfonyl]imide	Speed of sound, m/s	uncertainty
278.15	0	1212.93	0.64
278.15	0.047	1208.67	0.63
278.15	0.097	1211.38	0.63
278.15	0.198	1222.68	0.64
278.15	0.292	1233.87	0.64
278.15	0.39	1242.85	0.65
278.15	0.47	1250.28	0.65
278.15	0.596	1258.09	0.65
278.15	0.694	1262.62	0.65
278.15	0.799	1267.19	0.66
278.15	0.903	1271.2	0.66
278.15	1	1274.62	0.66
298.15	0	1143.07	0.61
298.15	0.047	1145.72	0.61
298.15	0.097	1152.54	0.61
298.15	0.198	1168.44	0.62
298.15	0.292	1181.86	0.62
298.15	0.39	1192.3	0.63
298.15	0.47	1200.59	0.63
298.15	0.596	1209.19	0.63
298.15	0.694	1214.06	0.64
298.15	0.799	1218.93	0.64
298.15	0.903	1223.11	0.64
298.15	1	1226.82	0.64
318.15	0	1075.67	0.58
318.15	0.047	1085.05	0.59
318.15	0.097	1095.93	0.59
318.15	0.198	1116.28	0.6
318.15	0.292	1131.92	0.61
318.15	0.39	1143.84	0.61
318.15	0.47	1153.05	0.61
318.15	0.596	1162.64	0.62
318.15	0.694	1168	0.62
318.15	0.799	1173.41	0.62
318.15	0.903	1178.03	0.62
318.15	1	1182.03	0.62
338.15	0	1009.39	0.56
338.15	0.047	1025.63	0.56
338.15	0.097	1040.64	0.57
338.15	0.198	1065.52	0.58
338.15	0.292	1083.47	0.59
338.15	0.39	1096.99	0.59
338.15	0.47	1107.22	0.6
338.15	0.596	1117.99	0.6
338.15	0.694	1124.01	0.6
338.15	0.799	1130.04	0.6
338.15	0.903	1135.19	0.6
338.15	1	1139.28	0.61

System: ethanol + 1-hexyl-3-methylimidazolium bis[(trifluoromethyl)sulfonyl]imide; phases: Liquid
Fixed: Pressure, kPa = 101
Property: Viscosity, Pa*s (Liquid); method: Falling or rolling sphere viscometry
Temperature, K	Mole fraction of 1-hexyl-3-methylimidazolium bis[(trifluoromethyl)sulfonyl]imide	Viscosity, Pa*s	uncertainty
278.15	0	0.00159	1e-05
278.15	0.047	0.00269	2e-05
278.15	0.097	0.00432	3e-05
278.15	0.198	0.00953	8e-05
278.15	0.292	0.01627	0.00013
278.15	0.39	0.02573	0.0002
278.15	0.47	0.03573	0.00029
278.15	0.596	0.05691	0.00026
278.15	0.694	0.07917	0.00123
278.15	0.799	0.11254	0.00307
278.15	0.903	0.15454	0.00587
278.15	1	0.21131	0.01025
298.15	0	0.00108	1e-05
298.15	0.047	0.00173	1e-05
298.15	0.097	0.00261	2e-05
298.15	0.198	0.00498	4e-05
298.15	0.292	0.00797	6e-05
298.15	0.39	0.0121	0.0001
298.15	0.47	0.01594	0.00013
298.15	0.596	0.02372	0.00019
298.15	0.694	0.0313	0.00025
298.15	0.799	0.04144	0.00033
298.15	0.903	0.0537	0.00017
298.15	1	0.07046	0.00082
318.15	0	0.00077	1e-05
318.15	0.047	0.00118	1e-05
318.15	0.097	0.00171	1e-05
318.15	0.198	0.00305	2e-05
318.15	0.292	0.00464	4e-05
318.15	0.39	0.0067	5e-05
318.15	0.47	0.00861	7e-05
318.15	0.596	0.01233	0.0001
318.15	0.694	0.01572	0.00012
318.15	0.799	0.02013	0.00016
318.15	0.903	0.02494	0.0002
318.15	1	0.03022	0.00024
