Measured thermophysical data. Solubilities of Adipic Acid and Succinic Acid in Glutaric Acid + Acetone or n-butanol Mixture
Source: J. Chem. Eng. Data, 2014, 10.1021/je500682v
Compound 1: acetone, C3H6O, InChI=1S/C3H6O/c1-3(2)4/h1-2H3, purity 99.5%
Compound 2: butan-1-ol, C4H10O, InChI=1S/C4H10O/c1-2-3-4-5/h5H,2-4H2,1H3, purity 99.5%
Compound 3: 1,6-hexanedioic acid, C6H10O4, InChI=1S/C6H10O4/c7-5(8)3-1-2-4-6(9)10/h1-4H2,(H,7,8)(H,9,10), purity 99.5%
Compound 4: butanedioic acid, C4H6O4, InChI=1S/C4H6O4/c5-3(6)1-2-4(7)8/h1-2H2,(H,5,6)(H,7,8), purity 99.5%
Compound 5: 1,5-pentanedioic acid, C5H8O4, InChI=1S/C5H8O4/c6-4(7)2-1-3-5(8)9/h1-3H2,(H,6,7)(H,8,9), purity 99.5%

System: 1,6-hexanedioic acid; phases: Crystal, Liquid, Air at 1 atmosphere
Property: Normal melting temperature, K (Crystal); method: DTA
Normal melting temperature, K	uncertainty
425.15	0.99

System: 1,6-hexanedioic acid; phases: Crystal, Liquid, Air at 1 atmosphere
Property: Molar enthalpy of transition or fusion, kJ/mol (Crystal); method: DSC
Molar enthalpy of transition or fusion, kJ/mol	uncertainty
35.15	1.95

System: butanedioic acid; phases: Crystal, Liquid, Air at 1 atmosphere
Property: Normal melting temperature, K (Crystal); method: DTA
Normal melting temperature, K	uncertainty
458.65	0.99

System: butanedioic acid; phases: Crystal, Liquid, Air at 1 atmosphere
Property: Molar enthalpy of transition or fusion, kJ/mol (Crystal); method: DSC
Molar enthalpy of transition or fusion, kJ/mol	uncertainty
32.72	1.82

System: 1,5-pentanedioic acid; phases: Crystal, Liquid, Air at 1 atmosphere
Property: Normal melting temperature, K (Crystal); method: DTA
Normal melting temperature, K	uncertainty
372.25	0.99

System: 1,5-pentanedioic acid; phases: Crystal, Liquid, Air at 1 atmosphere
Property: Molar enthalpy of transition or fusion, kJ/mol (Crystal); method: DSC
Molar enthalpy of transition or fusion, kJ/mol	uncertainty
21.2	1.19

System: acetone + butanedioic acid + 1,5-pentanedioic acid; phases: Liquid, Crystal
Fixed: Pressure, kPa = 101
Property: Mole fraction of butanedioic acid (Liquid); method: laser monitoring system
Solvent: Mass fraction of 1,5-pentanedioic acid	Temperature, K	Mole fraction of butanedioic acid	uncertainty
0	287.55	0.01294	0.00159
0	290.25	0.01403	0.00159
0	292.95	0.0149	0.00159
0	296.55	0.01621	0.00159
0	299.45	0.01724	0.00159
0	302.55	0.01846	0.00159
0	306.15	0.01987	0.00159
0	308.75	0.02137	0.00159
0	311.95	0.02303	0.00159
0	315.85	0.02484	0.00159
0.0976	284.95	0.01263	0.00159
0.0976	287.3	0.01376	0.00159
0.0976	290.55	0.01501	0.00159
0.0976	294.05	0.01645	0.00159
0.0976	297.45	0.01796	0.00159
0.0976	301.05	0.01966	0.00159
0.0976	304.95	0.0215	0.00159
0.0976	308.05	0.02352	0.00159
0.0976	311.6	0.02569	0.00159
0.0976	315.15	0.02812	0.00159
0.198	288.85	0.01494	0.00159
0.198	291.65	0.01604	0.00159
0.198	294.95	0.01726	0.00159
0.198	297.85	0.01867	0.00159
0.198	301.3	0.02029	0.00159
0.198	305	0.02207	0.00159
0.198	308.55	0.02416	0.00159
0.198	312.75	0.02638	0.00159
0.198	316.35	0.02881	0.00159
0.2973	286.45	0.0136	0.00159
0.2973	288.65	0.01465	0.00159
0.2973	292.35	0.01621	0.00159
0.2973	295.35	0.01762	0.00159
0.2973	298.55	0.01928	0.00159
0.2973	301.75	0.02108	0.00159
0.2973	305.05	0.02301	0.00159
0.2973	308.65	0.0251	0.00159
0.2973	311.7	0.0273	0.00159
0.2973	315.35	0.02957	0.00159

System: acetone + 1,5-pentanedioic acid + 1,6-hexanedioic acid; phases: Liquid, Crystal
Fixed: Pressure, kPa = 101
Property: Mole fraction of 1,6-hexanedioic acid (Liquid); method: laser monitoring system
Solvent: Mass fraction of 1,5-pentanedioic acid	Temperature, K	Mole fraction of 1,6-hexanedioic acid	uncertainty
0	284.95	0.01035	0.0008
0	286.65	0.01106	0.0008
0	289.05	0.01181	0.0008
0	290.55	0.01257	0.0008
0	292.55	0.01341	0.0008
0	294.25	0.01431	0.0008
0	296.35	0.01531	0.0008
0	298.75	0.01648	0.0008
0	301.1	0.01803	0.0008
0	303.85	0.01985	0.0008
0	306.65	0.02203	0.00081
0	309.85	0.02444	0.00081
0	313	0.02716	0.00081
0.1	284.25	0.01108	0.0008
0.1	286.25	0.01185	0.0008
0.1	288.15	0.01265	0.0008
0.1	289.65	0.01332	0.0008
0.1	291.25	0.01405	0.0008
0.1	292.75	0.01481	0.0008
0.1	294.4	0.01569	0.0008
0.1	296.3	0.01663	0.0008
0.1	298	0.01756	0.0008
0.1	299.55	0.01853	0.0008
0.1	301.15	0.01948	0.0008
0.1	302.3	0.02054	0.0008
0.1	304.15	0.02162	0.0008
0.1	305.75	0.02279	0.0008
0.1	307.4	0.02398	0.0008
0.1	309.05	0.02514	0.00081
0.1	310.4	0.02628	0.00081
0.2	288.25	0.01344	0.001
0.2	289.85	0.01425	0.001
0.2	291.25	0.01504	0.001
0.2	292.9	0.01595	0.001
0.2	294.65	0.01691	0.001
0.2	296.3	0.01788	0.001
0.2	297.75	0.01882	0.001
0.2	299.35	0.01986	0.001
0.2	300.9	0.02093	0.001
0.2	302.45	0.022	0.001
0.2	303.9	0.0232	0.001
0.2	305.7	0.02443	0.001
0.2	307.2	0.02559	0.001
0.2	308.65	0.02684	0.00101
0.2	309.95	0.02808	0.00101
0.2	311.35	0.02939	0.00101
0.3	291.55	0.01558	0.001
0.3	292.7	0.01649	0.001
0.3	294.75	0.01747	0.001
0.3	296.2	0.01854	0.001
0.3	297.85	0.01957	0.001
0.3	299.25	0.02061	0.001
0.3	300.75	0.02175	0.001
0.3	302.45	0.02288	0.001
0.3	303.8	0.02412	0.00101
0.3	305.35	0.02542	0.00101
0.3	306.75	0.02675	0.00101
0.3	308.2	0.028	0.00101
0.3	309.65	0.0293	0.00101
0.3	310.9	0.03064	0.00101
0.3	312.3	0.03207	0.00101

System: butan-1-ol + butanedioic acid + 1,5-pentanedioic acid; phases: Liquid, Crystal
Fixed: Pressure, kPa = 101
Property: Mole fraction of butanedioic acid (Liquid); method: laser monitoring system
Solvent: Mass fraction of 1,5-pentanedioic acid	Temperature, K	Mole fraction of butanedioic acid	uncertainty
0	304.95	0.02375	0.00318
0	307.75	0.0266	0.00318
0	310.95	0.02994	0.00318
0	314.95	0.03396	0.00318
0	318.95	0.03869	0.00319
0	323.25	0.04418	0.00319
0	328.45	0.05071	0.00319
0	332.45	0.05746	0.00319
0	336.65	0.06525	0.00319
0	339.95	0.07384	0.0032
0	343.45	0.08349	0.0032
0	347.05	0.09449	0.00321
0	350.25	0.10717	0.00322
0	353.45	0.12223	0.00323
0	357.15	0.14025	0.00323
0.2011	303.7	0.01798	0.00318
0.2011	306.4	0.01994	0.00318
0.2011	310.15	0.02275	0.00318
0.2011	314.45	0.02652	0.00318
0.2011	319.2	0.03156	0.00318
0.2011	323.95	0.03796	0.00319
0.2011	328.55	0.04544	0.00319
0.2011	333.7	0.05414	0.00319
0.2011	338	0.06401	0.00319
0.2011	342.25	0.0754	0.0032
0.2011	346.6	0.08837	0.0032
0.2011	350.95	0.10373	0.00321
0.2011	354.95	0.12138	0.00324
0.3011	305.75	0.01837	0.00318
0.3011	307.75	0.02061	0.00318
0.3011	311.2	0.02363	0.00318
0.3011	314.25	0.02695	0.00318
0.3011	317.8	0.0313	0.00319
0.3011	321.35	0.03648	0.00319
0.3011	326.85	0.04329	0.00319
0.3011	331.45	0.05166	0.00319
0.3011	336.05	0.06175	0.00319
0.3011	340.75	0.07398	0.0032
0.3011	345.45	0.08857	0.00321
0.3011	349.85	0.10584	0.00322
0.3011	354.25	0.12685	0.00323

System: butan-1-ol + 1,5-pentanedioic acid + 1,6-hexanedioic acid; phases: Liquid, Crystal
Fixed: Pressure, kPa = 101
Property: Mole fraction of 1,6-hexanedioic acid (Liquid); method: laser monitoring system
Solvent: Mass fraction of 1,5-pentanedioic acid	Temperature, K	Mole fraction of 1,6-hexanedioic acid	uncertainty
0	304.95	0.03117	0.00319
0	307.25	0.03412	0.00319
0	309.6	0.03715	0.00319
0	312.4	0.04069	0.00319
0	314.8	0.04442	0.00319
0	317.7	0.0487	0.00319
0	319.85	0.0536	0.00319
0	322.35	0.05882	0.00319
0	324.65	0.0643	0.00319
0	327.25	0.07012	0.00319
0	330.05	0.07708	0.0032
0	332.75	0.08508	0.0032
0	335.45	0.09373	0.00321
0	337.65	0.10296	0.00321
0	340.25	0.11309	0.00322
0	342.65	0.12453	0.00323
0	345.1	0.1377	0.00326
0	348.6	0.16155	0.00327
0	351.95	0.18425	0.00329
0	353.65	0.19908	0.00333
0.1999	305.75	0.02701	0.00318
0.1999	310.05	0.03247	0.00319
0.1999	314.25	0.03883	0.00319
0.1999	318.45	0.04649	0.00319
0.1999	322.25	0.05504	0.00319
0.1999	325.75	0.05983	0.00319
0.1999	329.05	0.0706	0.0032
0.1999	333.2	0.08217	0.00321
0.1999	336.05	0.09548	0.00322
0.1999	337.7	0.10252	0.00322
0.1999	340.95	0.11782	0.00322
0.1999	342.95	0.12601	0.00323
0.1999	344.35	0.13498	0.00325
0.1999	346.15	0.14497	0.00326
0.1999	347.75	0.15504	0.00326
0.1999	349.45	0.16585	0.00328
0.1999	350.95	0.17752	0.00332
0.1999	352.05	0.19005	0.00352
0.1999	352.95	0.20341	0.00343
0.1999	354.65	0.22183	0.00337
0.3011	304.7	0.02358	0.00319
0.3011	306.35	0.02588	0.00319
0.3011	308.35	0.02855	0.00319
0.3011	310.75	0.03188	0.00319
0.3011	313.5	0.03617	0.00319
0.3011	316.5	0.04161	0.00319
0.3011	319.1	0.04822	0.00319
0.3011	322.35	0.0554	0.00319
0.3011	327.05	0.0638	0.00319
0.3011	330.05	0.07343	0.0032
0.3011	332.7	0.08348	0.00321
0.3011	335.75	0.09463	0.00321
0.3011	338.9	0.10718	0.00323
0.3011	341.35	0.12142	0.00324
0.3011	344.65	0.13959	0.00326
0.3011	347.55	0.16072	0.00332
0.3011	349.95	0.18698	0.00335
0.3011	353.15	0.21596	0.00334

System: acetone + butanedioic acid; phases: Liquid, Crystal
Fixed: Pressure, kPa = 101
Property: Mole fraction of butanedioic acid (Liquid); method: laser monitoring system
Temperature, K	Mole fraction of butanedioic acid	uncertainty
287.55	0.01294	0.00159
290.25	0.01403	0.00159
292.95	0.0149	0.00159
296.55	0.01621	0.00159
299.45	0.01724	0.00159
302.55	0.01846	0.00159
306.15	0.01987	0.00159
308.75	0.02137	0.00159
311.95	0.02303	0.00159
315.85	0.02484	0.00159

System: acetone + 1,6-hexanedioic acid; phases: Liquid, Crystal
Fixed: Pressure, kPa = 101
Property: Mole fraction of 1,6-hexanedioic acid (Liquid); method: laser monitoring system
Temperature, K	Mole fraction of 1,6-hexanedioic acid	uncertainty
284.95	0.01035	0.0008
286.65	0.01106	0.0008
289.05	0.01181	0.0008
290.55	0.01257	0.0008
292.55	0.01341	0.0008
294.25	0.01431	0.0008
296.35	0.01531	0.0008
298.75	0.01648	0.0008
301.1	0.01803	0.0008
303.85	0.01985	0.0008
306.65	0.02203	0.00081
309.85	0.02444	0.00081
313	0.02716	0.00081

System: butan-1-ol + butanedioic acid; phases: Liquid, Crystal
Fixed: Pressure, kPa = 101
Property: Mole fraction of butanedioic acid (Liquid); method: laser monitoring system
Temperature, K	Mole fraction of butanedioic acid	uncertainty
304.95	0.02375	0.00318
307.75	0.0266	0.00318
310.95	0.02994	0.00318
314.95	0.03396	0.00318
318.95	0.03869	0.00319
323.25	0.04418	0.00319
328.45	0.05071	0.00319
332.45	0.05746	0.00319
336.65	0.06525	0.00319
339.95	0.07384	0.0032
343.45	0.08349	0.0032
347.05	0.09449	0.00321
350.25	0.10717	0.00322
353.45	0.12223	0.00323
357.15	0.14025	0.00323

System: butan-1-ol + 1,6-hexanedioic acid; phases: Liquid, Crystal
Fixed: Pressure, kPa = 101
Property: Mole fraction of 1,6-hexanedioic acid (Liquid); method: laser monitoring system
Temperature, K	Mole fraction of 1,6-hexanedioic acid	uncertainty
304.95	0.03117	0.00319
307.25	0.03412	0.00319
309.6	0.03715	0.00319
312.4	0.04069	0.00319
314.8	0.04442	0.00319
317.7	0.0487	0.00319
319.85	0.0536	0.00319
322.35	0.05882	0.00319
324.65	0.0643	0.00319
327.25	0.07012	0.00319
330.05	0.07708	0.0032
332.75	0.08508	0.0032
335.45	0.09373	0.00321
337.65	0.10296	0.00321
340.25	0.11309	0.00322
342.65	0.12453	0.00323
345.1	0.1377	0.00326
348.6	0.16155	0.00327
351.95	0.18425	0.00329
353.65	0.19908	0.00333
