Measured thermophysical data. Determination and Correlation of Solubilities of Lithium Bis(oxalate)borate in Six Different Solvents from (293.15 to 363.15) K
Source: J. Chem. Eng. Data, 2014, 10.1021/je500068b
Compound 1: lithium bis(oxalate)borate, C4BLiO8, InChI=1S/C4BO8.Li/c6-1-2(7)11-5(10-1)12-3(8)4(9)13-5;/q-1;+1, purity 99%
Compound 2: 4-methyl-1,3-dioxolan-2-one, C4H6O3, InChI=1S/C4H6O3/c1-3-2-6-4(5)7-3/h3H,2H2,1H3, purity 99.5%
Compound 3: tetrahydrofuran, C4H8O, InChI=1S/C4H8O/c1-2-4-5-3-1/h1-4H2, purity 99.9%
Compound 4: .gamma.-butyrolactone, C4H6O2, InChI=1S/C4H6O2/c5-4-2-1-3-6-4/h1-3H2, purity 99%
Compound 5: dimethylformamide, C3H7NO, InChI=1S/C3H7NO/c1-4(2)3-5/h3H,1-2H3, purity 99.8%
Compound 6: dimethyl sulfoxide, C2H6OS, InChI=1S/C2H6OS/c1-4(2)3/h1-2H3, purity 99%
Compound 7: acetonitrile, C2H3N, InChI=1S/C2H3N/c1-2-3/h1H3, purity 99.9%

System: .gamma.-butyrolactone + lithium bis(oxalate)borate; phases: Liquid, Crystal
Fixed: Pressure, kPa = 101
Property: Mole fraction of lithium bis(oxalate)borate (Liquid); method: Titration method
Temperature, K	Mole fraction of lithium bis(oxalate)borate	uncertainty
293.15	0.10022	0.00602
303.15	0.07962	0.00479
313.15	0.04639	0.00279
323.15	0.03723	0.00224
333.15	0.02479	0.00149
343.15	0.01627	0.00098
353.15	0.00783	0.00047
363.15	0.00503	0.0003

System: dimethylformamide + lithium bis(oxalate)borate; phases: Liquid, Crystal
Fixed: Pressure, kPa = 101
Property: Mole fraction of lithium bis(oxalate)borate (Liquid); method: Titration method
Temperature, K	Mole fraction of lithium bis(oxalate)borate	uncertainty
293.15	0.11375	0.00684
303.15	0.08377	0.00504
313.15	0.06576	0.00395
323.15	0.06121	0.00368
333.15	0.04045	0.00243
343.15	0.03976	0.00239
353.15	0.03235	0.00194
363.15	0.02301	0.00138

System: tetrahydrofuran + lithium bis(oxalate)borate; phases: Liquid, Crystal
Fixed: Pressure, kPa = 101
Property: Mole fraction of lithium bis(oxalate)borate (Liquid); method: Titration method
Temperature, K	Mole fraction of lithium bis(oxalate)borate	uncertainty
293.15	0.04787	0.00288
303.15	0.03308	0.00199
313.15	0.02694	0.00162
323.15	0.02288	0.00137
333.15	0.01724	0.00104

System: dimethyl sulfoxide + lithium bis(oxalate)borate; phases: Liquid, Crystal
Fixed: Pressure, kPa = 101
Property: Mole fraction of lithium bis(oxalate)borate (Liquid); method: Titration method
Temperature, K	Mole fraction of lithium bis(oxalate)borate	uncertainty
293.15	0.14842	0.00891
303.15	0.13927	0.00836
313.15	0.13602	0.00817
323.15	0.11345	0.00681
333.15	0.09678	0.00581
343.15	0.08248	0.00495
353.15	0.07735	0.00464
363.15	0.06972	0.00419

System: 4-methyl-1,3-dioxolan-2-one + lithium bis(oxalate)borate; phases: Liquid, Crystal
Fixed: Pressure, kPa = 101
Property: Mole fraction of lithium bis(oxalate)borate (Liquid); method: Titration method
Temperature, K	Mole fraction of lithium bis(oxalate)borate	uncertainty
293.15	0.03929	0.00236
313.15	0.03119	0.00187
323.15	0.02495	0.0015
333.15	0.0106	0.00065
343.15	0.00266	0.00017
353.15	0.00218	0.00013
363.15	0.00132	8e-05

System: acetonitrile + lithium bis(oxalate)borate; phases: Liquid, Crystal
Fixed: Pressure, kPa = 101
Property: Mole fraction of lithium bis(oxalate)borate (Liquid); method: Titration method
Temperature, K	Mole fraction of lithium bis(oxalate)borate	uncertainty
293.15	0.00893	0.00054
303.15	0.00869	0.00052
313.15	0.00803	0.00048
323.15	0.00777	0.00047
333.15	0.00566	0.00034
343.15	0.00297	0.00018
