Measured thermophysical data. Solubility and Thermodynamic Properties of (2S)-Pyrrolidine-2-carboxylic Acid in Water, Alcohols, and Water Alcohol Mixtures
Source: J. Chem. Eng. Data, 2015, 10.1021/je5007949
Compound 1: L-proline, C5H9NO2, InChI=1S/C5H9NO2/c7-5(8)4-2-1-3-6-4/h4,6H,1-3H2,(H,7,8)/t4-/m0/s1, purity 99.9%
Compound 2: methanol, CH4O, InChI=1S/CH4O/c1-2/h2H,1H3, purity 99.9%
Compound 3: ethanol, C2H6O, InChI=1S/C2H6O/c1-2-3/h3H,2H2,1H3, purity 99.9%
Compound 4: butan-1-ol, C4H10O, InChI=1S/C4H10O/c1-2-3-4-5/h5H,2-4H2,1H3, purity 99.9%
Compound 5: propan-2-ol, C3H8O, InChI=1S/C3H8O/c1-3(2)4/h3-4H,1-2H3, purity 99.9%
Compound 6: water, H2O, InChI=1S/H2O/h1H2, purity 99.9%

System: methanol + L-proline; phases: Liquid, Crystal
Fixed: Pressure, kPa = 101
Property: Mole fraction of L-proline (Liquid); method: laser monitoring technique
Temperature, K	Mole fraction of L-proline	uncertainty
291.15	0.048897	0.001962
301.15	0.0597	0.002395
311.15	0.076104	0.003053
321.15	0.092507	0.003709
331.15	0.107051	0.004291

System: ethanol + L-proline; phases: Liquid, Crystal
Fixed: Pressure, kPa = 101
Property: Mole fraction of L-proline (Liquid); method: laser monitoring technique
Temperature, K	Mole fraction of L-proline	uncertainty
298.15	0.004472	0.00018
308.15	0.006423	0.000258
318.15	0.008521	0.000343
328.15	0.012314	0.000495
338.15	0.016217	0.000652
348.15	0.022925	0.000921

System: butan-1-ol + L-proline; phases: Liquid, Crystal
Fixed: Pressure, kPa = 101
Property: Mole fraction of L-proline (Liquid); method: laser monitoring technique
Temperature, K	Mole fraction of L-proline	uncertainty
298.15	0.002177	8.8e-05
308.15	0.0032	0.000129
318.15	0.004085	0.000164
328.15	0.005427	0.000218
338.15	0.006772	0.000272
348.15	0.008078	0.000324

System: propan-2-ol + L-proline; phases: Liquid, Crystal
Fixed: Pressure, kPa = 101
Property: Mole fraction of L-proline (Liquid); method: laser monitoring technique
Temperature, K	Mole fraction of L-proline	uncertainty
298.15	0.000767	3.1e-05
308.15	0.001192	4.8e-05
318.15	0.001737	7e-05
328.15	0.002268	9.1e-05
338.15	0.002993	0.00012
348.15	0.003741	0.00015

System: methanol + L-proline + water; phases: Liquid, Crystal
Fixed: Pressure, kPa = 101
Property: Mole fraction of L-proline (Liquid); method: Laser Monitoring Technique
Solvent: Mole fraction of methanol	Temperature, K	Mole fraction of L-proline	uncertainty
0	291.15	0.196125	0.00786
0	301.15	0.221423	0.008873
0	311.15	0.244402	0.009792
0	321.15	0.26395	0.010574
0	331.15	0.280041	0.011219
0.1998	291.15	0.206082	0.00826
0.1998	301.15	0.231487	0.009275
0.1998	311.15	0.250575	0.010039
0.1998	321.15	0.26714	0.010702
0.1998	331.15	0.283239	0.011346
0.4001	291.15	0.201765	0.008085
0.4001	301.15	0.213501	0.008553
0.4001	311.15	0.227706	0.009122
0.4001	321.15	0.240535	0.009637
0.4001	331.15	0.263112	0.010541
0.6018	291.15	0.162304	0.006504
0.6018	301.15	0.175797	0.007043
0.6018	311.15	0.190717	0.007641
0.6018	321.15	0.207983	0.008333
0.6018	331.15	0.22958	0.009198
0.7998	291.15	0.109712	0.004398
0.7998	301.15	0.123418	0.004946
0.7998	311.15	0.139977	0.00561
0.7998	321.15	0.159714	0.006401
0.7998	331.15	0.180452	0.007229
1	291.15	0.048897	0.001962
1	301.15	0.0597	0.002395
1	311.15	0.076104	0.003053
1	321.15	0.092507	0.003709
1	331.15	0.107051	0.004291

System: ethanol + L-proline + water; phases: Liquid, Crystal
Fixed: Pressure, kPa = 101
Property: Mole fraction of L-proline (Liquid); method: Laser Monitoring Technique
Solvent: Mole fraction of ethanol	Temperature, K	Mole fraction of L-proline	uncertainty
0	298.15	0.214083	0.008579
0	308.15	0.237844	0.00953
0	318.15	0.258543	0.010358
0	328.15	0.275584	0.01104
0	338.15	0.28884	0.01157
0	348.15	0.298125	0.011942
0.2012	298.15	0.216107	0.008664
0.2012	308.15	0.240583	0.009641
0.2012	318.15	0.270922	0.010855
0.2012	328.15	0.289178	0.011586
0.2012	338.15	0.317831	0.012733
0.2012	348.15	0.334908	0.013416
0.3987	298.15	0.186303	0.007469
0.3987	308.15	0.210225	0.008423
0.3987	318.15	0.224162	0.008981
0.3987	328.15	0.244412	0.009793
0.3987	338.15	0.268668	0.010763
0.3987	348.15	0.278299	0.011148
0.5913	298.15	0.136878	0.005488
0.5913	308.15	0.149782	0.006001
0.5913	318.15	0.161812	0.006483
0.5913	328.15	0.180998	0.007253
0.5913	338.15	0.204355	0.008189
0.5913	348.15	0.22676	0.009084
0.7952	298.15	0.051337	0.002056
0.7952	308.15	0.065175	0.002614
0.7952	318.15	0.079634	0.003194
0.7952	328.15	0.095973	0.003847
0.7952	338.15	0.11082	0.004442
0.7952	348.15	0.130785	0.005241
1	298.15	0.004472	0.00018
1	308.15	0.006423	0.000258
1	318.15	0.008521	0.000343
1	328.15	0.012314	0.000495
1	338.15	0.016217	0.000652
1	348.15	0.022925	0.000921

System: propan-2-ol + L-proline + water; phases: Liquid, Crystal
Fixed: Pressure, kPa = 101
Property: Mole fraction of L-proline (Liquid); method: Laser Monitoring Technique
Solvent: Mole fraction of propan-2-ol	Temperature, K	Mole fraction of L-proline	uncertainty
0	298.15	0.214083	0.008579
0	308.15	0.237844	0.00953
0	318.15	0.258543	0.010358
0	328.15	0.275584	0.01104
0	338.15	0.28884	0.01157
0	348.15	0.298125	0.011942
0.1987	298.15	0.198013	0.007945
0.1987	308.15	0.230797	0.009249
0.1987	318.15	0.253829	0.01017
0.1987	328.15	0.272007	0.010897
0.1987	338.15	0.291222	0.011667
0.1987	348.15	0.309061	0.01238
0.4014	298.15	0.139011	0.005577
0.4014	308.15	0.169199	0.006784
0.4014	318.15	0.198948	0.007973
0.4014	328.15	0.217261	0.008704
0.4014	338.15	0.233153	0.009341
0.4014	348.15	0.248915	0.009971
0.6011	298.15	0.079172	0.003182
0.6011	308.15	0.105117	0.004217
0.6011	318.15	0.124546	0.004992
0.6011	328.15	0.141668	0.005677
0.6011	338.15	0.156458	0.006269
0.6011	348.15	0.168601	0.006754
0.7924	298.15	0.021852	0.000876
0.7924	308.15	0.031203	0.001253
0.7924	318.15	0.039569	0.001587
0.7924	328.15	0.04791	0.00192
0.7924	338.15	0.056684	0.002272
0.7924	348.15	0.062426	0.002512
1	298.15	0.000767	3.1e-05
1	308.15	0.001192	4.8e-05
1	318.15	0.001737	7e-05
1	328.15	0.002268	9.1e-05
1	338.15	0.002993	0.00012
1	348.15	0.003741	0.00015

System: L-proline + water; phases: Liquid, Crystal
Fixed: Pressure, kPa = 101
Property: Mole fraction of L-proline (Liquid); method: Laser Monitoring Technique
Temperature, K	Mole fraction of L-proline	uncertainty
291.15	0.196125	0.00786
301.15	0.221423	0.008873
311.15	0.244402	0.009792
321.15	0.26395	0.010574
331.15	0.280041	0.011219
298.15	0.214083	0.008579
308.15	0.237844	0.00953
318.15	0.258543	0.010358
328.15	0.275584	0.01104
338.15	0.28884	0.01157
348.15	0.298125	0.011942
