Measured thermophysical data. Solubilities of 1,1'-[1,2-Ethanediylbis(oxy-1,2-ethanediyl)]bis-[3-methyl-1H-imidazolium-1-yl] Dihexafluorophosphate in Water, Methanol, Ethanol, Dimethylformamide, Dimethyl Sulfoxide, and (Acetone + Water) Binary Solvent Mixtures
Source: J. Chem. Eng. Data, 2014, 10.1021/je5004466
Compound 1: water, H2O, InChI=1S/H2O/h1H2, purity 99.9%
Compound 2: methanol, CH4O, InChI=1S/CH4O/c1-2/h2H,1H3, purity 99.7%
Compound 3: ethanol, C2H6O, InChI=1S/C2H6O/c1-2-3/h3H,2H2,1H3, purity 99.5%
Compound 4: dimethylformamide, C3H7NO, InChI=1S/C3H7NO/c1-4(2)3-5/h3H,1-2H3, purity 99.7%
Compound 5: dimethyl sulfoxide, C2H6OS, InChI=1S/C2H6OS/c1-4(2)3/h1-2H3, purity 99.5%
Compound 6: acetone, C3H6O, InChI=1S/C3H6O/c1-3(2)4/h1-2H3, purity 99.7%
Compound 7: 1,1'-[ethane-1,2-diylbis(oxyethane-2,1-diyl)]bis(3-methylimidazolium) hexafluorophosphate, C14H24F12N4O2P2, InChI=1S/C14H24N4O2.2F6P/c1-15-3-5-17(13-15)7-9-19-11-12-20-10-8-18-6-4-16(2)14-18;2*1-7(2,3,4,5)6/h3-6,13-14H,7-12H2,1-2H3;;/q+2;2*-1, purity 99%

System: 1,1'-[ethane-1,2-diylbis(oxyethane-2,1-diyl)]bis(3-methylimidazolium) hexafluorophosphate; phases: Crystal, Liquid, Air at 1 atmosphere
Property: Normal melting temperature, K (Crystal); method: VISOBS
Normal melting temperature, K	uncertainty
364	2

System: water + 1,1'-[ethane-1,2-diylbis(oxyethane-2,1-diyl)]bis(3-methylimidazolium) hexafluorophosphate; phases: Liquid, Crystal
Fixed: Pressure, kPa = 101
Property: Mole fraction of 1,1'-[ethane-1,2-diylbis(oxyethane-2,1-diyl)]bis(3-methylimidazolium) hexafluorophosphate (Liquid); method: gravimetric
Temperature, K	Mole fraction of 1,1'-[ethane-1,2-diylbis(oxyethane-2,1-diyl)]bis(3-methylimidazolium) hexafluorophosphate	uncertainty
283	0.000151	6e-06
288	0.000196	8e-06
293	0.000255	1e-05
298	0.000335	1.3e-05
303	0.000427	1.7e-05
308	0.00055	2.2e-05
313	0.000706	2.8e-05
318	0.000886	3.6e-05
323	0.001124	4.5e-05

System: methanol + 1,1'-[ethane-1,2-diylbis(oxyethane-2,1-diyl)]bis(3-methylimidazolium) hexafluorophosphate; phases: Liquid, Crystal
Fixed: Pressure, kPa = 101
Property: Mole fraction of 1,1'-[ethane-1,2-diylbis(oxyethane-2,1-diyl)]bis(3-methylimidazolium) hexafluorophosphate (Liquid); method: gravimetric
Temperature, K	Mole fraction of 1,1'-[ethane-1,2-diylbis(oxyethane-2,1-diyl)]bis(3-methylimidazolium) hexafluorophosphate	uncertainty
283	0.000195	8e-06
288	0.000233	9e-06
293	0.000284	1.1e-05
298	0.000367	1.5e-05
303	0.000504	2e-05
308	0.000713	2.9e-05
313	0.001055	4.2e-05
318	0.001622	6.5e-05
323	0.002587	0.000104

System: ethanol + 1,1'-[ethane-1,2-diylbis(oxyethane-2,1-diyl)]bis(3-methylimidazolium) hexafluorophosphate; phases: Liquid, Crystal
Fixed: Pressure, kPa = 101
Property: Mole fraction of 1,1'-[ethane-1,2-diylbis(oxyethane-2,1-diyl)]bis(3-methylimidazolium) hexafluorophosphate (Liquid); method: gravimetric
Temperature, K	Mole fraction of 1,1'-[ethane-1,2-diylbis(oxyethane-2,1-diyl)]bis(3-methylimidazolium) hexafluorophosphate	uncertainty
283	3.4e-05	1e-06
288	4.1e-05	2e-06
293	4.8e-05	2e-06
298	5.8e-05	2e-06
303	7.3e-05	3e-06
308	9.3e-05	4e-06
313	0.000116	5e-06
318	0.000153	6e-06
323	0.000201	8e-06

System: dimethylformamide + 1,1'-[ethane-1,2-diylbis(oxyethane-2,1-diyl)]bis(3-methylimidazolium) hexafluorophosphate; phases: Liquid, Crystal
Fixed: Pressure, kPa = 101
Property: Mole fraction of 1,1'-[ethane-1,2-diylbis(oxyethane-2,1-diyl)]bis(3-methylimidazolium) hexafluorophosphate (Liquid); method: gravimetric
Temperature, K	Mole fraction of 1,1'-[ethane-1,2-diylbis(oxyethane-2,1-diyl)]bis(3-methylimidazolium) hexafluorophosphate	uncertainty
283	0.097989	0.003925
288	0.10145	0.00406
293	0.10514	0.00421
298	0.108851	0.00436
303	0.112728	0.004516
308	0.116719	0.004675
313	0.120858	0.004841
318	0.125119	0.005012
323	0.129518	0.005188

System: dimethyl sulfoxide + 1,1'-[ethane-1,2-diylbis(oxyethane-2,1-diyl)]bis(3-methylimidazolium) hexafluorophosphate; phases: Liquid, Crystal
Fixed: Pressure, kPa = 101
Property: Mole fraction of 1,1'-[ethane-1,2-diylbis(oxyethane-2,1-diyl)]bis(3-methylimidazolium) hexafluorophosphate (Liquid); method: gravimetric
Temperature, K	Mole fraction of 1,1'-[ethane-1,2-diylbis(oxyethane-2,1-diyl)]bis(3-methylimidazolium) hexafluorophosphate	uncertainty
293	0.106345	0.004261
298	0.119269	0.004778
303	0.130668	0.005235
308	0.140119	0.005613
313	0.14719	0.005896
318	0.15191	0.006085
323	0.153734	0.006158

System: acetone + water + 1,1'-[ethane-1,2-diylbis(oxyethane-2,1-diyl)]bis(3-methylimidazolium) hexafluorophosphate; phases: Liquid, Crystal
Fixed: Pressure, kPa = 101
Property: Mole fraction of 1,1'-[ethane-1,2-diylbis(oxyethane-2,1-diyl)]bis(3-methylimidazolium) hexafluorophosphate (Liquid); method: gravimetric
Solvent: Mass fraction of water	Temperature, K	Mole fraction of 1,1'-[ethane-1,2-diylbis(oxyethane-2,1-diyl)]bis(3-methylimidazolium) hexafluorophosphate	uncertainty
0.1	283	0.070042	0.002806
0.1	288	0.076442	0.003062
0.1	293	0.083457	0.003343
0.1	298	0.091111	0.00365
0.1	303	0.099478	0.003985
0.1	308	0.108622	0.004352
0.1	313	0.118581	0.004751
0.1	318	0.129451	0.005186
0.1	323	0.141313	0.005661
0.2	283	0.052185	0.002091
0.2	288	0.058508	0.002344
0.2	293	0.065593	0.002628
0.2	298	0.073558	0.002947
0.2	303	0.082487	0.003305
0.2	308	0.09252	0.003707
0.2	313	0.103731	0.004156
0.2	318	0.116308	0.00466
0.2	323	0.130387	0.005224
0.3	283	0.032619	0.001307
0.3	288	0.038347	0.001537
0.3	293	0.0450898	0.0018071
0.3	298	0.053028	0.002125
0.3	303	0.0623371	0.0024983
0.3	308	0.073358	0.00294
0.3	313	0.086278	0.003458
0.3	318	0.101446	0.004066
0.3	323	0.119269	0.004779
0.4	283	0.020345	0.000816
0.4	288	0.02478	0.00099
0.4	293	0.03014	0.00121
0.4	298	0.03678	0.00147
0.4	303	0.045067	0.001807
0.4	308	0.054989	0.002204
0.4	313	0.066969	0.002685
0.4	318	0.081645	0.003273
0.4	323	0.099541	0.003989
0.5	283	0.009571	0.000383
0.5	288	0.012564	0.000504
0.5	293	0.015911	0.000638
0.5	298	0.020534	0.000824
0.5	303	0.026482	0.001062
0.5	308	0.034161	0.00137
0.5	313	0.044016	0.001765
0.5	318	0.056823	0.002279
0.5	323	0.07327	0.00294
0.6	283	0.005447	0.000218
0.6	288	0.006881	0.000276
0.6	293	0.008655	0.000347
0.6	298	0.01088	0.000436
0.6	303	0.013745	0.000551
0.6	308	0.017278	0.000693
0.6	313	0.021689	0.00087
0.6	318	0.027399	0.001099
0.6	323	0.034489	0.001385
0.7	283	0.001345	5.4e-05
0.7	288	0.001809	7.3e-05
0.7	293	0.002408	9.7e-05
0.7	298	0.003213	0.000129
0.7	303	0.004325	0.000174
0.7	308	0.00576	0.000231
0.7	313	0.007721	0.00031
0.7	318	0.010329	0.000414
0.7	323	0.013825	0.000557
0.8	283	0.000633	2.5e-05
0.8	288	0.0008351	3.35e-05
0.8	293	0.001079	4.3e-05
0.8	298	0.001392	5.6e-05
0.8	303	0.00182	7e-05
0.8	308	0.002351	9.4e-05
0.8	313	0.003058	0.000123
0.8	318	0.003979	0.00016
0.8	323	0.00515	0.00021
0.9	283	0.000224	9e-06
0.9	288	0.000301	1.2e-05
0.9	293	0.000405	1.6e-05
0.9	298	0.000548	2.2e-05
0.9	303	0.000701	2.8e-05
0.9	308	0.000911	3.7e-05
0.9	313	0.00114	5e-05
0.9	318	0.00146	6e-05
0.9	323	0.00175	7e-05
