Measured thermophysical data. Solubilities of Naringin and Naringenin in Different Solvents and Dissociation Constants of Naringenin
Source: J. Chem. Eng. Data, 2015, 10.1021/je501004g
Compound 1: 4',5,7-trihydroxyflavanone, C15H12O5, InChI=1S/C15H12O5/c16-9-3-1-8(2-4-9)13-7-12(19)15-11(18)5-10(17)6-14(15)20-13/h1-6,13,16-18H,7H2, purity 99%
Compound 2: naringin, C27H32O14, InChI=1S/C27H32O14/c1-10-20(32)22(34)24(36)26(37-10)41-25-23(35)21(33)18(9-28)40-27(25)38-13-6-14(30)19-15(31)8-16(39-17(19)7-13)11-2-4-12(29)5-3-11/h2-7,10,16,18,20-30,32-36H,8-9H2,1H3/t10-,16-,18+,20-,21+,22+,23-,24+,25+,26-,27+/m0/s1, purity 99%
Compound 3: methanol, CH4O, InChI=1S/CH4O/c1-2/h2H,1H3, purity 98%
Compound 4: propan-2-ol, C3H8O, InChI=1S/C3H8O/c1-3(2)4/h3-4H,1-2H3, purity 98%
Compound 5: ethyl acetate, C4H8O2, InChI=1S/C4H8O2/c1-3-6-4(2)5/h3H2,1-2H3, purity 98%
Compound 6: butan-1-ol, C4H10O, InChI=1S/C4H10O/c1-2-3-4-5/h5H,2-4H2,1H3, purity 98%
Compound 7: hexane, C6H14, InChI=1S/C6H14/c1-3-5-6-4-2/h3-6H2,1-2H3, purity 98%

System: methanol + naringin; phases: Liquid, Crystal
Fixed: Pressure, kPa = 100
Property: Mole fraction of naringin (Liquid); method: UV-vis spectrophotometry
Temperature, K	Mole fraction of naringin	uncertainty
288.15	0.0015812	0.0002013
293.15	0.0016783	0.0002138
298.15	0.0019689	0.0002509
303.15	0.0022401	0.0002855
308.15	0.0026448	0.0003369
313.15	0.0029084	0.0003704
318.15	0.00322	0.0004101
323.15	0.0035868	0.0004568
328.15	0.0038904	0.0004954

System: propan-2-ol + naringin; phases: Liquid, Crystal
Fixed: Pressure, kPa = 100
Property: Mole fraction of naringin (Liquid); method: UV-vis spectrophotometry
Temperature, K	Mole fraction of naringin	uncertainty
288.15	1.2606e-05	1.61e-06
293.15	1.5887e-05	2.029e-06
298.15	2.0983e-05	2.677e-06
303.15	2.459e-05	3.135e-06
308.15	2.9661e-05	3.78e-06
313.15	3.3419e-05	4.257e-06
318.15	3.7453e-05	4.771e-06
323.15	4.2889e-05	5.464e-06
328.15	4.7915e-05	6.103e-06

System: ethyl acetate + naringin; phases: Liquid, Crystal
Fixed: Pressure, kPa = 100
Property: Mole fraction of naringin (Liquid); method: UV-vis spectrophotometry
Temperature, K	Mole fraction of naringin	uncertainty
288.15	0.00018407	2.357e-05
293.15	0.00024839	3.172e-05
298.15	0.00030962	3.947e-05
303.15	0.00035035	4.464e-05
308.15	0.00040408	5.148e-05
313.15	0.00045755	5.829e-05
318.15	0.00051292	6.535e-05
323.15	0.00059383	7.564e-05
328.15	0.00064568	8.222e-05

System: butan-1-ol + naringin; phases: Liquid, Crystal
Fixed: Pressure, kPa = 100
Property: Mole fraction of naringin (Liquid); method: UV-vis spectrophotometry
Temperature, K	Mole fraction of naringin	uncertainty
288.15	4.848e-05	6.2e-06
293.15	6.343e-05	8.09e-06
298.15	7.459e-05	9.53e-06
303.15	0.00010541	1.352e-05
308.15	0.00015659	2.006e-05
313.15	0.00021799	2.787e-05
318.15	0.00028472	3.633e-05
323.15	0.00034471	4.393e-05
328.15	0.00039148	4.987e-05

System: hexane + naringin; phases: Liquid, Crystal
Fixed: Pressure, kPa = 100
Property: Mole fraction of naringin (Liquid); method: UV-vis spectrophotometry
Temperature, K	Mole fraction of naringin	uncertainty
288.15	9.973e-08	1.279e-08
293.15	1.3899e-07	1.776e-08
298.15	1.7478e-07	2.231e-08
303.15	2.2104e-07	2.819e-08
308.15	2.6301e-07	3.353e-08
313.15	3.1198e-07	3.976e-08
318.15	3.5984e-07	4.584e-08
323.15	4.039e-07	5.145e-08
328.15	4.5484e-07	5.794e-08

System: methanol + 4',5,7-trihydroxyflavanone; phases: Liquid, Crystal
Fixed: Pressure, kPa = 100
Property: Mole fraction of 4',5,7-trihydroxyflavanone (Liquid); method: UV-vis spectrophotometry
Temperature, K	Mole fraction of 4',5,7-trihydroxyflavanone	uncertainty
288.15	0.008747	0.002227
293.15	0.009398	0.002393
298.15	0.009909	0.002523
303.15	0.010461	0.002663
308.15	0.011388	0.0029
313.15	0.014426	0.003674
318.15	0.017252	0.004393
323.15	0.018719	0.004766
328.15	0.020486	0.005216

System: propan-2-ol + 4',5,7-trihydroxyflavanone; phases: Liquid, Crystal
Fixed: Pressure, kPa = 100
Property: Mole fraction of 4',5,7-trihydroxyflavanone (Liquid); method: UV-vis spectrophotometry
Temperature, K	Mole fraction of 4',5,7-trihydroxyflavanone	uncertainty
288.15	0.010089	0.001286
293.15	0.011558	0.001473
298.15	0.014072	0.001794
303.15	0.016148	0.002058
308.15	0.018543	0.002362
313.15	0.020444	0.002603
318.15	0.021803	0.002777
323.15	0.025178	0.003206
328.15	0.026353	0.003355

System: ethyl acetate + 4',5,7-trihydroxyflavanone; phases: Liquid, Crystal
Fixed: Pressure, kPa = 100
Property: Mole fraction of 4',5,7-trihydroxyflavanone (Liquid); method: UV-vis spectrophotometry
Temperature, K	Mole fraction of 4',5,7-trihydroxyflavanone	uncertainty
288.15	0.009981	0.001277
293.15	0.013288	0.001695
298.15	0.015433	0.001966
303.15	0.017076	0.002175
308.15	0.019079	0.00243
313.15	0.021548	0.002745
318.15	0.024416	0.00311
323.15	0.027031	0.003442
328.15	0.029258	0.003726

System: butan-1-ol + 4',5,7-trihydroxyflavanone; phases: Liquid, Crystal
Fixed: Pressure, kPa = 100
Property: Mole fraction of 4',5,7-trihydroxyflavanone (Liquid); method: UV-vis spectrophotometry
Temperature, K	Mole fraction of 4',5,7-trihydroxyflavanone	uncertainty
288.15	0.0009721	0.0001248
293.15	0.0013749	0.0001757
298.15	0.0017455	0.0002227
303.15	0.0021472	0.0002738
308.15	0.0025856	0.0003296
313.15	0.0029879	0.0003807
318.15	0.0034446	0.0004389
323.15	0.00388	0.0004941
328.15	0.0041971	0.0005344

System: hexane + 4',5,7-trihydroxyflavanone; phases: Liquid, Crystal
Fixed: Pressure, kPa = 100
Property: Mole fraction of 4',5,7-trihydroxyflavanone (Liquid); method: UV-vis spectrophotometry
Temperature, K	Mole fraction of 4',5,7-trihydroxyflavanone	uncertainty
288.15	2.9179e-06	3.727e-07
293.15	3.6967e-06	4.719e-07
298.15	4.7074e-06	6.002e-07
303.15	5.4191e-06	6.907e-07
308.15	6.4568e-06	8.227e-07
313.15	7.1742e-06	9.136e-07
318.15	7.7329e-06	9.848e-07
323.15	8.6913e-06	1.1067e-06
328.15	9.0944e-06	1.1578e-06
