Measured thermophysical data. Solid Liquid Equilibria of the Ternary System CsBr REBr3 H2O (RE = La, Ce) at 298.15 K, Thermal Properties of Cs2REBr5*10H2O, and Fluorescent Properties of Cs2CeBr5*10H2O
Source: J. Chem. Eng. Data, 2014, 10.1021/je500495n
Compound 1: cesium bromide, BrCs, InChI=1S/BrH.Cs/h1H;/q;+1/p-1, purity 99.9%
Compound 2: water, H2O, InChI=1S/H2O/h1H2, purity 99.9%
Compound 3: lanthanum tribromide, Br3La, InChI=1S/3BrH.La/h3*1H;/q;;;+3/p-3, purity 99.8%
Compound 4: cerium tribromide, Br3Ce, InChI=1S/3BrH.Ce/h3*1H;/q;;;+3/p-3, purity 99.8%
Compound 5: dicesium lanthanum(III) pentabromide decahydrate, Br5Cs2H20LaO10, InChI=1S/5BrH.2Cs.La.10H2O/h5*1H;;;;10*1H2/q;;;;;2*+1;+3;;;;;;;;;;/p-5, purity 99.8%
Compound 6: cerium(III) dicesium pentabromide decahydrate, Br5CeCs2H20O10, InChI=1S/5BrH.Ce.2Cs.10H2O/h5*1H;;;;10*1H2/q;;;;;+3;2*+1;;;;;;;;;;/p-5, purity 99.8%

System: water + cesium bromide + lanthanum tribromide; phases: Liquid, Crystal
Fixed: Temperature, K = 298.15
Fixed: Pressure, kPa = 101
Property: Mass fraction of lanthanum tribromide (Liquid); method: Titration method
Mass fraction of cesium bromide	Mass fraction of lanthanum tribromide	uncertainty
0.5551	0	
0.4829	0.0656	0.0076
0.4251	0.1208	0.0077
0.3618	0.183	0.0078
0.3132	0.2376	0.0079
0.2791	0.2793	0.0082
0.2374	0.3359	0.0085
0.2133	0.38	0.0094
0.1941	0.4193	0.0096

System: water + cesium bromide + lanthanum tribromide; phases: Liquid, Crystal of intercomponent compound 1
Fixed: Temperature, K = 298.15
Fixed: Pressure, kPa = 101
Property: Mass fraction of lanthanum tribromide (Liquid); method: Titration method
Mass fraction of cesium bromide	Mass fraction of lanthanum tribromide	uncertainty
0.1126	0.5428	0.0078
0.1188	0.5503	0.0081
0.1068	0.563	0.0105
0.0969	0.582	0.0094

System: water + cesium bromide + lanthanum tribromide; phases: Liquid, Crystal of intercomponent compound 1
Fixed: Temperature, K = 298.15
Fixed: Pressure, kPa = 101
Property: Mass fraction of lanthanum tribromide (Liquid); method: Titration method
Mass fraction of cesium bromide	Mass fraction of lanthanum tribromide	uncertainty
0.072	0.6009	0.0072
0.0513	0.6077	0.0073
0	0.6373	0.0071

System: water + cesium bromide + lanthanum tribromide; phases: Liquid, Crystal, Crystal of intercomponent compound 1
Fixed: Temperature, K = 298.15
Fixed: Pressure, kPa = 101
Property: Mass fraction of lanthanum tribromide (Liquid); method: Titration method
Mass fraction of lanthanum tribromide	uncertainty
0.4796	0.0071
0.4852	0.0071

System: water + cesium bromide + lanthanum tribromide; phases: Liquid, Crystal of intercomponent compound 1, Crystal of intercomponent compound 2
Fixed: Temperature, K = 298.15
Fixed: Pressure, kPa = 101
Property: Mass fraction of lanthanum tribromide (Liquid); method: Titration method
Mass fraction of lanthanum tribromide	uncertainty
0.582	0.0071
0.584	0.0071
0.5815	0.0071
0.5833	0.0071
0.5838	0.0071

System: water + cesium bromide + lanthanum tribromide; phases: Liquid, Crystal, Crystal of intercomponent compound 1
Fixed: Temperature, K = 298.15
Fixed: Pressure, kPa = 101
Property: Mass fraction of cesium bromide (Liquid); method: Titration method
Mass fraction of cesium bromide	uncertainty
0.1783	0.0032
0.178	0.0032

System: water + cesium bromide + lanthanum tribromide; phases: Liquid, Crystal of intercomponent compound 1, Crystal of intercomponent compound 2
Fixed: Temperature, K = 298.15
Fixed: Pressure, kPa = 101
Property: Mass fraction of cesium bromide (Liquid); method: Titration method
Mass fraction of cesium bromide	uncertainty
0.0954	0.0032
0.0944	0.0032
0.0978	0.0032
0.0951	0.0032
0.0964	0.0032

System: water + cesium bromide + cerium tribromide; phases: Liquid, Crystal
Fixed: Pressure, kPa = 101
Fixed: Temperature, K = 298.15
Property: Mass fraction of cerium tribromide (Liquid); method: Titration method
Mass fraction of cesium bromide	Mass fraction of cerium tribromide	uncertainty
0.5551	0	
0.4847	0.069	0.0032
0.3958	0.1546	0.0032
0.3375	0.2104	0.0032
0.2983	0.263	0.0032
0.2498	0.3264	0.0033
0.221	0.3704	0.0033
0.199	0.413	0.0033
0.1816	0.4542	0.0033

System: water + cesium bromide + cerium tribromide; phases: Liquid, Crystal of intercomponent compound 1
Fixed: Pressure, kPa = 101
Fixed: Temperature, K = 298.15
Property: Mass fraction of cerium tribromide (Liquid); method: Titration method
Mass fraction of cesium bromide	Mass fraction of cerium tribromide	uncertainty
0.1422	0.5131	0.0087
0.1105	0.5492	0.009
0.1091	0.5563	0.0093
0.098	0.5666	0.0073
0.0959	0.5752	0.0106

System: water + cesium bromide + cerium tribromide; phases: Liquid, Crystal of intercomponent compound 1
Fixed: Pressure, kPa = 101
Fixed: Temperature, K = 298.15
Property: Mass fraction of cerium tribromide (Liquid); method: Titration method
Mass fraction of cesium bromide	Mass fraction of cerium tribromide	uncertainty
0.0605	0.6065	0.0053
0.0446	0.6156	0.0049
0.0417	0.6174	0.0049
0	0.6364	0.0035

System: water + cesium bromide + cerium tribromide; phases: Liquid, Crystal, Crystal of intercomponent compound 1
Property: Mass fraction of cerium tribromide (Liquid); method: Titration method
Temperature, K	Pressure, kPa	Mass fraction of cerium tribromide	uncertainty
298.15	101	0.4785	0.0034

System: water + cesium bromide + cerium tribromide; phases: Liquid, Crystal of intercomponent compound 1, Crystal of intercomponent compound 2
Fixed: Temperature, K = 298.15
Fixed: Pressure, kPa = 101
Property: Mass fraction of cerium tribromide (Liquid); method: Titration method
Mass fraction of cerium tribromide	uncertainty
0.5956	0.0034
0.5961	0.0034

System: water + cesium bromide + cerium tribromide; phases: Liquid, Crystal, Crystal of intercomponent compound 1
Property: Mass fraction of cesium bromide (Liquid); method: Titration method
Temperature, K	Pressure, kPa	Mass fraction of cesium bromide	uncertainty
298.15	101	0.1792	0.007

System: water + cesium bromide + cerium tribromide; phases: Liquid, Crystal of intercomponent compound 1, Crystal of intercomponent compound 2
Fixed: Temperature, K = 298.15
Fixed: Pressure, kPa = 101
Property: Mass fraction of cesium bromide (Liquid); method: Titration method
Mass fraction of cesium bromide	uncertainty
0.0835	0.007
0.0766	0.007

System: water + dicesium lanthanum(III) pentabromide decahydrate; phases: Liquid
Property: Molar enthalpy of solution, kJ/mol (Liquid); method: ISOPERIBOL
Temperature, K	Mole fraction of dicesium lanthanum(III) pentabromide decahydrate	Pressure, kPa	Molar enthalpy of solution, kJ/mol	uncertainty
298.15	0	101	49.61	0.82

System: water + cerium(III) dicesium pentabromide decahydrate; phases: Liquid
Property: Molar enthalpy of solution, kJ/mol (Liquid); method: ISOPERIBOL
Temperature, K	Mole fraction of cerium(III) dicesium pentabromide decahydrate	Pressure, kPa	Molar enthalpy of solution, kJ/mol	uncertainty
298.15	0	101	50.83	0.82
