Measured thermophysical data. Density, Viscosity, Speed of Sound, Bulk Modulus, Surface Tension, and Flash Point of Binary Mixtures of n-Dodecane with 2,2,4,6,6-Pentamethylheptane or 2,2,4,4,6,8,8-Heptamethylnonane
Source: J. Chem. Eng. Data, 2014, 10.1021/je5000132
Compound 1: dodecane, C12H26, InChI=1S/C12H26/c1-3-5-7-9-11-12-10-8-6-4-2/h3-12H2,1-2H3, purity 99%
Compound 2: 2,2,4,6,6-pentamethylheptane, C12H26, InChI=1S/C12H26/c1-10(8-11(2,3)4)9-12(5,6)7/h10H,8-9H2,1-7H3, purity 98%
Compound 3: 2,2,4,4,6,8,8-heptamethylnonane, C16H34, InChI=1S/C16H34/c1-13(10-14(2,3)4)11-16(8,9)12-15(5,6)7/h13H,10-12H2,1-9H3, purity 98%

System: dodecane; phases: Liquid
Fixed: Pressure, kPa = 101
Property: Mass density, kg/m3 (Liquid); method: Vibrating tube method
Temperature, K	Mass density, kg/m3	uncertainty
293.15	748.893	0.456
303.15	741.635	0.457
313.15	734.349	0.457
323.15	727.038	0.457
333.15	719.691	0.458
343.15	712.2	0.458
353.15	704.7	0.458
363.15	697.1	0.459
373.15	689.6	0.459

System: dodecane; phases: Liquid
Fixed: Pressure, kPa = 101
Property: Viscosity, Pa*s (Liquid); method: Concentric cylinders viscometry
Temperature, K	Viscosity, Pa*s	uncertainty
293.15	0.00149	1.9e-05
303.15	0.00125	1.9e-05
313.15	0.00106	1.8e-05
323.15	0.000916	1.8e-05
333.15	0.000799	1.7e-05
343.15	0.000704	1.7e-05
353.15	0.000625	1.7e-05
363.15	0.00056	1.7e-05
373.15	0.000506	1.7e-05

System: dodecane; phases: Liquid
Fixed: Pressure, kPa = 100
Property: Speed of sound, m/s (Liquid); method: Pulse-echo method
Temperature, K	Speed of sound, m/s	uncertainty
293.15	1297.6	1.3
303.15	1259.3	1.3
313.15	1221.4	1.3
323.15	1184.2	1.3
333.15	1147.5	1.3

System: dodecane; phases: Liquid, Air at 1 atmosphere
Property: Surface tension liquid-gas, N/m (Liquid); method: Drop volume
Temperature, K	Surface tension liquid-gas, N/m	uncertainty
294.7	0.0253	0.0003

System: 2,2,4,6,6-pentamethylheptane; phases: Liquid
Fixed: Pressure, kPa = 100
Property: Speed of sound, m/s (Liquid); method: Pulse-echo method
Temperature, K	Speed of sound, m/s	uncertainty
293.15	1203.6	2.2
303.15	1164.8	2.2
313.15	1126.7	2.2
323.15	1089.3	2.2
333.15	1052.5	2.2

System: 2,2,4,6,6-pentamethylheptane; phases: Liquid, Air at 1 atmosphere
Property: Surface tension liquid-gas, N/m (Liquid); method: Drop volume
Temperature, K	Surface tension liquid-gas, N/m	uncertainty
294.7	0.0218	0.0003

System: 2,2,4,4,6,8,8-heptamethylnonane; phases: Liquid
Fixed: Pressure, kPa = 101
Property: Mass density, kg/m3 (Liquid); method: Vibrating tube method
Temperature, K	Mass density, kg/m3	uncertainty
293.15	784.457	0.687
303.15	777.761	0.683
313.15	771.044	0.678
323.15	764.316	0.674
333.15	757.571	0.67
343.15	750.7	0.7
353.15	743.8	0.7
363.15	736.8	0.7
373.15	729.9	0.7

System: 2,2,4,4,6,8,8-heptamethylnonane; phases: Liquid
Fixed: Pressure, kPa = 101
Property: Viscosity, Pa*s (Liquid); method: Concentric cylinders viscometry
Temperature, K	Viscosity, Pa*s	uncertainty
293.15	0.0037	4.3e-05
303.15	0.00292	3.5e-05
313.15	0.00237	3e-05
323.15	0.00195	2.7e-05
333.15	0.00163	2.4e-05
343.15	0.00139	2.2e-05
353.15	0.00119	2.1e-05
363.15	0.00104	2e-05
373.15	0.000914	1.9e-05

System: 2,2,4,4,6,8,8-heptamethylnonane; phases: Liquid
Fixed: Pressure, kPa = 100
Property: Speed of sound, m/s (Liquid); method: Pulse-echo method
Temperature, K	Speed of sound, m/s	uncertainty
293.15	1285.7	2.2
303.15	1248.5	2.2
313.15	1211.8	2.2
323.15	1176	2.2
333.15	1140.8	2.2

System: 2,2,4,4,6,8,8-heptamethylnonane; phases: Liquid, Air at 1 atmosphere
Property: Surface tension liquid-gas, N/m (Liquid); method: Drop volume
Temperature, K	Surface tension liquid-gas, N/m	uncertainty
294.7	0.024	0.0003

System: dodecane + 2,2,4,6,6-pentamethylheptane; phases: Liquid
Fixed: Pressure, kPa = 101
Property: Mass density, kg/m3 (Liquid); method: Vibrating tube method
Temperature, K	Mole fraction of 2,2,4,6,6-pentamethylheptane	Mass density, kg/m3	uncertainty
293.15	0	748.893	0.546
293.15	0.1	748.467	0.555
293.15	0.2	748.123	0.566
293.15	0.2885	747.857	0.577
293.15	0.3998	747.387	0.592
293.15	0.4999	747.034	0.609
293.15	0.6501	746.519	0.638
293.15	0.7998	745.947	0.672
303.15	0	741.635	0.546
303.15	0.1	741.234	0.555
303.15	0.2	740.898	0.566
303.15	0.2885	740.654	0.576
303.15	0.3998	740.15	0.592
303.15	0.4999	739.835	0.608
303.15	0.6501	739.313	0.636
303.15	0.7998	738.715	0.67
313.15	0	734.349	0.547
313.15	0.1	733.97	0.555
313.15	0.2	733.64	0.565
313.15	0.2885	733.415	0.576
313.15	0.3998	732.953	0.591
313.15	0.4999	732.598	0.607
313.15	0.6501	732.066	0.635
313.15	0.7998	731.445	0.667
323.15	0	727.038	0.547
323.15	0.1	726.674	0.555
323.15	0.2	726.352	0.565
323.15	0.2885	726.139	0.576
323.15	0.3998	725.68	0.591
323.15	0.4999	725.324	0.606
323.15	0.6501	724.781	0.633
323.15	0.7998	724.136	0.665
333.15	0	719.691	0.547
333.15	0.1	719.342	0.556
333.15	0.2	719.024	0.565
333.15	0.2885	718.82	0.575
333.15	0.3998	718.363	0.59
333.15	0.4999	718.004	0.605
333.15	0.6501	717.449	0.631
333.15	0.7998	716.783	0.663
343.15	0	712.2	0.548
343.15	0.1	711.9	0.556
343.15	0.2	711.7	0.565
343.15	0.2885	711.5	0.575
343.15	0.3998	710.9	0.589
343.15	0.4999	710.6	0.604
343.15	0.6501	710	0.63
343.15	0.7998	709.4	0.66
353.15	0	704.7	0.548
353.15	0.1	704.4	0.556
353.15	0.2	704.1	0.565
353.15	0.2885	703.8	0.575
353.15	0.3998	703.5	0.589
353.15	0.4999	703	0.603
353.15	0.6501	702.5	0.628
353.15	0.7998	701.8	0.658
363.15	0	697.1	0.548
363.15	0.1	696.8	0.556
363.15	0.2	696.5	0.565
363.15	0.2885	696.3	0.575
363.15	0.3998	695.8	0.588
363.15	0.4999	695.4	0.602
363.15	0.6501	694.8	0.627
363.15	0.7998	694.1	0.656
373.15	0	689.6	0.549
373.15	0.1	689	0.556
373.15	0.2	688.8	0.565
373.15	0.2885	688.6	0.575
373.15	0.3998	688.1	0.588
373.15	0.4999	687.7	0.602
373.15	0.6501	687.1	0.626
373.15	0.7998	686.3	0.654

System: dodecane + 2,2,4,6,6-pentamethylheptane; phases: Liquid
Fixed: Pressure, kPa = 101
Property: Viscosity, Pa*s (Liquid); method: Concentric cylinders viscometry
Temperature, K	Mole fraction of 2,2,4,6,6-pentamethylheptane	Viscosity, Pa*s	uncertainty
293.15	0	0.00149	1.9e-05
293.15	0.1	0.00145	1.9e-05
293.15	0.2	0.00142	2e-05
293.15	0.2885	0.0014	2e-05
293.15	0.3998	0.00137	2e-05
293.15	0.4999	0.00135	2e-05
293.15	0.6501	0.00133	2.1e-05
293.15	0.7998	0.00131	2.1e-05
303.15	0	0.00125	1.9e-05
303.15	0.1	0.00122	1.9e-05
303.15	0.2	0.0012	1.9e-05
303.15	0.2885	0.00118	1.9e-05
303.15	0.3998	0.00116	1.9e-05
303.15	0.4999	0.00115	1.9e-05
303.15	0.6501	0.00113	2e-05
303.15	0.7998	0.00112	2e-05
313.15	0	0.00106	1.8e-05
313.15	0.1	0.00103	1.8e-05
313.15	0.2	0.00102	1.8e-05
313.15	0.2885	0.001	1.8e-05
313.15	0.3998	0.000988	1.9e-05
313.15	0.4999	0.000977	1.9e-05
313.15	0.6501	0.000962	1.9e-05
313.15	0.7998	0.000952	1.9e-05
323.15	0	0.000916	1.8e-05
323.15	0.1	0.000898	1.8e-05
323.15	0.2	0.000885	1.8e-05
323.15	0.2885	0.000876	1.8e-05
323.15	0.3998	0.000863	1.8e-05
323.15	0.4999	0.000856	1.8e-05
323.15	0.6501	0.000844	1.8e-05
323.15	0.7998	0.000836	1.9e-05
333.15	0	0.000799	1.7e-05
333.15	0.1	0.000784	1.8e-05
333.15	0.2	0.000774	1.8e-05
333.15	0.2885	0.000766	1.8e-05
333.15	0.3998	0.000757	1.8e-05
333.15	0.4999	0.00075	1.8e-05
333.15	0.6501	0.000741	1.8e-05
333.15	0.7998	0.000734	1.8e-05
343.15	0	0.000704	1.7e-05
343.15	0.1	0.000691	1.7e-05
343.15	0.2	0.000683	1.7e-05
343.15	0.2885	0.000677	1.7e-05
343.15	0.3998	0.000668	1.8e-05
343.15	0.4999	0.000664	1.8e-05
343.15	0.6501	0.000656	1.8e-05
343.15	0.7998	0.000651	1.8e-05
353.15	0	0.000625	1.7e-05
353.15	0.1	0.000614	1.7e-05
353.15	0.2	0.000607	1.7e-05
353.15	0.2885	0.000603	1.7e-05
353.15	0.3998	0.000595	1.7e-05
353.15	0.4999	0.000591	1.7e-05
353.15	0.6501	0.000584	1.8e-05
353.15	0.7998	0.00058	1.8e-05
363.15	0	0.00056	1.7e-05
363.15	0.1	0.000551	1.7e-05
363.15	0.2	0.000545	1.7e-05
363.15	0.2885	0.000526	1.7e-05
363.15	0.3998	0.000534	1.7e-05
363.15	0.4999	0.000531	1.7e-05
363.15	0.6501	0.000525	1.7e-05
363.15	0.7998	0.000521	1.7e-05
373.15	0	0.000506	1.7e-05
373.15	0.1	0.000498	1.7e-05
373.15	0.2	0.000493	1.7e-05
373.15	0.2885	0.00049	1.7e-05
373.15	0.3998	0.000483	1.7e-05
373.15	0.4999	0.000481	1.7e-05
373.15	0.6501	0.000476	1.7e-05
373.15	0.7998	0.000472	1.7e-05

System: dodecane + 2,2,4,6,6-pentamethylheptane; phases: Liquid
Fixed: Pressure, kPa = 100
Property: Speed of sound, m/s (Liquid); method: Pulse-echo method
Temperature, K	Mole fraction of 2,2,4,6,6-pentamethylheptane	Speed of sound, m/s	uncertainty
293.15	0	1297.6	1.3
303.15	0	1259.3	1.3
313.15	0	1221.4	1.3
323.15	0	1184.2	1.3
333.15	0	1147.5	1.3
293.15	0.1	1288.5	1.4
303.15	0.1	1250.3	1.4
313.15	0.1	1212.5	1.4
323.15	0.1	1175.3	1.4
333.15	0.1	1138.7	1.4
293.15	0.2	1279.3	1.5
303.15	0.2	1241.1	1.5
313.15	0.2	1203.3	1.5
323.15	0.2	1166.2	1.5
333.15	0.2	1129.6	1.4
293.15	0.2885	1271.4	1.5
303.15	0.2885	1233.2	1.5
313.15	0.2885	1195.5	1.5
323.15	0.2885	1158.3	1.5
333.15	0.2885	1121.7	1.5
293.15	0.3998	1261.4	1.6
303.15	0.3998	1223.2	1.6
313.15	0.3998	1185.4	1.6
323.15	0.3998	1148.3	1.6
333.15	0.3998	1111.7	1.6
293.15	0.4999	1251.6	1.7
303.15	0.4999	1213.4	1.7
313.15	0.4999	1175.7	1.7
323.15	0.4999	1138.5	1.7
333.15	0.4999	1101.9	1.7
293.15	0.6501	1238	1.9
303.15	0.6501	1199.6	1.8
313.15	0.6501	1161.8	1.8
323.15	0.6501	1124.6	1.8
333.15	0.6501	1087.9	1.8
293.15	0.7998	1223.2	2
303.15	0.7998	1184.7	2
313.15	0.7998	1146.8	2
323.15	0.7998	1109.5	2
333.15	0.7998	1072.8	2
293.15	1	1203.6	2.2
303.15	1	1164.8	2.2
313.15	1	1126.7	2.2
323.15	1	1089.3	2.2
333.15	1	1052.5	2.2

System: dodecane + 2,2,4,6,6-pentamethylheptane; phases: Liquid, Air at 1 atmosphere
Fixed: Temperature, K = 294.7
Property: Surface tension liquid-gas, N/m (Liquid); method: Drop volume
Mole fraction of 2,2,4,6,6-pentamethylheptane	Surface tension liquid-gas, N/m	uncertainty
0	0.0253	0.0003
0.1	0.0243	0.0003
0.2	0.0241	0.0003
0.2885	0.0237	0.0003
0.3998	0.0233	0.0003
0.4999	0.0232	0.0003
0.6501	0.0227	0.0003
0.7998	0.0223	0.0003
1	0.0218	0.0003

System: dodecane + 2,2,4,4,6,8,8-heptamethylnonane; phases: Liquid
Fixed: Pressure, kPa = 101
Property: Mass density, kg/m3 (Liquid); method: Vibrating tube method
Temperature, K	Mole fraction of 2,2,4,4,6,8,8-heptamethylnonane	Mass density, kg/m3	uncertainty
293.15	0	748.893	1.024
293.15	0.103	753.263	1.029
293.15	0.1677	756.137	1.032
293.15	0.2944	761.09	1.041
293.15	0.4191	765.497	1.052
293.15	0.5011	768.604	1.061
293.15	0.5955	771.819	1.072
293.15	0.7585	777.128	1.097
293.15	0.8985	781.527	1.123
293.15	1	784.457	1.145
303.15	0	741.635	1.024
303.15	0.103	746.092	1.029
303.15	0.1677	749.065	1.032
303.15	0.2944	754.068	1.041
303.15	0.4191	758.54	1.052
303.15	0.5011	761.702	1.06
303.15	0.5955	764.964	1.071
303.15	0.7585	770.346	1.095
303.15	0.8985	774.79	1.121
303.15	1	777.761	1.143
313.15	0	734.349	1.024
313.15	0.103	738.895	1.029
313.15	0.1677	741.921	1.032
313.15	0.2944	747.011	1.041
313.15	0.4191	751.556	1.051
313.15	0.5011	754.77	1.06
313.15	0.5955	758.085	1.071
313.15	0.7585	763.538	1.094
313.15	0.8985	768.028	1.119
313.15	1	771.044	1.14
323.15	0	727.038	1.024
323.15	0.103	731.669	1.029
323.15	0.1677	734.749	1.032
323.15	0.2944	739.926	1.041
323.15	0.4191	744.546	1.051
323.15	0.5011	747.812	1.059
323.15	0.5955	751.18	1.07
323.15	0.7585	756.708	1.092
323.15	0.8985	761.266	1.117
323.15	1	764.316	1.138
333.15	0	719.691	1.024
333.15	0.103	724.407	1.029
333.15	0.1677	727.54	1.032
333.15	0.2944	732.805	1.041
333.15	0.4191	737.503	1.051
333.15	0.5011	740.821	1.058
333.15	0.5955	744.244	1.069
333.15	0.7585	749.858	1.091
333.15	0.8985	754.484	1.115
333.15	1	757.571	1.135
343.15	0	712.2	1.025
343.15	0.103	717.1	1.029
343.15	0.1677	720.2	1.032
343.15	0.2944	725.6	1.04
343.15	0.4191	730.4	1.05
343.15	0.5011	733.7	1.058
343.15	0.5955	737.2	1.068
343.15	0.7585	743	1.09
343.15	0.8985	747.6	1.113
343.15	1	750.7	1.133
353.15	0	704.7	1.025
353.15	0.103	709.6	1.029
353.15	0.1677	712.7	1.032
353.15	0.2944	718.2	1.04
353.15	0.4191	723.1	1.05
353.15	0.5011	726.5	1.057
353.15	0.5955	730.1	1.067
353.15	0.7585	736	1.088
353.15	0.8985	740.7	1.111
353.15	1	743.8	1.131
363.15	0	697.1	1.025
363.15	0.103	702	1.029
363.15	0.1677	705.3	1.033
363.15	0.2944	710.8	1.04
363.15	0.4191	715.8	1.05
363.15	0.5011	719.2	1.057
363.15	0.5955	722.9	1.067
363.15	0.7585	728.9	1.087
363.15	0.8985	733.6	1.109
363.15	1	736.8	1.128
373.15	0	689.6	1.025
373.15	0.103	694.5	1.029
373.15	0.1677	697.8	1.033
373.15	0.2944	703.5	1.04
373.15	0.4191	708.5	1.049
373.15	0.5011	712	1.056
373.15	0.5955	715.8	1.066
373.15	0.7585	721.8	1.086
373.15	0.8985	726.6	1.108
373.15	1	729.9	1.126

System: dodecane + 2,2,4,4,6,8,8-heptamethylnonane; phases: Liquid
Fixed: Pressure, kPa = 101
Property: Viscosity, Pa*s (Liquid); method: Concentric cylinders viscometry
Temperature, K	Mole fraction of 2,2,4,4,6,8,8-heptamethylnonane	Viscosity, Pa*s	uncertainty
293.15	0	0.00149	1.9e-05
293.15	0.103	0.00159	2e-05
293.15	0.1677	0.00167	2e-05
293.15	0.2944	0.00184	2.2e-05
293.15	0.4191	0.00203	2.3e-05
293.15	0.5011	0.00219	2.5e-05
293.15	0.5955	0.0024	2.7e-05
293.15	0.7585	0.00283	3.2e-05
293.15	0.8985	0.00329	3.7e-05
293.15	1	0.0037	4.3e-05
303.15	0	0.00125	1.9e-05
303.15	0.103	0.00132	1.9e-05
303.15	0.1677	0.00139	1.9e-05
303.15	0.2944	0.00153	2e-05
303.15	0.4191	0.00167	2.2e-05
303.15	0.5011	0.0018	2.3e-05
303.15	0.5955	0.00195	2.4e-05
303.15	0.7585	0.00228	2.8e-05
303.15	0.8985	0.00262	3.2e-05
303.15	1	0.00292	3.5e-05
313.15	0	0.00106	1.8e-05
313.15	0.103	0.00112	1.8e-05
313.15	0.1677	0.00117	1.9e-05
313.15	0.2944	0.00128	1.9e-05
313.15	0.4191	0.0014	2e-05
313.15	0.5011	0.0015	2.1e-05
313.15	0.5955	0.00163	2.2e-05
313.15	0.7585	0.00188	2.5e-05
313.15	0.8985	0.00214	2.8e-05
313.15	1	0.00237	3e-05
323.15	0	0.000916	1.8e-05
323.15	0.103	0.000966	1.8e-05
323.15	0.1677	0.00101	1.8e-05
323.15	0.2944	0.0011	1.9e-05
323.15	0.4191	0.00119	1.9e-05
323.15	0.5011	0.00127	2e-05
323.15	0.5955	0.00137	2.1e-05
323.15	0.7585	0.00157	2.3e-05
323.15	0.8985	0.00177	2.5e-05
323.15	1	0.00195	2.7e-05
333.15	0	0.000799	1.7e-05
333.15	0.103	0.00084	1.8e-05
333.15	0.1677	0.000877	1.8e-05
333.15	0.2944	0.00095	1.8e-05
333.15	0.4191	0.00103	1.9e-05
333.15	0.5011	0.00109	1.9e-05
333.15	0.5955	0.00117	2e-05
333.15	0.7585	0.00133	2.1e-05
333.15	0.8985	0.00149	2.3e-05
333.15	1	0.00163	2.4e-05
343.15	0	0.000704	1.7e-05
343.15	0.103	0.000738	1.7e-05
343.15	0.1677	0.000769	1.8e-05
343.15	0.2944	0.00083	1.8e-05
343.15	0.4191	0.000895	1.8e-05
343.15	0.5011	0.000949	1.9e-05
343.15	0.5955	0.00101	1.9e-05
343.15	0.7585	0.00114	2e-05
343.15	0.8985	0.00127	2.1e-05
343.15	1	0.00139	2.2e-05
353.15	0	0.000625	1.7e-05
353.15	0.103	0.000654	1.7e-05
353.15	0.1677	0.000681	1.7e-05
353.15	0.2944	0.000732	1.8e-05
353.15	0.4191	0.000787	1.8e-05
353.15	0.5011	0.000832	1.8e-05
353.15	0.5955	0.000885	1.9e-05
353.15	0.7585	0.000994	1.9e-05
353.15	0.8985	0.0011	2e-05
353.15	1	0.00119	2.1e-05
363.15	0	0.00056	1.7e-05
363.15	0.103	0.000585	1.7e-05
363.15	0.1677	0.000608	1.7e-05
363.15	0.2944	0.000652	1.7e-05
363.15	0.4191	0.000698	1.8e-05
363.15	0.5011	0.000737	1.8e-05
363.15	0.5955	0.000782	1.8e-05
363.15	0.7585	0.000873	1.9e-05
363.15	0.8985	0.000963	1.9e-05
363.15	1	0.00104	2e-05
373.15	0	0.000506	1.7e-05
373.15	0.103	0.000528	1.7e-05
373.15	0.1677	0.000548	1.7e-05
373.15	0.2944	0.000586	1.7e-05
373.15	0.4191	0.000626	1.7e-05
373.15	0.5011	0.000659	1.8e-05
373.15	0.5955	0.000697	1.8e-05
373.15	0.7585	0.000775	1.8e-05
373.15	0.8985	0.00085	1.9e-05
373.15	1	0.000914	1.9e-05

System: dodecane + 2,2,4,4,6,8,8-heptamethylnonane; phases: Liquid
Fixed: Pressure, kPa = 100
Property: Speed of sound, m/s (Liquid); method: Pulse-echo method
Temperature, K	Mole fraction of 2,2,4,4,6,8,8-heptamethylnonane	Speed of sound, m/s	uncertainty
293.15	0	1297.6	1.3
303.15	0	1259.3	1.3
313.15	0	1221.4	1.3
323.15	0	1184.2	1.3
333.15	0	1147.5	1.3
293.15	0.103	1295.6	1.4
303.15	0.103	1257.5	1.4
313.15	0.103	1219.8	1.4
323.15	0.103	1182.8	1.4
333.15	0.103	1146.3	1.4
293.15	0.1677	1294.1	1.4
303.15	0.1677	1256.2	1.4
313.15	0.1677	1218.7	1.4
323.15	0.1677	1181.8	1.4
333.15	0.1677	1145.4	1.4
293.15	0.2944	1292	1.5
303.15	0.2944	1254.3	1.5
313.15	0.2944	1217	1.5
323.15	0.2944	1180.3	1.5
333.15	0.2944	1144.2	1.5
293.15	0.4191	1290.5	1.7
303.15	0.4191	1252.9	1.7
313.15	0.4191	1215.7	1.6
323.15	0.4191	1179.2	1.6
333.15	0.4191	1143.3	1.6
293.15	0.5011	1289.5	1.7
303.15	0.5011	1252	1.7
313.15	0.5011	1214.9	1.7
323.15	0.5011	1178.5	1.7
333.15	0.5011	1142.7	1.7
293.15	0.5955	1288.5	1.8
303.15	0.5955	1251	1.8
313.15	0.5955	1214.1	1.8
323.15	0.5955	1177.8	1.8
333.15	0.5955	1142.2	1.8
293.15	0.7585	1287.2	2
303.15	0.7585	1249.8	1.9
313.15	0.7585	1213	1.9
323.15	0.7585	1176.8	1.9
333.15	0.7585	1141.4	1.9
293.15	0.8985	1286.3	2.1
303.15	0.8985	1248.9	2.1
313.15	0.8985	1212.2	2.1
323.15	0.8985	1176.3	2.1
333.15	0.8985	1141	2.1
293.15	1	1285.7	2.2
303.15	1	1248.5	2.2
313.15	1	1211.8	2.2
323.15	1	1176	2.2
333.15	1	1140.8	2.2

System: dodecane + 2,2,4,4,6,8,8-heptamethylnonane; phases: Liquid, Air at 1 atmosphere
Fixed: Temperature, K = 294.7
Property: Surface tension liquid-gas, N/m (Liquid); method: Drop volume
Mole fraction of 2,2,4,4,6,8,8-heptamethylnonane	Surface tension liquid-gas, N/m	uncertainty
0	0.0253	0.0003
0.1677	0.0248	0.0003
0.2944	0.0249	0.0003
0.4191	0.0246	0.0003
0.5011	0.0246	0.0003
0.5955	0.0243	0.0003
0.7585	0.0242	0.0003
0.8985	0.0242	0.0003
1	0.024	0.0003
