Measured thermophysical data. Volumetric and Viscometric Study of Binary Systems of Ethyl Butyrate with Alcohols
Source: J. Chem. Eng. Data, 2014, 10.1021/je5005752
Compound 1: ethyl butanoate, C6H12O2, InChI=1S/C6H12O2/c1-3-5-6(7)8-4-2/h3-5H2,1-2H3, purity 99%
Compound 2: propan-1-ol, C3H8O, InChI=1S/C3H8O/c1-2-3-4/h4H,2-3H2,1H3, purity 99.5%
Compound 3: 2-methyl-1-propanol, C4H10O, InChI=1S/C4H10O/c1-4(2)3-5/h4-5H,3H2,1-2H3, purity 99.7%
Compound 4: butan-1-ol, C4H10O, InChI=1S/C4H10O/c1-2-3-4-5/h5H,2-4H2,1H3, purity 99.5%
Compound 5: 3-methylbutan-1-ol, C5H12O, InChI=1S/C5H12O/c1-5(2)3-4-6/h5-6H,3-4H2,1-2H3, purity 99%
Compound 6: hexan-1-ol, C6H14O, InChI=1S/C6H14O/c1-2-3-4-5-6-7/h7H,2-6H2,1H3, purity 99%

System: ethyl butanoate; phases: Liquid
Fixed: Pressure, kPa = 101
Property: Mass density, kg/m3 (Liquid); method: Vibrating tube method
Temperature, K	Mass density, kg/m3	uncertainty
288.15	884.16	0.27
293.15	878.9	0.27
298.15	873.62	0.27
303.15	868.33	0.27
308.15	863.02	0.27
313.15	857.7	0.27
318.15	852.36	0.27
323.15	847	0.27

System: ethyl butanoate; phases: Liquid
Fixed: Pressure, kPa = 101
Property: Viscosity, Pa*s (Liquid); method: Falling or rolling sphere viscometry
Temperature, K	Viscosity, Pa*s	uncertainty
288.15	0.0007224	1.58e-05
293.15	0.0006808	1.49e-05
298.15	0.000643	1.4e-05
303.15	0.0006072	1.33e-05
308.15	0.0005736	1.25e-05
313.15	0.0005424	1.18e-05
318.15	0.0005132	1.12e-05
323.15	0.000487	1.06e-05
313.15	0.0005425	1.18e-05

System: propan-1-ol; phases: Liquid
Fixed: Pressure, kPa = 101
Property: Mass density, kg/m3 (Liquid); method: Vibrating tube method
Temperature, K	Mass density, kg/m3	uncertainty
288.15	807.75	0.2
293.15	803.77	0.21
298.15	799.76	0.21
303.15	795.72	0.21
308.15	791.64	0.21
313.15	787.52	0.21
318.15	783.36	0.21
323.15	779.14	0.21

System: propan-1-ol; phases: Liquid
Fixed: Pressure, kPa = 101
Property: Viscosity, Pa*s (Liquid); method: Falling or rolling sphere viscometry
Temperature, K	Viscosity, Pa*s	uncertainty
288.15	0.002514	5.4e-05
293.15	0.002208	4.7e-05
298.15	0.00195	4.2e-05
303.15	0.001727	3.7e-05
308.15	0.001542	3.3e-05
313.15	0.001378	2.9e-05
318.15	0.001236	2.6e-05
323.15	0.001124	2.4e-05

System: 2-methyl-1-propanol; phases: Liquid
Fixed: Pressure, kPa = 101
Property: Mass density, kg/m3 (Liquid); method: Vibrating tube method
Temperature, K	Mass density, kg/m3	uncertainty
288.15	805.88	0.19
293.15	802.03	0.19
298.15	798.16	0.2
303.15	794.25	0.2
308.15	790.31	0.2
313.15	786.31	0.2
318.15	782.26	0.2
323.15	778.14	0.2

System: 2-methyl-1-propanol; phases: Liquid
Fixed: Pressure, kPa = 101
Property: Viscosity, Pa*s (Liquid); method: Falling or rolling sphere viscometry
Temperature, K	Viscosity, Pa*s	uncertainty
288.15	0.004829	0.000103
293.15	0.004052	8.6e-05
298.15	0.003431	7.3e-05
303.15	0.002923	6.2e-05
308.15	0.002505	5.3e-05
313.15	0.002161	4.6e-05
318.15	0.001876	4e-05
323.15	0.001652	3.5e-05

System: butan-1-ol; phases: Liquid
Fixed: Pressure, kPa = 101
Property: Mass density, kg/m3 (Liquid); method: Vibrating tube method
Temperature, K	Mass density, kg/m3	uncertainty
288.15	813.46	0.2
293.15	809.66	0.2
298.15	805.84	0.2
303.15	801.99	0.21
308.15	798.12	0.21
313.15	794.22	0.21
318.15	790.28	0.21
323.15	786.29	0.21

System: butan-1-ol; phases: Liquid
Fixed: Pressure, kPa = 101
Property: Viscosity, Pa*s (Liquid); method: Falling or rolling sphere viscometry
Temperature, K	Viscosity, Pa*s	uncertainty
288.15	0.003365	7.2e-05
293.15	0.002913	6.2e-05
298.15	0.002563	5.5e-05
303.15	0.002257	4.8e-05
308.15	0.001994	4.3e-05
313.15	0.001779	3.8e-05
318.15	0.001576	3.4e-05
323.15	0.001422	3e-05

System: 3-methylbutan-1-ol; phases: Liquid
Fixed: Pressure, kPa = 101
Property: Mass density, kg/m3 (Liquid); method: Vibrating tube method
Temperature, K	Mass density, kg/m3	uncertainty
288.15	812.29	0.27
293.15	808.58	0.27
298.15	804.84	0.27
303.15	801.09	0.27
308.15	797.31	0.27
313.15	793.51	0.27
318.15	789.67	0.27
323.15	785.79	0.27

System: 3-methylbutan-1-ol; phases: Liquid
Fixed: Pressure, kPa = 101
Property: Viscosity, Pa*s (Liquid); method: Falling or rolling sphere viscometry
Temperature, K	Viscosity, Pa*s	uncertainty
288.15	0.005057	0.00011
293.15	0.004288	9.4e-05
298.15	0.003671	8e-05
303.15	0.003155	6.9e-05
308.15	0.00273	6e-05
313.15	0.002375	5.2e-05
318.15	0.002076	4.5e-05
323.15	0.001841	4e-05

System: hexan-1-ol; phases: Liquid
Fixed: Pressure, kPa = 101
Property: Mass density, kg/m3 (Liquid); method: Vibrating tube method
Temperature, K	Mass density, kg/m3	uncertainty
288.15	822.26	0.27
293.15	818.7	0.27
298.15	815.12	0.27
303.15	811.52	0.27
308.15	807.89	0.27
313.15	804.25	0.27
318.15	800.56	0.27
323.15	796.85	0.27

System: hexan-1-ol; phases: Liquid
Fixed: Pressure, kPa = 101
Property: Viscosity, Pa*s (Liquid); method: Falling or rolling sphere viscometry
Temperature, K	Viscosity, Pa*s	uncertainty
288.15	0.006308	0.000138
293.15	0.005332	0.000116
298.15	0.004538	9.9e-05
303.15	0.003896	8.5e-05
308.15	0.003361	7.3e-05
313.15	0.002917	6.4e-05
318.15	0.002546	5.6e-05
323.15	0.002241	4.9e-05

System: propan-1-ol + ethyl butanoate; phases: Liquid
Fixed: Pressure, kPa = 101
Property: Mass density, kg/m3 (Liquid); method: Vibrating tube method
Temperature, K	Mole fraction of ethyl butanoate	Mass density, kg/m3	uncertainty
288.15	0	807.75	0.2
288.15	0.1001	819.96	0.21
288.15	0.2	830.48	0.21
288.15	0.2999	839.77	0.21
288.15	0.3994	848.08	0.22
288.15	0.4999	855.6	0.22
288.15	0.6002	862.45	0.23
288.15	0.6998	868.56	0.24
288.15	0.8001	874.16	0.25
288.15	0.9001	879.26	0.25
288.15	1	884.16	0.27
293.15	0	803.77	0.21
293.15	0.1001	815.72	0.21
293.15	0.2	826.03	0.21
293.15	0.2999	835.14	0.21
293.15	0.3994	843.3	0.22
293.15	0.4999	850.69	0.22
293.15	0.6002	857.44	0.23
293.15	0.6998	863.46	0.24
293.15	0.8001	868.99	0.25
293.15	0.9001	874.03	0.26
293.15	1	878.9	0.27
298.15	0	799.76	0.21
298.15	0.1001	811.45	0.21
298.15	0.2	821.55	0.21
298.15	0.2999	830.49	0.21
298.15	0.3994	838.5	0.22
298.15	0.4999	845.76	0.22
298.15	0.6002	852.4	0.23
298.15	0.6998	858.34	0.24
298.15	0.8001	863.8	0.25
298.15	0.9001	868.79	0.26
298.15	1	873.62	0.27
303.15	0	795.72	0.21
303.15	0.1001	807.15	0.21
303.15	0.2	817.04	0.21
303.15	0.2999	825.81	0.22
303.15	0.3994	833.68	0.22
303.15	0.4999	840.81	0.23
303.15	0.6002	847.35	0.23
303.15	0.6998	853.2	0.24
303.15	0.8001	858.59	0.25
303.15	0.9001	863.53	0.26
303.15	1	868.33	0.27
308.15	0	791.64	0.21
308.15	0.1001	802.83	0.21
308.15	0.2	812.51	0.21
308.15	0.2999	821.1	0.22
308.15	0.3994	828.82	0.22
308.15	0.4999	835.83	0.23
308.15	0.6002	842.27	0.23
308.15	0.6998	848.03	0.24
308.15	0.8001	853.36	0.25
308.15	0.9001	858.26	0.26
308.15	1	863.02	0.27
313.15	0	787.52	0.21
313.15	0.1001	798.47	0.21
313.15	0.2	807.94	0.21
313.15	0.2999	816.35	0.22
313.15	0.3994	823.93	0.22
313.15	0.4999	830.81	0.23
313.15	0.6002	837.16	0.23
313.15	0.6998	842.84	0.24
313.15	0.8001	848.11	0.25
313.15	0.9001	852.96	0.26
313.15	1	857.7	0.27
318.15	0	783.36	0.21
318.15	0.1001	794.06	0.21
318.15	0.2	803.33	0.21
318.15	0.2999	811.58	0.22
318.15	0.3994	819	0.22
318.15	0.4999	825.77	0.23
318.15	0.6002	832	0.23
318.15	0.6998	837.62	0.24
318.15	0.8001	842.82	0.25
318.15	0.9001	847.64	0.26
318.15	1	852.36	0.27
323.15	0	779.14	0.21
323.15	0.1001	789.62	0.21
323.15	0.2	798.67	0.22
323.15	0.2999	806.74	0.22
323.15	0.3994	814.03	0.22
323.15	0.4999	820.68	0.23
323.15	0.6002	826.83	0.23
323.15	0.6998	832.37	0.24
323.15	0.8001	837.52	0.25
323.15	0.9001	842.3	0.26
323.15	1	847	0.27

System: propan-1-ol + ethyl butanoate; phases: Liquid
Fixed: Pressure, kPa = 101
Property: Viscosity, Pa*s (Liquid); method: Falling or rolling sphere viscometry
Temperature, K	Mole fraction of ethyl butanoate	Viscosity, Pa*s	uncertainty
288.15	0	0.002514	5.4e-05
288.15	0.1001	0.001784	3.8e-05
288.15	0.2	0.001392	3e-05
288.15	0.2999	0.001151	2.5e-05
288.15	0.3994	0.001008	2.2e-05
288.15	0.4999	0.0009046	1.95e-05
288.15	0.6002	0.0008354	1.81e-05
288.15	0.6998	0.0007874	1.71e-05
288.15	0.8001	0.0007517	1.63e-05
288.15	0.9001	0.0007286	1.59e-05
288.15	1	0.0007224	1.58e-05
293.15	0	0.002208	4.7e-05
293.15	0.1001	0.001599	3.4e-05
293.15	0.2	0.001262	2.7e-05
293.15	0.2999	0.001054	2.3e-05
293.15	0.3994	0.0009293	2e-05
293.15	0.4999	0.0008397	1.81e-05
293.15	0.6002	0.000779	1.68e-05
293.15	0.6998	0.000737	1.6e-05
293.15	0.8001	0.000706	1.53e-05
293.15	0.9001	0.0006861	1.49e-05
293.15	1	0.0006808	1.49e-05
298.15	0	0.00195	4.2e-05
298.15	0.1001	0.001438	3.1e-05
298.15	0.2	0.001147	2.5e-05
298.15	0.2999	0.0009686	2.08e-05
298.15	0.3994	0.0008586	1.85e-05
298.15	0.4999	0.0007808	1.68e-05
298.15	0.6002	0.0007275	1.57e-05
298.15	0.6998	0.0006906	1.5e-05
298.15	0.8001	0.0006636	1.44e-05
298.15	0.9001	0.0006465	1.41e-05
298.15	1	0.000643	1.4e-05
303.15	0	0.001727	3.7e-05
303.15	0.1001	0.0013	2.8e-05
303.15	0.2	0.001048	2.2e-05
303.15	0.2999	0.0008932	1.92e-05
303.15	0.3994	0.0007965	1.72e-05
303.15	0.4999	0.000727	1.57e-05
303.15	0.6002	0.00068	1.47e-05
303.15	0.6998	0.0006481	1.4e-05
303.15	0.8001	0.000624	1.36e-05
303.15	0.9001	0.0006098	1.33e-05
303.15	1	0.0006072	1.33e-05
308.15	0	0.001542	3.3e-05
308.15	0.1001	0.001179	2.5e-05
308.15	0.2	0.000959	2.06e-05
308.15	0.2999	0.0008239	1.77e-05
308.15	0.3994	0.0007391	1.59e-05
308.15	0.4999	0.0006786	1.46e-05
308.15	0.6002	0.000638	1.38e-05
308.15	0.6998	0.0006089	1.32e-05
308.15	0.8001	0.0005882	1.28e-05
308.15	0.9001	0.0005756	1.25e-05
308.15	1	0.0005736	1.25e-05
313.15	0	0.001378	2.9e-05
313.15	0.1001	0.001073	2.3e-05
313.15	0.2	0.0008796	1.89e-05
313.15	0.2999	0.0007599	1.63e-05
313.15	0.3994	0.0006873	1.48e-05
313.15	0.4999	0.0006338	1.37e-05
313.15	0.6002	0.000598	1.29e-05
313.15	0.6998	0.0005722	1.24e-05
313.15	0.8001	0.0005543	1.2e-05
313.15	0.9001	0.000544	1.18e-05
313.15	1	0.0005424	1.18e-05
318.15	0	0.001236	2.6e-05
318.15	0.1001	0.0009782	2.1e-05
318.15	0.2	0.0008084	1.73e-05
318.15	0.2999	0.0007044	1.51e-05
318.15	0.3994	0.0006398	1.38e-05
318.15	0.4999	0.0005926	1.28e-05
318.15	0.6002	0.0005612	1.21e-05
318.15	0.6998	0.0005398	1.17e-05
318.15	0.8001	0.0005227	1.14e-05
318.15	0.9001	0.0005138	1.12e-05
318.15	1	0.0005132	1.12e-05
323.15	0	0.001124	2.4e-05
323.15	0.1001	0.0009018	1.93e-05
323.15	0.2	0.0007475	1.6e-05
323.15	0.2999	0.0006572	1.41e-05
323.15	0.3994	0.000601	1.29e-05
323.15	0.4999	0.0005568	1.2e-05
323.15	0.6002	0.0005301	1.15e-05
323.15	0.6998	0.0005106	1.11e-05
323.15	0.8001	0.0004955	1.08e-05
323.15	0.9001	0.000488	1.06e-05
323.15	1	0.000487	1.06e-05

System: 2-methyl-1-propanol + ethyl butanoate; phases: Liquid
Fixed: Pressure, kPa = 101
Property: Mass density, kg/m3 (Liquid); method: Vibrating tube method
Temperature, K	Mole fraction of ethyl butanoate	Mass density, kg/m3	uncertainty
288.15	0	805.88	0.19
288.15	0.1	816.01	0.2
288.15	0.2001	825.5	0.2
288.15	0.3001	834.2	0.2
288.15	0.3999	842.57	0.21
288.15	0.5	850.43	0.21
288.15	0.5999	857.77	0.22
288.15	0.7001	864.75	0.23
288.15	0.8001	871.45	0.24
288.15	0.8997	877.93	0.25
288.15	1	884.16	0.27
293.15	0	802.03	0.19
293.15	0.1	811.92	0.2
293.15	0.2001	821.21	0.2
293.15	0.3001	829.72	0.2
293.15	0.3999	837.92	0.21
293.15	0.5	845.64	0.21
293.15	0.5999	852.86	0.22
293.15	0.7001	859.73	0.23
293.15	0.8001	866.33	0.24
293.15	0.8997	872.73	0.25
293.15	1	878.9	0.27
298.15	0	798.16	0.2
298.15	0.1	807.82	0.2
298.15	0.2001	816.89	0.2
298.15	0.3001	825.21	0.2
298.15	0.3999	833.26	0.21
298.15	0.5	840.84	0.21
298.15	0.5999	847.92	0.22
298.15	0.7001	854.69	0.23
298.15	0.8001	861.2	0.24
298.15	0.8997	867.52	0.25
298.15	1	873.62	0.27
303.15	0	794.25	0.2
303.15	0.1	803.67	0.2
303.15	0.2001	812.54	0.2
303.15	0.3001	820.68	0.2
303.15	0.3999	828.56	0.21
303.15	0.5	836	0.21
303.15	0.5999	842.97	0.22
303.15	0.7001	849.63	0.23
303.15	0.8001	856.05	0.24
303.15	0.8997	862.29	0.25
303.15	1	868.33	0.27
308.15	0	790.31	0.2
308.15	0.1	799.49	0.2
308.15	0.2001	808.15	0.2
308.15	0.3001	816.12	0.2
308.15	0.3999	823.84	0.21
308.15	0.5	831.14	0.21
308.15	0.5999	837.99	0.22
308.15	0.7001	844.55	0.23
308.15	0.8001	850.88	0.24
308.15	0.8997	857.04	0.25
308.15	1	863.02	0.27
313.15	0	786.31	0.2
313.15	0.1	795.27	0.2
313.15	0.2001	803.72	0.2
313.15	0.3001	811.51	0.21
313.15	0.3999	819.09	0.21
313.15	0.5	826.25	0.22
313.15	0.5999	832.98	0.22
313.15	0.7001	839.44	0.23
313.15	0.8001	845.69	0.24
313.15	0.8997	851.78	0.25
313.15	1	857.7	0.27
318.15	0	782.26	0.2
318.15	0.1	791	0.2
318.15	0.2001	799.25	0.2
318.15	0.3001	806.87	0.21
318.15	0.3999	814.29	0.21
318.15	0.5	821.33	0.22
318.15	0.5999	827.95	0.22
318.15	0.7001	834.31	0.23
318.15	0.8001	840.47	0.24
318.15	0.8997	846.5	0.25
318.15	1	852.36	0.27
323.15	0	778.14	0.2
323.15	0.1	786.67	0.2
323.15	0.2001	794.73	0.2
323.15	0.3001	802.18	0.21
323.15	0.3999	809.46	0.21
323.15	0.5	816.36	0.22
323.15	0.5999	822.87	0.22
323.15	0.7001	829.14	0.23
323.15	0.8001	835.23	0.24
323.15	0.8997	841.18	0.25
323.15	1	847	0.27

System: 2-methyl-1-propanol + ethyl butanoate; phases: Liquid
Fixed: Pressure, kPa = 101
Property: Viscosity, Pa*s (Liquid); method: Falling or rolling sphere viscometry
Temperature, K	Mole fraction of ethyl butanoate	Viscosity, Pa*s	uncertainty
288.15	0	0.004829	0.000103
288.15	0.1	0.002899	6.2e-05
288.15	0.2001	0.002	4.3e-05
288.15	0.3001	0.001516	3.2e-05
288.15	0.3999	0.00124	2.7e-05
288.15	0.5	0.001057	2.3e-05
288.15	0.5999	0.0009319	2.01e-05
288.15	0.7001	0.0008287	1.79e-05
288.15	0.8001	0.000785	1.7e-05
288.15	0.8997	0.0007449	1.62e-05
288.15	1	0.0007224	1.58e-05
293.15	0	0.004052	8.6e-05
293.15	0.1	0.00251	5.4e-05
293.15	0.2001	0.001768	3.8e-05
293.15	0.3001	0.001363	2.9e-05
293.15	0.3999	0.001129	2.4e-05
293.15	0.5	0.0009727	2.09e-05
293.15	0.5999	0.0008638	1.86e-05
293.15	0.7001	0.0007883	1.7e-05
293.15	0.8001	0.0007356	1.59e-05
293.15	0.8997	0.0007006	1.52e-05
293.15	1	0.0006808	1.49e-05
298.15	0	0.003431	7.3e-05
298.15	0.1	0.00219	4.7e-05
298.15	0.2001	0.001571	3.4e-05
298.15	0.3001	0.001233	2.6e-05
298.15	0.3999	0.001032	2.2e-05
298.15	0.5	0.0008977	1.93e-05
298.15	0.5999	0.0008022	1.73e-05
298.15	0.7001	0.0007366	1.59e-05
298.15	0.8001	0.0006907	1.5e-05
298.15	0.8997	0.0006599	1.44e-05
298.15	1	0.000643	1.4e-05
303.15	0	0.002923	6.2e-05
303.15	0.1	0.00192	4.1e-05
303.15	0.2001	0.001406	3e-05
303.15	0.3001	0.001118	2.4e-05
303.15	0.3999	0.0009462	2.03e-05
303.15	0.5	0.0008309	1.79e-05
303.15	0.5999	0.0007472	1.61e-05
303.15	0.7001	0.0006895	1.49e-05
303.15	0.8001	0.0006488	1.41e-05
303.15	0.8997	0.0006217	1.35e-05
303.15	1	0.0006072	1.33e-05
308.15	0	0.002505	5.3e-05
308.15	0.1	0.001693	3.6e-05
308.15	0.2001	0.001262	2.7e-05
308.15	0.3001	0.001018	2.2e-05
308.15	0.3999	0.0008702	1.87e-05
308.15	0.5	0.0007709	1.66e-05
308.15	0.5999	0.0006967	1.5e-05
308.15	0.7001	0.0006458	1.4e-05
308.15	0.8001	0.0006101	1.32e-05
308.15	0.8997	0.0005862	1.28e-05
308.15	1	0.0005736	1.25e-05
313.15	0	0.002161	4.6e-05
313.15	0.1	0.001501	3.2e-05
313.15	0.2001	0.001137	2.4e-05
313.15	0.3001	0.0009295	1.99e-05
313.15	0.3999	0.0008021	1.72e-05
313.15	0.5	0.0007166	1.54e-05
313.15	0.5999	0.0006507	1.4e-05
313.15	0.7001	0.0006059	1.31e-05
313.15	0.8001	0.0005742	1.25e-05
313.15	0.8997	0.0005531	1.2e-05
313.15	1	0.0005425	1.18e-05
318.15	0	0.001876	4e-05
318.15	0.1	0.001337	2.9e-05
318.15	0.2001	0.001029	2.2e-05
318.15	0.3001	0.0008513	1.82e-05
318.15	0.3999	0.0007413	1.59e-05
318.15	0.5	0.0006676	1.44e-05
318.15	0.5999	0.0006086	1.31e-05
318.15	0.7001	0.000569	1.23e-05
318.15	0.8001	0.0005409	1.17e-05
318.15	0.8997	0.0005224	1.14e-05
318.15	1	0.0005132	1.12e-05
323.15	0	0.001652	3.5e-05
323.15	0.1	0.001219	2.6e-05
323.15	0.2001	0.0009403	2.01e-05
323.15	0.3001	0.000785	1.68e-05
323.15	0.3999	0.0006914	1.48e-05
323.15	0.5	0.0006257	1.35e-05
323.15	0.5999	0.0005716	1.23e-05
323.15	0.7001	0.0005382	1.16e-05
323.15	0.8001	0.0005126	1.11e-05
323.15	0.8997	0.0004958	1.08e-05
323.15	1	0.000487	1.06e-05

System: butan-1-ol + ethyl butanoate; phases: Liquid
Fixed: Pressure, kPa = 101
Property: Mass density, kg/m3 (Liquid); method: Vibrating tube method
Temperature, K	Mole fraction of ethyl butanoate	Mass density, kg/m3	uncertainty
288.15	0	813.46	0.2
288.15	0.1	822.84	0.21
288.15	0.2001	831.39	0.21
288.15	0.2999	839.43	0.21
288.15	0.3998	846.96	0.22
288.15	0.5	854.06	0.22
288.15	0.5999	860.72	0.23
288.15	0.6998	867	0.24
288.15	0.7999	872.95	0.25
288.15	0.9001	878.66	0.26
288.15	1	884.16	0.27
293.15	0	809.66	0.2
293.15	0.1	818.8	0.21
293.15	0.2001	827.16	0.21
293.15	0.2999	835.01	0.21
293.15	0.3998	842.37	0.22
293.15	0.5	849.32	0.22
293.15	0.5999	855.86	0.23
293.15	0.6998	862.01	0.24
293.15	0.7999	867.86	0.25
293.15	0.9001	873.47	0.26
293.15	1	878.9	0.27
298.15	0	805.84	0.2
298.15	0.1	814.75	0.21
298.15	0.2001	822.9	0.21
298.15	0.2999	830.57	0.21
298.15	0.3998	837.77	0.22
298.15	0.5	844.57	0.22
298.15	0.5999	850.97	0.23
298.15	0.6998	857	0.24
298.15	0.7999	862.74	0.25
298.15	0.9001	868.27	0.26
298.15	1	873.62	0.27
303.15	0	801.99	0.21
303.15	0.1	810.68	0.21
303.15	0.2001	818.63	0.21
303.15	0.2999	826.12	0.22
303.15	0.3998	833.15	0.22
303.15	0.5	839.8	0.23
303.15	0.5999	846.07	0.23
303.15	0.6998	851.98	0.24
303.15	0.7999	857.62	0.25
303.15	0.9001	863.05	0.26
303.15	1	868.33	0.27
308.15	0	798.12	0.21
308.15	0.1	806.58	0.21
308.15	0.2001	814.33	0.21
308.15	0.2999	821.63	0.22
308.15	0.3998	828.5	0.22
308.15	0.5	835.01	0.23
308.15	0.5999	841.14	0.23
308.15	0.6998	846.94	0.24
308.15	0.7999	852.47	0.25
308.15	0.9001	857.82	0.26
308.15	1	863.02	0.27
313.15	0	794.22	0.21
313.15	0.1	802.44	0.21
313.15	0.2001	809.99	0.21
313.15	0.2999	817.12	0.22
313.15	0.3998	823.82	0.22
313.15	0.5	830.18	0.23
313.15	0.5999	836.19	0.23
313.15	0.6998	841.87	0.24
313.15	0.7999	847.3	0.25
313.15	0.9001	852.56	0.26
313.15	1	857.7	0.27
318.15	0	790.28	0.21
318.15	0.1	798.28	0.21
318.15	0.2001	805.63	0.21
318.15	0.2999	812.57	0.22
318.15	0.3998	819.12	0.22
318.15	0.5	825.33	0.23
318.15	0.5999	831.21	0.23
318.15	0.6998	836.78	0.24
318.15	0.7999	842.11	0.25
318.15	0.9001	847.29	0.26
318.15	1	852.36	0.27
323.15	0	786.29	0.21
323.15	0.1	794.08	0.21
323.15	0.2001	801.22	0.21
323.15	0.2999	807.99	0.22
323.15	0.3998	814.38	0.22
323.15	0.5	820.45	0.23
323.15	0.5999	826.2	0.23
323.15	0.6998	831.66	0.24
323.15	0.7999	836.9	0.25
323.15	0.9001	842	0.26
323.15	1	847	0.27

System: butan-1-ol + ethyl butanoate; phases: Liquid
Fixed: Pressure, kPa = 101
Property: Viscosity, Pa*s (Liquid); method: Falling or rolling sphere viscometry
Temperature, K	Mole fraction of ethyl butanoate	Viscosity, Pa*s	uncertainty
288.15	0	0.003365	7.2e-05
288.15	0.1	0.002336	5e-05
288.15	0.2001	0.001762	3.8e-05
288.15	0.2999	0.001408	3e-05
288.15	0.3998	0.001186	2.6e-05
288.15	0.5	0.001022	2.2e-05
288.15	0.5999	0.0009212	1.99e-05
288.15	0.6998	0.0008393	1.82e-05
288.15	0.7999	0.000785	1.7e-05
288.15	0.9001	0.0007409	1.61e-05
288.15	1	0.0007224	1.58e-05
293.15	0	0.002913	6.2e-05
293.15	0.1	0.002037	4.4e-05
293.15	0.2001	0.001581	3.4e-05
293.15	0.2999	0.001279	2.7e-05
293.15	0.3998	0.001085	2.3e-05
293.15	0.5	0.0009419	2.03e-05
293.15	0.5999	0.0008544	1.85e-05
293.15	0.6998	0.0007817	1.69e-05
293.15	0.7999	0.0007316	1.59e-05
293.15	0.9001	0.0006958	1.52e-05
293.15	1	0.0006808	1.49e-05
298.15	0	0.002563	5.5e-05
298.15	0.1	0.001841	3.9e-05
298.15	0.2001	0.001427	3.1e-05
298.15	0.2999	0.001166	2.5e-05
298.15	0.3998	0.0009988	2.15e-05
298.15	0.5	0.0008734	1.88e-05
298.15	0.5999	0.0007967	1.72e-05
298.15	0.6998	0.0007315	1.59e-05
298.15	0.7999	0.0006849	1.49e-05
298.15	0.9001	0.000656	1.43e-05
298.15	1	0.000643	1.4e-05
303.15	0	0.002257	4.8e-05
303.15	0.1	0.001648	3.5e-05
303.15	0.2001	0.001292	2.8e-05
303.15	0.2999	0.001068	2.3e-05
303.15	0.3998	0.0009215	1.98e-05
303.15	0.5	0.0008111	1.75e-05
303.15	0.5999	0.0007434	1.61e-05
303.15	0.6998	0.0006856	1.49e-05
303.15	0.7999	0.0006447	1.4e-05
303.15	0.9001	0.0006181	1.35e-05
303.15	1	0.0006072	1.33e-05
308.15	0	0.001994	4.3e-05
308.15	0.1	0.001479	3.2e-05
308.15	0.2001	0.001174	2.5e-05
308.15	0.2999	0.0009797	2.11e-05
308.15	0.3998	0.000852	1.83e-05
308.15	0.5	0.0007542	1.63e-05
308.15	0.5999	0.0006973	1.51e-05
308.15	0.6998	0.0006428	1.39e-05
308.15	0.7999	0.0006063	1.32e-05
308.15	0.9001	0.000583	1.27e-05
308.15	1	0.0005736	1.25e-05
313.15	0	0.001779	3.8e-05
313.15	0.1	0.001342	2.9e-05
313.15	0.2001	0.001078	2.3e-05
313.15	0.2999	0.0009078	1.95e-05
313.15	0.3998	0.0007938	1.71e-05
313.15	0.5	0.0007053	1.52e-05
313.15	0.5999	0.0006517	1.41e-05
313.15	0.6998	0.0006037	1.31e-05
313.15	0.7999	0.00057	1.24e-05
313.15	0.9001	0.0005487	1.2e-05
313.15	1	0.0005425	1.18e-05
318.15	0	0.001576	3.4e-05
318.15	0.1	0.001204	2.6e-05
318.15	0.2001	0.0009786	2.1e-05
318.15	0.2999	0.0008314	1.79e-05
318.15	0.3998	0.0007327	1.58e-05
318.15	0.5	0.0006556	1.41e-05
318.15	0.5999	0.0006088	1.32e-05
318.15	0.6998	0.0005678	1.23e-05
318.15	0.7999	0.0005382	1.17e-05
318.15	0.9001	0.0005197	1.13e-05
318.15	1	0.0005132	1.12e-05
323.15	0	0.001422	3e-05
323.15	0.1	0.001109	2.4e-05
323.15	0.2001	0.0009039	1.94e-05
323.15	0.2999	0.0007743	1.66e-05
323.15	0.3998	0.000685	1.48e-05
323.15	0.5	0.0006163	1.33e-05
323.15	0.5999	0.0005736	1.24e-05
323.15	0.6998	0.0005372	1.16e-05
323.15	0.7999	0.0005114	1.11e-05
323.15	0.9001	0.0004942	1.08e-05
323.15	1	0.000487	1.06e-05

System: ethyl butanoate + 3-methylbutan-1-ol; phases: Liquid
Fixed: Pressure, kPa = 101
Property: Mass density, kg/m3 (Liquid); method: Vibrating tube method
Temperature, K	Mole fraction of ethyl butanoate	Mass density, kg/m3	uncertainty
288.15	0	812.29	0.27
288.15	0.1001	820.68	0.27
288.15	0.2	828.59	0.27
288.15	0.3	836.24	0.27
288.15	0.4	843.64	0.27
288.15	0.5	850.77	0.27
288.15	0.6	857.71	0.27
288.15	0.7	864.47	0.27
288.15	0.7999	871.18	0.27
288.15	0.8995	877.79	0.27
288.15	1	884.16	0.27
293.15	0	808.58	0.27
293.15	0.1001	816.74	0.27
293.15	0.2	824.48	0.27
293.15	0.3	831.95	0.27
293.15	0.4	839.17	0.27
293.15	0.5	846.15	0.27
293.15	0.6	852.95	0.27
293.15	0.7	859.56	0.27
293.15	0.7999	866.14	0.27
293.15	0.8995	872.63	0.27
293.15	1	878.9	0.27
298.15	0	804.84	0.27
298.15	0.1001	812.8	0.27
298.15	0.2	820.34	0.27
298.15	0.3	827.63	0.27
298.15	0.4	834.7	0.27
298.15	0.5	841.51	0.27
298.15	0.6	848.16	0.27
298.15	0.7	854.64	0.27
298.15	0.7999	861.09	0.27
298.15	0.8995	867.46	0.27
298.15	1	873.62	0.27
303.15	0	801.09	0.27
303.15	0.1001	808.84	0.27
303.15	0.2	816.19	0.27
303.15	0.3	823.31	0.27
303.15	0.4	830.2	0.27
303.15	0.5	836.86	0.27
303.15	0.6	843.37	0.27
303.15	0.7	849.71	0.27
303.15	0.7999	856.02	0.27
303.15	0.8995	862.27	0.27
303.15	1	868.33	0.27
308.15	0	797.31	0.27
308.15	0.1001	804.86	0.27
308.15	0.2	812.02	0.27
308.15	0.3	818.96	0.27
308.15	0.4	825.69	0.27
308.15	0.5	832.19	0.27
308.15	0.6	838.55	0.27
308.15	0.7	844.75	0.27
308.15	0.7999	850.94	0.27
308.15	0.8995	857.07	0.27
308.15	1	863.02	0.27
313.15	0	793.51	0.27
313.15	0.1001	800.85	0.27
313.15	0.2	807.82	0.27
313.15	0.3	814.58	0.27
313.15	0.4	821.15	0.27
313.15	0.5	827.5	0.27
313.15	0.6	833.71	0.27
313.15	0.7	839.78	0.27
313.15	0.7999	845.83	0.27
313.15	0.8995	851.85	0.27
313.15	1	857.7	0.27
318.15	0	789.67	0.27
318.15	0.1001	796.81	0.27
318.15	0.2	803.6	0.27
318.15	0.3	810.18	0.27
318.15	0.4	816.58	0.27
318.15	0.5	822.78	0.27
318.15	0.6	828.85	0.27
318.15	0.7	834.78	0.27
318.15	0.7999	840.71	0.27
318.15	0.8995	846.61	0.27
318.15	1	852.36	0.27
323.15	0	785.79	0.27
323.15	0.1001	792.73	0.27
323.15	0.2	799.34	0.27
323.15	0.3	805.76	0.27
323.15	0.4	811.99	0.27
323.15	0.5	818.03	0.27
323.15	0.6	823.96	0.27
323.15	0.7	829.75	0.27
323.15	0.7999	835.56	0.27
323.15	0.8995	841.34	0.27
323.15	1	847	0.27

System: ethyl butanoate + 3-methylbutan-1-ol; phases: Liquid
Fixed: Pressure, kPa = 101
Property: Viscosity, Pa*s (Liquid); method: Falling or rolling sphere viscometry
Temperature, K	Mole fraction of ethyl butanoate	Viscosity, Pa*s	uncertainty
288.15	0	0.005057	0.00011
288.15	0.1001	0.003238	7.1e-05
288.15	0.2	0.002255	4.9e-05
288.15	0.3	0.001754	3.8e-05
288.15	0.4	0.001414	3.1e-05
288.15	0.5	0.001184	2.6e-05
288.15	0.6	0.001031	2.3e-05
288.15	0.7	0.0009059	1.98e-05
288.15	0.7999	0.0008213	1.79e-05
288.15	0.8995	0.0007679	1.68e-05
288.15	1	0.0007224	1.58e-05
293.15	0	0.004288	9.4e-05
293.15	0.1001	0.002813	6.1e-05
293.15	0.2	0.002	4.4e-05
293.15	0.3	0.001575	3.4e-05
293.15	0.4	0.001285	2.8e-05
293.15	0.5	0.001086	2.4e-05
293.15	0.6	0.000953	2.08e-05
293.15	0.7	0.0008432	1.84e-05
293.15	0.7999	0.0007689	1.68e-05
293.15	0.8995	0.0007214	1.57e-05
293.15	1	0.0006808	1.49e-05
298.15	0	0.003671	8e-05
298.15	0.1001	0.002462	5.4e-05
298.15	0.2	0.001785	3.9e-05
298.15	0.3	0.001422	3.1e-05
298.15	0.4	0.001172	2.6e-05
298.15	0.5	0.0009993	2.18e-05
298.15	0.6	0.0008831	1.93e-05
298.15	0.7	0.0007864	1.72e-05
298.15	0.7999	0.0007207	1.57e-05
298.15	0.8995	0.0006784	1.48e-05
298.15	1	0.000643	1.4e-05
303.15	0	0.003155	6.9e-05
303.15	0.1001	0.002164	4.7e-05
303.15	0.2	0.001598	3.5e-05
303.15	0.3	0.001288	2.8e-05
303.15	0.4	0.001073	2.3e-05
303.15	0.5	0.0009221	2.01e-05
303.15	0.6	0.0008204	1.79e-05
303.15	0.7	0.0007345	1.6e-05
303.15	0.7999	0.0006764	1.48e-05
303.15	0.8995	0.0006389	1.39e-05
303.15	1	0.0006072	1.33e-05
308.15	0	0.00273	6e-05
308.15	0.1001	0.001914	4.2e-05
308.15	0.2	0.001439	3.1e-05
308.15	0.3	0.001172	2.6e-05
308.15	0.4	0.0009851	2.15e-05
308.15	0.5	0.000853	1.86e-05
308.15	0.6	0.0007639	1.67e-05
308.15	0.7	0.0006872	1.5e-05
308.15	0.7999	0.0006355	1.39e-05
308.15	0.8995	0.0006026	1.32e-05
308.15	1	0.0005736	1.25e-05
313.15	0	0.002375	5.2e-05
313.15	0.1001	0.0017	3.7e-05
313.15	0.2	0.001302	2.8e-05
313.15	0.3	0.001069	2.3e-05
313.15	0.4	0.0009071	1.98e-05
313.15	0.5	0.0007907	1.73e-05
313.15	0.6	0.0007128	1.56e-05
313.15	0.7	0.0006437	1.41e-05
313.15	0.7999	0.0005975	1.3e-05
313.15	0.8995	0.000569	1.24e-05
313.15	1	0.0005425	1.18e-05
318.15	0	0.002076	4.5e-05
318.15	0.1001	0.001516	3.3e-05
318.15	0.2	0.001181	2.6e-05
318.15	0.3	0.0009787	2.14e-05
318.15	0.4	0.0008373	1.83e-05
318.15	0.5	0.0007346	1.6e-05
318.15	0.6	0.0006658	1.45e-05
318.15	0.7	0.0006038	1.32e-05
318.15	0.7999	0.0005626	1.23e-05
318.15	0.8995	0.000538	1.17e-05
318.15	1	0.0005132	1.12e-05
323.15	0	0.001841	4e-05
323.15	0.1001	0.001371	3e-05
323.15	0.2	0.00108	2.4e-05
323.15	0.3	0.0008983	1.96e-05
323.15	0.4	0.0007743	1.69e-05
323.15	0.5	0.0006838	1.49e-05
323.15	0.6	0.0006195	1.35e-05
323.15	0.7	0.0005672	1.24e-05
323.15	0.7999	0.0005303	1.16e-05
323.15	0.8995	0.0005071	1.11e-05
323.15	1	0.000487	1.06e-05

System: ethyl butanoate + hexan-1-ol; phases: Liquid
Fixed: Pressure, kPa = 101
Property: Mass density, kg/m3 (Liquid); method: Vibrating tube method
Temperature, K	Mole fraction of ethyl butanoate	Mass density, kg/m3	uncertainty
288.15	0	822.26	0.27
288.15	0.0997	828.32	0.27
288.15	0.1998	834.25	0.27
288.15	0.3002	840.39	0.27
288.15	0.4	846.47	0.27
288.15	0.5	852.62	0.27
288.15	0.5998	858.84	0.27
288.15	0.6999	865.11	0.27
288.15	0.7999	871.43	0.27
288.15	0.8998	877.77	0.27
288.15	1	884.16	0.27
293.15	0	818.7	0.27
293.15	0.0997	824.57	0.27
293.15	0.1998	830.32	0.27
293.15	0.3002	836.29	0.27
293.15	0.4	842.19	0.27
293.15	0.5	848.18	0.27
293.15	0.5998	854.23	0.27
293.15	0.6999	860.32	0.27
293.15	0.7999	866.48	0.27
293.15	0.8998	872.65	0.27
293.15	1	878.9	0.27
298.15	0	815.12	0.27
298.15	0.0997	820.8	0.27
298.15	0.1998	826.39	0.27
298.15	0.3002	832.17	0.27
298.15	0.4	837.9	0.27
298.15	0.5	843.72	0.27
298.15	0.5998	849.59	0.27
298.15	0.6999	855.52	0.27
298.15	0.7999	861.51	0.27
298.15	0.8998	867.52	0.27
298.15	1	873.62	0.27
303.15	0	811.52	0.27
303.15	0.0997	817.02	0.27
303.15	0.1998	822.43	0.27
303.15	0.3002	828.03	0.27
303.15	0.4	833.6	0.27
303.15	0.5	839.24	0.27
303.15	0.5998	844.95	0.27
303.15	0.6999	850.71	0.27
303.15	0.7999	856.53	0.27
303.15	0.8998	862.38	0.27
303.15	1	868.33	0.27
308.15	0	807.89	0.27
308.15	0.0997	813.22	0.27
308.15	0.1998	818.46	0.27
308.15	0.3002	823.88	0.27
308.15	0.4	829.27	0.27
308.15	0.5	834.75	0.27
308.15	0.5998	840.28	0.27
308.15	0.6999	845.88	0.27
308.15	0.7999	851.54	0.27
308.15	0.8998	857.23	0.27
308.15	1	863.02	0.27
313.15	0	804.25	0.27
313.15	0.0997	809.4	0.27
313.15	0.1998	814.46	0.27
313.15	0.3002	819.7	0.27
313.15	0.4	824.92	0.27
313.15	0.5	830.23	0.27
313.15	0.5998	835.6	0.27
313.15	0.6999	841.02	0.27
313.15	0.7999	846.52	0.27
313.15	0.8998	852.06	0.27
313.15	1	857.7	0.27
318.15	0	800.56	0.27
318.15	0.0997	805.54	0.27
318.15	0.1998	810.43	0.27
318.15	0.3002	815.5	0.27
318.15	0.4	820.55	0.27
318.15	0.5	825.69	0.27
318.15	0.5998	830.89	0.27
318.15	0.6999	836.15	0.27
318.15	0.7999	841.48	0.27
318.15	0.8998	846.86	0.27
318.15	1	852.36	0.27
323.15	0	796.85	0.27
323.15	0.0997	801.66	0.27
323.15	0.1998	806.38	0.27
323.15	0.3002	811.27	0.27
323.15	0.4	816.15	0.27
323.15	0.5	821.13	0.27
323.15	0.5998	826.16	0.27
323.15	0.6999	831.25	0.27
323.15	0.7999	836.43	0.27
323.15	0.8998	841.64	0.27
323.15	1	847	0.27

System: ethyl butanoate + hexan-1-ol; phases: Liquid
Fixed: Pressure, kPa = 101
Property: Viscosity, Pa*s (Liquid); method: Falling or rolling sphere viscometry
Temperature, K	Mole fraction of ethyl butanoate	Viscosity, Pa*s	uncertainty
288.15	0	0.006308	0.000138
288.15	0.0997	0.004176	9.1e-05
288.15	0.1998	0.002965	6.5e-05
288.15	0.3002	0.002214	4.8e-05
288.15	0.4	0.001735	3.8e-05
288.15	0.5	0.001399	3.1e-05
288.15	0.5998	0.00117	2.6e-05
288.15	0.6999	0.0009966	2.17e-05
288.15	0.7999	0.0008726	1.9e-05
288.15	0.8998	0.0007818	1.71e-05
288.15	1	0.0007224	1.58e-05
293.15	0	0.005332	0.000116
293.15	0.0997	0.0036	7.9e-05
293.15	0.1998	0.0026	5.7e-05
293.15	0.3002	0.00197	4.3e-05
293.15	0.4	0.001563	3.4e-05
293.15	0.5	0.001274	2.8e-05
293.15	0.5998	0.001075	2.3e-05
293.15	0.6999	0.0009233	2.01e-05
293.15	0.7999	0.0008142	1.78e-05
293.15	0.8998	0.0007339	1.6e-05
293.15	1	0.0006808	1.49e-05
298.15	0	0.004538	9.9e-05
298.15	0.0997	0.003124	6.8e-05
298.15	0.1998	0.002295	5e-05
298.15	0.3002	0.001762	3.8e-05
298.15	0.4	0.001414	3.1e-05
298.15	0.5	0.001166	2.5e-05
298.15	0.5998	0.000991	2.16e-05
298.15	0.6999	0.000857	1.87e-05
298.15	0.7999	0.000761	1.66e-05
298.15	0.8998	0.0006898	1.51e-05
298.15	1	0.000643	1.4e-05
303.15	0	0.003896	8.5e-05
303.15	0.0997	0.002731	6e-05
303.15	0.1998	0.002038	4.4e-05
303.15	0.3002	0.001585	3.5e-05
303.15	0.4	0.001286	2.8e-05
303.15	0.5	0.001069	2.3e-05
303.15	0.5998	0.0009185	2e-05
303.15	0.6999	0.0007979	1.74e-05
303.15	0.7999	0.0007129	1.56e-05
303.15	0.8998	0.0006492	1.42e-05
303.15	1	0.0006072	1.33e-05
308.15	0	0.003361	7.3e-05
308.15	0.0997	0.002403	5.2e-05
308.15	0.1998	0.001819	4e-05
308.15	0.3002	0.001433	3.1e-05
308.15	0.4	0.001174	2.6e-05
308.15	0.5	0.0009852	2.15e-05
308.15	0.5998	0.0008501	1.86e-05
308.15	0.6999	0.0007452	1.63e-05
308.15	0.7999	0.0006686	1.46e-05
308.15	0.8998	0.0006113	1.33e-05
308.15	1	0.0005736	1.25e-05
313.15	0	0.002917	6.4e-05
313.15	0.0997	0.002124	4.6e-05
313.15	0.1998	0.001631	3.6e-05
313.15	0.3002	0.0013	2.8e-05
313.15	0.4	0.001076	2.3e-05
313.15	0.5	0.0009099	1.99e-05
313.15	0.5998	0.0007898	1.72e-05
313.15	0.6999	0.0006964	1.52e-05
313.15	0.7999	0.0006277	1.37e-05
313.15	0.8998	0.0005762	1.26e-05
313.15	1	0.0005425	1.18e-05
318.15	0	0.002546	5.6e-05
318.15	0.0997	0.001887	4.1e-05
318.15	0.1998	0.001469	3.2e-05
318.15	0.3002	0.001184	2.6e-05
318.15	0.4	0.0009878	2.16e-05
318.15	0.5	0.0008422	1.84e-05
318.15	0.5998	0.0007355	1.61e-05
318.15	0.6999	0.000652	1.42e-05
318.15	0.7999	0.0005903	1.29e-05
318.15	0.8998	0.000544	1.19e-05
318.15	1	0.0005132	1.12e-05
323.15	0	0.002241	4.9e-05
323.15	0.0997	0.0017	3.7e-05
323.15	0.1998	0.001332	2.9e-05
323.15	0.3002	0.001089	2.4e-05
323.15	0.4	0.0009186	2e-05
323.15	0.5	0.000788	1.72e-05
323.15	0.5998	0.0006919	1.51e-05
323.15	0.6999	0.0006147	1.34e-05
323.15	0.7999	0.0005594	1.22e-05
323.15	0.8998	0.0005176	1.13e-05
323.15	1	0.000487	1.06e-05
