Measured thermophysical data. Infinite Dilution Activity Coefficients of Solutes Dissolved in Two Trihexyl(tetradecyl)phosphonium Ionic Liquids
Source: J. Chem. Eng. Data, 2014, 10.1021/je500050p
Compound 1: N,N,N-trihexyl-1-tetradecanaminium (2S)-2-hydroxypropanoate, C35H73NO3, InChI=1S/C32H68N.C3H6O3/c1-5-9-13-17-18-19-20-21-22-23-24-28-32-33(29-25-14-10-6-2,30-26-15-11-7-3)31-27-16-12-8-4;1-2(4)3(5)6/h5-32H2,1-4H3;2,4H,1H3,(H,5,6)/q+1;/p-1/t;2-/m.0/s1, purity 99%
Compound 2: N,N,N-trihexyltetradecan-1-aminium ((1S,4R)-7,7-dimethyl-2-oxobicyclo[2.2.1]heptan-1-yl)methanesulfonate, C42H83NO4S, InChI=1S/C32H68N.C10H16O4S/c1-5-9-13-17-18-19-20-21-22-23-24-28-32-33(29-25-14-10-6-2,30-26-15-11-7-3)31-27-16-12-8-4;1-9(2)7-3-4-10(9,8(11)5-7)6-15(12,13)14/h5-32H2,1-4H3;7H,3-6H2,1-2H3,(H,12,13,14)/q+1;/p-1/t;7-,10-/m.1/s1, purity 99%
Compound 3: hexane, C6H14, InChI=1S/C6H14/c1-3-5-6-4-2/h3-6H2,1-2H3, purity 99.5%
Compound 4: heptane, C7H16, InChI=1S/C7H16/c1-3-5-7-6-4-2/h3-7H2,1-2H3, purity 99.5%
Compound 5: 2,2,4-trimethylpentane, C8H18, InChI=1S/C8H18/c1-7(2)6-8(3,4)5/h7H,6H2,1-5H3, purity 99.5%
Compound 6: octane, C8H18, InChI=1S/C8H18/c1-3-5-7-8-6-4-2/h3-8H2,1-2H3, purity 99.5%
Compound 7: nonane, C9H20, InChI=1S/C9H20/c1-3-5-7-9-8-6-4-2/h3-9H2,1-2H3, purity 99.5%
Compound 8: decane, C10H22, InChI=1S/C10H22/c1-3-5-7-9-10-8-6-4-2/h3-10H2,1-2H3, purity 99.5%
Compound 9: undecane, C11H24, InChI=1S/C11H24/c1-3-5-7-9-11-10-8-6-4-2/h3-11H2,1-2H3, purity 99.5%
Compound 10: dodecane, C12H26, InChI=1S/C12H26/c1-3-5-7-9-11-12-10-8-6-4-2/h3-12H2,1-2H3, purity 99.5%
Compound 11: methylcyclopentane, C6H12, InChI=1S/C6H12/c1-6-4-2-3-5-6/h6H,2-5H2,1H3, purity 99.5%
Compound 12: cyclohexane, C6H12, InChI=1S/C6H12/c1-2-4-6-5-3-1/h1-6H2, purity 99.5%
Compound 13: methylcyclohexane, C7H14, InChI=1S/C7H14/c1-7-5-3-2-4-6-7/h7H,2-6H2,1H3, purity 99.5%
Compound 14: benzene, C6H6, InChI=1S/C6H6/c1-2-4-6-5-3-1/h1-6H, purity 99.5%
Compound 15: toluene, C7H8, InChI=1S/C7H8/c1-7-5-3-2-4-6-7/h2-6H,1H3, purity 99.5%
Compound 16: ethylbenzene, C8H10, InChI=1S/C8H10/c1-2-8-6-4-3-5-7-8/h3-7H,2H2,1H3, purity 99.5%
Compound 17: 1,3-dimethylbenzene, C8H10, InChI=1S/C8H10/c1-7-4-3-5-8(2)6-7/h3-6H,1-2H3, purity 99.5%
Compound 18: 1,4-dimethylbenzene, C8H10, InChI=1S/C8H10/c1-7-3-5-8(2)6-4-7/h3-6H,1-2H3, purity 99.5%
Compound 19: 1,2-dimethylbenzene, C8H10, InChI=1S/C8H10/c1-7-5-3-4-6-8(7)2/h3-6H,1-2H3, purity 99.5%
Compound 20: hex-1-ene, C6H12, InChI=1S/C6H12/c1-3-5-6-4-2/h3H,1,4-6H2,2H3, purity 99.5%
Compound 21: 1-hexyne, C6H10, InChI=1S/C6H10/c1-3-5-6-4-2/h1H,4-6H2,2H3, purity 99.5%
Compound 22: 1-heptyne, C7H12, InChI=1S/C7H12/c1-3-5-7-6-4-2/h1H,4-7H2,2H3, purity 99.5%
Compound 23: butanone, C4H8O, InChI=1S/C4H8O/c1-3-4(2)5/h3H2,1-2H3, purity 99.5%
Compound 24: pentan-2-one, C5H10O, InChI=1S/C5H10O/c1-3-4-5(2)6/h3-4H2,1-2H3, purity 99.5%
Compound 25: pentan-3-one, C5H10O, InChI=1S/C5H10O/c1-3-5(6)4-2/h3-4H2,1-2H3, purity 99.5%
Compound 26: 1,4-dioxane, C4H8O2, InChI=1S/C4H8O2/c1-2-6-4-3-5-1/h1-4H2, purity 99.5%
Compound 27: methanol, CH4O, InChI=1S/CH4O/c1-2/h2H,1H3, purity 99.5%
Compound 28: ethanol, C2H6O, InChI=1S/C2H6O/c1-2-3/h3H,2H2,1H3, purity 99.5%
Compound 29: propan-1-ol, C3H8O, InChI=1S/C3H8O/c1-2-3-4/h4H,2-3H2,1H3, purity 99.5%
Compound 30: propan-2-ol, C3H8O, InChI=1S/C3H8O/c1-3(2)4/h3-4H,1-2H3, purity 99.5%
Compound 31: 2-methyl-1-propanol, C4H10O, InChI=1S/C4H10O/c1-4(2)3-5/h4-5H,3H2,1-2H3, purity 99.5%
Compound 32: butan-1-ol, C4H10O, InChI=1S/C4H10O/c1-2-3-4-5/h5H,2-4H2,1H3, purity 99.5%
Compound 33: diethyl ether, C4H10O, InChI=1S/C4H10O/c1-3-5-4-2/h3-4H2,1-2H3, purity 99.5%
Compound 34: diisopropyl ether, C6H14O, InChI=1S/C6H14O/c1-5(2)7-6(3)4/h5-6H,1-4H3, purity 99.5%
Compound 35: trichloromethane, CHCl3, InChI=1S/CHCl3/c2-1(3)4/h1H, purity 99.5%
Compound 36: dichloromethane, CH2Cl2, InChI=1S/CH2Cl2/c2-1-3/h1H2, purity 99.5%
Compound 37: tetrachloromethane, CCl4, InChI=1S/CCl4/c2-1(3,4)5, purity 99.5%
Compound 38: acetonitrile, C2H3N, InChI=1S/C2H3N/c1-2-3/h1H3, purity 99.5%
Compound 39: nitromethane, CH3NO2, InChI=1S/CH3NO2/c1-2(3)4/h1H3, purity 99.5%
Compound 40: 1-nitropropane, C3H7NO2, InChI=1S/C3H7NO2/c1-2-3-4(5)6/h2-3H2,1H3, purity 99.5%
Compound 41: triethylamine, C6H15N, InChI=1S/C6H15N/c1-4-7(5-2)6-3/h4-6H2,1-3H3, purity 99.5%
Compound 42: pyridine, C5H5N, InChI=1S/C5H5N/c1-2-4-6-5-3-1/h1-5H, purity 99.5%
Compound 43: thiophene, C4H4S, InChI=1S/C4H4S/c1-2-4-5-3-1/h1-4H, purity 99.5%

System: N,N,N-trihexyl-1-tetradecanaminium (2S)-2-hydroxypropanoate; phases: Liquid
Fixed: Pressure, kPa = 101.325
Property: Mass density, kg/m3 (Liquid); method: Vibrating tube method
Temperature, K	Mass density, kg/m3	uncertainty
298.55	894.8	0.3
313.45	885.7	0.3
323.45	879.9	0.3
333.25	874.5	0.3

System: N,N,N-trihexyltetradecan-1-aminium ((1S,4R)-7,7-dimethyl-2-oxobicyclo[2.2.1]heptan-1-yl)methanesulfonate; phases: Liquid
Fixed: Pressure, kPa = 101.325
Property: Mass density, kg/m3 (Liquid); method: Vibrating tube method
Temperature, K	Mass density, kg/m3	uncertainty
298.55	963.8	0.3
313.45	953.4	0.3
323.45	946.1	0.3
333.25	939.1	0.3

System: hexane + N,N,N-trihexyl-1-tetradecanaminium (2S)-2-hydroxypropanoate; phases: Liquid
Fixed: Pressure, kPa = 101
Fixed: Mole fraction of hexane = 0
Property: Activity coefficient of hexane (Liquid); method: Chromatography
Temperature, K	Activity coefficient of hexane	uncertainty
323.15	1.11	0.07
353.15	1.06	0.07
373.15	1.06	0.07

System: heptane + N,N,N-trihexyl-1-tetradecanaminium (2S)-2-hydroxypropanoate; phases: Liquid
Fixed: Pressure, kPa = 101
Fixed: Mole fraction of heptane = 0
Property: Activity coefficient of heptane (Liquid); method: Chromatography
Temperature, K	Activity coefficient of heptane	uncertainty
323.15	1.22	0.08
353.15	1.17	0.07
373.15	1.16	0.07

System: 2,2,4-trimethylpentane + N,N,N-trihexyl-1-tetradecanaminium (2S)-2-hydroxypropanoate; phases: Liquid
Fixed: Pressure, kPa = 101
Fixed: Mole fraction of 2,2,4-trimethylpentane = 0
Property: Activity coefficient of 2,2,4-trimethylpentane (Liquid); method: Chromatography
Temperature, K	Activity coefficient of 2,2,4-trimethylpentane	uncertainty
323.15	1.33	0.09
353.15	1.27	0.08
373.15	1.25	0.08

System: octane + N,N,N-trihexyl-1-tetradecanaminium (2S)-2-hydroxypropanoate; phases: Liquid
Fixed: Pressure, kPa = 101
Fixed: Mole fraction of octane = 0
Property: Activity coefficient of octane (Liquid); method: Chromatography
Temperature, K	Activity coefficient of octane	uncertainty
323.15	1.37	0.09
353.15	1.31	0.09
373.15	1.29	0.08

System: nonane + N,N,N-trihexyl-1-tetradecanaminium (2S)-2-hydroxypropanoate; phases: Liquid
Fixed: Pressure, kPa = 101
Fixed: Mole fraction of nonane = 0
Property: Activity coefficient of nonane (Liquid); method: Chromatography
Temperature, K	Activity coefficient of nonane	uncertainty
323.15	1.67	0.11
353.15	1.59	0.11
373.15	1.51	0.1

System: decane + N,N,N-trihexyl-1-tetradecanaminium (2S)-2-hydroxypropanoate; phases: Liquid
Fixed: Pressure, kPa = 101
Fixed: Mole fraction of decane = 0
Property: Activity coefficient of decane (Liquid); method: Chromatography
Temperature, K	Activity coefficient of decane	uncertainty
323.15	1.67	0.11
353.15	1.63	0.11
373.15	1.59	0.11

System: undecane + N,N,N-trihexyl-1-tetradecanaminium (2S)-2-hydroxypropanoate; phases: Liquid
Fixed: Pressure, kPa = 101
Fixed: Mole fraction of undecane = 0
Property: Activity coefficient of undecane (Liquid); method: Chromatography
Temperature, K	Activity coefficient of undecane	uncertainty
323.15	1.67	0.11
353.15	1.81	0.12
373.15	1.75	0.12

System: methylcyclopentane + N,N,N-trihexyl-1-tetradecanaminium (2S)-2-hydroxypropanoate; phases: Liquid
Fixed: Pressure, kPa = 101
Fixed: Mole fraction of methylcyclopentane = 0
Property: Activity coefficient of methylcyclopentane (Liquid); method: Chromatography
Temperature, K	Activity coefficient of methylcyclopentane	uncertainty
323.15	0.82	0.05
353.15	0.78	0.05
373.15	0.77	0.05

System: cyclohexane + N,N,N-trihexyl-1-tetradecanaminium (2S)-2-hydroxypropanoate; phases: Liquid
Fixed: Pressure, kPa = 101
Fixed: Mole fraction of cyclohexane = 0
Property: Activity coefficient of cyclohexane (Liquid); method: Chromatography
Temperature, K	Activity coefficient of cyclohexane	uncertainty
323.15	0.77	0.05
353.15	0.73	0.05
373.15	0.71	0.05

System: methylcyclohexane + N,N,N-trihexyl-1-tetradecanaminium (2S)-2-hydroxypropanoate; phases: Liquid
Fixed: Pressure, kPa = 101
Fixed: Mole fraction of methylcyclohexane = 0
Property: Activity coefficient of methylcyclohexane (Liquid); method: Chromatography
Temperature, K	Activity coefficient of methylcyclohexane	uncertainty
323.15	0.86	0.06
353.15	0.82	0.05
373.15	0.81	0.05

System: benzene + N,N,N-trihexyl-1-tetradecanaminium (2S)-2-hydroxypropanoate; phases: Liquid
Fixed: Pressure, kPa = 101
Fixed: Mole fraction of benzene = 0
Property: Activity coefficient of benzene (Liquid); method: Chromatography
Temperature, K	Activity coefficient of benzene	uncertainty
323.15	0.38	0.03
353.15	0.38	0.03
373.15	0.39	0.03

System: toluene + N,N,N-trihexyl-1-tetradecanaminium (2S)-2-hydroxypropanoate; phases: Liquid
Fixed: Pressure, kPa = 101
Fixed: Mole fraction of toluene = 0
Property: Activity coefficient of toluene (Liquid); method: Chromatography
Temperature, K	Activity coefficient of toluene	uncertainty
323.15	0.46	0.04
353.15	0.46	0.04
373.15	0.48	0.04

System: ethylbenzene + N,N,N-trihexyl-1-tetradecanaminium (2S)-2-hydroxypropanoate; phases: Liquid
Fixed: Pressure, kPa = 101
Fixed: Mole fraction of ethylbenzene = 0
Property: Activity coefficient of ethylbenzene (Liquid); method: Chromatography
Temperature, K	Activity coefficient of ethylbenzene	uncertainty
323.15	0.56	0.04
353.15	0.56	0.04
373.15	0.57	0.04

System: 1,3-dimethylbenzene + N,N,N-trihexyl-1-tetradecanaminium (2S)-2-hydroxypropanoate; phases: Liquid
Fixed: Pressure, kPa = 101
Fixed: Mole fraction of 1,3-dimethylbenzene = 0
Property: Activity coefficient of 1,3-dimethylbenzene (Liquid); method: Chromatography
Temperature, K	Activity coefficient of 1,3-dimethylbenzene	uncertainty
323.15	0.57	0.04
353.15	0.59	0.04
373.15	0.6	0.1

System: 1,4-dimethylbenzene + N,N,N-trihexyl-1-tetradecanaminium (2S)-2-hydroxypropanoate; phases: Liquid
Fixed: Pressure, kPa = 101
Fixed: Mole fraction of 1,4-dimethylbenzene = 0
Property: Activity coefficient of 1,4-dimethylbenzene (Liquid); method: Chromatography
Temperature, K	Activity coefficient of 1,4-dimethylbenzene	uncertainty
323.15	0.58	0.04
353.15	0.58	0.04
373.15	0.58	0.04

System: 1,2-dimethylbenzene + N,N,N-trihexyl-1-tetradecanaminium (2S)-2-hydroxypropanoate; phases: Liquid
Fixed: Pressure, kPa = 101
Fixed: Mole fraction of 1,2-dimethylbenzene = 0
Property: Activity coefficient of 1,2-dimethylbenzene (Liquid); method: Chromatography
Temperature, K	Activity coefficient of 1,2-dimethylbenzene	uncertainty
323.15	0.53	0.04
353.15	0.55	0.04
373.15	0.58	0.04

System: hex-1-ene + N,N,N-trihexyl-1-tetradecanaminium (2S)-2-hydroxypropanoate; phases: Liquid
Fixed: Pressure, kPa = 101
Fixed: Mole fraction of hex-1-ene = 0
Property: Activity coefficient of hex-1-ene (Liquid); method: Chromatography
Temperature, K	Activity coefficient of hex-1-ene	uncertainty
323.15	0.93	0.06
353.15	0.95	0.06
373.15	0.97	0.06

System: pentan-2-one + N,N,N-trihexyl-1-tetradecanaminium (2S)-2-hydroxypropanoate; phases: Liquid
Fixed: Pressure, kPa = 101
Fixed: Mole fraction of pentan-2-one = 0
Property: Activity coefficient of pentan-2-one (Liquid); method: Chromatography
Temperature, K	Activity coefficient of pentan-2-one	uncertainty
323.15	0.6	0.1
353.15	0.59	0.04
373.15	0.59	0.04

System: pentan-3-one + N,N,N-trihexyl-1-tetradecanaminium (2S)-2-hydroxypropanoate; phases: Liquid
Fixed: Pressure, kPa = 101
Fixed: Mole fraction of pentan-3-one = 0
Property: Activity coefficient of pentan-3-one (Liquid); method: Chromatography
Temperature, K	Activity coefficient of pentan-3-one	uncertainty
323.15	0.55	0.04
353.15	0.55	0.04
373.15	0.57	0.04

System: methanol + N,N,N-trihexyl-1-tetradecanaminium (2S)-2-hydroxypropanoate; phases: Liquid
Fixed: Pressure, kPa = 101
Fixed: Mole fraction of methanol = 0
Property: Activity coefficient of methanol (Liquid); method: Chromatography
Temperature, K	Activity coefficient of methanol	uncertainty
323.15	0.03	0.03
353.15	0.03	0.03
373.15	0.03	0.03

System: ethanol + N,N,N-trihexyl-1-tetradecanaminium (2S)-2-hydroxypropanoate; phases: Liquid
Fixed: Pressure, kPa = 101
Fixed: Mole fraction of ethanol = 0
Property: Activity coefficient of ethanol (Liquid); method: Chromatography
Temperature, K	Activity coefficient of ethanol	uncertainty
323.15	0.03	0.03
353.15	0.03	0.03
373.15	0.04	0.03

System: diethyl ether + N,N,N-trihexyl-1-tetradecanaminium (2S)-2-hydroxypropanoate; phases: Liquid
Fixed: Pressure, kPa = 101
Fixed: Mole fraction of diethyl ether = 0
Property: Activity coefficient of diethyl ether (Liquid); method: Chromatography
Temperature, K	Activity coefficient of diethyl ether	uncertainty
323.15	0.84	0.05
353.15	0.79	0.05
373.15	0.77	0.05

System: diisopropyl ether + N,N,N-trihexyl-1-tetradecanaminium (2S)-2-hydroxypropanoate; phases: Liquid
Fixed: Pressure, kPa = 101
Fixed: Mole fraction of diisopropyl ether = 0
Property: Activity coefficient of diisopropyl ether (Liquid); method: Chromatography
Temperature, K	Activity coefficient of diisopropyl ether	uncertainty
323.15	1.13	0.07
353.15	1.08	0.07
373.15	1.06	0.07

System: trichloromethane + N,N,N-trihexyl-1-tetradecanaminium (2S)-2-hydroxypropanoate; phases: Liquid
Fixed: Pressure, kPa = 101
Fixed: Mole fraction of trichloromethane = 0
Property: Activity coefficient of trichloromethane (Liquid); method: Chromatography
Temperature, K	Activity coefficient of trichloromethane	uncertainty
323.15	0.05	0.03
353.15	0.04	0.03
373.15	0.03	0.03

System: dichloromethane + N,N,N-trihexyl-1-tetradecanaminium (2S)-2-hydroxypropanoate; phases: Liquid
Fixed: Pressure, kPa = 101
Fixed: Mole fraction of dichloromethane = 0
Property: Activity coefficient of dichloromethane (Liquid); method: Chromatography
Temperature, K	Activity coefficient of dichloromethane	uncertainty
323.15	0.06	0.03
353.15	0.08	0.03
373.15	0.1	0.1

System: tetrachloromethane + N,N,N-trihexyl-1-tetradecanaminium (2S)-2-hydroxypropanoate; phases: Liquid
Fixed: Pressure, kPa = 101
Fixed: Mole fraction of tetrachloromethane = 0
Property: Activity coefficient of tetrachloromethane (Liquid); method: Chromatography
Temperature, K	Activity coefficient of tetrachloromethane	uncertainty
323.15	0.24	0.03
353.15	0.26	0.03
373.15	0.29	0.03

System: acetonitrile + N,N,N-trihexyl-1-tetradecanaminium (2S)-2-hydroxypropanoate; phases: Liquid
Fixed: Pressure, kPa = 101
Fixed: Mole fraction of acetonitrile = 0
Property: Activity coefficient of acetonitrile (Liquid); method: Chromatography
Temperature, K	Activity coefficient of acetonitrile	uncertainty
323.15	0.45	0.04
353.15	0.44	0.04
373.15	0.43	0.04

System: nitromethane + N,N,N-trihexyl-1-tetradecanaminium (2S)-2-hydroxypropanoate; phases: Liquid
Fixed: Pressure, kPa = 101
Fixed: Mole fraction of nitromethane = 0
Property: Activity coefficient of nitromethane (Liquid); method: Chromatography
Temperature, K	Activity coefficient of nitromethane	uncertainty
323.15	0.32	0.03
353.15	0.31	0.03
373.15	0.31	0.03

System: 1-nitropropane + N,N,N-trihexyl-1-tetradecanaminium (2S)-2-hydroxypropanoate; phases: Liquid
Fixed: Pressure, kPa = 101
Fixed: Mole fraction of 1-nitropropane = 0
Property: Activity coefficient of 1-nitropropane (Liquid); method: Chromatography
Temperature, K	Activity coefficient of 1-nitropropane	uncertainty
323.15	0.33	0.03
353.15	0.34	0.03
373.15	0.36	0.03

System: pyridine + N,N,N-trihexyl-1-tetradecanaminium (2S)-2-hydroxypropanoate; phases: Liquid
Fixed: Pressure, kPa = 101
Fixed: Mole fraction of pyridine = 0
Property: Activity coefficient of pyridine (Liquid); method: Chromatography
Temperature, K	Activity coefficient of pyridine	uncertainty
323.15	0.34	0.03
353.15	0.34	0.03
373.15	0.34	0.03

System: thiophene + N,N,N-trihexyl-1-tetradecanaminium (2S)-2-hydroxypropanoate; phases: Liquid
Fixed: Pressure, kPa = 101
Fixed: Mole fraction of thiophene = 0
Property: Activity coefficient of thiophene (Liquid); method: Chromatography
Temperature, K	Activity coefficient of thiophene	uncertainty
323.15	0.28	0.03
353.15	0.29	0.03
373.15	0.3	0.1

System: hexane + N,N,N-trihexyltetradecan-1-aminium ((1S,4R)-7,7-dimethyl-2-oxobicyclo[2.2.1]heptan-1-yl)methanesulfonate; phases: Liquid
Fixed: Pressure, kPa = 101
Fixed: Mole fraction of hexane = 0
Property: Activity coefficient of hexane (Liquid); method: Chromatography
Temperature, K	Activity coefficient of hexane	uncertainty
323.15	1.05	0.07
333.15	1.54	0.1
343.15	1.81	0.12

System: heptane + N,N,N-trihexyltetradecan-1-aminium ((1S,4R)-7,7-dimethyl-2-oxobicyclo[2.2.1]heptan-1-yl)methanesulfonate; phases: Liquid
Fixed: Pressure, kPa = 101
Fixed: Mole fraction of heptane = 0
Property: Activity coefficient of heptane (Liquid); method: Chromatography
Temperature, K	Activity coefficient of heptane	uncertainty
323.15	1.14	0.07
333.15	1.57	0.1
343.15	2.14	0.15

System: octane + N,N,N-trihexyltetradecan-1-aminium ((1S,4R)-7,7-dimethyl-2-oxobicyclo[2.2.1]heptan-1-yl)methanesulfonate; phases: Liquid
Fixed: Pressure, kPa = 101
Fixed: Mole fraction of octane = 0
Property: Activity coefficient of octane (Liquid); method: Chromatography
Temperature, K	Activity coefficient of octane	uncertainty
323.15	1.24	0.08
333.15	1.81	0.12
343.15	2.53	0.17

System: nonane + N,N,N-trihexyltetradecan-1-aminium ((1S,4R)-7,7-dimethyl-2-oxobicyclo[2.2.1]heptan-1-yl)methanesulfonate; phases: Liquid
Fixed: Pressure, kPa = 101
Fixed: Mole fraction of nonane = 0
Property: Activity coefficient of nonane (Liquid); method: Chromatography
Temperature, K	Activity coefficient of nonane	uncertainty
323.15	1.5	0.1
333.15	2.26	0.15
343.15	3.24	0.22

System: decane + N,N,N-trihexyltetradecan-1-aminium ((1S,4R)-7,7-dimethyl-2-oxobicyclo[2.2.1]heptan-1-yl)methanesulfonate; phases: Liquid
Fixed: Pressure, kPa = 101
Fixed: Mole fraction of decane = 0
Property: Activity coefficient of decane (Liquid); method: Chromatography
Temperature, K	Activity coefficient of decane	uncertainty
323.15	1.52	0.1
333.15	2.41	0.16
343.15	3.63	0.25

System: undecane + N,N,N-trihexyltetradecan-1-aminium ((1S,4R)-7,7-dimethyl-2-oxobicyclo[2.2.1]heptan-1-yl)methanesulfonate; phases: Liquid
Fixed: Pressure, kPa = 101
Fixed: Mole fraction of undecane = 0
Property: Activity coefficient of undecane (Liquid); method: Chromatography
Temperature, K	Activity coefficient of undecane	uncertainty
323.15	1.62	0.11
333.15	2.84	0.19
343.15	4.32	0.29

System: dodecane + N,N,N-trihexyltetradecan-1-aminium ((1S,4R)-7,7-dimethyl-2-oxobicyclo[2.2.1]heptan-1-yl)methanesulfonate; phases: Liquid
Fixed: Pressure, kPa = 101
Fixed: Mole fraction of dodecane = 0
Property: Activity coefficient of dodecane (Liquid); method: Chromatography
Temperature, K	Activity coefficient of dodecane	uncertainty
323.15	1.72	0.12
333.15	3.15	0.22
343.15	5.14	0.35

System: methylcyclopentane + N,N,N-trihexyltetradecan-1-aminium ((1S,4R)-7,7-dimethyl-2-oxobicyclo[2.2.1]heptan-1-yl)methanesulfonate; phases: Liquid
Fixed: Pressure, kPa = 101
Fixed: Mole fraction of methylcyclopentane = 0
Property: Activity coefficient of methylcyclopentane (Liquid); method: Chromatography
Temperature, K	Activity coefficient of methylcyclopentane	uncertainty
323.15	0.75	0.05
333.15	1	1
343.15	1.33	0.09

System: cyclohexane + N,N,N-trihexyltetradecan-1-aminium ((1S,4R)-7,7-dimethyl-2-oxobicyclo[2.2.1]heptan-1-yl)methanesulfonate; phases: Liquid
Fixed: Pressure, kPa = 101
Fixed: Mole fraction of cyclohexane = 0
Property: Activity coefficient of cyclohexane (Liquid); method: Chromatography
Temperature, K	Activity coefficient of cyclohexane	uncertainty
323.15	0.69	0.05
333.15	0.95	0.06
343.15	1.24	0.08

System: methylcyclohexane + N,N,N-trihexyltetradecan-1-aminium ((1S,4R)-7,7-dimethyl-2-oxobicyclo[2.2.1]heptan-1-yl)methanesulfonate; phases: Liquid
Fixed: Pressure, kPa = 101
Fixed: Mole fraction of methylcyclohexane = 0
Property: Activity coefficient of methylcyclohexane (Liquid); method: Chromatography
Temperature, K	Activity coefficient of methylcyclohexane	uncertainty
323.15	0.75	0.05
333.15	1	1
343.15	1.33	0.09

System: benzene + N,N,N-trihexyltetradecan-1-aminium ((1S,4R)-7,7-dimethyl-2-oxobicyclo[2.2.1]heptan-1-yl)methanesulfonate; phases: Liquid
Fixed: Pressure, kPa = 101
Fixed: Mole fraction of benzene = 0
Property: Activity coefficient of benzene (Liquid); method: Chromatography
Temperature, K	Activity coefficient of benzene	uncertainty
323.15	0.36	0.03
333.15	0.51	0.04
343.15	0.69	0.05

System: toluene + N,N,N-trihexyltetradecan-1-aminium ((1S,4R)-7,7-dimethyl-2-oxobicyclo[2.2.1]heptan-1-yl)methanesulfonate; phases: Liquid
Fixed: Pressure, kPa = 101
Fixed: Mole fraction of toluene = 0
Property: Activity coefficient of toluene (Liquid); method: Chromatography
Temperature, K	Activity coefficient of toluene	uncertainty
323.15	0.41	0.03
333.15	0.63	0.04
343.15	0.88	0.06

System: ethylbenzene + N,N,N-trihexyltetradecan-1-aminium ((1S,4R)-7,7-dimethyl-2-oxobicyclo[2.2.1]heptan-1-yl)methanesulfonate; phases: Liquid
Fixed: Pressure, kPa = 101
Fixed: Mole fraction of ethylbenzene = 0
Property: Activity coefficient of ethylbenzene (Liquid); method: Chromatography
Temperature, K	Activity coefficient of ethylbenzene	uncertainty
323.15	0.49	0.04
333.15	0.76	0.05
343.15	1.11	0.07

System: 1,3-dimethylbenzene + N,N,N-trihexyltetradecan-1-aminium ((1S,4R)-7,7-dimethyl-2-oxobicyclo[2.2.1]heptan-1-yl)methanesulfonate; phases: Liquid
Fixed: Pressure, kPa = 101
Fixed: Mole fraction of 1,3-dimethylbenzene = 0
Property: Activity coefficient of 1,3-dimethylbenzene (Liquid); method: Chromatography
Temperature, K	Activity coefficient of 1,3-dimethylbenzene	uncertainty
323.15	0.52	0.04
333.15	0.81	0.05
343.15	1.16	0.07

System: 1,4-dimethylbenzene + N,N,N-trihexyltetradecan-1-aminium ((1S,4R)-7,7-dimethyl-2-oxobicyclo[2.2.1]heptan-1-yl)methanesulfonate; phases: Liquid
Fixed: Pressure, kPa = 101
Fixed: Mole fraction of 1,4-dimethylbenzene = 0
Property: Activity coefficient of 1,4-dimethylbenzene (Liquid); method: Chromatography
Temperature, K	Activity coefficient of 1,4-dimethylbenzene	uncertainty
323.15	0.51	0.04
333.15	0.8	0.1
343.15	1.17	0.07

System: 1,2-dimethylbenzene + N,N,N-trihexyltetradecan-1-aminium ((1S,4R)-7,7-dimethyl-2-oxobicyclo[2.2.1]heptan-1-yl)methanesulfonate; phases: Liquid
Fixed: Pressure, kPa = 101
Fixed: Mole fraction of 1,2-dimethylbenzene = 0
Property: Activity coefficient of 1,2-dimethylbenzene (Liquid); method: Chromatography
Temperature, K	Activity coefficient of 1,2-dimethylbenzene	uncertainty
323.15	0.49	0.04
333.15	0.77	0.05
343.15	1.13	0.07

System: hex-1-ene + N,N,N-trihexyltetradecan-1-aminium ((1S,4R)-7,7-dimethyl-2-oxobicyclo[2.2.1]heptan-1-yl)methanesulfonate; phases: Liquid
Fixed: Pressure, kPa = 101
Fixed: Mole fraction of hex-1-ene = 0
Property: Activity coefficient of hex-1-ene (Liquid); method: Chromatography
Temperature, K	Activity coefficient of hex-1-ene	uncertainty
323.15	0.85	0.05
333.15	1.13	0.07
343.15	1.75	0.12

System: 1-hexyne + N,N,N-trihexyltetradecan-1-aminium ((1S,4R)-7,7-dimethyl-2-oxobicyclo[2.2.1]heptan-1-yl)methanesulfonate; phases: Liquid
Fixed: Pressure, kPa = 101
Fixed: Mole fraction of 1-hexyne = 0
Property: Activity coefficient of 1-hexyne (Liquid); method: Chromatography
Temperature, K	Activity coefficient of 1-hexyne	uncertainty
323.15	0.46	0.04
333.15	0.69	0.05
343.15	0.95	0.06

System: 1-heptyne + N,N,N-trihexyltetradecan-1-aminium ((1S,4R)-7,7-dimethyl-2-oxobicyclo[2.2.1]heptan-1-yl)methanesulfonate; phases: Liquid
Fixed: Pressure, kPa = 101
Fixed: Mole fraction of 1-heptyne = 0
Property: Activity coefficient of 1-heptyne (Liquid); method: Chromatography
Temperature, K	Activity coefficient of 1-heptyne	uncertainty
323.15	0.49	0.04
333.15	0.78	0.05
343.15	1.17	0.07

System: butanone + N,N,N-trihexyltetradecan-1-aminium ((1S,4R)-7,7-dimethyl-2-oxobicyclo[2.2.1]heptan-1-yl)methanesulfonate; phases: Liquid
Fixed: Pressure, kPa = 101
Fixed: Mole fraction of butanone = 0
Property: Activity coefficient of butanone (Liquid); method: Chromatography
Temperature, K	Activity coefficient of butanone	uncertainty
323.15	0.43	0.04
333.15	0.57	0.04
343.15	0.73	0.05

System: pentan-2-one + N,N,N-trihexyltetradecan-1-aminium ((1S,4R)-7,7-dimethyl-2-oxobicyclo[2.2.1]heptan-1-yl)methanesulfonate; phases: Liquid
Fixed: Pressure, kPa = 101
Fixed: Mole fraction of pentan-2-one = 0
Property: Activity coefficient of pentan-2-one (Liquid); method: Chromatography
Temperature, K	Activity coefficient of pentan-2-one	uncertainty
323.15	0.52	0.04
333.15	0.78	0.05
343.15	1.07	0.07

System: pentan-3-one + N,N,N-trihexyltetradecan-1-aminium ((1S,4R)-7,7-dimethyl-2-oxobicyclo[2.2.1]heptan-1-yl)methanesulfonate; phases: Liquid
Fixed: Pressure, kPa = 101
Fixed: Mole fraction of pentan-3-one = 0
Property: Activity coefficient of pentan-3-one (Liquid); method: Chromatography
Temperature, K	Activity coefficient of pentan-3-one	uncertainty
323.15	0.47	0.04
333.15	0.71	0.05
343.15	1.03	0.06

System: 1,4-dioxane + N,N,N-trihexyltetradecan-1-aminium ((1S,4R)-7,7-dimethyl-2-oxobicyclo[2.2.1]heptan-1-yl)methanesulfonate; phases: Liquid
Fixed: Pressure, kPa = 101
Fixed: Mole fraction of 1,4-dioxane = 0
Property: Activity coefficient of 1,4-dioxane (Liquid); method: Chromatography
Temperature, K	Activity coefficient of 1,4-dioxane	uncertainty
323.15	0.52	0.04
333.15	0.74	0.05
343.15	1	1

System: methanol + N,N,N-trihexyltetradecan-1-aminium ((1S,4R)-7,7-dimethyl-2-oxobicyclo[2.2.1]heptan-1-yl)methanesulfonate; phases: Liquid
Fixed: Pressure, kPa = 101
Fixed: Mole fraction of methanol = 0
Property: Activity coefficient of methanol (Liquid); method: Chromatography
Temperature, K	Activity coefficient of methanol	uncertainty
323.15	0.08	0.03
333.15	0.13	0.03
343.15	0.2	0.1

System: ethanol + N,N,N-trihexyltetradecan-1-aminium ((1S,4R)-7,7-dimethyl-2-oxobicyclo[2.2.1]heptan-1-yl)methanesulfonate; phases: Liquid
Fixed: Pressure, kPa = 101
Fixed: Mole fraction of ethanol = 0
Property: Activity coefficient of ethanol (Liquid); method: Chromatography
Temperature, K	Activity coefficient of ethanol	uncertainty
323.15	0.1	0.1
333.15	0.17	0.03
343.15	0.26	0.03

System: propan-1-ol + N,N,N-trihexyltetradecan-1-aminium ((1S,4R)-7,7-dimethyl-2-oxobicyclo[2.2.1]heptan-1-yl)methanesulfonate; phases: Liquid
Fixed: Pressure, kPa = 101
Fixed: Mole fraction of propan-1-ol = 0
Property: Activity coefficient of propan-1-ol (Liquid); method: Chromatography
Temperature, K	Activity coefficient of propan-1-ol	uncertainty
323.15	0.09	0.03
333.15	0.16	0.03
343.15	0.26	0.03

System: propan-2-ol + N,N,N-trihexyltetradecan-1-aminium ((1S,4R)-7,7-dimethyl-2-oxobicyclo[2.2.1]heptan-1-yl)methanesulfonate; phases: Liquid
Fixed: Pressure, kPa = 101
Fixed: Mole fraction of propan-2-ol = 0
Property: Activity coefficient of propan-2-ol (Liquid); method: Chromatography
Temperature, K	Activity coefficient of propan-2-ol	uncertainty
323.15	0.12	0.03
333.15	0.2	0.1
343.15	0.32	0.03

System: 2-methyl-1-propanol + N,N,N-trihexyltetradecan-1-aminium ((1S,4R)-7,7-dimethyl-2-oxobicyclo[2.2.1]heptan-1-yl)methanesulfonate; phases: Liquid
Fixed: Pressure, kPa = 101
Fixed: Mole fraction of 2-methyl-1-propanol = 0
Property: Activity coefficient of 2-methyl-1-propanol (Liquid); method: Chromatography
Temperature, K	Activity coefficient of 2-methyl-1-propanol	uncertainty
323.15	0.08	0.03
333.15	0.15	0.03
343.15	0.24	0.03

System: butan-1-ol + N,N,N-trihexyltetradecan-1-aminium ((1S,4R)-7,7-dimethyl-2-oxobicyclo[2.2.1]heptan-1-yl)methanesulfonate; phases: Liquid
Fixed: Pressure, kPa = 101
Fixed: Mole fraction of butan-1-ol = 0
Property: Activity coefficient of butan-1-ol (Liquid); method: Chromatography
Temperature, K	Activity coefficient of butan-1-ol	uncertainty
323.15	0.09	0.03
333.15	0.15	0.03
343.15	0.27	0.03

System: diethyl ether + N,N,N-trihexyltetradecan-1-aminium ((1S,4R)-7,7-dimethyl-2-oxobicyclo[2.2.1]heptan-1-yl)methanesulfonate; phases: Liquid
Fixed: Pressure, kPa = 101
Fixed: Mole fraction of diethyl ether = 0
Property: Activity coefficient of diethyl ether (Liquid); method: Chromatography
Temperature, K	Activity coefficient of diethyl ether	uncertainty
323.15	0.73	0.05
333.15	0.96	0.06
343.15	1.14	0.07

System: diisopropyl ether + N,N,N-trihexyltetradecan-1-aminium ((1S,4R)-7,7-dimethyl-2-oxobicyclo[2.2.1]heptan-1-yl)methanesulfonate; phases: Liquid
Fixed: Pressure, kPa = 101
Fixed: Mole fraction of diisopropyl ether = 0
Property: Activity coefficient of diisopropyl ether (Liquid); method: Chromatography
Temperature, K	Activity coefficient of diisopropyl ether	uncertainty
323.15	1	1
333.15	1.39	0.09
343.15	1.77	0.12

System: trichloromethane + N,N,N-trihexyltetradecan-1-aminium ((1S,4R)-7,7-dimethyl-2-oxobicyclo[2.2.1]heptan-1-yl)methanesulfonate; phases: Liquid
Fixed: Pressure, kPa = 101
Fixed: Mole fraction of trichloromethane = 0
Property: Activity coefficient of trichloromethane (Liquid); method: Chromatography
Temperature, K	Activity coefficient of trichloromethane	uncertainty
323.15	0.05	0.03
333.15	0.09	0.03
343.15	0.15	0.03

System: dichloromethane + N,N,N-trihexyltetradecan-1-aminium ((1S,4R)-7,7-dimethyl-2-oxobicyclo[2.2.1]heptan-1-yl)methanesulfonate; phases: Liquid
Fixed: Pressure, kPa = 101
Fixed: Mole fraction of dichloromethane = 0
Property: Activity coefficient of dichloromethane (Liquid); method: Chromatography
Temperature, K	Activity coefficient of dichloromethane	uncertainty
323.15	0.09	0.03
333.15	0.15	0.03
343.15	0.22	0.03

System: tetrachloromethane + N,N,N-trihexyltetradecan-1-aminium ((1S,4R)-7,7-dimethyl-2-oxobicyclo[2.2.1]heptan-1-yl)methanesulfonate; phases: Liquid
Fixed: Pressure, kPa = 101
Fixed: Mole fraction of tetrachloromethane = 0
Property: Activity coefficient of tetrachloromethane (Liquid); method: Chromatography
Temperature, K	Activity coefficient of tetrachloromethane	uncertainty
323.15	0.35	0.03
333.15	0.51	0.04
343.15	0.75	0.05

System: acetonitrile + N,N,N-trihexyltetradecan-1-aminium ((1S,4R)-7,7-dimethyl-2-oxobicyclo[2.2.1]heptan-1-yl)methanesulfonate; phases: Liquid
Fixed: Pressure, kPa = 101
Fixed: Mole fraction of acetonitrile = 0
Property: Activity coefficient of acetonitrile (Liquid); method: Chromatography
Temperature, K	Activity coefficient of acetonitrile	uncertainty
323.15	0.46	0.04
333.15	0.66	0.05
343.15	0.89	0.06

System: nitromethane + N,N,N-trihexyltetradecan-1-aminium ((1S,4R)-7,7-dimethyl-2-oxobicyclo[2.2.1]heptan-1-yl)methanesulfonate; phases: Liquid
Fixed: Pressure, kPa = 101
Fixed: Mole fraction of nitromethane = 0
Property: Activity coefficient of nitromethane (Liquid); method: Chromatography
Temperature, K	Activity coefficient of nitromethane	uncertainty
323.15	0.34	0.03
333.15	0.5	0.1
343.15	0.7	0.1

System: 1-nitropropane + N,N,N-trihexyltetradecan-1-aminium ((1S,4R)-7,7-dimethyl-2-oxobicyclo[2.2.1]heptan-1-yl)methanesulfonate; phases: Liquid
Fixed: Pressure, kPa = 101
Fixed: Mole fraction of 1-nitropropane = 0
Property: Activity coefficient of 1-nitropropane (Liquid); method: Chromatography
Temperature, K	Activity coefficient of 1-nitropropane	uncertainty
323.15	0.35	0.03
333.15	0.55	0.04
343.15	0.82	0.05

System: triethylamine + N,N,N-trihexyltetradecan-1-aminium ((1S,4R)-7,7-dimethyl-2-oxobicyclo[2.2.1]heptan-1-yl)methanesulfonate; phases: Liquid
Fixed: Pressure, kPa = 101
Fixed: Mole fraction of triethylamine = 0
Property: Activity coefficient of triethylamine (Liquid); method: Chromatography
Temperature, K	Activity coefficient of triethylamine	uncertainty
323.15	0.84	0.05
333.15	1.23	0.08
343.15	1.55	0.1

System: pyridine + N,N,N-trihexyltetradecan-1-aminium ((1S,4R)-7,7-dimethyl-2-oxobicyclo[2.2.1]heptan-1-yl)methanesulfonate; phases: Liquid
Fixed: Pressure, kPa = 101
Fixed: Mole fraction of pyridine = 0
Property: Activity coefficient of pyridine (Liquid); method: Chromatography
Temperature, K	Activity coefficient of pyridine	uncertainty
323.15	0.32	0.03
333.15	0.49	0.04
343.15	0.68	0.05

System: thiophene + N,N,N-trihexyltetradecan-1-aminium ((1S,4R)-7,7-dimethyl-2-oxobicyclo[2.2.1]heptan-1-yl)methanesulfonate; phases: Liquid
Fixed: Pressure, kPa = 101
Fixed: Mole fraction of thiophene = 0
Property: Activity coefficient of thiophene (Liquid); method: Chromatography
Temperature, K	Activity coefficient of thiophene	uncertainty
323.15	0.28	0.03
333.15	0.42	0.04
343.15	0.56	0.04
