Measured thermophysical data. Phase Equilibrium (VLE, LLE, and VLLE) Data of the Ternary System: Ionic Liquid [OMIM][PF6] + Butan-1-ol + Butyl Acetate
Source: J. Chem. Eng. Data, 2014, 10.1021/je5000296
Compound 1: butan-1-ol, C4H10O, InChI=1S/C4H10O/c1-2-3-4-5/h5H,2-4H2,1H3, purity 99.7%
Compound 2: butyl ethanoate, C6H12O2, InChI=1S/C6H12O2/c1-3-4-5-8-6(2)7/h3-5H2,1-2H3, purity 99.7%
Compound 3: 1-octyl-3-methylimidazolium hexafluorophosphate, C12H23F6N2P, InChI=1S/C12H23N2.F6P/c1-3-4-5-6-7-8-9-14-11-10-13(2)12-14;1-7(2,3,4,5)6/h10-12H,3-9H2,1-2H3;/q+1;-1, purity 99%

System: butan-1-ol; phases: Liquid, Gas
Property: Vapor or sublimation pressure, kPa (Liquid); method: Ebulliometric method (Recirculating still)
Temperature, K	Vapor or sublimation pressure, kPa	uncertainty
390.48	101.3	0.9117

System: butyl ethanoate; phases: Liquid, Gas
Property: Vapor or sublimation pressure, kPa (Liquid); method: Ebulliometric method (Recirculating still)
Temperature, K	Vapor or sublimation pressure, kPa	uncertainty
399.15	101.3	0.9117

System: butan-1-ol + butyl ethanoate; phases: Liquid, Gas
Fixed: Pressure, kPa = 101.3
Property: Boiling temperature at pressure P, K (Liquid); method: Ebulliometric method (Recirculating still)
Mole fraction of butan-1-ol	Boiling temperature at pressure P, K	uncertainty
0	399.15	0.18
0.122	395.56	0.26
0.18	394.31	0.21
0.302	392.53	0.2
0.42	391.37	0.19
0.531	390.69	0.18
0.612	390.38	0.18
0.699	390.2	0.18
0.792	390.2	0.18
0.901	390.48	0.18
1	390.48	0.18

System: butan-1-ol + butyl ethanoate; phases: Gas, Liquid
Fixed: Pressure, kPa = 101.3
Property: Mole fraction of butan-1-ol (Gas); method: Chromatography
Mole fraction of butan-1-ol	Mole fraction of butan-1-ol	uncertainty
0	0	
0.122	0.211	0.018
0.18	0.272	0.016
0.302	0.41	0.016
0.42	0.491	0.016
0.531	0.582	0.016
0.612	0.652	0.015
0.699	0.711	0.015
0.792	0.791	0.015
0.901	0.881	0.016
1	1	

System: butan-1-ol + butyl ethanoate + 1-octyl-3-methylimidazolium hexafluorophosphate; phases: Liquid, Gas
Fixed: Pressure, kPa = 101.3
Property: Boiling temperature at pressure P, K (Liquid); method: Ebulliometric method (Recirculating still)
Solvent: Mole fraction of butan-1-ol	Mole fraction of 1-octyl-3-methylimidazolium hexafluorophosphate	Boiling temperature at pressure P, K	uncertainty
0.09	0.102	398.72	0.29
0.201	0.101	396.63	0.24
0.288	0.099	395.42	0.21
0.412	0.098	393.64	0.22
0.502	0.102	392.95	0.2
0.612	0.103	392.77	0.2
0.705	0.098	392.66	0.19
0.822	0.1	392.95	0.19
0.906	0.098	393.25	0.19
0.12	0.2	400.67	0.32
0.211	0.198	398.09	0.28
0.302	0.203	395.97	0.21
0.411	0.202	395.26	0.2
0.486	0.199	394.32	0.2
0.595	0.202	393.97	0.19
0.705	0.202	393.56	0.18
0.812	0.201	393.57	0.18
0.903	0.198	393.77	0.18
0.105	0.3	403.52	0.36
0.211	0.302	399.42	0.33
0.302	0.297	396.41	0.25
0.395	0.301	395.76	0.19
0.498	0.297	394.48	0.19
0.612	0.299	394.17	0.18
0.704	0.301	393.56	0.18
0.814	0.298	393.64	0.18
0.903	0.301	393.66	0.18

System: butan-1-ol + butyl ethanoate + 1-octyl-3-methylimidazolium hexafluorophosphate; phases: Gas, Liquid
Fixed: Pressure, kPa = 101.3
Property: Mole fraction of butan-1-ol (Gas); method: Chromatography
Solvent: Mole fraction of butan-1-ol	Mole fraction of 1-octyl-3-methylimidazolium hexafluorophosphate	Mole fraction of butan-1-ol	uncertainty
0.09	0.102	0.173	0.012
0.201	0.101	0.326	0.012
0.288	0.099	0.425	0.011
0.412	0.098	0.542	0.011
0.502	0.102	0.598	0.011
0.612	0.103	0.692	0.01
0.705	0.098	0.762	0.01
0.822	0.1	0.841	0.009
0.906	0.098	0.912	0.009
0.12	0.2	0.236	0.013
0.211	0.198	0.384	0.013
0.302	0.203	0.486	0.011
0.411	0.202	0.585	0.011
0.486	0.199	0.658	0.01
0.595	0.202	0.719	0.01
0.705	0.202	0.815	0.009
0.812	0.201	0.878	0.009
0.903	0.198	0.928	0.008
0.105	0.3	0.252	0.014
0.211	0.302	0.433	0.013
0.302	0.297	0.545	0.012
0.395	0.301	0.638	0.011
0.498	0.297	0.712	0.009
0.612	0.299	0.785	0.009
0.704	0.301	0.841	0.009
0.814	0.298	0.91	0.008
0.903	0.301	0.945	0.008

System: butan-1-ol + butyl ethanoate + 1-octyl-3-methylimidazolium hexafluorophosphate; phases: Gas, Liquid
Fixed: Pressure, kPa = 101.3
Property: Mole fraction of butyl ethanoate (Gas); method: Chromatography
Solvent: Mole fraction of butan-1-ol	Mole fraction of 1-octyl-3-methylimidazolium hexafluorophosphate	Mole fraction of butyl ethanoate	uncertainty
0.09	0.102	0.827	0.012
0.201	0.101	0.674	0.012
0.288	0.099	0.575	0.011
0.412	0.098	0.458	0.011
0.502	0.102	0.402	0.01
0.612	0.103	0.308	0.01
0.705	0.098	0.238	0.01
0.822	0.1	0.159	0.009
0.906	0.098	0.088	0.009
0.12	0.2	0.764	0.013
0.211	0.198	0.616	0.013
0.302	0.203	0.514	0.011
0.411	0.202	0.415	0.011
0.486	0.199	0.342	0.01
0.595	0.202	0.281	0.01
0.705	0.202	0.185	0.009
0.812	0.201	0.122	0.009
0.903	0.198	0.072	0.008
0.105	0.3	0.748	0.014
0.211	0.302	0.567	0.013
0.302	0.297	0.455	0.012
0.395	0.301	0.362	0.011
0.498	0.297	0.288	0.009
0.612	0.299	0.215	0.009
0.704	0.301	0.159	0.009
0.814	0.298	0.09	0.01
0.903	0.301	0.055	0.008

System: butan-1-ol + butyl ethanoate + 1-octyl-3-methylimidazolium hexafluorophosphate; phases: Gas, Liquid mixture 1, Liquid mixture 2
Fixed: Pressure, kPa = 101.3
Property: Mole fraction of butan-1-ol (Gas); method: Chromatography
Temperature, K	Mole fraction of butan-1-ol	uncertainty
393.57	0.878	0.03
393.77	0.928	0.03
393.64	0.91	0.03
393.66	0.945	0.03

System: butan-1-ol + butyl ethanoate + 1-octyl-3-methylimidazolium hexafluorophosphate; phases: Gas, Liquid mixture 1, Liquid mixture 2
Fixed: Pressure, kPa = 101.3
Property: Mole fraction of butyl ethanoate (Gas); method: Chromatography
Temperature, K	Mole fraction of butyl ethanoate	uncertainty
393.57	0.122	0.03
393.77	0.072	0.03
393.64	0.09	0.03
393.66	0.055	0.03
