Measured thermophysical data. CO2 Solubility Measurements and Modeling for Tertiary Diamines
Source: J. Chem. Eng. Data, 2015, 10.1021/je500927h
Compound 1: N,N,N',N'-tetramethyl-1,2-diaminoethane, C6H16N2, InChI=1S/C6H16N2/c1-7(2)5-6-8(3)4/h5-6H2,1-4H3, purity 98%
Compound 2: N,N,N',N'-tetramethyl-1,3-propanediamine, C7H18N2, InChI=1S/C7H18N2/c1-8(2)6-5-7-9(3)4/h5-7H2,1-4H3, purity 98%
Compound 3: N,N,N',N'-tetramethyl-1,6-hexanediamine, C10H24N2, InChI=1S/C10H24N2/c1-11(2)9-7-5-6-8-10-12(3)4/h5-10H2,1-4H3, purity 98%
Compound 4: carbon dioxide, CO2, InChI=1S/CO2/c2-1-3, purity 99.9%
Compound 5: water, H2O, InChI=1S/H2O/h1H2

System: N,N,N',N'-tetramethyl-1,2-diaminoethane + carbon dioxide + water; phases: Liquid, Gas
Fixed: Solvent: Mass fraction of N,N,N',N'-tetramethyl-1,2-diaminoethane = 0.3
Property: Mass fraction of carbon dioxide (Liquid); method: total organic carbon analyzer
Temperature, K	Pressure, kPa of carbon dioxide	Mass fraction of carbon dioxide	uncertainty
313.2	12.4	0.0682	0.0028
313.2	26.8	0.0815	0.0033
313.2	57.5	0.091	0.0036
313.2	109.8	0.0973	0.0039
313.2	220.1	0.1029	0.0041
313.2	424.8	0.1082	0.0043
343.2	11.1	0.0231	0.0009
343.2	26.3	0.039	0.0016
343.2	56.5	0.0587	0.0024
343.2	105.5	0.0738	0.003
343.2	212.2	0.0849	0.0034
343.2	422.6	0.0932	0.0037
393.2	11.4	0.0026	0.0001
393.2	26.9	0.0046	0.0002
393.2	61.7	0.0082	0.0004
393.2	107.2	0.0131	0.0006
393.2	216	0.0212	0.0009
393.2	425.5	0.035	0.0014

System: N,N,N',N'-tetramethyl-1,3-propanediamine + carbon dioxide + water; phases: Liquid, Gas
Fixed: Solvent: Mass fraction of N,N,N',N'-tetramethyl-1,3-propanediamine = 0.3
Property: Mass fraction of carbon dioxide (Liquid); method: total organic carbon analyzer
Temperature, K	Pressure, kPa of carbon dioxide	Mass fraction of carbon dioxide	uncertainty
313.2	12.3	0.0897	0.0036
313.2	26.4	0.1052	0.0042
313.2	60.1	0.1209	0.0048
313.2	108.4	0.1316	0.0053
313.2	218.2	0.1447	0.0058
313.2	429	0.1572	0.0063
343.2	11.1	0.0423	0.0017
343.2	26.2	0.0638	0.0026
343.2	56.3	0.0813	0.0033
343.2	107.7	0.0935	0.0038
343.2	219	0.1093	0.0044
343.2	425.4	0.125	0.005
393.2	11.2	0.0052	0.0003
393.2	26.9	0.0091	0.0004
393.2	61	0.0152	0.0007
393.2	108.1	0.0231	0.001
393.2	214.2	0.0353	0.0014
393.2	425.2	0.0554	0.0022

System: N,N,N',N'-tetramethyl-1,6-hexanediamine + carbon dioxide + water; phases: Liquid, Gas
Fixed: Solvent: Mass fraction of N,N,N',N'-tetramethyl-1,6-hexanediamine = 0.3
Property: Mass fraction of carbon dioxide (Liquid); method: total organic carbon analyzer
Temperature, K	Pressure, kPa of carbon dioxide	Mass fraction of carbon dioxide	uncertainty
313.2	12.4	0.1144	0.0046
313.2	26.4	0.1232	0.0049
313.2	60	0.1298	0.0052
313.2	109.5	0.1324	0.0053
313.2	221.6	0.1339	0.0054
313.2	431.5	0.1375	0.0055
343.2	10.9	0.0457	0.0019
343.2	25.6	0.0695	0.0028
343.2	55.4	0.1009	0.0041
343.2	112	0.1163	0.0047
343.2	225	0.1253	0.005
343.2	426.2	0.131	0.0053
393.2	11	0.0045	0.0003
393.2	25.8	0.0076	0.0004
393.2	60.2	0.0122	0.0006
393.2	107	0.0175	0.0008
393.2	211.8	0.0358	0.0015
393.2	424.7	0.0519	0.0021
