Measured thermophysical data. Development of a Predictive Equation of State for CO2 + Ethyl Ester Mixtures Based on Critical Points Measurements
Source: J. Chem. Eng. Data, 2014, 10.1021/je5002494
Compound 1: carbon dioxide, CO2, InChI=1S/CO2/c2-1-3
Compound 2: ethyl acetate, C4H8O2, InChI=1S/C4H8O2/c1-3-6-4(2)5/h3H2,1-2H3, purity 99.8%
Compound 3: ethyl propanoate, C5H10O2, InChI=1S/C5H10O2/c1-3-5(6)7-4-2/h3-4H2,1-2H3, purity 99%
Compound 4: ethyl butanoate, C6H12O2, InChI=1S/C6H12O2/c1-3-5-6(7)8-4-2/h3-5H2,1-2H3, purity 99%
Compound 5: ethyl trans-2-butenoate, C6H10O2, InChI=1S/C6H10O2/c1-3-5-6(7)8-4-2/h3,5H,4H2,1-2H3/b5-3+, purity 96%
Compound 6: ethyl pentanoate, C7H14O2, InChI=1S/C7H14O2/c1-3-5-6-7(8)9-4-2/h3-6H2,1-2H3, purity 99%
Compound 7: ethyl hexanoate, C8H16O2, InChI=1S/C8H16O2/c1-3-5-6-7-8(9)10-4-2/h3-7H2,1-2H3, purity 99%
Compound 8: ethyl (E)-hex-3-enoate, C8H14O2, InChI=1S/C8H14O2/c1-3-5-6-7-8(9)10-4-2/h5-6H,3-4,7H2,1-2H3/b6-5+, purity 98%
Compound 9: ethyl heptanoate, C9H18O2, InChI=1S/C9H18O2/c1-3-5-6-7-8-9(10)11-4-2/h3-8H2,1-2H3, purity 99%
Compound 10: ethyl octanoate, C10H20O2, InChI=1S/C10H20O2/c1-3-5-6-7-8-9-10(11)12-4-2/h3-9H2,1-2H3, purity 99%
Compound 11: ethyl nonanoate, C11H22O2, InChI=1S/C11H22O2/c1-3-5-6-7-8-9-10-11(12)13-4-2/h3-10H2,1-2H3, purity 98%
Compound 12: ethyl decanoate, C12H24O2, InChI=1S/C12H24O2/c1-3-5-6-7-8-9-10-11-12(13)14-4-2/h3-11H2,1-2H3, purity 99%

System: carbon dioxide; phases: Liquid, Gas
Property: Critical temperature, K (Liquid); method: VISOBSS:UFactor:48
Critical temperature, K	uncertainty
304.3	3.72

System: carbon dioxide; phases: Liquid, Gas
Property: Critical pressure, kPa (Liquid); method: DIRECT:UFactor:48
Critical pressure, kPa	uncertainty
7379.8	297.4

System: ethyl acetate; phases: Liquid, Gas
Property: Critical temperature, K (Liquid); method: VISOBSS:UFactor:48
Critical temperature, K	uncertainty
523.29	3.72

System: ethyl acetate; phases: Liquid, Gas
Property: Critical pressure, kPa (Liquid); method: DIRECT:UFactor:48
Critical pressure, kPa	uncertainty
3828.9	297.4

System: ethyl propanoate; phases: Liquid, Gas
Property: Critical pressure, kPa (Liquid); method: DIRECT:UFactor:48
Critical pressure, kPa	uncertainty
3385.6	297.4

System: ethyl propanoate; phases: Liquid, Gas
Property: Critical temperature, K (Liquid); method: VISOBSS:UFactor:48
Critical temperature, K	uncertainty
546.28	3.72

System: ethyl butanoate; phases: Liquid, Gas
Property: Critical temperature, K (Liquid); method: VISOBSS:UFactor:48
Critical temperature, K	uncertainty
569.98	3.72

System: ethyl butanoate; phases: Liquid, Gas
Property: Critical pressure, kPa (Liquid); method: DIRECT:UFactor:48
Critical pressure, kPa	uncertainty
2891.5	297.4

System: ethyl trans-2-butenoate; phases: Liquid, Gas
Property: Critical pressure, kPa (Liquid); method: DIRECT:UFactor:48
Critical pressure, kPa	uncertainty
3670.8	297.4

System: ethyl trans-2-butenoate; phases: Liquid, Gas
Property: Critical temperature, K (Liquid); method: VISOBSS:UFactor:48
Critical temperature, K	uncertainty
593.84	3.72

System: ethyl pentanoate; phases: Liquid, Gas
Property: Critical pressure, kPa (Liquid); method: DIRECT:UFactor:48
Critical pressure, kPa	uncertainty
2730.4	297.4

System: ethyl pentanoate; phases: Liquid, Gas
Property: Critical temperature, K (Liquid); method: VISOBSS:UFactor:48
Critical temperature, K	uncertainty
594.02	3.72

System: ethyl hexanoate; phases: Liquid, Gas
Property: Critical temperature, K (Liquid); method: VISOBSS:UFactor:48
Critical temperature, K	uncertainty
615.22	3.72

System: ethyl hexanoate; phases: Liquid, Gas
Property: Critical pressure, kPa (Liquid); method: DIRECT:UFactor:48
Critical pressure, kPa	uncertainty
2531.3	297.4

System: ethyl heptanoate; phases: Liquid, Gas
Property: Critical pressure, kPa (Liquid); method: DIRECT:UFactor:48
Critical pressure, kPa	uncertainty
2356.9	297.4

System: ethyl heptanoate; phases: Liquid, Gas
Property: Critical temperature, K (Liquid); method: VISOBSS:UFactor:48
Critical temperature, K	uncertainty
635.12	3.72

System: ethyl octanoate; phases: Liquid, Gas
Property: Critical temperature, K (Liquid); method: VISOBSS:UFactor:48
Critical temperature, K	uncertainty
655.74	3.72

System: ethyl octanoate; phases: Liquid, Gas
Property: Critical pressure, kPa (Liquid); method: DIRECT:UFactor:48
Critical pressure, kPa	uncertainty
2159.2	297.4

System: carbon dioxide + ethyl acetate; phases: Liquid, Gas
Property: Critical temperature, K (Liquid); method: VISOBSS:UFactor:48
Mole fraction of carbon dioxide	Critical temperature, K	uncertainty
0	523.29	3.72
0.1011	514.36	3.72
0.1988	504.49	3.72
0.2934	493.95	3.72
0.4198	481.81	3.72
0.5328	469.78	3.72
0.6271	455.01	3.72
0.7158	434.98	3.72
0.7902	418.78	3.72
0.8577	391.38	3.72
0.9115	356.13	3.72
0.9443	335.14	3.72
1	304.3	3.72

System: carbon dioxide + ethyl acetate; phases: Liquid, Gas
Property: Critical pressure, kPa (Liquid); method: DIRECT:UFactor:48
Mole fraction of carbon dioxide	Critical pressure, kPa	uncertainty
0	3828.9	297.4
0.1011	4932.6	297.4
0.1988	6130	297.4
0.2934	7311.6	297.4
0.4198	8487.5	297.4
0.5328	9513.5	297.4
0.6271	10610.3	297.4
0.7158	11636.1	297.4
0.7902	12054.4	297.4
0.8577	12361.9	297.4
0.9115	11207.8	297.4
0.9443	9858.5	297.4
1	7379.8	297.4

System: ethyl propanoate + carbon dioxide; phases: Liquid, Gas
Property: Critical pressure, kPa (Liquid); method: DIRECT:UFactor:48
Mole fraction of carbon dioxide	Critical pressure, kPa	uncertainty
0	3385.6	297.4
0.1446	5079.6	297.4
0.312	7345	297.4
0.4697	9413.3	297.4
0.5797	10738.3	297.4
0.6525	11585.4	297.4
0.7414	12501.5	297.4
0.8454	13202	297.4
0.8997	13325.6	297.4
0.9212	12184.1	297.4
0.9497	10510.2	297.4
1	7379.8	297.4

System: ethyl propanoate + carbon dioxide; phases: Liquid, Gas
Property: Critical temperature, K (Liquid); method: VISOBSS:UFactor:48
Mole fraction of carbon dioxide	Critical temperature, K	uncertainty
0	546.28	3.72
0.1446	532.94	3.72
0.312	514.86	3.72
0.4697	494.3	3.72
0.5797	479.18	3.72
0.6525	466.83	3.72
0.7414	447.82	3.72
0.8454	420.94	3.72
0.8997	391.61	3.72
0.9212	362.4	3.72
0.9497	339.59	3.72
1	304.3	3.72

System: ethyl butanoate + carbon dioxide; phases: Liquid, Gas
Property: Critical temperature, K (Liquid); method: VISOBSS:UFactor:48
Mole fraction of carbon dioxide	Critical temperature, K	uncertainty
0	569.98	3.72
0.1457	555.76	3.72
0.2989	543.98	3.72
0.4572	526.35	3.72
0.6005	502.97	3.72
0.7192	484.05	3.72
0.8137	461.92	3.72
0.854	435.35	3.72
0.9057	409.98	3.72
0.9344	374.3	3.72
0.9508	344.08	3.72
1	304.3	3.72

System: ethyl butanoate + carbon dioxide; phases: Liquid, Gas
Property: Critical pressure, kPa (Liquid); method: DIRECT:UFactor:48
Mole fraction of carbon dioxide	Critical pressure, kPa	uncertainty
0	2891.5	297.4
0.1457	4657	297.4
0.2989	6483.1	297.4
0.4572	8548	297.4
0.6005	10762.6	297.4
0.7192	12420.2	297.4
0.8137	13732.2	297.4
0.854	14663.4	297.4
0.9057	14742	297.4
0.9344	13579.8	297.4
0.9508	11320.6	297.5
1	7379.8	297.4

System: carbon dioxide + ethyl trans-2-butenoate; phases: Liquid, Gas
Property: Critical pressure, kPa (Liquid); method: DIRECT:UFactor:48
Mole fraction of carbon dioxide	Critical pressure, kPa	uncertainty
0	3670.8	297.4
0.1593	5011.1	297.4
0.3433	7011.2	297.4
0.4786	8862.5	297.4
0.621	10526.4	297.4
0.7647	12476.4	297.4
0.8051	14101.5	297.4
0.8653	15919.5	297.4
0.8972	16664.4	297.4
0.9329	15277.7	297.4
0.952	13413.3	297.5
1	7379.8	297.4

System: carbon dioxide + ethyl trans-2-butenoate; phases: Liquid, Gas
Property: Critical temperature, K (Liquid); method: VISOBSS:UFactor:48
Mole fraction of carbon dioxide	Critical temperature, K	uncertainty
0	593.84	3.72
0.1593	583.54	3.72
0.3433	567.92	3.72
0.4786	553.5	3.72
0.621	539.12	3.72
0.7647	520.27	3.72
0.8051	500.72	3.72
0.8653	471.56	3.72
0.8972	431.26	3.72
0.9329	384.81	3.72
0.952	360.58	3.72
1	304.3	3.72

System: carbon dioxide + ethyl pentanoate; phases: Liquid, Gas
Property: Critical pressure, kPa (Liquid); method: DIRECT:UFactor:48
Mole fraction of carbon dioxide	Critical pressure, kPa	uncertainty
0	2730.4	297.4
0.1489	4325.6	297.4
0.3071	6121.2	297.4
0.4418	7760.3	297.4
0.6015	9572	297.4
0.7502	11638.5	297.4
0.8082	13351.2	297.4
0.8476	14359	297.4
0.8729	15868.2	297.4
0.91	16089.6	297.4
0.9336	14941.5	297.4
0.9523	13028.3	297.5
1	7379.8	297.4

System: carbon dioxide + ethyl pentanoate; phases: Liquid, Gas
Property: Critical temperature, K (Liquid); method: VISOBSS:UFactor:48
Mole fraction of carbon dioxide	Critical temperature, K	uncertainty
0	594.02	3.72
0.1489	581.75	3.72
0.3071	569.48	3.72
0.4418	554.91	3.72
0.6015	539.64	3.72
0.7502	520.89	3.72
0.8082	501.41	3.72
0.8476	485.89	3.72
0.8729	452.88	3.72
0.91	423.3	3.72
0.9336	387.94	3.72
0.9523	356.95	3.72
1	304.3	3.72

System: ethyl hexanoate + carbon dioxide; phases: Liquid, Gas
Property: Critical temperature, K (Liquid); method: VISOBSS:UFactor:48
Mole fraction of carbon dioxide	Critical temperature, K	uncertainty
0	615.22	3.72
0.1916	599.29	3.72
0.3978	578.97	3.72
0.6151	562.93	3.72
0.7413	544.52	3.72
0.7952	522.82	3.72
0.8487	490.9	3.72
0.8795	458.46	3.72
0.9024	427.93	3.72
0.9319	400.07	3.72
0.9552	372.03	3.72
0.9668	349.22	3.72
1	304.3	3.72

System: ethyl hexanoate + carbon dioxide; phases: Liquid, Gas
Property: Critical pressure, kPa (Liquid); method: DIRECT:UFactor:48
Mole fraction of carbon dioxide	Critical pressure, kPa	uncertainty
0	2531.3	297.4
0.1916	4737.2	297.4
0.3978	7219	297.4
0.6151	9672.2	297.4
0.7413	11757.5	297.4
0.7952	13877.9	297.4
0.8487	16183	297.4
0.8795	17400.4	297.4
0.9024	17532.4	297.4
0.9319	16644.8	297.4
0.9552	15148.8	297.5
0.9668	12859.1	297.5
1	7379.8	297.4

System: carbon dioxide + ethyl (E)-hex-3-enoate; phases: Liquid, Gas
Property: Critical temperature, K (Liquid); method: VISOBSS:UFactor:48
Mole fraction of carbon dioxide	Critical temperature, K	uncertainty
0.6118	554.05	3.72
0.7632	537.3	3.72
0.8058	518.31	3.72
0.8379	492.19	3.72
0.8721	465.16	3.72
0.9013	434.25	3.72
0.9331	400.97	3.72
0.9508	380.28	3.72
0.961	363.93	3.72
1	304.3	3.72

System: carbon dioxide + ethyl (E)-hex-3-enoate; phases: Liquid, Gas
Property: Critical pressure, kPa (Liquid); method: DIRECT:UFactor:48
Mole fraction of carbon dioxide	Critical pressure, kPa	uncertainty
0.6118	11569.7	297.4
0.7632	13385	297.4
0.8058	14978.1	297.5
0.8379	16829.7	297.4
0.8721	17980.7	297.4
0.9013	18057.6	297.4
0.9331	17428.7	297.4
0.9508	16249.3	297.5
0.961	14338.4	297.5
1	7379.8	297.4

System: ethyl heptanoate + carbon dioxide; phases: Liquid, Gas
Property: Critical pressure, kPa (Liquid); method: DIRECT:UFactor:48
Mole fraction of carbon dioxide	Critical pressure, kPa	uncertainty
0	2356.9	297.4
0.2101	4623	297.4
0.4103	7555.7	297.4
0.6085	10831.4	297.4
0.712	12386.3	297.4
0.7957	14539.2	297.4
0.8437	16226.1	297.4
0.8806	17978.3	297.4
0.9181	18961.9	297.4
0.9427	18183.7	297.4
0.9533	16041.9	297.5
0.963	13446.8	297.5
1	7379.8	297.4

System: ethyl heptanoate + carbon dioxide; phases: Liquid, Gas
Property: Critical temperature, K (Liquid); method: VISOBSS:UFactor:48
Mole fraction of carbon dioxide	Critical temperature, K	uncertainty
0	635.12	3.72
0.2101	619.26	3.72
0.4103	599.07	3.72
0.6085	574.67	3.72
0.712	561.36	3.72
0.7957	540.26	3.72
0.8437	520.77	3.72
0.8806	492.29	3.72
0.9181	459.77	3.72
0.9427	412.15	3.72
0.9533	374.42	3.72
0.963	351.02	3.72
1	304.3	3.72

System: ethyl octanoate + carbon dioxide; phases: Liquid, Gas
Property: Critical temperature, K (Liquid); method: VISOBSS:UFactor:48
Mole fraction of carbon dioxide	Critical temperature, K	uncertainty
0	655.74	3.72
0.2069	639.13	3.72
0.4072	622.01	3.72
0.6023	594.98	3.72
0.6988	579.77	3.72
0.7932	563.03	3.72
0.8419	543.69	3.72
0.8924	513.96	3.72
0.9487	412.18	3.72
0.9568	374.71	3.72
0.964	352.06	3.72
1	304.3	3.72

System: ethyl octanoate + carbon dioxide; phases: Liquid, Gas
Property: Critical pressure, kPa (Liquid); method: DIRECT:UFactor:48
Mole fraction of carbon dioxide	Critical pressure, kPa	uncertainty
0	2159.2	297.4
0.2069	4718.7	297.4
0.4072	7353.2	297.4
0.6023	10877.9	297.4
0.6988	12715.9	297.4
0.7932	14563	297.4
0.8419	16430.3	297.4
0.8924	18509.4	297.4
0.9487	19090.3	297.5
0.9568	16608.3	297.5
0.964	13940.3	297.5
1	7379.8	297.4

System: ethyl nonanoate + carbon dioxide; phases: Liquid, Gas
Property: Critical pressure, kPa (Liquid); method: DIRECT:UFactor:48
Mole fraction of carbon dioxide	Critical pressure, kPa	uncertainty
0.4051	7366.9	297.4
0.6011	10986.2	297.4
0.7097	12938.7	297.4
0.7991	14842.2	297.4
0.8418	16907.2	297.4
0.8833	18934.9	297.4
1	7379.8	297.4

System: ethyl nonanoate + carbon dioxide; phases: Liquid, Gas
Property: Critical temperature, K (Liquid); method: VISOBSS:UFactor:48
Mole fraction of carbon dioxide	Critical temperature, K	uncertainty
0.4051	644.49	3.72
0.6011	617.76	3.72
0.7097	602.22	3.72
0.7991	584.93	3.72
0.8418	564.27	3.72
0.8833	538.1	3.72
1	304.3	3.72

System: ethyl decanoate + carbon dioxide; phases: Liquid, Gas
Property: Critical temperature, K (Liquid); method: VISOBSS:UFactor:48
Mole fraction of carbon dioxide	Critical temperature, K	uncertainty
0.4957	651.03	3.72
0.6026	638.61	3.72
0.7088	622.49	3.72
0.8033	605.65	3.72
0.8591	578.03	3.72
1	304.3	3.72

System: ethyl decanoate + carbon dioxide; phases: Liquid, Gas
Property: Critical pressure, kPa (Liquid); method: DIRECT:UFactor:48
Mole fraction of carbon dioxide	Critical pressure, kPa	uncertainty
0.4957	9417.4	297.4
0.6026	11241.7	297.4
0.7088	13282.9	297.4
0.8033	15380.5	297.4
0.8591	17949.9	297.4
1	7379.8	297.4
