Measured thermophysical data. Thermophysical Properties of Imidazolium-Based Ionic Liquids: The Effect of Aliphatic versus Aromatic Functionality
Source: J. Chem. Eng. Data, 2014, 10.1021/je500185r
Compound 1: 1-(cyclohexylmethyl)-3-methyl-1H-imidazol-3-ium bis((trifluoromethyl)sulfonyl)amide, C13H19F6N3O4S2, InChI=1S/C11H19N2.C2F6NO4S2/c1-12-7-8-13(10-12)9-11-5-3-2-4-6-11;3-1(4,5)14(10,11)9-15(12,13)2(6,7)8/h7-8,10-11H,2-6,9H2,1H3;/q+1;-1, purity 99%
Compound 2: 1-benzyl-3-methyl-1H-imidazol-3-ium bis((trifluoromethyl)sulfonyl)amide, C13H13F6N3O4S2, InChI=1S/C11H13N2.C2F6NO4S2/c1-12-7-8-13(10-12)9-11-5-3-2-4-6-11;3-1(4,5)14(10,11)9-15(12,13)2(6,7)8/h2-8,10H,9H2,1H3;/q+1;-1, purity 99%
Compound 3: 1,3-dibenzyl-1H-imidazol-3-ium bis((trifluoromethyl)sulfonyl)amide, C19H17F6N3O4S2, InChI=1S/C17H17N2.C2F6NO4S2/c1-3-7-16(8-4-1)13-18-11-12-19(15-18)14-17-9-5-2-6-10-17;3-1(4,5)14(10,11)9-15(12,13)2(6,7)8/h1-12,15H,13-14H2;/q+1;-1, purity 99%
Compound 4: 3-methyl-1-(naphthalen-2-ylmethyl)-1H-imidazol-3-ium bis((trifluoromethyl)sulfonyl)amide, C17H15F6N3O4S2, InChI=1S/C15H15N2.C2F6NO4S2/c1-16-8-9-17(12-16)11-13-6-7-14-4-2-3-5-15(14)10-13;3-1(4,5)14(10,11)9-15(12,13)2(6,7)8/h2-10,12H,11H2,1H3;/q+1;-1, purity 99%

System: 1-(cyclohexylmethyl)-3-methyl-1H-imidazol-3-ium bis((trifluoromethyl)sulfonyl)amide; phases: Glass, Liquid, Air at 1 atmosphere
Property: Triple point temperature, K (Glass); method: DTA
Triple point temperature, K	uncertainty
210.75	0.4

System: 1-(cyclohexylmethyl)-3-methyl-1H-imidazol-3-ium bis((trifluoromethyl)sulfonyl)amide; phases: Liquid
Fixed: Pressure, kPa = 101.325
Property: Mass density, kg/m3 (Liquid); method: Vibrating tube method
Temperature, K	Mass density, kg/m3	uncertainty
278.15	1435	2
283.15	1431	2
288.15	1426	2
293.15	1422	2
298.15	1417	2
303.15	1412	2
308.15	1408	2
313.15	1403	2
318.15	1398	2
323.15	1394	2

System: 1-benzyl-3-methyl-1H-imidazol-3-ium bis((trifluoromethyl)sulfonyl)amide; phases: Glass, Liquid, Air at 1 atmosphere
Property: Triple point temperature, K (Glass); method: DTA
Triple point temperature, K	uncertainty
214.85	0.4

System: 1-benzyl-3-methyl-1H-imidazol-3-ium bis((trifluoromethyl)sulfonyl)amide; phases: Liquid
Fixed: Pressure, kPa = 101.325
Property: Mass density, kg/m3 (Liquid); method: Vibrating tube method
Temperature, K	Mass density, kg/m3	uncertainty
278.15	1512	2
283.15	1508	2
288.15	1503	2
293.15	1498	2
298.15	1493	2
303.15	1488	2
308.15	1483	2
313.15	1478	2
318.15	1473	2
323.15	1468	2

System: 1,3-dibenzyl-1H-imidazol-3-ium bis((trifluoromethyl)sulfonyl)amide; phases: Glass, Liquid, Air at 1 atmosphere
Property: Triple point temperature, K (Glass); method: DTA
Triple point temperature, K	uncertainty
228.45	0.4

System: 1,3-dibenzyl-1H-imidazol-3-ium bis((trifluoromethyl)sulfonyl)amide; phases: Crystal, Liquid, Air at 1 atmosphere
Property: Normal melting temperature, K (Crystal); method: DTA
Normal melting temperature, K	uncertainty
314.85	1.3

System: 1,3-dibenzyl-1H-imidazol-3-ium bis((trifluoromethyl)sulfonyl)amide; phases: Crystal, Liquid, Air at 1 atmosphere
Property: Molar enthalpy of transition or fusion, kJ/mol (Crystal); method: DSC
Molar enthalpy of transition or fusion, kJ/mol	uncertainty
23.61474195632	1.48253985376

System: 1,3-dibenzyl-1H-imidazol-3-ium bis((trifluoromethyl)sulfonyl)amide; phases: Liquid
Fixed: Pressure, kPa = 101.325
Property: Mass density, kg/m3 (Liquid); method: Vibrating tube method
Temperature, K	Mass density, kg/m3	uncertainty
278.15	1452	2
283.15	1448	2
288.15	1444	2
293.15	1439	2
298.15	1434	2
303.15	1430	2
308.15	1425	2
313.15	1420	2
318.15	1415	2
323.15	1411	2

System: 3-methyl-1-(naphthalen-2-ylmethyl)-1H-imidazol-3-ium bis((trifluoromethyl)sulfonyl)amide; phases: Glass, Liquid, Air at 1 atmosphere
Property: Triple point temperature, K (Glass); method: DTA
Triple point temperature, K	uncertainty
234.75	0.4

System: 3-methyl-1-(naphthalen-2-ylmethyl)-1H-imidazol-3-ium bis((trifluoromethyl)sulfonyl)amide; phases: Crystal, Liquid, Air at 1 atmosphere
Property: Normal melting temperature, K (Crystal); method: DTA
Normal melting temperature, K	uncertainty
318.55	1.3

System: 3-methyl-1-(naphthalen-2-ylmethyl)-1H-imidazol-3-ium bis((trifluoromethyl)sulfonyl)amide; phases: Crystal, Liquid, Air at 1 atmosphere
Property: Molar enthalpy of transition or fusion, kJ/mol (Crystal); method: DSC
Molar enthalpy of transition or fusion, kJ/mol	uncertainty
34.08297189384	1.5103237176

System: 3-methyl-1-(naphthalen-2-ylmethyl)-1H-imidazol-3-ium bis((trifluoromethyl)sulfonyl)amide; phases: Liquid
Fixed: Pressure, kPa = 101.325
Property: Mass density, kg/m3 (Liquid); method: Vibrating tube method
Temperature, K	Mass density, kg/m3	uncertainty
278.15	1500	2
283.15	1496	2
288.15	1491	2
293.15	1486	2
298.15	1482	2
303.15	1477	2
308.15	1473	2
313.15	1468	2
318.15	1464	2
323.15	1459	2
