Measured thermophysical data. Ternary Phase Diagram for Systems of Succinic Acid + Urea + Water, Glutaric Acid + Urea + Water and Adipic Acid + Urea + Water at 288.15 K and 303.15 K
Source: J. Chem. Eng. Data, 2014, 10.1021/je500725e
Compound 1: butanedioic acid, C4H6O4, InChI=1S/C4H6O4/c5-3(6)1-2-4(7)8/h1-2H2,(H,5,6)(H,7,8), purity 99.8%
Compound 2: 1,5-pentanedioic acid, C5H8O4, InChI=1S/C5H8O4/c6-4(7)2-1-3-5(8)9/h1-3H2,(H,6,7)(H,8,9), purity 99.7%
Compound 3: 1,6-hexanedioic acid, C6H10O4, InChI=1S/C6H10O4/c7-5(8)3-1-2-4-6(9)10/h1-4H2,(H,7,8)(H,9,10), purity 99.9%
Compound 4: urea, CH4N2O, InChI=1S/CH4N2O/c2-1(3)4/h(H4,2,3,4), purity 99.2%
Compound 5: water, H2O, InChI=1S/H2O/h1H2, purity 99.8%

System: urea + butanedioic acid + water; phases: Liquid, Crystal
Fixed: Pressure, kPa = 100
Property: Mass fraction of urea (Liquid); method: HPLC and spectra
Temperature, K	Mass fraction of butanedioic acid	Mass fraction of urea	uncertainty
303.15	0.1152	0	
303.15	0.1137	0.05431	0.05431
288.15	0.04952	0	
288.15	0.04234	0.02211	0.00529

System: urea + butanedioic acid + water; phases: Liquid, Crystal
Fixed: Pressure, kPa = 100
Property: Mass fraction of urea (Liquid); method: HPLC and spectra
Temperature, K	Mass fraction of butanedioic acid	Mass fraction of urea	uncertainty
303.15	0.003513	0.5918	0.0237
303.15	0	0.5999	0.024
288.15	0	0.5101	0.0204

System: urea + butanedioic acid + water; phases: Liquid, Crystal of intercomponent compound 1
Fixed: Pressure, kPa = 100
Property: Mass fraction of urea (Liquid); method: HPLC and spectra
Temperature, K	Mass fraction of butanedioic acid	Mass fraction of urea	uncertainty
303.15	0.04291	0.1364	0.007
303.15	0.01824	0.1982	0.0083
303.15	0.01123	0.2551	0.0104
303.15	0.009041	0.3285	0.0212
303.15	0.008413	0.3975	0.0316
303.15	0.007642	0.4431	0.03
303.15	0.006815	0.5233	0.0337
288.15	0.02381	0.1098	0.0071
288.15	0.01643	0.1534	0.0082
288.15	0.007914	0.2408	0.0302
288.15	0.006722	0.3487	0.022
288.15	0.005631	0.3841	0.0169
288.15	0.003317	0.4554	0.0184

System: urea + butanedioic acid + water; phases: Liquid, Crystal
Fixed: Pressure, kPa = 100
Property: Mass density, kg/m3 (Liquid); method: Pycnometric method
Temperature, K	Mass fraction of butanedioic acid	Mass density, kg/m3	uncertainty
303.15	0.1152	1004.2	86.6
303.15	0.1137	1032.4	85.5
288.15	0.04952	1004.1	3.1
288.15	0.04234	1015.2	2.6

System: urea + butanedioic acid + water; phases: Liquid, Crystal
Fixed: Pressure, kPa = 100
Property: Mass density, kg/m3 (Liquid); method: Pycnometric method
Temperature, K	Mass fraction of butanedioic acid	Mass density, kg/m3	uncertainty
303.15	0.003513	1118.3	0.7
303.15	0	1102.3	0.3
288.15	0	1080.2	0.3

System: urea + butanedioic acid + water; phases: Liquid, Crystal of intercomponent compound 1
Fixed: Pressure, kPa = 100
Property: Mass density, kg/m3 (Liquid); method: Pycnometric method
Temperature, K	Mass fraction of butanedioic acid	Mass density, kg/m3	uncertainty
303.15	0.04291	1037.5	0.8
303.15	0.01824	1048.6	0.8
303.15	0.01123	1072.9	0.6
303.15	0.009041	1085.1	2
303.15	0.008413	1088.1	4.8
303.15	0.007642	1104.6	5.5
303.15	0.006815	1116.8	4
288.15	0.02381	1025.2	1.1
288.15	0.01643	1033.1	1.2
288.15	0.007914	1051.9	3
288.15	0.006722	1063.1	2.4
288.15	0.005631	1071.7	2.4
288.15	0.003317	1098.5	0.5

System: urea + butanedioic acid + water; phases: Liquid, Crystal of intercomponent compound 1, Crystal
Fixed: Pressure, kPa = 100
Property: Mass fraction of butanedioic acid (Liquid); method: HPLC and spectra
Temperature, K	Mass fraction of butanedioic acid	uncertainty
303.15	0.1123	0.0045
288.15	0.03832	0.00154

System: urea + butanedioic acid + water; phases: Liquid, Crystal of intercomponent compound 1, Crystal
Fixed: Pressure, kPa = 100
Property: Mass fraction of urea (Liquid); method: HPLC and spectra
Temperature, K	Mass fraction of urea	uncertainty
303.15	0.08323	0.00333
288.15	0.04844	0.00194

System: urea + butanedioic acid + water; phases: Liquid, Crystal of intercomponent compound 1, Crystal
Fixed: Pressure, kPa = 100
Property: Mass density, kg/m3 (Liquid); method: Pycnometric method
Temperature, K	Mass density, kg/m3	uncertainty
303.15	1036.6	0.3
288.15	1021.8	0.3

System: urea + butanedioic acid + water; phases: Liquid, Crystal, Crystal of intercomponent compound 1
Fixed: Pressure, kPa = 100
Property: Mass fraction of butanedioic acid (Liquid); method: HPLC and spectra
Temperature, K	Mass fraction of butanedioic acid	uncertainty
303.15	0.005634	0.000226
288.15	0.002126	8.5e-05

System: urea + butanedioic acid + water; phases: Liquid, Crystal, Crystal of intercomponent compound 1
Fixed: Pressure, kPa = 100
Property: Mass fraction of urea (Liquid); method: HPLC and spectra
Temperature, K	Mass fraction of urea	uncertainty
303.15	0.5892	0.0236
288.15	0.4807	0.0193

System: urea + butanedioic acid + water; phases: Liquid, Crystal of intercomponent compound 1, Crystal
Fixed: Pressure, kPa = 100
Property: Mass density, kg/m3 (Liquid); method: Pycnometric method
Temperature, K	Mass density, kg/m3	uncertainty
303.15	1125.6	0.3
288.15	1111.5	0.3

System: urea + 1,5-pentanedioic acid + water; phases: Liquid, Crystal
Fixed: Pressure, kPa = 100
Property: Mass fraction of urea (Liquid); method: HPLC and spectra
Temperature, K	Mass fraction of 1,5-pentanedioic acid	Mass fraction of urea	uncertainty
303.15	0.5298	0.03143	0.01514
303.15	0.5471	0.01911	0.00982
303.15	0.5972	0	
288.15	0.5097	0.01372	0.0089
288.15	0.5412	0	

System: urea + 1,5-pentanedioic acid + water; phases: Liquid, Crystal
Fixed: Mass fraction of 1,5-pentanedioic acid = 0
Fixed: Pressure, kPa = 100
Property: Mass fraction of urea (Liquid); method: HPLC and spectra
Temperature, K	Mass fraction of urea	uncertainty
303.15	0.5999	0.024
288.15	0.501	0.0201

System: urea + 1,5-pentanedioic acid + water; phases: Liquid, Crystal of intercomponent compound 1
Fixed: Pressure, kPa = 100
Property: Mass fraction of urea (Liquid); method: HPLC and spectra
Temperature, K	Mass fraction of 1,5-pentanedioic acid	Mass fraction of urea	uncertainty
303.15	0.005105	0.5576	0.0225
303.15	0.01054	0.4754	0.0211
303.15	0.01403	0.3583	0.0204
303.15	0.01671	0.3191	0.0143
303.15	0.02273	0.2708	0.0125
303.15	0.03224	0.2116	0.0098
303.15	0.05672	0.135	0.007
303.15	0.09221	0.09252	0.00398
303.15	0.1488	0.09503	0.00381
303.15	0.2569	0.09429	0.01271
303.15	0.3843	0.08308	0.01755
303.15	0.4562	0.06292	0.0211
288.15	0.004786	0.4682	0.0199
288.15	0.006107	0.4225	0.0191
288.15	0.007413	0.3721	0.0226
288.15	0.008342	0.3224	0.0282
288.15	0.009105	0.2523	0.0286
288.15	0.009687	0.2033	0.0353
288.15	0.01703	0.1457	0.0062
288.15	0.04532	0.08823	0.00388
288.15	0.1027	0.06388	0.00291
288.15	0.1635	0.04814	0.00257

System: urea + 1,5-pentanedioic acid + water; phases: Liquid, Crystal
Fixed: Pressure, kPa = 100
Property: Mass density, kg/m3 (Liquid); method: Pycnometric method
Temperature, K	Mass fraction of 1,5-pentanedioic acid	Mass density, kg/m3	uncertainty
303.15	0.5298	1147.8	16.7
303.15	0.5471	1134.2	8.4
303.15	0.5972	1120.1	9.1
288.15	0.5097	1100	10.7
288.15	0.5412	1083.5	11.3

System: urea + 1,5-pentanedioic acid + water; phases: Liquid, Crystal
Fixed: Mass fraction of 1,5-pentanedioic acid = 0
Fixed: Pressure, kPa = 100
Property: Mass density, kg/m3 (Liquid); method: Pycnometric method
Temperature, K	Mass density, kg/m3	uncertainty
303.15	1005.7	0.3
288.15	1002.1	0.3

System: urea + 1,5-pentanedioic acid + water; phases: Liquid, Crystal of intercomponent compound 1
Fixed: Pressure, kPa = 100
Property: Mass density, kg/m3 (Liquid); method: Pycnometric method
Temperature, K	Mass fraction of 1,5-pentanedioic acid	Mass density, kg/m3	uncertainty
303.15	0.005105	1008.1	0.4
303.15	0.01054	1013.19	0.42
303.15	0.01403	1014.12	0.53
303.15	0.01671	1018.19	0.76
303.15	0.02273	1023.5	0.8
303.15	0.03224	1030.1	0.7
303.15	0.05672	1041	1
303.15	0.09221	1063.1	1.7
303.15	0.1488	1083.3	2.1
303.15	0.2569	1095.9	3.7
288.15	0.004786	1005.8	0.5
288.15	0.006107	1008.9	0.5
288.15	0.007413	1010.2	0.5
288.15	0.008342	1012.2	0.9
288.15	0.009105	1014.36	0.98
288.15	0.009687	1015.63	0.89
288.15	0.01703	1018.2	0.3
288.15	0.04532	1025.5	0.5
288.15	0.1027	1040.1	1.1
288.15	0.1635	1055.6	2.1

System: urea + 1,5-pentanedioic acid + water; phases: Liquid, Crystal of intercomponent compound 2
Fixed: Temperature, K = 288.15
Fixed: Pressure, kPa = 100
Property: Mass fraction of urea (Liquid); method: HPLC and spectra
Mass fraction of 1,5-pentanedioic acid	Mass fraction of urea	uncertainty
0.3355	0.03308	0.00218
0.4249	0.02156	0.00235

System: urea + 1,5-pentanedioic acid + water; phases: Liquid, Crystal of intercomponent compound 2
Fixed: Temperature, K = 288.15
Fixed: Pressure, kPa = 100
Property: Mass density, kg/m3 (Liquid); method: Pycnometric method
Mass fraction of 1,5-pentanedioic acid	Mass density, kg/m3	uncertainty
0.3355	1090.2	1.1
0.4249	1097.5	1.4

System: urea + 1,5-pentanedioic acid + water; phases: Liquid, Crystal of intercomponent compound 2, Crystal of intercomponent compound 1
Fixed: Pressure, kPa = 100
Property: Mass fraction of 1,5-pentanedioic acid (Liquid); method: HPLC and spectra
Temperature, K	Mass fraction of 1,5-pentanedioic acid	uncertainty
303.15	0.3153	0.0126
288.15	0.2484	0.01

System: urea + 1,5-pentanedioic acid + water; phases: Liquid, Crystal of intercomponent compound 2, Crystal of intercomponent compound 1
Fixed: Pressure, kPa = 100
Property: Mass fraction of urea (Liquid); method: HPLC and spectra
Temperature, K	Mass fraction of urea	uncertainty
303.15	0.08561	0.00343
288.15	0.04071	0.00163

System: urea + 1,5-pentanedioic acid + water; phases: Liquid, Crystal, Crystal of intercomponent compound 1
Property: Mass fraction of 1,5-pentanedioic acid (Liquid); method: HPLC and spectra
Temperature, K	Pressure, kPa	Mass fraction of 1,5-pentanedioic acid	uncertainty
303.15	100	0.4987	0.02

System: urea + 1,5-pentanedioic acid + water; phases: Liquid, Crystal, Crystal of intercomponent compound 1
Property: Mass fraction of urea (Liquid); method: HPLC and spectra
Temperature, K	Pressure, kPa	Mass fraction of urea	uncertainty
303.15	100	0.06618	0.00265

System: urea + 1,5-pentanedioic acid + water; phases: Liquid, Crystal, Crystal of intercomponent compound 2
Property: Mass fraction of 1,5-pentanedioic acid (Liquid); method: HPLC and spectra
Temperature, K	Pressure, kPa	Mass fraction of 1,5-pentanedioic acid	uncertainty
288.15	100	0.4804	0.0192

System: urea + 1,5-pentanedioic acid + water; phases: Liquid, Crystal, Crystal of intercomponent compound 2
Property: Mass fraction of urea (Liquid); method: HPLC and spectra
Temperature, K	Pressure, kPa	Mass fraction of urea	uncertainty
288.15	100	0.02124	0.00085

System: urea + 1,5-pentanedioic acid + water; phases: Liquid, Crystal of intercomponent compound 1, Crystal of intercomponent compound 2
Fixed: Pressure, kPa = 100
Property: Mass density, kg/m3 (Liquid); method: Pycnometric method
Temperature, K	Mass density, kg/m3	uncertainty
303.15	1110.8	0.3
288.15	1086.7	0.3

System: urea + 1,5-pentanedioic acid + water; phases: Liquid, Crystal of intercomponent compound 1, Crystal
Property: Mass density, kg/m3 (Liquid); method: Pycnometric method
Temperature, K	Pressure, kPa	Mass density, kg/m3	uncertainty
303.15	100	1153.2	0.4

System: urea + 1,5-pentanedioic acid + water; phases: Liquid, Crystal of intercomponent compound 2, Crystal
Property: Mass density, kg/m3 (Liquid); method: Pycnometric method
Temperature, K	Pressure, kPa	Mass density, kg/m3	uncertainty
288.15	100	1108.9	0.3

System: urea + 1,6-hexanedioic acid + water; phases: Liquid, Crystal
Fixed: Pressure, kPa = 100
Property: Mass fraction of urea (Liquid); method: HPLC and spectra
Temperature, K	Mass fraction of 1,6-hexanedioic acid	Mass fraction of urea	uncertainty
303.15	0.03922	0.1008	0.0202
303.15	0.03487	0.04582	0.02254
303.15	0.03331	0	
288.15	0.02011	0.09162	0.00959
288.15	0.01672	0.05429	0.0104
288.15	0.01418	0	

System: urea + 1,6-hexanedioic acid + water; phases: Liquid, Crystal
Fixed: Pressure, kPa = 100
Property: Mass fraction of urea (Liquid); method: HPLC and spectra
Temperature, K	Mass fraction of 1,6-hexanedioic acid	Mass fraction of urea	uncertainty
303.15	0	0.5999	0.024
303.15	0.008503	0.5544	0.0223
303.15	0.012586	0.5181	0.021
288.15	0	0.5101	0.0204
288.15	0.005512	0.504	0.0202
288.15	0.007085	0.499	0.02

System: urea + 1,6-hexanedioic acid + water; phases: Liquid, Crystal of intercomponent compound 1
Fixed: Pressure, kPa = 100
Property: Mass fraction of urea (Liquid); method: HPLC and spectra
Temperature, K	Mass fraction of 1,6-hexanedioic acid	Mass fraction of urea	uncertainty
303.15	0.01844	0.4279	0.0226
303.15	0.02141	0.3683	0.0211
303.15	0.02548	0.303	0.0173
303.15	0.0351	0.2181	0.0194
288.15	0.008734	0.4545	0.0192
288.15	0.01122	0.4104	0.0194
288.15	0.01489	0.3137	0.0173
288.15	0.02031	0.2272	0.0158

System: urea + 1,6-hexanedioic acid + water; phases: Liquid, Crystal
Fixed: Pressure, kPa = 100
Property: Mass density, kg/m3 (Liquid); method: Pycnometric method
Temperature, K	Mass fraction of 1,6-hexanedioic acid	Mass density, kg/m3	uncertainty
303.15	0.03922	1010.4	1.1
303.15	0.03487	1007.6	1.2
303.15	0.03331	1005.1	1.2
288.15	0.02011	1012.7	0.4
288.15	0.01672	1011.5	1.3
288.15	0.01418	1001.1	1.1

System: urea + 1,6-hexanedioic acid + water; phases: Liquid, Crystal
Fixed: Pressure, kPa = 100
Property: Mass density, kg/m3 (Liquid); method: Pycnometric method
Temperature, K	Mass fraction of 1,6-hexanedioic acid	Mass density, kg/m3	uncertainty
303.15	0	1047.5	0.3
303.15	0.008503	1070.8	0.9
303.15	0.012586	1077.1	1.3
288.15	0	1036.4	0.3
288.15	0.005512	1042.1	0.6
288.15	0.007085	1058	1

System: urea + 1,6-hexanedioic acid + water; phases: Liquid, Crystal of intercomponent compound 1
Fixed: Pressure, kPa = 100
Property: Mass density, kg/m3 (Liquid); method: Pycnometric method
Temperature, K	Mass fraction of 1,6-hexanedioic acid	Mass density, kg/m3	uncertainty
303.15	0.01844	1064.5	3.6
303.15	0.02141	1050.1	2.8
303.15	0.02548	1041.1	2.5
303.15	0.0351	1021.3	3.6
288.15	0.008734	1066.3	2.7
288.15	0.01122	1047.3	1.6
288.15	0.01489	1044.1	2.1
288.15	0.02031	1021.9	3.3

System: urea + 1,6-hexanedioic acid + water; phases: Liquid, Crystal of intercomponent compound 1, Crystal
Fixed: Pressure, kPa = 100
Property: Mass fraction of 1,6-hexanedioic acid (Liquid); method: HPLC and spectra
Temperature, K	Mass fraction of 1,6-hexanedioic acid	uncertainty
303.15	0.016134	0.000646
288.15	0.007541	0.000302

System: urea + 1,6-hexanedioic acid + water; phases: Liquid, Crystal of intercomponent compound 1, Crystal
Fixed: Pressure, kPa = 100
Property: Mass fraction of urea (Liquid); method: HPLC and spectra
Temperature, K	Mass fraction of urea	uncertainty
303.15	0.4879	0.0195
288.15	0.495	0.0198

System: urea + 1,6-hexanedioic acid + water; phases: Liquid, Crystal of intercomponent compound 1, Crystal
Fixed: Pressure, kPa = 100
Property: Mass fraction of 1,6-hexanedioic acid (Liquid); method: HPLC and spectra
Temperature, K	Mass fraction of 1,6-hexanedioic acid	uncertainty
303.15	0.04509	0.00181
288.15	0.02574	0.00103

System: urea + 1,6-hexanedioic acid + water; phases: Liquid, Crystal of intercomponent compound 1, Crystal
Fixed: Pressure, kPa = 100
Property: Mass fraction of urea (Liquid); method: HPLC and spectra
Temperature, K	Mass fraction of urea	uncertainty
303.15	0.1596	0.0064
288.15	0.1377	0.0055

System: urea + 1,6-hexanedioic acid + water; phases: Liquid, Crystal, Crystal of intercomponent compound 1
Fixed: Pressure, kPa = 100
Property: Mass density, kg/m3 (Liquid); method: Pycnometric method
Temperature, K	Mass density, kg/m3	uncertainty
303.15	1090.4	0.3
288.15	1067.2	0.3

System: urea + 1,6-hexanedioic acid + water; phases: Liquid, Crystal, Crystal of intercomponent compound 1
Fixed: Pressure, kPa = 100
Property: Mass density, kg/m3 (Liquid); method: Pycnometric method
Temperature, K	Mass density, kg/m3	uncertainty
303.15	1011	1
288.15	1020	0.3
