Measured thermophysical data. Experimental and Modeling of Vapor Liquid Equilibria for Electrolyte Solution Systems
Source: J. Chem. Eng. Data, 2014, 10.1021/je500623w
Compound 1: water, H2O, InChI=1S/H2O/h1H2, purity 99.9%
Compound 2: calcium chloride, CaCl2, InChI=1S/Ca.2ClH/h;2*1H/q+2;;/p-2, purity 96%
Compound 3: magnesium chloride, Cl2Mg, InChI=1S/2ClH.Mg/h2*1H;/q;;+2/p-2, purity 98%
Compound 4: potassium sulfate, K2O4S, InChI=1S/2K.H2O4S/c;;1-5(2,3)4/h;;(H2,1,2,3,4)/q2*+1;/p-2, purity 98%
Compound 5: magnesium sulfate, MgO4S, InChI=1S/Mg.H2O4S/c;1-5(2,3)4/h;(H2,1,2,3,4)/q+2;/p-2, purity 98%

System: water + calcium chloride; phases: Liquid, Gas
Property: Vapor or sublimation pressure, kPa (Liquid); method: Ebulliometric method (Recirculating still)
Molality, mol/kg of calcium chloride	Temperature, K	Vapor or sublimation pressure, kPa	uncertainty
1	309.65	6.5	2
1	320.95	11.3	2
1	328.75	16.3	2
1	334.65	21.3	2
1	339.15	26.3	2
1	343.85	31.3	2
1	347.35	36.3	2
1	350.55	41.3	2
1	353.25	46.3	2
1	355.75	51.3	2
1	358.05	56.3	2
1	360.25	61.3	2
1	362.25	66.3	2
1	364.15	71.3	2
1	366.15	76.3	2
1	368.05	81.3	2
1	369.65	86.3	2.1
1	371.25	91.3	2.1
1	372.75	96.3	2.1
1	374.05	101.3	2.1
2	312.15	6.8	2
2	322.85	11.3	2
2	331.05	16.3	2
2	336.85	21.3	2
2	341.35	26.3	2
2	345.65	31.3	2
2	349.15	36.3	2
2	352.25	41.3	2
2	354.95	46.3	2
2	357.65	51.3	2
2	360.45	56.3	2
2	362.65	61.3	2
2	364.75	66.3	2
2	366.55	71.3	2
2	368.55	76.3	2.1
2	370.25	81.3	2.1
2	372.05	86.3	2.1
2	373.65	91.3	2.1
2	375.15	96.3	2.1
2	376.55	101.3	2.1
3	314.45	6.3	2
3	326.25	11.3	2
3	334.15	16.3	2
3	339.85	21.3	2
3	344.35	26.3	2
3	348.85	31.3	2
3	352.45	36.3	2
3	355.65	41.3	2
3	358.55	46.3	2
3	361.15	51.3	2
3	363.55	56.3	2.1
3	365.75	61.3	2.1
3	367.65	66.3	2.1
3	369.55	71.3	2.1
3	371.65	76.3	2.1
3	373.65	81.3	2.1
3	375.25	86.3	2.1
3	376.85	91.3	2.1
3	378.35	96.3	2.1
3	379.75	101.3	2.1
4	319.15	6.4	2
4	330.65	11.3	2
4	338.85	16.5	2
4	344.15	21.3	2
4	348.65	26.3	2
4	353.15	31.3	2
4	356.75	36.3	2
4	359.95	41.3	2
4	362.75	46.3	2
4	365.25	51.3	2.1
4	367.55	56.3	2.1
4	369.75	61.3	2.1
4	371.65	66.3	2.1
4	373.55	71.3	2.1
4	375.35	76.3	2.1
4	377.15	81.3	2.1
4	378.95	86.3	2.1
4	380.55	91.3	2.2
4	382.15	96.3	2.2
4	384.65	101.3	2.2
5	323.45	6.7	2
5	334.15	11.3	2
5	342.65	16.5	2
5	348.65	21.3	2
5	353.25	26.3	2
5	357.35	31.3	2
5	361.15	36.3	2
5	364.45	41.3	2.1
5	367.25	46.3	2.1
5	369.85	51.3	2.1
5	372.45	56.3	2.1
5	374.65	61.3	2.1
5	376.85	66.3	2.2
5	378.95	71.3	2.2
5	380.95	76.3	2.2
5	382.85	81.3	2.2
5	384.65	86.3	2.2
5	386.15	91.3	2.2
5	387.65	96.3	2.2
5	389.15	101.3	2.2
6	326.65	6.7	2.2
6	338.35	11.3	2.7
6	346.35	16.3	2.8
6	352.55	21.3	3.3
6	357.35	26.3	4
6	361.55	31.3	4.4
6	364.95	36.3	4.9
6	368.45	41.3	5.6
6	371.35	46.3	6.3
6	373.95	51.3	6.9
6	376.55	56.3	7.2
6	379.15	61.3	7.5
6	381.15	66.3	7.9
6	383.15	71.3	8.2
6	385.15	76.3	8.7
6	387.05	81.3	10
6	388.75	86.3	10.6
6	390.35	91.3	10.8
6	391.85	96.3	10.3
6	393.35	101.3	10.9
7	331.85	6.9	2
7	342.15	11.3	2
7	350.15	16.3	2
7	356.25	21.3	2
7	361.05	26.3	2
7	365.25	31.3	2
7	369.25	36.3	2.1
7	372.45	41.3	2.1
7	375.35	46.3	2.1
7	378.05	51.3	2.1
7	380.55	56.3	2.1
7	382.75	61.3	2.2
7	385.05	66.3	2.2
7	387.45	71.3	2.2
7	389.45	76.3	2.2
7	391.15	81.3	2.3
7	392.85	86.3	2.3
7	394.45	91.3	2.3
7	396.05	96.3	2.3
7	397.55	101.3	2.3
8	332.65	6.3	2
8	344.95	11.3	2
8	353.25	16.3	2
8	359.35	21.3	2
8	364.65	26.3	2
8	368.95	31.3	2.1
8	372.85	36.3	2.1
8	376.35	41.3	2.1
8	379.25	46.3	2.1
8	381.95	51.3	2.2
8	384.45	56.3	2.2
8	386.85	61.3	2.2
8	389.25	66.3	2.2
8	391.55	71.3	2.3
8	393.35	76.3	2.3
8	395.05	81.3	2.3
8	396.95	86.3	2.4
8	398.55	91.3	2.4
8	400.25	96.3	2.4
8	401.65	101.3	2.4
9	336.65	6.3	2
9	348.95	11.5	2
9	356.95	16.8	2
9	362.65	21.3	2
9	367.85	26.3	2
9	372.25	31.3	2.1
9	375.85	36.3	2.1
9	379.45	41.3	2.1
9	382.45	46.3	2.1
9	385.45	51.3	2.1
9	387.65	56.3	2.2
9	390.05	61.3	2.2
9	392.65	66.3	2.2
9	394.95	71.3	2.2
9	396.85	76.3	2.2
9	398.55	81.3	2.3
9	400.45	86.3	2.3
9	402.05	91.3	2.3
9	403.75	96.3	2.4
9	405.15	101.3	2.4
10	338.45	6.4	2
10	351.45	11.3	2
10	359.45	16.3	2
10	366.15	21.3	2
10	371.45	26.3	2
10	375.45	31.3	2.1
10	379.25	36.3	2.1
10	382.85	41.3	2.1
10	385.75	46.3	2.1
10	388.65	51.3	2.1
10	391.15	56.3	2.2
10	393.45	61.3	2.2
10	395.85	66.3	2.2
10	398.25	71.3	2.3
10	400.15	76.3	2.3
10	401.95	81.3	2.3
10	403.85	86.3	2.3
10	405.65	91.3	2.4
10	407.35	96.3	2.3
10	408.75	101.3	2.4
11	337.85	6.2	2
11	352.15	11.3	2
11	360.65	16.3	2
11	367.45	21.3	2
11	372.75	26.3	2
11	377.45	31.3	2
11	381.35	36.3	2.1
11	384.85	41.3	2.1
11	387.75	46.3	2.1
11	390.75	51.3	2.1
11	394.05	56.3	2.2
11	396.35	61.3	2.2
11	398.75	66.3	2.3
11	401.05	71.3	2.3
11	402.95	76.3	2.4
11	404.75	81.3	2.4
11	406.65	86.3	2.4
11	408.45	91.3	2.5
11	410.15	96.3	2.6
11	411.55	101.3	2.8
12	375.45	25.6	2.1
12	382.45	31.1	2.4
12	383.95	36.3	2.1
12	387.55	41.3	2.1
12	391.15	46.3	2.2
12	393.95	51.3	2.2
12	397.35	56.3	2.2
12	399.85	61.3	2.3
12	401.15	66.3	2.3
12	404.55	71.3	2.4
12	406.55	76.3	2.5
12	408.45	81.3	2.5
12	410.45	86.3	2.6
12	412.45	91.3	2.7
12	414.25	96.3	2.8
12	415.85	101.3	2.8

System: water + magnesium chloride; phases: Liquid, Gas
Property: Vapor or sublimation pressure, kPa (Liquid); method: Ebulliometric method (Recirculating still)
Molality, mol/kg of magnesium chloride	Temperature, K	Vapor or sublimation pressure, kPa	uncertainty
1	309.85	6.3	2
1	319.65	11.3	2
1	327.45	16.3	2
1	333.45	21.3	2
1	338.45	26.6	2
1	342.45	31.3	2
1	346.05	36.3	2
1	349.65	41.3	2
1	352.25	46.3	2
1	354.85	51.3	2
1	357.45	56.3	2
1	359.75	61.3	2
1	361.75	66.3	2
1	363.55	71.3	2
1	365.45	76.3	2
1	367.15	81.3	2
1	368.75	86.3	2.1
1	370.35	91.3	2.1
1	371.85	96.3	2.1
1	373.25	101.3	2.1
2	310.25	6.3	2
2	320.05	11.3	2
2	328.05	16.3	2
2	334.55	21.3	2
2	338.65	26.3	2
2	342.95	31.3	2
2	347.05	36.3	2
2	350.15	41.3	2
2	352.85	46.3	2
2	355.45	51.3	2
2	357.85	56.3	2
2	360.15	61.3	2
2	362.15	66.3	2
2	364.25	71.3	2
2	366.05	76.3	2
2	367.75	81.3	2.1
2	369.35	86.3	2.1
2	370.95	91.3	2.1
2	372.45	96.3	2.1
2	373.75	101.3	2.1
3	310.95	6.3	2
3	321.55	11.3	2
3	329.75	16.3	2
3	335.75	21.3	2
3	339.95	26.3	2
3	344.45	31.3	2
3	348.05	36.3	2
3	351.15	41.3	2
3	353.85	46.3	2
3	356.45	51.3	2
3	358.85	56.3	2
3	361.15	61.3	2
3	363.25	66.3	2
3	365.15	71.3	2
3	367.05	76.3	2
3	368.75	81.3	2.1
3	370.45	86.3	2.1
3	372.05	91.3	2.1
3	373.55	96.3	2.1
3	374.85	101.3	2.1
4	310.65	6.3	2
4	323.25	11.3	2
4	330.85	16.3	2
4	336.75	21.3	2
4	341.15	26.3	2
4	345.35	31.3	2
4	348.65	36.3	2
4	351.95	41.3	2
4	354.95	46.3	2
4	357.45	51.3	2
4	359.85	56.3	2
4	362.25	61.3	2
4	364.25	66.3	2
4	366.15	71.3	2
4	367.95	76.3	2
4	369.75	81.3	2.1
4	371.45	86.3	2.1
4	373.15	91.3	2.1
4	374.55	96.3	2.1
4	375.95	101.3	2.1
5	312.65	6.3	2
5	323.95	11.3	2
5	331.65	16.3	2
5	337.45	21.3	2
5	341.85	26.3	2
5	346.05	31.3	2
5	349.75	36.3	2
5	352.85	41.3	2
5	355.55	46.3	2
5	358.05	51.3	2
5	360.35	56.3	2
5	362.75	61.3	2
5	364.85	66.3	2
5	366.85	71.3	2
5	368.75	76.3	2
5	370.65	81.3	2.1
5	372.25	86.3	2.1
5	373.95	91.3	2.1
5	375.35	96.3	2.1
5	376.85	101.3	2.1
6	313.25	6.3	2
6	324.85	11.3	2
6	332.55	16.3	2
6	338.35	21.3	2
6	342.85	26.3	2
6	347.15	31.3	2
6	350.55	36.3	2
6	353.75	41.3	2
6	356.55	46.3	2
6	359.05	51.3	2
6	361.35	56.3	2
6	363.75	61.3	2
6	365.85	66.3	2
6	367.85	71.3	2.1
6	369.75	76.3	2.1
6	371.65	81.3	2.1
6	373.25	86.3	2.1
6	374.95	91.3	2.1
6	376.35	96.3	2.1
6	377.85	101.3	2.1

System: water + potassium sulfate; phases: Liquid, Gas
Property: Vapor or sublimation pressure, kPa (Liquid); method: Ebulliometric method (Recirculating still)
Molality, mol/kg of potassium sulfate	Temperature, K	Vapor or sublimation pressure, kPa	uncertainty
0.2	309.95	6.8	2
0.2	322.35	12.3	2
0.2	328.55	16.7	2
0.2	333.65	21.3	2
0.2	338.25	26.3	2
0.2	342.35	31.3	2
0.2	345.85	36.3	2
0.2	349.05	41.3	2
0.2	352.15	46.3	2
0.2	354.65	51.3	2
0.2	356.95	56.3	2
0.2	359.05	61.3	2
0.2	361.25	66.3	2
0.2	363.25	71.3	2
0.2	365.05	76.3	2
0.2	366.85	81.3	2
0.2	368.45	86.3	2.1
0.2	369.85	91.3	2.1
0.2	371.45	96.3	2.1
0.2	372.85	101.3	2.1
0.4	310.35	6.8	2
0.4	320.45	11.3	2
0.4	328.35	16.5	2
0.4	333.85	21.3	2
0.4	338.45	26.3	2
0.4	342.55	31.3	2
0.4	345.95	36.3	2
0.4	349.15	41.3	2
0.4	352.15	46.3	2
0.4	354.65	51.3	2
0.4	357.05	56.3	2
0.4	359.25	61.3	2
0.4	361.25	66.3	2
0.4	363.35	71.3	2
0.4	365.15	76.3	2
0.4	366.85	81.3	2
0.4	368.45	86.3	2.1
0.4	370.05	91.3	2.1
0.4	371.55	96.3	2.1
0.4	373.05	101.3	2.1
0.6	310.25	6.8	2
0.6	320.45	11.3	2
0.6	328.95	16.8	2
0.6	334.05	21.3	2
0.6	338.65	26.3	2
0.6	342.75	31.3	2
0.6	346.05	36.3	2
0.6	349.25	41.3	2
0.6	352.35	46.3	2
0.6	354.85	51.3	2
0.6	357.25	56.3	2
0.6	359.45	61.3	2
0.6	361.45	66.3	2
0.6	363.55	71.3	2
0.6	365.35	76.3	2
0.6	367.05	81.3	2
0.6	368.65	86.3	2.1
0.6	370.25	91.3	2.1
0.6	371.75	96.3	2.1
0.6	373.25	101.3	2.1
0.8	310.05	6.8	2
0.8	320.45	11.3	2
0.8	328.15	16.3	2
0.8	334.15	21.3	2
0.8	338.75	26.3	2
0.8	342.85	31.3	2
0.8	346.25	36.3	2
0.8	349.45	41.3	2
0.8	352.35	46.3	2
0.8	354.85	51.3	2
0.8	357.25	56.3	2
0.8	359.65	61.3	2
0.8	361.65	66.3	2
0.8	363.65	71.3	2
0.8	365.55	76.3	2
0.8	367.25	81.3	2.1
0.8	368.85	86.3	2.1
0.8	370.45	91.3	2.1
0.8	371.75	96.3	2.1
0.8	373.45	101.3	2.1
1	338.75	26.3	2
1	342.95	31.3	2
1	346.45	36.3	2
1	349.75	41.3	2
1	352.45	46.3	2
1	354.95	51.3	2
1	357.35	56.3	2
1	359.75	61.3	2
1	361.85	66.3	2
1	363.75	71.3	2
1	365.75	76.3	2
1	367.55	81.3	2
1	369.15	86.3	2.1
1	370.65	91.3	2.1
1	372.15	96.3	2.1
1	373.65	101.3	2.1

System: magnesium sulfate + water; phases: Liquid, Gas
Property: Vapor or sublimation pressure, kPa (Liquid); method: Ebulliometric method (Recirculating still)
Molality, mol/kg of magnesium sulfate	Temperature, K	Vapor or sublimation pressure, kPa	uncertainty
0.5	310.45	6.3	2
0.5	321.15	11.3	2
0.5	328.85	16.3	2
0.5	334.05	20.8	2
0.5	338.95	26.8	2
0.5	342.65	31.3	2
0.5	346.55	36.3	2
0.5	349.85	41.8	2
0.5	352.25	46.3	2
0.5	355.25	51.3	2
0.5	357.45	56.3	2
0.5	359.55	61.3	2
0.5	361.55	66.3	2
0.5	363.45	71.3	2
0.5	365.25	76.3	2
0.5	367.05	81.3	2
0.5	368.65	86.3	2.1
0.5	370.15	91.3	2.1
0.5	371.65	96.3	2.1
0.5	373.05	101.3	2.1
1	311.35	6.3	2
1	322.05	11.3	2
1	329.35	16.3	2
1	334.45	20.8	2
1	339.35	26.3	2
1	343.15	30.8	2
1	346.65	36.3	2
1	349.65	41.3	2
1	352.35	46.3	2
1	355.35	51.3	2
1	357.65	56.3	2
1	359.75	61.3	2
1	361.75	66.3	2
1	363.65	71.3	2
1	365.45	76.3	2
1	367.25	81.3	2
1	368.85	86.3	2.1
1	370.35	91.3	2.1
1	371.85	96.3	2.1
1	373.25	101.3	2.1
1.5	311.75	6.5	2
1.5	321.75	10.8	2
1.5	328.95	15.7	2
1.5	334.75	20.8	2
1.5	339.65	26.3	2
1.5	343.25	31.1	2
1.5	347.25	36.3	2
1.5	349.75	40.8	2
1.5	352.55	46.3	2
1.5	355.45	51.3	2
1.5	357.85	56.3	2
1.5	359.95	61.3	2
1.5	362.05	66.3	2
1.5	364.05	71.3	2
1.5	365.85	76.3	2
1.5	367.6	81.3	2.1
1.5	369.15	86.3	2.1
1.5	370.65	91.3	2.1
1.5	372.1	96.3	2.1
1.5	373.45	101.3	2.1
2	309.85	5.8	2
2	321.85	10.8	2
2	329.15	15.8	2
2	333.85	19.8	2
2	339.75	26.3	2
2	343.85	31.5	2
2	347.25	36.3	2
2	349.65	40.3	2
2	352.75	46.3	2
2	355.35	51.3	2
2	357.85	56.3	2
2	359.95	61.3	2
2	362.1	66.3	2
2	364.25	71.3	2
2	365.95	76.3	2
2	367.85	81.3	2
2	369.45	86.3	2.1
2	370.95	91.3	2.1
2	372.25	96.3	2.1
2	373.65	101.3	2.1
3	314.35	7.3	2
3	321.95	10.7	2
3	330.25	15.8	2
3	335.85	20.8	2
3	341.65	27.1	2
3	345.35	31.8	2
3	348.55	36.3	2
3	351.55	41.3	2
3	354.25	46.3	2
3	356.75	51.3	2
3	358.95	56.3	2
3	361.15	61.3	2
3	363.05	66.3	2
3	365.15	71.3	2
3	366.85	76.3	2.1
3	368.65	81.3	2.1
3	370.25	86.3	2.1
3	371.85	91.3	2.1
3	373.25	96.3	2.1
3	374.75	101.3	2.1
4	322.95	10.3	2
4	332.25	16.3	2
4	337.95	21.1	2
4	342.55	26.3	2
4	346.65	31.6	2
4	350.15	36.8	2
4	353.15	41.3	2
4	355.75	46.3	2
4	358.25	51.3	2
4	360.55	56.3	2
4	362.75	61.3	2
4	364.65	66.3	2
4	366.75	71.3	2
4	368.75	76.3	2.1
4	370.55	81.3	2.1
4	372.15	86.3	2.1
4	373.65	91.3	2.1
4	375.05	96.3	2.1
4	376.45	101.3	2.1
