Measured thermophysical data. Densities and Viscosities of (Choline Chloride + Urea) Deep Eutectic Solvent and Its Aqueous Mixtures in the Temperature Range 293.15 K to 363.15 K
Source: J. Chem. Eng. Data, 2014, 10.1021/je5001796
Compound 1: choline chloride, C5H14ClNO, InChI=1S/C5H14NO.ClH/c1-6(2,3)4-5-7;/h7H,4-5H2,1-3H3;1H/q+1;/p-1, purity 99%
Compound 2: urea, CH4N2O, InChI=1S/CH4N2O/c2-1(3)4/h(H4,2,3,4), purity 99%
Compound 3: water, H2O, InChI=1S/H2O/h1H2, purity 99.9%

System: urea + choline chloride + water; phases: Liquid
Fixed: Pressure, kPa = 101
Property: Mass density, kg/m3 (Liquid); method: Vibrating tube method
Temperature, K	Mole fraction of choline chloride	Mole fraction of urea	Mass density, kg/m3	uncertainty
293.15	0.03333	0.06667	1065.2	0.3
293.15	0.06667	0.13333	1104.7	0.2
293.15	0.09973	0.19947	1130.7	0.2
293.15	0.13333	0.26667	1149.2	0.2
293.15	0.16483	0.32967	1162.1	0.2
293.15	0.19987	0.39973	1173.2	0.2
293.15	0.23293	0.46587	1181.7	0.3
293.15	0.2667	0.5334	1188.9	0.3
293.15	0.2992	0.5984	1194.8	0.4
293.15	0.33333	0.66667	1200.1	0.4
303.15	0.03333	0.06667	1060.8	0.3
303.15	0.06667	0.13333	1099.6	0.2
303.15	0.09973	0.19947	1125.4	0.2
303.15	0.13333	0.26667	1143.9	0.2
303.15	0.16483	0.32967	1156.8	0.2
303.15	0.19987	0.39973	1167.8	0.2
303.15	0.23293	0.46587	1176.2	0.3
303.15	0.2667	0.5334	1183.2	0.3
303.15	0.2992	0.5984	1189.1	0.3
303.15	0.33333	0.66667	1194.5	0.4
313.15	0.03333	0.06667	1056	0.3
313.15	0.06667	0.13333	1094.4	0.2
313.15	0.09973	0.19947	1120.1	0.2
313.15	0.13333	0.26667	1138.5	0.2
313.15	0.16483	0.32967	1151.4	0.2
313.15	0.19987	0.39973	1162.4	0.2
313.15	0.23293	0.46587	1170.7	0.3
313.15	0.2667	0.5334	1177.7	0.3
313.15	0.2992	0.5984	1183.4	0.3
313.15	0.33333	0.66667	1188.7	0.4
323.15	0.03333	0.06667	1050.9	0.3
323.15	0.06667	0.13333	1089.1	0.2
323.15	0.09973	0.19947	1114.7	0.2
323.15	0.13333	0.26667	1133.1	0.2
323.15	0.16483	0.32967	1146	0.2
323.15	0.19987	0.39973	1157	0.2
323.15	0.23293	0.46587	1165.4	0.3
323.15	0.2667	0.5334	1172.3	0.3
323.15	0.2992	0.5984	1177.9	0.3
323.15	0.33333	0.66667	1183.1	0.4
333.15	0.03333	0.06667	1045.8	0.3
333.15	0.06667	0.13333	1083.8	0.2
333.15	0.09973	0.19947	1109.3	0.2
333.15	0.13333	0.26667	1127.6	0.2
333.15	0.16483	0.32967	1140.4	0.2
333.15	0.19987	0.39973	1151.4	0.2
333.15	0.23293	0.46587	1159.7	0.3
333.15	0.2667	0.5334	1166.6	0.3
333.15	0.2992	0.5984	1172.2	0.3
333.15	0.33333	0.66667	1177.3	0.4
343.15	0.03333	0.06667	1040	0.3
343.15	0.06667	0.13333	1077.8	0.2
343.15	0.09973	0.19947	1103.1	0.2
343.15	0.13333	0.26667	1121.3	0.2
343.15	0.16483	0.32967	1134.1	0.2
343.15	0.19987	0.39973	1145	0.2
343.15	0.23293	0.46587	1153.3	0.3
343.15	0.2667	0.5334	1160.1	0.3
343.15	0.2992	0.5984	1165.7	0.3
343.15	0.33333	0.66667	1170.8	0.4
353.15	0.03333	0.06667	1033.5	0.3
353.15	0.06667	0.13333	1071.1	0.2
353.15	0.09973	0.19947	1096.3	0.2
353.15	0.13333	0.26667	1114.4	0.2
353.15	0.16483	0.32967	1127	0.2
353.15	0.19987	0.39973	1137.9	0.2
353.15	0.23293	0.46587	1146.1	0.3
353.15	0.2667	0.5334	1152.9	0.3
353.15	0.2992	0.5984	1158.4	0.3
353.15	0.33333	0.66667	1163.5	0.4
363.15	0.03333	0.06667	1026.3	0.3
363.15	0.06667	0.13333	1063.7	0.2
363.15	0.09973	0.19947	1088.7	0.2
363.15	0.13333	0.26667	1106.6	0.2
363.15	0.16483	0.32967	1119.2	0.2
363.15	0.19987	0.39973	1130	0.2
363.15	0.23293	0.46587	1138.1	0.3
363.15	0.2667	0.5334	1144.9	0.3
363.15	0.2992	0.5984	1150.4	0.3
363.15	0.33333	0.66667	1155.4	0.4

System: urea + choline chloride; phases: Liquid
Fixed: Mole fraction of choline chloride = 0.33333
Fixed: Pressure, kPa = 101
Property: Mass density, kg/m3 (Liquid); method: Vibrating tube method
Temperature, K	Mass density, kg/m3	uncertainty
293.15	1200.1	0.4
303.15	1194.5	0.4
313.15	1188.7	0.4
323.15	1183.1	0.4
333.15	1177.3	0.4
343.15	1170.8	0.4
353.15	1163.5	0.4
363.15	1155.4	0.4
