Measured thermophysical data. Green Leaf Volatiles on Atmospheric Air/Water Interfaces: A Combined Experimental and Molecular Simulation Study
Source: J. Chem. Eng. Data, 2014, 10.1021/je500114m
Compound 1: 2-methyl-3-buten-2-ol, C5H10O, InChI=1S/C5H10O/c1-4-5(2,3)6/h4,6H,1H2,2-3H3, purity 98%
Compound 2: methyl 2-hydroxybenzoate, C8H8O3, InChI=1S/C8H8O3/c1-11-8(10)6-4-2-3-5-7(6)9/h2-5,9H,1H3, purity 99%
Compound 3: (Z)-3-hexen-1-ol, C6H12O, InChI=1S/C6H12O/c1-2-3-4-5-6-7/h3-4,7H,2,5-6H2,1H3/b4-3-, purity 98%
Compound 4: (Z)-3-hexenyl acetate, C8H14O2, InChI=1S/C8H14O2/c1-3-4-5-6-7-10-8(2)9/h4-5H,3,6-7H2,1-2H3/b5-4-
Compound 5: water, H2O, InChI=1S/H2O/h1H2, purity 99.8%

System: 2-methyl-3-buten-2-ol + water; phases: Liquid, Air at 1 atmosphere
Fixed: Temperature, K = 298.15
Property: Surface tension liquid-gas, N/m (Liquid); method: Ring tensiometer
Molality, mol/kg of 2-methyl-3-buten-2-ol	Surface tension liquid-gas, N/m	uncertainty
0	0.0708	0.001
0.001	0.0706	0.0009
0.003	0.0697	0.0009
0.0052	0.0695	0.0009
0.0088	0.0677	0.0009

System: methyl 2-hydroxybenzoate + water; phases: Liquid, Air at 1 atmosphere
Fixed: Temperature, K = 298.15
Property: Surface tension liquid-gas, N/m (Liquid); method: Ring tensiometer
Molality, mol/kg of methyl 2-hydroxybenzoate	Surface tension liquid-gas, N/m	uncertainty
0	0.071	0.0009
0.001	0.0708	0.0009
0.0021	0.0701	0.0009
0.0031	0.0689	0.0009
0.0053	0.0652	0.0011

System: (Z)-3-hexen-1-ol + water; phases: Liquid, Air at 1 atmosphere
Fixed: Temperature, K = 298.15
Property: Surface tension liquid-gas, N/m (Liquid); method: Ring tensiometer
Molality, mol/kg of (Z)-3-hexen-1-ol	Surface tension liquid-gas, N/m	uncertainty
0	0.0715	0.0009
0.001	0.0695	0.0009
0.003	0.0652	0.0014
0.005	0.0635	0.0008
0.006	0.0615	0.0008

System: (Z)-3-hexenyl acetate + water; phases: Liquid, Air at 1 atmosphere
Fixed: Temperature, K = 298.15
Property: Surface tension liquid-gas, N/m (Liquid); method: Ring tensiometer
Molality, mol/kg of (Z)-3-hexenyl acetate	Surface tension liquid-gas, N/m	uncertainty
0	0.0702	0.001
0.0006	0.0668	0.0009
0.0015	0.0623	0.0008
0.0019	0.0587	0.0011
