Measured thermophysical data. Phase Equilibrium and Phase Diagram for the System of Benzene Dicarboxylic Acid + N-Methyl-2-pyrrolidone
Source: J. Chem. Eng. Data, 2014, 10.1021/je500542j
Compound 1: 1,2-benzenedicarboxylic acid, C8H6O4, InChI=1S/C8H6O4/c9-7(10)5-3-1-2-4-6(5)8(11)12/h1-4H,(H,9,10)(H,11,12), purity 99.6%
Compound 2: 1,4-benzenedicarboxylic acid, C8H6O4, InChI=1S/C8H6O4/c9-7(10)5-1-2-6(4-3-5)8(11)12/h1-4H,(H,9,10)(H,11,12), purity 99.4%
Compound 3: 1,3-benzenedicarboxylic acid, C8H6O4, InChI=1S/C8H6O4/c9-7(10)5-2-1-3-6(4-5)8(11)12/h1-4H,(H,9,10)(H,11,12), purity 99.3%
Compound 4: N-methylpyrrolidone, C5H9NO, InChI=1S/C5H9NO/c1-6-4-2-3-5(6)7/h2-4H2,1H3, purity 99.7%

System: 1,4-benzenedicarboxylic acid + 1,3-benzenedicarboxylic acid + N-methylpyrrolidone; phases: Liquid, Crystal of intercomponent compound 1
Fixed: Pressure, kPa = 101
Property: Mass fraction of 1,4-benzenedicarboxylic acid (Liquid); method: Chromatography
Temperature, K	Mass fraction of 1,3-benzenedicarboxylic acid	Mass fraction of 1,4-benzenedicarboxylic acid	uncertainty
303.15	0	0.05896	0.00272
303.15	0.01012	0.05543	0.00256
303.15	0.02904	0.04549	0.00213
303.15	0.06481	0.04092	0.00191
303.15	0.09745	0.03968	0.00183
303.15	0.1204	0.04091	0.00191
313.15	0	0.08754	0.00403
313.15	0.03038	0.08334	0.00385
313.15	0.06021	0.07879	0.00368
313.15	0.08452	0.07181	0.00342
313.15	0.1181	0.06583	0.00326
313.15	0.1364	0.06014	0.00339

System: 1,4-benzenedicarboxylic acid + 1,3-benzenedicarboxylic acid + N-methylpyrrolidone; phases: Liquid, Crystal of intercomponent compound 2
Fixed: Pressure, kPa = 101
Property: Mass fraction of 1,4-benzenedicarboxylic acid (Liquid); method: Chromatography
Temperature, K	Mass fraction of 1,3-benzenedicarboxylic acid	Mass fraction of 1,4-benzenedicarboxylic acid	uncertainty
303.15	0.1475	0.03164	0.00564
303.15	0.1582	0.02305	0.00894
303.15	0.1604	0.01339	0.01317
303.15	0.1624	0	
313.15	0.1702	0.04647	0.00516
313.15	0.1826	0.03903	0.00979
313.15	0.1942	0.01882	0.01882
313.15	0.1957	0	

System: 1,4-benzenedicarboxylic acid + 1,3-benzenedicarboxylic acid + N-methylpyrrolidone; phases: Liquid, Crystal of intercomponent compound 1, Crystal of intercomponent compound 2
Fixed: Pressure, kPa = 101
Property: Mass fraction of 1,4-benzenedicarboxylic acid (Liquid); method: Chromatography
Temperature, K	Mass fraction of 1,4-benzenedicarboxylic acid	uncertainty
303.15	0.03952	0.00182
313.15	0.05808	0.00268

System: 1,4-benzenedicarboxylic acid + 1,3-benzenedicarboxylic acid + N-methylpyrrolidone; phases: Liquid, Crystal of intercomponent compound 1, Crystal of intercomponent compound 2
Fixed: Pressure, kPa = 101
Property: Mass fraction of 1,3-benzenedicarboxylic acid (Liquid); method: Chromatography
Temperature, K	Mass fraction of 1,3-benzenedicarboxylic acid	uncertainty
303.15	0.1358	0.0063
313.15	0.1573	0.0072

System: 1,4-benzenedicarboxylic acid + 1,3-benzenedicarboxylic acid + N-methylpyrrolidone; phases: Liquid
Fixed: Pressure, kPa = 101
Property: Mass density, kg/m3 (Liquid); method: Vibrating tube method
Temperature, K	Mass fraction of 1,3-benzenedicarboxylic acid	Mass fraction of 1,4-benzenedicarboxylic acid	Mass density, kg/m3	uncertainty
303.15	0	0.05896	1029.5	1
303.15	0.01012	0.05543	1031	1
303.15	0.02904	0.04549	1034.9	1
303.15	0.06481	0.04092	1041.5	1
303.15	0.09745	0.03968	1047.1	1
303.15	0.1204	0.04091	1055.7	1
303.15	0.1358	0.03952	1060.8	1
303.15	0.1475	0.03164	1055.3	1
303.15	0.1582	0.02305	1050.7	1
303.15	0.1604	0.01339	1046.9	1
303.15	0.1624	0	1036.1	1
313.15	0	0.08754	1031.5	1
313.15	0.03038	0.08334	1037.1	1
313.15	0.06021	0.07879	1043.8	1
313.15	0.08452	0.07181	1048.9	1
313.15	0.1181	0.06583	1056.9	1
313.15	0.1364	0.06014	1062.9	1.1
313.15	0.1573	0.05808	1074.1	1.1
313.15	0.1702	0.04647	1063.1	1.1
313.15	0.1826	0.03903	1058.5	1.1
313.15	0.1942	0.01882	1047.9	7.6
313.15	0.1957	0	1038.5	7.6

System: 1,2-benzenedicarboxylic acid + 1,4-benzenedicarboxylic acid + N-methylpyrrolidone; phases: Liquid, Crystal of intercomponent compound 1
Fixed: Pressure, kPa = 101
Property: Mass fraction of 1,4-benzenedicarboxylic acid (Liquid); method: Chromatography
Temperature, K	Mass fraction of 1,2-benzenedicarboxylic acid	Mass fraction of 1,4-benzenedicarboxylic acid	uncertainty
303.15	0	0.05896	0.00236
303.15	0.02438	0.05397	0.00217
303.15	0.05834	0.04902	0.002
303.15	0.07951	0.04573	0.00196
303.15	0.1003	0.04009	0.00194
313.15	0	0.08754	0.00351
313.15	0.01138	0.08421	0.00338
313.15	0.03403	0.08028	0.00322
313.15	0.04492	0.07982	0.00323
313.15	0.06929	0.07224	0.00299
313.15	0.09261	0.06673	0.00286
313.15	0.1189	0.05857	0.00278

System: 1,2-benzenedicarboxylic acid + 1,4-benzenedicarboxylic acid + N-methylpyrrolidone; phases: Liquid, Crystal
Fixed: Pressure, kPa = 101
Property: Mass fraction of 1,4-benzenedicarboxylic acid (Liquid); method: Chromatography
Temperature, K	Mass fraction of 1,2-benzenedicarboxylic acid	Mass fraction of 1,4-benzenedicarboxylic acid	uncertainty
303.15	0.1293	0.03223	0.00293
303.15	0.1428	0.02536	0.00385
303.15	0.1493	0.01872	0.01015
303.15	0.158	0	
313.15	0.1536	0.04573	0.01721
313.15	0.1582	0.03292	0.01097
313.15	0.1676	0.02064	0.00763
313.15	0.187	0	

System: 1,2-benzenedicarboxylic acid + 1,4-benzenedicarboxylic acid + N-methylpyrrolidone; phases: Liquid, Crystal of intercomponent compound 1, Crystal
Fixed: Pressure, kPa = 101
Property: Mass fraction of 1,2-benzenedicarboxylic acid (Liquid); method: Chromatography
Temperature, K	Mass fraction of 1,2-benzenedicarboxylic acid	uncertainty
303.15	0.1204	0.0048
313.15	0.1423	0.0057

System: 1,2-benzenedicarboxylic acid + 1,4-benzenedicarboxylic acid + N-methylpyrrolidone; phases: Liquid, Crystal of intercomponent compound 1, Crystal
Fixed: Pressure, kPa = 101
Property: Mass fraction of 1,4-benzenedicarboxylic acid (Liquid); method: Chromatography
Temperature, K	Mass fraction of 1,4-benzenedicarboxylic acid	uncertainty
303.15	0.03681	0.00148
313.15	0.05478	0.0022

System: 1,2-benzenedicarboxylic acid + 1,4-benzenedicarboxylic acid + N-methylpyrrolidone; phases: Liquid
Fixed: Pressure, kPa = 101
Property: Mass density, kg/m3 (Liquid); method: Vibrating tube method
Temperature, K	Mass fraction of 1,2-benzenedicarboxylic acid	Mass fraction of 1,4-benzenedicarboxylic acid	Mass density, kg/m3	uncertainty
303.15	0	0.05896	1029.5	1
303.15	0.02438	0.05397	1031.7	1
303.15	0.05834	0.04902	1043.3	1.7
303.15	0.07951	0.04573	1057.1	1
303.15	0.1003	0.04009	1063.5	1
303.15	0.1204	0.03681	1072.2	1
303.15	0.1293	0.03223	1064.6	1
303.15	0.1428	0.02536	1046.9	1
303.15	0.1493	0.01872	1040.7	1
303.15	0.158	0	1037.8	1
313.15	0	0.08754	1038.5	1
313.15	0.01138	0.08421	1039.2	1
313.15	0.03403	0.08028	1040.8	1
313.15	0.04492	0.07982	1042.8	1
313.15	0.06929	0.07224	1056.9	1
313.15	0.09261	0.06673	1063.8	1
313.15	0.1189	0.05857	1074.6	1.1
313.15	0.1423	0.05478	1087.2	1.2
313.15	0.1536	0.04573	1060	1
313.15	0.1582	0.03292	1054.2	1
313.15	0.1676	0.02064	1048.8	1
313.15	0.187	0	1042.8	1.1

System: 1,2-benzenedicarboxylic acid + 1,3-benzenedicarboxylic acid + N-methylpyrrolidone; phases: Liquid, Crystal of intercomponent compound 1
Fixed: Pressure, kPa = 101
Property: Mass fraction of 1,3-benzenedicarboxylic acid (Liquid); method: Chromatography
Temperature, K	Mass fraction of 1,2-benzenedicarboxylic acid	Mass fraction of 1,3-benzenedicarboxylic acid	uncertainty
303.15	0	0.1624	0.0072
303.15	0.01963	0.1611	0.0071
303.15	0.05801	0.144	0.0065
303.15	0.08705	0.1281	0.0058
313.15	0	0.1957	0.0086
313.15	0.03084	0.1892	0.0083
313.15	0.05381	0.1817	0.0081
313.15	0.07305	0.1682	0.0076
313.15	0.107	0.1523	0.0071

System: 1,2-benzenedicarboxylic acid + 1,3-benzenedicarboxylic acid + N-methylpyrrolidone; phases: Liquid, Crystal
Fixed: Pressure, kPa = 101
Property: Mass fraction of 1,3-benzenedicarboxylic acid (Liquid); method: Chromatography
Temperature, K	Mass fraction of 1,2-benzenedicarboxylic acid	Mass fraction of 1,3-benzenedicarboxylic acid	uncertainty
303.15	0.1071	0.1049	0.0179
303.15	0.1151	0.07552	0.02084
303.15	0.1191	0.05538	0.01493
303.15	0.132	0.03417	0.01171
303.15	0.1367	0.01853	0.01853
303.15	0.158	0	
313.15	0.1368	0.11	0.0214
313.15	0.144	0.08503	0.02342
313.15	0.1501	0.06141	0.01283
313.15	0.1733	0.02548	0.01265
313.15	0.187	0	

System: 1,2-benzenedicarboxylic acid + 1,3-benzenedicarboxylic acid + N-methylpyrrolidone; phases: Liquid, Crystal of intercomponent compound 1, Crystal
Fixed: Pressure, kPa = 101
Property: Mass fraction of 1,2-benzenedicarboxylic acid (Liquid); method: Chromatography
Temperature, K	Mass fraction of 1,2-benzenedicarboxylic acid	uncertainty
303.15	0.1032	0.0045
313.15	0.1291	0.0057

System: 1,2-benzenedicarboxylic acid + 1,3-benzenedicarboxylic acid + N-methylpyrrolidone; phases: Liquid, Crystal of intercomponent compound 1, Crystal
Fixed: Pressure, kPa = 101
Property: Mass fraction of 1,3-benzenedicarboxylic acid (Liquid); method: Chromatography
Temperature, K	Mass fraction of 1,3-benzenedicarboxylic acid	uncertainty
303.15	0.1222	0.0054
313.15	0.1485	0.0065

System: 1,2-benzenedicarboxylic acid + 1,3-benzenedicarboxylic acid + N-methylpyrrolidone; phases: Liquid
Fixed: Pressure, kPa = 101
Property: Mass density, kg/m3 (Liquid); method: Vibrating tube method
Temperature, K	Mass fraction of 1,2-benzenedicarboxylic acid	Mass fraction of 1,3-benzenedicarboxylic acid	Mass density, kg/m3	uncertainty
303.15	0	0.1624	1036.1	1
303.15	0.01963	0.1611	1040.1	1
303.15	0.05801	0.144	1051	1
303.15	0.08705	0.1281	1058	1
303.15	0.1032	0.1222	1069.4	1
303.15	0.1071	0.1049	1058.4	1
303.15	0.1151	0.07552	1051.7	1
303.15	0.1191	0.05538	1048.2	1
303.15	0.132	0.03417	1042.7	1
303.15	0.1367	0.01853	1040.2	1
303.15	0.158	0	1038	1
313.15	0	0.1957	1038.5	1
313.15	0.03084	0.1892	1046.7	1
313.15	0.05381	0.1817	1054.2	1
313.15	0.07305	0.1682	1059.6	1
313.15	0.107	0.1523	1077.5	1
313.15	0.1291	0.1485	1087.6	1
313.15	0.1368	0.11	1074.3	1
313.15	0.144	0.08503	1065.9	1
313.15	0.1501	0.06141	1055.3	2
313.15	0.1733	0.02548	1048.8	1.1
313.15	0.187	0	1042.8	1.1

System: 1,4-benzenedicarboxylic acid + N-methylpyrrolidone; phases: Liquid, Crystal of intercomponent compound 1
Fixed: Pressure, kPa = 101
Property: Mass fraction of 1,4-benzenedicarboxylic acid (Liquid); method: Chromatography
Temperature, K	Mass fraction of 1,4-benzenedicarboxylic acid	uncertainty
303.15	0.05896	0.00272
313.15	0.08754	0.00403

System: 1,4-benzenedicarboxylic acid + N-methylpyrrolidone; phases: Liquid
Fixed: Pressure, kPa = 101
Property: Mass density, kg/m3 (Liquid); method: Vibrating tube method
Temperature, K	Mass fraction of 1,4-benzenedicarboxylic acid	Mass density, kg/m3	uncertainty
303.15	0.05896	1029.5	1
313.15	0.08754	1031.5	1
313.15	0.08754	1038.5	1

System: 1,3-benzenedicarboxylic acid + N-methylpyrrolidone; phases: Liquid
Fixed: Pressure, kPa = 101
Property: Mass density, kg/m3 (Liquid); method: Vibrating tube method
Temperature, K	Mass fraction of 1,3-benzenedicarboxylic acid	Mass density, kg/m3	uncertainty
303.15	0.1624	1036.1	1
313.15	0.1957	1038.5	7.6

System: 1,3-benzenedicarboxylic acid + N-methylpyrrolidone; phases: Liquid, Crystal of intercomponent compound 1
Fixed: Pressure, kPa = 101
Property: Mass fraction of 1,3-benzenedicarboxylic acid (Liquid); method: Chromatography
Temperature, K	Mass fraction of 1,3-benzenedicarboxylic acid	uncertainty
303.15	0.1624	0.0072
313.15	0.1957	0.0086

System: 1,2-benzenedicarboxylic acid + N-methylpyrrolidone; phases: Liquid, Crystal
Fixed: Pressure, kPa = 101
Property: Solid-liquid equilibrium temperature, K (Liquid); method: DTA
Mass fraction of 1,2-benzenedicarboxylic acid	Solid-liquid equilibrium temperature, K	uncertainty
0.158	303.15	2.21
0.187	313.15	2.61

System: 1,2-benzenedicarboxylic acid + N-methylpyrrolidone; phases: Liquid
Fixed: Pressure, kPa = 101
Property: Mass density, kg/m3 (Liquid); method: Vibrating tube method
Temperature, K	Mass fraction of 1,2-benzenedicarboxylic acid	Mass density, kg/m3	uncertainty
303.15	0.158	1037.8	1
313.15	0.187	1042.8	1.1
303.15	0.158	1038	1
