Measured thermophysical data. Solubility, Metastable Zone Width and Nucleation Kinetics of Sodium Dichromate Dihydrate
Source: J. Chem. Eng. Data, 2015, 10.1021/je5009069
Compound 1: water, H2O, InChI=1S/H2O/h1H2, purity 99.9%
Compound 2: sodium dichromate, Cr2Na2O7, InChI=1S/2Cr.2Na.7O/q;;2*+1;;;;;;2*-1, purity 99.5%

System: water + sodium dichromate; phases: Liquid, Crystal of intercomponent compound 1
Fixed: Pressure, kPa = 101
Property: Solid-liquid equilibrium temperature, K (Liquid); method: VISOBS
Mass fraction of sodium dichromate	Solid-liquid equilibrium temperature, K	uncertainty
0.7285	290.45	4.59
0.7341	294.85	4.1
0.7533	304.68	4
0.7636	309.51	3.62
0.7866	319.76	3.57
