Measured thermophysical data. Transport and Electrochemical Properties of Three Quaternary Ammonium Ionic Liquids and Lithium Salts Doping Effects Studied by NMR Spectroscopy
Source: J. Chem. Eng. Data, 2014, 10.1021/je500065k
Compound 1: N,N-diethyl-2-methoxy-N-methylethan-1-aminium bis((trifluoromethyl)sulfonyl)amide, C10H20F6N2O5S2, InChI=1S/C8H20NO.C2F6NO4S2/c1-5-9(3,6-2)7-8-10-4;3-1(4,5)14(10,11)9-15(12,13)2(6,7)8/h5-8H2,1-4H3;/q+1;-1, purity 98%
Compound 2: N,N-diethyl-2-methoxy-N-methylethan-1-aminium trifluoro(trifluoromethyl)borate, C9H20BF6NO, InChI=1S/C8H20NO.CBF6/c1-5-9(3,6-2)7-8-10-4;3-1(4,5)2(6,7)8/h5-8H2,1-4H3;/q+1;-1, purity 98%
Compound 3: N,N-diethyl-2-methoxy-N-methylethan-1-aminium tetrafluoroborate, C8H20BF4NO, InChI=1S/C8H20NO.BF4/c1-5-9(3,6-2)7-8-10-4;2-1(3,4)5/h5-8H2,1-4H3;/q+1;-1, purity 98%

System: N,N-diethyl-2-methoxy-N-methylethan-1-aminium bis((trifluoromethyl)sulfonyl)amide; phases: Liquid
Fixed: Pressure, kPa = 101.325
Property: Electrical conductivity, S/m (Liquid); method: the complex impedance method
Temperature, K	Electrical conductivity, S/m	uncertainty
353.15	1.33	0.01
343.15	1.09	0.01
333.15	0.869	0.009
323.15	0.67	0.007
313.15	0.488	0.005
303.15	0.336	0.003
293.15	0.216	0.002
283.15	0.127	0.001
273.15	0.0662	0.0007
263.15	0.0301	0.0003
253.15	0.0113	0.0001
243.15	0.0033	0.0001
234.15	0.00083	1e-05

System: N,N-diethyl-2-methoxy-N-methylethan-1-aminium bis((trifluoromethyl)sulfonyl)amide; phases: Liquid
Fixed: Pressure, kPa = 101.325
Property: Mass density, kg/m3 (Liquid); method: Vibrating tube method
Temperature, K	Mass density, kg/m3	uncertainty
353.15	1357.3	1.8
348.15	1361.7	1.8
343.15	1366.1	1.8
338.15	1370.5	1.8
333.15	1375	1.9
328.15	1379.5	1.9
323.15	1384	1.9
318.15	1388.6	1.9
313.15	1393.2	1.9
308.15	1397.7	1.9
303.15	1402.3	1.9
298.15	1406.9	1.9
293.15	1411.5	1.9
288.15	1416.1	1.9
283.15	1420.6	1.9

System: N,N-diethyl-2-methoxy-N-methylethan-1-aminium bis((trifluoromethyl)sulfonyl)amide; phases: Liquid
Fixed: Pressure, kPa = 101.325
Property: Viscosity, Pa*s (Liquid); method: CONCYL:UFactor:4
Temperature, K	Viscosity, Pa*s	uncertainty
353.15	0.0114	0.0002
348.15	0.0128	0.0002
343.15	0.0145	0.0003
338.15	0.0166	0.0003
333.15	0.0191	0.0003
328.15	0.0222	0.0004
323.15	0.0261	0.0004
318.15	0.031	0.0005
313.15	0.0374	0.0006
308.15	0.0457	0.0008
303.15	0.0568	0.0008
298.15	0.0718	0.0016
293.15	0.0927	0.0033
288.15	0.123	0.006
283.15	0.166	0.011

System: N,N-diethyl-2-methoxy-N-methylethan-1-aminium trifluoro(trifluoromethyl)borate; phases: Liquid
Fixed: Pressure, kPa = 101.325
Property: Electrical conductivity, S/m (Liquid); method: the complex impedance method
Temperature, K	Electrical conductivity, S/m	uncertainty
353.15	1.42	0.02
343.15	1.16	0.01
333.15	0.937	0.009
323.15	0.72	0.007
313.15	0.53	0.005
303.15	0.373	0.004
293.15	0.249	0.003
283.15	0.156	0.002
273.15	0.0897	0.0009
263.15	0.0474	0.0005
253.15	0.022	0.0002

System: N,N-diethyl-2-methoxy-N-methylethan-1-aminium trifluoro(trifluoromethyl)borate; phases: Liquid
Fixed: Pressure, kPa = 101.325
Property: Mass density, kg/m3 (Liquid); method: Vibrating tube method
Temperature, K	Mass density, kg/m3	uncertainty
353.15	1192.9	1.5
348.15	1196.6	1.5
343.15	1200.3	1.5
338.15	1204	1.5
333.15	1207.7	1.5
328.15	1211.5	1.6
323.15	1215.2	1.6
318.15	1218.9	1.6
313.15	1222.7	1.6
308.15	1226.4	1.6
303.15	1230.2	1.6
298.15	1234	1.6
293.15	1237.7	1.6
288.15	1241.5	1.6
283.15	1245.3	1.6

System: N,N-diethyl-2-methoxy-N-methylethan-1-aminium trifluoro(trifluoromethyl)borate; phases: Liquid
Fixed: Pressure, kPa = 101.325
Property: Viscosity, Pa*s (Liquid); method: CONCYL:UFactor:4
Temperature, K	Viscosity, Pa*s	uncertainty
353.15	0.0167	0.0003
348.15	0.019	0.0003
343.15	0.0217	0.0004
338.15	0.0249	0.0004
333.15	0.0288	0.0005
328.15	0.0336	0.0006
323.15	0.0395	0.0007
318.15	0.047	0.0008
313.15	0.0564	0.0007
308.15	0.0685	0.0014
303.15	0.0841	0.0025
298.15	0.105	0.004
293.15	0.133	0.007
288.15	0.17	0.011
283.15	0.223	0.018

System: N,N-diethyl-2-methoxy-N-methylethan-1-aminium tetrafluoroborate; phases: Liquid
Fixed: Pressure, kPa = 101.325
Property: Electrical conductivity, S/m (Liquid); method: the complex impedance method
Temperature, K	Electrical conductivity, S/m	uncertainty
353.15	1.16	0.01
343.15	0.857	0.009
333.15	0.612	0.006
323.15	0.414	0.004
313.15	0.262	0.003
303.15	0.153	0.002
293.15	0.0821	0.0008
283.15	0.0381	0.0004
273.15	0.0156	0.0002
263.15	0.0055	0.0001

System: N,N-diethyl-2-methoxy-N-methylethan-1-aminium tetrafluoroborate; phases: Liquid
Fixed: Pressure, kPa = 101.325
Property: Mass density, kg/m3 (Liquid); method: Vibrating tube method
Temperature, K	Mass density, kg/m3	uncertainty
353.15	1141.8	1.4
348.15	1145	1.4
343.15	1148.2	1.5
338.15	1151.4	1.5
333.15	1154.7	1.5
328.15	1157.9	1.5
323.15	1161.1	1.5
318.15	1164.4	1.5
313.15	1167.7	1.5
308.15	1171	1.5
303.15	1174.4	1.5
298.15	1177.8	1.5
293.15	1181.3	1.5
288.15	1184.8	1.5
283.15	1188.2	1.5

System: N,N-diethyl-2-methoxy-N-methylethan-1-aminium tetrafluoroborate; phases: Liquid
Fixed: Pressure, kPa = 101.325
Property: Viscosity, Pa*s (Liquid); method: CONCYL:UFactor:4
Temperature, K	Viscosity, Pa*s	uncertainty
353.15	0.0305	0.0005
348.15	0.036	0.0006
343.15	0.043	0.0007
338.15	0.052	0.0006
333.15	0.0637	0.0011
328.15	0.0791	0.0021
323.15	0.0997	0.0039
318.15	0.128	0.007
313.15	0.167	0.011
308.15	0.222	0.018
303.15	0.303	0.03
298.15	0.422	0.049
293.15	0.604	0.081
288.15	0.89	0.138
283.15	1.35	0.24
