Measured thermophysical data. Effect of Electrolyte and Temperature on Micellization Behavior of N-Ethyl-N,N-dimethyl-1-hexadecanaminium Bromide
Source: J. Chem. Eng. Data, 2014, 10.1021/je500173y
Compound 1: ethylhexadecyldimethylammonium bromide, C20H44BrN, InChI=1S/C20H44N.BrH/c1-5-7-8-9-10-11-12-13-14-15-16-17-18-19-20-21(3,4)6-2;/h5-20H2,1-4H3;1H/q+1;/p-1, purity 99%
Compound 2: water, H2O, InChI=1S/H2O/h1H2
Compound 3: sodium bromide, BrNa, InChI=1S/BrH.Na/h1H;/q;+1/p-1, purity 99%

System: ethylhexadecyldimethylammonium bromide + sodium bromide + water; phases: Liquid
Fixed: Pressure, kPa = 101
Property: Mass density, kg/m3 (Liquid); method: Pycnometric method
Solvent: Molality, mol/kg of sodium bromide	Molality, mol/kg of ethylhexadecyldimethylammonium bromide	Temperature, K	Mass density, kg/m3	uncertainty
0.001	0.0002	298.15	996.51	0.92
0.001	0.0005	298.15	996.58	0.92
0.001	0.0008	298.15	996.62	0.92
0.001	0.001	298.15	996.64	0.92
0.001	0.0012	298.15	996.65	0.92
0.001	0.0016	298.15	996.67	0.92
0.001	0.002	298.15	996.68	0.92
0.001	0.0025	298.15	996.69	0.92
0.001	0.003	298.15	996.7	0.92
0.001	0.0002	303.15	994.6	0.92
0.001	0.0005	303.15	994.63	0.92
0.001	0.0008	303.15	994.66	0.92
0.001	0.001	303.15	994.68	0.92
0.001	0.0012	303.15	994.69	0.92
0.001	0.0016	303.15	994.71	0.92
0.001	0.002	303.15	994.72	0.92
0.001	0.0025	303.15	994.73	0.92
0.001	0.003	303.15	994.73	0.92
0.001	0.0002	308.15	992.66	0.93
0.001	0.0005	308.15	992.68	0.93
0.001	0.0008	308.15	992.7	0.93
0.001	0.001	308.15	992.71	0.93
0.001	0.0012	308.15	992.73	0.93
0.001	0.0016	308.15	992.74	0.93
0.001	0.002	308.15	992.75	0.93
0.001	0.0025	308.15	992.76	0.93
0.001	0.003	308.15	992.77	0.93
0.001	0.0002	313.15	990.71	0.93
0.001	0.0005	313.15	990.72	0.93
0.001	0.0008	313.15	990.74	0.93
0.001	0.001	313.15	990.75	0.93
0.001	0.0012	313.15	990.76	0.93
0.001	0.0016	313.15	990.77	0.93
0.001	0.002	313.15	990.78	0.93
0.001	0.0025	313.15	990.79	0.93
0.001	0.003	313.15	990.79	0.93
0.001	0.0002	318.15	988.77	0.93
0.001	0.0005	318.15	988.78	0.93
0.001	0.0008	318.15	988.79	0.93
0.001	0.001	318.15	988.81	0.93
0.001	0.0012	318.15	988.82	0.93
0.001	0.0016	318.15	988.83	0.93
0.001	0.002	318.15	988.83	0.93
0.001	0.0025	318.15	988.82	0.93
0.001	0.003	318.15	988.82	0.93
0.001	0.0002	323.15	986.8	0.93
0.001	0.0005	323.15	986.81	0.93
0.001	0.0008	323.15	986.82	0.93
0.001	0.001	323.15	986.83	0.93
0.001	0.0012	323.15	986.85	0.93
0.001	0.0016	323.15	986.86	0.93
0.001	0.002	323.15	986.87	0.93
0.001	0.0025	323.15	986.85	0.93
0.001	0.003	323.15	986.84	0.93
0.005	0.0002	298.15	997.03	0.92
0.005	0.0005	298.15	997.06	0.92
0.005	0.0008	298.15	997.08	0.92
0.005	0.001	298.15	997.09	0.92
0.005	0.0012	298.15	997.1	0.92
0.005	0.0016	298.15	997.12	0.92
0.005	0.002	298.15	997.14	0.92
0.005	0.0025	298.15	997.15	0.92
0.005	0.003	298.15	997.17	0.92
0.005	0.0002	303.15	995.04	0.92
0.005	0.0005	303.15	995.07	0.92
0.005	0.0008	303.15	995.08	0.92
0.005	0.001	303.15	995.1	0.92
0.005	0.0012	303.15	995.11	0.92
0.005	0.0016	303.15	995.12	0.92
0.005	0.002	303.15	995.13	0.92
0.005	0.0025	303.15	995.14	0.92
0.005	0.003	303.15	995.15	0.92
0.005	0.0002	308.15	993.1	0.93
0.005	0.0005	308.15	993.13	0.93
0.005	0.0008	308.15	993.14	0.93
0.005	0.001	308.15	993.15	0.93
0.005	0.0012	308.15	993.15	0.93
0.005	0.0016	308.15	993.16	0.93
0.005	0.002	308.15	993.17	0.93
0.005	0.0025	308.15	993.18	0.93
0.005	0.003	308.15	993.18	0.93
0.005	0.0002	313.15	991.11	0.93
0.005	0.0005	313.15	991.13	0.93
0.005	0.0008	313.15	991.14	0.93
0.005	0.001	313.15	991.15	0.93
0.005	0.0012	313.15	991.15	0.93
0.005	0.0016	313.15	991.16	0.93
0.005	0.002	313.15	991.16	0.93
0.005	0.0025	313.15	991.17	0.93
0.005	0.003	313.15	991.18	0.93
0.005	0.0002	318.15	989.17	0.93
0.005	0.0005	318.15	989.19	0.93
0.005	0.0008	318.15	989.2	0.93
0.005	0.001	318.15	989.21	0.93
0.005	0.0012	318.15	989.22	0.93
0.005	0.0016	318.15	989.22	0.93
0.005	0.002	318.15	989.22	0.93
0.005	0.0025	318.15	989.21	0.93
0.005	0.003	318.15	989.21	0.93
0.005	0.0002	323.15	987.17	0.93
0.005	0.0005	323.15	987.17	0.93
0.005	0.0008	323.15	987.18	0.93
0.005	0.001	323.15	987.18	0.93
0.005	0.0012	323.15	987.19	0.93
0.005	0.0016	323.15	987.18	0.93
0.005	0.002	323.15	987.17	0.93
0.005	0.0025	323.15	987.17	0.93
0.005	0.003	323.15	987.17	0.93

System: ethylhexadecyldimethylammonium bromide + sodium bromide + water; phases: Liquid
Fixed: Pressure, kPa = 101
Property: Viscosity, Pa*s (Liquid); method: Capillary tube (Ostwald; Ubbelohde) method
Solvent: Molality, mol/kg of sodium bromide	Molality, mol/kg of ethylhexadecyldimethylammonium bromide	Temperature, K	Viscosity, Pa*s	uncertainty
0.001	0.0002	298.15	0.000877	3.57e-05
0.001	0.0005	298.15	0.0008811	3.57e-05
0.001	0.0008	298.15	0.0008842	3.57e-05
0.001	0.001	298.15	0.0008852	3.57e-05
0.001	0.0012	298.15	0.0008864	3.57e-05
0.001	0.0016	298.15	0.0008886	3.57e-05
0.001	0.002	298.15	0.0008906	3.57e-05
0.001	0.0025	298.15	0.0008931	3.57e-05
0.001	0.003	298.15	0.0008955	3.57e-05
0.001	0.0002	303.15	0.0007853	3.56e-05
0.001	0.0005	303.15	0.0007889	3.56e-05
0.001	0.0008	303.15	0.0007915	3.56e-05
0.001	0.001	303.15	0.0007935	3.56e-05
0.001	0.0012	303.15	0.0007943	3.56e-05
0.001	0.0016	303.15	0.0007962	3.56e-05
0.001	0.002	303.15	0.0007977	3.56e-05
0.001	0.0025	303.15	0.0008001	3.56e-05
0.001	0.003	303.15	0.0008026	3.56e-05
0.001	0.0002	308.15	0.0007052	3.55e-05
0.001	0.0005	308.15	0.000708	3.55e-05
0.001	0.0008	308.15	0.0007112	3.55e-05
0.001	0.001	308.15	0.0007124	3.55e-05
0.001	0.0012	308.15	0.0007133	3.55e-05
0.001	0.0016	308.15	0.0007149	3.55e-05
0.001	0.002	308.15	0.0007165	3.55e-05
0.001	0.0025	308.15	0.0007185	3.55e-05
0.001	0.003	308.15	0.0007204	3.55e-05
0.001	0.0002	313.15	0.0006384	3.54e-05
0.001	0.0005	313.15	0.0006406	3.54e-05
0.001	0.0008	313.15	0.0006443	3.54e-05
0.001	0.001	313.15	0.0006456	3.54e-05
0.001	0.0012	313.15	0.0006465	3.54e-05
0.001	0.0016	313.15	0.000648	3.54e-05
0.001	0.002	313.15	0.0006493	3.54e-05
0.001	0.0025	313.15	0.0006514	3.54e-05
0.001	0.003	313.15	0.0006528	3.54e-05
0.001	0.0002	318.15	0.0005793	3.53e-05
0.001	0.0005	318.15	0.0005805	3.53e-05
0.001	0.0008	318.15	0.0005843	3.53e-05
0.001	0.001	318.15	0.0005858	3.53e-05
0.001	0.0012	318.15	0.0005874	3.53e-05
0.001	0.0016	318.15	0.0005887	3.53e-05
0.001	0.002	318.15	0.0005897	3.53e-05
0.001	0.0025	318.15	0.0005916	3.53e-05
0.001	0.003	318.15	0.0005931	3.53e-05
0.001	0.0002	323.15	0.0005246	3.53e-05
0.001	0.0005	323.15	0.000527	3.53e-05
0.001	0.0008	323.15	0.0005306	3.53e-05
0.001	0.001	323.15	0.0005318	3.53e-05
0.001	0.0012	323.15	0.0005328	3.53e-05
0.001	0.0016	323.15	0.0005345	3.53e-05
0.001	0.002	323.15	0.0005356	3.53e-05
0.001	0.0025	323.15	0.000537	3.53e-05
0.001	0.003	323.15	0.0005385	3.53e-05
0.005	0.0002	298.15	0.000873	3.57e-05
0.005	0.0005	298.15	0.0008776	3.57e-05
0.005	0.0008	298.15	0.000879	3.57e-05
0.005	0.001	298.15	0.00088	3.57e-05
0.005	0.0012	298.15	0.0008809	3.57e-05
0.005	0.0016	298.15	0.0008828	3.57e-05
0.005	0.002	298.15	0.0008847	3.57e-05
0.005	0.0025	298.15	0.000887	3.57e-05
0.005	0.003	298.15	0.0008893	3.57e-05
0.005	0.0002	303.15	0.000781	3.56e-05
0.005	0.0005	303.15	0.0007851	3.56e-05
0.005	0.0008	303.15	0.0007868	3.56e-05
0.005	0.001	303.15	0.0007877	3.56e-05
0.005	0.0012	303.15	0.0007885	3.56e-05
0.005	0.0016	303.15	0.0007902	3.56e-05
0.005	0.002	303.15	0.000792	3.56e-05
0.005	0.0025	303.15	0.0007938	3.56e-05
0.005	0.003	303.15	0.0007952	3.56e-05
0.005	0.0002	308.15	0.0007001	3.55e-05
0.005	0.0005	308.15	0.000704	3.55e-05
0.005	0.0008	308.15	0.000706	3.55e-05
0.005	0.001	308.15	0.0007075	3.55e-05
0.005	0.0012	308.15	0.0007079	3.55e-05
0.005	0.0016	308.15	0.0007095	3.55e-05
0.005	0.002	308.15	0.0007109	3.55e-05
0.005	0.0025	308.15	0.0007128	3.55e-05
0.005	0.003	308.15	0.0007144	3.55e-05
0.005	0.0002	313.15	0.0006354	3.54e-05
0.005	0.0005	313.15	0.0006417	3.54e-05
0.005	0.0008	313.15	0.000643	3.54e-05
0.005	0.001	313.15	0.0006427	3.54e-05
0.005	0.0012	313.15	0.0006437	3.54e-05
0.005	0.0016	313.15	0.0006446	3.54e-05
0.005	0.002	313.15	0.0006457	3.54e-05
0.005	0.0025	313.15	0.0006477	3.54e-05
0.005	0.003	313.15	0.0006492	3.54e-05
0.005	0.0002	318.15	0.0005762	3.53e-05
0.005	0.0005	318.15	0.0005795	3.53e-05
0.005	0.0008	318.15	0.000582	3.53e-05
0.005	0.001	318.15	0.0005833	3.53e-05
0.005	0.0012	318.15	0.0005837	3.53e-05
0.005	0.0016	318.15	0.0005843	3.53e-05
0.005	0.002	318.15	0.000586	3.53e-05
0.005	0.0025	318.15	0.0005873	3.53e-05
0.005	0.003	318.15	0.0005886	3.53e-05
0.005	0.0002	323.15	0.0005214	3.53e-05
0.005	0.0005	323.15	0.0005254	3.53e-05
0.005	0.0008	323.15	0.0005279	3.53e-05
0.005	0.001	323.15	0.0005291	3.53e-05
0.005	0.0012	323.15	0.0005299	3.53e-05
0.005	0.0016	323.15	0.0005313	3.53e-05
0.005	0.002	323.15	0.000532	3.53e-05
0.005	0.0025	323.15	0.0005329	3.53e-05
0.005	0.003	323.15	0.0005348	3.53e-05

System: ethylhexadecyldimethylammonium bromide + sodium bromide + water; phases: Liquid
Fixed: Pressure, kPa = 101
Fixed: Frequency, MHz = 4
Property: Speed of sound, m/s (Liquid); method: Pulse-echo method
Solvent: Molality, mol/kg of sodium bromide	Molality, mol/kg of ethylhexadecyldimethylammonium bromide	Temperature, K	Speed of sound, m/s	uncertainty
0.001	0.0002	298.15	1496.78	1.56
0.001	0.0005	298.15	1497.26	1.56
0.001	0.0008	298.15	1498.24	1.56
0.001	0.0012	298.15	1498.05	1.56
0.001	0.0016	298.15	1497.7	1.56
0.001	0.002	298.15	1497.52	1.56
0.001	0.0025	298.15	1497.35	1.56
0.001	0.003	298.15	1497.01	1.56
0.001	0.0002	303.15	1509.58	1.56
0.001	0.0005	303.15	1510.24	1.56
0.001	0.0008	303.15	1510.91	1.56
0.001	0.0012	303.15	1510.71	1.56
0.001	0.0016	303.15	1510.36	1.56
0.001	0.002	303.15	1509.83	1.56
0.001	0.0025	303.15	1509.65	1.56
0.001	0.003	303.15	1509.32	1.56
0.001	0.0002	308.15	1518.3	1.56
0.001	0.0005	308.15	1518.98	1.56
0.001	0.0008	308.15	1519.32	1.56
0.001	0.0012	308.15	1519.49	1.56
0.001	0.0016	308.15	1519.28	1.56
0.001	0.002	308.15	1519.1	1.56
0.001	0.0025	308.15	1518.75	1.56
0.001	0.003	308.15	1518.57	1.56
0.001	0.0002	313.15	1528.39	1.56
0.001	0.0005	313.15	1529.09	1.56
0.001	0.0008	313.15	1529.43	1.56
0.001	0.0012	313.15	1530.48	1.56
0.001	0.0016	313.15	1530.29	1.56
0.001	0.002	313.15	1529.93	1.56
0.001	0.0025	313.15	1529.74	1.56
0.001	0.003	313.15	1529.39	1.56
0.001	0.0002	318.15	1536.84	1.55
0.001	0.0005	318.15	1537.55	1.55
0.001	0.0008	318.15	1537.9	1.55
0.001	0.0012	318.15	1538.78	1.56
0.001	0.0016	318.15	1538.59	1.56
0.001	0.002	318.15	1538.23	1.56
0.001	0.0025	318.15	1538.06	1.55
0.001	0.003	318.15	1537.52	1.55
0.001	0.0002	323.15	1541.6	1.55
0.001	0.0005	323.15	1542.33	1.55
0.001	0.0008	323.15	1542.68	1.55
0.001	0.0012	323.15	1544.29	1.55
0.001	0.0016	323.15	1543.92	1.55
0.001	0.002	323.15	1543.55	1.55
0.001	0.0025	323.15	1543.21	1.55
0.001	0.003	323.15	1542.85	1.55
0.005	0.0002	298.15	1495.12	1.56
0.005	0.0005	298.15	1495.44	1.57
0.005	0.0008	298.15	1495.82	1.57
0.005	0.001	298.15	1495.71	1.56
0.005	0.0012	298.15	1495.62	1.56
0.005	0.0016	298.15	1495.44	1.56
0.005	0.002	298.15	1495.18	1.56
0.005	0.0025	298.15	1495.01	1.56
0.005	0.003	298.15	1494.82	1.56
0.005	0.0002	303.15	1508.23	1.56
0.005	0.0005	303.15	1508.72	1.56
0.005	0.0008	303.15	1509.06	1.56
0.005	0.001	303.15	1508.88	1.56
0.005	0.0012	303.15	1508.69	1.56
0.005	0.0016	303.15	1508.5	1.56
0.005	0.002	303.15	1508.16	1.56
0.005	0.0025	303.15	1507.64	1.56
0.005	0.003	303.15	1507.46	1.56
0.005	0.0002	308.15	1517.45	1.56
0.005	0.0005	308.15	1517.95	1.56
0.005	0.0008	308.15	1518.47	1.56
0.005	0.001	308.15	1518.4	1.56
0.005	0.0012	308.15	1518.27	1.56
0.005	0.0016	308.15	1517.93	1.56
0.005	0.002	308.15	1517.75	1.56
0.005	0.0025	308.15	1517.38	1.56
0.005	0.003	308.15	1517.04	1.56
0.005	0.0002	313.15	1527.91	1.56
0.005	0.0005	313.15	1528.25	1.56
0.005	0.0008	313.15	1528.78	1.56
0.005	0.001	313.15	1529.47	1.56
0.005	0.0012	313.15	1529.29	1.56
0.005	0.0016	313.15	1528.93	1.56
0.005	0.002	313.15	1528.75	1.56
0.005	0.0025	313.15	1528.57	1.56
0.005	0.003	313.15	1527.67	1.56
0.005	0.0002	318.15	1535.81	1.55
0.005	0.0005	318.15	1536.16	1.55
0.005	0.0008	318.15	1536.69	1.55
0.005	0.001	318.15	1537.05	1.56
0.005	0.0012	318.15	1537.57	1.55
0.005	0.0016	318.15	1537.38	1.55
0.005	0.002	318.15	1537.03	1.55
0.005	0.0025	318.15	1536.68	1.55
0.005	0.003	318.15	1536.32	1.55
0.005	0.0002	323.15	1540.79	1.55
0.005	0.0005	323.15	1540.97	1.55
0.005	0.0008	323.15	1541.86	1.55
0.005	0.001	323.15	1542.4	1.55
0.005	0.0012	323.15	1542.77	1.55
0.005	0.0016	323.15	1542.39	1.55
0.005	0.002	323.15	1542.04	1.55
0.005	0.0025	323.15	1541.69	1.55
0.005	0.003	323.15	1541.33	1.55

System: ethylhexadecyldimethylammonium bromide + sodium bromide + water; phases: Liquid
Fixed: Pressure, kPa = 101
Property: Electrical conductivity, S/m (Liquid); method: Alternating current cell with electrodes
Solvent: Molality, mol/kg of sodium bromide	Molality, mol/kg of ethylhexadecyldimethylammonium bromide	Temperature, K	Electrical conductivity, S/m	uncertainty
0.001	0.0002	298.15	0.01801	0.00512
0.001	0.00035	298.15	0.02002	0.00512
0.001	0.0005	298.15	0.0226	0.00512
0.001	0.0008	298.15	0.0263	0.00512
0.001	0.0012	298.15	0.02732	0.00512
0.001	0.0016	298.15	0.0281	0.00512
0.001	0.002	298.15	0.02911	0.00512
0.001	0.0025	298.15	0.0298	0.00512
0.001	0.003	298.15	0.03092	0.00512
0.001	0.0002	303.15	0.01899	0.00512
0.001	0.00035	303.15	0.02145	0.00512
0.001	0.0005	303.15	0.02365	0.00512
0.001	0.0008	303.15	0.02786	0.00512
0.001	0.0012	303.15	0.0285	0.00512
0.001	0.0016	303.15	0.02975	0.00512
0.001	0.002	303.15	0.03134	0.00512
0.001	0.0025	303.15	0.03234	0.00512
0.001	0.003	303.15	0.03278	0.00512
0.001	0.0002	308.15	0.01902	0.00512
0.001	0.00035	308.15	0.02175	0.00512
0.001	0.0005	308.15	0.02493	0.00512
0.001	0.0008	308.15	0.02972	0.00512
0.001	0.0012	308.15	0.03051	0.00512
0.001	0.0016	308.15	0.03241	0.00512
0.001	0.002	308.15	0.0331	0.00512
0.001	0.0025	308.15	0.03382	0.00512
0.001	0.003	308.15	0.03571	0.00512
0.001	0.0002	313.15	0.02001	0.00512
0.001	0.00035	313.15	0.02352	0.00512
0.001	0.0005	313.15	0.02601	0.00512
0.001	0.0008	313.15	0.03151	0.00512
0.001	0.0012	313.15	0.0339	0.00512
0.001	0.0016	313.15	0.03604	0.00512
0.001	0.002	313.15	0.03702	0.00512
0.001	0.0025	313.15	0.0381	0.00512
0.001	0.003	313.15	0.03942	0.00512
0.001	0.0002	318.15	0.02102	0.00512
0.001	0.00035	318.15	0.02453	0.00512
0.001	0.0005	318.15	0.0275	0.00512
0.001	0.0008	318.15	0.03401	0.00512
0.001	0.0012	318.15	0.03741	0.00512
0.001	0.0016	318.15	0.03871	0.00512
0.001	0.002	318.15	0.04051	0.00512
0.001	0.0025	318.15	0.04132	0.00512
0.001	0.003	318.15	0.04361	0.00512
0.001	0.0002	323.15	0.02201	0.00512
0.001	0.00035	323.15	0.02607	0.00512
0.001	0.0005	323.15	0.02971	0.00512
0.001	0.0008	323.15	0.03692	0.00512
0.001	0.0012	323.15	0.04102	0.00512
0.001	0.0016	323.15	0.04205	0.00512
0.001	0.002	323.15	0.04412	0.00512
0.001	0.0025	323.15	0.0461	0.00512
0.001	0.003	323.15	0.04782	0.00512
0.005	0.0002	298.15	0.06401	0.00512
0.005	0.00035	298.15	0.06771	0.00512
0.005	0.0005	298.15	0.07042	0.00512
0.005	0.0008	298.15	0.0716	0.00512
0.005	0.0012	298.15	0.07342	0.00512
0.005	0.0016	298.15	0.07451	0.00512
0.005	0.002	298.15	0.07452	0.00512
0.005	0.0025	298.15	0.07484	0.00512
0.005	0.003	298.15	0.07672	0.00512
0.005	0.0002	303.15	0.06543	0.00512
0.005	0.00035	303.15	0.06897	0.00512
0.005	0.0005	303.15	0.07254	0.00512
0.005	0.0008	303.15	0.07287	0.00512
0.005	0.0012	303.15	0.07567	0.00512
0.005	0.0016	303.15	0.07609	0.00512
0.005	0.002	303.15	0.07765	0.00512
0.005	0.0025	303.15	0.07695	0.00512
0.005	0.003	303.15	0.07999	0.00512
0.005	0.0002	308.15	0.06602	0.00512
0.005	0.00035	308.15	0.07062	0.00512
0.005	0.0005	308.15	0.07323	0.00512
0.005	0.0008	308.15	0.07456	0.00512
0.005	0.0012	308.15	0.07742	0.00512
0.005	0.0016	308.15	0.07864	0.00512
0.005	0.002	308.15	0.07881	0.00512
0.005	0.0025	308.15	0.0802	0.00512
0.005	0.003	308.15	0.0824	0.00512
0.005	0.0002	313.15	0.06851	0.00512
0.005	0.00035	313.15	0.07411	0.00512
0.005	0.0005	313.15	0.0764	0.00512
0.005	0.0008	313.15	0.07983	0.00512
0.005	0.0012	313.15	0.08213	0.00512
0.005	0.0016	313.15	0.08314	0.00512
0.005	0.002	313.15	0.08352	0.00512
0.005	0.0025	313.15	0.08534	0.00512
0.005	0.003	313.15	0.08642	0.00512
0.005	0.0002	318.15	0.07121	0.00512
0.005	0.00035	318.15	0.07652	0.00512
0.005	0.0005	318.15	0.07911	0.00512
0.005	0.0008	318.15	0.08231	0.00512
0.005	0.0012	318.15	0.08654	0.00512
0.005	0.0016	318.15	0.08665	0.00512
0.005	0.002	318.15	0.08782	0.00512
0.005	0.0025	318.15	0.08882	0.00512
0.005	0.003	318.15	0.09102	0.00512
0.005	0.0002	323.15	0.0732	0.00512
0.005	0.00035	323.15	0.07756	0.00512
0.005	0.0005	323.15	0.08117	0.00512
0.005	0.0008	323.15	0.08458	0.00512
0.005	0.0012	323.15	0.09062	0.00512
0.005	0.0016	323.15	0.09083	0.00512
0.005	0.002	323.15	0.09174	0.00512
0.005	0.0025	323.15	0.09235	0.00512
0.005	0.003	323.15	0.09362	0.00512
