Measured thermophysical data. Density and Volumetric Properties of Aqueous Solutions of Trimethylamine N-Oxide in the Temperature Range from (278.15 to 323.15) K and at Pressures up to 100 MPa
Source: J. Chem. Eng. Data, 2015, 10.1021/je500977g
Compound 1: trimethylamine oxide, C3H9NO, InChI=1S/C3H9NO/c1-4(2,3)5/h1-3H3, purity 99%
Compound 2: water, H2O, InChI=1S/H2O/h1H2

System: water; phases: Liquid
Property: Mass density, kg/m3 (Liquid); method: Vibrating tube method
Temperature, K	Pressure, kPa	Mass density, kg/m3	uncertainty
278.15	101	999.96	0.04
288.15	101	999.09	0.04
298.15	101	997.04	0.04
308.15	101	994.03	0.05
323.15	101	988.03	0.05
278.15	10000	1004.78	0.15
278.15	25000	1011.88	0.25
278.15	50000	1023.2	0.45
278.15	75000	1033.92	0.66
278.15	100000	1044.08	0.87
288.15	10000	1003.67	0.16
288.15	25000	1010.42	0.26
288.15	50000	1021.21	0.46
288.15	75000	1031.47	0.67
288.15	100000	1041.23	0.88
298.15	10000	1001.47	0.17
298.15	25000	1007.99	0.27
298.15	50000	1018.44	0.47
298.15	75000	1028.38	0.68
298.15	100000	1037.86	0.89
308.15	10000	998.36	0.18
308.15	25000	1004.75	0.28
308.15	50000	1014.97	0.48
308.15	75000	1024.71	0.69
308.15	100000	1034	0.9
323.15	10000	992.31	0.19
323.15	25000	998.61	0.3
323.15	50000	1008.68	0.5
323.15	75000	1018.27	0.7
323.15	100000	1027.42	0.91

System: trimethylamine oxide + water; phases: Liquid
Fixed: Pressure, kPa = 101
Property: Mass density, kg/m3 (Liquid); method: Vibrating tube method
Temperature, K	Molality, mol/kg of trimethylamine oxide	Mass density, kg/m3	uncertainty
278.15	0	999.96	0.04
278.15	0.0875	1000.16	0.04
278.15	0.1707	1000.36	0.04
278.15	0.2465	1000.55	0.04
278.15	0.3259	1000.75	0.04
278.15	0.4018	1000.95	0.04
278.15	0.5862	1001.48	0.04
278.15	0.7963	1002.11	0.05
278.15	1.0392	1002.89	0.05
278.15	1.3729	1004.01	0.05
278.15	1.9226	1006.05	0.05
278.15	3.2591	1011.69	0.06
278.15	4.3251	1016.41	0.06
288.15	0	999.09	0.04
288.15	0.0875	999.28	0.04
288.15	0.1707	999.46	0.04
288.15	0.2465	999.63	0.04
288.15	0.3259	999.82	0.04
288.15	0.4018	1000	0.04
288.15	0.5862	1000.47	0.04
288.15	0.7963	1001.02	0.05
288.15	1.0392	1001.71	0.05
288.15	1.3729	1002.7	0.05
288.15	1.9226	1004.48	0.05
288.15	3.2591	1009.4	0.06
288.15	4.3251	1013.58	0.06
298.15	0	997.04	0.04
298.15	0.0875	997.22	0.04
298.15	0.1707	997.4	0.04
298.15	0.2465	997.57	0.05
298.15	0.3259	997.74	0.05
298.15	0.4018	997.91	0.05
298.15	0.5862	998.35	0.05
298.15	0.7963	998.86	0.05
298.15	1.0392	999.49	0.05
298.15	1.3729	1000.4	0.05
298.15	1.9226	1002.01	0.05
298.15	3.2591	1006.44	0.06
298.15	4.3251	1010.2	0.06
308.15	0	994.03	0.05
308.15	0.0875	994.21	0.05
308.15	0.1707	994.38	0.05
308.15	0.2465	994.54	0.05
308.15	0.3259	994.71	0.05
308.15	0.4018	994.88	0.05
308.15	0.5862	995.31	0.05
308.15	0.7963	995.8	0.05
308.15	1.0392	996.41	0.05
308.15	1.3729	997.27	0.05
308.15	1.9226	998.77	0.05
308.15	3.2591	1002.83	0.06
308.15	4.3251	1006.27	0.06
323.15	0	988.03	0.05
323.15	0.0875	988.2	0.05
323.15	0.1707	988.37	0.05
323.15	0.2465	988.53	0.05
323.15	0.3259	988.7	0.05
323.15	0.4018	988.86	0.05
323.15	0.5862	989.27	0.05
323.15	0.7963	989.75	0.05
323.15	1.0392	990.34	0.05
323.15	1.3729	991.15	0.05
323.15	1.9226	992.62	0.05
323.15	3.2591	996.37	0.06
323.15	4.3251	999.45	0.06

System: trimethylamine oxide + water; phases: Liquid
Property: Mass density, kg/m3 (Liquid); method: Constant-volume piezometry
Temperature, K	Molality, mol/kg of trimethylamine oxide	Pressure, kPa	Mass density, kg/m3	uncertainty
278.15	0	10000	1004.78	0.15
278.15	0	25000	1011.88	0.25
278.15	0	50000	1023.2	0.45
278.15	0	75000	1033.92	0.66
278.15	0	100000	1044.08	0.87
278.15	0.1707	10000	1005.1	0.15
278.15	0.1707	25000	1012.1	0.25
278.15	0.1707	50000	1023.24	0.45
278.15	0.1707	75000	1033.79	0.66
278.15	0.1707	100000	1043.78	0.87
278.15	0.3259	10000	1005.43	0.15
278.15	0.3259	25000	1012.31	0.25
278.15	0.3259	50000	1023.31	0.45
278.15	0.3259	75000	1033.7	0.66
278.15	0.3259	100000	1043.57	0.87
278.15	0.5862	10000	1006.05	0.15
278.15	0.5862	25000	1012.75	0.25
278.15	0.5862	50000	1023.5	0.45
278.15	0.5862	75000	1033.63	0.66
278.15	0.5862	100000	1043.26	0.87
278.15	1.0392	10000	1007.25	0.16
278.15	1.0392	25000	1013.68	0.25
278.15	1.0392	50000	1023.97	0.45
278.15	1.0392	75000	1033.68	0.66
278.15	1.0392	100000	1042.96	0.87
278.15	1.3729	10000	1008.19	0.16
278.15	1.3729	25000	1014.44	0.25
278.15	1.3729	50000	1024.42	0.46
278.15	1.3729	75000	1033.85	0.66
278.15	1.3729	100000	1042.87	0.87
278.15	1.9226	10000	1009.95	0.16
278.15	1.9226	25000	1015.88	0.25
278.15	1.9226	50000	1025.37	0.46
278.15	1.9226	75000	1034.37	0.67
278.15	1.9226	100000	1043.01	0.88
278.15	3.2591	10000	1015.17	0.16
278.15	3.2591	25000	1020.33	0.26
278.15	3.2591	50000	1028.7	0.46
278.15	3.2591	75000	1036.77	0.67
278.15	3.2591	100000	1044.64	0.88
278.15	4.3251	10000	1019.59	0.17
278.15	4.3251	25000	1024.4	0.27
278.15	4.3251	50000	1032.12	0.47
278.15	4.3251	75000	1039.49	0.68
278.15	4.3251	100000	1046.85	0.89
288.15	0	10000	1003.67	0.16
288.15	0	25000	1010.42	0.26
288.15	0	50000	1021.21	0.46
288.15	0	75000	1031.47	0.67
288.15	0	100000	1041.23	0.88
288.15	0.1707	10000	1003.98	0.16
288.15	0.1707	25000	1010.63	0.26
288.15	0.1707	50000	1021.25	0.46
288.15	0.1707	75000	1031.35	0.67
288.15	0.1707	100000	1040.95	0.88
288.15	0.3259	10000	1004.27	0.16
288.15	0.3259	25000	1010.83	0.26
288.15	0.3259	50000	1021.31	0.46
288.15	0.3259	75000	1031.27	0.67
288.15	0.3259	100000	1040.74	0.88
288.15	0.5862	10000	1004.81	0.16
288.15	0.5862	25000	1011.2	0.26
288.15	0.5862	50000	1021.47	0.46
288.15	0.5862	75000	1031.21	0.67
288.15	0.5862	100000	1040.48	0.88
288.15	1.0392	10000	1005.85	0.16
288.15	1.0392	25000	1012.01	0.26
288.15	1.0392	50000	1021.88	0.47
288.15	1.0392	75000	1031.28	0.67
288.15	1.0392	100000	1040.22	0.88
288.15	1.3729	10000	1006.74	0.16
288.15	1.3729	25000	1012.71	0.26
288.15	1.3729	50000	1022.31	0.47
288.15	1.3729	75000	1031.46	0.67
288.15	1.3729	100000	1040.16	0.88
288.15	1.9226	10000	1008.34	0.17
288.15	1.9226	25000	1014.05	0.27
288.15	1.9226	50000	1023.22	0.47
288.15	1.9226	75000	1031.97	0.67
288.15	1.9226	100000	1040.3	0.88
288.15	3.2591	10000	1012.89	0.17
288.15	3.2591	25000	1018.05	0.27
288.15	3.2591	50000	1026.33	0.48
288.15	3.2591	75000	1034.24	0.68
288.15	3.2591	100000	1041.8	0.89
288.15	4.3251	10000	1016.87	0.18
288.15	4.3251	25000	1021.69	0.28
288.15	4.3251	50000	1029.39	0.48
288.15	4.3251	75000	1036.73	0.69
288.15	4.3251	100000	1043.78	0.9
298.15	0	10000	1001.47	0.17
298.15	0	25000	1007.99	0.27
298.15	0	50000	1018.44	0.47
298.15	0	75000	1028.38	0.68
298.15	0	100000	1037.86	0.89
298.15	0.1707	10000	1001.77	0.17
298.15	0.1707	25000	1008.19	0.27
298.15	0.1707	50000	1018.48	0.47
298.15	0.1707	75000	1028.27	0.68
298.15	0.1707	100000	1037.61	0.89
298.15	0.3259	10000	1002.05	0.17
298.15	0.3259	25000	1008.39	0.27
298.15	0.3259	50000	1018.55	0.47
298.15	0.3259	75000	1028.22	0.68
298.15	0.3259	100000	1037.41	0.89
298.15	0.5862	10000	1002.57	0.17
298.15	0.5862	25000	1008.79	0.27
298.15	0.5862	50000	1018.73	0.47
298.15	0.5862	75000	1028.19	0.68
298.15	0.5862	100000	1037.18	0.89
298.15	1.0392	10000	1003.56	0.17
298.15	1.0392	25000	1009.58	0.27
298.15	1.0392	50000	1019.17	0.48
298.15	1.0392	75000	1028.3	0.68
298.15	1.0392	100000	1036.99	0.89
298.15	1.3729	10000	1004.38	0.17
298.15	1.3729	25000	1010.25	0.27
298.15	1.3729	50000	1019.6	0.48
298.15	1.3729	75000	1028.51	0.68
298.15	1.3729	100000	1036.98	0.89
298.15	1.9226	10000	1005.83	0.17
298.15	1.9226	25000	1011.48	0.28
298.15	1.9226	50000	1020.48	0.48
298.15	1.9226	75000	1029.06	0.68
298.15	1.9226	100000	1037.22	0.89
298.15	3.2591	10000	1009.93	0.18
298.15	3.2591	25000	1015.13	0.28
298.15	3.2591	50000	1023.44	0.49
298.15	3.2591	75000	1031.32	0.69
298.15	3.2591	100000	1038.74	0.9
298.15	4.3251	10000	1013.44	0.18
298.15	4.3251	25000	1018.32	0.29
298.15	4.3251	50000	1026.18	0.49
298.15	4.3251	75000	1033.57	0.7
298.15	4.3251	100000	1040.54	0.9
308.15	0	10000	998.36	0.18
308.15	0	25000	1004.75	0.28
308.15	0	50000	1014.97	0.48
308.15	0	75000	1024.71	0.69
308.15	0	100000	1034	0.9
308.15	0.1707	10000	998.64	0.18
308.15	0.1707	25000	1004.94	0.28
308.15	0.1707	50000	1015.02	0.48
308.15	0.1707	75000	1024.62	0.69
308.15	0.1707	100000	1033.77	0.9
308.15	0.3259	10000	998.93	0.18
308.15	0.3259	25000	1005.15	0.28
308.15	0.3259	50000	1015.1	0.48
308.15	0.3259	75000	1024.58	0.69
308.15	0.3259	100000	1033.59	0.9
308.15	0.5862	10000	999.44	0.18
308.15	0.5862	25000	1005.53	0.28
308.15	0.5862	50000	1015.28	0.48
308.15	0.5862	75000	1024.56	0.69
308.15	0.5862	100000	1033.39	0.9
308.15	1.0392	10000	1000.4	0.18
308.15	1.0392	25000	1006.27	0.28
308.15	1.0392	50000	1015.72	0.49
308.15	1.0392	75000	1024.68	0.69
308.15	1.0392	100000	1033.25	0.9
308.15	1.3729	10000	1001.17	0.18
308.15	1.3729	25000	1006.92	0.28
308.15	1.3729	50000	1016.14	0.49
308.15	1.3729	75000	1024.9	0.69
308.15	1.3729	100000	1033.26	0.9
308.15	1.9226	10000	1002.54	0.18
308.15	1.9226	25000	1008.08	0.29
308.15	1.9226	50000	1016.98	0.49
308.15	1.9226	75000	1025.43	0.69
308.15	1.9226	100000	1033.48	0.9
308.15	3.2591	10000	1006.31	0.19
308.15	3.2591	25000	1011.45	0.29
308.15	3.2591	50000	1019.69	0.5
308.15	3.2591	75000	1027.51	0.7
308.15	3.2591	100000	1034.99	0.91
308.15	4.3251	10000	1009.52	0.19
308.15	4.3251	25000	1014.35	0.3
308.15	4.3251	50000	1022.07	0.5
308.15	4.3251	75000	1029.5	0.71
308.15	4.3251	100000	1036.64	0.91
323.15	0	10000	992.31	0.19
323.15	0	25000	998.61	0.3
323.15	0	50000	1008.68	0.5
323.15	0	75000	1018.27	0.7
323.15	0	100000	1027.42	0.91
323.15	0.1707	10000	992.59	0.19
323.15	0.1707	25000	998.81	0.3
323.15	0.1707	50000	1008.75	0.5
323.15	0.1707	75000	1018.2	0.7
323.15	0.1707	100000	1027.22	0.91
323.15	0.3259	10000	992.87	0.19
323.15	0.3259	25000	999.01	0.3
323.15	0.3259	50000	1008.83	0.5
323.15	0.3259	75000	1018.18	0.7
323.15	0.3259	100000	1027.09	0.91
323.15	0.5862	10000	993.35	0.19
323.15	0.5862	25000	999.37	0.3
323.15	0.5862	50000	1009.01	0.5
323.15	0.5862	75000	1018.19	0.7
323.15	0.5862	100000	1026.94	0.91
323.15	1.0392	10000	994.29	0.19
323.15	1.0392	25000	1000.14	0.3
323.15	1.0392	50000	1009.49	0.5
323.15	1.0392	75000	1018.41	0.7
323.15	1.0392	100000	1026.92	0.91
323.15	1.3729	10000	995.02	0.19
323.15	1.3729	25000	1000.75	0.3
323.15	1.3729	50000	1009.9	0.5
323.15	1.3729	75000	1018.64	0.7
323.15	1.3729	100000	1027	0.91
323.15	1.9226	10000	996.38	0.2
323.15	1.9226	25000	1001.93	0.3
323.15	1.9226	50000	1010.79	0.5
323.15	1.9226	75000	1019.23	0.71
323.15	1.9226	100000	1027.3	0.91
323.15	3.2591	10000	999.89	0.2
323.15	3.2591	25000	1005.1	0.31
323.15	3.2591	50000	1013.38	0.51
323.15	3.2591	75000	1021.32	0.71
323.15	3.2591	100000	1028.88	0.92
323.15	4.3251	10000	1002.81	0.21
323.15	4.3251	25000	1007.83	0.32
323.15	4.3251	50000	1015.77	0.52
323.15	4.3251	75000	1023.38	0.72
323.15	4.3251	100000	1030.78	0.93
