Measured thermophysical data. Selective Separation of Aromatics from Paraffins and Cycloalkanes Using Morpholinium-Based Ionic Liquid
Source: J. Chem. Eng. Data, 2015, 10.1021/je501008b
Compound 1: toluene, C7H8, InChI=1S/C7H8/c1-7-5-3-2-4-6-7/h2-6H,1H3, purity 0.99%
Compound 2: heptane, C7H16, InChI=1S/C7H16/c1-3-5-7-6-4-2/h3-7H2,1-2H3, purity 0.99%
Compound 3: 4-benzyl-4-methylmorpholinium bis((trifluoromethyl)sulfonyl)amide, C14H18F6N2O5S2, InChI=1S/C12H18NO.C2F6NO4S2/c1-13(7-9-14-10-8-13)11-12-5-3-2-4-6-12;3-1(4,5)14(10,11)9-15(12,13)2(6,7)8/h2-6H,7-11H2,1H3;/q+1;-1
Compound 4: 4-allyl-4-methylmorpholinium bis((trifluoromethyl)sulfonyl)amide, C10H16F6N2O5S2, InChI=1S/C8H16NO.C2F6NO4S2/c1-3-4-9(2)5-7-10-8-6-9;3-1(4,5)14(10,11)9-15(12,13)2(6,7)8/h3H,1,4-8H2,2H3;/q+1;-1
Compound 5: benzene, C6H6, InChI=1S/C6H6/c1-2-4-6-5-3-1/h1-6H, purity 0.99%
Compound 6: hexane, C6H14, InChI=1S/C6H14/c1-3-5-6-4-2/h3-6H2,1-2H3, purity 0.99%
Compound 7: cyclohexane, C6H12, InChI=1S/C6H12/c1-2-4-6-5-3-1/h1-6H2, purity 0.99%

System: toluene + heptane + 4-benzyl-4-methylmorpholinium bis((trifluoromethyl)sulfonyl)amide; phases: Liquid mixture 1, Liquid mixture 2
Fixed: Temperature, K = 298.2
Fixed: Pressure, kPa = 101
Property: Mole fraction of heptane (Liquid mixture 1); method: Chromatography
Property: Mole fraction of heptane (Liquid mixture 2); method: Chromatography
Property: Mole fraction of toluene (Liquid mixture 2); method: Chromatography
Mole fraction of toluene	Mole fraction of heptane	uncertainty	Mole fraction of heptane	uncertainty	Mole fraction of toluene	uncertainty
0	1		0.061	0.02	0	
0.072	0.928	0.028	0.022	0.021	0.06	
0.15	0.85	0.028	0.025	0.02	0.124	
0.278	0.722	0.028	0.023	0.02	0.188	
0.346	0.654	0.028	0.024	0.02	0.239	
0.433	0.567	0.028	0.023	0.02	0.296	
0.518	0.482	0.028	0.025	0.02	0.336	
0.625	0.375	0.028	0.027	0.02	0.427	
0.736	0.264	0.028	0.02	0.02	0.484	
0.86	0.14	0.028	0.014	0.014	0.563	
1	0		0		0.661	

System: toluene + heptane + 4-benzyl-4-methylmorpholinium bis((trifluoromethyl)sulfonyl)amide; phases: Liquid mixture 2, Liquid mixture 1
Property: Mole fraction of toluene (Liquid mixture 2); method: Chromatography
Property: Mole fraction of toluene (Liquid mixture 1); method: Chromatography
Property: Mole fraction of heptane (Liquid mixture 1); method: Chromatography
Mole fraction of heptane	Temperature, K	Pressure, kPa	Mole fraction of toluene	uncertainty	Mole fraction of toluene	uncertainty	Mole fraction of heptane	uncertainty
0.032	313.2	101	0.059	0.02	0.079	0.02	0.921	

System: toluene + heptane + 4-allyl-4-methylmorpholinium bis((trifluoromethyl)sulfonyl)amide; phases: Liquid mixture 2, Liquid mixture 1
Fixed: Pressure, kPa = 101
Fixed: Temperature, K = 298.2
Property: Mole fraction of heptane (Liquid mixture 2); method: Chromatography
Property: Mole fraction of heptane (Liquid mixture 1); method: Chromatography
Property: Mole fraction of toluene (Liquid mixture 1); method: Chromatography
Mole fraction of toluene	Mole fraction of heptane	uncertainty	Mole fraction of heptane	uncertainty	Mole fraction of toluene	uncertainty
0	0.048	0.02	1		0	
0.049	0.021	0.02	0.927	0.028	0.073	
0.104	0.028	0.02	0.845	0.028	0.155	
0.172	0.021	0.02	0.722	0.028	0.278	
0.218	0.017	0.017	0.625	0.028	0.375	
0.261	0.018	0.018	0.601	0.028	0.399	
0.311	0.018	0.018	0.477	0.028	0.523	
0.359	0.014	0.014	0.364	0.028	0.636	
0.415	0.012	0.012	0.251	0.028	0.749	
0.48	0.008	0.008	0.128	0.028	0.872	
0.579	0		0		1	

System: toluene + heptane + 4-allyl-4-methylmorpholinium bis((trifluoromethyl)sulfonyl)amide; phases: Liquid mixture 2, Liquid mixture 1
Property: Mole fraction of toluene (Liquid mixture 2); method: Chromatography
Property: Mole fraction of toluene (Liquid mixture 1); method: Chromatography
Property: Mole fraction of heptane (Liquid mixture 1); method: Chromatography
Temperature, K	Pressure, kPa	Mole fraction of heptane	Mole fraction of toluene	uncertainty	Mole fraction of toluene	uncertainty	Mole fraction of heptane	uncertainty
313.2	101	0.039	0.045	0.02	0.072	0.02	0.928	

System: benzene + hexane + 4-benzyl-4-methylmorpholinium bis((trifluoromethyl)sulfonyl)amide; phases: Liquid mixture 1, Liquid mixture 2
Fixed: Temperature, K = 298.2
Fixed: Pressure, kPa = 101
Property: Mole fraction of benzene (Liquid mixture 1); method: Chromatography
Property: Mole fraction of hexane (Liquid mixture 2); method: Chromatography
Property: Mole fraction of benzene (Liquid mixture 2); method: Chromatography
Mole fraction of hexane	Mole fraction of benzene	uncertainty	Mole fraction of hexane	uncertainty	Mole fraction of benzene	uncertainty
1	0		0.038	0.02	0	
0.942	0.058	0.028	0.035	0.02	0.092	
0.894	0.106	0.028	0.048	0.02	0.163	
0.812	0.188	0.028	0.047	0.02	0.25	
0.715	0.285	0.028	0.03	0.02	0.327	
0.606	0.394	0.028	0.03	0.02	0.403	
0.527	0.473	0.028	0.031	0.02	0.435	
0.413	0.587	0.028	0.028	0.02	0.506	
0.294	0.706	0.028	0.023	0.02	0.565	
0.153	0.847	0.028	0.016	0.016	0.661	
0	1		0		0.787	

System: benzene + hexane + 4-benzyl-4-methylmorpholinium bis((trifluoromethyl)sulfonyl)amide; phases: Liquid mixture 2, Liquid mixture 1
Property: Mole fraction of benzene (Liquid mixture 2); method: Chromatography
Property: Mole fraction of benzene (Liquid mixture 1); method: Chromatography
Property: Mole fraction of hexane (Liquid mixture 1); method: Chromatography
Temperature, K	Mole fraction of hexane	Pressure, kPa	Mole fraction of benzene	uncertainty	Mole fraction of benzene	uncertainty	Mole fraction of hexane	uncertainty
313.2	0.066	101	0.102	0.02	0.06	0.02	0.94	

System: benzene + hexane + 4-allyl-4-methylmorpholinium bis((trifluoromethyl)sulfonyl)amide; phases: Liquid mixture 2, Liquid mixture 1
Fixed: Temperature, K = 298.15
Fixed: Pressure, kPa = 101
Property: Mole fraction of hexane (Liquid mixture 2); method: Chromatography
Property: Mole fraction of benzene (Liquid mixture 1); method: Chromatography
Property: Mole fraction of hexane (Liquid mixture 1); method: Chromatography
Mole fraction of benzene	Mole fraction of hexane	uncertainty	Mole fraction of benzene	uncertainty	Mole fraction of hexane	uncertainty
0	0.058	0.02	0		1	
0.067	0.016	0.016	0.048	0.028	0.952	
0.185	0.018	0.018	0.13	0.028	0.87	
0.253	0.02	0.02	0.21	0.028	0.79	
0.317	0.019	0.019	0.303	0.028	0.697	
0.363	0.017	0.017	0.39	0.028	0.61	
0.435	0.012	0.012	0.515	0.028	0.485	
0.485	0.013	0.013	0.619	0.028	0.381	
0.544	0.01	0.01	0.723	0.028	0.277	
0.622	0.007	0.007	0.863	0.028	0.137	
0.738	0		0.989	0.011	0	

System: benzene + hexane + 4-allyl-4-methylmorpholinium bis((trifluoromethyl)sulfonyl)amide; phases: Liquid mixture 2, Liquid mixture 1
Property: Mole fraction of benzene (Liquid mixture 2); method: Chromatography
Property: Mole fraction of benzene (Liquid mixture 1); method: Chromatography
Property: Mole fraction of hexane (Liquid mixture 1); method: Chromatography
Temperature, K	Mole fraction of hexane	Pressure, kPa	Mole fraction of benzene	uncertainty	Mole fraction of benzene	uncertainty	Mole fraction of hexane	uncertainty
313.2	0.03	101	0.077	0.02	0.053	0.02	0.947	

System: benzene + cyclohexane + 4-benzyl-4-methylmorpholinium bis((trifluoromethyl)sulfonyl)amide; phases: Liquid mixture 2, Liquid mixture 1
Fixed: Temperature, K = 298.15
Fixed: Pressure, kPa = 101
Property: Mole fraction of cyclohexane (Liquid mixture 2); method: Chromatography
Property: Mole fraction of benzene (Liquid mixture 1); method: Chromatography
Property: Mole fraction of cyclohexane (Liquid mixture 1); method: Chromatography
Mole fraction of benzene	Mole fraction of cyclohexane	uncertainty	Mole fraction of benzene	uncertainty	Mole fraction of cyclohexane	uncertainty
0	0.006	0.006	0		1	
0.11	0.064	0.021	0.085	0.028	0.915	
0.208	0.054	0.02	0.162	0.028	0.838	
0.286	0.061	0.02	0.253	0.028	0.747	
0.354	0.061	0.02	0.349	0.028	0.651	
0.43	0.056	0.02	0.445	0.028	0.555	
0.512	0.033	0.02	0.552	0.028	0.448	
0.546	0.045	0.02	0.648	0.028	0.352	
0.635	0.038	0.02	0.762	0.028	0.238	
0.703	0.025	0.021	0.877	0.028	0.123	
0.787	0		1		0	

System: benzene + cyclohexane + 4-benzyl-4-methylmorpholinium bis((trifluoromethyl)sulfonyl)amide; phases: Liquid mixture 2, Liquid mixture 1
Property: Mole fraction of benzene (Liquid mixture 2); method: Chromatography
Property: Mole fraction of benzene (Liquid mixture 1); method: Chromatography
Property: Mole fraction of cyclohexane (Liquid mixture 1); method: Chromatography
Temperature, K	Mole fraction of cyclohexane	Pressure, kPa	Mole fraction of benzene	uncertainty	Mole fraction of benzene	uncertainty	Mole fraction of cyclohexane	uncertainty
313.2	0.071	101	0.118	0.02	0.09	0.02	0.91	

System: benzene + cyclohexane + 4-allyl-4-methylmorpholinium bis((trifluoromethyl)sulfonyl)amide; phases: Liquid mixture 2, Liquid mixture 1
Fixed: Temperature, K = 298.15
Fixed: Pressure, kPa = 101
Property: Mole fraction of cyclohexane (Liquid mixture 2); method: Chromatography
Property: Mole fraction of benzene (Liquid mixture 1); method: Chromatography
Property: Mole fraction of cyclohexane (Liquid mixture 1); method: Chromatography
Mole fraction of benzene	Mole fraction of cyclohexane	uncertainty	Mole fraction of benzene	uncertainty	Mole fraction of cyclohexane	uncertainty
0	0.03	0.02	0		1	
0.097	0.043	0.02	0.082	0.028	0.918	
0.168	0.037	0.02	0.165	0.028	0.835	
0.266	0.041	0.02	0.259	0.028	0.741	
0.311	0.037	0.02	0.338	0.028	0.662	
0.373	0.033	0.02	0.446	0.028	0.554	
0.394	0.032	0.02	0.474	0.028	0.526	
0.491	0.026	0.02	0.646	0.028	0.354	
0.574	0.023	0.02	0.764	0.028	0.236	
0.641	0.015	0.015	0.877	0.028	0.123	
0.738	0		0.989	0.011	0	

System: benzene + cyclohexane + 4-allyl-4-methylmorpholinium bis((trifluoromethyl)sulfonyl)amide; phases: Liquid mixture 2, Liquid mixture 1
Property: Mole fraction of benzene (Liquid mixture 2); method: Chromatography
Property: Mole fraction of benzene (Liquid mixture 1); method: Chromatography
Property: Mole fraction of cyclohexane (Liquid mixture 1); method: Chromatography
Temperature, K	Mole fraction of cyclohexane	Pressure, kPa	Mole fraction of benzene	uncertainty	Mole fraction of benzene	uncertainty	Mole fraction of cyclohexane	uncertainty
313.2	0.061	101	0.068	0.02	0.062	0.02	0.938	

System: heptane + 4-benzyl-4-methylmorpholinium bis((trifluoromethyl)sulfonyl)amide; phases: Liquid mixture 1, Liquid mixture 2
Property: Mole fraction of heptane (Liquid mixture 1); method: Chromatography
Temperature, K	Pressure, kPa	Mole fraction of heptane	uncertainty
298.2	101	1	

System: heptane + 4-benzyl-4-methylmorpholinium bis((trifluoromethyl)sulfonyl)amide; phases: Liquid mixture 2, Liquid mixture 1
Property: Mole fraction of heptane (Liquid mixture 2); method: Chromatography
Temperature, K	Pressure, kPa	Mole fraction of heptane	uncertainty
298.2	101	0.061	0.02

System: heptane + 4-allyl-4-methylmorpholinium bis((trifluoromethyl)sulfonyl)amide; phases: Liquid mixture 1, Liquid mixture 2
Property: Mole fraction of heptane (Liquid mixture 1); method: Chromatography
Temperature, K	Pressure, kPa	Mole fraction of heptane	uncertainty
298.2	101	1	

System: heptane + 4-allyl-4-methylmorpholinium bis((trifluoromethyl)sulfonyl)amide; phases: Liquid mixture 2, Liquid mixture 1
Property: Mole fraction of heptane (Liquid mixture 2); method: Chromatography
Temperature, K	Pressure, kPa	Mole fraction of heptane	uncertainty
298.2	101	0.048	0.02

System: toluene + 4-benzyl-4-methylmorpholinium bis((trifluoromethyl)sulfonyl)amide; phases: Liquid mixture 1, Liquid mixture 2
Property: Mole fraction of toluene (Liquid mixture 1); method: Chromatography
Temperature, K	Pressure, kPa	Mole fraction of toluene	uncertainty
298.2	101	1	

System: toluene + 4-benzyl-4-methylmorpholinium bis((trifluoromethyl)sulfonyl)amide; phases: Liquid mixture 2, Liquid mixture 1
Property: Mole fraction of toluene (Liquid mixture 2); method: Chromatography
Temperature, K	Pressure, kPa	Mole fraction of toluene	uncertainty
298.2	101	0.661	0.02

System: toluene + 4-allyl-4-methylmorpholinium bis((trifluoromethyl)sulfonyl)amide; phases: Liquid mixture 1, Liquid mixture 2
Property: Mole fraction of toluene (Liquid mixture 1); method: Chromatography
Temperature, K	Pressure, kPa	Mole fraction of toluene	uncertainty
298.15	101	1	

System: toluene + 4-allyl-4-methylmorpholinium bis((trifluoromethyl)sulfonyl)amide; phases: Liquid mixture 2, Liquid mixture 1
Property: Mole fraction of toluene (Liquid mixture 2); method: Chromatography
Temperature, K	Pressure, kPa	Mole fraction of toluene	uncertainty
298.15	101	0.579	0.02

System: hexane + 4-benzyl-4-methylmorpholinium bis((trifluoromethyl)sulfonyl)amide; phases: Liquid mixture 1, Liquid mixture 2
Property: Mole fraction of hexane (Liquid mixture 1); method: Chromatography
Temperature, K	Pressure, kPa	Mole fraction of hexane	uncertainty
298.2	101	1	

System: hexane + 4-benzyl-4-methylmorpholinium bis((trifluoromethyl)sulfonyl)amide; phases: Liquid mixture 2, Liquid mixture 1
Property: Mole fraction of hexane (Liquid mixture 2); method: Chromatography
Temperature, K	Pressure, kPa	Mole fraction of hexane	uncertainty
298.2	101	0.038	0.02

System: hexane + 4-allyl-4-methylmorpholinium bis((trifluoromethyl)sulfonyl)amide; phases: Liquid mixture 1, Liquid mixture 2
Property: Mole fraction of hexane (Liquid mixture 1); method: Chromatography
Temperature, K	Pressure, kPa	Mole fraction of hexane	uncertainty
298.2	101	1	

System: hexane + 4-allyl-4-methylmorpholinium bis((trifluoromethyl)sulfonyl)amide; phases: Liquid mixture 2, Liquid mixture 1
Property: Mole fraction of hexane (Liquid mixture 2); method: Chromatography
Temperature, K	Pressure, kPa	Mole fraction of hexane	uncertainty
298.2	101	0.058	0.02

System: benzene + 4-benzyl-4-methylmorpholinium bis((trifluoromethyl)sulfonyl)amide; phases: Liquid mixture 1, Liquid mixture 2
Property: Mole fraction of benzene (Liquid mixture 1); method: Chromatography
Temperature, K	Pressure, kPa	Mole fraction of benzene	uncertainty
298.15	101	1	

System: benzene + 4-benzyl-4-methylmorpholinium bis((trifluoromethyl)sulfonyl)amide; phases: Liquid mixture 2, Liquid mixture 1
Property: Mole fraction of benzene (Liquid mixture 2); method: Chromatography
Temperature, K	Pressure, kPa	Mole fraction of benzene	uncertainty
298.15	101	0.787	0.02

System: benzene + 4-allyl-4-methylmorpholinium bis((trifluoromethyl)sulfonyl)amide; phases: Liquid mixture 1, Liquid mixture 2
Property: Mole fraction of benzene (Liquid mixture 1); method: Chromatography
Temperature, K	Pressure, kPa	Mole fraction of benzene	uncertainty
298.2	101	0.989	0.011

System: benzene + 4-allyl-4-methylmorpholinium bis((trifluoromethyl)sulfonyl)amide; phases: Liquid mixture 2, Liquid mixture 1
Property: Mole fraction of benzene (Liquid mixture 2); method: Chromatography
Temperature, K	Pressure, kPa	Mole fraction of benzene	uncertainty
298.2	101	0.738	0.02

System: cyclohexane + 4-benzyl-4-methylmorpholinium bis((trifluoromethyl)sulfonyl)amide; phases: Liquid mixture 1, Liquid mixture 2
Property: Mole fraction of cyclohexane (Liquid mixture 1); method: Chromatography
Temperature, K	Pressure, kPa	Mole fraction of cyclohexane	uncertainty
298.2	101	1	

System: cyclohexane + 4-benzyl-4-methylmorpholinium bis((trifluoromethyl)sulfonyl)amide; phases: Liquid mixture 2, Liquid mixture 1
Property: Mole fraction of cyclohexane (Liquid mixture 2); method: Chromatography
Temperature, K	Pressure, kPa	Mole fraction of cyclohexane	uncertainty
298.2	101	0.006	0.006

System: cyclohexane + 4-allyl-4-methylmorpholinium bis((trifluoromethyl)sulfonyl)amide; phases: Liquid mixture 1, Liquid mixture 2
Property: Mole fraction of cyclohexane (Liquid mixture 1); method: Chromatography
Temperature, K	Pressure, kPa	Mole fraction of cyclohexane	uncertainty
298.2	101	1	

System: cyclohexane + 4-allyl-4-methylmorpholinium bis((trifluoromethyl)sulfonyl)amide; phases: Liquid mixture 2, Liquid mixture 1
Property: Mole fraction of cyclohexane (Liquid mixture 2); method: Chromatography
Temperature, K	Pressure, kPa	Mole fraction of cyclohexane	uncertainty
298.2	101	0.03	0.02
