Measured thermophysical data. Solution Thermodynamics of Imidazolium-Based Ionic Liquids and Volatile Organic Compounds: Benzene and Acetone
Source: J. Chem. Eng. Data, 2015, 10.1021/je500986b
Compound 1: benzene, C6H6, InChI=1S/C6H6/c1-2-4-6-5-3-1/h1-6H
Compound 2: acetone, C3H6O, InChI=1S/C3H6O/c1-3(2)4/h1-2H3
Compound 3: 1-ethyl-3-methylimidazolium tetrafluoroborate, C6H11BF4N2, InChI=1S/C6H11N2.BF4/c1-3-8-5-4-7(2)6-8;2-1(3,4)5/h4-6H,3H2,1-2H3;/q+1;-1
Compound 4: 1-ethyl-3-methylimidazolium bis((trifluoromethyl)sulfonyl)imide, C8H11F6N3O4S2, InChI=1S/C6H11N2.C2F6NO4S2/c1-3-8-5-4-7(2)6-8;3-1(4,5)14(10,11)9-15(12,13)2(6,7)8/h4-6H,3H2,1-2H3;/q+1;-1
Compound 5: 1-butyl-3-methylimidazolium tetrafluoroborate, C8H15BF4N2, InChI=1S/C8H15N2.BF4/c1-3-4-5-10-7-6-9(2)8-10;2-1(3,4)5/h6-8H,3-5H2,1-2H3;/q+1;-1
Compound 6: 1-butyl-3-methylimidazolium hexafluorophosphate, C8H15F6N2P, InChI=1S/C8H15N2.F6P/c1-3-4-5-10-7-6-9(2)8-10;1-7(2,3,4,5)6/h6-8H,3-5H2,1-2H3;/q+1;-1
Compound 7: 1-butyl-3-methylimidazolium bis(trifluoromethylsulfonyl)imide, C10H15F6N3O4S2, InChI=1S/C8H15N2.C2F6NO4S2/c1-3-4-5-10-7-6-9(2)8-10;3-1(4,5)14(10,11)9-15(12,13)2(6,7)8/h6-8H,3-5H2,1-2H3;/q+1;-1
Compound 8: 1-hexyl-3-methylimidazolium tetrafluoroborate, C10H19BF4N2, InChI=1S/C10H19N2.BF4/c1-3-4-5-6-7-12-9-8-11(2)10-12;2-1(3,4)5/h8-10H,3-7H2,1-2H3;/q+1;-1
Compound 9: 1-hexyl-3-methylimidazolium hexafluorophosphate, C10H19F6N2P, InChI=1S/C10H19N2.F6P/c1-3-4-5-6-7-12-9-8-11(2)10-12;1-7(2,3,4,5)6/h8-10H,3-7H2,1-2H3;/q+1;-1
Compound 10: 1-hexyl-3-methylimidazolium bis[(trifluoromethyl)sulfonyl]imide, C12H19F6N3O4S2, InChI=1S/C10H19N2.C2F6NO4S2/c1-3-4-5-6-7-12-9-8-11(2)10-12;3-1(4,5)14(10,11)9-15(12,13)2(6,7)8/h8-10H,3-7H2,1-2H3;/q+1;-1

System: benzene + 1-ethyl-3-methylimidazolium tetrafluoroborate; phases: Liquid, Gas
Property: Mole fraction of benzene (Liquid); method: Phase equilibration
Temperature, K	Pressure, kPa	Mole fraction of benzene	uncertainty
303.2	0.57	0.0158	0.0008
303.2	1.23	0.0326	0.0014
303.2	1.82	0.0479	0.002
303.2	2.45	0.0642	0.0027
303.2	3.05	0.0796	0.0033
303.2	3.57	0.093	0.0038
303.2	4.08	0.1053	0.0043
303.2	4.54	0.1171	0.0048
313.2	0.79	0.0139	0.0007
313.2	1.67	0.0284	0.0012
313.2	2.51	0.0429	0.0018
313.2	3.31	0.0572	0.0024
313.2	4.05	0.0689	0.0028
313.2	4.67	0.08	0.0033
313.2	5.28	0.0899	0.0037
313.2	5.92	0.1003	0.0041
323.2	1.15	0.0136	0.0006
323.2	2.27	0.0264	0.0011
323.2	3.34	0.0385	0.0016
323.2	4.38	0.0495	0.002
323.2	5.13	0.0582	0.0024
323.2	5.81	0.0661	0.0027
323.2	6.54	0.0735	0.003
323.2	7.13	0.0804	0.0033
333.2	1.41	0.0113	0.0005
333.2	2.81	0.0224	0.0009
333.2	4.01	0.0317	0.0013
333.2	5.22	0.0417	0.0017
333.2	6.27	0.0497	0.002
333.2	7.03	0.0559	0.0023
333.2	7.76	0.0612	0.0025
333.2	8.38	0.0658	0.0027

System: benzene + 1-butyl-3-methylimidazolium tetrafluoroborate; phases: Liquid, Gas
Property: Mole fraction of benzene (Liquid); method: Phase equilibration
Temperature, K	Pressure, kPa	Mole fraction of benzene	uncertainty
303.2	0.46	0.0171	0.001
303.2	0.96	0.0345	0.0016
303.2	1.52	0.0535	0.0023
303.2	2.01	0.0705	0.003
303.2	2.51	0.0882	0.0036
303.2	2.94	0.104	0.0043
303.2	3.35	0.118	0.0049
303.2	3.76	0.1318	0.0054
313.2	0.69	0.0165	0.0008
313.2	1.43	0.033	0.0014
313.2	2.13	0.0486	0.002
313.2	2.89	0.0654	0.0027
313.2	3.53	0.0799	0.0033
313.2	4.19	0.0951	0.0039
313.2	4.77	0.108	0.0044
313.2	5.38	0.1214	0.0049
323.2	1.13	0.0177	0.0008
323.2	2.24	0.0346	0.0014
323.2	3.17	0.0487	0.002
323.2	4.13	0.0631	0.0026
323.2	4.79	0.0735	0.003
323.2	5.65	0.0862	0.0035
323.2	6.58	0.1	0.0041
323.2	7.32	0.1111	0.0045
333.2	1.37	0.0149	0.0006
333.2	2.72	0.029	0.0012
333.2	3.81	0.0407	0.0017
333.2	4.81	0.0507	0.0021
333.2	5.78	0.061	0.0025
333.2	6.76	0.0712	0.0029
333.2	7.65	0.0804	0.0033
333.2	8.67	0.091	0.0037
333.2	9.62	0.1011	0.0041
333.2	10.52	0.1101	0.0045

System: benzene + 1-hexyl-3-methylimidazolium tetrafluoroborate; phases: Liquid, Gas
Property: Mole fraction of benzene (Liquid); method: Phase equilibration
Temperature, K	Pressure, kPa	Mole fraction of benzene	uncertainty
303.2	0.48	0.0197	0.0011
303.2	0.98	0.0395	0.0018
303.2	1.51	0.0589	0.0025
303.2	2.01	0.0788	0.0033
303.2	2.49	0.0982	0.0041
303.2	2.92	0.1146	0.0047
303.2	3.31	0.1295	0.0053
303.2	3.68	0.1437	0.0059
313.2	0.69	0.0179	0.0009
313.2	1.38	0.0355	0.0015
313.2	2.17	0.0548	0.0023
313.2	2.67	0.0679	0.0028
313.2	3.24	0.0828	0.0034
313.2	3.81	0.0966	0.004
313.2	4.47	0.1121	0.0046
313.2	5.02	0.1263	0.0051
313.2	5.49	0.1372	0.0056
323.2	0.93	0.0161	0.0007
323.2	2.35	0.04	0.0017
323.2	3.28	0.0559	0.0023
323.2	3.97	0.0681	0.0028
323.2	4.42	0.0755	0.0031
323.2	5.31	0.0904	0.0037
323.2	5.89	0.1	0.0041
333.2	1.95	0.0232	0.001
333.2	3.53	0.0408	0.0017
333.2	5.04	0.0585	0.0024
333.2	6.48	0.0753	0.0031
333.2	7.67	0.0889	0.0036
333.2	8.52	0.0984	0.004
333.2	9.01	0.1039	0.0042

System: benzene + 1-butyl-3-methylimidazolium hexafluorophosphate; phases: Liquid, Gas
Property: Mole fraction of benzene (Liquid); method: Phase equilibration
Temperature, K	Pressure, kPa	Mole fraction of benzene	uncertainty
303.2	0.58	0.023	0.0012
303.2	1.21	0.0466	0.002
303.2	1.77	0.0677	0.0029
303.2	2.35	0.0885	0.0037
303.2	2.79	0.106	0.0044
303.2	3.25	0.123	0.0051
303.2	3.71	0.14	0.0057
303.2	4.19	0.155	0.0063
313.2	0.93	0.0234	0.0011
313.2	1.89	0.0458	0.0019
313.2	2.68	0.0643	0.0027
313.2	3.38	0.0814	0.0034
313.2	3.98	0.0957	0.0039
313.2	4.56	0.1094	0.0045
313.2	5.01	0.1203	0.0049
313.2	5.62	0.1343	0.0055
323.2	1.04	0.0171	0.0008
323.2	1.93	0.0316	0.0013
323.2	2.87	0.046	0.0019
323.2	3.69	0.0598	0.0025
323.2	4.51	0.0726	0.003
323.2	5.19	0.0844	0.0035
323.2	5.84	0.0947	0.0039
323.2	6.53	0.1036	0.0042
333.2	1.69	0.0196	0.0008
333.2	3.07	0.0343	0.0014
333.2	4.07	0.0452	0.0019
333.2	5.23	0.0584	0.0024
333.2	6.25	0.07	0.0029
333.2	7.02	0.0784	0.0032
333.2	7.58	0.0848	0.0035
333.2	8.19	0.0915	0.0037

System: benzene + 1-hexyl-3-methylimidazolium hexafluorophosphate; phases: Liquid, Gas
Property: Mole fraction of benzene (Liquid); method: Phase equilibration
Temperature, K	Pressure, kPa	Mole fraction of benzene	uncertainty
303.2	0.56	0.027	0.0015
303.2	1.13	0.0554	0.0025
303.2	1.64	0.0803	0.0034
303.2	2.15	0.1043	0.0044
303.2	2.64	0.1287	0.0053
303.2	3.09	0.1479	0.0061
303.2	3.48	0.1659	0.0068
303.2	3.86	0.1833	0.0075
313.2	0.63	0.0197	0.001
313.2	1.51	0.047	0.002
313.2	2.34	0.0728	0.003
313.2	3.11	0.0964	0.004
313.2	3.62	0.1125	0.0046
313.2	4.14	0.1281	0.0053
313.2	4.66	0.1431	0.0058
323.2	1.02	0.0214	0.001
323.2	2.08	0.0447	0.0019
323.2	3.31	0.0694	0.0029
323.2	4.35	0.0909	0.0037
323.2	5.52	0.1149	0.0047
323.2	6.54	0.1361	0.0055
323.2	7.64	0.1583	0.0064
323.2	8.52	0.1759	0.0071
333.2	1.25	0.0183	0.0008
333.2	3.33	0.0478	0.002
333.2	4.67	0.0666	0.0027
333.2	5.61	0.0798	0.0033
333.2	6.51	0.0927	0.0038
333.2	7.38	0.1051	0.0043
333.2	8.22	0.1174	0.0048
333.2	8.97	0.1276	0.0052

System: benzene + 1-ethyl-3-methylimidazolium bis((trifluoromethyl)sulfonyl)imide; phases: Liquid, Gas
Property: Mole fraction of benzene (Liquid); method: Phase equilibration
Temperature, K	Pressure, kPa	Mole fraction of benzene	uncertainty
303.2	0.55	0.0311	0.0016
303.2	1.16	0.062	0.0027
303.2	1.72	0.0901	0.0038
303.2	2.12	0.1118	0.0047
303.2	2.48	0.1305	0.0054
303.2	2.82	0.1481	0.0061
303.2	3.09	0.163	0.0067
313.2	0.67	0.0244	0.0012
313.2	1.48	0.0525	0.0022
313.2	2.31	0.0797	0.0033
313.2	3.15	0.1097	0.0045
313.2	3.87	0.1342	0.0055
313.2	4.51	0.1556	0.0063
313.2	5.08	0.1758	0.0072
313.2	5.65	0.1939	0.0079
323.2	1.18	0.0286	0.0012
323.2	2.36	0.0556	0.0023
323.2	3.36	0.0782	0.0032
323.2	4.19	0.0964	0.004
323.2	5.06	0.1161	0.0048
323.2	5.7	0.1303	0.0053
323.2	6.25	0.1434	0.0058
323.2	6.79	0.1551	0.0063
333.2	1.23	0.0205	0.0009
333.2	2.72	0.0442	0.0018
333.2	4.11	0.0652	0.0027
333.2	5.27	0.0836	0.0034
333.2	6.41	0.1016	0.0042
333.2	7.21	0.1146	0.0047
333.2	7.93	0.1251	0.0051
333.2	8.48	0.1339	0.0055

System: benzene + 1-butyl-3-methylimidazolium bis(trifluoromethylsulfonyl)imide; phases: Liquid, Gas
Property: Mole fraction of benzene (Liquid); method: Phase equilibration
Temperature, K	Pressure, kPa	Mole fraction of benzene	uncertainty
303.2	0.55	0.0376	0.0021
303.2	1.1	0.0751	0.0033
303.2	1.58	0.1069	0.0045
303.2	1.99	0.1347	0.0056
303.2	2.37	0.1603	0.0066
303.2	2.74	0.1837	0.0076
303.2	3.08	0.2068	0.0085
313.2	0.84	0.0373	0.0018
313.2	1.65	0.0729	0.0031
313.2	2.39	0.1041	0.0043
313.2	3.11	0.1341	0.0056
313.2	3.66	0.1573	0.0064
313.2	4.17	0.1791	0.0073
313.2	4.65	0.1986	0.0081
323.2	1.32	0.0391	0.0017
323.2	2.42	0.0703	0.0029
323.2	3.46	0.1001	0.0041
323.2	4.38	0.1264	0.0052
323.2	5.22	0.1502	0.0061
323.2	5.93	0.1704	0.0069
323.2	6.57	0.1885	0.0077
333.2	1.1	0.0222	0.001
333.2	2.85	0.0576	0.0024
333.2	3.94	0.0796	0.0033
333.2	5.41	0.1085	0.0045
333.2	6.79	0.136	0.0056
333.2	8.14	0.1626	0.0066
333.2	9.21	0.1835	0.0074

System: benzene + 1-hexyl-3-methylimidazolium bis[(trifluoromethyl)sulfonyl]imide; phases: Liquid, Gas
Property: Mole fraction of benzene (Liquid); method: Phase equilibration
Temperature, K	Pressure, kPa	Mole fraction of benzene	uncertainty
303.2	0.48	0.0394	0.0023
303.2	0.93	0.0761	0.0035
303.2	1.39	0.1129	0.0048
303.2	1.81	0.147	0.0062
303.2	2.18	0.1778	0.0074
303.2	2.55	0.2055	0.0085
303.2	2.84	0.2287	0.0094
313.2	0.63	0.0331	0.0018
313.2	1.19	0.0634	0.0028
313.2	1.75	0.0917	0.0039
313.2	2.32	0.1213	0.005
313.2	2.82	0.1478	0.0062
313.2	3.26	0.1706	0.007
313.2	3.72	0.1932	0.0079
313.2	4.12	0.2141	0.0088
323.2	1.06	0.0378	0.0017
323.2	2.01	0.0714	0.003
323.2	2.89	0.1017	0.0042
323.2	3.71	0.129	0.0054
323.2	4.44	0.1544	0.0063
323.2	5.08	0.1757	0.0072
323.2	5.68	0.1959	0.008
333.2	0.96	0.0235	0.0011
333.2	2.37	0.0564	0.0024
333.2	3.27	0.0776	0.0032
333.2	4.59	0.1094	0.0045
333.2	5.51	0.1311	0.0054
333.2	6.57	0.1564	0.0064
333.2	7.55	0.1796	0.0073
333.2	8.31	0.1969	0.008

System: acetone + 1-ethyl-3-methylimidazolium tetrafluoroborate; phases: Liquid, Gas
Property: Mole fraction of acetone (Liquid); method: Phase equilibration
Temperature, K	Pressure, kPa	Mole fraction of acetone	uncertainty
303.2	0.63	0.0139	0.0007
303.2	1.32	0.0282	0.0012
303.2	2.08	0.0439	0.0018
303.2	2.59	0.0547	0.0023
303.2	3.44	0.072	0.0029
303.2	4.11	0.0858	0.0035
303.2	4.56	0.0953	0.0039
303.2	5.12	0.1065	0.0043
313.2	0.85	0.0123	0.0006
313.2	1.61	0.0227	0.001
313.2	2.34	0.0328	0.0014
313.2	3.01	0.0425	0.0017
313.2	3.53	0.0496	0.002
313.2	4.24	0.0592	0.0024
313.2	5.06	0.0704	0.0029
313.2	5.96	0.0827	0.0034
323.2	1.05	0.0101	0.0005
323.2	1.98	0.019	0.0008
323.2	2.79	0.0267	0.0011
323.2	3.52	0.0339	0.0014
323.2	4.32	0.0412	0.0017
323.2	5.16	0.0491	0.002
323.2	6.02	0.0575	0.0023
323.2	6.87	0.0654	0.0026
333.2	1.32	0.009	0.0004
333.2	2.54	0.0173	0.0007
333.2	3.59	0.0245	0.001
333.2	4.72	0.0319	0.0013
333.2	5.69	0.0384	0.0016
333.2	6.63	0.0449	0.0018
333.2	7.14	0.0482	0.002

System: acetone + 1-butyl-3-methylimidazolium tetrafluoroborate; phases: Liquid, Gas
Property: Mole fraction of acetone (Liquid); method: Phase equilibration
Temperature, K	Pressure, kPa	Mole fraction of acetone	uncertainty
303.2	0.71	0.0201	0.001
303.2	1.31	0.0369	0.0016
303.2	1.85	0.0517	0.0022
303.2	2.35	0.0655	0.0027
303.2	2.94	0.0813	0.0033
303.2	3.34	0.0925	0.0038
303.2	3.81	0.105	0.0043
313.2	0.87	0.0165	0.0008
313.2	1.63	0.0304	0.0013
313.2	2.31	0.0426	0.0018
313.2	2.99	0.0553	0.0023
313.2	3.66	0.0675	0.0028
313.2	4.07	0.0746	0.0031
313.2	4.42	0.0805	0.0033
323.2	0.98	0.0126	0.0006
323.2	1.91	0.0243	0.001
323.2	2.59	0.033	0.0014
323.2	3.31	0.0418	0.0017
323.2	4.01	0.0505	0.0021
323.2	4.86	0.061	0.0025
323.2	5.63	0.0705	0.0029
333.2	1.24	0.0111	0.0005
333.2	2.3	0.0205	0.0009
333.2	3.64	0.0323	0.0013
333.2	4.45	0.0395	0.0016
333.2	5.31	0.0467	0.0019
333.2	5.94	0.0522	0.0021
333.2	6.82	0.0597	0.0024

System: acetone + 1-hexyl-3-methylimidazolium tetrafluoroborate; phases: Liquid, Gas
Property: Mole fraction of acetone (Liquid); method: Phase equilibration
Temperature, K	Pressure, kPa	Mole fraction of acetone	uncertainty
303.2	0.71	0.0235	0.0012
303.2	1.34	0.0436	0.0019
303.2	2.02	0.0656	0.0027
303.2	2.59	0.0838	0.0035
303.2	3.07	0.0985	0.004
303.2	3.48	0.1115	0.0046
303.2	3.85	0.1239	0.0051
313.2	0.94	0.0207	0.0009
313.2	1.8	0.0391	0.0017
313.2	2.66	0.0577	0.0024
313.2	3.29	0.0712	0.0029
313.2	3.91	0.0844	0.0035
313.2	4.36	0.0945	0.0038
313.2	4.83	0.104	0.0042
313.2	5.31	0.1141	0.0046
323.2	1.56	0.0233	0.001
323.2	2.53	0.0378	0.0016
323.2	3.35	0.0498	0.002
323.2	4.11	0.0611	0.0025
323.2	4.86	0.0718	0.0029
323.2	5.98	0.0884	0.0036
323.2	7.16	0.1054	0.0043
333.2	1.29	0.0138	0.0006
333.2	2.44	0.0257	0.0011
333.2	3.36	0.0353	0.0015
333.2	4.12	0.0432	0.0018
333.2	5.01	0.0527	0.0022
333.2	5.69	0.0597	0.0025
333.2	6.46	0.0676	0.0028
333.2	7.11	0.0741	0.003

System: acetone + 1-butyl-3-methylimidazolium hexafluorophosphate; phases: Liquid, Gas
Property: Mole fraction of acetone (Liquid); method: Phase equilibration
Temperature, K	Pressure, kPa	Mole fraction of acetone	uncertainty
303.2	0.68	0.0268	0.0013
303.2	1.61	0.0612	0.0026
303.2	2.29	0.0866	0.0036
303.2	2.81	0.1066	0.0044
303.2	3.28	0.1247	0.0051
303.2	3.75	0.1424	0.0058
303.2	4.19	0.1588	0.0065
313.2	0.93	0.0248	0.0011
313.2	2.04	0.0535	0.0022
313.2	2.61	0.068	0.0028
313.2	3.15	0.0822	0.0034
313.2	3.72	0.0968	0.004
313.2	4.29	0.1119	0.0046
313.2	4.85	0.1261	0.0051
313.2	5.36	0.1393	0.0057
323.2	0.95	0.0172	0.0008
323.2	1.95	0.034	0.0014
323.2	2.73	0.048	0.002
323.2	3.69	0.0642	0.0026
323.2	4.56	0.0792	0.0033
323.2	5.25	0.0911	0.0037
323.2	5.96	0.1033	0.0042
333.2	1.29	0.0164	0.0007
333.2	2.58	0.032	0.0013
333.2	3.7	0.0463	0.0019
333.2	5.21	0.0638	0.0026
333.2	6.14	0.0751	0.0031
333.2	6.97	0.0852	0.0035
333.2	7.84	0.0956	0.0039
333.2	8.34	0.1018	0.0041

System: acetone + 1-hexyl-3-methylimidazolium hexafluorophosphate; phases: Liquid, Gas
Property: Mole fraction of acetone (Liquid); method: Phase equilibration
Temperature, K	Pressure, kPa	Mole fraction of acetone	uncertainty
303.2	0.61	0.0272	0.0014
303.2	1.21	0.0538	0.0024
303.2	1.79	0.079	0.0033
303.2	2.31	0.1016	0.0042
303.2	2.78	0.1226	0.0051
303.2	3.18	0.1403	0.0058
303.2	3.53	0.1549	0.0063
313.2	0.74	0.0219	0.0011
313.2	1.45	0.0422	0.0018
313.2	2.18	0.0634	0.0027
313.2	2.76	0.0803	0.0033
313.2	3.32	0.0966	0.004
313.2	3.9	0.1143	0.0047
313.2	4.42	0.1271	0.0052
323.2	0.92	0.0185	0.0009
323.2	1.87	0.0371	0.0016
323.2	2.88	0.0564	0.0023
323.2	3.75	0.0733	0.0031
323.2	4.49	0.0877	0.0036
323.2	5.02	0.0979	0.004
323.2	5.59	0.1089	0.0044
323.2	6.98	0.1357	0.0055
333.2	1.14	0.0155	0.0007
333.2	2.43	0.0325	0.0014
333.2	3.29	0.0442	0.0018
333.2	4.34	0.0585	0.0024
333.2	5.05	0.0682	0.0028
333.2	6.39	0.0862	0.0036
333.2	7.31	0.0976	0.004

System: acetone + 1-ethyl-3-methylimidazolium bis((trifluoromethyl)sulfonyl)imide; phases: Liquid, Gas
Property: Mole fraction of acetone (Liquid); method: Phase equilibration
Temperature, K	Pressure, kPa	Mole fraction of acetone	uncertainty
303.2	0.51	0.032	0.0018
303.2	0.97	0.0604	0.0027
303.2	1.52	0.0941	0.004
303.2	2.01	0.124	0.0052
303.2	2.41	0.1485	0.0061
303.2	2.85	0.1744	0.0072
303.2	3.21	0.1969	0.0081
313.2	0.67	0.0275	0.0014
313.2	1.68	0.0688	0.0029
313.2	2.19	0.0887	0.0037
313.2	2.75	0.1116	0.0046
313.2	3.43	0.1386	0.0057
313.2	4.02	0.1616	0.0066
313.2	4.48	0.1796	0.0073
323.2	0.87	0.0241	0.0011
323.2	1.78	0.0487	0.0021
323.2	3.31	0.0902	0.0038
323.2	3.96	0.1075	0.0044
323.2	4.89	0.1334	0.0054
323.2	5.61	0.1518	0.0062
323.2	6.19	0.1671	0.0068
333.2	0.99	0.019	0.0009
333.2	1.89	0.036	0.0015
333.2	2.78	0.0527	0.0022
333.2	3.67	0.0695	0.0029
333.2	4.41	0.0835	0.0034
333.2	5.12	0.0965	0.004
333.2	6.01	0.1127	0.0046

System: acetone + 1-butyl-3-methylimidazolium bis(trifluoromethylsulfonyl)imide; phases: Liquid, Gas
Property: Mole fraction of acetone (Liquid); method: Phase equilibration
Temperature, K	Pressure, kPa	Mole fraction of acetone	uncertainty
303.2	0.51	0.0334	0.0019
303.2	1.16	0.0767	0.0034
303.2	1.57	0.1024	0.0043
303.2	1.98	0.1295	0.0054
303.2	2.34	0.1518	0.0063
303.2	2.63	0.169	0.007
303.2	3.08	0.1969	0.0081
313.2	0.83	0.0359	0.0017
313.2	1.43	0.0616	0.0026
313.2	2.07	0.0878	0.0037
313.2	3.02	0.1278	0.0053
313.2	3.68	0.1541	0.0063
313.2	4.11	0.1724	0.0071
313.2	4.74	0.1975	0.008
323.2	0.98	0.0289	0.0013
323.2	1.98	0.0577	0.0024
323.2	3.54	0.1015	0.0042
323.2	4.62	0.1325	0.0054
323.2	5.08	0.1452	0.006
323.2	6.09	0.1739	0.0071
323.2	6.65	0.1889	0.0077
323.2	7.37	0.2092	0.0085
333.2	1.16	0.0239	0.0011
333.2	2.25	0.0456	0.0019
333.2	2.98	0.0601	0.0025
333.2	3.7	0.0745	0.0031
333.2	4.42	0.088	0.0036
333.2	6.09	0.1212	0.005
333.2	6.85	0.1358	0.0056

System: acetone + 1-hexyl-3-methylimidazolium bis[(trifluoromethyl)sulfonyl]imide; phases: Liquid, Gas
Property: Mole fraction of acetone (Liquid); method: Phase equilibration
Temperature, K	Pressure, kPa	Mole fraction of acetone	uncertainty
303.2	0.53	0.0379	0.002
303.2	1.09	0.0748	0.0033
303.2	1.62	0.1097	0.0046
303.2	2.07	0.1407	0.0059
303.2	2.51	0.1709	0.0071
303.2	2.89	0.1961	0.0081
303.2	3.21	0.2167	0.0089
303.2	3.51	0.2359	0.0097
313.2	0.76	0.0351	0.0017
313.2	1.49	0.0669	0.0029
313.2	2.19	0.0969	0.004
313.2	2.79	0.1241	0.0052
313.2	3.35	0.1481	0.006
313.2	3.86	0.1699	0.007
313.2	4.31	0.1903	0.0078
323.2	1.09	0.034	0.0015
323.2	1.98	0.0601	0.0025
323.2	2.76	0.0826	0.0034
323.2	3.92	0.1156	0.0048
323.2	5.34	0.1567	0.0064
323.2	6.22	0.1806	0.0073
323.2	6.79	0.1977	0.008
323.2	8.13	0.2354	0.0095
333.2	1.59	0.0336	0.0015
333.2	2.64	0.0551	0.0023
333.2	4.12	0.0854	0.0035
333.2	5.55	0.1154	0.0047
333.2	6.54	0.1354	0.0056
333.2	7.49	0.1545	0.0063
333.2	8.12	0.1676	0.0069
333.2	9.05	0.1849	0.0075
