Measured thermophysical data. Oxygenated Compounds + Hydrocarbon Mixtures in Fuels and Biofuels: Excess Enthalpies of Ternary Mixtures Containing 1-Butoxybutane + Propan-1-ol +1-Hex-1-ene, or Heptane, or 2,2,4-Trimethylpentane at (298.15 and 313.15) K
Source: J. Chem. Eng. Data, 2014, 10.1021/je5004912
Compound 1: propan-1-ol, C3H8O, InChI=1S/C3H8O/c1-2-3-4/h4H,2-3H2,1H3, purity 99.9%
Compound 2: dibutyl ether, C8H18O, InChI=1S/C8H18O/c1-3-5-7-9-8-6-4-2/h3-8H2,1-2H3, purity 99.3%
Compound 3: hex-1-ene, C6H12, InChI=1S/C6H12/c1-3-5-6-4-2/h3H,1,4-6H2,2H3, purity 99.3%
Compound 4: heptane, C7H16, InChI=1S/C7H16/c1-3-5-7-6-4-2/h3-7H2,1-2H3, purity 99.8%
Compound 5: 2,2,4-trimethylpentane, C8H18, InChI=1S/C8H18/c1-7(2)6-8(3,4)5/h7H,6H2,1-5H3, purity 99.9%

System: propan-1-ol + dibutyl ether; phases: Liquid
Fixed: Pressure, kPa = 101
Property: Excess molar enthalpy (molar enthalpy of mixing), kJ/mol (Liquid); method: Flow calorimetry
Temperature, K	Mole fraction of dibutyl ether	Excess molar enthalpy (molar enthalpy of mixing), kJ/mol	uncertainty
298.15	0.0501	0.13	0.011
298.15	0.0998	0.252	0.011
298.15	0.15	0.369	0.011
298.15	0.2	0.477	0.011
298.15	0.2495	0.573	0.011
298.15	0.2999	0.662	0.012
298.15	0.35	0.739	0.012
298.15	0.3998	0.806	0.012
298.15	0.4499	0.86	0.012
298.15	0.4997	0.903	0.012
298.15	0.5498	0.935	0.012
298.15	0.5998	0.951	0.012
298.15	0.6494	0.951	0.012
298.15	0.6995	0.934	0.012
298.15	0.7499	0.895	0.012
298.15	0.8002	0.831	0.012
298.15	0.8501	0.731	0.012
298.15	0.8992	0.584	0.013
298.15	0.9492	0.353	0.013
313.15	0.0502	0.15	0.011
313.15	0.0998	0.291	0.011
313.15	0.1501	0.424	0.011
313.15	0.2001	0.547	0.012
313.15	0.2495	0.656	0.012
313.15	0.3	0.756	0.012
313.15	0.35	0.843	0.012
313.15	0.3999	0.915	0.013
313.15	0.45	0.975	0.013
313.15	0.4997	1.02	0.013
313.15	0.5498	1.052	0.013
313.15	0.5999	1.066	0.013
313.15	0.6495	1.063	0.013
313.15	0.6996	1.041	0.013
313.15	0.7499	0.993	0.013
313.15	0.8002	0.914	0.013
313.15	0.8501	0.797	0.013
313.15	0.8992	0.628	0.013
313.15	0.9492	0.371	0.013

System: propan-1-ol + hex-1-ene; phases: Liquid
Fixed: Pressure, kPa = 101
Property: Excess molar enthalpy (molar enthalpy of mixing), kJ/mol (Liquid); method: Flow calorimetry
Temperature, K	Mole fraction of hex-1-ene	Excess molar enthalpy (molar enthalpy of mixing), kJ/mol	uncertainty
298.15	0.0501	0.061	0.01
298.15	0.1003	0.126	0.01
298.15	0.1501	0.192	0.01
298.15	0.2002	0.256	0.011
298.15	0.2501	0.319	0.011
298.15	0.3004	0.382	0.011
298.15	0.3501	0.442	0.011
298.15	0.4007	0.498	0.011
298.15	0.4501	0.552	0.011
298.15	0.5001	0.595	0.011
298.15	0.5504	0.634	0.011
298.15	0.5998	0.664	0.012
298.15	0.6505	0.683	0.012
298.15	0.6998	0.69	0.012
298.15	0.75	0.682	0.012
298.15	0.7999	0.659	0.012
298.15	0.8505	0.616	0.011
298.15	0.9004	0.548	0.011
298.15	0.9508	0.427	0.011
313.15	0.0501	0.092	0.011
313.15	0.1002	0.186	0.011
313.15	0.1501	0.279	0.011
313.15	0.2001	0.37	0.011
313.15	0.2499	0.457	0.011
313.15	0.3003	0.542	0.011
313.15	0.3499	0.621	0.012
313.15	0.4006	0.695	0.012
313.15	0.4499	0.758	0.012
313.15	0.4998	0.814	0.012
313.15	0.5502	0.86	0.012
313.15	0.5996	0.894	0.012
313.15	0.6503	0.914	0.012
313.15	0.6996	0.919	0.012
313.15	0.75	0.907	0.012
313.15	0.7998	0.875	0.012
313.15	0.8505	0.815	0.012
313.15	0.9004	0.721	0.012
313.15	0.9508	0.547	0.012

System: propan-1-ol + heptane; phases: Liquid
Fixed: Pressure, kPa = 101
Property: Excess molar enthalpy (molar enthalpy of mixing), kJ/mol (Liquid); method: Flow calorimetry
Temperature, K	Mole fraction of heptane	Excess molar enthalpy (molar enthalpy of mixing), kJ/mol	uncertainty
298.15	0.0503	0.096	0.01
298.15	0.1002	0.182	0.011
298.15	0.1501	0.259	0.011
298.15	0.2001	0.329	0.011
298.15	0.2499	0.391	0.011
298.15	0.3004	0.448	0.011
298.15	0.3505	0.499	0.011
298.15	0.4005	0.544	0.011
298.15	0.4501	0.583	0.011
298.15	0.4997	0.614	0.011
298.15	0.5505	0.639	0.011
298.15	0.5996	0.655	0.011
298.15	0.6506	0.661	0.011
298.15	0.7005	0.657	0.011
298.15	0.7504	0.639	0.011
298.15	0.8001	0.606	0.011
298.15	0.8493	0.559	0.011
298.15	0.8993	0.492	0.011
298.15	0.9503	0.382	0.011
313.15	0.0503	0.122	0.011
313.15	0.1001	0.236	0.011
313.15	0.15	0.339	0.011
313.15	0.2	0.433	0.011
313.15	0.2498	0.517	0.011
313.15	0.3004	0.595	0.011
313.15	0.3503	0.665	0.012
313.15	0.4003	0.726	0.012
313.15	0.4498	0.777	0.012
313.15	0.4996	0.819	0.012
313.15	0.5503	0.851	0.012
313.15	0.5995	0.872	0.012
313.15	0.6505	0.881	0.012
313.15	0.7004	0.876	0.012
313.15	0.7503	0.855	0.012
313.15	0.8	0.815	0.012
313.15	0.8492	0.755	0.012
313.15	0.8993	0.668	0.012
313.15	0.9503	0.514	0.012

System: propan-1-ol + 2,2,4-trimethylpentane; phases: Liquid
Fixed: Pressure, kPa = 101
Property: Excess molar enthalpy (molar enthalpy of mixing), kJ/mol (Liquid); method: Flow calorimetry
Temperature, K	Mole fraction of 2,2,4-trimethylpentane	Excess molar enthalpy (molar enthalpy of mixing), kJ/mol	uncertainty
298.15	0.05	0.087	0.01
298.15	0.1001	0.167	0.01
298.15	0.1505	0.241	0.011
298.15	0.2003	0.308	0.011
298.15	0.2501	0.369	0.011
298.15	0.2999	0.427	0.011
298.15	0.3499	0.479	0.011
298.15	0.4006	0.526	0.011
298.15	0.4503	0.567	0.011
298.15	0.4997	0.602	0.011
298.15	0.5504	0.63	0.011
298.15	0.5998	0.648	0.011
298.15	0.65	0.656	0.011
298.15	0.7008	0.655	0.011
298.15	0.7502	0.64	0.011
298.15	0.7994	0.611	0.011
298.15	0.8499	0.566	0.011
298.15	0.8998	0.502	0.011
298.15	0.9506	0.392	0.011
313.15	0.05	0.118	0.011
313.15	0.1	0.227	0.011
313.15	0.1504	0.328	0.011
313.15	0.2002	0.419	0.011
313.15	0.25	0.504	0.011
313.15	0.2997	0.581	0.011
313.15	0.3498	0.653	0.012
313.15	0.4004	0.718	0.012
313.15	0.4502	0.772	0.012
313.15	0.4995	0.817	0.012
313.15	0.5503	0.851	0.012
313.15	0.5997	0.875	0.012
313.15	0.6498	0.883	0.012
313.15	0.7007	0.881	0.012
313.15	0.7501	0.862	0.012
313.15	0.7993	0.826	0.012
313.15	0.8499	0.769	0.012
313.15	0.8998	0.684	0.012
313.15	0.9506	0.518	0.012

System: propan-1-ol + dibutyl ether + hex-1-ene; phases: Liquid
Fixed: Pressure, kPa = 101
Property: Molar enthalpy of mixing with solvent, kJ/mol of hex-1-ene (Liquid); method: Flow calorimetry
Temperature, K	Solvent: Amount ratio of component to other component of binary solvent of dibutyl ether	Mole fraction of hex-1-ene	Molar enthalpy of mixing with solvent, kJ/mol of hex-1-ene	uncertainty
298.15	0.2499	0.9498	0.37	0.011
298.15	0.2499	0.8996	0.467	0.011
298.15	0.2499	0.8506	0.512	0.011
298.15	0.2499	0.8005	0.542	0.011
298.15	0.2499	0.7006	0.555	0.011
298.15	0.2499	0.6006	0.529	0.011
298.15	0.2499	0.4997	0.472	0.011
298.15	0.2499	0.4005	0.398	0.011
298.15	0.2499	0.3006	0.309	0.011
298.15	0.2499	0.2004	0.21	0.01
298.15	0.2499	0.1006	0.106	0.01
298.15	0.6667	0.9502	0.301	0.011
298.15	0.6667	0.8998	0.378	0.011
298.15	0.6667	0.8498	0.41	0.011
298.15	0.6667	0.7993	0.425	0.011
298.15	0.6667	0.7	0.424	0.011
298.15	0.6667	0.5995	0.397	0.011
298.15	0.6667	0.4992	0.351	0.011
298.15	0.6667	0.4001	0.295	0.01
298.15	0.6667	0.3001	0.228	0.01
298.15	0.6667	0.1995	0.155	0.01
298.15	0.6667	0.1001	0.078	0.01
298.15	1.5005	0.9504	0.225	0.01
298.15	1.5005	0.8996	0.29	0.01
298.15	1.5005	0.8504	0.313	0.01
298.15	1.5005	0.8	0.32	0.01
298.15	1.5005	0.7004	0.312	0.01
298.15	1.5005	0.5999	0.286	0.01
298.15	1.5005	0.5004	0.249	0.01
298.15	1.5005	0.3999	0.207	0.01
298.15	1.5005	0.3004	0.159	0.01
298.15	1.5005	0.1999	0.108	0.01
298.15	1.5005	0.1005	0.054	0.01
298.15	4.0052	0.9496	0.122	0.01
298.15	4.0052	0.8999	0.174	0.01
298.15	4.0052	0.8501	0.194	0.01
298.15	4.0052	0.8002	0.199	0.01
298.15	4.0052	0.7001	0.191	0.01
298.15	4.0052	0.6	0.172	0.01
298.15	4.0052	0.5	0.147	0.01
298.15	4.0052	0.4005	0.12	0.01
298.15	4.0052	0.3004	0.09	0.01
298.15	4.0052	0.2	0.06	0.01
298.15	4.0052	0.1006	0.03	0.01
313.15	0.25	0.9498	0.466	0.012
313.15	0.25	0.8997	0.61	0.012
313.15	0.25	0.8507	0.68	0.012
313.15	0.25	0.8006	0.719	0.012
313.15	0.25	0.7007	0.741	0.012
313.15	0.25	0.6007	0.71	0.012
313.15	0.25	0.4998	0.641	0.011
313.15	0.25	0.4006	0.543	0.011
313.15	0.25	0.3006	0.426	0.011
313.15	0.25	0.2004	0.292	0.011
313.15	0.25	0.1005	0.149	0.01
313.15	0.6667	0.9502	0.369	0.011
313.15	0.6667	0.8998	0.492	0.011
313.15	0.6667	0.8499	0.546	0.011
313.15	0.6667	0.8005	0.57	0.011
313.15	0.6667	0.7	0.575	0.011
313.15	0.6667	0.5997	0.541	0.011
313.15	0.6667	0.5004	0.484	0.011
313.15	0.6667	0.4001	0.408	0.011
313.15	0.6667	0.3001	0.319	0.011
313.15	0.6667	0.2004	0.219	0.01
313.15	0.6667	0.1001	0.111	0.01
313.15	1.5003	0.9504	0.257	0.011
313.15	1.5003	0.8996	0.364	0.011
313.15	1.5003	0.8505	0.407	0.011
313.15	1.5003	0.8	0.424	0.011
313.15	1.5003	0.7004	0.42	0.011
313.15	1.5003	0.5998	0.389	0.011
313.15	1.5003	0.5003	0.343	0.011
313.15	1.5003	0.3998	0.286	0.01
313.15	1.5003	0.3003	0.221	0.01
313.15	1.5003	0.1999	0.15	0.01
313.15	1.5003	0.1004	0.077	0.01
313.15	4.0036	0.9496	0.125	0.01
313.15	4.0036	0.9	0.196	0.01
313.15	4.0036	0.8499	0.232	0.01
313.15	4.0036	0.7001	0.246	0.01
313.15	4.0036	0.5999	0.228	0.01
313.15	4.0036	0.5	0.198	0.01
313.15	4.0036	0.4003	0.163	0.01
313.15	4.0036	0.3003	0.125	0.01
313.15	4.0036	0.1999	0.084	0.01
313.15	4.0036	0.1006	0.042	0.01

System: propan-1-ol + heptane + dibutyl ether; phases: Liquid
Fixed: Pressure, kPa = 101
Property: Molar enthalpy of mixing with solvent, kJ/mol of heptane (Liquid); method: Flow calorimetry
Temperature, K	Solvent: Amount ratio of component to other component of binary solvent of dibutyl ether	Mole fraction of heptane	Molar enthalpy of mixing with solvent, kJ/mol of heptane	uncertainty
298.15	0.2502	0.9003	0.425	0.011
298.15	0.2502	0.8007	0.517	0.011
298.15	0.2502	0.6996	0.555	0.011
298.15	0.2502	0.6004	0.554	0.011
298.15	0.2502	0.3002	0.389	0.011
298.15	0.2502	0.2004	0.286	0.011
298.15	0.2502	0.1503	0.225	0.01
298.15	0.2502	0.0998	0.157	0.01
298.15	0.2502	0.5005	0.524	0.011
298.15	0.2502	0.4	0.468	0.011
298.15	0.2502	0.0499	0.082	0.01
298.15	0.6667	0.8995	0.365	0.011
298.15	0.6667	0.7999	0.435	0.011
298.15	0.6667	0.7005	0.461	0.011
298.15	0.6667	0.6004	0.46	0.011
298.15	0.6667	0.5001	0.436	0.011
298.15	0.6667	0.4001	0.389	0.011
298.15	0.6667	0.3006	0.324	0.011
298.15	0.6667	0.2003	0.238	0.01
298.15	0.6667	0.1501	0.187	0.01
298.15	0.6667	0.1005	0.131	0.01
298.15	0.6667	0.0499	0.068	0.01
298.15	1.5304	0.9501	0.233	0.011
298.15	1.5304	0.8996	0.298	0.011
298.15	1.5304	0.8496	0.332	0.011
298.15	1.5304	0.8001	0.353	0.011
298.15	1.5304	0.6996	0.373	0.011
298.15	1.5304	0.6001	0.371	0.011
298.15	1.5304	0.4998	0.35	0.011
298.15	1.5304	0.3996	0.313	0.01
298.15	1.5304	0.2997	0.259	0.01
298.15	1.5304	0.2001	0.19	0.01
298.15	1.5304	0.0999	0.103	0.01
298.15	4	0.9503	0.156	0.01
298.15	4	0.9004	0.217	0.01
298.15	4	0.8504	0.25	0.01
298.15	4	0.8002	0.271	0.01
298.15	4	0.7005	0.291	0.01
298.15	4	0.6003	0.292	0.01
298.15	4	0.5006	0.276	0.01
298.15	4	0.4003	0.247	0.01
298.15	4	0.3006	0.205	0.01
298.15	4	0.2003	0.149	0.01
298.15	4	0.1004	0.082	0.01
313.15	0.2501	0.9508	0.446	0.012
313.15	0.2501	0.9004	0.576	0.012
313.15	0.2501	0.8503	0.648	0.012
313.15	0.2501	0.8008	0.694	0.012
313.15	0.2501	0.5016	0.683	0.012
313.15	0.2501	0.4011	0.605	0.011
313.15	0.2501	0.3011	0.499	0.011
313.15	0.2501	0.2012	0.364	0.011
313.15	0.2501	0.701	0.735	0.012
313.15	0.2501	0.6016	0.727	0.012
313.15	0.2501	0.1006	0.198	0.011
313.15	0.6674	0.9498	0.377	0.011
313.15	0.6674	0.8994	0.49	0.011
313.15	0.6674	0.8503	0.544	0.011
313.15	0.6674	0.7999	0.579	0.011
313.15	0.6674	0.7005	0.604	0.011
313.15	0.6674	0.6003	0.594	0.011
313.15	0.6674	0.5	0.556	0.011
313.15	0.6674	0.4001	0.492	0.011
313.15	0.6674	0.3006	0.405	0.011
313.15	0.6674	0.2002	0.294	0.011
313.15	0.6674	0.1005	0.159	0.01
313.15	1.4997	0.9501	0.288	0.011
313.15	1.4997	0.8996	0.392	0.011
313.15	1.4997	0.8495	0.439	0.011
313.15	1.4997	0.8001	0.466	0.011
313.15	1.4997	0.6995	0.485	0.011
313.15	1.4997	0.6	0.475	0.011
313.15	1.4997	0.4997	0.442	0.011
313.15	1.4997	0.3995	0.389	0.011
313.15	1.4997	0.2996	0.319	0.011
313.15	1.4997	0.2	0.231	0.01
313.15	1.4997	0.0998	0.124	0.01
313.15	4.0032	0.9503	0.165	0.011
313.15	4.0032	0.9004	0.254	0.011
313.15	4.0032	0.8503	0.302	0.01
313.15	4.0032	0.8001	0.33	0.01
313.15	4.0032	0.7004	0.352	0.011
313.15	4.0032	0.6001	0.348	0.011
313.15	4.0032	0.5004	0.327	0.01
313.15	4.0032	0.4002	0.289	0.01
313.15	4.0032	0.3004	0.237	0.01
313.15	4.0032	0.2002	0.171	0.01
313.15	4.0032	0.1004	0.091	0.01

System: propan-1-ol + dibutyl ether + 2,2,4-trimethylpentane; phases: Liquid
Fixed: Pressure, kPa = 101
Property: Molar enthalpy of mixing with solvent, kJ/mol of 2,2,4-trimethylpentane (Liquid); method: Flow calorimetry
Temperature, K	Solvent: Amount ratio of component to other component of binary solvent of dibutyl ether	Mole fraction of 2,2,4-trimethylpentane	Molar enthalpy of mixing with solvent, kJ/mol of 2,2,4-trimethylpentane	uncertainty
298.15	0.25	0.9004	0.437	0.011
298.15	0.25	0.8002	0.522	0.011
298.15	0.25	0.7007	0.554	0.011
298.15	0.25	0.6004	0.55	0.011
298.15	0.25	0.4999	0.515	0.011
298.15	0.25	0.4007	0.456	0.011
298.15	0.25	0.3005	0.375	0.011
298.15	0.25	0.2001	0.273	0.011
298.15	0.25	0.1001	0.149	0.01
298.15	0.6667	0.9006	0.373	0.011
298.15	0.6667	0.8008	0.439	0.011
298.15	0.6667	0.7	0.46	0.011
298.15	0.6667	0.6004	0.454	0.011
298.15	0.6667	0.5002	0.427	0.011
298.15	0.6667	0.4004	0.38	0.011
298.15	0.6667	0.2999	0.313	0.011
298.15	0.6667	0.2005	0.229	0.01
298.15	0.6667	0.1503	0.179	0.01
298.15	0.6667	0.0999	0.124	0.01
298.15	0.6667	0.0503	0.065	0.01
298.15	1.5	0.9004	0.308	0.01
298.15	1.5	0.8001	0.362	0.011
298.15	1.5	0.7005	0.377	0.011
298.15	1.5	0.5998	0.372	0.011
298.15	1.5	0.5004	0.35	0.011
298.15	1.5	0.4005	0.311	0.01
298.15	1.5	0.3002	0.257	0.01
298.15	1.5	0.2002	0.188	0.01
298.15	1.5	0.1498	0.147	0.01
298.15	1.5	0.0998	0.102	0.01
298.15	1.5	0.0501	0.053	0.01
298.15	4.0025	0.9	0.221	0.01
298.15	4.0025	0.7996	0.274	0.01
298.15	4.0025	0.7	0.292	0.01
298.15	4.0025	0.6001	0.289	0.01
298.15	4.0025	0.5	0.273	0.01
298.15	4.0025	0.3997	0.244	0.01
298.15	4.0025	0.3004	0.202	0.01
298.15	4.0025	0.2	0.147	0.01
298.15	4.0025	0.15	0.115	0.01
298.15	4.0025	0.1005	0.08	0.01
298.15	4.0025	0.0505	0.041	0.01
313.15	0.25	0.9499	0.462	0.012
313.15	0.25	0.9003	0.591	0.012
313.15	0.25	0.8498	0.662	0.012
313.15	0.25	0.8	0.703	0.012
313.15	0.25	0.7004	0.738	0.012
313.15	0.25	0.6001	0.728	0.012
313.15	0.25	0.5007	0.68	0.012
313.15	0.25	0.4003	0.599	0.011
313.15	0.25	0.3003	0.49	0.011
313.15	0.25	0.1999	0.354	0.011
313.15	0.25	0.1001	0.191	0.011
313.15	0.6666	0.9495	0.389	0.011
313.15	0.6666	0.9005	0.505	0.011
313.15	0.6666	0.8504	0.556	0.011
313.15	0.6666	0.8006	0.588	0.011
313.15	0.6666	0.6999	0.611	0.011
313.15	0.6666	0.6002	0.597	0.011
313.15	0.6666	0.5001	0.555	0.011
313.15	0.6666	0.4003	0.489	0.011
313.15	0.6666	0.2998	0.399	0.011
313.15	0.6666	0.2005	0.289	0.011
313.15	0.6666	0.0999	0.156	0.01
313.15	1.4992	0.9502	0.293	0.011
313.15	1.4992	0.9003	0.401	0.011
313.15	1.4992	0.7999	0.474	0.011
313.15	1.4992	0.7003	0.491	0.011
313.15	1.4992	0.5995	0.478	0.011
313.15	1.4992	0.5001	0.443	0.011
313.15	1.4992	0.4001	0.389	0.011
313.15	1.4992	0.3	0.318	0.011
313.15	1.4992	0.2001	0.229	0.01
313.15	1.4992	0.0996	0.123	0.01
313.15	1.4992	0.05	0.064	0.01
313.15	4	0.9497	0.166	0.011
313.15	4	0.9	0.257	0.011
313.15	4	0.8495	0.305	0.01
313.15	4	0.7995	0.334	0.01
313.15	4	0.6998	0.355	0.011
313.15	4	0.5999	0.35	0.011
313.15	4	0.4998	0.326	0.01
313.15	4	0.3995	0.288	0.01
313.15	4	0.3001	0.237	0.01
313.15	4	0.1998	0.17	0.01
313.15	4	0.1498	0.133	0.01
313.15	4	0.1004	0.092	0.01
313.15	4	0.0504	0.047	0.01
