Measured thermophysical data. Liquid Liquid Equilibria for Ternary Systems: Methyl Butyl Ketone + Phenol + Water and Methyl Butyl Ketone + Hydroquinone + Water at 298.15 K and 323.15 K
Source: J. Chem. Eng. Data, 2014, 10.1021/je500532v
Compound 1: 2-hexanone, C6H12O, InChI=1S/C6H12O/c1-3-4-5-6(2)7/h3-5H2,1-2H3, purity 99%
Compound 2: phenol, C6H6O, InChI=1S/C6H6O/c7-6-4-2-1-3-5-6/h1-5,7H, purity 99.5%
Compound 3: 1,4-benzenediol, C6H6O2, InChI=1S/C6H6O2/c7-5-1-2-6(8)4-3-5/h1-4,7-8H, purity 99%
Compound 4: water, H2O, InChI=1S/H2O/h1H2, purity 99.9%

System: phenol + 2-hexanone + water; phases: Liquid mixture 1, Liquid mixture 2
Fixed: Pressure, kPa = 101
Property: Mass fraction of phenol (Liquid mixture 1); method: Chromatography
Property: Mass fraction of phenol (Liquid mixture 2); method: Chromatography
Property: Mass fraction of 2-hexanone (Liquid mixture 2); method: Chromatography
Temperature, K	Mass fraction of 2-hexanone	Mass fraction of phenol	uncertainty	Mass fraction of phenol	uncertainty	Mass fraction of 2-hexanone	uncertainty
298.15	0.8639	0.0982	0.0028	0.00107	0.00104	0.01212	
298.15	0.8894	0.0751	0.0028	0.00074	0.00074	0.01236	
298.15	0.8989	0.0665	0.0027	0.00067	0.00067	0.01241	
298.15	0.9559	0.018	0.0026	0.00016	0.00016	0.01264	
298.15	0.9195	0.0483	0.0022	0.00045	0.00045	0.0125	
298.15	0.9217	0.0474	0.0022	0.0004	0.0004	0.01252	
298.15	0.9358	0.0329	0.0027	0.00032	0.00032	0.01257	
298.15	0.9432	0.0279	0.0025	0.00026	0.00026	0.0126	
298.15	0.95	0.0227	0.0025	0.0002	0.0002	0.01262	
298.15	0.9773	0		0		0.01583	
323.15	0.7004	0.2408	0.0032	0.00507	0.00234	0.00787	
323.15	0.8965	0.0655	0.0028	0.00098	0.00098	0.00975	
323.15	0.7607	0.1861	0.003	0.00386	0.00199	0.00825	
323.15	0.8042	0.1511	0.0028	0.00283	0.00248	0.00877	
323.15	0.8307	0.127	0.0028	0.00207	0.00174	0.00929	
323.15	0.8488	0.1123	0.0028	0.00165	0.00165	0.00948	
323.15	0.8729	0.0889	0.0029	0.00122	0.00122	0.00972	
323.15	0.908	0.0543	0.0027	0.00075	0.00075	0.00976	
298.15	0.8803	0.0836	0.0028	0.00089	0.00089	0.01224	
323.15	0.9211	0.0436	0.0026	0.00054	0.00054	0.00978	
323.15	0.9273	0.0379	0.0027	0.0005	0.0005	0.00978	
323.15	0.9352	0.0313	0.0027	0.00039	0.00039	0.0098	
323.15	0.9476	0.0198	0.0027	0.00026	0.00026	0.00983	
323.15	0.9709	0		0		0.01093	

System: 1,4-benzenediol + 2-hexanone + water; phases: Liquid mixture 1, Liquid mixture 2
Fixed: Pressure, kPa = 101
Property: Mass fraction of 2-hexanone (Liquid mixture 1); method: Chromatography
Property: Mass fraction of 2-hexanone (Liquid mixture 2); method: Chromatography
Property: Mass fraction of 1,4-benzenediol (Liquid mixture 2); method: Chromatography
Temperature, K	Mass fraction of 1,4-benzenediol	Mass fraction of 2-hexanone	uncertainty	Mass fraction of 2-hexanone	uncertainty	Mass fraction of 1,4-benzenediol	uncertainty
298.15	0.1988	0.7612	0.0034	0.01182	0.00101	0.01647	
298.15	0.0132	0.9605	0.003	0.01263	0.001	0.00063	
298.15	0.007	0.9669	0.0033	0.01284	0.00101	0.00033	
298.15	0	0.9773	0.002	0.01583	0.00101	0	
323.15	0.1695	0.7712	0.0035	0.00951	0.001	0.02376	
323.15	0.1481	0.7963	0.0035	0.00977	0.001	0.01916	
323.15	0.1282	0.8215	0.0034	0.00989	0.001	0.01654	
323.15	0.1103	0.841	0.0031	0.01001	0.001	0.01399	
323.15	0.0924	0.8592	0.0031	0.01002	0.001	0.01165	
323.15	0.0565	0.8986	0.0031	0.01004	0.001	0.00698	
323.15	0.0417	0.9168	0.0032	0.0101	0.001	0.00501	
298.15	0.15	0.8124	0.0032	0.01224	0.00101	0.01218	
323.15	0.0314	0.9286	0.0031	0.01013	0.00101	0.00337	
323.15	0.0255	0.935	0.003	0.01024	0.00101	0.00257	
323.15	0.0172	0.9442	0.0031	0.01049	0.00102	0.00171	
323.15	0.0069	0.9566	0.0031	0.01055	0.001	0.00062	
323.15	0.0046	0.9593	0.0047	0.01062	0.001	0.00034	
323.15	0	0.9709	0.002	0.01094	0.001	0	
298.15	0.1367	0.8279	0.0032	0.01232	0.001	0.01072	
298.15	0.1137	0.852	0.0031	0.0124	0.001	0.00826	
298.15	0.096	0.8718	0.003	0.01249	0.001	0.00654	
298.15	0.0617	0.9069	0.0029	0.01252	0.001	0.00415	
298.15	0.041	0.9279	0.003	0.01258	0.001	0.00243	
298.15	0.031	0.9402	0.0031	0.01261	0.001	0.00171	
298.15	0.0193	0.9532	0.003	0.01262	0.001	0.00098	

System: 2-hexanone + water; phases: Liquid mixture 1, Liquid mixture 2
Fixed: Pressure, kPa = 101
Property: Mass fraction of 2-hexanone (Liquid mixture 1); method: Chromatography
Temperature, K	Mass fraction of 2-hexanone	uncertainty
298.15	0.9773	0.002
323.15	0.9709	0.002

System: 2-hexanone + water; phases: Liquid mixture 2, Liquid mixture 1
Fixed: Pressure, kPa = 101
Property: Mass fraction of 2-hexanone (Liquid mixture 2); method: Chromatography
Temperature, K	Mass fraction of 2-hexanone	uncertainty
298.15	0.01583	0.00101
323.15	0.01093	0.001
