Measured thermophysical data. Vapor Liquid Equilibrium Data for Binary Systems of n-Dodecane + {Propan-1-ol, Butan-1-ol, 2-Methylpropan-1-ol} at 40 kPa
Source: J. Chem. Eng. Data, 2014, 10.1021/je500237g
Compound 1: propan-1-ol, C3H8O, InChI=1S/C3H8O/c1-2-3-4/h4H,2-3H2,1H3, purity 99.9%
Compound 2: butan-1-ol, C4H10O, InChI=1S/C4H10O/c1-2-3-4-5/h5H,2-4H2,1H3, purity 99.5%
Compound 3: 2-methyl-1-propanol, C4H10O, InChI=1S/C4H10O/c1-4(2)3-5/h4-5H,3H2,1-2H3, purity 99.9%
Compound 4: dodecane, C12H26, InChI=1S/C12H26/c1-3-5-7-9-11-12-10-8-6-4-2/h3-12H2,1-2H3, purity 99%

System: propan-1-ol; phases: Liquid
Property: Refractive index (Na D-line) (Liquid); method: Standard Abbe refractometry
Temperature, K	Pressure, kPa	Refractive index (Na D-line)	uncertainty
293.15	101.325	1.3851	0.0007

System: propan-1-ol; phases: Liquid
Property: Mass density, kg/m3 (Liquid); method: Vibrating tube method
Temperature, K	Pressure, kPa	Mass density, kg/m3	uncertainty
293.15	101.325	804.9	0.8

System: propan-1-ol; phases: Liquid, Gas
Property: Vapor or sublimation pressure, kPa (Liquid); method: Ebulliometric method (Recirculating still)
Temperature, K	Vapor or sublimation pressure, kPa	uncertainty
346.5	40	0.2

System: butan-1-ol; phases: Liquid
Property: Refractive index (Na D-line) (Liquid); method: Standard Abbe refractometry
Temperature, K	Pressure, kPa	Refractive index (Na D-line)	uncertainty
293.15	101.325	1.3992	0.0007

System: butan-1-ol; phases: Liquid
Property: Mass density, kg/m3 (Liquid); method: Vibrating tube method
Temperature, K	Pressure, kPa	Mass density, kg/m3	uncertainty
293.15	101.325	810.4	0.8

System: butan-1-ol; phases: Liquid, Gas
Property: Vapor or sublimation pressure, kPa (Liquid); method: Ebulliometric method (Recirculating still)
Temperature, K	Vapor or sublimation pressure, kPa	uncertainty
367.1	40	0.2

System: 2-methyl-1-propanol; phases: Liquid
Property: Refractive index (Na D-line) (Liquid); method: Standard Abbe refractometry
Temperature, K	Pressure, kPa	Refractive index (Na D-line)	uncertainty
293.15	101.325	1.3954	0.0007

System: 2-methyl-1-propanol; phases: Liquid
Property: Mass density, kg/m3 (Liquid); method: Vibrating tube method
Temperature, K	Pressure, kPa	Mass density, kg/m3	uncertainty
293.15	101.325	802.7	0.8

System: 2-methyl-1-propanol; phases: Liquid, Gas
Property: Vapor or sublimation pressure, kPa (Liquid); method: Ebulliometric method (Recirculating still)
Temperature, K	Vapor or sublimation pressure, kPa	uncertainty
357.6	40	0.2

System: dodecane; phases: Liquid
Property: Refractive index (Na D-line) (Liquid); method: Standard Abbe refractometry
Temperature, K	Pressure, kPa	Refractive index (Na D-line)	uncertainty
293.15	101.325	1.4218	0.0007

System: dodecane; phases: Liquid
Property: Mass density, kg/m3 (Liquid); method: Vibrating tube method
Temperature, K	Pressure, kPa	Mass density, kg/m3	uncertainty
293.15	101.325	750	0.8

System: dodecane; phases: Liquid, Gas
Property: Vapor or sublimation pressure, kPa (Liquid); method: Ebulliometric method (Recirculating still)
Temperature, K	Vapor or sublimation pressure, kPa	uncertainty
453.7	40	0.2

System: propan-1-ol + dodecane; phases: Liquid, Gas
Fixed: Pressure, kPa = 40
Property: Boiling temperature at pressure P, K (Liquid); method: Ebulliometric method (Recirculating still)
Mole fraction of dodecane	Boiling temperature at pressure P, K	uncertainty
0	346.5	0.1
0.01	346.6	0.2
0.015	346.8	0.2
0.047	347.4	0.2
0.218	349.3	0.1
0.474	351.7	0.1
0.627	352.6	0.1
0.796	355.6	0.9
0.954	391.3	8.2
0.975	412.9	9.6
0.995	440.5	6.9
1	453.7	0.1

System: propan-1-ol + dodecane; phases: Gas, Liquid
Fixed: Pressure, kPa = 40
Property: Mole fraction of dodecane (Gas); method: Chromatography
Mole fraction of dodecane	Mole fraction of dodecane	uncertainty
0	0	
0.01	0.002	0.002
0.015	0.002	0.002
0.047	0.005	0.005
0.218	0.009	0.008
0.474	0.014	0.008
0.627	0.015	0.008
0.796	0.018	0.008
0.954	0.111	0.059
0.975	0.265	0.115
0.995	0.703	0.11
1	1	

System: butan-1-ol + dodecane; phases: Liquid, Gas
Fixed: Pressure, kPa = 40
Property: Boiling temperature at pressure P, K (Liquid); method: Ebulliometric method (Recirculating still)
Mole fraction of dodecane	Boiling temperature at pressure P, K	uncertainty
0	367.1	0.1
0.007	366.1	0.2
0.015	366.5	0.3
0.076	367.1	0.2
0.133	368.2	0.2
0.25	369.6	0.1
0.387	371.3	0.1
0.51	372.7	0.2
0.608	374.4	0.2
0.712	376.6	0.2
0.786	379.2	0.5
0.863	385.9	1
0.891	392.6	2.5
0.934	408.2	3.8
0.953	423.5	5.4
0.957	426.6	5.5
1	453.7	0.1

System: butan-1-ol + dodecane; phases: Gas, Liquid
Fixed: Pressure, kPa = 40
Property: Mole fraction of dodecane (Gas); method: Chromatography
Mole fraction of dodecane	Mole fraction of dodecane	uncertainty
0	0	
0.007	0.002	0.002
0.015	0.004	0.004
0.076	0.016	0.008
0.133	0.02	0.008
0.25	0.027	0.008
0.387	0.034	0.008
0.51	0.038	0.008
0.608	0.043	0.008
0.712	0.052	0.008
0.786	0.058	0.008
0.863	0.085	0.009
0.891	0.116	0.018
0.934	0.22	0.033
0.953	0.381	0.097
0.957	0.428	0.096
1	1	

System: 2-methyl-1-propanol + dodecane; phases: Liquid, Gas
Fixed: Pressure, kPa = 40
Property: Boiling temperature at pressure P, K (Liquid); method: Ebulliometric method (Recirculating still)
Mole fraction of dodecane	Boiling temperature at pressure P, K	uncertainty
0	357.6	0.1
0.036	358.2	0.2
0.059	358.7	0.2
0.105	359.8	0.2
0.178	361	0.2
0.295	362.7	0.1
0.442	364.2	0.1
0.536	365.5	0.2
0.922	402.6	4.4
0.955	420.8	5.3
1	453.7	0.1

System: 2-methyl-1-propanol + dodecane; phases: Gas, Liquid
Fixed: Pressure, kPa = 40
Property: Mole fraction of dodecane (Gas); method: Chromatography
Mole fraction of dodecane	Mole fraction of dodecane	uncertainty
0	0	
0.036	0.004	0.004
0.059	0.005	0.005
0.105	0.01	0.008
0.178	0.011	0.008
0.295	0.015	0.008
0.442	0.017	0.008
0.536	0.019	0.008
0.922	0.161	0.042
0.955	0.329	0.088
1	1	
