Measured thermophysical data. Thermodynamic Properties of Ternary Liquid Mixtures Containing o-Chlorotoluene: Excess Molar Volumes and Excess Isentropic Compressibilities
Source: J. Chem. Eng. Data, 2014, 10.1021/je5004719
Compound 1: 2-chlorotoluene, C7H7Cl, InChI=1S/C7H7Cl/c1-6-4-2-3-5-7(6)8/h2-5H,1H3
Compound 2: tetrahydropyran, C5H10O, InChI=1S/C5H10O/c1-2-4-6-5-3-1/h1-5H2
Compound 3: benzene, C6H6, InChI=1S/C6H6/c1-2-4-6-5-3-1/h1-6H
Compound 4: toluene, C7H8, InChI=1S/C7H8/c1-7-5-3-2-4-6-7/h2-6H,1H3
Compound 5: 1,2-dimethylbenzene, C8H10, InChI=1S/C8H10/c1-7-5-3-4-6-8(7)2/h3-6H,1-2H3

System: 2-chlorotoluene; phases: Liquid
Fixed: Pressure, kPa = 101.325
Property: Mass density, kg/m3 (Liquid); method: Vibrating tube method
Temperature, K	Mass density, kg/m3	uncertainty
298.15	1077.3	1
303.15	1072.5	1
308.15	1067.6	1

System: 2-chlorotoluene; phases: Liquid
Fixed: Pressure, kPa = 101.325
Property: Speed of sound, m/s (Liquid); method: Sing-around technique in a fixed-path interferometer
Temperature, K	Speed of sound, m/s	uncertainty
298.15	1298.7	1
303.15	1280.7	1
308.15	1262.7	1

System: tetrahydropyran; phases: Liquid
Fixed: Pressure, kPa = 101.325
Property: Mass density, kg/m3 (Liquid); method: Vibrating tube method
Temperature, K	Mass density, kg/m3	uncertainty
298.15	879.13	1.01
303.15	873.99	1.01
308.15	868.83	1.01

System: tetrahydropyran; phases: Liquid
Fixed: Pressure, kPa = 101.325
Property: Speed of sound, m/s (Liquid); method: Sing-around technique in a fixed-path interferometer
Temperature, K	Speed of sound, m/s	uncertainty
298.15	1269.8	0.8
303.15	1246.8	0.8
308.15	1224.4	0.8

System: benzene; phases: Liquid
Fixed: Pressure, kPa = 101.325
Property: Mass density, kg/m3 (Liquid); method: Vibrating tube method
Temperature, K	Mass density, kg/m3	uncertainty
298.15	873.54	1
303.15	868.2	1.01
308.15	862.84	1.01

System: benzene; phases: Liquid
Fixed: Pressure, kPa = 101.325
Property: Speed of sound, m/s (Liquid); method: Sing-around technique in a fixed-path interferometer
Temperature, K	Speed of sound, m/s	uncertainty
298.15	1299.4	0.8
303.15	1276.07	0.77
308.15	1252.91	0.76

System: toluene; phases: Liquid
Fixed: Pressure, kPa = 101.325
Property: Mass density, kg/m3 (Liquid); method: Vibrating tube method
Temperature, K	Mass density, kg/m3	uncertainty
298.15	862.18	1.01
303.15	857.51	1.01
308.15	852.82	1.01

System: toluene; phases: Liquid
Fixed: Pressure, kPa = 101.325
Property: Speed of sound, m/s (Liquid); method: Sing-around technique in a fixed-path interferometer
Temperature, K	Speed of sound, m/s	uncertainty
298.15	1304.6	0.8
303.15	1283.2	0.8
308.15	1261.8	0.8

System: 1,2-dimethylbenzene; phases: Liquid
Fixed: Pressure, kPa = 101.325
Property: Mass density, kg/m3 (Liquid); method: Vibrating tube method
Temperature, K	Mass density, kg/m3	uncertainty
298.15	875.91	1
303.15	871.7	1
308.15	867.48	1

System: 1,2-dimethylbenzene; phases: Liquid
Fixed: Pressure, kPa = 101.325
Property: Speed of sound, m/s (Liquid); method: Sing-around technique in a fixed-path interferometer
Temperature, K	Speed of sound, m/s	uncertainty
298.15	1346.2	0.7
303.15	1326.2	0.7
308.15	1306.1	0.7

System: benzene + 2-chlorotoluene + tetrahydropyran; phases: Liquid
Fixed: Pressure, kPa = 101
Property: Mass density, kg/m3 (Liquid); method: Vibrating tube method
Temperature, K	Mole fraction of 2-chlorotoluene	Mole fraction of tetrahydropyran	Mass density, kg/m3	uncertainty
298.15	0.1038	0.8419	904.22	1.01
298.15	0.1171	0.8215	907.36	1.01
298.15	0.1312	0.8014	910.67	1.01
298.15	0.1495	0.7587	914.98	1.01
298.15	0.1567	0.7168	916.75	1.01
298.15	0.1746	0.7004	920.84	1.01
298.15	0.2085	0.6767	928.45	1.01
298.15	0.2978	0.6014	947.86	1.01
298.15	0.3178	0.5823	952.1	1.01
298.15	0.3516	0.5467	959.22	1.01
298.15	0.3824	0.4876	965.85	1.01
298.15	0.4003	0.4366	969.79	1.01
298.15	0.4203	0.3912	973.99	1.01
298.15	0.4578	0.3425	981.53	1.01
298.15	0.4701	0.3309	983.96	1.01
298.15	0.4927	0.3012	988.35	1.01
298.15	0.5108	0.2807	991.81	1.01
298.15	0.5308	0.2617	995.61	1.01
298.15	0.5516	0.2402	999.49	1.01
298.15	0.6001	0.1975	1008.4	1
298.15	0.6213	0.1806	1012.3	1
298.15	0.6498	0.1603	1017.4	1
298.15	0.7123	0.1134	1028.5	1
298.15	0.7302	0.1002	1031.7	1
298.15	0.7534	0.0844	1035.8	1
298.15	0.7834	0.0689	1041	1
303.15	0.1038	0.8419	899.11	1.01
303.15	0.1171	0.8215	902.27	1.01
303.15	0.1312	0.8014	905.58	1.01
303.15	0.1495	0.7587	909.92	1.01
303.15	0.1567	0.7168	911.71	1.01
303.15	0.1746	0.7004	915.82	1.01
303.15	0.2085	0.6767	923.45	1.01
303.15	0.2978	0.6014	942.88	1.01
303.15	0.3178	0.5823	947.13	1.01
303.15	0.3516	0.5467	954.26	1.01
303.15	0.3824	0.4876	960.96	1.01
303.15	0.4003	0.4366	964.96	1.01
303.15	0.4203	0.3912	969.2	1.01
303.15	0.4578	0.3425	976.74	1.01
303.15	0.4701	0.3309	979.17	1.01
303.15	0.4927	0.3012	983.55	1.01
303.15	0.5108	0.2807	987	1.01
303.15	0.5308	0.2617	990.78	1.01
303.15	0.5516	0.2402	994.64	1.01
303.15	0.6001	0.1975	1003.5	1
303.15	0.6213	0.1806	1007.4	1
303.15	0.6498	0.1603	1012.5	1
303.15	0.7123	0.1134	1023.6	1
303.15	0.7302	0.1002	1026.7	1
303.15	0.7534	0.0844	1030.8	1
303.15	0.7834	0.0689	1036.1	1
308.15	0.1038	0.8419	893.98	1.01
308.15	0.1171	0.8215	897.14	1.01
308.15	0.1312	0.8014	900.47	1.01
308.15	0.1495	0.7587	904.82	1.01
308.15	0.1567	0.7168	906.62	1.01
308.15	0.1746	0.7004	910.75	1.01
308.15	0.2085	0.6767	918.39	1.01
308.15	0.2978	0.6014	937.86	1.01
308.15	0.3178	0.5823	942.11	1.01
308.15	0.3516	0.5467	949.25	1.01
308.15	0.3824	0.4876	956.01	1.01
308.15	0.4003	0.4366	960.06	1.01
308.15	0.4203	0.3912	964.33	1.01
308.15	0.4578	0.3425	971.89	1.01
308.15	0.4701	0.3309	974.31	1.01
308.15	0.4927	0.3012	978.69	1.01
308.15	0.5108	0.2807	982.13	1.01
308.15	0.5308	0.2617	985.91	1.01
308.15	0.5516	0.2402	989.75	1.01
308.15	0.6001	0.1975	998.61	1.01
308.15	0.6213	0.1806	1002.4	1
308.15	0.6498	0.1603	1007.6	1
308.15	0.7123	0.1134	1018.6	1
308.15	0.7302	0.1002	1021.7	1
308.15	0.7534	0.0844	1025.8	1
308.15	0.7834	0.0689	1031.1	1

System: benzene + 2-chlorotoluene + tetrahydropyran; phases: Liquid
Fixed: Pressure, kPa = 101
Property: Speed of sound, m/s (Liquid); method: Sing-around technique in a fixed-path interferometer
Temperature, K	Mole fraction of 2-chlorotoluene	Mole fraction of tetrahydropyran	Speed of sound, m/s	uncertainty
298.15	0.1038	0.8419	1276.9	0.8
298.15	0.1171	0.8215	1277.8	0.8
298.15	0.1312	0.8014	1278.7	0.8
298.15	0.1495	0.7587	1280.6	0.8
298.15	0.1567	0.7168	1282.6	0.8
298.15	0.1746	0.7004	1283.2	0.8
298.15	0.2085	0.6767	1283.8	0.8
298.15	0.2978	0.6014	1285.7	0.9
298.15	0.3178	0.5823	1286.2	0.9
298.15	0.3516	0.5467	1287.2	0.9
298.15	0.3824	0.4876	1289.8	0.9
298.15	0.4003	0.4366	1292.3	0.9
298.15	0.4203	0.3912	1294.2	0.9
298.15	0.4578	0.3425	1295.6	0.9
298.15	0.4701	0.3309	1295.8	0.9
298.15	0.4927	0.3012	1296.4	0.9
298.15	0.5108	0.2807	1296.6	0.9
298.15	0.5308	0.2617	1296.8	0.9
298.15	0.5516	0.2402	1296.8	0.9
298.15	0.6001	0.1975	1296.6	0.9
298.15	0.6213	0.1806	1296.5	0.9
298.15	0.6498	0.1603	1296.3	0.9
298.15	0.7123	0.1134	1295.8	0.9
298.15	0.7302	0.1002	1295.6	0.9
298.15	0.7534	0.0844	1295.5	0.9
298.15	0.7834	0.0689	1295.7	0.9
303.15	0.1038	0.8419	1254.2	0.8
303.15	0.1171	0.8215	1255.2	0.8
303.15	0.1312	0.8014	1256.1	0.8
303.15	0.1495	0.7587	1257.9	0.8
303.15	0.1567	0.7168	1259.6	0.8
303.15	0.1746	0.7004	1260.3	0.8
303.15	0.2085	0.6767	1261.2	0.8
303.15	0.2978	0.6014	1263.5	0.9
303.15	0.3178	0.5823	1264.1	0.9
303.15	0.3516	0.5467	1265.2	0.9
303.15	0.3824	0.4876	1268	0.9
303.15	0.4003	0.4366	1270.9	0.9
303.15	0.4203	0.3912	1273.2	0.9
303.15	0.4578	0.3425	1275.1	0.9
303.15	0.4701	0.3309	1275.4	0.9
303.15	0.4927	0.3012	1276.2	0.9
303.15	0.5108	0.2807	1276.7	0.9
303.15	0.5308	0.2617	1276.9	0.9
303.15	0.5516	0.2402	1277.1	0.9
303.15	0.6001	0.1975	1277.2	0.9
303.15	0.6213	0.1806	1277.1	0.9
303.15	0.6498	0.1603	1277.1	0.9
303.15	0.7123	0.1134	1276.8	0.9
303.15	0.7302	0.1002	1276.7	0.9
303.15	0.7534	0.0844	1276.7	0.9
303.15	0.7834	0.0689	1277	0.9
308.15	0.1038	0.8419	1231.6	0.8
308.15	0.1171	0.8215	1232.5	0.8
308.15	0.1312	0.8014	1233.5	0.8
308.15	0.1495	0.7587	1235.2	0.8
308.15	0.1567	0.7168	1236.8	0.8
308.15	0.1746	0.7004	1237.7	0.8
308.15	0.2085	0.6767	1238.8	0.8
308.15	0.2978	0.6014	1241.5	0.8
308.15	0.3178	0.5823	1242.1	0.8
308.15	0.3516	0.5467	1243.4	0.9
308.15	0.3824	0.4876	1246.7	0.9
308.15	0.4003	0.4366	1250.1	0.9
308.15	0.4203	0.3912	1252.8	0.9
308.15	0.4578	0.3425	1255	0.9
308.15	0.4701	0.3309	1255.4	0.9
308.15	0.4927	0.3012	1256.4	0.9
308.15	0.5108	0.2807	1256.8	0.9
308.15	0.5308	0.2617	1257.1	0.9
308.15	0.5516	0.2402	1257.3	0.9
308.15	0.6001	0.1975	1257.3	0.9
308.15	0.6213	0.1806	1257.2	0.9
308.15	0.6498	0.1603	1257.2	0.9
308.15	0.7123	0.1134	1257	0.9
308.15	0.7302	0.1002	1256.9	0.9
308.15	0.7534	0.0844	1257	0.9
308.15	0.7834	0.0689	1257.6	0.9

System: 2-chlorotoluene + toluene + tetrahydropyran; phases: Liquid
Fixed: Pressure, kPa = 101
Property: Mass density, kg/m3 (Liquid); method: Vibrating tube method
Temperature, K	Mole fraction of 2-chlorotoluene	Mole fraction of tetrahydropyran	Mass density, kg/m3	uncertainty
298.15	0.1019	0.8218	902.53	1.01
298.15	0.1201	0.7879	906.55	1.01
298.15	0.1402	0.7578	911.03	1.01
298.15	0.1587	0.7314	915.13	1.01
298.15	0.2354	0.6798	932.52	1.01
298.15	0.2484	0.6674	935.35	1.01
298.15	0.2695	0.6465	939.87	1.01
298.15	0.2874	0.6206	943.56	1.01
298.15	0.3008	0.6016	946.3	1.01
298.15	0.3203	0.5713	950.24	1.01
298.15	0.3436	0.5367	954.92	1.01
298.15	0.3603	0.5112	958.24	1.01
298.15	0.3788	0.4884	961.97	1.01
298.15	0.4076	0.4518	967.7	1.01
298.15	0.4326	0.4208	972.62	1.01
298.15	0.4664	0.3772	979.11	1.01
298.15	0.4902	0.3486	983.61	1.01
298.15	0.5167	0.3156	988.47	1.01
298.15	0.5406	0.2795	992.49	1.01
298.15	0.5641	0.2528	996.62	1.01
298.15	0.5801	0.2311	999.2	1.01
298.15	0.6004	0.2005	1002.2	1
298.15	0.6239	0.1796	1006.4	1
298.15	0.6553	0.1501	1011.8	1
298.15	0.6806	0.1208	1015.8	1
298.15	0.7107	0.1089	1021.9	1
303.15	0.1019	0.8218	897.5	1.01
303.15	0.1201	0.7879	901.54	1.01
303.15	0.1402	0.7578	906.04	1.01
303.15	0.1587	0.7314	910.16	1.01
303.15	0.2354	0.6798	927.53	1.01
303.15	0.2484	0.6674	930.35	1.01
303.15	0.2695	0.6465	934.87	1.01
303.15	0.2874	0.6206	938.56	1.01
303.15	0.3008	0.6016	941.32	1.01
303.15	0.3203	0.5713	945.27	1.01
303.15	0.3436	0.5367	949.98	1.01
303.15	0.3603	0.5112	953.32	1.01
303.15	0.3788	0.4884	957.07	1.01
303.15	0.4076	0.4518	962.83	1.01
303.15	0.4326	0.4208	967.77	1.01
303.15	0.4664	0.3772	974.29	1.01
303.15	0.4902	0.3486	978.81	1.01
303.15	0.5167	0.3156	983.7	1.01
303.15	0.5406	0.2795	987.73	1.01
303.15	0.5641	0.2528	991.86	1.01
303.15	0.5801	0.2311	994.43	1.01
303.15	0.6004	0.2005	997.41	1.01
303.15	0.6239	0.1796	1001.6	1
303.15	0.6553	0.1501	1006.9	1
303.15	0.6806	0.1208	1010.9	1
303.15	0.7107	0.1089	1017	1
308.15	0.1019	0.8218	892.44	1.01
308.15	0.1201	0.7879	896.5	1.01
308.15	0.1402	0.7578	901.02	1.01
308.15	0.1587	0.7314	905.15	1.01
308.15	0.2354	0.6798	922.5	1.01
308.15	0.2484	0.6674	925.32	1.01
308.15	0.2695	0.6465	929.84	1.01
308.15	0.2874	0.6206	933.54	1.01
308.15	0.3008	0.6016	936.3	1.01
308.15	0.3203	0.5713	940.27	1.01
308.15	0.3436	0.5367	945	1.01
308.15	0.3603	0.5112	948.37	1.01
308.15	0.3788	0.4884	952.12	1.01
308.15	0.4076	0.4518	957.91	1.01
308.15	0.4326	0.4208	962.87	1.01
308.15	0.4664	0.3772	969.43	1.01
308.15	0.4902	0.3486	973.98	1.01
308.15	0.5167	0.3156	978.88	1.01
308.15	0.5406	0.2795	982.92	1.01
308.15	0.5641	0.2528	987.05	1.01
308.15	0.5801	0.2311	989.62	1.01
308.15	0.6004	0.2005	992.58	1.01
308.15	0.6239	0.1796	996.71	1.01
308.15	0.6553	0.1501	1002.1	1
308.15	0.6806	0.1208	1006	1
308.15	0.7107	0.1089	1012.2	1

System: 2-chlorotoluene + toluene + tetrahydropyran; phases: Liquid
Fixed: Pressure, kPa = 101
Property: Speed of sound, m/s (Liquid); method: Sing-around technique in a fixed-path interferometer
Temperature, K	Mole fraction of 2-chlorotoluene	Mole fraction of tetrahydropyran	Speed of sound, m/s	uncertainty
298.15	0.1019	0.8218	1278.3	0.8
298.15	0.1201	0.7879	1279.8	0.8
298.15	0.1402	0.7578	1281.1	0.8
298.15	0.1587	0.7314	1282.1	0.8
298.15	0.2354	0.6798	1283.2	0.9
298.15	0.2484	0.6674	1283.5	0.9
298.15	0.2695	0.6465	1284.1	0.9
298.15	0.2874	0.6206	1284.9	0.9
298.15	0.3008	0.6016	1285.6	0.9
298.15	0.3203	0.5713	1286.6	0.9
298.15	0.3436	0.5367	1287.9	0.9
298.15	0.3603	0.5112	1288.8	0.9
298.15	0.3788	0.4884	1289.6	0.9
298.15	0.4076	0.4518	1290.8	0.9
298.15	0.4326	0.4208	1291.9	0.9
298.15	0.4664	0.3772	1293.3	0.9
298.15	0.4902	0.3486	1294	0.9
298.15	0.5167	0.3156	1294.7	0.9
298.15	0.5406	0.2795	1295	0.9
298.15	0.5641	0.2528	1295.1	0.9
298.15	0.5801	0.2311	1294.9	0.9
298.15	0.6004	0.2005	1294.2	0.9
298.15	0.6239	0.1796	1294	0.9
298.15	0.6553	0.1501	1293.5	0.9
298.15	0.6806	0.1208	1292.8	0.9
298.15	0.7107	0.1089	1293.7	0.9
303.15	0.1019	0.8218	1256	0.8
303.15	0.1201	0.7879	1257.6	0.8
303.15	0.1402	0.7578	1259	0.8
303.15	0.1587	0.7314	1260.1	0.8
303.15	0.2354	0.6798	1261.8	0.9
303.15	0.2484	0.6674	1262.2	0.9
303.15	0.2695	0.6465	1262.9	0.9
303.15	0.2874	0.6206	1263.8	0.9
303.15	0.3008	0.6016	1264.5	0.9
303.15	0.3203	0.5713	1265.7	0.9
303.15	0.3436	0.5367	1267.1	0.9
303.15	0.3603	0.5112	1268.1	0.9
303.15	0.3788	0.4884	1268.9	0.9
303.15	0.4076	0.4518	1270.3	0.9
303.15	0.4326	0.4208	1271.5	0.9
303.15	0.4664	0.3772	1273	0.9
303.15	0.4902	0.3486	1273.9	1.1
303.15	0.5167	0.3156	1274.7	0.9
303.15	0.5406	0.2795	1275.2	0.9
303.15	0.5641	0.2528	1275.4	0.9
303.15	0.5801	0.2311	1275.3	0.9
303.15	0.6004	0.2005	1274.7	0.9
303.15	0.6239	0.1796	1274.7	0.9
303.15	0.6553	0.1501	1274.4	0.9
303.15	0.6806	0.1208	1273.9	0.9
303.15	0.7107	0.1089	1274.9	0.9
308.15	0.1019	0.8218	1234.1	0.8
308.15	0.1201	0.7879	1236	0.8
308.15	0.1402	0.7578	1237.6	0.8
308.15	0.1587	0.7314	1239.1	0.8
308.15	0.2354	0.6798	1241.1	0.8
308.15	0.2484	0.6674	1241.5	0.8
308.15	0.2695	0.6465	1242.3	0.8
308.15	0.2874	0.6206	1243.4	0.9
308.15	0.3008	0.6016	1244.3	0.9
308.15	0.3203	0.5713	1245.8	0.9
308.15	0.3436	0.5367	1247.5	0.9
308.15	0.3603	0.5112	1248.8	0.9
308.15	0.3788	0.4884	1249.9	0.9
308.15	0.4076	0.4518	1251.7	0.9
308.15	0.4326	0.4208	1253.2	0.9
308.15	0.4664	0.3772	1255.2	0.9
308.15	0.4902	0.3486	1256.2	0.9
308.15	0.5167	0.3156	1257.1	0.9
308.15	0.5406	0.2795	1257.4	0.9
308.15	0.5641	0.2528	1257.3	0.9
308.15	0.5801	0.2311	1256.8	0.9
308.15	0.6004	0.2005	1255.5	0.9
308.15	0.6239	0.1796	1255	0.9
308.15	0.6553	0.1501	1254.9	0.9
308.15	0.6806	0.1208	1253.1	0.9
308.15	0.7107	0.1089	1254.5	0.9

System: 1,2-dimethylbenzene + 2-chlorotoluene + tetrahydropyran; phases: Liquid
Fixed: Pressure, kPa = 101
Property: Mass density, kg/m3 (Liquid); method: Vibrating tube method
Temperature, K	Mole fraction of 2-chlorotoluene	Mole fraction of tetrahydropyran	Mass density, kg/m3	uncertainty
298.15	0.1188	0.8103	906.68	1.01
298.15	0.1346	0.7906	910.2	1.01
298.15	0.1518	0.7731	914.05	1.01
298.15	0.1909	0.7189	922.47	1.01
298.15	0.2034	0.6987	925.07	1.01
298.15	0.2442	0.6539	933.81	1.01
298.15	0.3007	0.6017	945.89	1.01
298.15	0.3206	0.5816	950.03	1.01
298.15	0.3449	0.5629	955.22	1.01
298.15	0.3659	0.5463	959.65	1.01
298.15	0.3894	0.5216	964.38	1.01
298.15	0.4128	0.5076	969.38	1.01
298.15	0.4321	0.4863	973.15	1.01
298.15	0.4568	0.4615	978.01	1.01
298.15	0.4728	0.4415	980.98	1.01
298.15	0.4938	0.4182	984.94	1.01
298.15	0.5268	0.3912	991.45	1.01
298.15	0.5479	0.3738	995.57	1.01
298.15	0.5718	0.3542	1000.2	1
298.15	0.5937	0.3328	1004.3	1
298.15	0.6135	0.3178	1008.1	1
298.15	0.6323	0.2978	1011.5	1
298.15	0.6598	0.2684	1016.3	1
298.15	0.6838	0.2489	1020.8	1
298.15	0.7125	0.2276	1026.2	1
298.15	0.7315	0.2093	1029.6	1
303.15	0.1188	0.8103	901.67	1.01
303.15	0.1346	0.7906	905.2	1.01
303.15	0.1518	0.7731	909.07	1.01
303.15	0.1909	0.7189	917.53	1.01
303.15	0.2034	0.6987	920.14	1.01
303.15	0.2442	0.6539	928.91	1.01
303.15	0.3007	0.6017	941	1.01
303.15	0.3206	0.5816	945.15	1.01
303.15	0.3449	0.5629	950.33	1.01
303.15	0.3659	0.5463	954.76	1.01
303.15	0.3894	0.5216	959.5	1.01
303.15	0.4128	0.5076	964.48	1.01
303.15	0.4321	0.4863	968.27	1.01
303.15	0.4568	0.4615	973.13	1.01
303.15	0.4728	0.4415	976.11	1.01
303.15	0.4938	0.4182	980.09	1.01
303.15	0.5268	0.3912	986.6	1.01
303.15	0.5479	0.3738	990.72	1.01
303.15	0.5718	0.3542	995.35	1.01
303.15	0.5937	0.3328	999.42	1.01
303.15	0.6135	0.3178	1003.2	1
303.15	0.6323	0.2978	1006.6	1
303.15	0.6598	0.2684	1011.5	1
303.15	0.6838	0.2489	1016	1
303.15	0.7125	0.2276	1021.4	1
303.15	0.7315	0.2093	1024.8	1
308.15	0.1188	0.8103	896.63	1.01
308.15	0.1346	0.7906	900.18	1.01
308.15	0.1518	0.7731	904.05	1.01
308.15	0.1909	0.7189	912.56	1.01
308.15	0.2034	0.6987	915.19	1.01
308.15	0.2442	0.6539	923.98	1.01
308.15	0.3007	0.6017	936.09	1.01
308.15	0.3206	0.5816	940.26	1.01
308.15	0.3449	0.5629	945.43	1.01
308.15	0.3659	0.5463	949.86	1.01
308.15	0.3894	0.5216	954.62	1.01
308.15	0.4128	0.5076	959.6	1.01
308.15	0.4321	0.4863	963.39	1.01
308.15	0.4568	0.4615	968.26	1.01
308.15	0.4728	0.4415	971.26	1.01
308.15	0.4938	0.4182	975.24	1.01
308.15	0.5268	0.3912	981.75	1.01
308.15	0.5479	0.3738	985.87	1.01
308.15	0.5718	0.3542	990.5	1.01
308.15	0.5937	0.3328	994.58	1.01
308.15	0.6135	0.3178	998.4	1.01
308.15	0.6323	0.2978	1001.8	1
308.15	0.6598	0.2684	1006.7	1
308.15	0.6838	0.2489	1011.2	1
308.15	0.7125	0.2276	1016.6	1
308.15	0.7315	0.2093	1020	1

System: 1,2-dimethylbenzene + 2-chlorotoluene + tetrahydropyran; phases: Liquid
Fixed: Pressure, kPa = 101
Property: Speed of sound, m/s (Liquid); method: Sing-around technique in a fixed-path interferometer
Temperature, K	Mole fraction of 2-chlorotoluene	Mole fraction of tetrahydropyran	Speed of sound, m/s	uncertainty
298.15	0.1188	0.8103	1278.9	0.8
298.15	0.1346	0.7906	1280.1	0.8
298.15	0.1518	0.7731	1281.3	0.8
298.15	0.1909	0.7189	1285	0.8
298.15	0.2034	0.6987	1286.4	0.8
298.15	0.2442	0.6539	1289.8	0.8
298.15	0.3007	0.6017	1293.7	0.9
298.15	0.3206	0.5816	1295.1	0.9
298.15	0.3449	0.5629	1296.3	0.9
298.15	0.3659	0.5463	1297.2	0.9
298.15	0.3894	0.5216	1298.4	0.9
298.15	0.4128	0.5076	1298.9	0.9
298.15	0.4321	0.4863	1299.8	0.9
298.15	0.4568	0.4615	1300.5	0.9
298.15	0.4728	0.4415	1301.1	0.9
298.15	0.4938	0.4182	1301.6	0.9
298.15	0.5268	0.3912	1301.7	0.9
298.15	0.5479	0.3738	1301.6	0.9
298.15	0.5718	0.3542	1301.5	0.9
298.15	0.5937	0.3328	1301.4	0.9
298.15	0.6135	0.3178	1301.1	0.9
298.15	0.6323	0.2978	1300.9	0.9
298.15	0.6598	0.2684	1300.6	0.9
298.15	0.6838	0.2489	1300.2	0.9
298.15	0.7125	0.2276	1299.8	0.9
298.15	0.7315	0.2093	1299.5	0.9
303.15	0.1188	0.8103	1257	0.8
303.15	0.1346	0.7906	1258.2	0.8
303.15	0.1518	0.7731	1259.4	0.8
303.15	0.1909	0.7189	1263.2	0.8
303.15	0.2034	0.6987	1264.7	0.8
303.15	0.2442	0.6539	1268.1	0.8
303.15	0.3007	0.6017	1272.2	0.8
303.15	0.3206	0.5816	1273.6	0.9
303.15	0.3449	0.5629	1274.9	0.9
303.15	0.3659	0.5463	1275.9	0.9
303.15	0.3894	0.5216	1277.2	0.9
303.15	0.4128	0.5076	1277.8	0.9
303.15	0.4321	0.4863	1278.7	0.9
303.15	0.4568	0.4615	1279.6	0.9
303.15	0.4728	0.4415	1280.2	0.9
303.15	0.4938	0.4182	1280.6	0.9
303.15	0.5268	0.3912	1280.9	0.9
303.15	0.5479	0.3738	1281	0.9
303.15	0.5718	0.3542	1281	0.9
303.15	0.5937	0.3328	1281	0.9
303.15	0.6135	0.3178	1280.8	0.9
303.15	0.6323	0.2978	1280.7	0.9
303.15	0.6598	0.2684	1280.5	0.9
303.15	0.6838	0.2489	1280.3	0.9
303.15	0.7125	0.2276	1280.1	0.9
303.15	0.7315	0.2093	1280	0.9
308.15	0.1188	0.8103	1235.3	0.8
308.15	0.1346	0.7906	1236.7	0.8
308.15	0.1518	0.7731	1238	0.8
308.15	0.1909	0.7189	1242.1	0.8
308.15	0.2034	0.6987	1243.7	0.8
308.15	0.2442	0.6539	1247.4	0.8
308.15	0.3007	0.6017	1251.8	0.8
308.15	0.3206	0.5816	1253.3	0.8
308.15	0.3449	0.5629	1254.7	0.9
308.15	0.3659	0.5463	1255.8	0.9
308.15	0.3894	0.5216	1257.3	0.9
308.15	0.4128	0.5076	1258	0.9
308.15	0.4321	0.4863	1259	0.9
308.15	0.4568	0.4615	1259.9	0.9
308.15	0.4728	0.4415	1260.6	0.9
308.15	0.4938	0.4182	1261.2	0.9
308.15	0.5268	0.3912	1261.6	0.9
308.15	0.5479	0.3738	1261.7	0.9
308.15	0.5718	0.3542	1261.7	0.9
308.15	0.5937	0.3328	1261.7	0.9
308.15	0.6135	0.3178	1261.6	0.9
308.15	0.6323	0.2978	1261.6	0.9
308.15	0.6598	0.2684	1261.4	0.9
308.15	0.6838	0.2489	1261.3	0.9
308.15	0.7125	0.2276	1261.1	0.9
308.15	0.7315	0.2093	1261.1	0.9

System: 2-chlorotoluene + toluene; phases: Liquid
Fixed: Pressure, kPa = 101
Property: Mass density, kg/m3 (Liquid); method: Vibrating tube method
Temperature, K	Mole fraction of 2-chlorotoluene	Mass density, kg/m3	uncertainty
298.15	0.0935	884.2	1.01
298.15	0.1346	893.74	1.01
298.15	0.1681	901.47	1.01
298.15	0.2393	917.7	1.01
298.15	0.2782	926.47	1.01
298.15	0.3342	938.97	1.01
298.15	0.3871	950.65	1.01
298.15	0.4375	961.66	1.01
298.15	0.4872	972.41	1.01
298.15	0.5312	981.84	1.01
298.15	0.5912	994.55	1.01
298.15	0.6218	1001	1
298.15	0.6753	1012.1	1
298.15	0.7231	1022	1
298.15	0.7854	1034.7	1
298.15	0.8351	1044.7	1
298.15	0.8824	1054.2	1
298.15	0.9231	1062.3	1
303.15	0.0935	879.51	1.01
303.15	0.1346	889.04	1.01
303.15	0.1681	896.76	1.01
303.15	0.2393	912.99	1.01
303.15	0.2782	921.75	1.01
303.15	0.3342	934.25	1.01
303.15	0.3871	945.92	1.01
303.15	0.4375	956.92	1.01
303.15	0.4872	967.66	1.01
303.15	0.5312	977.07	1.01
303.15	0.5912	989.78	1.01
303.15	0.6218	996.2	1.01
303.15	0.6753	1007.3	1
303.15	0.7231	1017.2	1
303.15	0.7854	1029.9	1
303.15	0.8351	1039.9	1
303.15	0.8824	1049.3	1
303.15	0.9231	1057.4	1
308.15	0.0935	874.8	1.01
308.15	0.1346	884.33	1.01
308.15	0.1681	892.04	1.01
308.15	0.2393	908.26	1.01
308.15	0.2782	917.02	1.01
308.15	0.3342	929.51	1.01
308.15	0.3871	941.17	1.01
308.15	0.4375	952.17	1.01
308.15	0.4872	962.89	1.01
308.15	0.5312	972.3	1.01
308.15	0.5912	984.99	1.01
308.15	0.6218	991.4	1.01
308.15	0.6753	1002.5	1
308.15	0.7231	1012.3	1
308.15	0.7854	1025	1
308.15	0.8351	1035	1
308.15	0.8824	1044.5	1
308.15	0.9231	1052.5	1

System: 2-chlorotoluene + toluene; phases: Liquid
Fixed: Pressure, kPa = 101
Property: Speed of sound, m/s (Liquid); method: Sing-around technique in a fixed-path interferometer
Temperature, K	Mole fraction of 2-chlorotoluene	Speed of sound, m/s	uncertainty
298.15	0.0935	1302	0.8
298.15	0.1346	1301.2	0.8
298.15	0.1681	1300.5	0.9
298.15	0.2393	1299.5	0.9
298.15	0.2782	1299	0.9
298.15	0.3342	1298.5	0.9
298.15	0.3871	1298.1	0.9
298.15	0.4375	1297.9	0.9
298.15	0.4872	1297.7	0.9
298.15	0.5312	1297.6	0.9
298.15	0.5912	1297.4	0.9
298.15	0.6218	1297.4	0.9
298.15	0.6753	1297.4	0.9
298.15	0.7231	1297.4	0.9
298.15	0.7854	1297.6	0.9
298.15	0.8351	1297.7	0.9
298.15	0.8824	1297.9	0.9
298.15	0.9231	1298.1	1
303.15	0.0935	1281.3	0.8
303.15	0.1346	1280.6	0.8
303.15	0.1681	1280.2	0.8
303.15	0.2393	1279.4	0.9
303.15	0.2782	1279	0.9
303.15	0.3342	1278.7	0.9
303.15	0.3871	1278.5	0.9
303.15	0.4375	1278.3	0.9
303.15	0.4872	1278.3	0.9
303.15	0.5312	1278.3	0.9
303.15	0.5912	1278.4	0.9
303.15	0.6218	1278.5	0.9
303.15	0.6753	1278.7	0.9
303.15	0.7231	1278.9	0.9
303.15	0.7854	1279.2	0.9
303.15	0.8351	1279.5	0.9
303.15	0.8824	1279.8	0.9
303.15	0.9231	1280.1	0.9
308.15	0.0935	1260.6	0.8
308.15	0.1346	1260.2	0.8
308.15	0.1681	1259.9	0.8
308.15	0.2393	1259.3	0.9
308.15	0.2782	1259	0.9
308.15	0.3342	1258.8	0.9
308.15	0.3871	1258.7	0.9
308.15	0.4375	1258.7	0.9
308.15	0.4872	1258.8	0.9
308.15	0.5312	1259	0.9
308.15	0.5912	1259.3	0.9
308.15	0.6218	1259.5	0.9
308.15	0.6753	1260	0.9
308.15	0.7231	1260.4	0.9
308.15	0.7854	1261	0.9
308.15	0.8351	1261.5	0.9
308.15	0.8824	1262	0.9
308.15	0.9231	1262.3	0.9

System: 1,2-dimethylbenzene + 2-chlorotoluene; phases: Liquid
Fixed: Pressure, kPa = 101
Property: Mass density, kg/m3 (Liquid); method: Vibrating tube method
Temperature, K	Mole fraction of 2-chlorotoluene	Mass density, kg/m3	uncertainty
298.15	0.0872	893.06	1
298.15	0.1276	901.04	1
298.15	0.1754	910.51	1
298.15	0.2243	920.22	1
298.15	0.2765	930.61	1
298.15	0.3241	940.11	1
298.15	0.3762	950.54	1
298.15	0.4216	959.64	1
298.15	0.4932	974.04	1
298.15	0.5243	980.31	1
298.15	0.5721	989.96	1
298.15	0.6158	998.81	1
298.15	0.6761	1011	1
298.15	0.7245	1020.9	1
298.15	0.7865	1033.5	1
298.15	0.8254	1041.5	1
298.15	0.8795	1052.5	1
298.15	0.9192	1060.7	1
303.15	0.0872	888.78	1
303.15	0.1276	896.73	1
303.15	0.1754	906.16	1
303.15	0.2243	915.84	1
303.15	0.2765	926.19	1
303.15	0.3241	935.66	1
303.15	0.3762	946.05	1
303.15	0.4216	955.13	1
303.15	0.4932	969.48	1
303.15	0.5243	975.73	1
303.15	0.5721	985.35	1
303.15	0.6158	994.17	1
303.15	0.6761	1006.4	1
303.15	0.7245	1016.2	1
303.15	0.7865	1028.8	1
303.15	0.8254	1036.7	1
303.15	0.8795	1047.7	1
303.15	0.9192	1055.9	1
308.15	0.0872	884.5	1
308.15	0.1276	892.42	1
308.15	0.1754	901.82	1
308.15	0.2243	911.46	1
308.15	0.2765	921.78	1
308.15	0.3241	931.22	1
308.15	0.3762	941.57	1
308.15	0.4216	950.62	1
308.15	0.4932	964.92	1
308.15	0.5243	971.15	1
308.15	0.5721	980.74	1
308.15	0.6158	989.52	1
308.15	0.6761	1001.7	1
308.15	0.7245	1011.4	1
308.15	0.7865	1024	1
308.15	0.8254	1031.9	1
308.15	0.8795	1042.9	1
308.15	0.9192	1051	1

System: 1,2-dimethylbenzene + 2-chlorotoluene; phases: Liquid
Fixed: Pressure, kPa = 101
Property: Speed of sound, m/s (Liquid); method: Sing-around technique in a fixed-path interferometer
Temperature, K	Mole fraction of 2-chlorotoluene	Speed of sound, m/s	uncertainty
298.15	0.0872	1341.6	0.8
298.15	0.1276	1339.4	0.8
298.15	0.1754	1337	0.8
298.15	0.2243	1334.4	0.8
298.15	0.2765	1331.8	0.8
298.15	0.3241	1329.4	0.8
298.15	0.3762	1326.8	0.8
298.15	0.4216	1324.6	0.8
298.15	0.4932	1321.2	0.8
298.15	0.5243	1319.7	0.8
298.15	0.5721	1317.5	0.9
298.15	0.6158	1315.5	0.9
298.15	0.6761	1312.7	0.9
298.15	0.7245	1310.6	0.9
298.15	0.7865	1307.8	0.9
298.15	0.8254	1306.1	0.9
298.15	0.8795	1303.8	0.9
298.15	0.9192	1302.1	0.9
303.15	0.0872	1321.9	0.8
303.15	0.1276	1319.8	0.8
303.15	0.1754	1317.4	0.8
303.15	0.2243	1315	0.8
303.15	0.2765	1312.4	0.8
303.15	0.3241	1310.1	0.8
303.15	0.3762	1307.6	0.8
303.15	0.4216	1305.4	0.8
303.15	0.4932	1302.1	0.8
303.15	0.5243	1300.7	0.8
303.15	0.5721	1298.6	0.8
303.15	0.6158	1296.7	0.9
303.15	0.6761	1294.1	0.9
303.15	0.7245	1292.1	0.9
303.15	0.7865	1289.6	0.9
303.15	0.8254	1288	0.9
303.15	0.8795	1285.8	0.9
303.15	0.9192	1284.1	0.9
308.15	0.0872	1302.1	0.7
308.15	0.1276	1300.2	0.8
308.15	0.1754	1298	0.8
308.15	0.2243	1295.6	0.8
308.15	0.2765	1293.1	0.8
308.15	0.3241	1290.8	0.8
308.15	0.3762	1288.4	0.8
308.15	0.4216	1286.3	0.8
308.15	0.4932	1283.1	0.8
308.15	0.5243	1281.8	0.8
308.15	0.5721	1279.8	0.8
308.15	0.6158	1278	0.9
308.15	0.6761	1275.6	0.9
308.15	0.7245	1273.7	0.9
308.15	0.7865	1271.3	0.9
308.15	0.8254	1269.8	0.9
308.15	0.8795	1267.7	0.9
308.15	0.9192	1266.1	0.9

System: benzene + tetrahydropyran; phases: Liquid
Fixed: Pressure, kPa = 101
Property: Mass density, kg/m3 (Liquid); method: Vibrating tube method
Temperature, K	Mole fraction of tetrahydropyran	Mass density, kg/m3	uncertainty
298.15	0.0789	874.6	1
298.15	0.1324	875.21	1
298.15	0.1784	875.68	1
298.15	0.2239	876.1	1
298.15	0.2876	876.63	1
298.15	0.3276	876.92	1.01
298.15	0.3769	877.26	1.01
298.15	0.4285	877.58	1.01
298.15	0.4794	877.87	1.01
298.15	0.5598	878.27	1.01
298.15	0.6024	878.46	1.01
298.15	0.6534	878.66	1.01
298.15	0.7006	878.82	1.01
298.15	0.7432	878.95	1.01
298.15	0.7943	879.07	1.01
298.15	0.8213	879.12	1.01
298.15	0.8763	879.18	1.01
298.15	0.9148	879.2	1.01
303.15	0.0789	869.25	1
303.15	0.1324	869.87	1.01
303.15	0.1784	870.35	1.01
303.15	0.2239	870.78	1.01
303.15	0.2876	871.32	1.01
303.15	0.3276	871.63	1.01
303.15	0.3769	871.97	1.01
303.15	0.4285	872.3	1.01
303.15	0.4794	872.59	1.01
303.15	0.5598	872.99	1.01
303.15	0.6024	873.17	1.01
303.15	0.6534	873.37	1.01
303.15	0.7006	873.53	1.01
303.15	0.7432	873.65	1.01
303.15	0.7943	873.77	1.01
303.15	0.8213	873.83	1.01
303.15	0.8763	873.92	1.01
303.15	0.9148	873.96	1.01

System: benzene + tetrahydropyran; phases: Liquid
Fixed: Pressure, kPa = 101
Property: Speed of sound, m/s (Liquid); method: Sing-around technique in a fixed-path interferometer
Temperature, K	Mole fraction of tetrahydropyran	Speed of sound, m/s	uncertainty
298.15	0.0789	1298.9	0.8
298.15	0.1324	1298.2	0.8
298.15	0.1784	1297.5	0.8
298.15	0.2239	1296.6	0.8
298.15	0.2876	1295.2	0.8
298.15	0.3276	1294.2	0.8
298.15	0.3769	1292.9	0.8
298.15	0.4285	1291.4	0.8
298.15	0.4794	1289.8	0.8
298.15	0.5598	1287.2	0.8
298.15	0.6024	1285.8	0.8
298.15	0.6534	1284	0.8
298.15	0.7006	1282.3	0.8
298.15	0.7432	1280.7	0.8
298.15	0.7943	1278.8	0.8
298.15	0.8213	1277.7	0.8
298.15	0.8763	1275.4	0.8
298.15	0.9148	1273.7	0.8
303.15	0.0789	1274	0.8
303.15	0.1324	1272.5	0.8
303.15	0.1784	1271.2	0.8
303.15	0.2239	1269.8	0.8
303.15	0.2876	1267.9	0.8
303.15	0.3276	1266.7	0.8
303.15	0.3769	1265.2	0.8
303.15	0.4285	1263.6	0.8
303.15	0.4794	1262	0.8
303.15	0.5598	1259.6	0.8
303.15	0.6024	1258.3	0.8
303.15	0.6534	1256.9	0.8
303.15	0.7006	1255.5	0.8
303.15	0.7432	1254.2	0.8
303.15	0.7943	1252.8	0.8
303.15	0.8213	1252	0.8
303.15	0.8763	1250.4	0.8
303.15	0.9148	1249.3	0.8

System: toluene + tetrahydropyran; phases: Liquid
Fixed: Pressure, kPa = 101
Property: Mass density, kg/m3 (Liquid); method: Vibrating tube method
Temperature, K	Mole fraction of tetrahydropyran	Mass density, kg/m3	uncertainty
298.15	0.0834	863.93	1.01
298.15	0.1245	864.77	1.01
298.15	0.1765	865.79	1.01
298.15	0.2387	866.99	1.01
298.15	0.3017	868.16	1.01
298.15	0.3541	869.11	1.01
298.15	0.4098	870.1	1.01
298.15	0.4467	870.74	1.01
298.15	0.4915	871.51	1.01
298.15	0.5487	872.47	1.01
298.15	0.6008	873.33	1.01
298.15	0.6472	874.08	1.01
298.15	0.6954	874.84	1.01
298.15	0.7321	875.41	1.01
298.15	0.7832	876.18	1.01
298.15	0.8241	876.78	1.01
298.15	0.8937	877.76	1.01
298.15	0.9205	878.12	1.01
303.15	0.0834	859.19	1.01
303.15	0.1245	859.99	1.01
303.15	0.1765	860.99	1.01
303.15	0.2387	862.15	1.01
303.15	0.3017	863.3	1.01
303.15	0.3541	864.23	1.01
303.15	0.4098	865.2	1.01
303.15	0.4467	865.83	1.01
303.15	0.4915	866.59	1.01
303.15	0.5487	867.53	1.01
303.15	0.6008	868.36	1.01
303.15	0.6472	869.09	1.01
303.15	0.6954	869.83	1.01
303.15	0.7321	870.38	1.01
303.15	0.7832	871.13	1.01
303.15	0.8241	871.71	1.01
303.15	0.8937	872.65	1.01
303.15	0.9205	873	1.01

System: toluene + tetrahydropyran; phases: Liquid
Fixed: Pressure, kPa = 101
Property: Speed of sound, m/s (Liquid); method: Sing-around technique in a fixed-path interferometer
Temperature, K	Mole fraction of tetrahydropyran	Speed of sound, m/s	uncertainty
298.15	0.0834	1303.2	0.8
298.15	0.1245	1302.3	0.8
298.15	0.1765	1301.2	0.8
298.15	0.2387	1299.7	0.8
298.15	0.3017	1298.1	0.8
298.15	0.3541	1296.6	0.8
298.15	0.4098	1295	0.8
298.15	0.4467	1293.9	0.8
298.15	0.4915	1292.5	0.8
298.15	0.5487	1290.6	0.8
298.15	0.6008	1288.8	0.8
298.15	0.6472	1287.1	0.8
298.15	0.6954	1285.2	0.8
298.15	0.7321	1283.7	0.8
298.15	0.7832	1281.5	0.8
298.15	0.8241	1279.6	0.8
298.15	0.8937	1276.1	0.8
298.15	0.9205	1274.6	0.8
303.15	0.0834	1281.1	0.8
303.15	0.1245	1280	0.8
303.15	0.1765	1278.7	0.8
303.15	0.2387	1277.1	0.8
303.15	0.3017	1275.3	0.8
303.15	0.3541	1273.8	0.8
303.15	0.4098	1272.2	0.8
303.15	0.4467	1271	0.8
303.15	0.4915	1269.5	0.8
303.15	0.5487	1267.5	0.8
303.15	0.6008	1265.6	0.8
303.15	0.6472	1263.7	0.8
303.15	0.6954	1261.8	0.8
303.15	0.7321	1260.2	0.8
303.15	0.7832	1257.9	0.8
303.15	0.8241	1255.9	0.8
303.15	0.8937	1252.5	0.8
303.15	0.9205	1251.1	0.8

System: 1,2-dimethylbenzene + tetrahydropyran; phases: Liquid
Fixed: Pressure, kPa = 101
Property: Mass density, kg/m3 (Liquid); method: Vibrating tube method
Temperature, K	Mole fraction of tetrahydropyran	Mass density, kg/m3	uncertainty
298.15	0.0908	876.43	1
298.15	0.1432	876.68	1
298.15	0.1897	876.87	1
298.15	0.2318	877.04	1
298.15	0.2953	877.26	1
298.15	0.331	877.39	1
298.15	0.3872	877.57	1
298.15	0.4287	877.7	1
298.15	0.4792	877.86	1
298.15	0.5187	877.99	1
298.15	0.5725	878.16	1
298.15	0.6182	878.31	1
298.15	0.6682	878.47	1
298.15	0.7187	878.62	1.01
298.15	0.7729	878.78	1.01
298.15	0.8367	878.94	1.01
298.15	0.8952	879.05	1.01
298.15	0.9274	879.1	1.01
303.15	0.0908	872.06	1
303.15	0.1432	872.25	1
303.15	0.1897	872.4	1
303.15	0.2318	872.53	1
303.15	0.2953	872.71	1
303.15	0.331	872.81	1
303.15	0.3872	872.95	1
303.15	0.4287	873.05	1
303.15	0.4792	873.17	1
303.15	0.5187	873.26	1
303.15	0.5725	873.38	1
303.15	0.6182	873.48	1
303.15	0.6682	873.58	1.01
303.15	0.7187	873.67	1.01
303.15	0.7729	873.77	1.01
303.15	0.8367	873.86	1.01
303.15	0.8952	873.93	1.01
303.15	0.9274	873.96	1.01

System: 1,2-dimethylbenzene + tetrahydropyran; phases: Liquid
Fixed: Pressure, kPa = 101
Property: Speed of sound, m/s (Liquid); method: Sing-around technique in a fixed-path interferometer
Temperature, K	Mole fraction of tetrahydropyran	Speed of sound, m/s	uncertainty
298.15	0.0908	1345.3	0.8
298.15	0.1432	1343.1	0.8
298.15	0.1897	1340.4	0.8
298.15	0.2318	1337.4	0.8
298.15	0.2953	1332.1	0.8
298.15	0.331	1328.8	0.8
298.15	0.3872	1323.2	0.8
298.15	0.4287	1319	0.8
298.15	0.4792	1313.7	0.8
298.15	0.5187	1309.6	0.8
298.15	0.5725	1304.1	0.8
298.15	0.6182	1299.5	0.8
298.15	0.6682	1294.6	0.8
298.15	0.7187	1290	0.8
298.15	0.7729	1285.3	0.8
298.15	0.8367	1280.2	0.8
298.15	0.8952	1276.1	0.8
298.15	0.9274	1274	0.8
303.15	0.0908	1323.7	0.7
303.15	0.1432	1321	0.8
303.15	0.1897	1317.9	0.8
303.15	0.2318	1314.7	0.8
303.15	0.2953	1309.2	0.8
303.15	0.331	1305.9	0.8
303.15	0.3872	1300.4	0.8
303.15	0.4287	1296.2	0.8
303.15	0.4792	1291	0.8
303.15	0.5187	1286.9	0.8
303.15	0.5725	1281.4	0.8
303.15	0.6182	1276.8	0.8
303.15	0.6682	1272	0.8
303.15	0.7187	1267.3	0.8
303.15	0.7729	1262.5	0.8
303.15	0.8367	1257.3	0.8
303.15	0.8952	1253.1	0.8
303.15	0.9274	1251	0.8
