Measured thermophysical data. Density, Viscosity, and Surface Tension of Liquid Phase Beckmann Rearrangement Mixtures
Source: J. Chem. Eng. Data, 2015, 10.1021/je500836b
Compound 1: sulfuric acid, H2O4S, InChI=1S/H2O4S/c1-5(2,3)4/h(H2,1,2,3,4)
Compound 2: sulfur trioxide, O3S, InChI=1S/O3S/c1-4(2)3
Compound 3: 1-aza-2-cycloheptanone, C6H11NO, InChI=1S/C6H11NO/c8-6-4-2-1-3-5-7-6/h1-5H2,(H,7,8), purity 99.95%

System: 1-aza-2-cycloheptanone + sulfur trioxide + sulfuric acid; phases: Liquid
Fixed: Pressure, kPa = 101
Property: Mass density, kg/m3 (Liquid); method: Pycnometric method
Mass fraction of 1-aza-2-cycloheptanone	Mass fraction of sulfuric acid	Temperature, K	Mass density, kg/m3	uncertainty
0.31	0.58	293.15	1543.3	2.5
0.31	0.58	323.15	1523.2	2.5
0.31	0.58	333.15	1515.3	2.5
0.31	0.58	343.15	1509	2.5
0.31	0.58	353.15	1501.3	2.5
0.31	0.58	363.15	1492.8	2.5
0.31	0.58	373.15	1487.3	2.5
0.31	0.58	383.15	1478.6	2.5
0.34	0.55	293.15	1521	2.5
0.34	0.55	343.15	1487.5	2.5
0.34	0.55	373.15	1473.7	2.5
0.37	0.52	293.15	1501.2	2.5
0.37	0.52	346.15	1462.1	2.5
0.37	0.52	373.15	1444	2.5
0.37	0.52	383.15	1436.3	2.5
0.42	0.47	293.15	1473.8	2.5
0.42	0.47	343.15	1438.1	2.5
0.42	0.47	373.15	1417.5	2.5
0.42	0.47	383.15	1410.1	2.5
0.47	0.42	293.15	1439.6	2.5
0.47	0.42	323.15	1420.1	2.5
0.47	0.42	343.15	1406	2.5
0.47	0.42	373.15	1386	2.5
0.47	0.42	383.15	1379.1	2.5

System: 1-aza-2-cycloheptanone + sulfur trioxide + sulfuric acid; phases: Liquid
Fixed: Pressure, kPa = 101
Property: Viscosity, Pa*s (Liquid); method: Concentric cylinders viscometry
Mass fraction of 1-aza-2-cycloheptanone	Mass fraction of sulfuric acid	Temperature, K	Viscosity, Pa*s	uncertainty
0.31	0.58	319.15	0.059	0.009
0.31	0.58	323.15	0.044	0.007
0.31	0.58	327.15	0.043	0.007
0.31	0.58	330.15	0.034	0.005
0.31	0.58	337.15	0.033	0.005
0.31	0.58	338.15	0.026	0.004
0.31	0.58	344.15	0.026	0.004
0.31	0.58	345.15	0.021	0.003
0.31	0.58	350.15	0.021	0.003
0.31	0.58	350.15	0.017	0.003
0.31	0.58	358.15	0.017	0.003
0.31	0.58	364.15	0.014	0.002
0.34	0.55	318.15	0.085	0.014
0.34	0.55	322.15	0.065	0.01
0.34	0.55	326.15	0.062	0.01
0.34	0.55	330.15	0.049	0.008
0.34	0.55	336.15	0.047	0.008
0.34	0.55	338.15	0.039	0.006
0.34	0.55	341.15	0.037	0.006
0.34	0.55	346.15	0.03	0.005
0.34	0.55	350.15	0.028	0.005
0.34	0.55	354.15	0.024	0.004
0.34	0.55	357.15	0.022	0.004
0.34	0.55	360.15	0.019	0.003
0.34	0.55	361.15	0.019	0.003
0.34	0.55	368.15	0.016	0.003
0.34	0.55	370.15	0.014	0.002
0.37	0.52	318.15	0.142	0.023
0.37	0.52	325.15	0.12	0.019
0.37	0.52	326.15	0.102	0.016
0.37	0.52	332.15	0.087	0.014
0.37	0.52	336.15	0.065	0.01
0.37	0.52	343.15	0.056	0.009
0.37	0.52	343.15	0.05	0.008
0.37	0.52	348.15	0.039	0.006
0.37	0.52	351.15	0.043	0.007
0.37	0.52	353.15	0.031	0.005
0.37	0.52	358.15	0.034	0.005
0.37	0.52	363.15	0.025	0.004
0.37	0.52	366.15	0.027	0.004
0.37	0.52	371.15	0.022	0.004
0.37	0.52	378.15	0.02	0.003
0.42	0.47	320.15	0.32	0.052
0.42	0.47	321.15	0.32	0.052
0.42	0.47	327.15	0.218	0.035
0.42	0.47	327.15	0.22	0.036
0.42	0.47	333.15	0.22	0.036
0.42	0.47	336.15	0.151	0.024
0.42	0.47	340.15	0.164	0.026
0.42	0.47	343.15	0.106	0.017
0.42	0.47	347.15	0.111	0.018
0.42	0.47	349.15	0.079	0.013
0.42	0.47	353.15	0.081	0.013
0.42	0.47	357.15	0.06	0.01
0.42	0.47	359.15	0.042	0.007
0.42	0.47	367.15	0.043	0.007
0.42	0.47	368.15	0.034	0.005
0.42	0.47	377.15	0.033	0.005
0.47	0.42	318.15	0.97	0.164
0.47	0.42	330.15	0.549	0.091
0.47	0.42	331.15	0.695	0.116
0.47	0.42	338.15	0.35	0.057
0.47	0.42	340.15	0.405	0.066
0.47	0.42	344.15	0.203	0.033
0.47	0.42	347.15	0.271	0.044
0.47	0.42	353.15	0.182	0.029
0.47	0.42	353.15	0.158	0.025
0.47	0.42	358.15	0.112	0.018
0.47	0.42	362.15	0.13	0.021
0.47	0.42	368.15	0.084	0.013
0.47	0.42	369.15	0.094	0.015
0.47	0.42	377.15	0.071	0.011

System: 1-aza-2-cycloheptanone + sulfur trioxide + sulfuric acid; phases: Liquid, Air at 1 atmosphere
Property: Surface tension liquid-gas, N/m (Liquid); method: Maximal bubble pressure
Mass fraction of 1-aza-2-cycloheptanone	Mass fraction of sulfuric acid	Temperature, K	Surface tension liquid-gas, N/m	uncertainty
0.31	0.58	293.15	0.068	0.005
0.31	0.58	313.15	0.061	0.005
0.31	0.58	323.15	0.058	0.005
0.31	0.58	343.15	0.055	0.004
0.31	0.58	363.15	0.052	0.004
0.31	0.58	383.15	0.051	0.004
0.31	0.58	393.15	0.05	0.004
0.34	0.55	293.15	0.081	0.007
0.34	0.55	313.15	0.068	0.005
0.34	0.55	323.15	0.063	0.005
0.34	0.55	343.15	0.059	0.005
0.34	0.55	363.15	0.056	0.005
0.34	0.55	383.15	0.054	0.004
0.34	0.55	393.15	0.053	0.004
0.37	0.52	293.15	0.092	0.007
0.37	0.52	333.15	0.065	0.005
0.37	0.52	343.15	0.062	0.005
0.37	0.52	363.15	0.057	0.005
0.37	0.52	383.15	0.055	0.004
0.42	0.47	293.15	0.119	0.01
0.42	0.47	313.15	0.088	0.007
0.42	0.47	323.15	0.079	0.006
0.42	0.47	343.15	0.067	0.005
0.42	0.47	363.15	0.061	0.005
0.42	0.47	383.15	0.057	0.005
0.42	0.47	393.15	0.055	0.004
0.47	0.42	293.15	0.135	0.011
0.47	0.42	323.15	0.103	0.008
0.47	0.42	333.15	0.093	0.007
0.47	0.42	343.15	0.08	0.006
0.47	0.42	363.15	0.068	0.005
0.47	0.42	383.15	0.062	0.005
0.47	0.42	393.15	0.058	0.005
