Measured thermophysical data. New Vapor Liquid Liquid Equilibrium Solubility Data for iso-Butane, n-Butane, n-Pentane, and n-Hexane in Alkanolamine Aqueous Solutions
Source: J. Chem. Eng. Data, 2014, 10.1021/je500130j
Compound 1: 2-methylpropane, C4H10, InChI=1S/C4H10/c1-4(2)3/h4H,1-3H3, purity 99.95%
Compound 2: butane, C4H10, InChI=1S/C4H10/c1-3-4-2/h3-4H2,1-2H3, purity 99.95%
Compound 3: pentane, C5H12, InChI=1S/C5H12/c1-3-5-4-2/h3-5H2,1-2H3, purity 99.5%
Compound 4: hexane, C6H14, InChI=1S/C6H14/c1-3-5-6-4-2/h3-6H2,1-2H3, purity 99%
Compound 5: water, H2O, InChI=1S/H2O/h1H2, purity 99.8%
Compound 6: diethanolamine, C4H11NO2, InChI=1S/C4H11NO2/c6-3-1-5-2-4-7/h5-7H,1-4H2
Compound 7: N-methyldiethanolamine, C5H13NO2, InChI=1S/C5H13NO2/c1-6(2-4-7)3-5-8/h7-8H,2-5H2,1H3

System: 2-methylpropane + N-methyldiethanolamine + water; phases: Liquid mixture 1, Liquid mixture 2, Gas
Property: Vapor or sublimation pressure, kPa (Liquid mixture 1); method: Closed cell (Static) method
Mass fraction of N-methyldiethanolamine	Temperature, K	Vapor or sublimation pressure, kPa	uncertainty
0.25	293.36	307	1
0.25	295.4	326	1
0.25	297.35	346	1
0.25	299.32	366	1
0.25	301.25	387	1
0.25	303.36	411	2
0.25	305.28	434	2
0.25	307.31	459	2
0.25	309.36	486	2
0.25	311.31	512	2
0.25	313.28	540	2
0.25	315.27	569	2
0.25	317.28	599	2
0.25	319.26	631	2
0.25	321.23	663	2
0.25	323.2	697	2
0.25	325.29	734	3
0.25	327.18	769	3
0.25	329.2	808	3
0.25	331.19	847	3
0.25	333.21	889	3
0.25	335.17	931	3
0.25	337.16	975	3
0.25	339.22	1022	3
0.25	341.13	1067	4
0.25	343.18	1117	4
0.25	345.15	1167	4
0.25	347.18	1221	4
0.25	349.13	1274	4
0.25	351.07	1328	4
0.25	353.13	1388	5
0.5	293.53	311	1
0.5	295.44	329	1
0.5	297.34	348	1
0.5	299.28	368	1
0.5	301.22	389	1
0.5	303.25	412	2
0.5	305.37	437	2
0.5	307.39	462	2
0.5	309.36	487	2
0.5	311.29	513	2
0.5	313.29	541	2
0.5	315.27	570	2
0.5	317.28	601	2
0.5	319.25	632	2
0.5	321.22	664	2
0.5	323.21	698	2
0.5	325.27	735	3
0.5	327.18	770	3
0.5	329.18	808	3
0.5	331.2	847	3
0.5	333.19	889	3
0.5	335.17	931	3
0.5	337.16	974	3
0.5	339.24	1022	3
0.5	341.15	1066	4
0.5	343.2	1116	4
0.5	345.17	1166	4
0.5	347.12	1218	4
0.5	349.12	1272	4
0.5	351.05	1325	4
0.5	353.17	1386	5

System: 2-methylpropane + N-methyldiethanolamine + water; phases: Liquid mixture 1, Liquid mixture 2, Gas
Property: Mole fraction of 2-methylpropane (Liquid mixture 1); method: Chromatography
Temperature, K	Mass fraction of N-methyldiethanolamine	Mole fraction of 2-methylpropane	uncertainty
298.29	0.25	0.00018	2e-05
303.31	0.25	0.000187	2e-05
313.24	0.25	0.000206	2e-05
323.2	0.25	0.000222	2e-05
333.2	0.25	0.000245	2e-05
343.16	0.25	0.000283	2e-05
298.23	0.5	0.000525	2e-05
303.3	0.5	0.000581	2e-05
313.29	0.5	0.000696	2.1e-05
323.22	0.5	0.000862	2.1e-05
333.24	0.5	0.001083	2.1e-05
343.15	0.5	0.001456	2.3e-05

System: 2-methylpropane + N-methyldiethanolamine + water; phases: Liquid mixture 1, Liquid mixture 2, Gas
Property: Vapor or sublimation pressure, kPa (Liquid mixture 1); method: CCELL:UFactor:8
Temperature, K	Mass fraction of N-methyldiethanolamine	Vapor or sublimation pressure, kPa	uncertainty
298.29	0.25	355	9
303.31	0.25	410	10
313.24	0.25	539	14
323.2	0.25	696	17
333.2	0.25	888	22
343.16	0.25	1116	28
298.23	0.5	354	9
303.3	0.5	409	10
313.29	0.5	539	14
323.22	0.5	695	17
333.24	0.5	887	22
343.15	0.5	1116	28

System: 2-methylpropane + diethanolamine + water; phases: Liquid mixture 1, Liquid mixture 2, Gas
Fixed: Mass fraction of diethanolamine = 0.35
Property: Vapor or sublimation pressure, kPa (Liquid mixture 1); method: Closed cell (Static) method
Temperature, K	Vapor or sublimation pressure, kPa	uncertainty
293.33	306	1
295.36	325	1
297.22	344	1
299.27	365	1
301.21	386	1
303.31	410	2
305.26	433	2
307.26	458	2
309.26	484	2
311.25	510	2
313.28	539	2
315.26	568	2
317.29	599	2
319.37	632	2
321.24	662	2
323.22	696	2
325.28	733	3
327.22	768	3
329.19	806	3
331.2	846	3
333.21	887	3
335.16	929	3
337.15	973	3
339.22	1020	3
341.14	1065	4
343.19	1116	4
345.16	1166	4
347.19	1220	4
349.11	1271	4
351.06	1326	4
353.16	1387	5

System: 2-methylpropane + diethanolamine + water; phases: Liquid mixture 1, Liquid mixture 2, Gas
Fixed: Mass fraction of diethanolamine = 0.35
Property: Mole fraction of 2-methylpropane (Liquid mixture 1); method: Chromatography
Temperature, K	Mole fraction of 2-methylpropane	uncertainty
298.28	0.000215	2e-05
303.28	0.000228	2e-05
313.26	0.000259	2e-05
323.2	0.000296	2e-05
333.28	0.00033	2e-05
343.18	0.000374	2e-05

System: 2-methylpropane + diethanolamine + water; phases: Liquid mixture 1, Liquid mixture 2, Gas
Fixed: Mass fraction of diethanolamine = 0.35
Property: Vapor or sublimation pressure, kPa (Liquid mixture 1); method: CCELL:UFactor:8
Temperature, K	Vapor or sublimation pressure, kPa	uncertainty
298.28	354	9
303.28	409	10
313.26	539	14
323.2	696	17
333.28	889	22
343.18	1116	28

System: N-methyldiethanolamine + butane + water; phases: Liquid mixture 1, Liquid mixture 2, Gas
Property: Vapor or sublimation pressure, kPa (Liquid mixture 1); method: Closed cell (Static) method
Mass fraction of N-methyldiethanolamine	Temperature, K	Vapor or sublimation pressure, kPa	uncertainty
0.25	293.49	213	1
0.25	295.53	227	1
0.25	297.44	241	1
0.25	299.42	257	1
0.25	301.38	272	1
0.25	303.42	290	1
0.25	305.35	307	1
0.25	307.37	326	1
0.25	309.34	345	1
0.25	311.33	366	1
0.25	313.3	387	1
0.25	315.28	409	2
0.25	317.28	432	2
0.25	319.26	456	2
0.25	321.21	481	2
0.25	323.2	508	2
0.25	325.27	536	2
0.25	327.17	564	2
0.25	329.21	594	2
0.25	331.2	625	2
0.25	333.22	658	2
0.25	335.17	690	2
0.25	337.16	725	3
0.25	339.22	763	3
0.25	341.13	799	3
0.25	343.14	838	3
0.25	345.11	878	3
0.25	347.17	921	3
0.25	349.11	963	3
0.25	351.05	1006	3
0.25	353.14	1056	4
0.5	293.3	212	1
0.5	295.37	227	1
0.5	297.32	241	1
0.5	299.26	256	1
0.5	301.21	271	1
0.5	303.26	289	1
0.5	303.27	289	1
0.5	305.19	306	1
0.5	307.23	325	1
0.5	309.2	344	1
0.5	309.2	344	1
0.5	311.18	364	1
0.5	313.26	386	1
0.5	315.25	409	2
0.5	317.24	431	2
0.5	319.24	456	2
0.5	321.36	483	2
0.5	323.33	509	2
0.5	325.38	537	2
0.5	327.27	564	2
0.5	329.26	594	2
0.5	331.26	625	2
0.5	333.27	657	2
0.5	335.23	690	2
0.5	337.2	724	3
0.5	343.17	835	3
0.5	345.13	874	3
0.5	347.18	917	3
0.5	349.12	959	3
0.5	351.06	1003	3
0.5	353.13	1051	4

System: N-methyldiethanolamine + butane + water; phases: Liquid mixture 1, Liquid mixture 2, Gas
Property: Mole fraction of butane (Liquid mixture 1); method: Chromatography
Temperature, K	Mass fraction of N-methyldiethanolamine	Mole fraction of butane	uncertainty
298.27	0.25	9.5e-05	1.2e-05
303.27	0.25	0.000102	1.2e-05
313.22	0.25	0.00011	1.2e-05
323.32	0.25	0.000119	1.2e-05
333.25	0.25	0.000135	1.2e-05
343.17	0.25	0.000153	1.2e-05
298.28	0.5	0.000299	1.2e-05
303.29	0.5	0.00031	1.2e-05
313.19	0.5	0.000382	1.2e-05
323.16	0.5	0.00047	1.2e-05
333.22	0.5	0.000589	1.3e-05
343.16	0.5	0.000731	1.3e-05

System: N-methyldiethanolamine + butane + water; phases: Liquid mixture 1, Liquid mixture 2, Gas
Property: Vapor or sublimation pressure, kPa (Liquid mixture 1); method: CCELL:UFactor:8
Temperature, K	Mass fraction of N-methyldiethanolamine	Vapor or sublimation pressure, kPa	uncertainty
323.32	0.25	509	13
333.25	0.25	658	16
343.17	0.25	839	21
323.16	0.5	506	13
333.22	0.5	655	16
343.16	0.5	835	21

System: butane + diethanolamine + water; phases: Liquid mixture 1, Liquid mixture 2, Gas
Fixed: Mass fraction of diethanolamine = 0.35
Property: Vapor or sublimation pressure, kPa (Liquid mixture 1); method: Closed cell (Static) method
Temperature, K	Vapor or sublimation pressure, kPa	uncertainty
293.35	220	1
295.37	234	1
297.34	248	1
299.31	263	1
301.24	279	1
303.28	296	1
305.25	314	1
307.29	333	1
309.24	352	1
311.24	372	1
313.21	393	1
315.22	416	2
317.21	439	2
319.32	464	2
321.28	489	2
323.23	514	2
325.3	543	2
327.22	570	2
329.22	600	2
331.21	631	2
333.23	664	2
335.19	696	2
337.16	731	3
339.22	768	3
341.14	804	3
343.19	844	3
345.12	883	3
347.18	926	3
349.14	968	3
351.06	1012	3
353.14	1060	4

System: butane + diethanolamine + water; phases: Liquid mixture 1, Liquid mixture 2, Gas
Fixed: Mass fraction of diethanolamine = 0.35
Property: Mole fraction of butane (Liquid mixture 1); method: Chromatography
Temperature, K	Mole fraction of butane	uncertainty
298.26	0.000121	1.2e-05
303.31	0.000122	1.2e-05
313.3	0.000129	1.2e-05
323.27	0.000139	1.2e-05
333.21	0.000156	1.2e-05
343.16	0.000181	1.2e-05

System: butane + diethanolamine + water; phases: Liquid mixture 1, Liquid mixture 2, Gas
Fixed: Mass fraction of diethanolamine = 0.35
Property: Vapor or sublimation pressure, kPa (Liquid mixture 1); method: CCELL:UFactor:8
Temperature, K	Vapor or sublimation pressure, kPa	uncertainty
323.27	507	13
333.21	664	17
343.16	843	21

System: N-methyldiethanolamine + pentane + water; phases: Liquid mixture 1, Liquid mixture 2, Gas
Property: Vapor or sublimation pressure, kPa (Liquid mixture 1); method: Closed cell (Static) method
Mass fraction of N-methyldiethanolamine	Temperature, K	Vapor or sublimation pressure, kPa	uncertainty
0.25	293.31	62	1
0.25	295.32	67	1
0.25	297.3	72	1
0.25	299.26	77	1
0.25	301.2	82	1
0.25	303.29	89	1
0.25	305.22	95	1
0.25	307.26	102	1
0.25	309.2	109	1
0.25	311.2	116	1
0.25	313.19	124	1
0.25	315.18	133	1
0.25	317.18	142	1
0.25	319.38	153	1
0.25	321.34	162	1
0.25	323.31	173	1
0.25	325.37	184	1
0.25	327.27	195	1
0.25	329.26	208	1
0.25	331.25	221	1
0.25	333.26	235	1
0.25	335.21	249	1
0.25	337.19	264	1
0.25	339.23	280	1
0.25	341.13	296	1
0.25	343.15	313	1
0.25	345.1	331	1
0.25	347.15	350	1
0.25	349.1	370	1
0.25	351.03	390	1
0.25	353.08	412	2
0.5	293.32	61	1
0.5	295.35	66	1
0.5	297.28	71	1
0.5	299.23	76	1
0.5	301.18	82	1
0.5	303.23	88	1
0.5	305.16	94	1
0.5	307.22	101	1
0.5	309.19	108	1
0.5	311.17	115	1
0.5	313.28	124	1
0.5	315.19	132	1
0.5	317.18	141	1
0.5	319.18	150	1
0.5	321.16	160	1
0.5	323.21	171	1
0.5	325.32	183	1
0.5	327.23	193	1
0.5	329.21	205	1
0.5	331.17	218	1
0.5	333.21	232	1
0.5	335.15	246	1
0.5	337.12	261	1
0.5	339.12	276	1
0.5	341.1	292	1
0.5	343.09	310	1
0.5	345.04	327	1
0.5	347.09	346	1
0.5	349.03	366	1
0.5	350.96	385	1
0.5	352.97	407	2

System: N-methyldiethanolamine + pentane + water; phases: Liquid mixture 1, Liquid mixture 2, Gas
Property: Vapor or sublimation pressure, kPa (Liquid mixture 1); method: CCELL:UFactor:8
Mass fraction of N-methyldiethanolamine	Temperature, K	Vapor or sublimation pressure, kPa	uncertainty
0.25	298.26	512	13
0.25	303.32	493	12
0.25	313.2	508	13
0.25	323.28	511	13
0.25	333.23	503	13
0.25	343.17	508	13
0.5	298.41	514	13
0.5	303.38	512	13
0.5	313.26	508	13
0.5	323.19	503	13
0.5	333.21	510	13
0.5	343.17	514	13

System: N-methyldiethanolamine + pentane + water; phases: Liquid mixture 1, Liquid mixture 2, Gas
Property: Mole fraction of pentane (Liquid mixture 1); method: Chromatography
Mass fraction of N-methyldiethanolamine	Temperature, K	Mole fraction of pentane	uncertainty
0.25	298.26	2.7e-05	6e-06
0.25	303.32	3e-05	6e-06
0.25	313.2	3.4e-05	6e-06
0.25	323.28	4e-05	6e-06
0.25	333.23	4.6e-05	6e-06
0.25	343.17	5.6e-05	6e-06
0.5	298.41	0.000135	6e-06
0.5	303.38	0.00014	6e-06
0.5	313.26	0.000157	6e-06
0.5	323.19	0.000184	6e-06
0.5	333.21	0.00025	6e-06
0.5	343.17	0.000316	6e-06

System: pentane + diethanolamine + water; phases: Liquid mixture 1, Liquid mixture 2, Gas
Fixed: Mass fraction of diethanolamine = 0.35
Property: Vapor or sublimation pressure, kPa (Liquid mixture 1); method: Closed cell (Static) method
Temperature, K	Vapor or sublimation pressure, kPa	uncertainty
293.36	61	1
295.38	66	1
297.34	71	1
299.29	76	1
301.23	82	1
303.29	88	1
305.23	94	1
307.28	102	1
309.25	109	1
311.22	116	1
313.2	124	1
315.19	132	1
317.22	141	1
319.19	151	1
321.16	161	1
323.17	171	1
325.33	183	1
327.25	195	1
329.23	207	1
331.22	220	1
333.24	233	1
335.23	248	1
337.21	262	1
339.26	279	1
341.19	295	1
343.18	312	1
345.14	329	1
347.3	350	1
349.18	368	1
351.08	389	2
353.12	410	2

System: pentane + diethanolamine + water; phases: Liquid mixture 1, Liquid mixture 2, Gas
Fixed: Mass fraction of diethanolamine = 0.35
Property: Vapor or sublimation pressure, kPa (Liquid mixture 1); method: CCELL:UFactor:8
Temperature, K	Vapor or sublimation pressure, kPa	uncertainty
298.28	493	12
303.29	503	13
313.13	505	13
323.18	502	13
333.22	527	13
343.32	509	13

System: pentane + diethanolamine + water; phases: Liquid mixture 1, Liquid mixture 2, Gas
Fixed: Mass fraction of diethanolamine = 0.35
Property: Mole fraction of pentane (Liquid mixture 1); method: Chromatography
Temperature, K	Mole fraction of pentane	uncertainty
298.28	0.493	0.004
303.29	0.503	0.004
313.13	0.505	0.004
323.18	0.502	0.004
333.22	0.527	0.004
343.32	0.509	0.004

System: N-methyldiethanolamine + hexane + water; phases: Liquid mixture 1, Liquid mixture 2, Gas
Fixed: Mass fraction of N-methyldiethanolamine = 0.5
Property: Vapor or sublimation pressure, kPa (Liquid mixture 1); method: Closed cell (Static) method
Temperature, K	Vapor or sublimation pressure, kPa	uncertainty
293.24	24	1
295.53	27	1
297.45	30	1
299.39	32	1
301.35	34	1
303.39	36	1
305.33	40	1
307.37	42	1
309.33	45	1
311.31	46	1
313.27	50	1
315.26	53	1
317.26	56	1
319.26	60	1
321.19	65	1
323.18	70	1
325.29	75	1
327.19	79	1
329.19	85	1
331.18	91	1
333.22	98	1
335.19	104	1
337.15	112	1
339.22	120	1
341.15	127	1
343.15	135	1
345.14	143	1
347.16	153	1
349.13	162	1
351.04	172	1
353.17	184	1

System: N-methyldiethanolamine + hexane + water; phases: Liquid mixture 1, Liquid mixture 2, Gas
Property: Vapor or sublimation pressure, kPa (Liquid mixture 1); method: CCELL:UFactor:8
Mass fraction of N-methyldiethanolamine	Temperature, K	Vapor or sublimation pressure, kPa	uncertainty
0.25	298.17	501	13
0.25	313.13	514	13
0.25	333.14	503	13
0.25	353.18	513	13
0.5	298.21	503	13
0.5	313.17	505	13
0.5	333.24	503	13
0.5	353.17	518	13

System: N-methyldiethanolamine + hexane + water; phases: Liquid mixture 1, Liquid mixture 2, Gas
Property: Mole fraction of hexane (Liquid mixture 1); method: Chromatography
Mass fraction of N-methyldiethanolamine	Temperature, K	Mole fraction of hexane	uncertainty
0.25	298.17	9e-06	2e-06
0.25	313.13	1.2e-05	2e-06
0.25	333.14	1.8e-05	2e-06
0.25	353.18	2.9e-05	2e-06
0.5	298.21	4.4e-05	2e-06
0.5	313.17	6.6e-05	2e-06
0.5	333.24	0.000115	2e-06
0.5	353.17	0.000198	3e-06

System: hexane + diethanolamine + water; phases: Liquid mixture 1, Liquid mixture 2, Gas
Fixed: Mass fraction of diethanolamine = 0.35
Property: Vapor or sublimation pressure, kPa (Liquid mixture 1); method: Closed cell (Static) method
Temperature, K	Vapor or sublimation pressure, kPa	uncertainty
298.16	503	2
313.16	500	2
333.15	501	2
353.15	502	2

System: hexane + diethanolamine + water; phases: Liquid mixture 1, Liquid mixture 2, Gas
Fixed: Mass fraction of diethanolamine = 0.35
Property: Mole fraction of hexane (Liquid mixture 1); method: Chromatography
Temperature, K	Mole fraction of hexane	uncertainty
298.16	9e-06	2e-06
313.16	1.4e-05	2e-06
333.15	2e-05	2e-06
353.15	3.4e-05	2e-06
