Measured thermophysical data. Isobaric Heat Capacity Measurements for Dimethyl Ether and 1,1-Difluoroethane in the Liquid Phase at Temperatures from 305 K to 365 K and Pressures up to 5 MPa
Source: J. Chem. Eng. Data, 2014, 10.1021/je500512f
Compound 1: dimethyl ether, C2H6O, InChI=1S/C2H6O/c1-3-2/h1-2H3, purity 99.5%
Compound 2: 1,1-difluoroethane, C2H4F2, InChI=1S/C2H4F2/c1-2(3)4/h2H,1H3, purity 99.8%

System: dimethyl ether; phases: Liquid
Property: Molar heat capacity at constant pressure, J/K/mol (Liquid); method: Twin Calvet
Temperature, K	Pressure, kPa	Molar heat capacity at constant pressure, J/K/mol	uncertainty
305.15	1460	113.19015708	6.2192394
305.15	2030	112.82160956	6.17317096
305.15	2520	112.13058296	6.17317096
305.15	2930	112.36092516	6.17317096
305.15	3540	111.99237764	6.12710252
305.15	4060	111.53169324	6.12710252
305.15	4580	111.2552826	6.12710252
305.15	5020	111.0249404	6.08103408
310.15	1460	113.46656772	6.2192394
310.15	2030	112.91374644	6.2192394
310.15	2520	112.31485672	6.17317096
310.15	2930	112.45306204	6.17317096
310.15	3540	111.715967	6.12710252
310.15	4060	111.20921416	6.12710252
310.15	4580	111.43955636	6.12710252
310.15	5020	111.30135104	6.12710252
315.15	1460	114.80255248	6.31137628
315.15	2030	114.11152588	6.26530784
315.15	2520	113.60477304	6.2192394
315.15	2930	113.46656772	6.2192394
315.15	3540	112.77554112	6.17317096
315.15	4060	112.13058296	6.17317096
315.15	4580	112.45306204	6.17317096
315.15	5020	112.22271984	6.17317096
320.15	1460	116.23067412	6.40351316
320.15	2030	115.44751064	6.35744472
320.15	2520	115.03289468	6.31137628
320.15	2930	114.89468936	6.31137628
320.15	3540	114.019389	6.26530784
320.15	4060	113.37443084	6.2192394
320.15	4580	113.5587046	6.2192394
320.15	5020	113.28229396	6.2192394
325.15	1460	117.84306952	6.4495816
325.15	2030	116.92170072	6.40351316
325.15	2520	116.64529008	6.40351316
325.15	2930	116.04640036	6.35744472
325.15	3540	115.30930532	6.31137628
325.15	4060	114.57221028	6.31137628
325.15	4580	114.66434716	6.31137628
325.15	5020	114.29579964	6.26530784
330.15	2030	118.8565752	6.54171848
330.15	2520	118.48802768	6.49565004
330.15	2930	117.75093264	6.4495816
330.15	3540	117.0138376	6.40351316
330.15	4060	116.04640036	6.35744472
330.15	4580	116.04640036	6.35744472
330.15	5020	115.58571596	6.35744472
335.15	2030	121.34427096	6.6799238
335.15	2520	120.83751812	6.63385536
335.15	2930	120.14649152	6.58778692
335.15	3540	119.27119116	6.54171848
335.15	4060	118.02734328	6.49565004
335.15	4580	117.98127484	6.49565004
335.15	5020	117.38238512	6.4495816
340.15	2520	123.9241036	6.81812912
340.15	2930	123.09487168	6.77206068
340.15	3540	122.081366	6.6799238
340.15	4060	120.65324436	6.63385536
340.15	4580	120.51503904	6.63385536
340.15	5020	119.82401244	6.58778692
345.15	2520	127.74778412	7.00240288
345.15	2930	126.55000468	6.95633444
345.15	3540	125.35222524	6.86419756
345.15	4060	123.9241036	6.81812912
345.15	4580	123.64769296	6.77206068
345.15	5020	122.86452948	6.72599224
350.15	2930	130.65009584	7.18667664
350.15	3540	129.12983732	7.09453976
350.15	4060	127.74778412	7.00240288
350.15	4580	127.19496284	7.00240288
350.15	5020	126.27359404	6.910266
355.15	3540	133.46027068	7.32488196
355.15	4060	131.94001216	7.23274508
355.15	4580	131.0647118	7.18667664
355.15	5020	129.9130008	7.1406082
360.15	4060	136.8232668	7.50915572
360.15	4580	135.6715558	7.46308728
360.15	5020	134.15129728	7.3709504
365.15	4060	144.00994344	7.92377168
365.15	4580	142.30541116	7.8316348
365.15	5020	140.41660512	7.69342948

System: 1,1-difluoroethane; phases: Liquid
Property: Molar heat capacity at constant pressure, J/K/mol (Liquid); method: Twin Calvet
Temperature, K	Pressure, kPa	Molar heat capacity at constant pressure, J/K/mol	uncertainty
305.15	1490	121.0035384448	6.0765969088
305.15	2070	121.1356383776	6.1426468752
305.15	2540	120.8053885456	6.0765969088
305.15	2950	120.2769888144	6.0765969088
305.15	3440	119.2862393184	6.0105469424
305.15	4010	119.550439184	6.0105469424
305.15	4600	118.9559894864	6.0105469424
305.15	5030	118.4936397216	6.0105469424
310.15	1490	121.7961380416	6.1426468752
310.15	2070	121.531938176	6.1426468752
310.15	2540	121.0695884112	6.0765969088
310.15	2950	120.8053885456	6.0765969088
310.15	3440	120.0788389152	6.0765969088
310.15	4010	119.7485890832	6.0105469424
310.15	4600	119.3522892848	6.0105469424
310.15	5030	119.0880894192	6.0105469424
315.15	1490	123.843687	6.274746808
315.15	2070	123.2492373024	6.2086968416
315.15	2540	122.7868875376	6.2086968416
315.15	2950	122.4566377056	6.2086968416
315.15	3440	121.7961380416	6.1426468752
315.15	4010	121.201688344	6.1426468752
315.15	4600	120.6072386464	6.0765969088
315.15	5030	120.4090887472	6.0765969088
320.15	1490	126.155435824	6.3407967744
320.15	2070	125.2307362944	6.3407967744
320.15	2540	124.7683865296	6.274746808
320.15	2950	124.2399867984	6.274746808
320.15	3440	123.7115870672	6.274746808
320.15	4010	122.9850374368	6.2086968416
320.15	4600	122.0603379072	6.1426468752
320.15	5030	121.7961380416	6.1426468752
325.15	1490	128.9955843792	6.5389466736
325.15	2070	127.6085350848	6.4068467408
325.15	2540	127.0140853872	6.4068467408
325.15	2950	126.4196356896	6.4068467408
325.15	3440	125.8912359584	6.3407967744
325.15	4010	124.9665364288	6.274746808
325.15	4600	123.843687	6.274746808
325.15	5030	123.4473872016	6.2086968416
330.15	2070	130.6468335392	6.60499664
330.15	2540	129.788183976	6.5389466736
330.15	2950	129.127684312	6.5389466736
330.15	3440	128.467184648	6.4728967072
330.15	4010	127.4103851856	6.4068467408
330.15	4600	126.0893858576	6.3407967744
330.15	5030	125.6270360928	6.3407967744
335.15	2070	134.2135317248	6.8031465392
335.15	2540	133.2227822288	6.7370965728
335.15	2950	132.3641326656	6.6710466064
335.15	3440	131.439433136	6.60499664
335.15	4010	130.1844837744	6.5389466736
335.15	4600	128.79743448	6.4728967072
335.15	5030	128.2690347488	6.4728967072
340.15	2540	137.2518301792	6.935246472
340.15	2950	136.062930784	6.8691965056
340.15	3440	134.9400813552	6.8031465392
340.15	4010	133.4869820944	6.7370965728
340.15	4600	131.9017829008	6.6710466064
340.15	5030	131.3073332032	6.60499664
345.15	2540	141.8753278272	7.1333963712
345.15	2950	140.3561786	7.0673464048
345.15	3440	139.035179272	7.0012964384
345.15	4010	137.3178801456	6.935246472
345.15	4600	135.3363811536	6.8031465392
345.15	5030	134.6098315232	6.8031465392
350.15	2950	146.1025256768	7.3975962368
350.15	3440	144.0549767184	7.265496304
350.15	4010	141.8753278272	7.1333963712
350.15	4600	139.4314790704	7.0673464048
350.15	5030	138.5067795408	7.0012964384
355.15	3440	150.6599733584	7.595746136
355.15	4010	147.5556249376	7.4636462032
355.15	4600	144.4512765168	7.265496304
355.15	5030	143.1963271552	7.1994463376
360.15	4010	155.0192711408	7.7938960352
360.15	4600	151.0562731568	7.595746136
360.15	5030	149.1408241312	7.5296961696
