Measured thermophysical data. Volumetric Properties of Na2SO4 H2O and Na2SO4 NaCl H2O Solutions to 523.15 K, 70 MPa
Source: J. Chem. Eng. Data, 2015, 10.1021/je501152a
Compound 1: sodium chloride, ClNa, InChI=1S/ClH.Na/h1H;/q;+1/p-1, purity 99.5%
Compound 2: sodium sulfate, Na2O4S, InChI=1S/2Na.H2O4S/c;;1-5(2,3)4/h;;(H2,1,2,3,4)/q2*+1;/p-2, purity 99.5%
Compound 3: water, H2O, InChI=1S/H2O/h1H2, purity 99.9%

System: sodium chloride + water + sodium sulfate; phases: Liquid
Property: Mass density, kg/m3 (Liquid); method: Vibrating tube method
Temperature, K	Pressure, kPa	Molality, mol/kg of sodium chloride	Molality, mol/kg of sodium sulfate	Mass density, kg/m3	uncertainty
298.15	100	0.09995	1.0005	118.468	1.104
298.15	100	0.09998	0.49969	63.589	0.573
298.15	100	0.10038	0.10069	16.801	0.142
298.15	100	0.49963	1.00075	131.183	1.086
298.15	100	0.49971	0.10005	32.074	0.234
298.15	100	0.50023	0.50077	77.843	0.574
298.15	100	0.9992	0.99657	146.223	1.092
298.15	100	0.99987	0.50016	94.586	0.63
298.15	100	1.00011	0.10019	50.746	0.375
298.15	100	1.00868	0.19948	62.361	0.415
298.15	100	2.99977	0.09991	118.581	0.912
298.15	100	2.99983	0.50011	157.486	1.073
298.15	100	5.00004	0.0998	170.237	1.306
298.15	5000	0.09995	1.0005	118.733	1.114
298.15	5000	0.09998	0.49969	63.796	0.581
298.15	5000	0.10021	0.09994	16.676	0.146
298.15	5000	0.49963	1.00075	131.568	1.102
298.15	5000	0.49971	0.10005	32.04	0.24
298.15	5000	0.50023	0.50077	78.071	0.598
298.15	5000	0.9992	0.99657	146.485	1.102
298.15	5000	0.99987	0.50016	95.012	0.647
298.15	5000	1.00011	0.10019	50.824	0.381
298.15	5000	2.99977	0.09991	118.632	0.93
298.15	5000	2.99983	0.50011	157.551	1.088
298.15	5000	5.00004	0.0998	170.603	1.328
298.15	10000	0.09995	1.0005	118.321	1.138
298.15	10000	0.09998	0.49969	63.499	0.592
298.15	10000	0.10021	0.09994	16.541	0.15
298.15	10000	0.49963	1.00075	131.103	1.129
298.15	10000	0.49971	0.10005	31.851	0.247
298.15	10000	0.50023	0.50077	77.72	0.61
298.15	10000	0.9992	0.99657	145.905	1.139
298.15	10000	0.99987	0.50016	94.583	0.673
298.15	10000	1.00011	0.10019	50.531	0.389
298.15	10000	2.99977	0.09991	118.153	0.953
298.15	10000	2.99983	0.50011	156.971	1.127
298.15	10000	5.00004	0.0998	169.975	1.369
298.15	20000	0.09995	1.0005	117.692	1.193
298.15	20000	0.09998	0.49969	63.194	0.626
298.15	20000	0.10021	0.09994	16.505	0.16
298.15	20000	0.49963	1.00075	130.418	1.199
298.15	20000	0.49971	0.10005	31.709	0.268
298.15	20000	0.50023	0.50077	77.309	0.662
298.15	20000	0.9992	0.99657	145.214	1.222
298.15	20000	0.99987	0.50016	94.115	0.736
298.15	20000	1.00011	0.10019	50.231	0.423
298.15	20000	2.99977	0.09991	117.474	1.02
298.15	20000	2.99983	0.50011	156.124	1.225
298.15	20000	5.00004	0.0998	168.971	1.462
298.15	40000	0.09995	1.0005	116.34	1.37
298.15	40000	0.09998	0.49969	62.409	0.725
298.15	40000	0.10021	0.09994	16.282	0.189
298.15	40000	0.49963	1.00075	128.961	1.412
298.15	40000	0.49971	0.10005	31.233	0.33
298.15	40000	0.50023	0.50077	76.37	0.8
298.15	40000	0.9992	0.99657	143.518	1.479
298.15	40000	0.99987	0.50016	92.967	0.916
298.15	40000	1.00011	0.10019	49.55	0.52
298.15	40000	2.99977	0.09991	115.903	1.221
298.15	40000	2.99983	0.50011	154.267	1.517
298.15	40000	5.00004	0.0998	166.997	1.753
298.15	70000	0.09995	1.0005	114.496	1.726
298.15	70000	0.09998	0.49969	61.372	0.924
298.15	70000	0.10021	0.09994	15.938	0.247
298.15	70000	0.49963	1.00075	126.903	1.832
298.15	70000	0.49971	0.10005	30.625	0.441
298.15	70000	0.50023	0.50077	75.119	1.063
298.15	70000	0.9992	0.99657	141.243	1.971
298.15	70000	0.99987	0.50016	91.398	1.247
298.15	70000	1.00011	0.10019	48.625	0.691
298.15	70000	2.99977	0.09991	113.909	1.612
298.15	70000	2.99983	0.50011	151.779	2.065
298.15	70000	5.00004	0.0998	164.293	2.315
373.15	5000	0.09995	1.0005	114.266	1.118
373.15	5000	0.09998	0.49969	61.257	0.559
373.15	5000	0.10038	0.10069	16.131	0.142
373.15	5000	0.49963	1.00075	126.691	1.093
373.15	5000	0.49971	0.10005	30.939	0.231
373.15	5000	0.50023	0.50077	75.001	0.562
373.15	5000	0.9992	0.99657	141.257	1.131
373.15	5000	0.99987	0.50016	91.491	0.637
373.15	5000	1.00011	0.10019	48.863	0.364
373.15	5000	1.00868	0.19948	59.94	0.41
373.15	5000	2.99977	0.09991	114.641	0.902
373.15	5000	2.99983	0.50011	152.395	1.116
373.15	5000	5.00004	0.0998	165.025	1.379
373.15	10000	0.09995	1.0005	113.972	1.121
373.15	10000	0.09998	0.49969	61.077	0.57
373.15	10000	0.10038	0.10069	16.082	0.146
373.15	10000	0.49963	1.00075	126.433	1.109
373.15	10000	0.49971	0.10005	30.827	0.239
373.15	10000	0.50023	0.50077	74.822	0.58
373.15	10000	0.9992	0.99657	140.89	1.13
373.15	10000	0.99987	0.50016	91.231	0.656
373.15	10000	1.00011	0.10019	48.725	0.375
373.15	10000	1.00868	0.19948	59.793	0.428
373.15	10000	2.99977	0.09991	114.305	0.924
373.15	10000	2.99983	0.50011	152.011	1.128
373.15	10000	5.00004	0.0998	164.585	1.376
373.15	20000	0.09995	1.0005	113.429	1.173
373.15	20000	0.09998	0.49969	60.775	0.603
373.15	20000	0.10038	0.10069	15.943	0.157
373.15	20000	0.49963	1.00075	125.829	1.176
373.15	20000	0.49971	0.10005	30.658	0.259
373.15	20000	0.50023	0.50077	74.437	0.628
373.15	20000	0.9992	0.99657	140.247	1.215
373.15	20000	0.99987	0.50016	90.748	0.717
373.15	20000	1.00011	0.10019	48.427	0.408
373.15	20000	1.00868	0.19948	59.417	0.47
373.15	20000	2.99977	0.09991	113.661	0.99
373.15	20000	2.99983	0.50011	151.225	1.221
373.15	20000	5.00004	0.0998	163.698	1.463
373.15	40000	0.09995	1.0005	112.392	1.35
373.15	40000	0.09998	0.49969	60.164	0.7
373.15	40000	0.10038	0.10069	15.752	0.184
373.15	40000	0.49963	1.00075	124.676	1.384
373.15	40000	0.49971	0.10005	30.272	0.319
373.15	40000	0.50023	0.50077	73.671	0.764
373.15	40000	0.9992	0.99657	138.946	1.471
373.15	40000	0.99987	0.50016	89.821	0.892
373.15	40000	1.00011	0.10019	47.833	0.499
373.15	40000	1.00868	0.19948	58.77	0.59
373.15	40000	2.99977	0.09991	112.392	1.187
373.15	40000	2.99983	0.50011	149.725	1.509
373.15	40000	5.00004	0.0998	162.061	1.755
373.15	70000	0.10038	0.10069	15.56	0.24
373.15	70000	1.00868	0.19948	57.935	0.817
423.15	5000	0.09995	1.0005	116.184	1.112
423.15	5000	0.09998	0.49969	62.508	0.57
423.15	5000	0.10038	0.10069	16.599	0.153
423.15	5000	0.49963	1.00075	128.779	1.091
423.15	5000	0.49971	0.10005	32.221	0.245
423.15	5000	0.50023	0.50077	76.794	0.572
423.15	5000	0.9992	0.99657	143.711	1.116
423.15	5000	0.99987	0.50016	93.724	0.642
423.15	5000	1.00011	0.10019	50.804	0.38
423.15	5000	1.00868	0.19948	62.099	0.427
423.15	5000	2.99977	0.09991	118.67	0.93
423.15	5000	2.99983	0.50011	156.347	1.119
423.15	5000	5.00004	0.0998	169.976	1.374
423.15	10000	0.09995	1.0005	115.884	1.121
423.15	10000	0.09998	0.49969	62.44	0.58
423.15	10000	0.10038	0.10069	16.618	0.158
423.15	10000	0.49963	1.00075	128.385	1.11
423.15	10000	0.49971	0.10005	32.096	0.252
423.15	10000	0.50023	0.50077	76.534	0.589
423.15	10000	0.9992	0.99657	143.295	1.129
423.15	10000	0.99987	0.50016	93.469	0.665
423.15	10000	1.00011	0.10019	50.635	0.39
423.15	10000	1.00868	0.19948	61.45	0.44
423.15	10000	2.99977	0.09991	118.273	0.949
423.15	10000	2.99983	0.50011	155.91	1.14
423.15	10000	5.00004	0.0998	169.443	1.382
423.15	20000	0.09995	1.0005	115.173	1.176
423.15	20000	0.09998	0.49969	61.943	0.613
423.15	20000	0.10038	0.10069	16.445	0.168
423.15	20000	0.49963	1.00075	127.606	1.179
423.15	20000	0.49971	0.10005	31.814	0.271
423.15	20000	0.50023	0.50077	76.004	0.637
423.15	20000	0.9992	0.99657	142.392	1.213
423.15	20000	0.99987	0.50016	92.742	0.727
423.15	20000	1.00011	0.10019	50.156	0.423
423.15	20000	1.00868	0.19948	61.376	0.484
423.15	20000	2.99977	0.09991	117.266	1.016
423.15	20000	2.99983	0.50011	154.79	1.24
423.15	20000	5.00004	0.0998	168.121	1.475
423.15	40000	0.09995	1.0005	113.907	1.348
423.15	40000	0.09998	0.49969	61.196	0.713
423.15	40000	0.10038	0.10069	16.162	0.195
423.15	40000	0.49963	1.00075	126.196	1.388
423.15	40000	0.49971	0.10005	31.25	0.33
423.15	40000	0.50023	0.50077	75.067	0.777
423.15	40000	0.9992	0.99657	140.84	1.46
423.15	40000	0.99987	0.50016	91.59	0.91
423.15	40000	1.00011	0.10019	49.355	0.517
423.15	40000	1.00868	0.19948	60.47	0.6
423.15	40000	2.99977	0.09991	115.608	1.218
423.15	40000	2.99983	0.50011	152.849	1.519
423.15	40000	5.00004	0.0998	165.937	1.756
423.15	70000	0.09995	1.0005	112.565	1.719
423.15	70000	0.09998	0.49969	60.439	0.912
423.15	70000	0.10021	0.09994	15.927	0.25
423.15	70000	0.49963	1.00075	124.683	1.815
423.15	70000	0.49971	0.10005	30.746	0.446
423.15	70000	0.50023	0.50077	74.058	1.049
423.15	70000	0.9992	0.99657	139.091	1.972
423.15	70000	0.99987	0.50016	90.275	1.242
423.15	70000	1.00011	0.10019	48.572	0.693
423.15	70000	2.99977	0.09991	113.728	1.61
423.15	70000	2.99983	0.50011	150.708	2.082
423.15	70000	5.00004	0.0998	163.414	2.348
473.15	5000	0.09995	1.0005	120.826	1.164
473.15	5000	0.09998	0.49969	65.76	0.6
473.15	5000	0.10021	0.09994	17.848	0.189
473.15	5000	0.49963	1.00075	134.377	1.133
473.15	5000	0.49971	0.10005	35.043	0.282
473.15	5000	0.50023	0.50077	81.102	0.614
473.15	5000	0.9992	0.99657	150.404	1.173
473.15	5000	0.99987	0.50016	99.418	0.686
473.15	5000	1.00011	0.10019	55.38	0.42
473.15	5000	2.99977	0.09991	127.551	0.985
473.15	5000	2.99983	0.50011	165.599	1.197
473.15	5000	5.00004	0.0998	181.528	1.469
473.15	10000	0.09995	1.0005	120.336	1.165
473.15	10000	0.09998	0.49969	65.437	0.609
473.15	10000	0.10021	0.09994	17.863	0.194
473.15	10000	0.49963	1.00075	133.757	1.148
473.15	10000	0.49971	0.10005	34.842	0.29
473.15	10000	0.50023	0.50077	80.703	0.629
473.15	10000	0.9992	0.99657	149.653	1.175
473.15	10000	0.99987	0.50016	98.878	0.702
473.15	10000	1.00011	0.10019	55.009	0.428
473.15	10000	2.99977	0.09991	126.721	1.007
473.15	10000	2.99983	0.50011	164.613	1.206
473.15	10000	5.00004	0.0998	180.441	1.467
473.15	20000	0.09995	1.0005	119.07	1.22
473.15	20000	0.09998	0.49969	64.688	0.637
473.15	20000	0.10021	0.09994	17.484	0.204
473.15	20000	0.49963	1.00075	132.349	1.219
473.15	20000	0.49971	0.10005	34.213	0.31
473.15	20000	0.50023	0.50077	79.657	0.676
473.15	20000	0.9992	0.99657	148.069	1.261
473.15	20000	0.99987	0.50016	97.612	0.768
473.15	20000	1.00011	0.10019	54.092	0.458
473.15	20000	2.99977	0.09991	124.969	1.077
473.15	20000	2.99983	0.50011	162.657	1.304
473.15	20000	5.00004	0.0998	178.189	1.559
473.15	40000	0.09995	1.0005	117.261	1.392
473.15	40000	0.09998	0.49969	63.521	0.742
473.15	40000	0.10021	0.09994	17.056	0.231
473.15	40000	0.49963	1.00075	130.278	1.432
473.15	40000	0.49971	0.10005	33.378	0.364
473.15	40000	0.50023	0.50077	78.241	0.821
473.15	40000	0.9992	0.99657	145.715	1.514
473.15	40000	0.99987	0.50016	95.781	0.952
473.15	40000	1.00011	0.10019	52.796	0.555
473.15	40000	2.99977	0.09991	122.292	1.288
473.15	40000	2.99983	0.50011	159.611	1.592
473.15	40000	5.00004	0.0998	174.665	1.846
473.15	70000	0.09995	1.0005	115.183	1.745
473.15	70000	0.09998	0.49969	62.238	0.947
473.15	70000	0.10021	0.09994	16.577	0.279
473.15	70000	0.49963	1.00075	127.74	1.85
473.15	70000	0.49971	0.10005	32.203	0.478
473.15	70000	0.50023	0.50077	76.382	1.09
473.15	70000	0.9992	0.99657	142.899	1.999
473.15	70000	0.99987	0.50016	93.689	1.289
473.15	70000	1.00011	0.10019	51.236	0.739
473.15	70000	2.99977	0.09991	119.159	1.694
473.15	70000	2.99983	0.50011	156.22	2.14
473.15	70000	5.00004	0.0998	170.723	2.409
523.15	5000	0.09995	1.0005	131.057	1.214
523.15	5000	0.09998	0.49969	72.604	0.67
523.15	5000	0.10021	0.09994	20.759	0.269
523.15	5000	0.49963	1.00075	145.914	1.191
523.15	5000	0.49971	0.10005	40.913	0.365
523.15	5000	0.50023	0.50077	89.95	0.68
523.15	5000	0.9992	0.99657	164.431	1.201
523.15	5000	0.99987	0.50016	110.728	0.75
523.15	5000	1.00011	0.10019	64.361	0.503
523.15	5000	2.99977	0.09991	144.619	1.099
523.15	5000	2.99983	0.50011	183.731	1.262
523.15	5000	5.00004	0.0998	202.491	1.508
523.15	10000	0.09995	1.0005	129.842	1.227
523.15	10000	0.09998	0.49969	71.928	0.679
523.15	10000	0.10021	0.09994	20.463	0.274
523.15	10000	0.49963	1.00075	144.735	1.207
523.15	10000	0.49971	0.10005	40.2	0.4
523.15	10000	0.50023	0.50077	89.129	0.7
523.15	10000	0.9992	0.99657	162.674	1.225
523.15	10000	0.99987	0.50016	109.424	0.772
523.15	10000	1.00011	0.10019	63.341	0.512
523.15	10000	2.99977	0.09991	142.514	1.115
523.15	10000	2.99983	0.50011	181.5	1.3
523.15	10000	5.00004	0.0998	199.85	1.54
523.16	20000	0.09995	1.0005	127.51	1.28
523.15	20000	0.09998	0.49969	70.415	0.709
523.15	20000	0.10021	0.09994	19.871	0.285
523.15	20000	0.49963	1.00075	142.022	1.281
523.15	20000	0.49971	0.10005	38.966	0.393
523.15	20000	0.50023	0.50077	87.2	0.7
523.15	20000	0.9992	0.99657	159.5	1.3
523.16	20000	0.99987	0.50016	106.955	0.832
523.15	20000	1.00011	0.10019	61.439	0.543
523.15	20000	2.99977	0.09991	138.864	1.183
523.16	20000	2.99983	0.50011	177.505	1.4
523.15	20000	5.00004	0.0998	195.211	1.652
523.15	40000	0.09995	1.0005	123.984	1.462
523.15	40000	0.09998	0.49969	68.135	0.805
523.15	40000	0.10021	0.09994	18.958	0.312
523.15	40000	0.49963	1.00075	137.96	1.51
523.15	40000	0.49971	0.10005	37.128	0.448
523.16	40000	0.50023	0.50077	84.205	0.892
523.15	40000	0.9992	0.99657	154.777	1.592
523.15	40000	0.99987	0.50016	103.267	1.028
523.15	40000	1.00011	0.10019	58.628	0.633
523.16	40000	2.99977	0.09991	133.367	1.407
523.15	40000	2.99983	0.50011	171.465	1.703
523.15	40000	5.00004	0.0998	188.261	1.958

System: water + sodium sulfate; phases: Liquid
Property: Mass density, kg/m3 (Liquid); method: Vibrating tube method
Temperature, K	Pressure, kPa	Molality, mol/kg of sodium sulfate	Mass density, kg/m3	uncertainty
298.15	100	0.1001	12.69	0.137
298.15	100	0.49086	59.282	0.567
298.15	100	1.00025	115.553	1.096
298.15	100	1.21083	137.353	1.261
298.15	5000	0.09999	12.7	0.14
298.15	5000	0.49972	60.374	0.583
298.15	5000	1.00025	115.496	1.111
298.15	5000	1.21083	137.625	1.283
298.15	10000	0.09999	12.545	0.142
298.15	10000	0.49972	60.139	0.593
298.15	10000	1.00025	115.165	1.129
298.15	10000	1.21083	137.237	1.316
298.15	20000	0.09999	12.564	0.15
298.15	20000	0.49972	59.763	0.622
298.15	20000	1.00025	114.464	1.182
298.15	20000	1.21083	136.426	1.383
298.15	40000	0.09999	12.332	0.168
298.15	40000	0.49972	59.096	0.713
298.15	40000	1.00025	113.23	1.349
298.15	40000	1.21083	134.934	1.583
298.15	70000	0.09999	12.127	0.207
298.15	70000	0.49972	58.051	0.895
298.15	70000	1.00025	111.378	1.693
298.15	70000	1.21083	132.808	1.999
373.15	5000	0.1001	12.162	0.136
373.15	5000	0.49086	56.847	0.551
373.15	5000	1.00025	111.076	1.087
373.15	5000	1.21083	132.606	1.372
373.15	10000	0.1001	12.113	0.139
373.15	10000	0.49086	56.699	0.56
373.15	10000	1.00025	110.826	1.102
373.15	10000	1.21083	132.326	1.347
373.15	20000	0.1001	11.969	0.146
373.15	20000	0.49086	56.319	0.589
373.15	20000	1.00025	110.292	1.155
373.15	20000	1.21083	131.722	1.404
373.15	40000	0.1001	11.867	0.164
373.15	40000	0.49086	55.81	0.676
373.15	40000	1.00025	109.341	1.318
373.15	40000	1.21083	130.581	1.616
373.15	70000	0.1001	11.754	0.201
373.15	70000	0.49086	55.152	0.872
423.15	5000	0.1001	12.493	0.146
423.15	5000	0.49972	58.951	0.572
423.15	5000	1.00025	112.876	1.091
423.15	5000	1.21083	134.272	1.317
423.15	10000	0.1001	12.489	0.15
423.15	10000	0.49086	57.816	0.57
423.15	10000	1.00025	112.512	1.108
423.15	10000	1.21083	133.864	1.312
423.15	20000	0.1001	12.372	0.157
423.15	20000	0.49086	57.415	0.599
423.15	20000	1.00025	111.864	1.16
423.15	20000	1.21083	133.066	1.371
423.15	40000	0.1001	12.181	0.175
423.15	40000	0.49086	56.722	0.687
423.15	40000	1.00025	110.675	1.326
423.15	40000	1.21083	131.737	1.566
423.15	70000	0.09999	12.036	0.209
423.15	70000	0.49972	56.901	0.881
423.15	70000	1.00025	109.328	1.673
423.15	70000	1.21083	130.159	2.02
473.15	5000	0.1001	13.411	0.183
473.15	5000	0.49086	60.663	0.592
473.15	5000	1.00025	117.43	1.137
473.15	5000	1.21083	139.253	1.391
473.15	10000	0.1001	13.355	0.186
473.15	10000	0.49086	60.414	0.6
473.15	10000	1.00025	116.822	1.147
473.15	10000	1.21083	138.571	1.369
473.15	20000	0.1001	13.15	0.193
473.15	20000	0.49086	59.798	0.625
473.15	20000	1.00025	115.69	1.199
473.15	20000	1.21083	137.292	1.426
473.15	40000	0.1001	12.79	0.211
473.15	40000	0.49086	58.657	0.715
473.15	40000	1.00025	113.858	1.368
473.15	40000	1.21083	135.217	1.619
473.15	70000	0.1001	12.456	0.244
473.15	70000	0.49086	57.595	0.9
473.15	70000	1.00025	111.947	1.71
473.15	70000	1.21083	132.955	2
523.15	5000	0.1001	15.112	0.262
523.15	5000	0.49086	66.495	0.666
523.15	5000	1.00025	127.365	1.211
523.15	5000	1.21083	149.935	1.345
523.15	10000	0.1001	14.889	0.265
523.15	10000	0.49086	65.857	0.673
523.15	10000	1.00025	126.067	1.229
523.15	10000	1.21083	148.827	1.377
523.15	20000	0.1001	14.527	0.273
523.15	20000	0.49086	64.521	0.697
523.15	20000	1.00025	123.861	1.276
523.15	20000	1.21083	146.261	1.456
523.15	40000	0.1001	13.928	0.29
523.15	40000	0.49086	62.564	0.776
523.15	40000	1.00025	120.454	1.445
523.15	40000	1.21083	142.454	1.659
