Measured thermophysical data. Measurement and Modeling of Volumetric Properties and Speeds of Sound of Several Mixtures of Alcohol Liquids Containing Butanediol
Source: J. Chem. Eng. Data, 2015, 10.1021/je5009334
Compound 1: 2-phenylethanol, C8H10O, InChI=1S/C8H10O/c9-7-6-8-4-2-1-3-5-8/h1-5,9H,6-7H2, purity 99%
Compound 2: butan-2-ol, C4H10O, InChI=1S/C4H10O/c1-3-4(2)5/h4-5H,3H2,1-2H3, purity 99%
Compound 3: 1,2-butanediol, C4H10O2, InChI=1S/C4H10O2/c1-2-4(6)3-5/h4-6H,2-3H2,1H3, purity 99%
Compound 4: 1,3-butanediol, C4H10O2, InChI=1S/C4H10O2/c1-4(6)2-3-5/h4-6H,2-3H2,1H3, purity 98%
Compound 5: benzenemethanol, C7H8O, InChI=1S/C7H8O/c8-6-7-4-2-1-3-5-7/h1-5,8H,6H2, purity 99%

System: 2-phenylethanol; phases: Liquid
Fixed: Pressure, kPa = 101
Property: Mass density, kg/m3 (Liquid); method: Vibrating tube method
Temperature, K	Mass density, kg/m3	uncertainty
318.15	1000.926	0.232
303.15	1012.392	0.241
298.15	1016.145	0.244
313.15	1004.75	0.235
308.15	1008.607	0.238
323.15	997.075	0.231

System: 2-phenylethanol; phases: Liquid
Fixed: Pressure, kPa = 101
Property: Speed of sound, m/s (Liquid); method: Sing-around technique in a fixed-path interferometer
Temperature, K	Speed of sound, m/s	uncertainty
298.15	1526.09	1.29
303.15	1510.48	1.28
308.15	1494.66	1.28
313.15	1479.17	1.28
318.15	1463.25	1.27
323.15	1447.73	1.27

System: butan-2-ol; phases: Liquid
Fixed: Pressure, kPa = 101
Property: Mass density, kg/m3 (Liquid); method: Vibrating tube method
Temperature, K	Mass density, kg/m3	uncertainty
298.15	803.103	0.238
303.15	798.891	0.239
308.15	794.588	0.239
313.15	790.191	0.24
318.15	785.692	0.241
323.15	781.09	0.241

System: butan-2-ol; phases: Liquid
Fixed: Pressure, kPa = 101
Property: Speed of sound, m/s (Liquid); method: Sing-around technique in a fixed-path interferometer
Temperature, K	Speed of sound, m/s	uncertainty
298.15	1212.67	1.23
303.15	1194.45	1.23
308.15	1176.2	1.23
313.15	1157.91	1.22
318.15	1139.47	1.22
323.15	1120.99	1.22

System: 1,2-butanediol; phases: Liquid
Fixed: Pressure, kPa = 101
Property: Mass density, kg/m3 (Liquid); method: Vibrating tube method
Temperature, K	Mass density, kg/m3	uncertainty
298.15	998.509	0.231
303.15	994.719	0.231
308.15	990.971	0.231
313.15	987.113	0.231
318.15	983.257	0.231
323.15	979.371	0.232
303.15	994.759	0.231
313.15	987.152	0.231
318.15	983.297	0.231
323.15	979.406	0.231
298.15	998.492	0.231
303.15	994.744	0.231
308.15	990.956	0.231
313.15	987.136	0.231
318.15	983.284	0.231
323.15	979.394	0.232

System: 1,2-butanediol; phases: Liquid
Fixed: Pressure, kPa = 101
Property: Speed of sound, m/s (Liquid); method: Sing-around technique in a fixed-path interferometer
Temperature, K	Speed of sound, m/s	uncertainty
298.15	1452.61	1.27
303.15	1437.71	1.26
308.15	1423.6	1.26
313.15	1408.55	1.26
318.15	1394.02	1.25
323.15	1379.63	1.25
303.15	1438.19	1.26
313.15	1409.06	1.26
318.15	1394.54	1.25
323.15	1379.93	1.25
303.15	1438.23	1.26
308.15	1423.64	1.26
313.15	1409.25	1.26
318.15	1394.58	1.25
323.15	1380.02	1.25

System: 1,3-butanediol; phases: Liquid
Fixed: Pressure, kPa = 101
Property: Mass density, kg/m3 (Liquid); method: Vibrating tube method
Temperature, K	Mass density, kg/m3	uncertainty
298.15	1001.816	0.842
303.15	998.418	0.836
308.15	994.987	0.832
313.15	991.528	0.828
318.15	988.035	0.824
323.15	984.506	0.819

System: 1,3-butanediol; phases: Liquid
Fixed: Pressure, kPa = 101
Property: Speed of sound, m/s (Liquid); method: Sing-around technique in a fixed-path interferometer
Temperature, K	Speed of sound, m/s	uncertainty
298.15	1527.84	2.15
303.15	1514.06	2.15
308.15	1500.18	2.15
313.15	1486.27	2.15
318.15	1472.34	2.15
323.15	1458.31	2.14

System: benzenemethanol; phases: Liquid
Fixed: Pressure, kPa = 101
Property: Mass density, kg/m3 (Liquid); method: Vibrating tube method
Temperature, K	Mass density, kg/m3	uncertainty
298.15	1041.216	0.264
303.15	1037.352	0.261
308.15	1033.474	0.258
313.15	1029.583	0.255
318.15	1025.674	0.252
323.15	1021.746	0.249

System: benzenemethanol; phases: Liquid
Fixed: Pressure, kPa = 101
Property: Speed of sound, m/s (Liquid); method: Sing-around technique in a fixed-path interferometer
Temperature, K	Speed of sound, m/s	uncertainty
298.15	1525.17	1.29
303.15	1509.34	1.28
308.15	1493.62	1.28
313.15	1478.03	1.27
318.15	1462.63	1.27
323.15	1447.28	1.27

System: 2-phenylethanol + 1,2-butanediol; phases: Liquid
Fixed: Pressure, kPa = 101
Property: Mass density, kg/m3 (Liquid); method: Vibrating tube method
Temperature, K	Mole fraction of 2-phenylethanol	Mass density, kg/m3	uncertainty
298.15	0	998.509	0.231
303.15	0	994.719	0.231
308.15	0	990.971	0.231
313.15	0	987.113	0.231
318.15	0	983.257	0.231
323.15	0	979.371	0.232
298.15	0.1	1000.432	0.231
303.15	0.1	996.641	0.231
308.15	0.1	992.825	0.231
313.15	0.1	988.976	0.231
318.15	0.1	985.093	0.231
323.15	0.1	981.261	0.231
303.15	0.2	998.651	0.231
298.15	0.2	1002.458	0.233
308.15	0.2	994.816	0.231
313.15	0.2	990.951	0.231
318.15	0.2	987.058	0.232
323.15	0.2	983.126	0.232
303.15	0.3	1000.504	0.232
308.15	0.3	996.652	0.231
298.15	0.3	1004.331	0.234
313.15	0.3	992.775	0.231
318.15	0.3	988.872	0.232
323.15	0.3	984.949	0.232
308.15	0.4	998.462	0.231
303.15	0.4	1002.322	0.233
313.15	0.4	994.579	0.231
298.15	0.4	1006.159	0.236
318.15	0.4	990.674	0.232
323.15	0.4	986.752	0.232
313.15	0.5	996.32	0.232
308.15	0.5	1000.204	0.232
303.15	0.5	1004.065	0.234
318.15	0.5	992.412	0.232
298.15	0.5	1007.904	0.237
323.15	0.5	988.495	0.232
313.15	0.6	998.053	0.231
308.15	0.6	1001.929	0.233
318.15	0.6	994.121	0.232
298.15	0.6	1009.624	0.239
303.15	0.6	1005.786	0.236
323.15	0.6	990.215	0.232
298.15	0.7	1011.271	0.24
303.15	0.7	1007.449	0.237
318.15	0.7	995.794	0.232
313.15	0.7	999.73	0.231
308.15	0.7	1003.606	0.234
323.15	0.7	991.945	0.232
308.15	0.8	1005.245	0.235
318.15	0.8	997.515	0.231
298.15	0.8	1012.865	0.241
303.15	0.8	1009.064	0.238
313.15	0.8	1001.39	0.232
323.15	0.8	993.644	0.232
298.15	0.9	1014.518	0.242
308.15	0.9	1006.917	0.237
303.15	0.9	1010.725	0.239
313.15	0.9	1003.089	0.234
318.15	0.9	999.245	0.231
323.15	0.9	995.386	0.232
318.15	1	1000.926	0.232
303.15	1	1012.392	0.241
298.15	1	1016.145	0.244
313.15	1	1004.75	0.235
308.15	1	1008.607	0.238
323.15	1	997.075	0.231

System: 2-phenylethanol + 1,2-butanediol; phases: Liquid
Fixed: Pressure, kPa = 101
Property: Speed of sound, m/s (Liquid); method: Sing-around technique in a fixed-path interferometer
Temperature, K	Mole fraction of 2-phenylethanol	Speed of sound, m/s	uncertainty
298.15	0	1452.61	1.27
298.15	0.1	1461.56	1.27
298.15	0.2	1471.08	1.27
298.15	0.3	1479.44	1.27
298.15	0.4	1487.76	1.28
298.15	0.5	1495.67	1.28
298.15	0.6	1502.88	1.28
298.15	0.7	1509.66	1.28
298.15	0.8	1515.59	1.28
298.15	0.9	1521.28	1.29
298.15	1	1526.09	1.29
303.15	0	1437.71	1.26
303.15	0.1	1446.66	1.26
303.15	0.2	1456.21	1.27
303.15	0.3	1464.14	1.27
303.15	0.4	1472.28	1.27
303.15	0.5	1480.03	1.28
303.15	0.6	1487.06	1.28
303.15	0.7	1494.14	1.28
303.15	0.8	1499.66	1.28
303.15	0.9	1505.34	1.28
303.15	1	1510.48	1.28
308.15	0	1423.6	1.26
308.15	0.1	1431.83	1.26
308.15	0.2	1441.23	1.26
308.15	0.3	1448.92	1.27
308.15	0.4	1456.86	1.27
308.15	0.5	1464.48	1.27
308.15	0.6	1471.4	1.27
308.15	0.7	1478.39	1.28
308.15	0.8	1483.82	1.28
308.15	0.9	1489.47	1.28
308.15	1	1494.66	1.28
313.15	0	1408.55	1.26
313.15	0.1	1417.07	1.26
313.15	0.2	1426.25	1.26
313.15	0.3	1433.75	1.26
313.15	0.4	1441.55	1.27
313.15	0.5	1448.98	1.27
313.15	0.6	1455.79	1.27
313.15	0.7	1462.34	1.27
313.15	0.8	1468.12	1.27
313.15	0.9	1473.77	1.27
313.15	1	1479.17	1.28
318.15	0	1394.02	1.25
318.15	0.1	1402.3	1.25
318.15	0.2	1411.32	1.26
318.15	0.3	1418.67	1.26
318.15	0.4	1426.28	1.26
318.15	0.5	1433.54	1.26
318.15	0.6	1440.5	1.27
318.15	0.7	1446.44	1.27
318.15	0.8	1452.44	1.27
318.15	0.9	1458.14	1.27
318.15	1	1463.25	1.27
323.15	0	1379.63	1.25
323.15	0.1	1388.18	1.25
323.15	0.2	1396.03	1.26
323.15	0.3	1403.79	1.26
323.15	0.4	1411.35	1.26
323.15	0.5	1418.63	1.26
323.15	0.6	1425.24	1.26
323.15	0.7	1431.31	1.26
323.15	0.8	1437.07	1.27
323.15	0.9	1442.82	1.27
323.15	1	1447.73	1.27

System: butan-2-ol + 1,2-butanediol; phases: Liquid
Fixed: Pressure, kPa = 101
Property: Mass density, kg/m3 (Liquid); method: Vibrating tube method
Temperature, K	Mole fraction of 1,2-butanediol	Mass density, kg/m3	uncertainty
298.15	0	803.103	0.238
298.15	0.1	821.98	0.238
298.15	0.2	841.211	0.239
298.15	0.3	860.512	0.242
298.15	0.4	879.912	0.246
298.15	0.5	899.493	0.254
298.15	0.6	919.721	0.245
298.15	0.7	939.207	0.239
298.15	0.8	959.168	0.234
298.15	0.9	978.763	0.232
298.15	1	998.509	0.231
303.15	0	798.891	0.239
303.15	0.1	817.802	0.238
303.15	0.2	837.068	0.239
303.15	0.3	856.416	0.242
303.15	0.4	875.848	0.247
303.15	0.5	895.477	0.254
303.15	0.6	915.764	0.246
303.15	0.7	935.294	0.239
303.15	0.8	955.308	0.235
303.15	0.9	974.958	0.232
303.15	1	994.759	0.231
308.15	0	794.588	0.239
308.15	0.1	813.551	0.239
308.15	0.2	832.862	0.24
308.15	0.3	852.256	0.243
308.15	0.4	871.737	0.247
308.15	0.5	891.419	0.254
308.15	0.6	911.761	0.246
308.15	0.7	931.345	0.24
308.15	0.8	951.414	0.235
308.15	0.9	971.12	0.232
308.15	1	990.971	0.231
313.15	0	790.191	0.24
313.15	0.1	809.205	0.239
313.15	0.2	828.579	0.24
313.15	0.3	848.033	0.243
313.15	0.4	867.576	0.248
313.15	0.5	887.316	0.254
313.15	0.6	907.718	0.246
313.15	0.7	927.356	0.24
313.15	0.8	947.483	0.235
313.15	0.9	967.241	0.232
313.15	1	987.152	0.231
318.15	0	785.692	0.241
318.15	0.1	804.796	0.24
318.15	0.2	824.244	0.241
318.15	0.3	843.762	0.243
318.15	0.4	863.365	0.248
318.15	0.5	883.169	0.255
318.15	0.6	903.63	0.247
318.15	0.7	923.329	0.24
318.15	0.8	943.516	0.235
318.15	0.9	963.332	0.232
318.15	1	983.297	0.231
323.15	0	781.09	0.241
323.15	0.1	800.305	0.24
323.15	0.2	819.834	0.241
323.15	0.3	839.427	0.244
323.15	0.4	859.1	0.248
323.15	0.5	878.969	0.255
323.15	0.6	899.488	0.247
323.15	0.7	919.266	0.24
323.15	0.8	939.516	0.236
323.15	0.9	959.384	0.233
323.15	1	979.406	0.232

System: butan-2-ol + 1,2-butanediol; phases: Liquid
Fixed: Pressure, kPa = 101
Property: Speed of sound, m/s (Liquid); method: Sing-around technique in a fixed-path interferometer
Temperature, K	Mole fraction of 1,2-butanediol	Speed of sound, m/s	uncertainty
298.15	0	1212.67	1.23
298.15	0.1	1230.96	1.24
298.15	0.2	1250.62	1.24
298.15	0.3	1270.88	1.24
298.15	0.4	1292.22	1.25
298.15	0.5	1315.45	1.25
298.15	0.6	1340.24	1.25
298.15	0.7	1365.68	1.26
298.15	0.8	1393.3	1.26
298.15	0.9	1423.14	1.26
298.15	1	1452.61	1.26
303.15	0	1194.45	1.23
303.15	0.1	1213.13	1.23
303.15	0.2	1233.47	1.23
303.15	0.3	1253.83	1.24
303.15	0.4	1275.51	1.24
303.15	0.5	1299.11	1.25
303.15	0.6	1324.62	1.25
303.15	0.7	1350.05	1.25
303.15	0.8	1378.07	1.25
303.15	0.9	1408.33	1.26
303.15	1	1438.19	1.26
308.15	0	1176.2	1.23
308.15	0.1	1195.33	1.23
308.15	0.2	1216.05	1.23
308.15	0.3	1236.79	1.23
308.15	0.4	1258.83	1.24
308.15	0.5	1282.9	1.24
308.15	0.6	1308.73	1.24
308.15	0.7	1334.54	1.25
308.15	0.8	1362.85	1.25
308.15	0.9	1393.41	1.25
308.15	1	1423.6	1.26
313.15	0	1157.91	1.22
313.15	0.1	1177.29	1.23
313.15	0.2	1198.22	1.23
313.15	0.3	1219.72	1.23
313.15	0.4	1242.18	1.23
313.15	0.5	1266.71	1.24
313.15	0.6	1292.87	1.24
313.15	0.7	1319.01	1.24
313.15	0.8	1347.68	1.25
313.15	0.9	1378.54	1.25
313.15	1	1409.06	1.26
318.15	0	1139.47	1.22
318.15	0.1	1159.33	1.22
318.15	0.2	1180.68	1.22
318.15	0.3	1202.63	1.23
318.15	0.4	1225.52	1.23
318.15	0.5	1250.53	1.24
318.15	0.6	1277.02	1.24
318.15	0.7	1303.55	1.24
318.15	0.8	1332.55	1.24
318.15	0.9	1363.64	1.25
318.15	1	1394.54	1.25
323.15	0	1120.99	1.22
323.15	0.1	1141.45	1.22
323.15	0.2	1163.13	1.22
323.15	0.3	1185.55	1.22
323.15	0.4	1208.89	1.22
323.15	0.5	1234.34	1.23
323.15	0.6	1260.79	1.24
323.15	0.7	1288.38	1.23
323.15	0.8	1317.6	1.24
323.15	0.9	1348.7	1.24
323.15	1	1379.93	1.25

System: 1,3-butanediol + 1,2-butanediol; phases: Liquid
Fixed: Pressure, kPa = 101
Property: Mass density, kg/m3 (Liquid); method: Vibrating tube method
Temperature, K	Mole fraction of 1,2-butanediol	Mass density, kg/m3	uncertainty
298.15	0	1001.816	0.842
298.15	0.1	1001.834	0.761
298.15	0.2	1001.778	0.685
298.15	0.3	1001.743	0.614
298.15	0.4	1001.606	0.546
298.15	0.5	1001.237	0.483
298.15	0.6	1000.939	0.424
298.15	0.7	1000.361	0.369
298.15	0.8	999.812	0.318
298.15	0.9	999.175	0.272
298.15	1	998.509	0.231
303.15	0	998.418	0.836
303.15	0.1	998.382	0.756
303.15	0.2	998.283	0.681
303.15	0.3	998.2	0.61
303.15	0.4	998.02	0.543
303.15	0.5	997.617	0.48
303.15	0.6	997.284	0.422
303.15	0.7	996.675	0.368
303.15	0.8	996.1	0.318
303.15	0.9	995.436	0.272
303.15	1	994.759	0.231
308.15	0	994.987	0.832
308.15	0.1	994.902	0.753
308.15	0.2	994.756	0.678
308.15	0.3	994.626	0.607
308.15	0.4	994.403	0.54
308.15	0.5	993.965	0.478
308.15	0.6	993.596	0.42
308.15	0.7	992.955	0.367
308.15	0.8	992.352	0.317
308.15	0.9	991.664	0.272
308.15	1	990.971	0.231
313.15	0	991.528	0.828
313.15	0.1	991.39	0.749
313.15	0.2	991.196	0.674
313.15	0.3	991.02	0.604
313.15	0.4	990.753	0.538
313.15	0.5	990.276	0.476
313.15	0.6	989.874	0.419
313.15	0.7	989.201	0.366
313.15	0.8	988.572	0.317
313.15	0.9	987.858	0.272
313.15	1	987.152	0.231
318.15	0	988.035	0.824
318.15	0.1	987.845	0.745
318.15	0.2	987.595	0.671
318.15	0.3	987.379	0.602
318.15	0.4	987.07	0.536
318.15	0.5	986.554	0.475
318.15	0.6	986.118	0.418
318.15	0.7	985.412	0.365
318.15	0.8	984.756	0.316
318.15	0.9	984.01	0.272
318.15	1	983.297	0.231
323.15	0	984.506	0.819
323.15	0.1	984.262	0.742
323.15	0.2	983.961	0.668
323.15	0.3	983.701	0.599
323.15	0.4	983.35	0.534
323.15	0.5	982.795	0.473
323.15	0.6	982.326	0.416
323.15	0.7	981.586	0.364
323.15	0.8	980.82	0.316
323.15	0.9	980.034	0.271
323.15	1	979.406	0.232

System: 1,3-butanediol + 1,2-butanediol; phases: Liquid
Fixed: Pressure, kPa = 101
Property: Speed of sound, m/s (Liquid); method: Sing-around technique in a fixed-path interferometer
Temperature, K	Mole fraction of 1,2-butanediol	Speed of sound, m/s	uncertainty
298.15	0	1527.84	2.15
298.15	0.1	1523.16	2.06
298.15	0.2	1517.94	1.97
298.15	0.3	1512.71	1.88
298.15	0.4	1507.1	1.78
298.15	0.5	1498.9	1.7
298.15	0.6	1492.18	1.6
298.15	0.7	1482.6	1.52
298.15	0.8	1473.18	1.43
298.15	0.9	1463.07	1.35
298.15	1	1452.61	1.26
303.15	0	1514.06	2.15
303.15	0.1	1509.03	2.06
303.15	0.2	1503.93	1.97
303.15	0.3	1498.24	1.87
303.15	0.4	1492.51	1.78
303.15	0.5	1484.3	1.69
303.15	0.6	1477.43	1.61
303.15	0.7	1467.95	1.52
303.15	0.8	1458.48	1.43
303.15	0.9	1448.34	1.35
303.15	1	1438.19	1.26
308.15	0	1500.18	2.15
308.15	0.1	1494.87	2.06
308.15	0.2	1489.61	1.96
308.15	0.3	1483.78	1.87
308.15	0.4	1478.05	1.78
308.15	0.5	1469.73	1.69
308.15	0.6	1462.72	1.6
308.15	0.7	1453.27	1.51
308.15	0.8	1443.75	1.43
308.15	0.9	1433.66	1.34
308.15	1	1423.6	1.26
313.15	0	1486.27	2.15
313.15	0.1	1480.75	2.05
313.15	0.2	1475.31	1.96
313.15	0.3	1469.35	1.87
313.15	0.4	1463.47	1.78
313.15	0.5	1455.09	1.69
313.15	0.6	1448	1.6
313.15	0.7	1438.54	1.51
313.15	0.8	1429.06	1.42
313.15	0.9	1419.04	1.34
313.15	1	1409.06	1.26
318.15	0	1472.34	2.15
318.15	0.1	1466.54	2.05
318.15	0.2	1460.62	1.96
318.15	0.3	1454.87	1.87
318.15	0.4	1448.96	1.78
318.15	0.5	1440.47	1.69
318.15	0.6	1433.31	1.6
318.15	0.7	1423.87	1.51
318.15	0.8	1414.34	1.42
318.15	0.9	1404.4	1.34
318.15	1	1394.54	1.25
323.15	0	1458.31	2.14
323.15	0.1	1452.53	2.05
323.15	0.2	1446.25	1.96
323.15	0.3	1440.42	1.87
323.15	0.4	1434.35	1.78
323.15	0.5	1425.81	1.68
323.15	0.6	1418.64	1.6
323.15	0.7	1409.12	1.51
323.15	0.8	1399.6	1.42
323.15	0.9	1390.07	1.33
323.15	1	1379.93	1.25

System: benzenemethanol + 1,2-butanediol; phases: Liquid
Fixed: Pressure, kPa = 101
Property: Mass density, kg/m3 (Liquid); method: Vibrating tube method
Temperature, K	Mole fraction of benzenemethanol	Mass density, kg/m3	uncertainty
298.15	0	998.492	0.231
298.15	0.1	1003.294	0.234
298.15	0.2	1007.969	0.237
298.15	0.3	1012.521	0.241
298.15	0.4	1016.945	0.245
298.15	0.5	1021.237	0.249
298.15	0.6	1025.402	0.252
298.15	0.7	1029.452	0.255
298.15	0.8	1033.41	0.257
298.15	0.9	1037.307	0.26
298.15	1	1041.216	0.264
303.15	0	994.744	0.231
303.15	0.1	999.491	0.231
303.15	0.2	1004.131	0.235
303.15	0.3	1008.653	0.238
303.15	0.4	1013.058	0.242
303.15	0.5	1017.337	0.246
303.15	0.6	1021.494	0.249
303.15	0.7	1025.542	0.252
303.15	0.8	1029.503	0.255
303.15	0.9	1033.418	0.257
303.15	1	1037.352	0.261
308.15	0	990.956	0.231
308.15	0.1	995.66	0.231
308.15	0.2	1000.264	0.232
308.15	0.3	1004.759	0.235
308.15	0.4	1009.141	0.239
308.15	0.5	1013.402	0.243
308.15	0.6	1017.55	0.246
308.15	0.7	1021.6	0.249
308.15	0.8	1025.581	0.251
308.15	0.9	1029.517	0.254
308.15	1	1033.474	0.258
313.15	0	987.136	0.231
313.15	0.1	991.786	0.231
313.15	0.2	996.372	0.232
313.15	0.3	1000.837	0.232
313.15	0.4	1005.203	0.236
313.15	0.5	1009.459	0.24
313.15	0.6	1013.603	0.243
313.15	0.7	1017.659	0.246
313.15	0.8	1021.643	0.248
313.15	0.9	1025.602	0.251
313.15	1	1029.583	0.255
318.15	0	983.284	0.231
318.15	0.1	987.894	0.232
318.15	0.2	992.45	0.232
318.15	0.3	996.891	0.232
318.15	0.4	1001.244	0.233
318.15	0.5	1005.479	0.237
318.15	0.6	1009.622	0.24
318.15	0.7	1013.684	0.243
318.15	0.8	1017.691	0.245
318.15	0.9	1021.667	0.248
318.15	1	1025.674	0.252
323.15	0	979.394	0.232
323.15	0.1	983.969	0.232
323.15	0.2	988.488	0.232
323.15	0.3	992.923	0.232
323.15	0.4	997.257	0.232
323.15	0.5	1001.489	0.234
323.15	0.6	1005.633	0.237
323.15	0.7	1009.701	0.24
323.15	0.8	1013.724	0.243
323.15	0.9	1017.72	0.245
323.15	1	1021.746	0.249

System: benzenemethanol + 1,2-butanediol; phases: Liquid
Fixed: Pressure, kPa = 101
Property: Speed of sound, m/s (Liquid); method: Sing-around technique in a fixed-path interferometer
Temperature, K	Mole fraction of benzenemethanol	Speed of sound, m/s	uncertainty
298.15	0	1452.61	1.26
298.15	0.1	1460.73	1.27
298.15	0.2	1469.2	1.27
298.15	0.3	1477.2	1.27
298.15	0.4	1485.32	1.27
298.15	0.5	1493.15	1.28
298.15	0.6	1500.59	1.28
298.15	0.7	1507.62	1.28
298.15	0.8	1513.99	1.28
298.15	0.9	1519.89	1.29
298.15	1	1525.17	1.29
303.15	0	1438.23	1.26
303.15	0.1	1445.91	1.26
303.15	0.2	1454.32	1.27
303.15	0.3	1462.1	1.27
303.15	0.4	1470.26	1.27
303.15	0.5	1477.99	1.27
303.15	0.6	1485.2	1.28
303.15	0.7	1491.74	1.28
303.15	0.8	1498.03	1.28
303.15	0.9	1503.92	1.28
303.15	1	1509.34	1.28
308.15	0	1423.64	1.26
308.15	0.1	1431.23	1.26
308.15	0.2	1439.39	1.26
308.15	0.3	1446.85	1.27
308.15	0.4	1454.93	1.27
308.15	0.5	1462.49	1.27
308.15	0.6	1469.41	1.27
308.15	0.7	1476	1.28
308.15	0.8	1482.23	1.28
308.15	0.9	1488.08	1.28
308.15	1	1493.62	1.28
313.15	0	1409.25	1.26
313.15	0.1	1416.68	1.26
313.15	0.2	1424.4	1.26
313.15	0.3	1431.75	1.26
313.15	0.4	1439.7	1.27
313.15	0.5	1447.11	1.27
313.15	0.6	1453.88	1.27
313.15	0.7	1460.38	1.27
313.15	0.8	1466.56	1.27
313.15	0.9	1472.45	1.27
313.15	1	1478.03	1.27
318.15	0	1394.58	1.25
318.15	0.1	1401.94	1.25
318.15	0.2	1409.49	1.26
318.15	0.3	1416.7	1.26
318.15	0.4	1424.29	1.26
318.15	0.5	1431.42	1.26
318.15	0.6	1438.22	1.27
318.15	0.7	1444.82	1.27
318.15	0.8	1451.03	1.27
318.15	0.9	1456.9	1.27
318.15	1	1462.63	1.27
323.15	0	1380.02	1.25
323.15	0.1	1387.24	1.25
323.15	0.2	1394.34	1.25
323.15	0.3	1401.74	1.26
323.15	0.4	1409.1	1.26
323.15	0.5	1416.19	1.26
323.15	0.6	1423.07	1.26
323.15	0.7	1429.53	1.26
323.15	0.8	1435.73	1.27
323.15	0.9	1441.62	1.27
323.15	1	1447.28	1.27
