Measured thermophysical data. Measurement and Correlation for Solubility of L-valine in Water, Ethanol, N,N-Dimethylformamide, Acetone, and Isopropyl alcohol between 293.15 and 343.15 K
Source: J. Chem. Eng. Data, 2014, 10.1021/je500035r
Compound 1: L-valine, C5H11NO2, InChI=1S/C5H11NO2/c1-3(2)4(6)5(7)8/h3-4H,6H2,1-2H3,(H,7,8)/t4-/m0/s1, purity 99.4%
Compound 2: ethanol, C2H6O, InChI=1S/C2H6O/c1-2-3/h3H,2H2,1H3, purity 99.7%
Compound 3: acetone, C3H6O, InChI=1S/C3H6O/c1-3(2)4/h1-2H3, purity 99.5%
Compound 4: dimethylformamide, C3H7NO, InChI=1S/C3H7NO/c1-4(2)3-5/h3H,1-2H3, purity 99.5%
Compound 5: propan-2-ol, C3H8O, InChI=1S/C3H8O/c1-3(2)4/h3-4H,1-2H3, purity 99.7%
Compound 6: water, H2O, InChI=1S/H2O/h1H2, purity 99.8%

System: L-valine + water; phases: Liquid, Crystal
Fixed: Pressure, kPa = 101
Property: Mole fraction of L-valine (Liquid); method: laser monitoring
Temperature, K	Mole fraction of L-valine	uncertainty
293.55	0.008838	0.000282
303.05	0.009381	0.000299
313.15	0.01011	0.00032
323.05	0.01086	0.00035
333.25	0.01172	0.00037
343.15	0.01291	0.00041

System: ethanol + L-valine; phases: Liquid, Crystal
Fixed: Pressure, kPa = 101
Property: Mole fraction of L-valine (Liquid); method: laser monitoring
Temperature, K	Mole fraction of L-valine	uncertainty
293.15	1.178e-05	1.13e-06
303.75	2.357e-05	2.25e-06
313.15	3.692e-05	3.53e-06
323.15	5.342e-05	5.1e-06
333.25	7.62e-05	7.28e-06
343.25	0.0001092	1.04e-05

System: propan-2-ol + L-valine; phases: Liquid, Crystal
Fixed: Pressure, kPa = 101
Property: Mole fraction of L-valine (Liquid); method: laser monitoring
Temperature, K	Mole fraction of L-valine	uncertainty
293.45	2.561e-06	2.45e-07
303.05	4.609e-06	4.41e-07
313.35	7.17e-06	6.85e-07
323.25	1.076e-05	1.03e-06
333.05	1.537e-05	1.47e-06
343.35	2.1e-05	2.01e-06

System: dimethylformamide + L-valine; phases: Liquid, Crystal
Fixed: Pressure, kPa = 101
Property: Mole fraction of L-valine (Liquid); method: laser monitoring
Temperature, K	Mole fraction of L-valine	uncertainty
293.15	1.246e-06	1.2e-07
303.25	2.492e-06	2.38e-07
313.25	4.361e-06	4.17e-07
323.15	7.476e-06	7.15e-07
333.25	1.059e-05	1.01e-06
343.25	1.495e-05	1.43e-06

System: acetone + L-valine; phases: Liquid, Crystal
Fixed: Pressure, kPa = 101
Property: Mole fraction of L-valine (Liquid); method: laser monitoring
Temperature, K	Mole fraction of L-valine	uncertainty
293.15	4.96e-07	4.76e-08
302.95	9.91e-07	9.49e-08
313.35	1.983e-06	1.9e-07
323.35	2.974e-06	2.84e-07
328.15	3.965e-06	3.79e-07
