Measured thermophysical data. Density, Viscosity, Speed of Sound, Bulk Modulus, Surface Tension, and Flash Point of Binary Mixtures of n-Hexadecane + Ethylbenzene or + Toluene at (293.15 to 373.15) K and 0.1 MPa
Source: J. Chem. Eng. Data, 2014, 10.1021/je500498m
Compound 1: hexadecane, C16H34, InChI=1S/C16H34/c1-3-5-7-9-11-13-15-16-14-12-10-8-6-4-2/h3-16H2,1-2H3, purity 99.4%
Compound 2: ethylbenzene, C8H10, InChI=1S/C8H10/c1-2-8-6-4-3-5-7-8/h3-7H,2H2,1H3, purity 99.76%
Compound 3: toluene, C7H8, InChI=1S/C7H8/c1-7-5-3-2-4-6-7/h2-6H,1H3, purity 99.7%

System: hexadecane; phases: Liquid
Fixed: Pressure, kPa = 101
Property: Mass density, kg/m3 (Liquid); method: Vibrating tube method
Temperature, K	Mass density, kg/m3	uncertainty
293.15	773.49	0.33
303.15	766.55	0.34
313.15	759.63	0.34
323.15	752.71	0.34
333.15	745.79	0.34
343.15	738.9	0.3
353.15	731.8	0.3
363.15	724.7	0.3
373.15	717.5	0.3

System: hexadecane; phases: Liquid
Fixed: Pressure, kPa = 101
Property: Viscosity, Pa*s (Liquid); method: Falling or rolling sphere viscometry
Temperature, K	Viscosity, Pa*s	uncertainty
293.15	0.00344	3e-05
303.15	0.00272	2e-05
323.15	0.00182	2e-05
333.15	0.00154	2e-05
343.15	0.00131	2e-05
353.15	0.00113	1e-05
363.15	0.00099	1e-05
373.15	0.00087	1e-05
333.15	0.00153	2e-05

System: hexadecane; phases: Liquid
Fixed: Pressure, kPa = 100
Property: Speed of sound, m/s (Liquid); method: Sing-around technique in a fixed-path interferometer
Temperature, K	Speed of sound, m/s	uncertainty
293.15	1357.3	0.9
303.15	1320	0.9
313.15	1283.3	0.9
323.15	1247.3	0.9
333.15	1212	0.9

System: hexadecane; phases: Liquid, Gas
Property: Surface tension liquid-gas, N/m (Liquid); method: Pendant drop shape
Temperature, K	Surface tension liquid-gas, N/m	uncertainty
294.4	0.0273	0.0004

System: ethylbenzene; phases: Liquid
Fixed: Pressure, kPa = 101
Property: Mass density, kg/m3 (Liquid); method: Vibrating tube method
Temperature, K	Mass density, kg/m3	uncertainty
293.15	866.95	0.31
303.15	858.15	0.31
313.15	849.29	0.31
323.15	840.38	0.31
333.15	831.4	0.32
343.15	822.3	0.3
353.15	813.1	0.3
363.15	803.7	0.3
373.15	794.2	0.3

System: ethylbenzene; phases: Liquid
Fixed: Pressure, kPa = 101
Property: Viscosity, Pa*s (Liquid); method: Falling or rolling sphere viscometry
Temperature, K	Viscosity, Pa*s	uncertainty
293.15	0.00067	1e-05
303.15	0.00059	1e-05
323.15	0.00048	1e-05
333.15	0.00044	1e-05
343.15	0.0004	1e-05
353.15	0.00036	1e-05
363.15	0.00033	1e-05
373.15	0.00031	1e-05

System: ethylbenzene; phases: Liquid
Fixed: Pressure, kPa = 100
Property: Speed of sound, m/s (Liquid); method: Sing-around technique in a fixed-path interferometer
Temperature, K	Speed of sound, m/s	uncertainty
303.15	1298.1	0.7
313.15	1256.9	0.7
323.15	1216.4	0.7
333.15	1176.4	0.7
293.15	1339.7	0.7

System: ethylbenzene; phases: Liquid, Gas
Property: Surface tension liquid-gas, N/m (Liquid); method: Pendant drop shape
Temperature, K	Surface tension liquid-gas, N/m	uncertainty
294.4	0.0292	0.0004

System: toluene; phases: Liquid
Fixed: Pressure, kPa = 101
Property: Mass density, kg/m3 (Liquid); method: Vibrating tube method
Temperature, K	Mass density, kg/m3	uncertainty
293.15	866.84	0.31
303.15	857.53	0.31
313.15	848.14	0.32
323.15	838.7	0.32
333.15	829.16	0.32
343.15	819.6	0.3
353.15	809.7	0.3
363.15	799.7	0.3

System: toluene; phases: Liquid
Fixed: Pressure, kPa = 101
Property: Viscosity, Pa*s (Liquid); method: Falling or rolling sphere viscometry
Temperature, K	Viscosity, Pa*s	uncertainty
293.15	0.00059	1e-05
303.15	0.00052	1e-05
323.15	0.00042	1e-05
333.15	0.00038	1e-05
343.15	0.00035	1e-05
353.15	0.00032	1e-05
363.15	0.00027	1e-05

System: toluene; phases: Liquid
Fixed: Pressure, kPa = 100
Property: Speed of sound, m/s (Liquid); method: Sing-around technique in a fixed-path interferometer
Temperature, K	Speed of sound, m/s	uncertainty
293.15	1326.8	0.8
303.15	1283.7	0.7
313.15	1241.1	0.7
323.15	1199	0.7
333.15	1157.6	0.7

System: toluene; phases: Liquid, Gas
Property: Surface tension liquid-gas, N/m (Liquid); method: Pendant drop shape
Temperature, K	Surface tension liquid-gas, N/m	uncertainty
294.4	0.0284	0.0004

System: toluene + hexadecane; phases: Liquid
Fixed: Pressure, kPa = 101
Property: Mass density, kg/m3 (Liquid); method: Vibrating tube method
Temperature, K	Mole fraction of toluene	Mass density, kg/m3	uncertainty
293.15	0	773.49	0.33
293.15	0.1002	776.71	0.33
293.15	0.2	780.38	0.33
293.15	0.3018	784.83	0.33
293.15	0.4001	789.87	0.33
293.15	0.5	796.1	0.33
293.15	0.6001	803.76	0.32
293.15	0.7005	813.44	0.32
293.15	0.8001	825.95	0.32
293.15	0.8999	842.77	0.32
293.15	1	866.84	0.31
303.15	0	766.55	0.34
303.15	0.1002	769.7	0.33
303.15	0.2	773.29	0.33
303.15	0.3018	777.64	0.33
303.15	0.4001	782.56	0.33
303.15	0.5	788.63	0.33
303.15	0.6001	796.11	0.33
303.15	0.7005	805.54	0.32
303.15	0.8001	817.73	0.32
303.15	0.8999	834.11	0.32
303.15	1	857.53	0.31
313.15	0	759.63	0.34
313.15	0.1002	762.7	0.33
313.15	0.2	766.2	0.33
313.15	0.3018	770.44	0.33
313.15	0.4001	775.24	0.33
313.15	0.5	781.15	0.33
313.15	0.6001	788.42	0.33
313.15	0.7005	797.59	0.32
313.15	0.8001	809.46	0.32
313.15	0.8999	825.38	0.32
313.15	1	848.14	0.32
323.15	0	752.71	0.34
323.15	0.1002	755.7	0.34
323.15	0.2	759.11	0.33
323.15	0.3018	763.23	0.33
323.15	0.4001	767.89	0.33
323.15	0.5	773.64	0.33
323.15	0.6001	780.71	0.33
323.15	0.7005	789.6	0.33
323.15	0.8001	801.12	0.32
323.15	0.8999	816.6	0.32
323.15	1	838.7	0.32
333.15	0	745.79	0.34
333.15	0.1002	748.7	0.34
333.15	0.2	752	0.33
333.15	0.3018	756	0.33
333.15	0.4001	760.53	0.33
333.15	0.5	766.1	0.33
333.15	0.6001	772.93	0.33
333.15	0.7005	781.29	0.33
333.15	0.8001	792.74	0.32
333.15	0.8999	807.75	0.32
333.15	1	829.16	0.32
343.15	0	738.9	0.3
343.15	0.1002	741.7	0.3
343.15	0.2	744.9	0.3
343.15	0.3018	748.9	0.3
343.15	0.4001	753.2	0.3
343.15	0.5	758.6	0.3
343.15	0.6001	765.2	0.3
343.15	0.7005	773.6	0.3
343.15	0.8001	784.3	0.3
343.15	0.8999	798.8	0.3
343.15	1	819.6	0.3
353.15	0	731.8	0.3
353.15	0.1002	734.5	0.3
353.15	0.2	737.7	0.3
353.15	0.3018	741.4	0.3
353.15	0.4001	745.7	0.3
353.15	0.5	750.9	0.3
353.15	0.6001	757.2	0.3
353.15	0.7005	765.3	0.3
353.15	0.8001	775.7	0.3
353.15	0.8999	789.7	0.3
353.15	1	809.7	0.3
363.15	0	724.7	0.3
363.15	0.1002	727.3	0.3
363.15	0.2	730.4	0.3
363.15	0.3018	733.9	0.3
363.15	0.4001	738	0.3
363.15	0.5	743.1	0.3
363.15	0.6001	749.2	0.3
363.15	0.7005	756.9	0.3
363.15	0.8001	767	0.3
363.15	0.8999	780.4	0.3
363.15	1	799.7	0.3
373.15	0	717.5	0.3
373.15	0.1002	720	0.3
373.15	0.2	722.9	0.3
373.15	0.3018	726.3	0.3
373.15	0.4001	730.3	0.3
373.15	0.5	735.1	0.3
373.15	0.6001	741	0.3
373.15	0.7005	748.5	0.3
373.15	0.8001	758	0.3

System: toluene + hexadecane; phases: Liquid
Fixed: Pressure, kPa = 101
Property: Viscosity, Pa*s (Liquid); method: Falling or rolling sphere viscometry
Temperature, K	Mole fraction of toluene	Viscosity, Pa*s	uncertainty
293.15	0	0.00344	3e-05
293.15	0.1002	0.00303	3e-05
293.15	0.2	0.00264	2e-05
293.15	0.3018	0.00228	2e-05
293.15	0.4001	0.00196	2e-05
293.15	0.5	0.00166	2e-05
293.15	0.6001	0.0014	2e-05
293.15	0.7005	0.00116	1e-05
293.15	0.8001	0.00094	1e-05
293.15	0.8999	0.00076	1e-05
293.15	1	0.00059	1e-05
303.15	0	0.00272	2e-05
303.15	0.1002	0.00242	2e-05
303.15	0.2	0.00214	2e-05
303.15	0.3018	0.00187	2e-05
303.15	0.4001	0.00163	2e-05
303.15	0.5	0.0014	2e-05
303.15	0.6001	0.00119	1e-05
303.15	0.7005	0.001	1e-05
303.15	0.8001	0.00082	1e-05
303.15	0.8999	0.00067	1e-05
303.15	1	0.00052	1e-05
323.15	0	0.00182	2e-05
323.15	0.1002	0.00165	2e-05
323.15	0.2	0.00149	2e-05
323.15	0.3018	0.00133	2e-05
323.15	0.4001	0.00118	1e-05
323.15	0.5	0.00104	1e-05
323.15	0.6001	0.0009	1e-05
323.15	0.7005	0.00077	1e-05
323.15	0.8001	0.00064	1e-05
323.15	0.8999	0.00052	1e-05
323.15	1	0.00042	1e-05
333.15	0	0.00154	2e-05
333.15	0.1002	0.0014	2e-05
333.15	0.2	0.00127	1e-05
333.15	0.3018	0.00115	1e-05
333.15	0.4001	0.00103	1e-05
333.15	0.5	0.0009	1e-05
333.15	0.6001	0.00079	1e-05
333.15	0.7005	0.00067	1e-05
333.15	0.8001	0.00056	1e-05
333.15	0.8999	0.00047	1e-05
333.15	1	0.00038	1e-05
343.15	0	0.00131	2e-05
343.15	0.1002	0.00121	1e-05
343.15	0.2	0.0011	1e-05
343.15	0.3018	0.001	1e-05
343.15	0.4001	0.00089	1e-05
343.15	0.5	0.0008	1e-05
343.15	0.6001	0.00069	1e-05
343.15	0.7005	0.0006	1e-05
343.15	0.8001	0.00051	1e-05
343.15	0.8999	0.00043	1e-05
343.15	1	0.00035	1e-05
353.15	0	0.00113	1e-05
353.15	0.1002	0.00105	1e-05
353.15	0.2	0.00096	1e-05
353.15	0.3018	0.00087	1e-05
353.15	0.4001	0.00079	1e-05
353.15	0.5	0.0007	1e-05
353.15	0.6001	0.00061	1e-05
353.15	0.7005	0.00054	1e-05
353.15	0.8001	0.00046	1e-05
353.15	0.8999	0.00039	1e-05
353.15	1	0.00032	1e-05
363.15	0	0.00099	1e-05
363.15	0.1002	0.00092	1e-05
363.15	0.2	0.00085	1e-05
363.15	0.3018	0.00077	1e-05
363.15	0.4001	0.0007	1e-05
363.15	0.5	0.00062	1e-05
363.15	0.6001	0.00055	2e-05
363.15	0.7005	0.00048	1e-05
363.15	0.8001	0.0004	7e-05
363.15	0.8999	0.00033	1e-05
363.15	1	0.00027	1e-05
373.15	0	0.00087	1e-05
373.15	0.1002	0.00081	1e-05
373.15	0.2	0.00076	1e-05
373.15	0.3018	0.00069	1e-05
373.15	0.4001	0.00064	1e-05
373.15	0.5	0.00056	1e-05

System: toluene + hexadecane; phases: Liquid
Fixed: Pressure, kPa = 100
Property: Speed of sound, m/s (Liquid); method: Sing-around technique in a fixed-path interferometer
Temperature, K	Mole fraction of toluene	Speed of sound, m/s	uncertainty
293.15	0	1357.3	0.9
293.15	0.1002	1352.9	0.9
293.15	0.2	1348.1	0.9
293.15	0.3018	1343.1	0.9
293.15	0.4001	1337.2	0.8
293.15	0.5	1332	0.8
293.15	0.6001	1326.5	0.8
293.15	0.7005	1321.5	0.8
293.15	0.8001	1318	0.8
293.15	0.8999	1318	0.8
293.15	1	1326.8	0.8
303.15	0	1320	0.9
303.15	0.1002	1315.5	0.9
303.15	0.2	1310.6	0.9
303.15	0.3018	1305.5	0.8
303.15	0.4001	1299.4	0.8
303.15	0.5	1293.9	0.8
303.15	0.6001	1288	0.8
303.15	0.7005	1282.4	0.8
303.15	0.8001	1278.2	0.8
303.15	0.8999	1277	0.7
303.15	1	1283.7	0.7
313.15	0	1283.3	0.9
313.15	0.1002	1278.7	0.9
313.15	0.2	1273.6	0.9
313.15	0.3018	1268.4	0.8
313.15	0.4001	1262.1	0.8
313.15	0.5	1256.2	0.8
313.15	0.6001	1250	0.8
313.15	0.7005	1243.8	0.8
313.15	0.8001	1238.8	0.8
313.15	0.8999	1236.4	0.7
313.15	1	1241.1	0.7
323.15	0	1247.3	0.9
323.15	0.1002	1242.6	0.9
323.15	0.2	1237.4	0.9
323.15	0.3018	1231.9	0.8
323.15	0.4001	1225.4	0.8
323.15	0.5	1219.2	0.8
323.15	0.6001	1212.5	0.8
323.15	0.7005	1205.7	0.8
323.15	0.8001	1199.9	0.7
323.15	0.8999	1196.3	0.7
323.15	1	1199	0.7
333.15	0	1212	0.9
333.15	0.1002	1207.1	0.9
333.15	0.2	1201.7	0.8
333.15	0.3018	1196	0.8
333.15	0.4001	1189.2	0.8
333.15	0.5	1182.7	0.8
333.15	0.6001	1175.6	0.8
333.15	0.7005	1168.2	0.7
333.15	0.8001	1161.7	0.7
333.15	0.8999	1156.7	0.7
333.15	1	1157.6	0.7

System: toluene + hexadecane; phases: Liquid, Gas
Fixed: Temperature, K = 294.4
Property: Surface tension liquid-gas, N/m (Liquid); method: Pendant drop shape
Mole fraction of toluene	Surface tension liquid-gas, N/m	uncertainty
0	0.0273	0.0004
0.4001	0.0273	0.0004
0.5	0.0275	0.0004
0.6001	0.0276	0.0004
0.7006	0.0277	0.0004
0.8001	0.0278	0.0004
0.8999	0.028	0.0004
1	0.0284	0.0004

System: ethylbenzene + hexadecane; phases: Liquid
Fixed: Pressure, kPa = 101
Property: Mass density, kg/m3 (Liquid); method: Vibrating tube method
Temperature, K	Mole fraction of ethylbenzene	Mass density, kg/m3	uncertainty
293.15	0	773.49	0.33
293.15	0.1007	777.15	0.33
293.15	0.2	781.37	0.33
293.15	0.3002	786.28	0.33
293.15	0.4013	792.08	0.33
293.15	0.5002	798.81	0.33
293.15	0.6001	806.86	0.32
293.15	0.7002	816.95	0.32
293.15	0.8001	829.46	0.32
293.15	0.9	845.47	0.32
293.15	1	866.95	0.31
303.15	0	766.55	0.34
303.15	0.1007	770.16	0.33
303.15	0.2	774.31	0.33
303.15	0.3002	779.13	0.33
303.15	0.4013	784.83	0.33
303.15	0.5002	791.42	0.33
303.15	0.6001	799.32	0.32
303.15	0.7002	809.21	0.32
303.15	0.8001	821.46	0.32
303.15	0.9	837.13	0.32
303.15	1	858.15	0.31
313.15	0	759.63	0.34
313.15	0.1007	763.17	0.33
313.15	0.2	767.24	0.33
313.15	0.3002	771.97	0.33
313.15	0.4013	777.56	0.33
313.15	0.5002	784.01	0.33
313.15	0.6001	791.75	0.33
313.15	0.7002	801.42	0.32
313.15	0.8001	813.41	0.32
313.15	0.9	828.73	0.32
313.15	1	849.29	0.31
323.15	0	752.71	0.34
323.15	0.1007	756.18	0.33
323.15	0.2	760.17	0.33
323.15	0.3002	764.8	0.33
323.15	0.4013	770.27	0.33
323.15	0.5002	776.58	0.33
323.15	0.6001	784.14	0.33
323.15	0.7002	793.6	0.32
323.15	0.8001	805.42	0.32
323.15	0.9	820.29	0.32
323.15	1	840.38	0.31
333.15	0	745.79	0.34
333.15	0.1007	749.19	0.34
333.15	0.2	753.09	0.33
333.15	0.3002	757.62	0.33
333.15	0.4013	762.96	0.33
333.15	0.5002	769.13	0.33
333.15	0.6001	776.51	0.33
333.15	0.7002	785.74	0.32
333.15	0.8001	797.18	0.32
333.15	0.9	811.8	0.32
333.15	1	831.4	0.32
343.15	0	738.9	0.3
343.15	0.1007	742.2	0.3
343.15	0.2	746	0.3
343.15	0.3002	750.4	0.3
343.15	0.4013	755.6	0.3
343.15	0.5002	761.6	0.3
343.15	0.6001	768.9	0.3
343.15	0.7002	777.9	0.3
343.15	0.8001	789	0.3
343.15	0.9	803.3	0.3
343.15	1	822.3	0.3
353.15	0	731.8	0.3
353.15	0.1007	735	0.3
353.15	0.2	738.7	0.3
353.15	0.3002	743	0.3
353.15	0.4013	748.1	0.3
353.15	0.5002	754	0.3
353.15	0.6001	761.1	0.3
353.15	0.7002	769.8	0.3
353.15	0.8001	780.7	0.3
353.15	0.9	794.5	0.3
353.15	1	813.1	0.3
363.15	0	724.7	0.3
363.15	0.1007	727.8	0.3
363.15	0.2	731.5	0.3
363.15	0.3002	735.6	0.3
363.15	0.4013	740.6	0.3
363.15	0.5002	746.3	0.3
363.15	0.6001	753.1	0.3
363.15	0.7002	761.6	0.3
363.15	0.8001	772.2	0.3
363.15	0.9	785.6	0.3
363.15	1	803.7	0.3
373.15	0	717.5	0.3
373.15	0.1007	720.6	0.3
373.15	0.2	724.1	0.3
373.15	0.3002	728.1	0.3
373.15	0.4013	732.9	0.3
373.15	0.5002	738.4	0.3
373.15	0.6001	745.1	0.3
373.15	0.7002	753.3	0.3
373.15	0.8001	763.6	0.3
373.15	0.9	776.6	0.3
373.15	1	794.2	0.3

System: ethylbenzene + hexadecane; phases: Liquid
Fixed: Pressure, kPa = 101
Property: Viscosity, Pa*s (Liquid); method: Falling or rolling sphere viscometry
Temperature, K	Mole fraction of ethylbenzene	Viscosity, Pa*s	uncertainty
293.15	0	0.00344	3e-05
293.15	0.1007	0.00301	3e-05
293.15	0.2	0.00263	2e-05
293.15	0.3002	0.00228	2e-05
293.15	0.4013	0.00196	2e-05
293.15	0.5002	0.00169	2e-05
293.15	0.6001	0.00143	2e-05
293.15	0.7002	0.00121	1e-05
293.15	0.8001	0.00101	1e-05
293.15	0.9	0.00083	1e-05
293.15	1	0.00067	1e-05
303.15	0	0.00272	2e-05
303.15	0.1007	0.00242	2e-05
303.15	0.2	0.00214	2e-05
303.15	0.3002	0.00188	2e-05
303.15	0.4013	0.00164	2e-05
303.15	0.5002	0.00142	2e-05
303.15	0.6001	0.00123	1e-05
303.15	0.7002	0.00105	1e-05
303.15	0.8001	0.00088	1e-05
303.15	0.9	0.00073	1e-05
303.15	1	0.00059	1e-05
323.15	0	0.00182	2e-05
323.15	0.1007	0.00165	2e-05
323.15	0.2	0.00149	2e-05
323.15	0.3002	0.00134	2e-05
323.15	0.4013	0.00119	1e-05
323.15	0.5002	0.00105	1e-05
323.15	0.6001	0.00092	1e-05
323.15	0.7002	0.0008	1e-05
323.15	0.8001	0.00068	1e-05
323.15	0.9	0.00057	1e-05
323.15	1	0.00048	1e-05
333.15	0	0.00153	2e-05
333.15	0.1007	0.0014	2e-05
333.15	0.2	0.00128	2e-05
333.15	0.3002	0.00115	1e-05
333.15	0.4013	0.00103	1e-05
333.15	0.5002	0.00092	1e-05
333.15	0.6001	0.00081	1e-05
333.15	0.7002	0.0007	1e-05
333.15	0.8001	0.0006	1e-05
333.15	0.9	0.00052	1e-05
333.15	1	0.00044	1e-05
343.15	0	0.00131	2e-05
343.15	0.1007	0.00121	1e-05
343.15	0.2	0.0011	1e-05
343.15	0.3002	0.00101	1e-05
343.15	0.4013	0.0009	1e-05
343.15	0.5002	0.00081	1e-05
343.15	0.6001	0.00071	1e-05
343.15	0.7002	0.00062	1e-05
343.15	0.8001	0.00054	1e-05
343.15	0.9	0.00047	1e-05
343.15	1	0.0004	1e-05
353.15	0	0.00113	1e-05
353.15	0.1007	0.00105	1e-05
353.15	0.2	0.00096	1e-05
353.15	0.3002	0.00088	1e-05
353.15	0.4013	0.0008	1e-05
353.15	0.5002	0.00071	1e-05
353.15	0.6001	0.00064	1e-05
353.15	0.7002	0.00056	1e-05
353.15	0.8001	0.00049	1e-05
353.15	0.9	0.00043	1e-05
353.15	1	0.00036	1e-05
363.15	0	0.00099	1e-05
363.15	0.1007	0.00092	1e-05
363.15	0.2	0.00085	1e-05
363.15	0.3002	0.00078	1e-05
363.15	0.4013	0.0007	1e-05
363.15	0.5002	0.00063	1e-05
363.15	0.6001	0.00058	0.0002
363.15	0.7002	0.00051	1e-05
363.15	0.8001	0.00045	1e-05
363.15	0.9	0.00039	1e-05
363.15	1	0.00033	1e-05
373.15	0	0.00087	1e-05
373.15	0.1007	0.00082	1e-05
373.15	0.2	0.00076	1e-05
373.15	0.3002	0.00069	1e-05
373.15	0.4013	0.00063	1e-05
373.15	0.5002	0.00057	1e-05
373.15	0.6001	0.00052	1e-05
373.15	0.7002	0.00047	1e-05
373.15	0.8001	0.00041	1e-05
373.15	0.9	0.00036	1e-05
373.15	1	0.00031	1e-05

System: ethylbenzene + hexadecane; phases: Liquid
Fixed: Pressure, kPa = 100
Property: Speed of sound, m/s (Liquid); method: Sing-around technique in a fixed-path interferometer
Temperature, K	Mole fraction of ethylbenzene	Speed of sound, m/s	uncertainty
303.15	0	1320	0.9
303.15	0.1007	1316	0.9
303.15	0.2	1312	0.9
303.15	0.3002	1307.8	0.8
303.15	0.4013	1303.1	0.8
303.15	0.5002	1298.9	0.8
303.15	0.6001	1295	0.8
303.15	0.7002	1291.9	0.8
303.15	0.8001	1291.1	0.7
303.15	0.9	1291.3	0.7
303.15	1	1298.1	0.7
313.15	0	1283.3	0.9
313.15	0.1007	1279.2	0.9
313.15	0.2	1275.1	0.9
313.15	0.3002	1270.8	0.8
313.15	0.4013	1266	0.8
313.15	0.5002	1261.6	0.8
313.15	0.6001	1257.4	0.8
313.15	0.7002	1253.8	0.7
313.15	0.8001	1251.3	0.7
313.15	0.9	1251.6	0.7
313.15	1	1256.9	0.7
323.15	0	1247.3	0.9
323.15	0.1007	1243.2	0.9
323.15	0.2	1239	0.8
323.15	0.3002	1234.5	0.8
323.15	0.4013	1229.4	0.8
323.15	0.5002	1224.8	0.8
323.15	0.6001	1220.3	0.8
323.15	0.7002	1216.2	0.7
323.15	0.8001	1213.1	0.7
323.15	0.9	1212.5	0.7
323.15	1	1216.4	0.7
333.15	0	1212	0.9
333.15	0.1007	1207.7	0.9
333.15	0.2	1203.4	0.8
333.15	0.3002	1198.8	0.8
333.15	0.4013	1193.6	0.8
333.15	0.5002	1188.6	0.8
333.15	0.6001	1183.8	0.7
333.15	0.7002	1179.2	0.7
333.15	0.8001	1175.5	0.7
333.15	0.9	1173.9	0.7
333.15	1	1176.4	0.7
293.15	0	1357.3	0.9
293.15	0.1007	1353.4	0.9
293.15	0.2	1349.4	0.9
293.15	0.3002	1345.2	0.8
293.15	0.4013	1340.7	0.8
293.15	0.5002	1336.7	0.8
293.15	0.6001	1333.1	0.8
293.15	0.7002	1330.4	0.8
293.15	0.8001	1329.3	0.8
293.15	0.9	1331.5	0.7
293.15	1	1339.7	0.7

System: ethylbenzene + hexadecane; phases: Liquid, Gas
Fixed: Temperature, K = 294.4
Property: Surface tension liquid-gas, N/m (Liquid); method: Pendant drop shape
Mole fraction of ethylbenzene	Surface tension liquid-gas, N/m	uncertainty
0	0.0273	0.0004
0.2	0.0274	0.0004
0.4013	0.0275	0.0004
0.5002	0.0275	0.0004
0.6001	0.0278	0.0004
0.7002	0.028	0.0004
0.8001	0.0282	0.0004
0.9	0.0285	0.0004
1	0.0292	0.0004
