Measured thermophysical data. Density, Speed of Sound, and Refractive Index Measurements for the Binary Mixture (1, 4-Dioxane + Isobutyric Acid) at T = (295.15, 298.15, 301.15, 304.15, 307.15, 310.15, and 313.15) K
Source: J. Chem. Eng. Data, 2015, 10.1021/je5010643
Compound 1: 1,4-dioxane, C4H8O2, InChI=1S/C4H8O2/c1-2-6-4-3-5-1/h1-4H2, purity 99%
Compound 2: 2-methylpropanoic acid, C4H8O2, InChI=1S/C4H8O2/c1-3(2)4(5)6/h3H,1-2H3,(H,5,6), purity 99%

System: 1,4-dioxane; phases: Liquid
Fixed: Pressure, kPa = 101.32
Fixed: Frequency, MHz = 3
Property: Speed of sound, m/s (Liquid); method: Linear variable-path acoustic interferometer
Temperature, K	Speed of sound, m/s	uncertainty
295.15	1357.7	1.75
298.15	1344.8	1.75
301.15	1331.9	1.74
304.15	1319	1.73
307.15	1306.2	1.72
310.15	1293.3	1.71
313.15	1280.4	1.71

System: 1,4-dioxane; phases: Liquid
Fixed: Pressure, kPa = 101.32
Property: Refractive index (Na D-line) (Liquid); method: Standard Abbe refractometry
Temperature, K	Refractive index (Na D-line)	uncertainty
295.15	1.4211	0.0004
298.15	1.4197	0.0004
301.15	1.4183	0.0004
304.15	1.4168	0.0004
307.15	1.4154	0.0004
310.15	1.4138	0.0004
313.15	1.4124	0.0004

System: 1,4-dioxane; phases: Liquid
Fixed: Pressure, kPa = 101.32
Property: Mass density, kg/m3 (Liquid); method: VIBTUB:UFactor:16
Temperature, K	Mass density, kg/m3	uncertainty
295.15	1030.86	0.9
298.15	1027.59	0.88
301.15	1024.32	0.86
304.15	1021.05	0.83
307.15	1017.78	0.81
310.15	1014.51	0.79
313.15	1011.24	0.77

System: 2-methylpropanoic acid; phases: Liquid
Fixed: Pressure, kPa = 101.32
Fixed: Frequency, MHz = 3
Property: Speed of sound, m/s (Liquid); method: Linear variable-path acoustic interferometer
Temperature, K	Speed of sound, m/s	uncertainty
295.15	1100.2	1.6
298.15	1086	1.59
301.15	1072.1	1.58
304.15	1058.2	1.57
307.15	1043.4	1.56
310.15	1030.8	1.55
313.15	1015.2	1.55

System: 2-methylpropanoic acid; phases: Liquid
Fixed: Pressure, kPa = 101.32
Property: Refractive index (Na D-line) (Liquid); method: Standard Abbe refractometry
Temperature, K	Refractive index (Na D-line)	uncertainty
295.15	1.3919	0.0004
298.15	1.3907	0.0004
301.15	1.3895	0.0004
304.15	1.3883	0.0004
307.15	1.3872	0.0004
310.15	1.386	0.0004
313.15	1.3849	0.0004

System: 2-methylpropanoic acid; phases: Liquid
Fixed: Pressure, kPa = 101.32
Property: Mass density, kg/m3 (Liquid); method: VIBTUB:UFactor:16
Temperature, K	Mass density, kg/m3	uncertainty
295.15	945.28	1.02
298.15	942.22	1.03
301.15	939.16	1.05
304.15	936.1	1.07
307.15	933.04	1.09
310.15	929.98	1.11
313.15	926.92	1.12

System: 2-methylpropanoic acid + 1,4-dioxane; phases: Liquid
Fixed: Pressure, kPa = 101.32
Property: Mass density, kg/m3 (Liquid); method: VIBTUB:UFactor:16
Temperature, K	Mole fraction of 1,4-dioxane	Mass density, kg/m3	uncertainty
295.15	0	945.28	1.02
295.15	0.1	955.63	0.96
295.15	0.2	965.46	0.9
295.15	0.3	975.08	0.85
295.15	0.4	984.2	0.79
295.15	0.5	993.05	0.74
295.15	0.6	1001.52	0.71
295.15	0.7	1009.56	0.76
295.15	0.8	1017.23	0.81
295.15	0.9	1024.38	0.86
295.15	1	1030.86	0.9
298.15	0	942.22	1.03
298.15	0.1	952.65	0.98
298.15	0.2	962.63	0.92
298.15	0.3	972.12	0.86
298.15	0.4	981.18	0.81
298.15	0.5	989.97	0.76
298.15	0.6	998.46	0.71
298.15	0.7	1006.5	0.74
298.15	0.8	1014.12	0.79
298.15	0.9	1021.3	0.84
298.15	1	1027.59	0.88
301.15	0	939.16	1.05
301.15	0.1	949.87	0.99
301.15	0.2	959.66	0.94
301.15	0.3	969.21	0.88
301.15	0.4	978.18	0.83
301.15	0.5	986.93	0.78
301.15	0.6	995.31	0.73
301.15	0.7	1003.43	0.72
301.15	0.8	1011.08	0.77
301.15	0.9	1018.24	0.82
301.15	1	1024.32	0.86
304.15	0	936.1	1.07
304.15	0.1	946.87	1.01
304.15	0.2	956.7	0.95
304.15	0.3	966.21	0.9
304.15	0.4	975.19	0.84
304.15	0.5	983.97	0.79
304.15	0.6	992.36	0.74
304.15	0.7	1000.47	0.7
304.15	0.8	1008.1	0.75
304.15	0.9	1015.19	0.8
304.15	1	1021.05	0.83
307.15	0	933.04	1.09
307.15	0.1	943.94	1.03
307.15	0.2	953.7	0.97
307.15	0.3	963.19	0.91
307.15	0.4	972.14	0.86
307.15	0.5	981.02	0.81
307.15	0.6	989.41	0.76
307.15	0.7	997.53	0.71
307.15	0.8	1005.12	0.73
307.15	0.9	1011.87	0.78
307.15	1	1017.78	0.81
310.15	0	929.98	1.11
310.15	0.1	941.03	1.05
310.15	0.2	950.89	0.99
310.15	0.3	960.24	0.93
310.15	0.4	969.24	0.88
310.15	0.5	978.07	0.83
310.15	0.6	986.45	0.78
310.15	0.7	994.54	0.73
310.15	0.8	1002.1	0.71
310.15	0.9	1008.86	0.76
310.15	1	1014.51	0.79
313.15	0	926.92	1.12
313.15	0.1	938.11	1.06
313.15	0.2	947.93	1
313.15	0.3	957.22	0.95
313.15	0.4	966.21	0.9
313.15	0.5	975.03	0.84
313.15	0.6	983.45	0.8
313.15	0.7	991.62	0.75
313.15	0.8	999.14	0.7
313.15	0.9	1005.92	0.74
313.15	1	1011.24	0.77

System: 2-methylpropanoic acid + 1,4-dioxane; phases: Liquid
Fixed: Pressure, kPa = 101.32
Fixed: Frequency, MHz = 3
Property: Speed of sound, m/s (Liquid); method: Linear variable-path acoustic interferometer
Temperature, K	Mole fraction of 1,4-dioxane	Speed of sound, m/s	uncertainty
295.15	0	1100.2	1.6
295.15	0.1	1119.6	1.62
295.15	0.2	1140	1.63
295.15	0.3	1161.7	1.65
295.15	0.4	1184.5	1.66
295.15	0.5	1208.8	1.68
295.15	0.6	1234.7	1.7
295.15	0.7	1262.3	1.72
295.15	0.8	1291.8	1.74
295.15	0.9	1323.6	1.76
295.15	1	1357.7	1.75
298.15	0	1086	1.59
298.15	0.1	1105.4	1.61
298.15	0.2	1125.9	1.62
298.15	0.3	1147.5	1.64
298.15	0.4	1170.5	1.66
298.15	0.5	1194.9	1.67
298.15	0.6	1220.8	1.69
298.15	0.7	1248.6	1.71
298.15	0.8	1278.3	1.73
298.15	0.9	1310.3	1.76
298.15	1	1344.8	1.75
301.15	0	1072.1	1.58
301.15	0.1	1091.5	1.6
301.15	0.2	1111.9	1.62
301.15	0.3	1133.6	1.63
301.15	0.4	1156.6	1.65
301.15	0.5	1181.1	1.66
301.15	0.6	1207.2	1.68
301.15	0.7	1235	1.7
301.15	0.8	1264.9	1.72
301.15	0.9	1297.1	1.75
301.15	1	1331.9	1.74
304.15	0	1058.2	1.57
304.15	0.1	1077.6	1.59
304.15	0.2	1098	1.61
304.15	0.3	1119.7	1.62
304.15	0.4	1142.8	1.64
304.15	0.5	1167.3	1.66
304.15	0.6	1193.4	1.67
304.15	0.7	1221.5	1.69
304.15	0.8	1251.5	1.72
304.15	0.9	1283.9	1.74
304.15	1	1319	1.73
307.15	0	1043.4	1.56
307.15	0.1	1062.8	1.59
307.15	0.2	1083.4	1.6
307.15	0.3	1105.1	1.61
307.15	0.4	1128.3	1.63
307.15	0.5	1152.9	1.65
307.15	0.6	1179.3	1.67
307.15	0.7	1207.5	1.69
307.15	0.8	1237.9	1.71
307.15	0.9	1270.7	1.73
307.15	1	1306.2	1.72
310.15	0	1030.8	1.55
310.15	0.1	1050.1	1.58
310.15	0.2	1070.6	1.59
310.15	0.3	1092.3	1.61
310.15	0.4	1115.4	1.62
310.15	0.5	1139.9	1.64
310.15	0.6	1166.3	1.66
310.15	0.7	1194.5	1.68
310.15	0.8	1224.9	1.7
310.15	0.9	1257.7	1.73
310.15	1	1293.3	1.71
313.15	0	1015.2	1.55
313.15	0.1	1034.6	1.57
313.15	0.2	1055.1	1.58
313.15	0.3	1076.9	1.6
313.15	0.4	1100.2	1.61
313.15	0.5	1125	1.63
313.15	0.6	1151.6	1.65
313.15	0.7	1180.1	1.67
313.15	0.8	1210.9	1.69
313.15	0.9	1244.2	1.72
313.15	1	1280.4	1.71

System: 2-methylpropanoic acid + 1,4-dioxane; phases: Liquid
Fixed: Pressure, kPa = 101.32
Property: Refractive index (Na D-line) (Liquid); method: Standard Abbe refractometry
Temperature, K	Mole fraction of 1,4-dioxane	Refractive index (Na D-line)	uncertainty
295.15	0	1.3919	0.0004
295.15	0.1	1.3955	0.0004
295.15	0.2	1.3988	0.0004
295.15	0.3	1.4021	0.0004
295.15	0.4	1.4052	0.0004
295.15	0.5	1.4082	0.0004
295.15	0.6	1.411	0.0004
295.15	0.7	1.4137	0.0004
295.15	0.8	1.4161	0.0004
295.15	0.9	1.4185	0.0004
295.15	1	1.4211	0.0004
298.15	0	1.3907	0.0004
298.15	0.1	1.3942	0.0004
298.15	0.2	1.3974	0.0004
298.15	0.3	1.4007	0.0004
298.15	0.4	1.4038	0.0004
298.15	0.5	1.4068	0.0004
298.15	0.6	1.4096	0.0004
298.15	0.7	1.4122	0.0004
298.15	0.8	1.4146	0.0004
298.15	0.9	1.4171	0.0004
298.15	1	1.4197	0.0004
301.15	0	1.3895	0.0004
301.15	0.1	1.3929	0.0004
301.15	0.2	1.3961	0.0004
301.15	0.3	1.3993	0.0004
301.15	0.4	1.4024	0.0004
301.15	0.5	1.4054	0.0004
301.15	0.6	1.4082	0.0004
301.15	0.7	1.4107	0.0004
301.15	0.8	1.4132	0.0004
301.15	0.9	1.4156	0.0004
301.15	1	1.4183	0.0004
304.15	0	1.3883	0.0004
304.15	0.1	1.3916	0.0004
304.15	0.2	1.3948	0.0004
304.15	0.3	1.3979	0.0004
304.15	0.4	1.401	0.0004
304.15	0.5	1.4039	0.0004
304.15	0.6	1.4067	0.0004
304.15	0.7	1.4093	0.0004
304.15	0.8	1.4117	0.0004
304.15	0.9	1.4141	0.0004
304.15	1	1.4168	0.0004
307.15	0	1.3872	0.0004
307.15	0.1	1.3904	0.0004
307.15	0.2	1.3936	0.0004
307.15	0.3	1.3967	0.0004
307.15	0.4	1.3997	0.0004
307.15	0.5	1.4026	0.0004
307.15	0.6	1.4054	0.0004
307.15	0.7	1.4079	0.0004
307.15	0.8	1.4103	0.0004
307.15	0.9	1.4127	0.0004
307.15	1	1.4154	0.0004
310.15	0	1.386	0.0004
310.15	0.1	1.3891	0.0004
310.15	0.2	1.3923	0.0004
310.15	0.3	1.3953	0.0004
310.15	0.4	1.3983	0.0004
310.15	0.5	1.4011	0.0004
310.15	0.6	1.4038	0.0004
310.15	0.7	1.4063	0.0004
310.15	0.8	1.4087	0.0004
310.15	0.9	1.4112	0.0004
310.15	1	1.4138	0.0004
313.15	0	1.3849	0.0004
313.15	0.1	1.3879	0.0004
313.15	0.2	1.391	0.0004
313.15	0.3	1.3941	0.0004
313.15	0.4	1.397	0.0004
313.15	0.5	1.3998	0.0004
313.15	0.6	1.4025	0.0004
313.15	0.7	1.4049	0.0004
313.15	0.8	1.4073	0.0004
313.15	0.9	1.4098	0.0004
313.15	1	1.4124	0.0004
