Measured thermophysical data. Liquid Liquid Equilibrium for Ternary System Methanol + Methyl Acetate + 1,3-Dimethylimidazolium Dimethylphosphate at Several Temperatures and Atmospheric Pressure
Source: J. Chem. Eng. Data, 2015, 10.1021/je500672d
Compound 1: methanol, CH4O, InChI=1S/CH4O/c1-2/h2H,1H3, purity 99.5%
Compound 2: methyl ethanoate, C3H6O2, InChI=1S/C3H6O2/c1-3(4)5-2/h1-2H3, purity 99%
Compound 3: 1,3-dimethylimidazolium dimethylphosphate, C7H15N2O4P, InChI=1S/C5H9N2.C2H7O4P/c1-6-3-4-7(2)5-6;1-5-7(3,4)6-2/h3-5H,1-2H3;1-2H3,(H,3,4)/q+1;/p-1, purity 98%

System: methanol; phases: Liquid
Property: Mass density, kg/m3 (Liquid); method: Vibrating tube method
Temperature, K	Pressure, kPa	Mass density, kg/m3	uncertainty
298.15	101.325	786.4	0.4

System: methyl ethanoate; phases: Liquid
Property: Mass density, kg/m3 (Liquid); method: Vibrating tube method
Temperature, K	Pressure, kPa	Mass density, kg/m3	uncertainty
298.15	101.325	927.7	0.5

System: 1,3-dimethylimidazolium dimethylphosphate; phases: Liquid
Property: Mass density, kg/m3 (Liquid); method: Vibrating tube method
Temperature, K	Pressure, kPa	Mass density, kg/m3	uncertainty
298.15	101.325	1257.8	1.4

System: methanol + methyl ethanoate + 1,3-dimethylimidazolium dimethylphosphate; phases: Liquid mixture 2, Liquid mixture 1
Fixed: Pressure, kPa = 101.3
Property: Mole fraction of methyl ethanoate (Liquid mixture 2); method: Chromatography
Property: Mole fraction of methyl ethanoate (Liquid mixture 1); method: Chromatography
Property: Mole fraction of methanol (Liquid mixture 1); method: Chromatography
Temperature, K	Mole fraction of methanol	Mole fraction of methyl ethanoate	uncertainty	Mole fraction of methyl ethanoate	uncertainty	Mole fraction of methanol	uncertainty
298.2	0	0.211	0.006	0.987	0.006	0	
313.2	0.143	0.295	0.009	0.919	0.009	0.053	
313.2	0.16	0.316	0.009	0.909	0.009	0.062	
298.2	0.051	0.218	0.006	0.975	0.009	0.011	
313.2	0.181	0.334	0.009	0.898	0.009	0.071	
313.2	0.206	0.359	0.011	0.882	0.009	0.085	
313.2	0.215	0.388	0.013	0.873	0.009	0.093	
313.2	0.237	0.421	0.015	0.858	0.009	0.108	
313.2	0.248	0.463	0.024	0.849	0.01	0.116	
328.2	0	0.242	0.006	0.969	0.006	0	
328.2	0.039	0.259	0.007	0.953	0.01	0.012	
298.2	0.249	0.382	0.012	0.877	0.01	0.098	
328.2	0.075	0.275	0.007	0.935	0.009	0.027	
328.2	0.1	0.287	0.007	0.922	0.009	0.038	
328.2	0.121	0.298	0.007	0.909	0.009	0.05	
298.2	0.098	0.232	0.007	0.958	0.009	0.027	
328.2	0.147	0.311	0.008	0.891	0.009	0.066	
328.2	0.156	0.334	0.01	0.885	0.009	0.072	
328.2	0.178	0.356	0.01	0.871	0.009	0.085	
328.2	0.193	0.379	0.016	0.86	0.01	0.093	
328.2	0.202	0.417	0.013	0.853	0.01	0.099	
328.2	0.225	0.443	0.013	0.834	0.01	0.114	
298.2	0.267	0.417	0.015	0.867	0.009	0.106	
328.2	0.234	0.485	0.029	0.824	0.011	0.121	
298.2	0.134	0.254	0.007	0.939	0.009	0.045	
298.2	0.156	0.271	0.008	0.929	0.009	0.054	
298.2	0.171	0.283	0.009	0.919	0.009	0.062	
298.2	0.192	0.305	0.009	0.909	0.009	0.071	
298.2	0.213	0.329	0.01	0.899	0.009	0.08	
298.2	0.228	0.35	0.011	0.889	0.01	0.089	
298.2	0.283	0.456	0.016	0.858	0.009	0.114	
313.2	0	0.229	0.006	0.982	0.006	0	
313.2	0.034	0.234	0.006	0.969	0.01	0.009	
313.2	0.055	0.247	0.007	0.959	0.009	0.017	
313.2	0.089	0.262	0.007	0.944	0.009	0.031	
313.2	0.121	0.277	0.007	0.93	0.009	0.044	

System: methyl ethanoate + 1,3-dimethylimidazolium dimethylphosphate; phases: Liquid mixture 2, Liquid mixture 1
Fixed: Pressure, kPa = 101.3
Property: Mole fraction of methyl ethanoate (Liquid mixture 2); method: Chromatography
Temperature, K	Mole fraction of methyl ethanoate	uncertainty
298.2	0.211	0.006
328.2	0.242	0.006
313.2	0.229	0.006

System: methyl ethanoate + 1,3-dimethylimidazolium dimethylphosphate; phases: Liquid mixture 1, Liquid mixture 2
Fixed: Pressure, kPa = 101.3
Property: Mole fraction of methyl ethanoate (Liquid mixture 1); method: Chromatography
Temperature, K	Mole fraction of methyl ethanoate	uncertainty
298.2	0.987	0.006
328.2	0.969	0.006
313.2	0.982	0.006
