Measured thermophysical data. Solubilities of 5,10,15,20-Tetrakis(pchlorophenyl) porphyrin in Binary Propionic Acid + Water Solvent Mixtures at (293.2 to 353.2) K
Source: J. Chem. Eng. Data, 2014, 10.1021/je500291x
Compound 1: 21H,23H-Porphine, 5,10,15,20-tetrakis(4-chlorophenyl)-, C44H26Cl4N4, InChI=1S/C44H26Cl4N4/c45-29-9-1-25(2-10-29)41-33-17-19-35(49-33)42(26-3-11-30(46)12-4-26)37-21-23-39(51-37)44(28-7-15-32(48)16-8-28)40-24-22-38(52-40)43(36-20-18-34(41)50-36)27-5-13-31(47)14-6-27/h1-24,49,52H/b41-33-,41-34-,42-35-,42-37-,43-36-,43-38-,44-39-,44-40-, purity 95%
Compound 2: propanoic acid, C3H6O2, InChI=1S/C3H6O2/c1-2-3(4)5/h2H2,1H3,(H,4,5), purity 99%
Compound 3: water, H2O, InChI=1S/H2O/h1H2, purity 99.9%

System: propanoic acid + water + 21H,23H-Porphine, 5,10,15,20-tetrakis(4-chlorophenyl)-; phases: Liquid, Crystal
Fixed: Pressure, kPa = 100
Property: Mole fraction of 21H,23H-Porphine, 5,10,15,20-tetrakis(4-chlorophenyl)- (Liquid); method: UV-vis spectrometer
Temperature, K	Solvent: Mass fraction of propanoic acid	Mole fraction of 21H,23H-Porphine, 5,10,15,20-tetrakis(4-chlorophenyl)-	uncertainty
293.2	1	4.4197e-05	4.421e-06
303.2	1	4.4693e-05	4.47e-06
313.2	1	4.6208e-05	4.622e-06
323.2	1	4.8873e-05	4.889e-06
333.2	1	5.3201e-05	5.322e-06
343.2	1	5.9604e-05	5.963e-06
353.2	1	6.7095e-05	6.713e-06
293.2	0.98	3.1004e-05	3.101e-06
303.2	0.98	3.1625e-05	3.163e-06
313.2	0.98	3.2325e-05	3.233e-06
323.2	0.98	3.3657e-05	3.367e-06
333.2	0.98	3.5964e-05	3.598e-06
343.2	0.98	4.0374e-05	4.04e-06
353.2	0.98	4.7451e-05	4.75e-06
293.2	0.96	2.0383e-05	2.039e-06
303.2	0.96	2.1039e-05	2.104e-06
313.2	0.96	2.2105e-05	2.211e-06
323.2	0.96	2.3456e-05	2.346e-06
333.2	0.96	2.5354e-05	2.536e-06
343.2	0.96	2.8338e-05	2.836e-06
353.2	0.96	3.395e-05	3.398e-06
293.2	0.94	1.3222e-05	1.322e-06
303.2	0.94	1.3855e-05	1.386e-06
313.2	0.94	1.4405e-05	1.441e-06
323.2	0.94	1.5484e-05	1.549e-06
333.2	0.94	1.7074e-05	1.708e-06
343.2	0.94	1.9424e-05	1.944e-06
353.2	0.94	2.2927e-05	2.295e-06
293.2	0.92	7.967e-06	7.97e-07
303.2	0.92	8.435e-06	8.44e-07
313.2	0.92	9.01e-06	9.01e-07
323.2	0.92	9.741e-06	9.75e-07
333.2	0.92	1.0899e-05	1.09e-06
343.2	0.92	1.25e-05	1.251e-06
353.2	0.92	1.4941e-05	1.496e-06
293.2	0.9	5.694e-06	5.7e-07
303.2	0.9	6.014e-06	6.02e-07
313.2	0.9	6.355e-06	6.36e-07
323.2	0.9	6.86e-06	6.86e-07
333.2	0.9	7.555e-06	7.56e-07
343.2	0.9	8.964e-06	8.97e-07
353.2	0.9	1.1114e-05	1.113e-06
293.2	0.88	3.913e-06	3.91e-07
303.2	0.88	4.001e-06	4e-07
313.2	0.88	4.473e-06	4.47e-07
323.2	0.88	4.782e-06	4.78e-07
333.2	0.88	5.072e-06	5.07e-07
343.2	0.88	5.999e-06	6.01e-07
353.2	0.88	7.448e-06	7.46e-07
293.2	0.86	2.462e-06	2.46e-07
303.2	0.86	2.62e-06	2.62e-07
313.2	0.86	2.832e-06	2.83e-07
323.2	0.86	3.098e-06	3.1e-07
333.2	0.86	3.386e-06	3.39e-07
343.2	0.86	3.943e-06	3.95e-07
353.2	0.86	5.347e-06	5.36e-07
293.2	0.84	1.693e-06	1.69e-07
303.2	0.84	1.838e-06	1.84e-07
313.2	0.84	1.975e-06	1.98e-07
323.2	0.84	2.134e-06	2.13e-07
333.2	0.84	2.329e-06	2.33e-07
343.2	0.84	2.804e-06	2.81e-07
353.2	0.84	3.54e-06	3.55e-07
293.2	0.82	1.278e-06	1.28e-07
303.2	0.82	1.324e-06	1.32e-07
313.2	0.82	1.477e-06	1.48e-07
323.2	0.82	1.555e-06	1.56e-07
333.2	0.82	1.761e-06	1.76e-07
343.2	0.82	2.084e-06	2.09e-07
353.2	0.82	2.693e-06	2.7e-07
293.2	0.8	9.31e-07	9.3e-08
303.2	0.8	9.72e-07	9.7e-08
313.2	0.8	1.014e-06	1.01e-07
323.2	0.8	1.175e-06	1.18e-07
333.2	0.8	1.338e-06	1.34e-07
343.2	0.8	1.556e-06	1.56e-07
353.2	0.8	1.891e-06	1.89e-07

System: propanoic acid + 21H,23H-Porphine, 5,10,15,20-tetrakis(4-chlorophenyl)-; phases: Liquid, Crystal
Fixed: Pressure, kPa = 100
Property: Mole fraction of 21H,23H-Porphine, 5,10,15,20-tetrakis(4-chlorophenyl)- (Liquid); method: UV-vis spectrometer
Temperature, K	Mole fraction of 21H,23H-Porphine, 5,10,15,20-tetrakis(4-chlorophenyl)-	uncertainty
293.2	4.4197e-05	4.421e-06
303.2	4.4693e-05	4.47e-06
313.2	4.6208e-05	4.622e-06
323.2	4.8873e-05	4.889e-06
333.2	5.3201e-05	5.322e-06
343.2	5.9604e-05	5.963e-06
353.2	6.7095e-05	6.713e-06
