Measured thermophysical data. Isobaric Vapor Liquid Equilibrium for Acetone + Methanol + Phosphate Ionic Liquids
Source: J. Chem. Eng. Data, 2015, 10.1021/je5007373
Compound 1: acetone, C3H6O, InChI=1S/C3H6O/c1-3(2)4/h1-2H3, purity 99%
Compound 2: methanol, CH4O, InChI=1S/CH4O/c1-2/h2H,1H3, purity 99.9%
Compound 3: 1-ethyl-3-methylimidazolium diethyl phosphate, C10H21N2O4P, InChI=1S/C6H11N2.C4H11O4P/c1-3-8-5-4-7(2)6-8;1-3-7-9(5,6)8-4-2/h4-6H,3H2,1-2H3;3-4H2,1-2H3,(H,5,6)/q+1;/p-1, purity 98%
Compound 4: 1-butyl-3-methylimidazolium dibutyl phosphate, C16H33N2O4P, InChI=1S/C8H15N2.C8H19O4P/c1-3-4-5-10-7-6-9(2)8-10;1-3-5-7-11-13(9,10)12-8-6-4-2/h6-8H,3-5H2,1-2H3;3-8H2,1-2H3,(H,9,10)/q+1;/p-1, purity 98%
Compound 5: 1,3-dimethylimidazolium dimethylphosphate, C7H15N2O4P, InChI=1S/C5H9N2.C2H7O4P/c1-6-3-4-7(2)5-6;1-5-7(3,4)6-2/h3-5H,1-2H3;1-2H3,(H,3,4)/q+1;/p-1, purity 98%

System: methanol + acetone; phases: Liquid, Gas
Fixed: Pressure, kPa = 101.3
Property: Boiling temperature at pressure P, K (Liquid); method: EBULLIO:UFactor:4
Mole fraction of acetone	Boiling temperature at pressure P, K	uncertainty
0	337.25	0.34
0.03	337.05	0.34
0.06	336.05	0.35
0.093	335.3	0.34
0.125	334.35	0.35
0.152	333.61	0.34
0.177	333.06	0.34
0.209	332.75	0.34
0.238	332.15	0.34
0.267	331.8	0.34
0.293	331.3	0.34
0.317	330.95	0.34
0.341	330.7	0.34
0.387	330.25	0.34
0.414	329.86	0.34
0.444	329.56	0.34
0.457	329.49	0.34
0.487	328.96	0.34
0.535	328.56	0.34
0.561	328.46	0.34
0.59	328.26	0.34
0.612	328.36	0.34
0.639	328.26	0.34
0.676	328.26	0.34
0.693	328.15	0.34
0.732	328.01	0.34
0.746	328.01	0.34
0.793	327.96	0.34
0.819	328.2	0.34
0.842	328.16	0.34
0.884	328.25	0.34
0.916	328.25	0.34
0.948	328.6	0.34
1	329	0.34

System: methanol + acetone; phases: Gas, Liquid
Fixed: Pressure, kPa = 101.3
Property: Mole fraction of acetone (Gas); method: CHROM:UFactor:2
Mole fraction of acetone	Mole fraction of acetone	uncertainty
0	0	
0.03	0.068	0.005
0.06	0.125	0.005
0.093	0.181	0.005
0.125	0.232	0.005
0.152	0.272	0.006
0.177	0.301	0.006
0.209	0.334	0.007
0.238	0.369	0.007
0.267	0.394	0.008
0.293	0.428	0.008
0.317	0.446	0.009
0.341	0.462	0.009
0.387	0.503	0.01
0.414	0.526	0.009
0.444	0.546	0.009
0.457	0.556	0.009
0.487	0.579	0.008
0.535	0.608	0.008
0.561	0.628	0.007
0.59	0.644	0.007
0.612	0.663	0.007
0.639	0.679	0.007
0.676	0.697	0.006
0.693	0.715	0.006
0.732	0.745	0.005
0.746	0.754	0.005
0.793	0.789	0.005
0.819	0.813	0.005
0.842	0.832	0.004
0.884	0.87	0.004
0.916	0.903	0.004
0.948	0.938	0.003
1	1	

System: acetone + 1,3-dimethylimidazolium dimethylphosphate; phases: Liquid, Gas
Fixed: Pressure, kPa = 101.3
Property: Boiling temperature at pressure P, K (Liquid); method: EBULLIO:UFactor:4
Mole fraction of 1,3-dimethylimidazolium dimethylphosphate	Boiling temperature at pressure P, K	uncertainty
0.259	330.97	0.35
0.247	330.73	0.35
0.23	330.55	0.34
0.211	330.35	0.34
0.187	330.1	0.34
0.169	330.05	0.34
0.157	329.91	0.34
0.15	329.85	0.34
0.142	329.73	0.34
0.131	329.67	0.34
0.112	329.62	0.34
0.091	329.59	0.34
0.083	329.56	0.34
0.069	329.51	0.34
0.051	329.46	0.34
0.032	329.32	0.34
0.021	329.23	0.34

System: methanol + 1,3-dimethylimidazolium dimethylphosphate; phases: Liquid, Gas
Fixed: Pressure, kPa = 101.3
Property: Boiling temperature at pressure P, K (Liquid); method: EBULLIO:UFactor:4
Mole fraction of 1,3-dimethylimidazolium dimethylphosphate	Boiling temperature at pressure P, K	uncertainty
0.259	371.33	0.5
0.235	366.87	0.52
0.227	364.92	0.54
0.22	363.73	0.53
0.217	362.85	0.68
0.203	360.77	0.48
0.19	358.25	0.46
0.182	357.54	0.47
0.168	354.74	0.48
0.162	354.24	0.43
0.148	352.19	0.43
0.126	349.54	0.42
0.119	348.61	0.42
0.109	347.43	0.4
0.1	346.64	0.43
0.093	345.34	0.53
0.089	344.38	0.49
0.085	343.93	0.4
0.081	343.53	0.41
0.077	342.99	0.4
0.071	342.49	0.37
0.066	342.23	0.36
0.06	341.91	0.4
0.058	341.44	0.4
0.054	340.98	0.38
0.05	340.73	0.36
0.049	340.63	0.37

System: acetone + 1-ethyl-3-methylimidazolium diethyl phosphate; phases: Liquid, Gas
Fixed: Pressure, kPa = 101.3
Property: Boiling temperature at pressure P, K (Liquid); method: EBULLIO:UFactor:4
Mole fraction of 1-ethyl-3-methylimidazolium diethyl phosphate	Boiling temperature at pressure P, K	uncertainty
0.313	334.26	0.35
0.308	334.05	0.35
0.266	333.18	0.35
0.235	332.75	0.35
0.229	332.52	0.35
0.207	331.82	0.35
0.202	331.72	0.35
0.175	330.98	0.35
0.155	330.85	0.34
0.145	330.58	0.35
0.133	330.34	0.35
0.126	330.28	0.34
0.124	330.25	0.34
0.114	330.23	0.34
0.106	330.19	0.34
0.103	330.14	0.34
0.089	330.02	0.34
0.077	329.87	0.34
0.068	329.73	0.35
0.059	329.43	0.35

System: methanol + 1-ethyl-3-methylimidazolium diethyl phosphate; phases: Liquid, Gas
Fixed: Pressure, kPa = 101.3
Property: Boiling temperature at pressure P, K (Liquid); method: EBULLIO:UFactor:4
Mole fraction of 1-ethyl-3-methylimidazolium diethyl phosphate	Boiling temperature at pressure P, K	uncertainty
0.252	371.25	0.49
0.214	364.54	0.49
0.196	361.47	0.53
0.189	359.23	0.45
0.168	356.92	0.41
0.161	356.15	0.52
0.157	354.64	0.49
0.147	353.44	0.45
0.14	352.15	0.47
0.121	349.15	0.46
0.116	348.45	0.43
0.113	348.11	0.49
0.107	346.93	0.42
0.091	345.33	0.41
0.086	344.53	0.47
0.082	343.89	0.43
0.076	343.23	0.41
0.064	341.85	0.37
0.057	341.85	0.4
0.053	340.57	0.54
0.049	340.17	0.4
0.046	339.82	0.36
0.04	339.6	0.36
0.035	339.16	0.4
0.033	339.06	0.38
0.031	338.67	0.38
0.027	338.47	0.36
0.024	338.29	0.36

System: acetone + 1-butyl-3-methylimidazolium dibutyl phosphate; phases: Liquid, Gas
Fixed: Pressure, kPa = 101.3
Property: Boiling temperature at pressure P, K (Liquid); method: EBULLIO:UFactor:4
Mole fraction of 1-butyl-3-methylimidazolium dibutyl phosphate	Boiling temperature at pressure P, K	uncertainty
0.343	341.42	0.38
0.31	338.97	0.37
0.302	338.47	0.36
0.276	336.95	0.36
0.245	335.85	0.36
0.208	333.52	0.37
0.194	332.75	0.35
0.159	331.68	0.35
0.149	331.42	0.35
0.136	331.02	0.35
0.131	330.92	0.35
0.117	330.62	0.35
0.109	330.52	0.35
0.103	330.32	0.35
0.097	330.27	0.34
0.085	330.22	0.34
0.075	330.19	0.34
0.067	329.92	0.35
0.058	329.72	0.34
0.048	329.62	0.34

System: methanol + 1-butyl-3-methylimidazolium dibutyl phosphate; phases: Liquid, Gas
Fixed: Pressure, kPa = 101.3
Property: Boiling temperature at pressure P, K (Liquid); method: EBULLIO:UFactor:4
Mole fraction of 1-butyl-3-methylimidazolium dibutyl phosphate	Boiling temperature at pressure P, K	uncertainty
0.218	364.75	0.48
0.191	360.26	0.46
0.18	358.92	0.48
0.155	354.41	0.49
0.144	352.72	0.45
0.138	351.92	0.42
0.133	351.42	0.47
0.126	350.02	0.46
0.119	349.29	0.43
0.105	347.24	0.45
0.095	345.74	0.45
0.085	344.32	0.41
0.077	343.65	0.37
0.071	343.25	0.42
0.066	342.25	0.44
0.06	341.7	0.37
0.055	341.52	0.38
0.05	340.85	0.41
0.044	340.26	0.39
0.041	339.96	0.36
0.037	339.86	0.35
0.035	339.66	0.35
0.03	339.46	0.35
0.028	339.36	0.35
0.025	339.21	0.35

System: methanol + acetone + 1,3-dimethylimidazolium dimethylphosphate; phases: Liquid, Gas
Fixed: Pressure, kPa = 101.3
Property: Mole fraction of 1,3-dimethylimidazolium dimethylphosphate (Liquid); method: gravimetric method
Property: Mole fraction of 1,3-dimethylimidazolium dimethylphosphate (Gas); method: gravimetric method
Property: Mole fraction of acetone (Gas); method: gravimetric method
Temperature, K	Mole fraction of acetone	Mole fraction of 1,3-dimethylimidazolium dimethylphosphate	uncertainty	Mole fraction of 1,3-dimethylimidazolium dimethylphosphate	uncertainty	Mole fraction of acetone	uncertainty
330.04	0.838	0.051	0.002	0		0.929	
333.04	0.341	0.05	0.002	0		0.558	
334.25	0.268	0.05	0.002	0		0.483	
335.21	0.215	0.05	0.002	0		0.417	
336.48	0.154	0.05	0.002	0		0.327	
338.17	0.097	0.05	0.002	0		0.232	
339.37	0.051	0.05	0.002	0		0.132	
330.72	0.891	0.151	0.002	0		0.987	
331.1	0.801	0.151	0.002	0		0.968	
331.51	0.751	0.147	0.002	0		0.951	
332.18	0.683	0.147	0.002	0		0.93	
330.19	0.817	0.051	0.002	0		0.916	
333.34	0.614	0.152	0.002	0		0.901	
334.24	0.567	0.152	0.002	0		0.877	
334.87	0.491	0.152	0.002	0		0.835	
335.84	0.442	0.151	0.002	0		0.803	
337.15	0.373	0.151	0.002	0		0.743	
338.7	0.301	0.151	0.002	0		0.685	
339.62	0.26	0.152	0.002	0		0.633	
342.07	0.185	0.152	0.002	0		0.525	
343.75	0.14	0.152	0.002	0		0.439	
346.07	0.09	0.152	0.002	0		0.316	
330.36	0.759	0.051	0.002	0		0.878	
349.59	0.033	0.152	0.002	0		0.14	
332.52	0.794	0.207	0.002	0		0.976	
333.39	0.724	0.207	0.002	0		0.961	
333.24	0.664	0.207	0.002	0		0.946	
335.27	0.563	0.203	0.002	0		0.913	
336.37	0.485	0.203	0.002	0		0.88	
337.14	0.451	0.203	0.002	0		0.861	
338.74	0.408	0.203	0.002	0		0.834	
340.46	0.334	0.197	0.002	0		0.78	
342.6	0.26	0.197	0.002	0		0.705	
330.57	0.703	0.051	0.002	0		0.838	
344.38	0.22	0.197	0.002	0		0.648	
345.7	0.175	0.203	0.002	0		0.589	
349.11	0.121	0.203	0.002	0		0.466	
353.62	0.063	0.203	0.002	0		0.291	
356.66	0.03	0.23	0.002	0		0.159	
330.88	0.64	0.051	0.002	0		0.795	
331.24	0.572	0.051	0.002	0		0.747	
331.55	0.52	0.051	0.002	0		0.705	
332.13	0.46	0.05	0.002	0		0.657	
332.54	0.399	0.05	0.002	0		0.611	

System: methanol + acetone + 1-ethyl-3-methylimidazolium diethyl phosphate; phases: Liquid, Gas
Fixed: Pressure, kPa = 101.3
Property: Mole fraction of 1-ethyl-3-methylimidazolium diethyl phosphate (Liquid); method: gravimetric method
Property: Mole fraction of 1-ethyl-3-methylimidazolium diethyl phosphate (Gas); method: gravimetric method
Property: Mole fraction of acetone (Gas); method: gravimetric method
Temperature, K	Mole fraction of acetone	Mole fraction of 1-ethyl-3-methylimidazolium diethyl phosphate	uncertainty	Mole fraction of 1-ethyl-3-methylimidazolium diethyl phosphate	uncertainty	Mole fraction of acetone	uncertainty
330.06	0.852	0.054	0.002	0		0.906	
334.37	0.271	0.053	0.002	0		0.471	
335.46	0.217	0.052	0.002	0		0.407	
336.72	0.157	0.053	0.002	0		0.32	
338.48	0.1	0.053	0.002	0		0.221	
340.28	0.044	0.053	0.002	0		0.109	
332.52	0.825	0.15	0.002	0		0.96	
333.43	0.746	0.151	0.002	0		0.93	
334.25	0.698	0.151	0.002	0		0.911	
334.95	0.659	0.151	0.002	0		0.893	
335.43	0.615	0.148	0.002	0		0.868	
330.34	0.732	0.051	0.002	0		0.822	
336.92	0.551	0.148	0.002	0		0.835	
337.61	0.493	0.148	0.002	0		0.796	
338.96	0.438	0.148	0.002	0		0.756	
339.89	0.392	0.152	0.002	0		0.717	
341.11	0.339	0.152	0.002	0		0.663	
342.91	0.271	0.152	0.002	0		0.582	
344.11	0.227	0.152	0.002	0		0.516	
346.95	0.16	0.149	0.002	0		0.417	
348.17	0.114	0.149	0.002	0		0.316	
350.71	0.055	0.149	0.002	0		0.17	
330.42	0.703	0.053	0.002	0		0.801	
335.04	0.807	0.201	0.002	0		0.965	
335.94	0.753	0.201	0.002	0		0.949	
337.15	0.697	0.201	0.002	0		0.931	
338.97	0.613	0.201	0.002	0		0.896	
339.86	0.574	0.202	0.002	0		0.879	
341.21	0.519	0.202	0.002	0		0.849	
342.74	0.464	0.202	0.002	0		0.814	
343.68	0.427	0.202	0.002	0		0.785	
345.44	0.364	0.202	0.002	0		0.738	
347.01	0.308	0.203	0.002	0		0.673	
331.02	0.617	0.052	0.002	0		0.748	
349.5	0.249	0.203	0.002	0		0.609	
351.92	0.198	0.203	0.002	0		0.536	
356.64	0.109	0.203	0.002	0		0.359	
357.04	0.077	0.203	0.002	0		0.258	
331.36	0.569	0.052	0.002	0		0.713	
331.85	0.483	0.053	0.002	0		0.657	
332.37	0.436	0.052	0.002	0		0.615	
332.77	0.388	0.052	0.002	0		0.574	
333.57	0.327	0.053	0.002	0		0.525	

System: methanol + acetone + 1-butyl-3-methylimidazolium dibutyl phosphate; phases: Liquid, Gas
Fixed: Pressure, kPa = 101.3
Property: Mole fraction of 1-butyl-3-methylimidazolium dibutyl phosphate (Liquid); method: gravimetric method
Property: Mole fraction of 1-butyl-3-methylimidazolium dibutyl phosphate (Gas); method: gravimetric method
Property: Mole fraction of acetone (Gas); method: gravimetric method
Temperature, K	Mole fraction of acetone	Mole fraction of 1-butyl-3-methylimidazolium dibutyl phosphate	uncertainty	Mole fraction of 1-butyl-3-methylimidazolium dibutyl phosphate	uncertainty	Mole fraction of acetone	uncertainty
329.73	0.887	0.051	0.002	0		0.906	
333.22	0.283	0.052	0.002	0		0.471	
334.13	0.246	0.052	0.002	0		0.421	
335.03	0.214	0.052	0.002	0		0.381	
336.33	0.142	0.052	0.002	0		0.286	
338.19	0.078	0.052	0.002	0		0.182	
338.69	0.057	0.052	0.002	0		0.131	
333.58	0.886	0.15	0.002	0		0.945	
334.11	0.842	0.152	0.002	0		0.927	
334.72	0.787	0.149	0.002	0		0.905	
335.53	0.721	0.149	0.002	0		0.879	
329.82	0.807	0.051	0.002	0		0.84	
336.46	0.643	0.147	0.002	0		0.847	
337.18	0.568	0.147	0.002	0		0.806	
338.28	0.478	0.147	0.002	0		0.746	
339.15	0.418	0.148	0.002	0		0.702	
340.09	0.356	0.148	0.002	0		0.656	
341.26	0.309	0.148	0.002	0		0.607	
342.7	0.247	0.148	0.002	0		0.537	
344.57	0.197	0.151	0.002	0		0.474	
345.42	0.162	0.151	0.002	0		0.407	
348.16	0.091	0.151	0.002	0		0.263	
329.88	0.769	0.051	0.002	0		0.82	
350.95	0.029	0.151	0.002	0		0.099	
335.5	0.902	0.199	0.002	0		0.955	
337.4	0.83	0.196	0.002	0		0.927	
338.57	0.756	0.198	0.002	0		0.907	
340.02	0.696	0.198	0.002	0		0.883	
340.95	0.601	0.199	0.002	0		0.855	
342.25	0.537	0.196	0.002	0		0.813	
343.66	0.463	0.196	0.002	0		0.775	
344.7	0.393	0.196	0.002	0		0.721	
345.73	0.361	0.196	0.002	0		0.696	
330.08	0.676	0.051	0.002	0		0.769	
348.06	0.287	0.196	0.002	0		0.631	
350.02	0.214	0.196	0.002	0		0.545	
351.7	0.147	0.195	0.002	0		0.442	
353.97	0.101	0.197	0.002	0		0.336	
356.42	0.061	0.196	0.002	0		0.221	
330.24	0.591	0.049	0.002	0		0.721	
330.43	0.569	0.049	0.002	0		0.692	
330.79	0.495	0.049	0.002	0		0.647	
331.39	0.441	0.049	0.002	0		0.606	
332.29	0.381	0.049	0.002	0		0.554	
