Measured thermophysical data. Measurements of the Thermal Conductivity of Propane in the Supercritical Region
Source: J. Chem. Eng. Data, 2014, 10.1021/je500395f
Compound 1: propane, C3H8, InChI=1S/C3H8/c1-3-2/h3H2,1-2H3, purity 99.95%

System: propane; phases: Fluid (supercritical or subcritical phases)
Property: Thermal conductivity, W/m/K (Fluid (supercritical or subcritical phases)); method: Coaxial cylinder method
Temperature, K	Pressure, kPa	Thermal conductivity, W/m/K	uncertainty
370.45	15100	0.08094	0.00305
370.45	11300	0.07645	0.00293
370.45	11200	0.07735	0.00294
370.45	11000	0.07677	0.00292
370.45	10500	0.07624	0.0029
370.45	10000	0.07572	0.00288
370.45	9500	0.07545	0.00288
370.45	9000	0.07421	0.00284
370.45	8500	0.07381	0.00282
370.45	8000	0.07277	0.00279
370.45	7500	0.07178	0.00276
370.45	7000	0.07091	0.00273
370.45	6500	0.06997	0.0027
370.45	6000	0.06874	0.00266
370.45	5760	0.06812	0.00264
370.45	5550	0.06791	0.00263
370.45	5500	0.06784	0.00263
370.45	5000	0.06717	0.00261
370.45	4800	0.06654	0.00259
370.45	4580	0.06769	0.00263
370.45	4560	0.06814	0.00264
370.45	4420	0.07014	0.00271
370.45	4400	0.07099	0.00277
370.45	4377	0.07217	0.00287
370.45	4360	0.07393	0.00302
370.45	4355	0.07528	0.00315
370.45	4350	0.07669	0.00332
370.45	4345	0.07814	0.00381
370.45	4340	0.08122	0.00358
370.45	4335	0.08809	0.00348
370.45	4330	0.09201	0.00349
370.45	4325	0.09628	0.00361
370.45	4320	0.10097	0.00386
370.45	4315	0.10612	0.00412
370.45	4310	0.11813	0.00462
370.45	4305	0.12908	0.005
370.45	4300	0.1452	0.00583
370.45	4295	0.15604	0.00645
370.45	4290	0.14227	0.00597
370.45	4285	0.1252	0.00538
370.45	4280	0.11175	0.00495
370.45	4275	0.09622	0.00442
370.45	4270	0.08804	0.00414
370.45	4265	0.08106	0.00421
370.45	4260	0.0774	0.00467
370.45	4255	0.0743	0.00438
370.45	4250	0.07121	0.00437
370.45	4245	0.06879	0.00275
370.45	4244	0.06856	0.00405
370.45	4241	0.06723	0.00326
370.45	4232	0.06383	0.00295
370.45	4227	0.06249	0.00284
370.45	4224	0.06133	0.00263
370.45	4217	0.05902	0.00258
370.45	4205	0.05577	0.00244
370.45	4200	0.055	0.00242
370.45	4190	0.05329	0.00234
370.45	4170	0.05102	0.00212
370.45	4105	0.04623	0.00195
370.45	4042	0.04385	0.00187
370.45	3986	0.04204	0.00181
370.45	3856	0.03938	0.00173
370.45	3770	0.03805	0.00169
370.45	3487	0.0359	0.00162
370.45	3452	0.03558	0.00161
371.05	11600	0.07756	0.00294
371.05	9500	0.07498	0.00286
371.05	8900	0.07424	0.00284
371.05	8500	0.07339	0.00281
371.05	7500	0.07147	0.00275
371.05	6800	0.06996	0.0027
371.05	6200	0.06927	0.00268
371.05	6100	0.06917	0.00267
371.05	5672	0.06829	0.00265
371.05	5350	0.06773	0.00263
371.05	5200	0.06747	0.00262
371.05	5000	0.06707	0.00261
371.05	4840	0.06668	0.00259
371.05	4720	0.06705	0.00261
371.05	4715	0.06718	0.00261
371.05	4590	0.06782	0.00263
371.05	4560	0.06824	0.00264
371.05	4555	0.06855	0.00265
371.05	4485	0.06921	0.00268
371.05	4440	0.07105	0.00282
371.05	4420	0.07231	0.00296
371.05	4414	0.07363	0.00299
371.05	4408	0.07494	0.00303
371.05	4402	0.07633	0.00303
371.05	4396	0.07776	0.00303
371.05	4392	0.07865	0.00302
371.05	4387	0.08015	0.00311
371.05	4383	0.08141	0.00313
371.05	4375	0.08406	0.00319
371.05	4370	0.08616	0.00325
371.05	4367	0.08836	0.00331
371.05	4365	0.08989	0.00336
371.05	4361	0.09311	0.00347
371.05	4360	0.09395	0.00349
371.05	4358	0.09657	0.00358
371.05	4356	0.09934	0.00369
371.05	4354	0.10277	0.0038
371.05	4351	0.10809	0.00398
371.05	4349	0.11215	0.00412
371.05	4347	0.11589	0.00426
371.05	4346	0.11784	0.00432
371.05	4345	0.11851	0.00434
371.05	4344	0.11919	0.00437
371.05	4343	0.11919	0.00437
371.05	4342	0.11919	0.00439
371.05	4340	0.11851	0.00438
371.05	4339	0.11784	0.00435
371.05	4338	0.11718	0.00434
371.05	4337	0.11589	0.00435
371.05	4336	0.11399	0.00429
371.05	4334	0.11038	0.00417
371.05	4332	0.10753	0.00413
371.05	4331	0.10536	0.00406
371.05	4329	0.10127	0.00392
371.05	4328	0.09934	0.00386
371.05	4326	0.09568	0.0038
371.05	4325	0.09395	0.00375
371.05	4324	0.09107	0.00367
371.05	4322	0.08836	0.00366
371.05	4319	0.08406	0.00355
371.05	4318	0.08141	0.00348
371.05	4313	0.07659	0.0034
371.05	4308	0.07332	0.00359
371.05	4301	0.06867	0.00386
371.05	4295	0.06602	0.00411
371.05	4289	0.06357	0.0037
371.05	4284	0.06121	0.00334
371.05	4276	0.05854	0.00281
371.05	4265	0.05669	0.00256
371.05	4252	0.05394	0.00238
371.05	4235	0.0519	0.00225
371.05	4215	0.04915	0.0021
371.05	4155	0.04633	0.00196
371.05	4095	0.04417	0.00188
371.05	3900	0.04056	0.00177
371.05	3655	0.03745	0.00167
371.05	3375	0.03463	0.00158
371.05	3100	0.03344	0.00155
371.05	2710	0.03205	0.00151
371.97	15100	0.08067	0.00305
371.97	8810	0.07269	0.00279
371.97	7600	0.07152	0.00275
371.97	6800	0.07002	0.0027
371.97	6400	0.06923	0.00268
371.97	5900	0.06801	0.00264
371.97	5200	0.06643	0.00259
371.97	4850	0.06602	0.00257
371.97	4740	0.06618	0.00258
371.97	4650	0.06636	0.00258
371.97	4570	0.06665	0.0026
371.97	4550	0.06759	0.00264
371.97	4530	0.06877	0.00269
371.97	4505	0.06997	0.00274
371.97	4500	0.07021	0.00275
371.97	4490	0.07226	0.00281
371.97	4475	0.07322	0.00282
371.97	4465	0.07505	0.00288
371.97	4460	0.07642	0.00293
371.97	4455	0.07787	0.00297
371.97	4450	0.08092	0.00307
371.97	4445	0.08423	0.00317
371.97	4440	0.08782	0.00329
371.97	4435	0.09161	0.00342
371.97	4430	0.09369	0.00349
371.97	4425	0.09676	0.00358
371.97	4420	0.09965	0.00368
371.97	4418	0.10013	0.0037
371.97	4416	0.10013	0.0037
371.97	4414	0.09999	0.00369
371.97	4412	0.09961	0.00368
371.97	4410	0.09918	0.00367
371.97	4408	0.09854	0.00366
371.97	4406	0.09807	0.00364
371.97	4404	0.09739	0.00363
371.97	4402	0.09604	0.00359
371.97	4400	0.09429	0.00353
371.97	4398	0.09312	0.00351
371.97	4396	0.09177	0.00347
371.97	4394	0.08968	0.0034
371.97	4392	0.08774	0.00334
371.97	4390	0.08662	0.0033
371.97	4388	0.08481	0.00326
371.97	4386	0.08308	0.00321
371.97	4384	0.08174	0.00318
371.97	4382	0.07986	0.00312
371.97	4380	0.07923	0.00311
371.97	4378	0.07749	0.00309
371.97	4374	0.07488	0.00301
371.97	4370	0.07274	0.00298
371.97	4368	0.07149	0.00296
371.97	4366	0.07025	0.00292
371.97	4362	0.0676	0.00277
371.97	4354	0.06361	0.00273
371.97	4348	0.06124	0.00277
371.97	4342	0.05915	0.00281
371.97	4336	0.05724	0.00272
371.97	4324	0.05459	0.00244
371.97	4312	0.05267	0.00228
371.97	4294	0.05055	0.00212
371.97	4286	0.04983	0.00208
371.97	3803	0.03783	0.00168
371.97	3701	0.03655	0.00164
371.97	3070	0.03313	0.00154
371.97	3025	0.03301	0.00154
373.2	11900	0.07818	0.00296
373.2	10500	0.0764	0.00291
373.2	8900	0.0735	0.00281
373.2	7780	0.07152	0.00275
373.2	7400	0.07086	0.00273
373.2	6700	0.06932	0.00268
373.2	6300	0.06878	0.00266
373.2	5540	0.06698	0.0026
373.2	5100	0.06615	0.00258
373.2	4900	0.06613	0.00258
373.2	4740	0.06707	0.00261
373.2	4680	0.06797	0.00264
373.2	4660	0.06887	0.00267
373.2	4640	0.06975	0.0027
373.2	4610	0.07119	0.00275
373.2	4605	0.07168	0.00278
373.2	4590	0.0724	0.0028
373.2	4574	0.0745	0.00286
373.2	4568	0.07532	0.00289
373.2	4564	0.07643	0.00292
373.2	4556	0.07815	0.00298
373.2	4550	0.07994	0.00303
373.2	4544	0.08185	0.00309
373.2	4536	0.08417	0.00316
373.2	4530	0.08552	0.00321
373.2	4524	0.08658	0.00324
373.2	4518	0.08768	0.00327
373.2	4510	0.0873	0.00326
373.2	4508	0.08693	0.00325
373.2	4506	0.08685	0.00325
373.2	4504	0.08656	0.00324
373.2	4502	0.08638	0.00323
373.2	4500	0.0862	0.00323
373.2	4498	0.08584	0.00322
373.2	4496	0.08547	0.00321
373.2	4494	0.08512	0.0032
373.2	4486	0.08306	0.00314
373.2	4484	0.0824	0.00312
373.2	4482	0.08175	0.00311
373.2	4476	0.07958	0.00304
373.2	4470	0.07719	0.00296
373.2	4466	0.07545	0.00291
373.2	4462	0.07388	0.00287
373.2	4452	0.07037	0.00278
373.2	4450	0.06964	0.00276
373.2	4444	0.06754	0.00271
373.2	4436	0.06499	0.00269
373.2	4428	0.0626	0.00262
373.2	4416	0.05996	0.00263
373.2	4404	0.05788	0.00256
373.2	4384	0.05498	0.00233
373.2	4346	0.05156	0.00213
373.2	4270	0.04756	0.00199
373.2	4230	0.04611	0.00194
373.2	4150	0.04361	0.00186
373.2	4060	0.04149	0.0018
373.2	4030	0.04085	0.00178
373.2	3820	0.03788	0.00168
373.2	3780	0.03746	0.00167
373.2	3450	0.03488	0.00159
373.2	3103	0.03319	0.00154
374.28	6760	0.06867	0.00266
374.28	6323	0.06829	0.00265
374.28	5798	0.06707	0.00261
374.28	5500	0.06645	0.00259
374.28	5200	0.06584	0.00257
374.28	5000	0.06603	0.00257
374.28	4900	0.06693	0.0026
374.28	4820	0.06778	0.00263
374.28	4780	0.06868	0.00266
374.28	4760	0.06909	0.00267
374.28	4740	0.06979	0.0027
374.28	4720	0.07026	0.00271
374.28	4710	0.07096	0.00273
374.28	4685	0.0724	0.00279
374.28	4670	0.07334	0.00282
374.28	4650	0.07477	0.00286
374.28	4640	0.07599	0.0029
374.28	4630	0.07755	0.00295
374.28	4625	0.07854	0.00298
374.28	4620	0.07961	0.00301
374.28	4615	0.08036	0.00304
374.28	4610	0.08117	0.00306
374.28	4605	0.0816	0.00308
374.28	4600	0.08148	0.00307
374.28	4595	0.08112	0.00306
374.28	4590	0.08076	0.00305
374.28	4585	0.08016	0.00303
374.28	4580	0.07954	0.00302
374.28	4575	0.07875	0.003
374.28	4570	0.07786	0.00297
374.28	4565	0.07664	0.00294
374.28	4560	0.07525	0.00289
374.28	4550	0.07267	0.00284
374.28	4545	0.07123	0.00281
374.28	4535	0.06874	0.00275
374.28	4520	0.06551	0.0027
374.28	4518	0.06502	0.00268
374.28	4515	0.06424	0.00266
374.28	4510	0.06324	0.00263
374.28	4485	0.0596	0.00252
374.28	4475	0.05823	0.00243
374.28	4460	0.05626	0.00233
374.28	4450	0.05483	0.00227
374.28	4440	0.05378	0.00223
374.28	4425	0.05238	0.00217
374.28	4380	0.04961	0.00206
374.28	4320	0.04719	0.00198
374.28	4280	0.04558	0.00192
374.28	4200	0.04376	0.00187
374.28	4080	0.0412	0.00179
374.28	3975	0.03918	0.00172
374.28	3945	0.03887	0.00172
374.28	3424	0.03453	0.00158
374.28	3087	0.03271	0.00153
374.28	2900	0.03164	0.00149
375.1	10360	0.075	0.00286
375.1	9700	0.0739	0.00283
375.1	9500	0.07355	0.00281
375.1	8950	0.07271	0.00279
375.1	8020	0.07114	0.00274
375.1	7140	0.06958	0.00269
375.1	6540	0.06846	0.00265
375.1	6480	0.06842	0.00265
375.1	5830	0.06691	0.0026
375.1	5580	0.06644	0.00259
375.1	5322	0.06576	0.00256
375.1	5226	0.06525	0.00255
375.1	5160	0.06529	0.00255
375.1	5140	0.0653	0.00255
375.1	5040	0.06533	0.00255
375.1	4950	0.06533	0.00255
375.1	4920	0.06554	0.00256
375.1	4890	0.06599	0.00257
375.1	4850	0.06676	0.0026
375.1	4800	0.06807	0.00264
375.1	4790	0.06852	0.00265
375.1	4770	0.06965	0.00269
375.1	4750	0.07062	0.00272
375.1	4740	0.07111	0.00274
375.1	4720	0.07261	0.00279
375.1	4710	0.07346	0.00281
375.1	4700	0.07412	0.00283
375.1	4695	0.07466	0.00285
375.1	4685	0.07544	0.00288
375.1	4680	0.07569	0.00289
375.1	4675	0.07597	0.00289
375.1	4670	0.07625	0.00291
375.1	4665	0.07653	0.00291
375.1	4660	0.07639	0.00291
375.1	4655	0.07611	0.00291
375.1	4650	0.07583	0.0029
375.1	4645	0.07542	0.00289
375.1	4640	0.07507	0.00289
375.1	4635	0.07453	0.00287
375.1	4630	0.07371	0.00286
375.1	4625	0.07291	0.00284
375.1	4620	0.07215	0.00283
375.1	4610	0.07049	0.0028
375.1	4605	0.06965	0.00277
375.1	4600	0.06877	0.00275
375.1	4595	0.06795	0.00273
375.1	4590	0.06706	0.0027
375.1	4585	0.06611	0.00267
375.1	4580	0.06509	0.00264
375.1	4575	0.06422	0.00261
375.1	4570	0.06325	0.00258
375.1	4565	0.06257	0.00255
375.1	4560	0.06195	0.00252
375.1	4555	0.06115	0.0025
375.1	4550	0.06052	0.00247
375.1	4545	0.05974	0.00243
375.1	4535	0.05845	0.00238
375.1	4525	0.0572	0.00233
375.1	4520	0.05654	0.0023
375.1	4510	0.05552	0.00227
375.1	4450	0.05149	0.00212
375.1	4400	0.04912	0.00204
375.1	4350	0.04739	0.00198
375.1	4315	0.04587	0.00193
375.1	4300	0.04526	0.00191
375.1	4210	0.04276	0.00184
375.1	3794	0.03755	0.00167
375.1	3790	0.03732	0.00167
375.1	3780	0.03695	0.00166
375.9	13000	0.07845	0.00297
375.9	12000	0.07724	0.00293
375.9	11500	0.0765	0.00291
375.9	11028	0.07597	0.00289
375.9	11000	0.07591	0.00289
375.9	10000	0.07439	0.00284
375.9	9806	0.07405	0.00283
375.9	9190	0.07314	0.0028
375.9	9000	0.07288	0.00279
375.9	8500	0.072	0.00276
375.9	7800	0.07056	0.00272
375.9	7200	0.0696	0.00269
375.9	6800	0.06884	0.00266
375.9	6200	0.06746	0.00262
375.9	6000	0.06714	0.00261
375.9	5900	0.06696	0.0026
375.9	5820	0.06682	0.0026
375.9	5700	0.06671	0.00259
375.9	5550	0.06631	0.00258
375.9	5500	0.06634	0.00258
375.9	5250	0.06588	0.00257
375.9	5200	0.06603	0.00257
375.9	5100	0.0662	0.00258
375.9	5050	0.06621	0.00258
375.9	4950	0.06708	0.00261
375.9	4880	0.06835	0.00265
375.9	4840	0.06936	0.00268
375.9	4820	0.06995	0.0027
375.9	4800	0.0705	0.00272
375.9	4780	0.07106	0.00273
375.9	4760	0.07206	0.00277
375.9	4740	0.07257	0.00278
375.9	4720	0.07283	0.00279
375.9	4700	0.07156	0.00276
375.9	4690	0.07058	0.00273
375.9	4680	0.06967	0.00272
375.9	4670	0.06835	0.0027
375.9	4660	0.06701	0.00268
375.9	4650	0.06572	0.00265
375.9	4640	0.06448	0.00261
375.9	4630	0.06278	0.00256
375.9	4620	0.06128	0.00251
375.9	4600	0.05949	0.00243
375.9	4590	0.05826	0.00239
375.9	4580	0.05714	0.00234
375.9	4570	0.05607	0.0023
375.9	4560	0.05503	0.00226
375.9	4540	0.0535	0.0022
375.9	4510	0.05175	0.00213
375.9	4450	0.04877	0.00203
375.9	4400	0.04729	0.00198
375.9	4350	0.04589	0.00193
375.9	4250	0.04345	0.00186
375.9	4125	0.04091	0.00178
375.9	4050	0.03986	0.00175
375.9	4000	0.03934	0.00173
375.9	3800	0.03747	0.00167
375.9	3600	0.03595	0.00163
375.9	3550	0.03563	0.00162
375.9	3300	0.03433	0.00158
375.9	3250	0.03412	0.00157
375.9	3134	0.0338	0.00156
375.9	3110	0.03373	0.00156
381	14750	0.07855	0.00298
381	12000	0.07531	0.00287
381	11000	0.07371	0.00282
381	10110	0.07235	0.00278
381	9036	0.07035	0.00271
381	7583	0.06767	0.00263
381	7300	0.06714	0.00261
381	7162	0.06699	0.0026
381	6900	0.0664	0.00258
381	6500	0.06554	0.00256
381	6200	0.06503	0.00254
381	5900	0.06423	0.00251
381	5700	0.06435	0.00252
381	5550	0.06436	0.00252
381	5450	0.06435	0.00252
381	5390	0.06427	0.00252
381	5350	0.06439	0.00252
381	5300	0.06444	0.00252
381	5250	0.06475	0.00253
381	5200	0.06448	0.00252
381	5150	0.06448	0.00252
381	5100	0.06374	0.0025
381	5060	0.06268	0.00246
381	5040	0.06198	0.00244
381	5020	0.06124	0.00242
381	5000	0.06046	0.00239
381	4960	0.05866	0.00234
381	4920	0.05685	0.00228
381	4900	0.05594	0.00225
381	4880	0.05506	0.00223
381	4860	0.05418	0.0022
381	4800	0.05187	0.00213
381	4780	0.05126	0.00211
381	4740	0.04988	0.00207
381	4660	0.04756	0.00199
381	4600	0.04618	0.00195
381	4560	0.04539	0.00192
381	4520	0.04459	0.00189
381	4220	0.04027	0.00176
381	4100	0.0389	0.00172
381	4040	0.03825	0.0017
381	3880	0.03705	0.00166
381	3820	0.03665	0.00165
381	3580	0.03558	0.00161
381	3428	0.03498	0.0016
381	3320	0.03451	0.00158
381	3260	0.03429	0.00157
381	3253	0.03426	0.00157
