Measured thermophysical data. Measurement of CO2 Solubility in NaCl Brine Solutions at Different Temperatures and Pressures Using the Potentiometric Titration Method
Source: J. Chem. Eng. Data, 2015, 10.1021/je501172d
Compound 1: carbon dioxide, CO2, InChI=1S/CO2/c2-1-3
Compound 2: water, H2O, InChI=1S/H2O/h1H2
Compound 3: sodium chloride, ClNa, InChI=1S/ClH.Na/h1H;/q;+1/p-1

System: carbon dioxide + water; phases: Liquid, Gas
Property: Molality, mol/kg of carbon dioxide (Liquid); method: potentiometric titration
Pressure, kPa	Temperature, K	Molality, mol/kg of carbon dioxide	uncertainty
100	333.15	0.014	0.014
2100	333.15	0.315	0.05
4100	333.15	0.572	0.05
8300	333.15	0.929	0.05
10300	333.15	1.04	0.05
13800	333.15	1.144	0.05
15800	333.15	1.174	0.05
17200	333.15	1.193	0.05
19300	333.15	1.221	0.05
100	353.15	0.007	0.007
2100	353.15	0.245	0.05
4100	353.15	0.455	0.05
6200	353.15	0.63	0.05
8300	353.15	0.75	0.05
10300	353.15	0.884	0.05
13800	353.15	1.007	0.05
15800	353.15	1.077	0.05
17200	353.15	1.097	0.05
19300	353.15	1.14	0.05
21300	353.15	1.17	0.05

System: carbon dioxide + sodium chloride + water; phases: Liquid, Gas
Property: Molality, mol/kg of carbon dioxide (Liquid); method: potentiometric titration
Pressure, kPa	Temperature, K	Solvent: Molality, mol/kg of sodium chloride	Molality, mol/kg of carbon dioxide	uncertainty
100	333.15	0.0172	0.007	0.009
2100	333.15	0.0172	0.25	0.05
8300	333.15	0.0172	0.924	0.05
10300	333.15	0.0172	1.037	0.05
13800	333.15	0.0172	1.14	0.05
17200	333.15	0.0172	1.189	0.05
19300	333.15	0.0172	1.216	0.05
21300	333.15	0.0172	1.225	0.05
100	333.15	0.172	0.006	0.008
2100	333.15	0.172	0.238	0.05
4100	333.15	0.172	0.549	0.05
6200	333.15	0.172	0.722	0.05
8300	333.15	0.172	0.866	0.05
13800	333.15	0.172	1.104	0.05
15800	333.15	0.172	1.111	0.05
17200	333.15	0.172	1.151	0.05
19300	333.15	0.172	1.174	0.05
21300	333.15	0.172	1.188	0.05
100	333.15	0.258	0.004	0.006
2100	333.15	0.258	0.201	0.05
4100	333.15	0.258	0.53	0.05
6200	333.15	0.258	0.674	0.05
8300	333.15	0.258	0.74	0.05
13800	333.15	0.258	0.998	0.007
15800	333.15	0.258	1.009	0.05
17200	333.15	0.258	1.011	0.05
21300	333.15	0.258	1.161	0.05
100	353.15	0.0172	0.004	0.006
2100	353.15	0.0172	0.225	0.05
4100	353.15	0.0172	0.402	0.05
8300	353.15	0.0172	0.71	0.05
10300	353.15	0.0172	0.831	0.05
13800	353.15	0.0172	0.973	0.027
15800	353.15	0.0172	1.04	0.05
17200	353.15	0.0172	1.059	0.05
21300	353.15	0.0172	1.147	0.05
100	353.15	0.172	0.004	0.006
2100	353.15	0.172	0.215	0.05
4100	353.15	0.172	0.394	0.05
8300	353.15	0.172	0.694	0.05
13800	353.15	0.172	0.961	0.039
17200	353.15	0.172	1.041	0.05
21300	353.15	0.172	1.112	0.05
100	353.15	0.258	0.002	0.004
2100	353.15	0.258	0.184	0.05
4100	353.15	0.258	0.38	0.05
8300	353.15	0.258	0.657	0.05
10300	353.15	0.258	0.766	0.05
15800	353.15	0.258	1.019	0.05
