Measured thermophysical data. Synthesis and physicochemical properties of two SO3Hfunctionalized ionic liquids with hydrogen sulfate anion
Source: J. Chem. Eng. Data, 2014, 10.1021/je5001507
Compound 1: N-isobutyl-3-sulfopropan-1-aminium hydrogen sulfate, C7H19NO7S2, InChI=1S/C7H17NO3S.H2O4S/c1-7(2)6-8-4-3-5-12(9,10)11;1-5(2,3)4/h7-8H,3-6H2,1-2H3,(H,9,10,11);(H2,1,2,3,4), purity 97%
Compound 2: N-isobutyl-4-sulfobutan-1-aminium hydrogen sulfate, C8H21NO7S2, InChI=1S/C8H19NO3S.H2O4S/c1-8(2)7-9-5-3-4-6-13(10,11)12;1-5(2,3)4/h8-9H,3-7H2,1-2H3,(H,10,11,12);(H2,1,2,3,4), purity 97%

System: N-isobutyl-3-sulfopropan-1-aminium hydrogen sulfate; phases: Liquid
Fixed: Pressure, kPa = 101.325
Property: Mass density, kg/m3 (Liquid); method: Vibrating tube method
Temperature, K	Mass density, kg/m3	uncertainty
293.15	1387.92	4.85
303.15	1383.65	4.82
313.15	1377.6	4.77
323.15	1371.59	4.73
333.15	1365.64	4.69
343.15	1359.71	4.65
353.15	1353.8	4.61
363.15	1347.97	4.57

System: N-isobutyl-3-sulfopropan-1-aminium hydrogen sulfate; phases: Liquid
Fixed: Pressure, kPa = 101.325
Property: Viscosity, Pa*s (Liquid); method: CONCYL:UFactor:3
Temperature, K	Viscosity, Pa*s	uncertainty
308.15	14.383	3.295
313.15	9.083	1.913
318.15	5.533	1.055
323.15	3.833	0.674
328.15	2.867	0.471
333.15	1.983	0.296
338.15	1.333	0.178
343.15	1.033	0.127
348.15	0.7667	0.0854
353.15	0.6167	0.0634
358.15	0.4833	0.045
363.15	0.4167	0.0363
368.15	0.3333	0.0261
373.15	0.2833	0.0204

System: N-isobutyl-3-sulfopropan-1-aminium hydrogen sulfate; phases: Liquid, Air at 1 atmosphere
Property: Surface tension liquid-gas, N/m (Liquid); method: plate method
Temperature, K	Surface tension liquid-gas, N/m	uncertainty
298.15	0.05218	0.00078
303.15	0.05164	0.00077
308.15	0.05114	0.00077
313.15	0.05069	0.00076
318.15	0.05015	0.00075
323.15	0.04958	0.00074
328.15	0.04898	0.00073

System: N-isobutyl-3-sulfopropan-1-aminium hydrogen sulfate; phases: Liquid
Fixed: Pressure, kPa = 101.325
Property: Refractive index (Na D-line) (Liquid); method: Standard Abbe refractometry
Temperature, K	Refractive index (Na D-line)	uncertainty
293.15	1.50559	0.0012
298.15	1.50436	0.0012
303.15	1.50314	0.0012
308.15	1.50205	0.0012
313.15	1.5008	0.0012
318.15	1.49974	0.0012
323.15	1.49851	0.0012
328.15	1.49756	0.0012
333.15	1.4963	0.0012

System: N-isobutyl-3-sulfopropan-1-aminium hydrogen sulfate; phases: Liquid
Fixed: Pressure, kPa = 101.325
Property: Electrical conductivity, S/m (Liquid); method: Alternating current cell with electrodes
Temperature, K	Electrical conductivity, S/m	uncertainty
298.15	0.00856	0.00015
303.15	0.01447	0.00021
308.15	0.0235	0.00032
313.15	0.0367	0.00047
318.15	0.0526	0.00063
323.15	0.0713	0.00088
328.15	0.1039	0.0012
333.15	0.1396	0.0016
338.15	0.1766	0.0019
343.15	0.221	0.0024
348.15	0.28	0.0031
353.15	0.353	0.0038

System: N-isobutyl-4-sulfobutan-1-aminium hydrogen sulfate; phases: Liquid
Fixed: Pressure, kPa = 101.325
Property: Mass density, kg/m3 (Liquid); method: Vibrating tube method
Temperature, K	Mass density, kg/m3	uncertainty
293.15	1359.08	4.64
303.15	1353.21	4.6
313.15	1347.39	4.56
323.15	1341.63	4.52
333.15	1335.95	4.48
343.15	1330.29	4.44
353.15	1324.66	4.4
363.15	1319.09	4.37

System: N-isobutyl-4-sulfobutan-1-aminium hydrogen sulfate; phases: Liquid
Fixed: Pressure, kPa = 101.325
Property: Viscosity, Pa*s (Liquid); method: CONCYL:UFactor:3
Temperature, K	Viscosity, Pa*s	uncertainty
298.15	14.433	3.308
303.15	9.45	2.005
308.15	6.033	1.171
313.15	4.267	0.769
318.15	2.967	0.491
323.15	2.117	0.322
328.15	1.55	0.216
333.15	1.033	0.127
338.15	0.7667	0.0854
343.15	0.6333	0.0657
348.15	0.4833	0.045
353.15	0.3833	0.0321
358.15	0.3167	0.0242
363.15	0.2667	0.0186
368.15	0.2	0.0117
373.15	0.1667	0.0085

System: N-isobutyl-4-sulfobutan-1-aminium hydrogen sulfate; phases: Liquid, Air at 1 atmosphere
Property: Surface tension liquid-gas, N/m (Liquid); method: plate method
Temperature, K	Surface tension liquid-gas, N/m	uncertainty
298.15	0.04715	0.00071
303.15	0.04679	0.0007
308.15	0.04648	0.0007
313.15	0.04612	0.00069
318.15	0.04574	0.00069
323.15	0.0453	0.00068
328.15	0.04493	0.00067

System: N-isobutyl-4-sulfobutan-1-aminium hydrogen sulfate; phases: Liquid
Fixed: Pressure, kPa = 101.325
Property: Refractive index (Na D-line) (Liquid); method: Standard Abbe refractometry
Temperature, K	Refractive index (Na D-line)	uncertainty
293.15	1.48143	0.0012
298.15	1.4803	0.0012
303.15	1.47918	0.0012
308.15	1.47804	0.0012
313.15	1.47689	0.0012
318.15	1.47576	0.0012
323.15	1.47461	0.0012
328.15	1.4734	0.0012
333.15	1.47212	0.0012

System: N-isobutyl-4-sulfobutan-1-aminium hydrogen sulfate; phases: Liquid
Fixed: Pressure, kPa = 101.325
Property: Electrical conductivity, S/m (Liquid); method: Alternating current cell with electrodes
Temperature, K	Electrical conductivity, S/m	uncertainty
298.15	0.593	0.007
303.15	0.757	0.009
308.15	1.045	0.012
313.15	1.317	0.015
318.15	1.653	0.019
323.15	2.16	0.023
328.15	2.53	0.027
333.15	3.01	0.032
338.15	3.67	0.039
343.15	4.29	0.045
348.15	4.96	0.051
353.15	5.61	0.058
