Measured thermophysical data. Experimental Determination of Phase Equilibrium in Aqueous Two-Phase Systems Containing Ionic Liquids and Sodium Salts at Different Temperatures
Source: J. Chem. Eng. Data, 2015, 10.1021/je501081h
Compound 1: 1-butyl-3-methylpyridinium tetrafluoroborate, C10H16BF4N, InChI=1S/C10H16N.BF4/c1-3-4-7-11-8-5-6-10(2)9-11;2-1(3,4)5/h5-6,8-9H,3-4,7H2,1-2H3;/q+1;-1, purity 99%
Compound 2: sodium dihydrogen phosphate, H2NaO4P, InChI=1S/Na.H3O4P/c;1-5(2,3)4/h;(H3,1,2,3,4)/q+1;/p-1, purity 99%
Compound 3: sodium sulfate, Na2O4S, InChI=1S/2Na.H2O4S/c;;1-5(2,3)4/h;;(H2,1,2,3,4)/q2*+1;/p-2, purity 99%
Compound 4: water, H2O, InChI=1S/H2O/h1H2

System: sodium dihydrogen phosphate + water + 1-butyl-3-methylpyridinium tetrafluoroborate; phases: Liquid mixture 1, Liquid mixture 2
Fixed: Pressure, kPa = 101
Property: Mass fraction of sodium dihydrogen phosphate (Liquid mixture 1); method: Titration method
Temperature, K	Mass fraction of 1-butyl-3-methylpyridinium tetrafluoroborate	Mass fraction of sodium dihydrogen phosphate	uncertainty
310.15	0.7764	0.0021	0.002
310.15	0.7925	0.0022	0.002
310.15	0.7626	0.0026	0.002
310.15	0.7491	0.003	0.002
310.15	0.7236	0.0047	0.002
310.15	0.7075	0.005	0.002
310.15	0.6923	0.0054	0.002
310.15	0.6828	0.0057	0.002
310.15	0.6661	0.006	0.002
310.15	0.6502	0.0067	0.002
310.15	0.6335	0.0074	0.002
310.15	0.6157	0.009	0.002
310.15	0.5907	0.0105	0.002
310.15	0.5672	0.0118	0.002
310.15	0.5512	0.0132	0.002
310.15	0.5345	0.0145	0.002
310.15	0.5227	0.0155	0.0021
310.15	0.511	0.0166	0.0021
310.15	0.5023	0.0175	0.0021
310.15	0.4866	0.0186	0.0021
310.15	0.473	0.0194	0.0021
310.15	0.46	0.0204	0.0021
310.15	0.4515	0.0213	0.0021
310.15	0.4427	0.0221	0.0021
310.15	0.4346	0.0231	0.0021
310.15	0.4278	0.0239	0.0021
310.15	0.422	0.0246	0.0021
310.15	0.4178	0.0253	0.0021
310.15	0.4104	0.026	0.0021
310.15	0.4044	0.0268	0.0022
310.15	0.3985	0.0276	0.0022
310.15	0.3919	0.0283	0.0022
310.15	0.3856	0.0289	0.0022
310.15	0.3792	0.0295	0.0022
310.15	0.3741	0.0301	0.0022
310.15	0.3682	0.0307	0.0022
310.15	0.3646	0.0314	0.0022
310.15	0.3599	0.032	0.0022
310.15	0.3551	0.0327	0.0022
310.15	0.3506	0.0334	0.0023
310.15	0.3449	0.0349	0.0023
310.15	0.3379	0.0361	0.0023
310.15	0.3331	0.0365	0.0023
310.15	0.3309	0.0375	0.0023
310.15	0.3271	0.038	0.0023
310.15	0.3228	0.0391	0.0023
310.15	0.3183	0.0395	0.0023
310.15	0.3155	0.0405	0.0024
310.15	0.3128	0.0412	0.0024
310.15	0.3073	0.0426	0.0024
310.15	0.3009	0.0434	0.0024
310.15	0.2972	0.0447	0.0024
310.15	0.2926	0.0456	0.0024
310.15	0.2886	0.0467	0.0025
310.15	0.2849	0.0477	0.0025
310.15	0.2809	0.0491	0.0025
310.15	0.2754	0.0503	0.0025
310.15	0.2722	0.0511	0.0025
310.15	0.2691	0.052	0.0026
310.15	0.2651	0.0534	0.0026
310.15	0.2619	0.0543	0.0026
310.15	0.2588	0.0553	0.0026
310.15	0.2563	0.0563	0.0026
310.15	0.2522	0.0576	0.0027
310.15	0.2498	0.0585	0.0027
310.15	0.2474	0.0594	0.0027
310.15	0.2451	0.0603	0.0027
310.15	0.2434	0.0606	0.0027
310.15	0.2424	0.061	0.0027
310.15	0.2412	0.0615	0.0027
310.15	0.2369	0.0624	0.0027
310.15	0.2342	0.0631	0.0028
310.15	0.2332	0.0635	0.0028
310.15	0.2322	0.0639	0.0028
310.15	0.23	0.0648	0.0029
310.15	0.228	0.0657	0.0029
310.15	0.2258	0.0667	0.0029
310.15	0.224	0.0674	0.0029
310.15	0.2216	0.0687	0.0029
310.15	0.2197	0.0695	0.003
310.15	0.2171	0.0706	0.003
310.15	0.2155	0.0712	0.0031
310.15	0.2135	0.0722	0.0031
310.15	0.2096	0.0751	0.0031
310.15	0.2036	0.078	0.0031
310.15	0.1993	0.0799	0.0032
310.15	0.1948	0.0832	0.0033
310.15	0.1892	0.0859	0.0033
310.15	0.1866	0.0874	0.0034
310.15	0.1837	0.0894	0.0035
310.15	0.1805	0.0915	0.0035
310.15	0.1779	0.0931	0.0036
310.15	0.1762	0.0941	0.0036
310.15	0.1732	0.0962	0.0037
310.15	0.1709	0.098	0.0037
310.15	0.1687	0.0995	0.0037
310.15	0.1665	0.1009	0.0037
310.15	0.1639	0.1027	0.0038
310.15	0.1621	0.1039	0.0038
310.15	0.1593	0.1062	0.004
310.15	0.1554	0.11	0.0041
310.15	0.1525	0.1119	0.004
310.15	0.1509	0.1128	0.004
310.15	0.1479	0.1156	0.0043
310.15	0.1448	0.1187	0.0043
310.15	0.142	0.121	0.0043
310.15	0.1391	0.1236	0.0044
310.15	0.1366	0.126	0.0046
310.15	0.1335	0.1292	0.0046
310.15	0.1293	0.1335	0.0048
310.15	0.1237	0.14	0.005
310.15	0.119	0.1449	0.0051
310.15	0.1127	0.1522	0.0053
318.15	0.79	0.0031	0.002
318.15	0.725	0.0043	0.002
318.15	0.6974	0.006	0.002
318.15	0.6788	0.0066	0.002
318.15	0.6542	0.008	0.002
318.15	0.6371	0.0086	0.002
318.15	0.6258	0.0091	0.002
318.15	0.6143	0.0098	0.002
318.15	0.5987	0.0103	0.002
318.15	0.5877	0.0109	0.002
318.15	0.5776	0.0116	0.002
318.15	0.567	0.0122	0.002
318.15	0.5576	0.0127	0.0021
318.15	0.5481	0.0133	0.0021
318.15	0.5343	0.0145	0.0021
318.15	0.5258	0.0149	0.0021
318.15	0.5145	0.0158	0.0021
318.15	0.5007	0.017	0.0021
318.15	0.4922	0.0177	0.0021
318.15	0.4821	0.0185	0.0021
318.15	0.472	0.0194	0.0021
318.15	0.4623	0.0201	0.0021
318.15	0.456	0.0211	0.0021
318.15	0.4418	0.0221	0.0021
318.15	0.4307	0.0231	0.0021
318.15	0.4202	0.0242	0.0021
318.15	0.41	0.0253	0.0021
318.15	0.4007	0.0263	0.0022
318.15	0.3916	0.0272	0.0022
318.15	0.3829	0.0281	0.0022
318.15	0.375	0.029	0.0022
318.15	0.3703	0.0298	0.0023
318.15	0.3653	0.0307	0.0022
318.15	0.3588	0.0319	0.0022
318.15	0.3539	0.0327	0.0022
318.15	0.3484	0.0337	0.0022
318.15	0.3415	0.0345	0.0022
318.15	0.3349	0.0351	0.0023
318.15	0.3298	0.0362	0.0023
318.15	0.3231	0.0369	0.0023
318.15	0.3161	0.0384	0.0023
318.15	0.3067	0.0387	0.0023
318.15	0.3015	0.0395	0.0023
318.15	0.2963	0.0402	0.0023
318.15	0.2908	0.0409	0.0023
318.15	0.2865	0.0414	0.0023
318.15	0.2821	0.0421	0.0024
318.15	0.2764	0.0436	0.0024
318.15	0.2722	0.0444	0.0024
318.15	0.2667	0.0455	0.0028
318.15	0.2636	0.0465	0.0025
318.15	0.2592	0.0473	0.0025
318.15	0.2564	0.0477	0.0027
318.15	0.2536	0.0484	0.0031
318.15	0.2511	0.049	0.0026
318.15	0.2466	0.0495	0.0025
318.15	0.2411	0.0501	0.0025
318.15	0.2394	0.0506	0.0026
318.15	0.2339	0.0518	0.0025
318.15	0.2373	0.0512	0.0026
318.15	0.2311	0.0521	0.0025
318.15	0.2288	0.0527	0.0034
318.15	0.2266	0.0533	0.0025
318.15	0.2247	0.0537	0.0028
318.15	0.2227	0.0542	0.0026
318.15	0.2209	0.0552	0.0026
318.15	0.2183	0.0555	0.0027
318.15	0.2169	0.0562	0.0027
318.15	0.2148	0.0566	0.0026
318.15	0.2135	0.0572	0.0026
318.15	0.2121	0.0578	0.0028
318.15	0.2101	0.0583	0.0026
318.15	0.2093	0.0585	0.0027
318.15	0.2082	0.0596	0.0026
318.15	0.2052	0.0603	0.0032
318.15	0.2032	0.0609	0.0029
318.15	0.2017	0.0616	0.0031
318.15	0.2001	0.0621	0.0034
318.15	0.199	0.0626	0.0028
318.15	0.1974	0.063	0.0028
318.15	0.1955	0.0642	0.0027
318.15	0.1917	0.0654	0.005
318.15	0.1896	0.0664	0.0032
318.15	0.1874	0.0676	0.0032
318.15	0.1849	0.0683	0.0039
318.15	0.1837	0.0689	0.0033
318.15	0.1816	0.0701	0.003
318.15	0.1807	0.0704	0.0029
318.15	0.1797	0.0712	0.0028
318.15	0.1768	0.0725	0.0039
318.15	0.175	0.0731	0.0031
318.15	0.1742	0.0736	0.003
318.15	0.1723	0.0745	0.003
318.15	0.1703	0.0752	0.0031
318.15	0.1688	0.0758	0.0031
318.15	0.1675	0.0766	0.0053
318.15	0.1652	0.0777	0.0047
318.15	0.1639	0.0782	0.0032
318.15	0.163	0.0787	0.0038
318.15	0.16	0.0795	0.0032
318.15	0.1604	0.0803	0.0044
318.15	0.1581	0.0816	0.0032
318.15	0.1566	0.0824	0.0043
318.15	0.156	0.0826	0.0033
318.15	0.1548	0.0835	0.0032
318.15	0.153	0.0846	0.004
318.15	0.1494	0.0859	0.0031
318.15	0.1508	0.086	0.0035
318.15	0.1484	0.0874	0.0032
318.15	0.1461	0.0889	0.0033
318.15	0.1451	0.0889	0.0051
318.15	0.1445	0.0898	0.0036
318.15	0.1429	0.0909	0.0051
318.15	0.1414	0.0917	0.0033
318.15	0.141	0.0922	0.0033
318.15	0.1401	0.0926	0.0042
318.15	0.1386	0.0936	0.0045
318.15	0.137	0.0948	0.0035
318.15	0.1364	0.0951	0.0035
318.15	0.135	0.0961	0.0058
318.15	0.1328	0.0977	0.0034
318.15	0.1308	0.0991	0.0053
318.15	0.1286	0.1012	0.0038
318.15	0.1268	0.1022	0.0036
318.15	0.1248	0.1041	0.0056
318.15	0.1226	0.1058	0.004
318.15	0.1197	0.1086	0.0052
318.15	0.1174	0.1108	0.0045
318.15	0.1137	0.1127	0.004
318.15	0.1106	0.1149	0.004
318.15	0.1072	0.1175	0.0051
318.15	0.1043	0.12	0.0054
318.15	0.1013	0.1227	0.0053
318.15	0.0992	0.1249	0.0048
318.15	0.096	0.1275	0.0046
318.15	0.0949	0.1292	0.0043
318.15	0.0935	0.1308	0.0044
318.15	0.091	0.1339	0.0044
318.15	0.0876	0.1376	0.0044
318.15	0.0837	0.1416	0.0045
318.15	0.0817	0.1441	0.0045
318.15	0.0795	0.1473	0.0046
318.15	0.0782	0.1486	0.0047
318.15	0.0757	0.1523	0.0048
327.15	0.7894	0.0034	0.002
327.15	0.701	0.0077	0.002
327.15	0.654	0.0119	0.002
327.15	0.5214	0.0202	0.0021
327.15	0.4602	0.0251	0.0021
327.15	0.4437	0.0269	0.0022
327.15	0.4283	0.0287	0.0022
327.15	0.4198	0.0299	0.0022
327.15	0.4084	0.0312	0.0022
327.15	0.4007	0.0324	0.0022
327.15	0.3902	0.0337	0.0022
327.15	0.3819	0.0352	0.0023
327.15	0.3754	0.0362	0.0023
327.15	0.367	0.0375	0.0023
327.15	0.3593	0.0386	0.0023
327.15	0.3521	0.0397	0.0023
327.15	0.3458	0.0408	0.0023
327.15	0.3418	0.0416	0.0023
327.15	0.3364	0.0424	0.0024
327.15	0.3324	0.0433	0.0024
327.15	0.3291	0.0441	0.0024
327.15	0.3251	0.0448	0.0024
327.15	0.3201	0.0456	0.0024
327.15	0.3142	0.0466	0.0024
327.15	0.3118	0.0472	0.0025
327.15	0.3094	0.0479	0.0025
327.15	0.3063	0.0489	0.0025
327.15	0.302	0.0496	0.0025
327.15	0.2977	0.0502	0.0025
327.15	0.294	0.0508	0.0025
327.15	0.2902	0.0514	0.0025
327.15	0.2879	0.0518	0.0025
327.15	0.2842	0.0526	0.0025
327.15	0.2818	0.0532	0.0025
327.15	0.2801	0.0536	0.0026
327.15	0.2776	0.0541	0.0026
327.15	0.2749	0.0548	0.0026
327.15	0.2729	0.0553	0.0026
327.15	0.2707	0.0558	0.0026
327.15	0.2687	0.0563	0.0026
327.15	0.2663	0.0569	0.0026
327.15	0.2642	0.0574	0.0026
327.15	0.2616	0.0581	0.0026
327.15	0.2601	0.0584	0.0026
327.15	0.2583	0.0589	0.0027
327.15	0.2583	0.0594	0.0027
327.15	0.2553	0.0597	0.0027
327.15	0.2534	0.0601	0.0027
327.15	0.2522	0.0605	0.0027
327.15	0.2509	0.061	0.0027
327.15	0.2493	0.0614	0.0027
327.15	0.2476	0.0618	0.0027
327.15	0.2463	0.0623	0.0027
327.15	0.2448	0.0627	0.0027
327.15	0.2432	0.0631	0.0027
327.15	0.2412	0.0635	0.0027
327.15	0.2394	0.0643	0.0028
327.15	0.2365	0.065	0.0028
327.15	0.2339	0.0658	0.0028
327.15	0.2306	0.0667	0.0028
327.15	0.2285	0.0672	0.0028
327.15	0.2269	0.0678	0.0028
327.15	0.2245	0.0684	0.0028
327.15	0.2234	0.0689	0.0029
327.15	0.2221	0.0692	0.0029
327.15	0.2212	0.0695	0.0029
327.15	0.2199	0.0699	0.0029
327.15	0.2184	0.0704	0.0029
327.15	0.2174	0.0706	0.0029
327.15	0.2159	0.0711	0.0029
327.15	0.214	0.0716	0.0029
327.15	0.2121	0.0723	0.0029
327.15	0.2102	0.073	0.003
327.15	0.2079	0.0738	0.003
327.15	0.2051	0.0746	0.003
327.15	0.2031	0.0753	0.003
327.15	0.2	0.0763	0.003
327.15	0.1989	0.0767	0.003
327.15	0.1968	0.0775	0.003
327.15	0.1932	0.0787	0.0031
327.15	0.1915	0.0793	0.0031
327.15	0.1897	0.08	0.0031
327.15	0.1876	0.0808	0.0031
327.15	0.1862	0.0813	0.0031
327.15	0.184	0.082	0.0031
327.15	0.1834	0.0822	0.0031
327.15	0.181	0.083	0.0032
327.15	0.1781	0.0842	0.0032
327.15	0.1763	0.0849	0.0032
327.15	0.1745	0.0855	0.0032
327.15	0.1735	0.086	0.0033
327.15	0.1722	0.0863	0.0033
327.15	0.1704	0.0873	0.0033
327.15	0.1688	0.0878	0.0033
327.15	0.1665	0.0887	0.0033
327.15	0.1638	0.0899	0.0033
327.15	0.1607	0.0911	0.0034
327.15	0.1578	0.0925	0.0034
327.15	0.156	0.0932	0.0034
327.15	0.1534	0.0943	0.0034
327.15	0.152	0.0948	0.0035
327.15	0.1494	0.096	0.0035
327.15	0.1472	0.097	0.0035
327.15	0.1442	0.0981	0.0035
327.15	0.142	0.0991	0.0036
327.15	0.14	0.1001	0.0036
327.15	0.1373	0.1012	0.0036
327.15	0.1348	0.1025	0.0037
327.15	0.1359	0.1021	0.0037
327.15	0.1327	0.1038	0.0038
327.15	0.1315	0.1048	0.0038
327.15	0.1303	0.1055	0.0038
327.15	0.1295	0.1061	0.0038
327.15	0.1277	0.107	0.0039
327.15	0.1265	0.1076	0.0039
327.15	0.1248	0.1091	0.0039
327.15	0.1231	0.1102	0.004
327.15	0.1216	0.1111	0.004
327.15	0.1199	0.1124	0.0039
327.15	0.1182	0.1135	0.0039
327.15	0.115	0.1147	0.0039
327.15	0.1105	0.1168	0.004
327.15	0.1076	0.1181	0.004
327.15	0.1062	0.1188	0.004
327.15	0.1041	0.1199	0.0041
327.15	0.1015	0.1215	0.0041
327.15	0.099	0.1229	0.0042
327.15	0.0956	0.1248	0.0042
327.15	0.093	0.1262	0.0043
327.15	0.0911	0.1275	0.0043
327.15	0.0888	0.1293	0.0044
327.15	0.0865	0.131	0.0044
327.15	0.0843	0.1325	0.0045
327.15	0.0823	0.134	0.0045
327.15	0.0791	0.136	0.0046
327.15	0.0763	0.1384	0.0047
327.15	0.0723	0.1413	0.0047
327.15	0.0683	0.1443	0.0048
327.15	0.0635	0.1475	0.0049
327.15	0.0596	0.1509	0.005
327.15	0.0127	0.2225	0.0075

System: sodium dihydrogen phosphate + water + 1-butyl-3-methylpyridinium tetrafluoroborate; phases: Liquid mixture 2, Liquid mixture 1
Fixed: Pressure, kPa = 101
Property: Mass fraction of sodium dihydrogen phosphate (Liquid mixture 2); method: OTHER
Temperature, K	Mass fraction of 1-butyl-3-methylpyridinium tetrafluoroborate	Mass fraction of sodium dihydrogen phosphate	uncertainty
310.15	0.8356	0.0016	0.0016
318.15	0.7425	0.005	0.002
318.15	0.6341	0.0087	0.002
310.15	0.5137	0.0149	0.002
318.15	0.8341	0.003	0.002
327.15	0.6889	0.0081	0.002
327.15	0.7491	0.0058	0.002
327.15	0.7724	0.005	0.002
327.15	0.7284	0.0065	0.002
327.15	0.7725	0.005	0.002
327.15	0.8397	0.0033	0.002
310.15	0.8338	0.0017	0.0017
327.15	0.65	0.0099	0.002
327.15	0.6661	0.0091	0.002
327.15	0.6614	0.0093	0.002
310.15	0.7823	0.0027	0.002
327.15	0.6993	0.0076	0.002
310.15	0.5879	0.0099	0.002
310.15	0.7551	0.0033	0.002
310.15	0.6983	0.005	0.002
310.15	0.7063	0.0047	0.002
310.15	0.725	0.0041	0.002
318.15	0.7714	0.0043	0.002
310.15	0.7519	0.0034	0.002
318.15	0.6608	0.0076	0.002
318.15	0.6019	0.0101	0.002
318.15	0.6709	0.0072	0.002
318.15	0.7313	0.0053	0.002
318.15	0.7149	0.0058	0.002
318.15	0.7965	0.0037	0.002

System: sodium dihydrogen phosphate + water + 1-butyl-3-methylpyridinium tetrafluoroborate; phases: Liquid mixture 1, Liquid mixture 2
Fixed: Pressure, kPa = 101
Property: Mass fraction of sodium dihydrogen phosphate (Liquid mixture 1); method: OTHER
Temperature, K	Mass fraction of 1-butyl-3-methylpyridinium tetrafluoroborate	Mass fraction of sodium dihydrogen phosphate	uncertainty
310.15	0.1478	0.1141	0.0035
318.15	0.1676	0.0781	0.0028
318.15	0.205	0.0634	0.0025
310.15	0.2584	0.0565	0.0024
318.15	0.1426	0.0908	0.003
327.15	0.0318	0.1745	0.0049
327.15	0.0207	0.1902	0.0056
327.15	0.0178	0.1952	0.0064
327.15	0.0246	0.1841	0.0053
327.15	0.0178	0.1953	0.0064
327.15	0.0095	0.2147	0.0069
310.15	0.1477	0.1141	0.0035
327.15	0.0402	0.1652	0.0046
327.15	0.0354	0.1703	0.0047
327.15	0.0391	0.1664	0.0046
310.15	0.1597	0.1044	0.0034
327.15	0.0285	0.1788	0.0051
310.15	0.2221	0.0696	0.0026
310.15	0.1663	0.0995	0.0032
310.15	0.1821	0.0894	0.003
310.15	0.18	0.0906	0.003
310.15	0.1747	0.094	0.0031
318.15	0.159	0.0822	0.0028
310.15	0.1668	0.0992	0.0032
318.15	0.1956	0.0667	0.0026
318.15	0.2187	0.059	0.0024
318.15	0.1919	0.0681	0.0026
318.15	0.1712	0.0765	0.0027
318.15	0.1766	0.0742	0.0027
318.15	0.1524	0.0855	0.0029

System: water + sodium sulfate + 1-butyl-3-methylpyridinium tetrafluoroborate; phases: Liquid mixture 1, Liquid mixture 2
Fixed: Pressure, kPa = 101
Property: Mass fraction of sodium sulfate (Liquid mixture 1); method: Titration method
Temperature, K	Mass fraction of 1-butyl-3-methylpyridinium tetrafluoroborate	Mass fraction of sodium sulfate	uncertainty
310.15	0.7683	0.0006	0.0006
310.15	0.7681	0.0006	0.0006
310.15	0.7616	0.001	0.001
310.15	0.7018	0.0016	0.0016
310.15	0.6695	0.003	0.002
310.15	0.6158	0.0038	0.002
310.15	0.572	0.0056	0.002
310.15	0.5275	0.007	0.002
310.15	0.5063	0.0087	0.002
310.15	0.4683	0.01	0.002
310.15	0.4893	0.0092	0.002
310.15	0.4526	0.0113	0.002
310.15	0.4308	0.0125	0.002
310.15	0.4141	0.0133	0.002
310.15	0.3999	0.0145	0.0021
310.15	0.3939	0.0155	0.0021
310.15	0.3857	0.0163	0.0021
310.15	0.3717	0.0171	0.0021
310.15	0.3635	0.0177	0.0021
310.15	0.3542	0.0185	0.0021
310.15	0.348	0.0191	0.0021
310.15	0.3421	0.0198	0.0021
310.15	0.3349	0.0205	0.0021
310.15	0.327	0.0212	0.0021
310.15	0.3215	0.0218	0.0021
310.15	0.3161	0.0223	0.0021
310.15	0.3086	0.0228	0.0021
310.15	0.3032	0.0234	0.0021
310.15	0.2982	0.0238	0.0021
310.15	0.2923	0.0244	0.0021
310.15	0.2878	0.0249	0.0021
310.15	0.2832	0.0255	0.0021
310.15	0.279	0.026	0.0021
310.15	0.274	0.0265	0.0021
310.15	0.2707	0.027	0.0022
310.15	0.2675	0.0275	0.0022
310.15	0.2634	0.0279	0.0022
310.15	0.2593	0.0283	0.0022
310.15	0.2563	0.0288	0.0022
310.15	0.2534	0.0293	0.0022
310.15	0.2494	0.0296	0.0022
310.15	0.2465	0.0301	0.0022
310.15	0.2437	0.0306	0.0022
310.15	0.2409	0.0312	0.0022
310.15	0.2372	0.0316	0.0022
310.15	0.2348	0.0321	0.0022
310.15	0.2315	0.0325	0.0022
310.15	0.2283	0.0328	0.0022
310.15	0.2243	0.0337	0.0023
310.15	0.2207	0.0346	0.0023
310.15	0.2171	0.0354	0.0023
310.15	0.2135	0.0362	0.0023
310.15	0.21	0.037	0.0023
310.15	0.2075	0.0373	0.0023
310.15	0.2044	0.038	0.0023
310.15	0.2013	0.0388	0.0023
310.15	0.1983	0.0395	0.0023
310.15	0.1943	0.0401	0.0023
310.15	0.1908	0.0413	0.0024
310.15	0.1886	0.0421	0.0024
310.15	0.186	0.0428	0.0024
310.15	0.1834	0.0434	0.0024
310.15	0.1809	0.0441	0.0025
310.15	0.1794	0.0449	0.0025
310.15	0.1777	0.0454	0.0025
310.15	0.1761	0.0458	0.0025
310.15	0.1741	0.0465	0.0025
310.15	0.1722	0.0472	0.0025
310.15	0.17	0.0478	0.0025
310.15	0.1678	0.0489	0.0025
310.15	0.1642	0.0498	0.0025
310.15	0.1623	0.0506	0.0025
310.15	0.16	0.0515	0.0026
310.15	0.1583	0.0521	0.0026
310.15	0.1565	0.0525	0.0026
310.15	0.1546	0.0535	0.0027
310.15	0.1529	0.0544	0.0027
310.15	0.1513	0.0551	0.0027
310.15	0.1496	0.0559	0.0027
310.15	0.1479	0.0568	0.0027
310.15	0.1458	0.0578	0.0027
310.15	0.1445	0.0584	0.0027
310.15	0.143	0.0591	0.0028
310.15	0.1411	0.0598	0.0028
310.15	0.1393	0.0609	0.0028
310.15	0.1375	0.062	0.0029
310.15	0.136	0.0628	0.0029
310.15	0.1343	0.0638	0.0029
310.15	0.1314	0.0654	0.0029
310.15	0.1296	0.0666	0.003
310.15	0.1278	0.0674	0.003
310.15	0.1265	0.068	0.003
310.15	0.125	0.0689	0.003
310.15	0.1232	0.0701	0.0031
310.15	0.1217	0.071	0.0031
310.15	0.1197	0.0725	0.0032
310.15	0.1176	0.0738	0.0032
310.15	0.116	0.0749	0.0032
310.15	0.1142	0.076	0.0032
310.15	0.1124	0.0773	0.0033
310.15	0.1108	0.0785	0.0034
310.15	0.1086	0.0803	0.0034
310.15	0.1068	0.0815	0.0034
310.15	0.1042	0.0835	0.0035
310.15	0.1016	0.0858	0.0035
310.15	0.0999	0.0871	0.0035
310.15	0.0952	0.0903	0.0035
310.15	0.0928	0.0912	0.0035
310.15	0.0875	0.095	0.0036
310.15	0.0851	0.0965	0.0038
310.15	0.0866	0.0975	0.0038
310.15	0.0823	0.0994	0.0043
310.15	0.0802	0.1027	0.0042
310.15	0.0769	0.1059	0.0041
310.15	0.0713	0.111	0.0043
310.15	0.0564	0.1278	0.0047
318.15	0.7889	0.0036	0.002
318.15	0.5022	0.0126	0.002
318.15	0.4635	0.0149	0.002
318.15	0.434	0.0167	0.0021
318.15	0.4187	0.0176	0.0021
318.15	0.4053	0.0184	0.0021
318.15	0.3962	0.0192	0.0021
318.15	0.386	0.02	0.0021
318.15	0.3757	0.0209	0.0021
318.15	0.3676	0.0214	0.0021
318.15	0.3593	0.0221	0.0021
318.15	0.3532	0.0226	0.0021
318.15	0.3488	0.0231	0.0021
318.15	0.341	0.0238	0.0021
318.15	0.3361	0.0246	0.0021
318.15	0.3312	0.025	0.0021
318.15	0.328	0.0256	0.0021
318.15	0.3209	0.0261	0.0021
318.15	0.3174	0.0265	0.0022
318.15	0.3102	0.0273	0.0022
318.15	0.3081	0.0277	0.0022
318.15	0.3036	0.0282	0.0022
318.15	0.2994	0.0287	0.0022
318.15	0.2939	0.0291	0.0022
318.15	0.2895	0.0296	0.0022
318.15	0.2842	0.03	0.0022
318.15	0.2815	0.0306	0.0022
318.15	0.278	0.031	0.0022
318.15	0.2743	0.0315	0.0022
318.15	0.2709	0.0319	0.0022
318.15	0.2688	0.0324	0.0022
318.15	0.2668	0.0327	0.0022
318.15	0.2638	0.0331	0.0022
318.15	0.2625	0.0334	0.0022
318.15	0.2595	0.0338	0.0022
318.15	0.2556	0.0343	0.0022
318.15	0.2547	0.0346	0.0023
318.15	0.2509	0.0351	0.0023
318.15	0.2494	0.0355	0.0023
318.15	0.2471	0.0359	0.0023
318.15	0.2455	0.0362	0.0023
318.15	0.2394	0.0372	0.0023
318.15	0.2363	0.0378	0.0023
318.15	0.2302	0.0387	0.0023
318.15	0.2279	0.0393	0.0023
318.15	0.224	0.04	0.0023
318.15	0.221	0.0403	0.0023
318.15	0.2166	0.0409	0.0023
318.15	0.2131	0.0415	0.0023
318.15	0.2102	0.0423	0.0024
318.15	0.2042	0.0437	0.0024
318.15	0.1996	0.0448	0.0024
318.15	0.1954	0.0458	0.0024
318.15	0.1907	0.0472	0.0025
318.15	0.1878	0.0478	0.0024
318.15	0.1857	0.0484	0.0024
318.15	0.1834	0.0491	0.0025
318.15	0.1812	0.0499	0.0026
318.15	0.179	0.0509	0.0025
318.15	0.175	0.0516	0.0026
318.15	0.1728	0.0525	0.0026
318.15	0.1719	0.0536	0.0026
318.15	0.1664	0.0551	0.0026
318.15	0.1625	0.057	0.0027
318.15	0.1575	0.0587	0.0027
318.15	0.1536	0.0603	0.0027
318.15	0.1502	0.0616	0.0027
318.15	0.138	0.0639	0.0028
318.15	0.1349	0.0662	0.0039
318.15	0.1165	0.0751	0.0031
318.15	0.1053	0.0794	0.0033
327.15	0.7944	0.0021	0.002
327.15	0.7409	0.0032	0.002
327.15	0.7139	0.0043	0.002
327.15	0.69	0.0052	0.002
327.15	0.6653	0.0061	0.002
327.15	0.6382	0.0071	0.002
327.15	0.6185	0.0081	0.002
327.15	0.597	0.0088	0.002
327.15	0.5785	0.0095	0.002
327.15	0.5625	0.0104	0.002
327.15	0.5478	0.011	0.002
327.15	0.5405	0.0117	0.002
327.15	0.5274	0.0128	0.002
327.15	0.5174	0.0133	0.002
327.15	0.5062	0.014	0.002
327.15	0.4971	0.0147	0.002
327.15	0.4877	0.0155	0.0021
327.15	0.4771	0.0161	0.0021
327.15	0.4717	0.0168	0.0021
327.15	0.468	0.0175	0.0021
327.15	0.4629	0.018	0.0021
327.15	0.4578	0.0186	0.0021
327.15	0.4528	0.0191	0.0021
327.15	0.4449	0.0197	0.0021
327.15	0.4376	0.0204	0.0021
327.15	0.4301	0.0212	0.0021
327.15	0.4251	0.0217	0.0021
327.15	0.4191	0.0224	0.0021
327.15	0.4131	0.0229	0.0021
327.15	0.4084	0.0234	0.0021
327.15	0.4047	0.0237	0.0021
327.15	0.4012	0.024	0.0021
327.15	0.3981	0.0246	0.0022
327.15	0.3948	0.0254	0.0021
327.15	0.3862	0.0262	0.0021
327.15	0.3811	0.0269	0.0022
327.15	0.3751	0.0277	0.0022
327.15	0.3681	0.0285	0.0022
327.15	0.361	0.0294	0.0022
327.15	0.357	0.0301	0.0022
327.15	0.3519	0.0307	0.0022
327.15	0.3479	0.0314	0.0022
327.15	0.3439	0.0321	0.0022
327.15	0.3419	0.0327	0.0022
327.15	0.3385	0.0332	0.0022
327.15	0.3335	0.0337	0.0022
327.15	0.3299	0.0344	0.0022
327.15	0.325	0.0349	0.0022
327.15	0.3202	0.0354	0.0022
327.15	0.3154	0.0359	0.0023
327.15	0.3121	0.0365	0.0023
327.15	0.3077	0.0369	0.0023
327.15	0.3048	0.0375	0.0023
327.15	0.3007	0.0379	0.0023
327.15	0.2978	0.0385	0.0023
327.15	0.2939	0.0389	0.0023
327.15	0.2898	0.0393	0.0023
327.15	0.2872	0.0399	0.0023
327.15	0.2835	0.0403	0.0023
327.15	0.2796	0.0408	0.0023
327.15	0.2761	0.0411	0.0023
327.15	0.2749	0.0415	0.0023
327.15	0.2727	0.0418	0.0023
327.15	0.2709	0.0421	0.0024
327.15	0.2687	0.0425	0.0024
327.15	0.2674	0.0427	0.0024
327.15	0.265	0.0432	0.0024
327.15	0.2619	0.0435	0.0024
327.15	0.2594	0.0439	0.0024
327.15	0.2571	0.0444	0.0024
327.15	0.254	0.0449	0.0024
327.15	0.2503	0.0454	0.0024
327.15	0.2459	0.0463	0.0024
327.15	0.2413	0.0473	0.0025
327.15	0.2377	0.0482	0.0024
327.15	0.2342	0.0486	0.0025
327.15	0.2288	0.0499	0.0025
327.15	0.2254	0.0506	0.0025
327.15	0.223	0.0507	0.0025
327.15	0.2207	0.0509	0.0025
327.15	0.2185	0.051	0.0025
327.15	0.217	0.0514	0.0025
327.15	0.2155	0.0518	0.0025
327.15	0.2141	0.0521	0.0025
327.15	0.2113	0.0528	0.0026
327.15	0.2066	0.0542	0.0026
327.15	0.2045	0.055	0.0026
327.15	0.2093	0.0536	0.0026
327.15	0.202	0.0555	0.0026
327.15	0.2005	0.0559	0.0026
327.15	0.1986	0.056	0.0026
327.15	0.1962	0.0565	0.0026
327.15	0.1944	0.0567	0.0026
327.15	0.1927	0.0574	0.0026
327.15	0.1899	0.0583	0.0027
327.15	0.1882	0.0589	0.0027
327.15	0.1864	0.0597	0.0027
327.15	0.1838	0.0605	0.0027
327.15	0.1811	0.0614	0.0028
327.15	0.1796	0.062	0.0028
327.15	0.1771	0.0634	0.0028
327.15	0.1742	0.064	0.0028
327.15	0.1701	0.0657	0.0028
327.15	0.166	0.0664	0.0028
327.15	0.1608	0.0674	0.0028
327.15	0.159	0.0682	0.0028
327.15	0.1568	0.069	0.0029
327.15	0.1549	0.0698	0.0029
327.15	0.1496	0.0711	0.0029
327.15	0.1452	0.0724	0.0029
327.15	0.1412	0.0735	0.003
327.15	0.1352	0.0755	0.003
327.15	0.1309	0.0767	0.003
327.15	0.1232	0.0793	0.0031
327.15	0.1152	0.082	0.0031
327.15	0.0993	0.0875	0.0033

System: water + sodium sulfate + 1-butyl-3-methylpyridinium tetrafluoroborate; phases: Liquid mixture 2, Liquid mixture 1
Fixed: Pressure, kPa = 101
Property: Mass fraction of sodium sulfate (Liquid mixture 2); method: OTHER
Temperature, K	Mass fraction of 1-butyl-3-methylpyridinium tetrafluoroborate	Mass fraction of sodium sulfate	uncertainty
310.15	0.7055	0.0018	0.0018
318.15	0.7441	0.0046	0.002
318.15	0.6108	0.008	0.0021
310.15	0.5223	0.0067	0.002
318.15	0.6332	0.0073	0.002
327.15	0.7779	0.0027	0.002
327.15	0.8332	0.0017	0.0017
327.15	0.8778	0.0011	0.0011
327.15	0.5784	0.0097	0.002
327.15	0.8661	0.0012	0.0012
327.15	0.6473	0.0065	0.002
310.15	0.6504	0.0028	0.002
327.15	0.6347	0.007	0.002
327.15	0.6552	0.0062	0.002
327.15	0.6875	0.0051	0.002
310.15	0.7596	0.0011	0.0011
327.15	0.7365	0.0036	0.002
310.15	0.5926	0.0043	0.002
310.15	0.6369	0.0031	0.002
310.15	0.6932	0.002	0.002
310.15	0.7338	0.0014	0.0014
310.15	0.7623	0.0011	0.0011
318.15	0.6667	0.0064	0.002
310.15	0.7543	0.0012	0.0012
318.15	0.7805	0.0039	0.002
318.15	0.7001	0.0055	0.002
318.15	0.7167	0.0051	0.002
318.15	0.7529	0.0044	0.002
318.15	0.6054	0.0082	0.002
318.15	0.6867	0.0058	0.002

System: water + sodium sulfate + 1-butyl-3-methylpyridinium tetrafluoroborate; phases: Liquid mixture 1, Liquid mixture 2
Fixed: Pressure, kPa = 101
Property: Mass fraction of sodium sulfate (Liquid mixture 1); method: OTHER
Temperature, K	Mass fraction of 1-butyl-3-methylpyridinium tetrafluoroborate	Mass fraction of sodium sulfate	uncertainty
310.15	0.1529	0.0571	0.0025
318.15	0.1377	0.0652	0.0026
318.15	0.1788	0.0512	0.0025
310.15	0.2225	0.0366	0.0022
318.15	0.1708	0.0535	0.0024
327.15	0.1389	0.0722	0.0026
327.15	0.1132	0.0797	0.0027
327.15	0.0998	0.0839	0.0028
327.15	0.2652	0.0439	0.0022
327.15	0.1054	0.0821	0.0027
327.15	0.2217	0.0525	0.0023
310.15	0.1701	0.0508	0.0024
327.15	0.2327	0.0502	0.0023
327.15	0.2138	0.0542	0.0023
327.15	0.1979	0.0576	0.0024
310.15	0.1384	0.0632	0.0026
327.15	0.1676	0.0648	0.0025
310.15	0.1912	0.0444	0.0023
310.15	0.1747	0.0493	0.0023
310.15	0.1566	0.0557	0.0024
310.15	0.1451	0.0603	0.0025
310.15	0.1377	0.0635	0.0026
318.15	0.1597	0.057	0.0024
310.15	0.1397	0.0626	0.0025
318.15	0.1288	0.069	0.0025
318.15	0.1496	0.0605	0.0026
318.15	0.145	0.0623	0.0026
318.15	0.1355	0.0661	0.0025
318.15	0.1809	0.0506	0.0026
318.15	0.1536	0.0591	0.0024
