Measured thermophysical data. Densities, Viscosities and Refractive Indices of the Ternary Mixture Dimethyladipate + 2-Butanone + 1-Butanol at T = (288.15 to 323.15) K
Source: J. Chem. Eng. Data, 2014, 10.1021/je5007696
Compound 1: dimethyl 1,6-hexanedioate, C8H14O4, InChI=1S/C8H14O4/c1-11-7(9)5-3-4-6-8(10)12-2/h3-6H2,1-2H3, purity 99%
Compound 2: butanone, C4H8O, InChI=1S/C4H8O/c1-3-4(2)5/h3H2,1-2H3, purity 99.5%
Compound 3: butan-1-ol, C4H10O, InChI=1S/C4H10O/c1-2-3-4-5/h5H,2-4H2,1H3, purity 99.5%

System: dimethyl 1,6-hexanedioate; phases: Liquid
Property: Mass density, kg/m3 (Liquid); method: Vibrating tube method
Temperature, K	Pressure, kPa	Mass density, kg/m3	uncertainty
293.15	101.325	1061.93	0.28

System: dimethyl 1,6-hexanedioate; phases: Liquid
Property: Refractive index (Na D-line) (Liquid); method: Standard Abbe refractometry
Temperature, K	Pressure, kPa	Refractive index (Na D-line)	uncertainty
298.15	101.325	1.4264	0.0004

System: dimethyl 1,6-hexanedioate; phases: Liquid
Fixed: Pressure, kPa = 100
Property: Viscosity, Pa*s (Liquid); method: Concentric cylinders viscometry
Temperature, K	Viscosity, Pa*s	uncertainty
288.15	0.0037514	2.44e-05
293.15	0.0032894	2.178e-05
298.15	0.0029101	1.97e-05
303.15	0.0026037	1.805e-05
308.15	0.0023425	1.666e-05
313.15	0.0021214	1.55e-05
318.15	0.0019332	1.452e-05
323.15	0.00179	1.38e-05

System: butanone; phases: Liquid
Fixed: Pressure, kPa = 100
Property: Viscosity, Pa*s (Liquid); method: Concentric cylinders viscometry
Temperature, K	Viscosity, Pa*s	uncertainty
288.15	0.00043063	7.73e-06
293.15	0.00041363	7.7e-06
298.15	0.00039621	7.66e-06
303.15	0.00037927	7.63e-06
308.15	0.00036258	7.59e-06
313.15	0.00034613	7.56e-06
318.15	0.00033031	7.53e-06
323.15	0.00031675	7.5e-06
288.15	0.0004306	8e-06
293.15	0.0004136	7.9e-06
298.15	0.0003962	7.8e-06
303.15	0.0003793	7.8e-06
308.15	0.0003626	7.8e-06
313.15	0.0003461	7.7e-06
318.15	0.0003303	7.7e-06
323.15	0.0003168	7.6e-06

System: butanone; phases: Liquid
Fixed: Pressure, kPa = 100
Property: Mass density, kg/m3 (Liquid); method: Vibrating tube method
Temperature, K	Mass density, kg/m3	uncertainty
288.15	810.133	0.238
293.15	804.926	0.238
298.15	799.695	0.238
303.15	794.435	0.239
308.15	789.142	0.239
313.15	783.814	0.239
318.15	778.451	0.24
323.15	773.047	0.24

System: butanone; phases: Liquid
Fixed: Pressure, kPa = 101.325
Property: Refractive index (Na D-line) (Liquid); method: Standard Abbe refractometry
Temperature, K	Refractive index (Na D-line)	uncertainty
288.15	1.38153	0.0004
293.15	1.37892	0.0004
298.15	1.37631	0.0004
303.15	1.37366	0.0004
308.15	1.37102	0.0004
313.15	1.36834	0.0004
318.15	1.36565	0.0004
323.15	1.36294	0.0004

System: butan-1-ol; phases: Liquid
Fixed: Pressure, kPa = 100
Property: Viscosity, Pa*s (Liquid); method: Concentric cylinders viscometry
Temperature, K	Viscosity, Pa*s	uncertainty
288.15	0.0033748	1.68e-05
293.15	0.0029446	1.53e-05
298.15	0.0025809	1.4e-05
303.15	0.0022719	1.3e-05
308.15	0.0020081	1.21e-05
313.15	0.001782	1.14e-05
318.15	0.0015872	1.08e-05
323.15	0.0014188	1.03e-05

System: butan-1-ol; phases: Liquid
Fixed: Pressure, kPa = 100
Property: Mass density, kg/m3 (Liquid); method: Vibrating tube method
Temperature, K	Mass density, kg/m3	uncertainty
288.15	813.373	0.16
293.15	809.573	0.161
298.15	805.762	0.162
303.15	801.923	0.163
308.15	798.053	0.164
313.15	794.147	0.165
318.15	790.231	0.166
323.15	786.238	0.167

System: butan-1-ol; phases: Liquid
Fixed: Pressure, kPa = 101.325
Property: Refractive index (Na D-line) (Liquid); method: Standard Abbe refractometry
Temperature, K	Refractive index (Na D-line)	uncertainty
288.15	1.40135	0.00036
293.15	1.39932	0.00036
298.15	1.3973	0.00036
303.15	1.39523	0.00036
308.15	1.39318	0.00036
313.15	1.3911	0.00036
318.15	1.38901	0.00036
323.15	1.38688	0.00036

System: butanone + dimethyl 1,6-hexanedioate; phases: Liquid
Fixed: Pressure, kPa = 100
Property: Viscosity, Pa*s (Liquid); method: Concentric cylinders viscometry
Temperature, K	Mole fraction of dimethyl 1,6-hexanedioate	Viscosity, Pa*s	uncertainty
288.15	0	0.00043063	7.73e-06
288.15	0.1002	0.00057071	8.07e-06
288.15	0.2002	0.00073683	8.52e-06
288.15	0.3002	0.00094194	9.17e-06
288.15	0.4004	0.0011834	1.005e-05
288.15	0.5001	0.0014667	1.123e-05
288.15	0.5999	0.0018022	1.279e-05
288.15	0.6998	0.0021908	1.48e-05
288.15	0.7994	0.0026362	1.732e-05
288.15	0.8997	0.0031596	2.051e-05
288.15	1	0.0037514	2.44e-05
293.15	0	0.00041363	7.7e-06
293.15	0.1002	0.0005434	8e-06
293.15	0.2002	0.00069522	8.41e-06
293.15	0.3002	0.00088035	8.98e-06
293.15	0.4004	0.0010961	9.75e-06
293.15	0.5001	0.00134736	1.077e-05
293.15	0.5999	0.0016397	1.211e-05
293.15	0.6998	0.0019744	1.381e-05
293.15	0.7994	0.0023534	1.593e-05
293.15	0.8997	0.002794	1.859e-05
293.15	1	0.0032894	2.178e-05
298.15	0	0.00039621	7.66e-06
298.15	0.1002	0.00051663	7.94e-06
298.15	0.2002	0.00065633	8.31e-06
298.15	0.3002	0.00082397	8.82e-06
298.15	0.4004	0.0010188	9.5e-06
298.15	0.5001	0.00124207	1.038e-05
298.15	0.5999	0.00149822	1.153e-05
298.15	0.6998	0.0017903	1.299e-05
298.15	0.7994	0.0021197	1.48e-05
298.15	0.8997	0.0024907	1.702e-05
298.15	1	0.0029101	1.97e-05
303.15	0	0.00037927	7.63e-06
303.15	0.1002	0.00049117	7.88e-06
303.15	0.2002	0.00061986	8.22e-06
303.15	0.3002	0.00077421	8.68e-06
303.15	0.4004	0.00095089	9.28e-06
303.15	0.5001	0.0011504	1.005e-05
303.15	0.5999	0.0013796	1.106e-05
303.15	0.6998	0.0016349	1.231e-05
303.15	0.7994	0.0019206	1.386e-05
303.15	0.8997	0.0022415	1.575e-05
303.15	1	0.0026037	1.805e-05
308.15	0	0.00036258	7.59e-06
308.15	0.1002	0.00046674	7.83e-06
308.15	0.2002	0.00058653	8.13e-06
308.15	0.3002	0.00072767	8.54e-06
308.15	0.4004	0.00088917	9.08e-06
308.15	0.5001	0.0010687	9.76e-06
308.15	0.5999	0.0012737	1.064e-05
308.15	0.6998	0.0014998	1.173e-05
308.15	0.7994	0.0017501	1.307e-05
308.15	0.8997	0.0020325	1.471e-05
308.15	1	0.0023425	1.666e-05
313.15	0	0.00034613	7.56e-06
313.15	0.1002	0.0004425	7.78e-06
313.15	0.2002	0.00055505	8.06e-06
313.15	0.3002	0.00068534	8.43e-06
313.15	0.4004	0.00083312	8.91e-06
313.15	0.5001	0.00099607	9.51e-06
313.15	0.5999	0.0011806	1.029e-05
313.15	0.6998	0.0013817	1.124e-05
313.15	0.7994	0.0016039	1.24e-05
313.15	0.8997	0.001851	1.382e-05
313.15	1	0.0021214	1.55e-05
318.15	0	0.00033031	7.53e-06
318.15	0.1002	0.00041995	7.73e-06
318.15	0.2002	0.00052503	7.98e-06
318.15	0.3002	0.00064649	8.32e-06
318.15	0.4004	0.00078272	8.76e-06
318.15	0.5001	0.00093237	9.3e-06
318.15	0.5999	0.0010982	9.98e-06
318.15	0.6998	0.0012786	1.081e-05
318.15	0.7994	0.001476	1.183e-05
318.15	0.8997	0.0016946	1.306e-05
318.15	1	0.0019332	1.452e-05
323.15	0	0.00031675	7.5e-06
323.15	0.1002	0.00040372	7.69e-06
323.15	0.2002	0.00050199	7.93e-06
323.15	0.3002	0.00061649	8.24e-06
323.15	0.4004	0.00074252	8.64e-06
323.15	0.5001	0.00088298	9.14e-06
323.15	0.5999	0.0010356	9.75e-06
323.15	0.6998	0.0012022	1.051e-05
323.15	0.7994	0.0013808	1.141e-05
323.15	0.8997	0.0015774	1.251e-05
323.15	1	0.00179	1.38e-05

System: butan-1-ol + butanone; phases: Liquid
Fixed: Pressure, kPa = 100
Property: Viscosity, Pa*s (Liquid); method: Concentric cylinders viscometry
Temperature, K	Mole fraction of butanone	Viscosity, Pa*s	uncertainty
288.15	0	0.0033748	1.68e-05
288.15	0.0997	0.0022927	1.35e-05
288.15	0.1999	0.0016455	1.14e-05
288.15	0.3003	0.0012569	1.02e-05
288.15	0.4008	0.0010092	9.5e-06
288.15	0.5003	0.0008332	9e-06
288.15	0.6001	0.0007013	8.6e-06
288.15	0.6992	0.0005975	8.4e-06
288.15	0.7991	0.0005248	8.2e-06
288.15	0.899	0.0004708	8e-06
288.15	1	0.0004306	8e-06
293.15	0	0.0029446	1.53e-05
293.15	0.0997	0.0020343	1.25e-05
293.15	0.1999	0.0014826	1.08e-05
293.15	0.3003	0.001147	9.8e-06
293.15	0.4008	0.0009297	9.2e-06
293.15	0.5003	0.0007756	8.8e-06
293.15	0.6001	0.0006603	8.5e-06
293.15	0.6992	0.0005696	8.3e-06
293.15	0.7991	0.0004997	8.1e-06
293.15	0.899	0.0004505	8e-06
293.15	1	0.0004136	7.9e-06
298.15	0	0.0025809	1.4e-05
298.15	0.0997	0.0018139	1.18e-05
298.15	0.1999	0.001343	1.03e-05
298.15	0.3003	0.0010511	9.5e-06
298.15	0.4008	0.0008588	9e-06
298.15	0.5003	0.0007227	8.6e-06
298.15	0.6001	0.0006178	8.4e-06
298.15	0.6992	0.0005358	8.2e-06
298.15	0.7991	0.000475	8e-06
298.15	0.899	0.0004313	7.9e-06
298.15	1	0.0003962	7.8e-06
303.15	0	0.0022719	1.3e-05
303.15	0.0997	0.0016265	1.11e-05
303.15	0.1999	0.0012213	9.9e-06
303.15	0.3003	0.0009652	9.2e-06
303.15	0.4008	0.0007945	8.8e-06
303.15	0.5003	0.0006753	8.5e-06
303.15	0.6001	0.0005823	8.3e-06
303.15	0.6992	0.0005093	8.1e-06
303.15	0.7991	0.0004521	8e-06
303.15	0.899	0.0004114	7.9e-06
303.15	1	0.0003793	7.8e-06
308.15	0	0.0020081	1.21e-05
308.15	0.0997	0.0014652	1.06e-05
308.15	0.1999	0.0011149	9.6e-06
308.15	0.3003	0.0008886	9e-06
308.15	0.4008	0.0007364	8.6e-06
308.15	0.5003	0.0006314	8.4e-06
308.15	0.6001	0.0005453	8.2e-06
308.15	0.6992	0.00048	8e-06
308.15	0.7991	0.0004294	7.9e-06
308.15	0.899	0.0003918	7.8e-06
308.15	1	0.0003626	7.8e-06
313.15	0	0.001782	1.14e-05
313.15	0.0997	0.0013271	1.02e-05
313.15	0.1999	0.0010217	9.3e-06
313.15	0.3003	0.0008197	8.8e-06
313.15	0.4008	0.0006843	8.5e-06
313.15	0.5003	0.0005907	8.3e-06
313.15	0.6001	0.0005143	8.1e-06
313.15	0.6992	0.0004552	7.9e-06
313.15	0.7991	0.0004073	7.8e-06
313.15	0.899	0.0003723	7.8e-06
313.15	1	0.0003461	7.7e-06
318.15	0	0.0015872	1.08e-05
318.15	0.0997	0.0012057	9.8e-06
318.15	0.1999	0.000939	9.1e-06
318.15	0.3003	0.0007575	8.6e-06
318.15	0.4008	0.000637	8.3e-06
318.15	0.5003	0.0005532	8.1e-06
318.15	0.6001	0.000485	8e-06
318.15	0.6992	0.00043	7.9e-06
318.15	0.7991	0.000386	7.8e-06
318.15	0.899	0.0003532	7.7e-06
318.15	1	0.0003303	7.7e-06
323.15	0	0.0014188	1.03e-05
323.15	0.0997	0.0010958	9.5e-06
323.15	0.1999	0.0008726	8.9e-06
323.15	0.3003	0.0007156	8.5e-06
323.15	0.4008	0.0006041	8.2e-06
323.15	0.5003	0.0005225	8.1e-06
323.15	0.6001	0.0004597	7.9e-06
323.15	0.6992	0.0004101	7.8e-06
323.15	0.7991	0.000369	7.7e-06
323.15	0.899	0.0003356	7.7e-06
323.15	1	0.0003168	7.6e-06

System: butan-1-ol + butanone; phases: Liquid
Fixed: Pressure, kPa = 100
Property: Mass density, kg/m3 (Liquid); method: Vibrating tube method
Temperature, K	Mole fraction of butanone	Mass density, kg/m3	uncertainty
288.15	0	813.373	0.16
288.15	0.0997	813.126	0.165
288.15	0.1999	812.877	0.171
288.15	0.3003	812.583	0.177
288.15	0.4008	812.253	0.184
288.15	0.5003	811.906	0.191
288.15	0.6001	811.555	0.199
288.15	0.6992	811.203	0.208
288.15	0.7991	810.843	0.217
288.15	0.899	810.477	0.227
288.15	1	810.133	0.238
293.15	0	809.573	0.161
293.15	0.0997	809.157	0.166
293.15	0.1999	808.747	0.172
293.15	0.3003	808.3	0.178
293.15	0.4008	807.824	0.185
293.15	0.5003	807.337	0.192
293.15	0.6001	806.848	0.2
293.15	0.6992	806.362	0.208
293.15	0.7991	805.875	0.218
293.15	0.899	805.39	0.227
293.15	1	804.926	0.238
298.15	0	805.762	0.162
298.15	0.0997	805.165	0.167
298.15	0.1999	804.592	0.173
298.15	0.3003	803.992	0.179
298.15	0.4008	803.369	0.186
298.15	0.5003	802.741	0.193
298.15	0.6001	802.114	0.201
298.15	0.6992	801.494	0.209
298.15	0.7991	800.878	0.218
298.15	0.899	800.271	0.228
298.15	1	799.695	0.238
303.15	0	801.923	0.163
303.15	0.0997	801.147	0.168
303.15	0.1999	800.407	0.174
303.15	0.3003	799.653	0.18
303.15	0.4008	798.884	0.186
303.15	0.5003	798.115	0.194
303.15	0.6001	797.349	0.201
303.15	0.6992	796.597	0.21
303.15	0.7991	795.852	0.219
303.15	0.899	795.126	0.228
303.15	1	794.435	0.239
308.15	0	798.053	0.164
308.15	0.0997	797.097	0.169
308.15	0.1999	796.195	0.174
308.15	0.3003	795.288	0.181
308.15	0.4008	794.369	0.187
308.15	0.5003	793.457	0.194
308.15	0.6001	792.551	0.202
308.15	0.6992	791.666	0.21
308.15	0.7991	790.793	0.219
308.15	0.899	789.946	0.229
308.15	1	789.142	0.239
313.15	0	794.147	0.165
313.15	0.0997	793.009	0.17
313.15	0.1999	791.945	0.175
313.15	0.3003	790.885	0.181
313.15	0.4008	789.819	0.188
313.15	0.5003	788.763	0.195
313.15	0.6001	787.719	0.203
313.15	0.6992	786.701	0.211
313.15	0.7991	785.7	0.22
313.15	0.899	784.731	0.229
313.15	1	783.814	0.239
318.15	0	790.231	0.166
318.15	0.0997	788.88	0.171
318.15	0.1999	787.652	0.176
318.15	0.3003	786.442	0.182
318.15	0.4008	785.228	0.189
318.15	0.5003	784.03	0.196
318.15	0.6001	782.849	0.204
318.15	0.6992	781.696	0.212
318.15	0.7991	780.568	0.22
318.15	0.899	779.478	0.23
318.15	1	778.451	0.24
323.15	0	786.238	0.167
323.15	0.0997	784.708	0.172
323.15	0.1999	783.318	0.177
323.15	0.3003	781.954	0.183
323.15	0.4008	780.593	0.19
323.15	0.5003	779.253	0.197
323.15	0.6001	777.934	0.204
323.15	0.6992	776.652	0.212
323.15	0.7991	775.398	0.221
323.15	0.899	774.188	0.23
323.15	1	773.047	0.24

System: butan-1-ol + butanone; phases: Liquid
Fixed: Pressure, kPa = 100
Property: Refractive index (Na D-line) (Liquid); method: Standard Abbe refractometry
Temperature, K	Mole fraction of butanone	Refractive index (Na D-line)	uncertainty
288.15	0	1.40135	0.00036
288.15	0.0997	1.39943	0.00036
288.15	0.1999	1.3975	0.00037
288.15	0.3003	1.39558	0.00037
288.15	0.4008	1.39362	0.00037
288.15	0.5003	1.39169	0.00038
288.15	0.6001	1.38971	0.00038
288.15	0.6992	1.38771	0.00039
288.15	0.7991	1.38569	0.00039
288.15	0.899	1.38364	0.0004
288.15	1	1.38153	0.0004
293.15	0	1.39932	0.00036
293.15	0.0997	1.39733	0.00036
293.15	0.1999	1.39533	0.00037
293.15	0.3003	1.39333	0.00037
293.15	0.4008	1.39131	0.00037
293.15	0.5003	1.38933	0.00038
293.15	0.6001	1.38729	0.00038
293.15	0.6992	1.38525	0.00039
293.15	0.7991	1.38316	0.00039
293.15	0.899	1.38108	0.0004
293.15	1	1.37892	0.0004
298.15	0	1.3973	0.00036
298.15	0.0997	1.39524	0.00036
298.15	0.1999	1.39315	0.00037
298.15	0.3003	1.39107	0.00037
298.15	0.4008	1.38899	0.00037
298.15	0.5003	1.38696	0.00038
298.15	0.6001	1.38486	0.00038
298.15	0.6992	1.38276	0.00039
298.15	0.7991	1.38062	0.00039
298.15	0.899	1.37849	0.0004
298.15	1	1.37631	0.0004
303.15	0	1.39523	0.00036
303.15	0.0997	1.3931	0.00036
303.15	0.1999	1.39095	0.00037
303.15	0.3003	1.38882	0.00037
303.15	0.4008	1.38669	0.00037
303.15	0.5003	1.38457	0.00038
303.15	0.6001	1.38241	0.00038
303.15	0.6992	1.38025	0.00039
303.15	0.7991	1.37807	0.00039
303.15	0.899	1.37589	0.0004
303.15	1	1.37366	0.0004
308.15	0	1.39318	0.00036
308.15	0.0997	1.39096	0.00036
308.15	0.1999	1.38872	0.00037
308.15	0.3003	1.38651	0.00037
308.15	0.4008	1.38433	0.00037
308.15	0.5003	1.38215	0.00038
308.15	0.6001	1.37995	0.00038
308.15	0.6992	1.37775	0.00039
308.15	0.7991	1.37551	0.00039
308.15	0.899	1.3733	0.0004
308.15	1	1.37102	0.0004
313.15	0	1.3911	0.00036
313.15	0.0997	1.38881	0.00036
313.15	0.1999	1.38649	0.00037
313.15	0.3003	1.38421	0.00037
313.15	0.4008	1.38196	0.00037
313.15	0.5003	1.37973	0.00038
313.15	0.6001	1.37748	0.00038
313.15	0.6992	1.37522	0.00039
313.15	0.7991	1.37293	0.00039
313.15	0.899	1.37065	0.0004
313.15	1	1.36834	0.0004
318.15	0	1.38901	0.00036
318.15	0.0997	1.38664	0.00036
318.15	0.1999	1.38427	0.00037
318.15	0.3003	1.38192	0.00037
318.15	0.4008	1.37958	0.00037
318.15	0.5003	1.37728	0.00038
318.15	0.6001	1.37496	0.00038
318.15	0.6992	1.37265	0.00039
318.15	0.7991	1.37031	0.00039
318.15	0.899	1.36798	0.0004
318.15	1	1.36565	0.0004
323.15	0	1.38688	0.00036
323.15	0.0997	1.38447	0.00036
323.15	0.1999	1.38203	0.00037
323.15	0.3003	1.37959	0.00037
323.15	0.4008	1.37718	0.00037
323.15	0.5003	1.3748	0.00038
323.15	0.6001	1.37244	0.00038
323.15	0.6992	1.37008	0.00039
323.15	0.7991	1.36769	0.00039
323.15	0.899	1.36531	0.0004
323.15	1	1.36294	0.0004

System: butan-1-ol + butanone + dimethyl 1,6-hexanedioate; phases: Liquid
Fixed: Pressure, kPa = 100
Property: Mass density, kg/m3 (Liquid); method: Vibrating tube method
Temperature, K	Mole fraction of dimethyl 1,6-hexanedioate	Mole fraction of butanone	Mass density, kg/m3	uncertainty
288.15	0.0901	0.0999	850.844	0.174
288.15	0.08	0.1999	846.957	0.175
288.15	0.07	0.3	842.883	0.176
288.15	0.06	0.4	838.695	0.178
288.15	0.05	0.5002	834.299	0.179
288.15	0.04	0.6	829.765	0.181
288.15	0.0301	0.6998	825.138	0.182
288.15	0.02	0.8001	820.263	0.184
288.15	0.01	0.8998	815.262	0.187
288.15	0.18	0.1002	884.102	0.168
288.15	0.1601	0.1999	877.485	0.17
288.15	0.1399	0.3	870.349	0.171
288.15	0.12	0.3999	862.911	0.173
288.15	0.1001	0.4999	855.105	0.175
288.15	0.08	0.6001	846.878	0.177
288.15	0.0601	0.7	838.378	0.179
288.15	0.0401	0.7999	829.427	0.182
288.15	0.02	0.9001	819.97	0.185
288.15	0.36	0.1	939.915	0.168
288.15	0.3197	0.2002	929.26	0.168
288.15	0.2801	0.2998	917.925	0.168
288.15	0.2401	0.3998	905.571	0.169
288.15	0.2002	0.4999	892.372	0.17
288.15	0.1601	0.5999	878.209	0.172
288.15	0.12	0.6998	863.056	0.175
288.15	0.08	0.8001	846.775	0.179
288.15	0.0401	0.9001	829.202	0.183
288.15	0.5404	0.0997	984.757	0.176
288.15	0.4796	0.2007	971.574	0.172
288.15	0.42	0.2999	957.412	0.17
288.15	0.36	0.4002	941.796	0.168
288.15	0.3	0.4999	924.738	0.168
288.15	0.24	0.6	906.119	0.169
288.15	0.1801	0.6998	885.744	0.172
288.15	0.12	0.7998	863.143	0.176
288.15	0.0602	0.8998	838.122	0.181
288.15	0.7202	0.1	1021.747	0.206
288.15	0.6397	0.2001	1007.055	0.189
288.15	0.5597	0.3	990.796	0.178
288.15	0.48	0.4001	973.163	0.173
288.15	0.3998	0.5005	953.25	0.17
288.15	0.3199	0.6001	931.296	0.169
288.15	0.2401	0.7001	906.684	0.17
288.15	0.1601	0.8	878.712	0.174
288.15	0.08	0.8998	846.718	0.18
288.15	0.8096	0.1005	1037.649	0.228
288.15	0.72	0.2002	1022.718	0.207
288.15	0.6303	0.2998	1006.102	0.188
288.15	0.5397	0.4002	987.301	0.177
288.15	0.45	0.5	966.464	0.172
288.15	0.3601	0.5999	943.046	0.17
288.15	0.27	0.7	916.386	0.169
288.15	0.18	0.7998	886.022	0.172
288.15	0.09	0.8997	850.981	0.179
293.15	0.0901	0.0999	846.672	0.174
293.15	0.08	0.1999	842.66	0.176
293.15	0.07	0.3	838.469	0.177
293.15	0.06	0.4	834.162	0.178
293.15	0.05	0.5002	829.651	0.18
293.15	0.04	0.6	825.002	0.182
293.15	0.0301	0.6998	820.261	0.183
293.15	0.02	0.8001	815.274	0.185
293.15	0.01	0.8998	810.166	0.188
293.15	0.18	0.1002	879.767	0.17
293.15	0.1601	0.1999	873.055	0.171
293.15	0.1399	0.3	865.825	0.172
293.15	0.12	0.3999	858.292	0.174
293.15	0.1001	0.4999	850.391	0.176
293.15	0.08	0.6001	842.067	0.178
293.15	0.0601	0.7	833.469	0.18
293.15	0.0401	0.7999	824.421	0.183
293.15	0.02	0.9001	814.866	0.186
293.15	0.36	0.1	935.341	0.17
293.15	0.3197	0.2002	924.63	0.169
293.15	0.2801	0.2998	913.236	0.17
293.15	0.2401	0.3998	900.819	0.17
293.15	0.2002	0.4999	887.552	0.171
293.15	0.1601	0.5999	873.321	0.174
293.15	0.12	0.6998	858.098	0.176
293.15	0.08	0.8001	841.738	0.18
293.15	0.0401	0.9001	824.085	0.184
293.15	0.5404	0.0997	980.025	0.177
293.15	0.4796	0.2007	966.807	0.174
293.15	0.42	0.2999	952.607	0.171
293.15	0.36	0.4002	936.947	0.17
293.15	0.3	0.4999	919.843	0.169
293.15	0.24	0.6	901.172	0.17
293.15	0.1801	0.6998	880.739	0.173
293.15	0.12	0.7998	858.081	0.177
293.15	0.0602	0.8998	832.991	0.182
293.15	0.7202	0.1	1016.917	0.204
293.15	0.6397	0.2001	1002.2	0.187
293.15	0.5597	0.3	985.913	0.179
293.15	0.48	0.4001	968.251	0.174
293.15	0.3998	0.5005	948.301	0.171
293.15	0.3199	0.6001	926.307	0.17
293.15	0.2401	0.7001	901.654	0.171
293.15	0.1601	0.8	873.631	0.175
293.15	0.08	0.8998	841.579	0.181
293.15	0.8096	0.1005	1032.789	0.225
293.15	0.72	0.2002	1017.834	0.204
293.15	0.6303	0.2998	1001.194	0.185
293.15	0.5397	0.4002	982.363	0.177
293.15	0.45	0.5	961.495	0.173
293.15	0.3601	0.5999	938.04	0.17
293.15	0.27	0.7	911.336	0.17
293.15	0.18	0.7998	880.93	0.173
293.15	0.09	0.8997	845.837	0.18
298.15	0.0901	0.0999	842.475	0.175
298.15	0.08	0.1999	838.343	0.176
298.15	0.07	0.3	834.031	0.178
298.15	0.06	0.4	829.609	0.179
298.15	0.05	0.5002	824.98	0.181
298.15	0.04	0.6	820.214	0.182
298.15	0.0301	0.6998	815.358	0.184
298.15	0.02	0.8001	810.257	0.186
298.15	0.01	0.8998	805.041	0.188
298.15	0.18	0.1002	875.408	0.17
298.15	0.1601	0.1999	868.603	0.171
298.15	0.1399	0.3	861.281	0.173
298.15	0.12	0.3999	853.653	0.174
298.15	0.1001	0.4999	845.654	0.176
298.15	0.08	0.6001	837.232	0.178
298.15	0.0601	0.7	828.536	0.181
298.15	0.0401	0.7999	819.388	0.184
298.15	0.02	0.9001	809.734	0.187
298.15	0.36	0.1	930.749	0.17
298.15	0.3197	0.2002	919.98	0.17
298.15	0.2801	0.2998	908.526	0.17
298.15	0.2401	0.3998	896.046	0.171
298.15	0.2002	0.4999	882.713	0.172
298.15	0.1601	0.5999	868.411	0.174
298.15	0.12	0.6998	853.116	0.177
298.15	0.08	0.8001	836.677	0.181
298.15	0.0401	0.9001	818.941	0.185
298.15	0.5404	0.0997	975.285	0.178
298.15	0.4796	0.2007	962.029	0.174
298.15	0.42	0.2999	947.788	0.172
298.15	0.36	0.4002	932.084	0.17
298.15	0.3	0.4999	914.932	0.17
298.15	0.24	0.6	896.209	0.171
298.15	0.1801	0.6998	875.719	0.174
298.15	0.12	0.7998	852.998	0.178
298.15	0.0602	0.8998	827.839	0.183
298.15	0.7202	0.1	1012.083	0.201
298.15	0.6397	0.2001	997.341	0.186
298.15	0.5597	0.3	981.02	0.179
298.15	0.48	0.4001	963.328	0.175
298.15	0.3998	0.5005	943.341	0.172
298.15	0.3199	0.6001	921.305	0.171
298.15	0.2401	0.7001	896.604	0.172
298.15	0.1601	0.8	868.529	0.176
298.15	0.08	0.8998	836.418	0.182
298.15	0.8096	0.1005	1027.922	0.222
298.15	0.72	0.2002	1012.946	0.201
298.15	0.6303	0.2998	996.275	0.185
298.15	0.5397	0.4002	977.418	0.178
298.15	0.45	0.5	956.518	0.173
298.15	0.3601	0.5999	933.022	0.171
298.15	0.27	0.7	906.278	0.171
298.15	0.18	0.7998	875.822	0.174
298.15	0.09	0.8997	840.672	0.181
303.15	0.0901	0.0999	838.254	0.176
303.15	0.08	0.1999	833.999	0.177
303.15	0.07	0.3	829.567	0.178
303.15	0.06	0.4	825.028	0.18
303.15	0.05	0.5002	820.282	0.181
303.15	0.04	0.6	815.399	0.183
303.15	0.0301	0.6998	810.427	0.185
303.15	0.02	0.8001	805.213	0.187
303.15	0.01	0.8998	799.888	0.189
303.15	0.18	0.1002	871.027	0.171
303.15	0.1601	0.1999	864.129	0.172
303.15	0.1399	0.3	856.713	0.174
303.15	0.12	0.3999	848.99	0.175
303.15	0.1001	0.4999	840.894	0.177
303.15	0.08	0.6001	832.372	0.179
303.15	0.0601	0.7	823.576	0.182
303.15	0.0401	0.7999	814.329	0.185
303.15	0.02	0.9001	804.575	0.188
303.15	0.36	0.1	926.143	0.171
303.15	0.3197	0.2002	915.314	0.171
303.15	0.2801	0.2998	903.799	0.171
303.15	0.2401	0.3998	891.255	0.172
303.15	0.2002	0.4999	877.855	0.173
303.15	0.1601	0.5999	863.481	0.175
303.15	0.12	0.6998	848.112	0.178
303.15	0.08	0.8001	831.592	0.182
303.15	0.0401	0.9001	813.772	0.186
303.15	0.5404	0.0997	970.535	0.178
303.15	0.4796	0.2007	957.236	0.175
303.15	0.42	0.2999	942.953	0.172
303.15	0.36	0.4002	927.205	0.171
303.15	0.3	0.4999	910.004	0.171
303.15	0.24	0.6	891.228	0.172
303.15	0.1801	0.6998	870.678	0.174
303.15	0.12	0.7998	847.892	0.178
303.15	0.0602	0.8998	822.66	0.184
303.15	0.7202	0.1	1007.244	0.199
303.15	0.6397	0.2001	992.471	0.186
303.15	0.5597	0.3	976.121	0.18
303.15	0.48	0.4001	958.392	0.175
303.15	0.3998	0.5005	938.366	0.173
303.15	0.3199	0.6001	916.288	0.172
303.15	0.2401	0.7001	891.539	0.173
303.15	0.1601	0.8	863.406	0.176
303.15	0.08	0.8998	831.233	0.183
303.15	0.8096	0.1005	1023.052	0.219
303.15	0.72	0.2002	1008.049	0.199
303.15	0.6303	0.2998	991.353	0.185
303.15	0.5397	0.4002	972.465	0.179
303.15	0.45	0.5	951.527	0.174
303.15	0.3601	0.5999	927.991	0.172
303.15	0.27	0.7	901.203	0.172
303.15	0.18	0.7998	870.693	0.175
303.15	0.09	0.8997	835.484	0.182
308.15	0.0901	0.0999	834.002	0.176
308.15	0.08	0.1999	829.625	0.178
308.15	0.07	0.3	825.072	0.179
308.15	0.06	0.4	820.415	0.181
308.15	0.05	0.5002	815.55	0.182
308.15	0.04	0.6	810.551	0.184
308.15	0.0301	0.6998	805.464	0.186
308.15	0.02	0.8001	800.137	0.188
308.15	0.01	0.8998	794.702	0.19
308.15	0.18	0.1002	866.619	0.172
308.15	0.1601	0.1999	859.627	0.173
308.15	0.1399	0.3	852.116	0.174
308.15	0.12	0.3999	844.295	0.176
308.15	0.1001	0.4999	836.102	0.178
308.15	0.08	0.6001	827.482	0.18
308.15	0.0601	0.7	818.586	0.183
308.15	0.0401	0.7999	809.24	0.186
308.15	0.02	0.9001	799.384	0.189
308.15	0.36	0.1	921.513	0.172
308.15	0.3197	0.2002	910.627	0.171
308.15	0.2801	0.2998	899.05	0.172
308.15	0.2401	0.3998	886.439	0.172
308.15	0.2002	0.4999	872.969	0.174
308.15	0.1601	0.5999	858.524	0.176
308.15	0.12	0.6998	843.081	0.179
308.15	0.08	0.8001	826.479	0.182
308.15	0.0401	0.9001	808.572	0.187
308.15	0.5404	0.0997	965.764	0.179
308.15	0.4796	0.2007	952.429	0.175
308.15	0.42	0.2999	938.105	0.173
308.15	0.36	0.4002	922.308	0.172
308.15	0.3	0.4999	905.056	0.172
308.15	0.24	0.6	886.224	0.173
308.15	0.1801	0.6998	865.615	0.175
308.15	0.12	0.7998	842.762	0.179
308.15	0.0602	0.8998	817.452	0.185
308.15	0.7202	0.1	1002.393	0.196
308.15	0.6397	0.2001	987.592	0.187
308.15	0.5597	0.3	971.208	0.18
308.15	0.48	0.4001	953.444	0.176
308.15	0.3998	0.5005	933.376	0.173
308.15	0.3199	0.6001	911.253	0.173
308.15	0.2401	0.7001	886.453	0.174
308.15	0.1601	0.8	858.261	0.177
308.15	0.08	0.8998	826.017	0.184
308.15	0.8096	0.1005	1018.172	0.216
308.15	0.72	0.2002	1003.147	0.196
308.15	0.6303	0.2998	986.419	0.186
308.15	0.5397	0.4002	967.497	0.179
308.15	0.45	0.5	946.521	0.175
308.15	0.3601	0.5999	922.944	0.173
308.15	0.27	0.7	896.109	0.173
308.15	0.18	0.7998	865.543	0.176
308.15	0.09	0.8997	830.268	0.183
313.15	0.0901	0.0999	829.717	0.177
313.15	0.08	0.1999	825.22	0.178
313.15	0.07	0.3	820.546	0.18
313.15	0.06	0.4	815.771	0.181
313.15	0.05	0.5002	810.787	0.183
313.15	0.04	0.6	805.671	0.185
313.15	0.0301	0.6998	800.469	0.187
313.15	0.02	0.8001	795.029	0.189
313.15	0.01	0.8998	789.481	0.191
313.15	0.18	0.1002	862.181	0.172
313.15	0.1601	0.1999	855.097	0.174
313.15	0.1399	0.3	847.492	0.175
313.15	0.12	0.3999	839.574	0.177
313.15	0.1001	0.4999	831.281	0.179
313.15	0.08	0.6001	822.561	0.181
313.15	0.0601	0.7	813.567	0.184
313.15	0.0401	0.7999	804.119	0.187
313.15	0.02	0.9001	794.159	0.19
313.15	0.36	0.1	916.861	0.172
313.15	0.3197	0.2002	905.916	0.172
313.15	0.2801	0.2998	894.278	0.172
313.15	0.2401	0.3998	881.601	0.173
313.15	0.2002	0.4999	868.061	0.175
313.15	0.1601	0.5999	853.543	0.177
313.15	0.12	0.6998	838.023	0.18
313.15	0.08	0.8001	821.338	0.183
313.15	0.0401	0.9001	803.34	0.188
313.15	0.5404	0.0997	960.982	0.179
313.15	0.4796	0.2007	947.605	0.176
313.15	0.42	0.2999	933.237	0.174
313.15	0.36	0.4002	917.393	0.173
313.15	0.3	0.4999	900.09	0.172
313.15	0.24	0.6	881.201	0.174
313.15	0.1801	0.6998	860.53	0.176
313.15	0.12	0.7998	837.605	0.18
313.15	0.0602	0.8998	812.215	0.186
313.15	0.7202	0.1	997.532	0.195
313.15	0.6397	0.2001	982.702	0.187
313.15	0.5597	0.3	966.285	0.181
313.15	0.48	0.4001	948.483	0.177
313.15	0.3998	0.5005	928.371	0.174
313.15	0.3199	0.6001	906.202	0.173
313.15	0.2401	0.7001	881.346	0.175
313.15	0.1601	0.8	853.092	0.178
313.15	0.08	0.8998	820.775	0.185
313.15	0.8096	0.1005	1013.286	0.214
313.15	0.72	0.2002	998.233	0.195
313.15	0.6303	0.2998	981.474	0.186
313.15	0.5397	0.4002	962.519	0.18
313.15	0.45	0.5	941.503	0.175
313.15	0.3601	0.5999	917.879	0.173
313.15	0.27	0.7	890.995	0.173
313.15	0.18	0.7998	860.367	0.177
313.15	0.09	0.8997	825.022	0.184
318.15	0.0901	0.0999	825.39	0.178
318.15	0.08	0.1999	820.776	0.179
318.15	0.07	0.3	815.986	0.181
318.15	0.06	0.4	811.093	0.182
318.15	0.05	0.5002	805.989	0.184
318.15	0.04	0.6	800.754	0.186
318.15	0.0301	0.6998	795.437	0.188
318.15	0.02	0.8001	789.882	0.19
318.15	0.01	0.8998	784.223	0.192
318.15	0.18	0.1002	857.71	0.173
318.15	0.1601	0.1999	850.535	0.174
318.15	0.1399	0.3	842.835	0.176
318.15	0.12	0.3999	834.82	0.178
318.15	0.1001	0.4999	826.427	0.18
318.15	0.08	0.6001	817.607	0.182
318.15	0.0601	0.7	808.511	0.185
318.15	0.0401	0.7999	798.961	0.188
318.15	0.02	0.9001	788.897	0.191
318.15	0.36	0.1	912.189	0.173
318.15	0.3197	0.2002	901.181	0.173
318.15	0.2801	0.2998	889.478	0.173
318.15	0.2401	0.3998	876.733	0.174
318.15	0.2002	0.4999	863.123	0.175
318.15	0.1601	0.5999	848.531	0.178
318.15	0.12	0.6998	832.934	0.181
318.15	0.08	0.8001	816.161	0.184
318.15	0.0401	0.9001	798.072	0.189
318.15	0.5404	0.0997	956.18	0.18
318.15	0.4796	0.2007	942.76	0.177
318.15	0.42	0.2999	928.347	0.174
318.15	0.36	0.4002	912.454	0.173
318.15	0.3	0.4999	895.098	0.173
318.15	0.24	0.6	876.152	0.175
318.15	0.1801	0.6998	855.412	0.177
318.15	0.12	0.7998	832.416	0.181
318.15	0.0602	0.8998	806.944	0.187
318.15	0.7202	0.1	992.66	0.195
318.15	0.6397	0.2001	977.795	0.188
318.15	0.5597	0.3	961.342	0.182
318.15	0.48	0.4001	943.503	0.177
318.15	0.3998	0.5005	923.346	0.175
318.15	0.3199	0.6001	901.129	0.174
318.15	0.2401	0.7001	876.215	0.175
318.15	0.1601	0.8	847.893	0.179
318.15	0.08	0.8998	815.501	0.186
318.15	0.8096	0.1005	1008.389	0.211
318.15	0.72	0.2002	993.308	0.195
318.15	0.6303	0.2998	976.516	0.187
318.15	0.5397	0.4002	957.526	0.18
318.15	0.45	0.5	936.468	0.176
318.15	0.3601	0.5999	912.796	0.174
318.15	0.27	0.7	885.858	0.174
318.15	0.18	0.7998	855.168	0.178
318.15	0.09	0.8997	819.747	0.185
323.15	0.0901	0.0999	821.034	0.178
323.15	0.08	0.1999	816.298	0.18
323.15	0.07	0.3	811.389	0.182
323.15	0.06	0.4	806.375	0.183
323.15	0.05	0.5002	801.153	0.185
323.15	0.04	0.6	795.802	0.187
323.15	0.0301	0.6998	790.369	0.189
323.15	0.02	0.8001	784.701	0.191
323.15	0.01	0.8998	778.93	0.193
323.15	0.18	0.1002	853.208	0.175
323.15	0.1601	0.1999	845.94	0.176
323.15	0.1399	0.3	838.145	0.178
323.15	0.12	0.3999	830.032	0.179
323.15	0.1001	0.4999	821.54	0.181
323.15	0.08	0.6001	812.62	0.183
323.15	0.0601	0.7	803.423	0.186
323.15	0.0401	0.7999	793.77	0.189
323.15	0.02	0.9001	783.6	0.192
323.15	0.36	0.1	907.49	0.176
323.15	0.3197	0.2002	896.424	0.175
323.15	0.2801	0.2998	884.655	0.175
323.15	0.2401	0.3998	871.842	0.176
323.15	0.2002	0.4999	858.159	0.177
323.15	0.1601	0.5999	843.491	0.179
323.15	0.12	0.6998	827.818	0.182
323.15	0.08	0.8001	810.955	0.185
323.15	0.0401	0.9001	792.77	0.19
323.15	0.5404	0.0997	951.365	0.182
323.15	0.4796	0.2007	937.903	0.178
323.15	0.42	0.2999	923.442	0.176
323.15	0.36	0.4002	907.495	0.175
323.15	0.3	0.4999	890.084	0.174
323.15	0.24	0.6	871.077	0.176
323.15	0.1801	0.6998	850.271	0.178
323.15	0.12	0.7998	827.198	0.182
323.15	0.0602	0.8998	801.639	0.188
323.15	0.7202	0.1	987.774	0.196
323.15	0.6397	0.2001	972.879	0.188
323.15	0.5597	0.3	956.389	0.182
323.15	0.48	0.4001	938.504	0.178
323.15	0.3998	0.5005	918.3	0.176
323.15	0.3199	0.6001	896.035	0.175
323.15	0.2401	0.7001	871.057	0.176
323.15	0.1601	0.8	842.665	0.18
323.15	0.08	0.8998	810.19	0.187
323.15	0.8096	0.1005	1003.484	0.208
323.15	0.72	0.2002	988.371	0.196
323.15	0.6303	0.2998	971.544	0.187
323.15	0.5397	0.4002	952.517	0.181
323.15	0.45	0.5	931.414	0.177
323.15	0.3601	0.5999	907.693	0.175
323.15	0.27	0.7	880.697	0.175
323.15	0.18	0.7998	849.941	0.179
323.15	0.09	0.8997	814.44	0.186

System: butan-1-ol + butanone + dimethyl 1,6-hexanedioate; phases: Liquid
Fixed: Pressure, kPa = 100
Property: Refractive index (Na D-line) (Liquid); method: Standard Abbe refractometry
Temperature, K	Mole fraction of dimethyl 1,6-hexanedioate	Mole fraction of butanone	Refractive index (Na D-line)	uncertainty
288.15	0.0901	0.0999	1.40414	0.00036
288.15	0.08	0.1999	1.40197	0.00036
288.15	0.07	0.3	1.39966	0.00036
288.15	0.06	0.4	1.39728	0.00036
288.15	0.05	0.5002	1.39499	0.00036
288.15	0.04	0.6	1.39251	0.00036
288.15	0.0301	0.6998	1.38995	0.00036
288.15	0.02	0.8001	1.38728	0.00036
288.15	0.01	0.8998	1.3845	0.00036
288.15	0.18	0.1002	1.40753	0.00037
288.15	0.1601	0.1999	1.40542	0.00037
288.15	0.1399	0.3	1.40297	0.00037
288.15	0.12	0.3999	1.4004	0.00037
288.15	0.1001	0.4999	1.3977	0.00036
288.15	0.08	0.6001	1.39485	0.00036
288.15	0.0601	0.7	1.39189	0.00036
288.15	0.0401	0.7999	1.38861	0.00036
288.15	0.02	0.9001	1.38521	0.00036
288.15	0.36	0.1	1.41413	0.00037
288.15	0.3197	0.2002	1.41168	0.00037
288.15	0.2801	0.2998	1.40902	0.00037
288.15	0.2401	0.3998	1.40602	0.00037
288.15	0.2002	0.4999	1.4028	0.00037
288.15	0.1601	0.5999	1.39927	0.00037
288.15	0.12	0.6998	1.39567	0.00037
288.15	0.08	0.8001	1.3912	0.00036
288.15	0.0401	0.9001	1.38666	0.00036
288.15	0.5404	0.0997	1.41958	0.00038
288.15	0.4796	0.2007	1.41664	0.00038
288.15	0.42	0.2999	1.41404	0.00038
288.15	0.36	0.4002	1.41076	0.00037
288.15	0.3	0.4999	1.40717	0.00037
288.15	0.24	0.6	1.40318	0.00037
288.15	0.1801	0.6998	1.39877	0.00037
288.15	0.12	0.7998	1.39367	0.00037
288.15	0.0602	0.8998	1.38801	0.00036
288.15	0.7202	0.1	1.42399	0.00039
288.15	0.6397	0.2001	1.4213	0.00038
288.15	0.5597	0.3	1.41828	0.00038
288.15	0.48	0.4001	1.41493	0.00038
288.15	0.3998	0.5005	1.41105	0.00037
288.15	0.3199	0.6001	1.40663	0.00037
288.15	0.2401	0.7001	1.40171	0.00037
288.15	0.1601	0.8	1.39597	0.00037
288.15	0.08	0.8998	1.38931	0.00036
288.15	0.8096	0.1005	1.4259	0.00039
288.15	0.72	0.2002	1.42338	0.00039
288.15	0.6303	0.2998	1.42032	0.00038
288.15	0.5397	0.4002	1.41682	0.00038
288.15	0.45	0.5	1.41287	0.00038
288.15	0.3601	0.5999	1.40834	0.00037
288.15	0.27	0.7	1.40317	0.00037
288.15	0.18	0.7998	1.39712	0.00037
288.15	0.09	0.8997	1.39	0.00036
293.15	0.0901	0.0999	1.4022	0.00036
293.15	0.08	0.1999	1.3998	0.00036
293.15	0.07	0.3	1.39742	0.00036
293.15	0.06	0.4	1.395	0.00036
293.15	0.05	0.5002	1.39267	0.00036
293.15	0.04	0.6	1.39012	0.00036
293.15	0.0301	0.6998	1.3875	0.00036
293.15	0.02	0.8001	1.38479	0.00036
293.15	0.01	0.8998	1.38194	0.00036
293.15	0.18	0.1002	1.40539	0.00037
293.15	0.1601	0.1999	1.40325	0.00037
293.15	0.1399	0.3	1.40074	0.00037
293.15	0.12	0.3999	1.39812	0.00037
293.15	0.1001	0.4999	1.39539	0.00036
293.15	0.08	0.6001	1.39247	0.00036
293.15	0.0601	0.7	1.38947	0.00036
293.15	0.0401	0.7999	1.38614	0.00036
293.15	0.02	0.9001	1.38266	0.00036
293.15	0.36	0.1	1.41198	0.00037
293.15	0.3197	0.2002	1.40951	0.00037
293.15	0.2801	0.2998	1.40679	0.00037
293.15	0.2401	0.3998	1.40378	0.00037
293.15	0.2002	0.4999	1.4005	0.00037
293.15	0.1601	0.5999	1.39693	0.00037
293.15	0.12	0.6998	1.39325	0.00037
293.15	0.08	0.8001	1.38873	0.00036
293.15	0.0401	0.9001	1.38414	0.00036
293.15	0.5404	0.0997	1.41744	0.00038
293.15	0.4796	0.2007	1.41448	0.00038
293.15	0.42	0.2999	1.41183	0.00038
293.15	0.36	0.4002	1.40852	0.00037
293.15	0.3	0.4999	1.40488	0.00037
293.15	0.24	0.6	1.40085	0.00037
293.15	0.1801	0.6998	1.3964	0.00037
293.15	0.12	0.7998	1.39121	0.00037
293.15	0.0602	0.8998	1.38549	0.00036
293.15	0.7202	0.1	1.42187	0.00039
293.15	0.6397	0.2001	1.41915	0.00038
293.15	0.5597	0.3	1.4161	0.00038
293.15	0.48	0.4001	1.41273	0.00038
293.15	0.3998	0.5005	1.4088	0.00037
293.15	0.3199	0.6001	1.40434	0.00037
293.15	0.2401	0.7001	1.39936	0.00037
293.15	0.1601	0.8	1.39355	0.00037
293.15	0.08	0.8998	1.3868	0.00036
293.15	0.8096	0.1005	1.42381	0.00039
293.15	0.72	0.2002	1.42124	0.00039
293.15	0.6303	0.2998	1.41815	0.00038
293.15	0.5397	0.4002	1.41462	0.00038
293.15	0.45	0.5	1.41063	0.00038
293.15	0.3601	0.5999	1.40606	0.00037
293.15	0.27	0.7	1.40083	0.00037
293.15	0.18	0.7998	1.39473	0.00037
293.15	0.09	0.8997	1.38751	0.00036
298.15	0.0901	0.0999	1.3999	0.00036
298.15	0.08	0.1999	1.3976	0.00036
298.15	0.07	0.3	1.3952	0.00036
298.15	0.06	0.4	1.39271	0.00036
298.15	0.05	0.5002	1.39035	0.00036
298.15	0.04	0.6	1.38773	0.00036
298.15	0.0301	0.6998	1.38503	0.00036
298.15	0.02	0.8001	1.38226	0.00036
298.15	0.01	0.8998	1.37939	0.00036
298.15	0.18	0.1002	1.40324	0.00037
298.15	0.1601	0.1999	1.40106	0.00037
298.15	0.1399	0.3	1.39849	0.00037
298.15	0.12	0.3999	1.39584	0.00037
298.15	0.1001	0.4999	1.39305	0.00036
298.15	0.08	0.6001	1.39008	0.00036
298.15	0.0601	0.7	1.38703	0.00036
298.15	0.0401	0.7999	1.38365	0.00036
298.15	0.02	0.9001	1.38012	0.00036
298.15	0.36	0.1	1.40984	0.00037
298.15	0.3197	0.2002	1.40732	0.00037
298.15	0.2801	0.2998	1.40456	0.00037
298.15	0.2401	0.3998	1.4015	0.00037
298.15	0.2002	0.4999	1.3982	0.00037
298.15	0.1601	0.5999	1.39456	0.00037
298.15	0.12	0.6998	1.39081	0.00037
298.15	0.08	0.8001	1.38628	0.00036
298.15	0.0401	0.9001	1.3816	0.00036
298.15	0.5404	0.0997	1.41531	0.00038
298.15	0.4796	0.2007	1.4123	0.00038
298.15	0.42	0.2999	1.40963	0.00038
298.15	0.36	0.4002	1.40627	0.00037
298.15	0.3	0.4999	1.40261	0.00037
298.15	0.24	0.6	1.39852	0.00037
298.15	0.1801	0.6998	1.39401	0.00037
298.15	0.12	0.7998	1.38875	0.00037
298.15	0.0602	0.8998	1.38298	0.00036
298.15	0.7202	0.1	1.41976	0.00039
298.15	0.6397	0.2001	1.417	0.00038
298.15	0.5597	0.3	1.41392	0.00038
298.15	0.48	0.4001	1.41049	0.00038
298.15	0.3998	0.5005	1.40654	0.00037
298.15	0.3199	0.6001	1.40204	0.00037
298.15	0.2401	0.7001	1.39701	0.00037
298.15	0.1601	0.8	1.39111	0.00037
298.15	0.08	0.8998	1.38431	0.00036
298.15	0.8096	0.1005	1.42171	0.00039
298.15	0.72	0.2002	1.41911	0.00039
298.15	0.6303	0.2998	1.41597	0.00038
298.15	0.5397	0.4002	1.41242	0.00038
298.15	0.45	0.5	1.40838	0.00038
298.15	0.3601	0.5999	1.40379	0.00037
298.15	0.27	0.7	1.39849	0.00037
298.15	0.18	0.7998	1.39233	0.00037
298.15	0.09	0.8997	1.385	0.00036
303.15	0.0901	0.0999	1.39778	0.00036
303.15	0.08	0.1999	1.39539	0.00036
303.15	0.07	0.3	1.39291	0.00036
303.15	0.06	0.4	1.39038	0.00036
303.15	0.05	0.5002	1.38795	0.00036
303.15	0.04	0.6	1.3853	0.00036
303.15	0.0301	0.6998	1.38255	0.00036
303.15	0.02	0.8001	1.37972	0.00036
303.15	0.01	0.8998	1.3768	0.00036
303.15	0.18	0.1002	1.40109	0.00037
303.15	0.1601	0.1999	1.39884	0.00037
303.15	0.1399	0.3	1.39622	0.00037
303.15	0.12	0.3999	1.39352	0.00037
303.15	0.1001	0.4999	1.39068	0.00036
303.15	0.08	0.6001	1.38767	0.00036
303.15	0.0601	0.7	1.38458	0.00036
303.15	0.0401	0.7999	1.38113	0.00036
303.15	0.02	0.9001	1.37754	0.00036
303.15	0.36	0.1	1.40769	0.00037
303.15	0.3197	0.2002	1.4051	0.00037
303.15	0.2801	0.2998	1.40232	0.00037
303.15	0.2401	0.3998	1.39921	0.00037
303.15	0.2002	0.4999	1.39585	0.00037
303.15	0.1601	0.5999	1.39219	0.00037
303.15	0.12	0.6998	1.38833	0.00037
303.15	0.08	0.8001	1.38381	0.00036
303.15	0.0401	0.9001	1.37905	0.00036
303.15	0.5404	0.0997	1.41317	0.00038
303.15	0.4796	0.2007	1.4101	0.00038
303.15	0.42	0.2999	1.40741	0.00038
303.15	0.36	0.4002	1.40401	0.00037
303.15	0.3	0.4999	1.40029	0.00037
303.15	0.24	0.6	1.39617	0.00037
303.15	0.1801	0.6998	1.39156	0.00037
303.15	0.12	0.7998	1.38628	0.00037
303.15	0.0602	0.8998	1.38047	0.00036
303.15	0.7202	0.1	1.41765	0.00039
303.15	0.6397	0.2001	1.41486	0.00038
303.15	0.5597	0.3	1.41172	0.00038
303.15	0.48	0.4001	1.40825	0.00038
303.15	0.3998	0.5005	1.40426	0.00037
303.15	0.3199	0.6001	1.39972	0.00037
303.15	0.2401	0.7001	1.39464	0.00037
303.15	0.1601	0.8	1.38869	0.00037
303.15	0.08	0.8998	1.38178	0.00036
303.15	0.8096	0.1005	1.41961	0.00039
303.15	0.72	0.2002	1.41696	0.00039
303.15	0.6303	0.2998	1.41379	0.00038
303.15	0.5397	0.4002	1.41017	0.00038
303.15	0.45	0.5	1.40612	0.00038
303.15	0.3601	0.5999	1.40146	0.00037
303.15	0.27	0.7	1.39612	0.00037
303.15	0.18	0.7998	1.38992	0.00037
303.15	0.09	0.8997	1.3825	0.00036
308.15	0.0901	0.0999	1.39551	0.00036
308.15	0.08	0.1999	1.39317	0.00036
308.15	0.07	0.3	1.39061	0.00036
308.15	0.06	0.4	1.38801	0.00036
308.15	0.05	0.5002	1.38554	0.00036
308.15	0.04	0.6	1.38284	0.00036
308.15	0.0301	0.6998	1.38004	0.00036
308.15	0.02	0.8001	1.37716	0.00036
308.15	0.01	0.8998	1.37416	0.00036
308.15	0.18	0.1002	1.39893	0.00037
308.15	0.1601	0.1999	1.39662	0.00037
308.15	0.1399	0.3	1.39394	0.00037
308.15	0.12	0.3999	1.39118	0.00037
308.15	0.1001	0.4999	1.38829	0.00036
308.15	0.08	0.6001	1.38522	0.00036
308.15	0.0601	0.7	1.38207	0.00036
308.15	0.0401	0.7999	1.37857	0.00036
308.15	0.02	0.9001	1.37491	0.00036
308.15	0.36	0.1	1.40552	0.00037
308.15	0.3197	0.2002	1.40291	0.00037
308.15	0.2801	0.2998	1.40006	0.00037
308.15	0.2401	0.3998	1.39691	0.00037
308.15	0.2002	0.4999	1.3935	0.00037
308.15	0.1601	0.5999	1.38977	0.00037
308.15	0.12	0.6998	1.38584	0.00037
308.15	0.08	0.8001	1.38127	0.00036
308.15	0.0401	0.9001	1.37644	0.00036
308.15	0.5404	0.0997	1.41105	0.00038
308.15	0.4796	0.2007	1.40792	0.00038
308.15	0.42	0.2999	1.40517	0.00038
308.15	0.36	0.4002	1.40174	0.00037
308.15	0.3	0.4999	1.39797	0.00037
308.15	0.24	0.6	1.39379	0.00037
308.15	0.1801	0.6998	1.3891	0.00037
308.15	0.12	0.7998	1.38377	0.00037
308.15	0.0602	0.8998	1.37786	0.00036
308.15	0.7202	0.1	1.41553	0.00039
308.15	0.6397	0.2001	1.41272	0.00038
308.15	0.5597	0.3	1.40953	0.00038
308.15	0.48	0.4001	1.40601	0.00038
308.15	0.3998	0.5005	1.40197	0.00037
308.15	0.3199	0.6001	1.39736	0.00037
308.15	0.2401	0.7001	1.39223	0.00037
308.15	0.1601	0.8	1.38621	0.00037
308.15	0.08	0.8998	1.37922	0.00036
308.15	0.8096	0.1005	1.41752	0.00039
308.15	0.72	0.2002	1.41482	0.00039
308.15	0.6303	0.2998	1.4116	0.00038
308.15	0.5397	0.4002	1.40795	0.00038
308.15	0.45	0.5	1.40386	0.00038
308.15	0.3601	0.5999	1.39913	0.00037
308.15	0.27	0.7	1.39374	0.00037
308.15	0.18	0.7998	1.38744	0.00037
308.15	0.09	0.8997	1.37995	0.00036
313.15	0.0901	0.0999	1.39323	0.00036
313.15	0.08	0.1999	1.39079	0.00036
313.15	0.07	0.3	1.38826	0.00036
313.15	0.06	0.4	1.38562	0.00036
313.15	0.05	0.5002	1.38312	0.00036
313.15	0.04	0.6	1.38034	0.00036
313.15	0.0301	0.6998	1.37751	0.00036
313.15	0.02	0.8001	1.37455	0.00036
313.15	0.01	0.8998	1.37153	0.00036
313.15	0.18	0.1002	1.39674	0.00037
313.15	0.1601	0.1999	1.39434	0.00037
313.15	0.1399	0.3	1.39163	0.00037
313.15	0.12	0.3999	1.38882	0.00037
313.15	0.1001	0.4999	1.38589	0.00036
313.15	0.08	0.6001	1.38275	0.00036
313.15	0.0601	0.7	1.37957	0.00036
313.15	0.0401	0.7999	1.37599	0.00036
313.15	0.02	0.9001	1.3723	0.00036
313.15	0.36	0.1	1.40338	0.00037
313.15	0.3197	0.2002	1.40068	0.00037
313.15	0.2801	0.2998	1.39777	0.00037
313.15	0.2401	0.3998	1.39456	0.00037
313.15	0.2002	0.4999	1.39111	0.00037
313.15	0.1601	0.5999	1.38732	0.00037
313.15	0.12	0.6998	1.38328	0.00037
313.15	0.08	0.8001	1.37872	0.00036
313.15	0.0401	0.9001	1.37382	0.00036
313.15	0.5404	0.0997	1.4089	0.00038
313.15	0.4796	0.2007	1.40573	0.00038
313.15	0.42	0.2999	1.40295	0.00038
313.15	0.36	0.4002	1.39944	0.00037
313.15	0.3	0.4999	1.39563	0.00037
313.15	0.24	0.6	1.39139	0.00037
313.15	0.1801	0.6998	1.38663	0.00037
313.15	0.12	0.7998	1.38123	0.00037
313.15	0.0602	0.8998	1.37527	0.00036
313.15	0.7202	0.1	1.41341	0.00039
313.15	0.6397	0.2001	1.41056	0.00038
313.15	0.5597	0.3	1.40732	0.00038
313.15	0.48	0.4001	1.40374	0.00038
313.15	0.3998	0.5005	1.39965	0.00037
313.15	0.3199	0.6001	1.39499	0.00037
313.15	0.2401	0.7001	1.38979	0.00037
313.15	0.1601	0.8	1.3837	0.00037
313.15	0.08	0.8998	1.37663	0.00036
313.15	0.8096	0.1005	1.4154	0.00039
313.15	0.72	0.2002	1.41268	0.00039
313.15	0.6303	0.2998	1.40941	0.00038
313.15	0.5397	0.4002	1.4057	0.00038
313.15	0.45	0.5	1.40154	0.00038
313.15	0.3601	0.5999	1.39676	0.00037
313.15	0.27	0.7	1.39131	0.00037
313.15	0.18	0.7998	1.38494	0.00037
313.15	0.09	0.8997	1.37736	0.00036
318.15	0.0901	0.0999	1.39103	0.00036
318.15	0.08	0.1999	1.38852	0.00036
318.15	0.07	0.3	1.38587	0.00036
318.15	0.06	0.4	1.38315	0.00036
318.15	0.05	0.5002	1.3806	0.00036
318.15	0.04	0.6	1.37778	0.00036
318.15	0.0301	0.6998	1.3749	0.00036
318.15	0.02	0.8001	1.37192	0.00036
318.15	0.01	0.8998	1.36884	0.00036
318.15	0.18	0.1002	1.39459	0.00037
318.15	0.1601	0.1999	1.39208	0.00037
318.15	0.1399	0.3	1.38929	0.00037
318.15	0.12	0.3999	1.38639	0.00037
318.15	0.1001	0.4999	1.38341	0.00036
318.15	0.08	0.6001	1.38022	0.00036
318.15	0.0601	0.7	1.37698	0.00036
318.15	0.0401	0.7999	1.37338	0.00036
318.15	0.02	0.9001	1.36963	0.00036
318.15	0.36	0.1	1.40125	0.00037
318.15	0.3197	0.2002	1.39845	0.00037
318.15	0.2801	0.2998	1.39549	0.00037
318.15	0.2401	0.3998	1.3922	0.00037
318.15	0.2002	0.4999	1.3887	0.00037
318.15	0.1601	0.5999	1.38485	0.00037
318.15	0.12	0.6998	1.38072	0.00037
318.15	0.08	0.8001	1.37611	0.00036
318.15	0.0401	0.9001	1.37115	0.00036
318.15	0.5404	0.0997	1.40681	0.00038
318.15	0.4796	0.2007	1.40353	0.00038
318.15	0.42	0.2999	1.40068	0.00038
318.15	0.36	0.4002	1.39711	0.00037
318.15	0.3	0.4999	1.39325	0.00037
318.15	0.24	0.6	1.38894	0.00037
318.15	0.1801	0.6998	1.38409	0.00037
318.15	0.12	0.7998	1.37863	0.00037
318.15	0.0602	0.8998	1.37259	0.00036
318.15	0.7202	0.1	1.41141	0.00039
318.15	0.6397	0.2001	1.40843	0.00038
318.15	0.5597	0.3	1.40508	0.00038
318.15	0.48	0.4001	1.40147	0.00038
318.15	0.3998	0.5005	1.39729	0.00037
318.15	0.3199	0.6001	1.39258	0.00037
318.15	0.2401	0.7001	1.38728	0.00037
318.15	0.1601	0.8	1.38113	0.00037
318.15	0.08	0.8998	1.37398	0.00036
318.15	0.8096	0.1005	1.4134	0.00039
318.15	0.72	0.2002	1.41051	0.00039
318.15	0.6303	0.2998	1.4072	0.00038
318.15	0.5397	0.4002	1.40344	0.00038
318.15	0.45	0.5	1.39921	0.00038
318.15	0.3601	0.5999	1.39436	0.00037
318.15	0.27	0.7	1.38886	0.00037
318.15	0.18	0.7998	1.38241	0.00037
318.15	0.09	0.8997	1.37473	0.00036
323.15	0.0901	0.0999	1.38878	0.00036
323.15	0.08	0.1999	1.38619	0.00036
323.15	0.07	0.3	1.38353	0.00036
323.15	0.06	0.4	1.3807	0.00036
323.15	0.05	0.5002	1.37808	0.00036
323.15	0.04	0.6	1.3752	0.00036
323.15	0.0301	0.6998	1.37227	0.00036
323.15	0.02	0.8001	1.36925	0.00036
323.15	0.01	0.8998	1.36615	0.00036
323.15	0.18	0.1002	1.39239	0.00037
323.15	0.1601	0.1999	1.3898	0.00037
323.15	0.1399	0.3	1.38693	0.00037
323.15	0.12	0.3999	1.38398	0.00037
323.15	0.1001	0.4999	1.38094	0.00036
323.15	0.08	0.6001	1.37768	0.00036
323.15	0.0601	0.7	1.37435	0.00036
323.15	0.0401	0.7999	1.37072	0.00036
323.15	0.02	0.9001	1.36692	0.00036
323.15	0.36	0.1	1.3991	0.00037
323.15	0.3197	0.2002	1.39621	0.00037
323.15	0.2801	0.2998	1.39318	0.00037
323.15	0.2401	0.3998	1.38981	0.00037
323.15	0.2002	0.4999	1.3862	0.00037
323.15	0.1601	0.5999	1.3823	0.00037
323.15	0.12	0.6998	1.37808	0.00037
323.15	0.08	0.8001	1.37347	0.00036
323.15	0.0401	0.9001	1.36843	0.00036
323.15	0.5404	0.0997	1.40465	0.00038
323.15	0.4796	0.2007	1.40131	0.00038
323.15	0.42	0.2999	1.39843	0.00038
323.15	0.36	0.4002	1.39479	0.00037
323.15	0.3	0.4999	1.39082	0.00037
323.15	0.24	0.6	1.38645	0.00037
323.15	0.1801	0.6998	1.38153	0.00037
323.15	0.12	0.7998	1.376	0.00037
323.15	0.0602	0.8998	1.36984	0.00036
323.15	0.7202	0.1	1.40932	0.00039
323.15	0.6397	0.2001	1.40628	0.00038
323.15	0.5597	0.3	1.40285	0.00038
323.15	0.48	0.4001	1.39914	0.00038
323.15	0.3998	0.5005	1.39494	0.00037
323.15	0.3199	0.6001	1.39015	0.00037
323.15	0.2401	0.7001	1.38475	0.00037
323.15	0.1601	0.8	1.3785	0.00037
323.15	0.08	0.8998	1.3713	0.00036
323.15	0.8096	0.1005	1.41132	0.00039
323.15	0.72	0.2002	1.40836	0.00039
323.15	0.6303	0.2998	1.40497	0.00038
323.15	0.5397	0.4002	1.40114	0.00038
323.15	0.45	0.5	1.39687	0.00038
323.15	0.3601	0.5999	1.39196	0.00037
323.15	0.27	0.7	1.38637	0.00037
323.15	0.18	0.7998	1.37984	0.00037
323.15	0.09	0.8997	1.37201	0.00036

System: butan-1-ol + butanone + dimethyl 1,6-hexanedioate; phases: Liquid
Fixed: Pressure, kPa = 100
Property: Viscosity, Pa*s (Liquid); method: Concentric cylinders viscometry
Temperature, K	Mole fraction of dimethyl 1,6-hexanedioate	Mole fraction of butanone	Viscosity, Pa*s	uncertainty
288.15	0.0901	0.0999	0.0020071	1.23e-05
288.15	0.08	0.1999	0.0015842	1.09e-05
288.15	0.07	0.3	0.0012601	9.9e-06
288.15	0.06	0.4	0.0010286	9.2e-06
288.15	0.05	0.5002	0.0008606	8.8e-06
288.15	0.04	0.6	0.0007269	8.4e-06
288.15	0.0301	0.6998	0.0006248	8.2e-06
288.15	0.02	0.8001	0.0005424	8e-06
288.15	0.01	0.8998	0.0004782	7.8e-06
288.15	0.18	0.1002	0.0019404	1.23e-05
288.15	0.1601	0.1999	0.0015817	1.11e-05
288.15	0.1399	0.3	0.0012927	1.01e-05
288.15	0.12	0.3999	0.0010833	9.4e-06
288.15	0.1001	0.4999	0.0009014	8.9e-06
288.15	0.08	0.6001	0.0007638	8.5e-06
288.15	0.0601	0.7	0.0006515	8.2e-06
288.15	0.0401	0.7999	0.0005613	8e-06
288.15	0.02	0.9001	0.0004884	7.9e-06
288.15	0.36	0.1	0.002023	1.31e-05
288.15	0.3197	0.2002	0.0016901	1.17e-05
288.15	0.2801	0.2998	0.0014204	1.07e-05
288.15	0.2401	0.3998	0.0011934	9.9e-06
288.15	0.2002	0.4999	0.0010035	9.3e-06
288.15	0.1601	0.5999	0.0008431	8.8e-06
288.15	0.12	0.6998	0.000715	8.4e-06
288.15	0.08	0.8001	0.0005996	8.1e-06
288.15	0.0401	0.9001	0.0005066	7.9e-06
288.15	0.5404	0.0997	0.0022569	1.45e-05
288.15	0.4796	0.2007	0.0018817	1.28e-05
288.15	0.42	0.2999	0.0016062	1.16e-05
288.15	0.36	0.4002	0.0013466	1.06e-05
288.15	0.3	0.4999	0.0011277	9.7e-06
288.15	0.24	0.6	0.0009397	9.1e-06
288.15	0.1801	0.6998	0.00078	8.6e-06
288.15	0.12	0.7998	0.0006401	8.2e-06
288.15	0.0602	0.8998	0.0005233	7.9e-06
288.15	0.7202	0.1	0.0026274	1.69e-05
288.15	0.6397	0.2001	0.0022262	1.47e-05
288.15	0.5597	0.3	0.0018633	1.29e-05
288.15	0.48	0.4001	0.0015527	1.15e-05
288.15	0.3998	0.5005	0.001283	1.04e-05
288.15	0.3199	0.6001	0.0010554	9.5e-06
288.15	0.2401	0.7001	0.0008557	8.9e-06
288.15	0.1601	0.8	0.00069	8.4e-06
288.15	0.08	0.8998	0.0005479	8e-06
288.15	0.8096	0.1005	0.0028758	1.85e-05
288.15	0.72	0.2002	0.0024251	1.59e-05
288.15	0.6303	0.2998	0.0020387	1.39e-05
288.15	0.5397	0.4002	0.0016924	1.22e-05
288.15	0.45	0.5	0.0013921	1.09e-05
288.15	0.3601	0.5999	0.0011223	9.8e-06
288.15	0.27	0.7	0.0009041	9e-06
288.15	0.18	0.7998	0.0007226	8.5e-06
288.15	0.09	0.8997	0.0005559	8e-06
293.15	0.0901	0.0999	0.001792	1.16e-05
293.15	0.08	0.1999	0.0014331	1.05e-05
293.15	0.07	0.3	0.0011534	9.6e-06
293.15	0.06	0.4	0.0009492	9e-06
293.15	0.05	0.5002	0.0008015	8.6e-06
293.15	0.04	0.6	0.0006821	8.3e-06
293.15	0.0301	0.6998	0.0005908	8.1e-06
293.15	0.02	0.8001	0.000516	7.9e-06
293.15	0.01	0.8998	0.0004576	7.8e-06
293.15	0.18	0.1002	0.0017373	1.16e-05
293.15	0.1601	0.1999	0.0014321	1.05e-05
293.15	0.1399	0.3	0.0011817	9.7e-06
293.15	0.12	0.3999	0.0010001	9.2e-06
293.15	0.1001	0.4999	0.0008386	8.7e-06
293.15	0.08	0.6001	0.0007164	8.4e-06
293.15	0.0601	0.7	0.0006157	8.2e-06
293.15	0.0401	0.7999	0.0005339	8e-06
293.15	0.02	0.9001	0.0004673	7.8e-06
293.15	0.36	0.1	0.0018134	1.23e-05
293.15	0.3197	0.2002	0.0015293	1.11e-05
293.15	0.2801	0.2998	0.0012968	1.03e-05
293.15	0.2401	0.3998	0.0010991	9.6e-06
293.15	0.2002	0.4999	0.0009314	9.1e-06
293.15	0.1601	0.5999	0.0007887	8.6e-06
293.15	0.12	0.6998	0.0006749	8.3e-06
293.15	0.08	0.8001	0.0005692	8.1e-06
293.15	0.0401	0.9001	0.0004842	7.9e-06
293.15	0.5404	0.0997	0.0020195	1.35e-05
293.15	0.4796	0.2007	0.0016994	1.21e-05
293.15	0.42	0.2999	0.0014621	1.11e-05
293.15	0.36	0.4002	0.0012363	1.02e-05
293.15	0.3	0.4999	0.0010445	9.5e-06
293.15	0.24	0.6	0.0008765	8.9e-06
293.15	0.1801	0.6998	0.0007342	8.5e-06
293.15	0.12	0.7998	0.0006073	8.2e-06
293.15	0.0602	0.8998	0.0004998	7.9e-06
293.15	0.7202	0.1	0.0023419	1.56e-05
293.15	0.6397	0.2001	0.0020034	1.38e-05
293.15	0.5597	0.3	0.0016918	1.22e-05
293.15	0.48	0.4001	0.0014215	1.1e-05
293.15	0.3998	0.5005	0.0011846	1e-05
293.15	0.3199	0.6001	0.0009819	9.3e-06
293.15	0.2401	0.7001	0.0008026	8.7e-06
293.15	0.1601	0.8	0.0006535	8.3e-06
293.15	0.08	0.8998	0.0005233	8e-06
293.15	0.8096	0.1005	0.0025585	1.7e-05
293.15	0.72	0.2002	0.0021755	1.48e-05
293.15	0.6303	0.2998	0.0018471	1.3e-05
293.15	0.5397	0.4002	0.0015458	1.16e-05
293.15	0.45	0.5	0.0012818	1.05e-05
293.15	0.3601	0.5999	0.0010431	9.5e-06
293.15	0.27	0.7	0.0008473	8.9e-06
293.15	0.18	0.7998	0.0006839	8.4e-06
293.15	0.09	0.8997	0.0005303	8e-06
298.15	0.0901	0.0999	0.0016084	1.1e-05
298.15	0.08	0.1999	0.001304	1.01e-05
298.15	0.07	0.3	0.0010605	9.3e-06
298.15	0.06	0.4	0.0008768	8.8e-06
298.15	0.05	0.5002	0.0007478	8.5e-06
298.15	0.04	0.6	0.0006403	8.2e-06
298.15	0.0301	0.6998	0.0005591	8e-06
298.15	0.02	0.8001	0.0004909	7.9e-06
298.15	0.01	0.8998	0.0004371	7.7e-06
298.15	0.18	0.1002	0.0015662	1.1e-05
298.15	0.1601	0.1999	0.001307	1.02e-05
298.15	0.1399	0.3	0.0010846	9.5e-06
298.15	0.12	0.3999	0.000927	9e-06
298.15	0.1001	0.4999	0.0007817	8.6e-06
298.15	0.08	0.6001	0.0006718	8.3e-06
298.15	0.0601	0.7	0.0005816	8.1e-06
298.15	0.0401	0.7999	0.0005074	7.9e-06
298.15	0.02	0.9001	0.0004472	7.8e-06
298.15	0.36	0.1	0.0016375	1.16e-05
298.15	0.3197	0.2002	0.0013926	1.07e-05
298.15	0.2801	0.2998	0.0011883	9.9e-06
298.15	0.2401	0.3998	0.0010145	9.3e-06
298.15	0.2002	0.4999	0.0008664	8.9e-06
298.15	0.1601	0.5999	0.0007389	8.5e-06
298.15	0.12	0.6998	0.0006371	8.2e-06
298.15	0.08	0.8001	0.0005394	8e-06
298.15	0.0401	0.9001	0.0004618	7.8e-06
298.15	0.5404	0.0997	0.0018225	1.27e-05
298.15	0.4796	0.2007	0.0015463	1.15e-05
298.15	0.42	0.2999	0.001338	1.06e-05
298.15	0.36	0.4002	0.0011389	9.8e-06
298.15	0.3	0.4999	0.0009715	9.3e-06
298.15	0.24	0.6	0.0008204	8.8e-06
298.15	0.1801	0.6998	0.0006915	8.4e-06
298.15	0.12	0.7998	0.0005756	8.1e-06
298.15	0.0602	0.8998	0.0004779	7.8e-06
298.15	0.7202	0.1	0.0021019	1.44e-05
298.15	0.6397	0.2001	0.0018141	1.29e-05
298.15	0.5597	0.3	0.0015424	1.16e-05
298.15	0.48	0.4001	0.0013088	1.06e-05
298.15	0.3998	0.5005	0.0010968	9.7e-06
298.15	0.3199	0.6001	0.0009151	9.1e-06
298.15	0.2401	0.7001	0.0007537	8.6e-06
298.15	0.1601	0.8	0.0006185	8.2e-06
298.15	0.08	0.8998	0.0004991	7.9e-06
298.15	0.8096	0.1005	0.0022916	1.57e-05
298.15	0.72	0.2002	0.0019643	1.38e-05
298.15	0.6303	0.2998	0.0016824	1.23e-05
298.15	0.5397	0.4002	0.0014191	1.11e-05
298.15	0.45	0.5	0.0011867	1.01e-05
298.15	0.3601	0.5999	0.0009718	9.3e-06
298.15	0.27	0.7	0.0007967	8.7e-06
298.15	0.18	0.7998	0.0006451	8.3e-06
298.15	0.09	0.8997	0.0005049	7.9e-06
303.15	0.0901	0.0999	0.0014526	1.05e-05
303.15	0.08	0.1999	0.0011908	9.7e-06
303.15	0.07	0.3	0.0009795	9.1e-06
303.15	0.06	0.4	0.0008147	8.7e-06
303.15	0.05	0.5002	0.0006993	8.4e-06
303.15	0.04	0.6	0.0006027	8.1e-06
303.15	0.0301	0.6998	0.0005286	8e-06
303.15	0.02	0.8001	0.0004664	7.8e-06
303.15	0.01	0.8998	0.0004175	7.7e-06
303.15	0.18	0.1002	0.0014183	1.05e-05
303.15	0.1601	0.1999	0.001196	9.8e-06
303.15	0.1399	0.3	0.0009999	9.2e-06
303.15	0.12	0.3999	0.0008635	8.8e-06
303.15	0.1001	0.4999	0.0007309	8.5e-06
303.15	0.08	0.6001	0.0006312	8.2e-06
303.15	0.0601	0.7	0.0005498	8e-06
303.15	0.0401	0.7999	0.000481	7.8e-06
303.15	0.02	0.9001	0.0004256	7.7e-06
303.15	0.36	0.1	0.0014864	1.1e-05
303.15	0.3197	0.2002	0.0012741	1.02e-05
303.15	0.2801	0.2998	0.0010964	9.6e-06
303.15	0.2401	0.3998	0.0009427	9.1e-06
303.15	0.2002	0.4999	0.0008091	8.7e-06
303.15	0.1601	0.5999	0.000694	8.4e-06
303.15	0.12	0.6998	0.0006025	8.1e-06
303.15	0.08	0.8001	0.0005125	7.9e-06
303.15	0.0401	0.9001	0.0004402	7.8e-06
303.15	0.5404	0.0997	0.0016538	1.2e-05
303.15	0.4796	0.2007	0.0014129	1.1e-05
303.15	0.42	0.2999	0.0012313	1.02e-05
303.15	0.36	0.4002	0.0010555	9.6e-06
303.15	0.3	0.4999	0.0009072	9.1e-06
303.15	0.24	0.6	0.0007686	8.6e-06
303.15	0.1801	0.6998	0.0006533	8.3e-06
303.15	0.12	0.7998	0.0005465	8e-06
303.15	0.0602	0.8998	0.0004554	7.8e-06
303.15	0.7202	0.1	0.0019053	1.35e-05
303.15	0.6397	0.2001	0.0016554	1.23e-05
303.15	0.5597	0.3	0.0014179	1.11e-05
303.15	0.48	0.4001	0.0012088	1.02e-05
303.15	0.3998	0.5005	0.0010216	9.5e-06
303.15	0.3199	0.6001	0.0008564	8.9e-06
303.15	0.2401	0.7001	0.000709	8.5e-06
303.15	0.1601	0.8	0.0005852	8.1e-06
303.15	0.08	0.8998	0.0004759	7.8e-06
303.15	0.8096	0.1005	0.002071	1.46e-05
303.15	0.72	0.2002	0.001789	1.3e-05
303.15	0.6303	0.2998	0.0015435	1.18e-05
303.15	0.5397	0.4002	0.0013098	1.07e-05
303.15	0.45	0.5	0.0011014	9.8e-06
303.15	0.3601	0.5999	0.000909	9.1e-06
303.15	0.27	0.7	0.0007497	8.6e-06
303.15	0.18	0.7998	0.0006109	8.2e-06
303.15	0.09	0.8997	0.0004838	7.9e-06
308.15	0.0901	0.0999	0.0013164	1.01e-05
308.15	0.08	0.1999	0.0010913	9.4e-06
308.15	0.07	0.3	0.0009068	8.9e-06
308.15	0.06	0.4	0.0007575	8.5e-06
308.15	0.05	0.5002	0.0006544	8.2e-06
308.15	0.04	0.6	0.0005672	8e-06
308.15	0.0301	0.6998	0.0004998	7.9e-06
308.15	0.02	0.8001	0.0004425	7.8e-06
308.15	0.01	0.8998	0.0003976	7.7e-06
308.15	0.18	0.1002	0.0012906	1.01e-05
308.15	0.1601	0.1999	0.0010985	9.5e-06
308.15	0.1399	0.3	0.0009242	9e-06
308.15	0.12	0.3999	0.0008064	8.7e-06
308.15	0.1001	0.4999	0.0006839	8.3e-06
308.15	0.08	0.6001	0.0005941	8.1e-06
308.15	0.0601	0.7	0.0005189	7.9e-06
308.15	0.0401	0.7999	0.0004571	7.8e-06
308.15	0.02	0.9001	0.0004052	7.7e-06
308.15	0.36	0.1	0.001356	1.06e-05
308.15	0.3197	0.2002	0.0011699	9.9e-06
308.15	0.2801	0.2998	0.0010137	9.4e-06
308.15	0.2401	0.3998	0.0008764	8.9e-06
308.15	0.2002	0.4999	0.0007565	8.6e-06
308.15	0.1601	0.5999	0.0006518	8.3e-06
308.15	0.12	0.6998	0.0005697	8.1e-06
308.15	0.08	0.8001	0.0004859	7.9e-06
308.15	0.0401	0.9001	0.0004192	7.7e-06
308.15	0.5404	0.0997	0.0015095	1.15e-05
308.15	0.4796	0.2007	0.0012972	1.05e-05
308.15	0.42	0.2999	0.001137	9.9e-06
308.15	0.36	0.4002	0.0009803	9.3e-06
308.15	0.3	0.4999	0.0008519	8.9e-06
308.15	0.24	0.6	0.0007209	8.5e-06
308.15	0.1801	0.6998	0.0006168	8.2e-06
308.15	0.12	0.7998	0.0005179	7.9e-06
308.15	0.0602	0.8998	0.000434	7.7e-06
308.15	0.7202	0.1	0.0017344	1.28e-05
308.15	0.6397	0.2001	0.0015175	1.17e-05
308.15	0.5597	0.3	0.001307	1.07e-05
308.15	0.48	0.4001	0.0011212	9.9e-06
308.15	0.3998	0.5005	0.0009525	9.3e-06
308.15	0.3199	0.6001	0.0008016	8.8e-06
308.15	0.2401	0.7001	0.0006716	8.4e-06
308.15	0.1601	0.8	0.0005552	8e-06
308.15	0.08	0.8998	0.0004524	7.8e-06
308.15	0.8096	0.1005	0.0018832	1.37e-05
308.15	0.72	0.2002	0.0016358	1.24e-05
308.15	0.6303	0.2998	0.0014207	1.13e-05
308.15	0.5397	0.4002	0.0012132	1.03e-05
308.15	0.45	0.5	0.0010259	9.6e-06
308.15	0.3601	0.5999	0.0008523	8.9e-06
308.15	0.27	0.7	0.0007064	8.5e-06
308.15	0.18	0.7998	0.0005783	8.1e-06
308.15	0.09	0.8997	0.000458	7.8e-06
313.15	0.0901	0.0999	0.0011971	9.7e-06
313.15	0.08	0.1999	0.001003	9.2e-06
313.15	0.07	0.3	0.0008418	8.7e-06
313.15	0.06	0.4	0.0007053	8.4e-06
313.15	0.05	0.5002	0.0006126	8.1e-06
313.15	0.04	0.6	0.000534	8e-06
313.15	0.0301	0.6998	0.0004724	7.8e-06
313.15	0.02	0.8001	0.0004198	7.7e-06
313.15	0.01	0.8998	0.0003782	7.6e-06
313.15	0.18	0.1002	0.0011787	9.8e-06
313.15	0.1601	0.1999	0.0010122	9.3e-06
313.15	0.1399	0.3	0.0008562	8.8e-06
313.15	0.12	0.3999	0.0007549	8.5e-06
313.15	0.1001	0.4999	0.0006405	8.2e-06
313.15	0.08	0.6001	0.0005591	8e-06
313.15	0.0601	0.7	0.0004897	7.9e-06
313.15	0.0401	0.7999	0.0004335	7.7e-06
313.15	0.02	0.9001	0.0003852	7.6e-06
313.15	0.36	0.1	0.0012419	1.02e-05
313.15	0.3197	0.2002	0.0010786	9.6e-06
313.15	0.2801	0.2998	0.0009396	9.1e-06
313.15	0.2401	0.3998	0.0008167	8.8e-06
313.15	0.2002	0.4999	0.0007086	8.4e-06
313.15	0.1601	0.5999	0.000613	8.2e-06
313.15	0.12	0.6998	0.0005397	8e-06
313.15	0.08	0.8001	0.0004606	7.8e-06
313.15	0.0401	0.9001	0.0003987	7.7e-06
313.15	0.5404	0.0997	0.0013831	1.1e-05
313.15	0.4796	0.2007	0.001196	1.02e-05
313.15	0.42	0.2999	0.0010536	9.6e-06
313.15	0.36	0.4002	0.0009127	9.1e-06
313.15	0.3	0.4999	0.0008008	8.7e-06
313.15	0.24	0.6	0.0006778	8.4e-06
313.15	0.1801	0.6998	0.0005827	8.1e-06
313.15	0.12	0.7998	0.0004909	7.9e-06
313.15	0.0602	0.8998	0.0004132	7.7e-06
313.15	0.7202	0.1	0.0015872	1.21e-05
313.15	0.6397	0.2001	0.0013962	1.12e-05
313.15	0.5597	0.3	0.001209	1.03e-05
313.15	0.48	0.4001	0.0010436	9.7e-06
313.15	0.3998	0.5005	0.0008896	9.1e-06
313.15	0.3199	0.6001	0.0007525	8.6e-06
313.15	0.2401	0.7001	0.0006393	8.3e-06
313.15	0.1601	0.8	0.0005258	8e-06
313.15	0.08	0.8998	0.0004315	7.7e-06
313.15	0.8096	0.1005	0.0017205	1.29e-05
313.15	0.72	0.2002	0.0015036	1.18e-05
313.15	0.6303	0.2998	0.0013129	1.08e-05
313.15	0.5397	0.4002	0.0011276	1e-05
313.15	0.45	0.5	0.0009584	9.3e-06
313.15	0.3601	0.5999	0.0008002	8.8e-06
313.15	0.27	0.7	0.0006664	8.4e-06
313.15	0.18	0.7998	0.0005475	8e-06
313.15	0.09	0.8997	0.0004355	7.8e-06
318.15	0.0901	0.0999	0.0010922	9.4e-06
318.15	0.08	0.1999	0.0009242	9e-06
318.15	0.07	0.3	0.000783	8.6e-06
318.15	0.06	0.4	0.0006576	8.3e-06
318.15	0.05	0.5002	0.0005743	8.1e-06
318.15	0.04	0.6	0.000503	7.9e-06
318.15	0.0301	0.6998	0.0004463	7.8e-06
318.15	0.02	0.8001	0.0003978	7.7e-06
318.15	0.01	0.8998	0.0003592	7.6e-06
318.15	0.18	0.1002	0.0010804	9.5e-06
318.15	0.1601	0.1999	0.0009342	9e-06
318.15	0.1399	0.3	0.000795	8.6e-06
318.15	0.12	0.3999	0.0007085	8.4e-06
318.15	0.1001	0.4999	0.0006007	8.1e-06
318.15	0.08	0.6001	0.0005264	8e-06
318.15	0.0601	0.7	0.0004624	7.8e-06
318.15	0.0401	0.7999	0.0004109	7.7e-06
318.15	0.02	0.9001	0.0003659	7.6e-06
318.15	0.36	0.1	0.0011417	9.9e-06
318.15	0.3197	0.2002	0.0009973	9.3e-06
318.15	0.2801	0.2998	0.0008733	8.9e-06
318.15	0.2401	0.3998	0.0007627	8.6e-06
318.15	0.2002	0.4999	0.0006648	8.3e-06
318.15	0.1601	0.5999	0.0005771	8.1e-06
318.15	0.12	0.6998	0.0005101	7.9e-06
318.15	0.08	0.8001	0.0004364	7.8e-06
318.15	0.0401	0.9001	0.0003789	7.6e-06
318.15	0.5404	0.0997	0.0012733	1.05e-05
318.15	0.4796	0.2007	0.0011097	9.9e-06
318.15	0.42	0.2999	0.0009791	9.4e-06
318.15	0.36	0.4002	0.0008526	8.9e-06
318.15	0.3	0.4999	0.0007543	8.6e-06
318.15	0.24	0.6	0.0006377	8.3e-06
318.15	0.1801	0.6998	0.000551	8e-06
318.15	0.12	0.7998	0.0004647	7.8e-06
318.15	0.0602	0.8998	0.0003928	7.7e-06
318.15	0.7202	0.1	0.001459	1.16e-05
318.15	0.6397	0.2001	0.00129	1.08e-05
318.15	0.5597	0.3	0.0011231	1e-05
318.15	0.48	0.4001	0.0009735	9.4e-06
318.15	0.3998	0.5005	0.0008334	8.9e-06
318.15	0.3199	0.6001	0.0007077	8.5e-06
318.15	0.2401	0.7001	0.000608	8.2e-06
318.15	0.1601	0.8	0.0004984	7.9e-06
318.15	0.08	0.8998	0.0004103	7.7e-06
318.15	0.8096	0.1005	0.0015812	1.23e-05
318.15	0.72	0.2002	0.0013871	1.13e-05
318.15	0.6303	0.2998	0.0012171	1.05e-05
318.15	0.5397	0.4002	0.0010513	9.7e-06
318.15	0.45	0.5	0.0008978	9.1e-06
318.15	0.3601	0.5999	0.0007526	8.6e-06
318.15	0.27	0.7	0.0006288	8.3e-06
318.15	0.18	0.7998	0.0005189	8e-06
318.15	0.09	0.8997	0.000414	7.7e-06
323.15	0.0901	0.0999	0.0010149	9.2e-06
323.15	0.08	0.1999	0.0008634	8.8e-06
323.15	0.07	0.3	0.0007327	8.4e-06
323.15	0.06	0.4	0.0006206	8.2e-06
323.15	0.05	0.5002	0.0005412	8e-06
323.15	0.04	0.6	0.0004788	7.8e-06
323.15	0.0301	0.6998	0.0004247	7.7e-06
323.15	0.02	0.8001	0.000379	7.6e-06
323.15	0.01	0.8998	0.0003431	7.6e-06
323.15	0.18	0.1002	0.001007	9.3e-06
323.15	0.1601	0.1999	0.0008669	8.8e-06
323.15	0.1399	0.3	0.000747	8.5e-06
323.15	0.12	0.3999	0.0006676	8.3e-06
323.15	0.1001	0.4999	0.0005697	8.1e-06
323.15	0.08	0.6001	0.0005007	7.9e-06
323.15	0.0601	0.7	0.0004398	7.8e-06
323.15	0.0401	0.7999	0.0003934	7.7e-06
323.15	0.02	0.9001	0.0003489	7.6e-06
323.15	0.36	0.1	0.0010653	9.6e-06
323.15	0.3197	0.2002	0.000935	9.2e-06
323.15	0.2801	0.2998	0.0008217	8.8e-06
323.15	0.2401	0.3998	0.0007198	8.5e-06
323.15	0.2002	0.4999	0.0006294	8.2e-06
323.15	0.1601	0.5999	0.0005519	8e-06
323.15	0.12	0.6998	0.0004829	7.9e-06
323.15	0.08	0.8001	0.0004171	7.7e-06
323.15	0.0401	0.9001	0.0003622	7.6e-06
323.15	0.5404	0.0997	0.0011891	1.02e-05
323.15	0.4796	0.2007	0.0010421	9.6e-06
323.15	0.42	0.2999	0.0009262	9.2e-06
323.15	0.36	0.4002	0.0008065	8.8e-06
323.15	0.3	0.4999	0.0007268	8.5e-06
323.15	0.24	0.6	0.0006052	8.2e-06
323.15	0.1801	0.6998	0.0005246	8e-06
323.15	0.12	0.7998	0.0004437	7.8e-06
323.15	0.0602	0.8998	0.0003747	7.6e-06
323.15	0.7202	0.1	0.0013635	1.12e-05
323.15	0.6397	0.2001	0.0012108	1.05e-05
323.15	0.5597	0.3	0.0010572	9.8e-06
323.15	0.48	0.4001	0.000917	9.2e-06
323.15	0.3998	0.5005	0.0007933	8.8e-06
323.15	0.3199	0.6001	0.000672	8.4e-06
323.15	0.2401	0.7001	0.0005834	8.1e-06
323.15	0.1601	0.8	0.0004786	7.9e-06
323.15	0.08	0.8998	0.0003916	7.7e-06
323.15	0.8096	0.1005	0.0014759	1.18e-05
323.15	0.72	0.2002	0.0012962	1.09e-05
323.15	0.6303	0.2998	0.0011457	1.02e-05
323.15	0.5397	0.4002	0.0009922	9.5e-06
323.15	0.45	0.5	0.0008529	9e-06
323.15	0.3601	0.5999	0.0007289	8.6e-06
323.15	0.27	0.7	0.0005994	8.2e-06
323.15	0.18	0.7998	0.0005001	7.9e-06
323.15	0.09	0.8997	0.0003959	7.7e-06
