Measured thermophysical data. Physiochemical properties of new formulations of 1-ethyl-3- methylimidazolium bis(trifluoromethylsulfonyl)imide with Tritons
Source: J. Chem. Eng. Data, 2014, 10.1021/je500502a
Compound 1: 1-ethyl-3-methylimidazolium bis((trifluoromethyl)sulfonyl)imide, C8H11F6N3O4S2, InChI=1S/C6H11N2.C2F6NO4S2/c1-3-8-5-4-7(2)6-8;3-1(4,5)14(10,11)9-15(12,13)2(6,7)8/h4-6H,3H2,1-2H3;/q+1;-1, purity 98%

System: 1-ethyl-3-methylimidazolium bis((trifluoromethyl)sulfonyl)imide; phases: Liquid
Fixed: Pressure, kPa = 101.325
Property: Mass density, kg/m3 (Liquid); method: Vibrating tube method
Temperature, K	Mass density, kg/m3	uncertainty
293.15	1521.469	2.106
298.15	1516.391	2.092
303.15	1511.324	2.078
308.15	1506.269	2.064
313.15	1501.235	2.049
318.15	1496.215	2.035
323.15	1491.207	2.021

System: 1-ethyl-3-methylimidazolium bis((trifluoromethyl)sulfonyl)imide; phases: Liquid
Fixed: Pressure, kPa = 101.325
Property: Speed of sound, m/s (Liquid); method: Sing-around technique in a fixed-path interferometer
Temperature, K	Speed of sound, m/s	uncertainty
293.15	1251.24	2.11
298.15	1240.26	2.11
303.15	1229.36	2.11
308.15	1218.51	2.11
313.15	1207.85	2.11
318.15	1197.25	2.1
323.15	1186.74	2.1

System: 1-ethyl-3-methylimidazolium bis((trifluoromethyl)sulfonyl)imide; phases: Liquid
Fixed: Pressure, kPa = 101.325
Property: Electrical conductivity, S/m (Liquid); method: PICO digital conductivity meter
Temperature, K	Electrical conductivity, S/m	uncertainty
293.15	0.854	0.014
298.15	0.947	0.015
303.15	1.068	0.017
308.15	1.192	0.019
313.15	1.329	0.021
318.15	1.484	0.024
323.15	1.643	0.026

System: 1-ethyl-3-methylimidazolium bis((trifluoromethyl)sulfonyl)imide; phases: Liquid
Fixed: Pressure, kPa = 101.325
Property: Refractive index (Na D-line) (Liquid); method: Standard Abbe refractometry
Temperature, K	Refractive index (Na D-line)	uncertainty
293.15	1.424254	0.000598
298.15	1.42286	0.0006
303.15	1.421425	0.000603
308.15	1.419974	0.000604
313.15	1.418505	0.000605
318.15	1.417048	0.000606
323.15	1.415546	0.000608
