Measured thermophysical data. Density, Viscosity, Speed of Sound, and Refractive Index of a Ternary Solution of Aspirin, 1-Butyl-3-methylimidazolium Bromide, and Acetonitrile at Different Temperatures T = (288.15 to 318.15) K
Source: J. Chem. Eng. Data, 2015, 10.1021/je5008372
Compound 1: 2-acetoxybenzoic acid, C9H8O4, InChI=1S/C9H8O4/c1-6(10)13-8-5-3-2-4-7(8)9(11)12/h2-5H,1H3,(H,11,12), purity 99.8%
Compound 2: 1-butyl-3-methylimidazolium bromide, C8H15BrN2, InChI=1S/C8H15N2.BrH/c1-3-4-5-10-7-6-9(2)8-10;/h6-8H,3-5H2,1-2H3;1H/q+1;/p-1, purity 98%
Compound 3: acetonitrile, C2H3N, InChI=1S/C2H3N/c1-2-3/h1H3, purity 99.8%

System: acetonitrile; phases: Liquid
Fixed: Pressure, kPa = 86.8
Property: Mass density, kg/m3 (Liquid); method: Vibrating tube method
Temperature, K	Mass density, kg/m3	uncertainty
288.15	787.395	0.155
298.15	776.615	0.16
308.15	765.81	0.165
318.15	754.851	0.171

System: acetonitrile; phases: Liquid
Fixed: Pressure, kPa = 86.8
Property: Speed of sound, m/s (Liquid); method: Sing-around technique in a fixed-path interferometer
Temperature, K	Speed of sound, m/s	uncertainty
288.15	1319.07	1.19
298.15	1278.59	1.18
308.15	1238.34	1.18
318.15	1198.25	1.17

System: acetonitrile; phases: Liquid
Fixed: Pressure, kPa = 86.8
Property: Viscosity, Pa*s (Liquid); method: Capillary tube (Ostwald; Ubbelohde) method
Temperature, K	Viscosity, Pa*s	uncertainty
288.15	0.000388	1e-05
298.15	0.000344	1e-05
308.15	0.000313	1e-05
318.15	0.000289	1e-05

System: acetonitrile; phases: Liquid
Fixed: Pressure, kPa = 86.8
Property: Refractive index (Na D-line) (Liquid); method: Standard Abbe refractometry
Temperature, K	Refractive index (Na D-line)	uncertainty
288.15	1.3461	0.004
298.15	1.3412	0.004
308.15	1.3371	0.004
318.15	1.3327	0.004

System: 2-acetoxybenzoic acid + acetonitrile + 1-butyl-3-methylimidazolium bromide; phases: Liquid
Fixed: Pressure, kPa = 86.8
Property: Mass density, kg/m3 (Liquid); method: Vibrating tube method
Solvent: Molality, mol/kg of 1-butyl-3-methylimidazolium bromide	Temperature, K	Molality, mol/kg of 2-acetoxybenzoic acid	Mass density, kg/m3	uncertainty
0	288.15	0	787.395	0.269
0	288.15	0.0402	789.756	0.268
0	288.15	0.0834	792.285	0.267
0	288.15	0.11	793.822	0.266
0	288.15	0.1394	795.495	0.266
0	288.15	0.1708	797.242	0.265
0	288.15	0.2076	799.277	0.264
0	288.15	0.2453	801.312	0.263
0	288.15	0.2705	802.661	0.263
0	288.15	0.3006	804.272	0.263
0.1046	288.15	0	796.218	0.267
0.1046	288.15	0.0393	798.382	0.265
0.1046	288.15	0.0796	800.587	0.264
0.1046	288.15	0.1101	802.25	0.263
0.1046	288.15	0.1389	803.816	0.262
0.1046	288.15	0.1697	805.478	0.262
0.1046	288.15	0.2083	807.554	0.261
0.1046	288.15	0.2409	809.3	0.261
0.1046	288.15	0.2696	810.828	0.26
0.1046	288.15	0.2997	812.411	0.259
0.2021	288.15	0	803.662	0.367
0.2021	288.15	0.0406	805.872	0.261
0.2021	288.15	0.0813	808.072	0.457
0.2021	288.15	0.1108	809.651	0.26
0.2021	288.15	0.1537	811.933	0.26
0.2021	288.15	0.1726	812.937	0.259
0.2021	288.15	0.2129	815.058	0.258
0.2021	288.15	0.2478	816.889	0.258
0.2021	288.15	0.2761	818.368	0.258
0.2021	288.15	0.3006	819.64	0.257
0.2996	288.15	0	810.75	0.26
0.2996	288.15	0.0401	812.911	0.259
0.2996	288.15	0.0796	815.018	0.258
0.2996	288.15	0.1097	816.62	0.258
0.2996	288.15	0.1383	818.135	0.257
0.2996	288.15	0.1695	819.775	0.257
0.2996	288.15	0.2092	821.858	0.256
0.2996	288.15	0.2397	823.437	0.256
0.2996	288.15	0.2694	824.984	0.256
0.2996	288.15	0.2977	826.456	0.255
0	298.15	0	776.615	0.272
0	298.15	0.0402	778.992	0.271
0	298.15	0.0834	781.508	0.269
0	298.15	0.11	783.035	0.269
0	298.15	0.1394	784.705	0.268
0	298.15	0.1708	786.446	0.267
0	298.15	0.2076	788.483	0.266
0	298.15	0.2453	790.515	0.266
0	298.15	0.2705	791.87	0.265
0	298.15	0.3006	793.487	0.265
0.1046	298.15	0	785.312	0.268
0.1046	298.15	0.0393	787.483	0.267
0.1046	298.15	0.0796	789.696	0.266
0.1046	298.15	0.1101	791.37	0.266
0.1046	298.15	0.1389	792.943	0.265
0.1046	298.15	0.1697	794.62	0.265
0.1046	298.15	0.2083	796.714	0.264
0.1046	298.15	0.2409	798.469	0.264
0.1046	298.15	0.2696	800.012	0.263
0.1046	298.15	0.2997	801.605	0.262
0.2021	298.15	0	792.989	0.265
0.2021	298.15	0.0406	795.202	0.264
0.2021	298.15	0.0813	797.408	0.263
0.2021	298.15	0.1108	798.998	0.263
0.2021	298.15	0.1537	801.29	0.26
0.2021	298.15	0.1726	802.301	0.262
0.2021	298.15	0.2129	804.435	0.261
0.2021	298.15	0.2478	806.278	0.261
0.2021	298.15	0.2761	807.772	0.261
0.2021	298.15	0.3006	809.071	0.26
0.2996	298.15	0	800.167	0.262
0.2996	298.15	0.0401	802.329	0.262
0.2996	298.15	0.0796	804.449	0.261
0.2996	298.15	0.1097	806.056	0.261
0.2996	298.15	0.1383	807.58	0.26
0.2996	298.15	0.1695	809.231	0.26
0.2996	298.15	0.2092	811.317	0.259
0.2996	298.15	0.2397	812.913	0.259
0.2996	298.15	0.2694	814.471	0.258
0.2996	298.15	0.2977	815.969	0.258
0	308.15	0	765.81	0.274
0	308.15	0.0402	768.176	0.273
0	308.15	0.0834	770.675	0.272
0	308.15	0.11	772.198	0.271
0	308.15	0.1394	773.857	0.271
0	308.15	0.1708	775.597	0.27
0	308.15	0.2076	777.624	0.269
0	308.15	0.2453	779.658	0.269
0	308.15	0.2705	781.016	0.268
0	308.15	0.3006	782.624	0.268
0.1046	308.15	0	774.491	0.271
0.1046	308.15	0.0393	776.667	0.27
0.1046	308.15	0.0796	778.889	0.269
0.1046	308.15	0.1101	780.566	0.269
0.1046	308.15	0.1389	782.15	0.268
0.1046	308.15	0.1697	783.824	0.268
0.1046	308.15	0.2083	785.924	0.267
0.1046	308.15	0.2409	787.685	0.266
0.1046	308.15	0.2696	789.223	0.266
0.1046	308.15	0.2997	790.844	0.265
0.2021	308.15	0	782.263	0.268
0.2021	308.15	0.0406	784.486	0.267
0.2021	308.15	0.0813	786.702	0.266
0.2021	308.15	0.1108	788.301	0.266
0.2021	308.15	0.1537	790.611	0.265
0.2021	308.15	0.1726	791.628	0.265
0.2021	308.15	0.2129	793.792	0.264
0.2021	308.15	0.2478	795.653	0.264
0.2021	308.15	0.2761	797.164	0.263
0.2021	308.15	0.3006	798.465	0.262
0.2996	308.15	0	789.528	0.265
0.2996	308.15	0.0401	791.685	0.264
0.2996	308.15	0.0796	793.802	0.264
0.2996	308.15	0.1097	795.403	0.263
0.2996	308.15	0.1383	796.924	0.263
0.2996	308.15	0.1695	798.584	0.262
0.2996	308.15	0.2092	800.681	0.262
0.2996	308.15	0.2397	802.28	0.261
0.2996	308.15	0.2694	803.844	0.261
0.2996	308.15	0.2977	805.338	0.26
0	318.15	0	754.851	0.277
0	318.15	0.0402	757.205	0.276
0	318.15	0.0834	759.697	0.275
0	318.15	0.11	761.21	0.274
0	318.15	0.1394	762.869	0.273
0	318.15	0.1708	764.615	0.273
0	318.15	0.2076	766.635	0.272
0	318.15	0.2453	768.667	0.271
0	318.15	0.2705	770.017	0.271
0	318.15	0.3006	771.63	0.271
0.1046	318.15	0	763.59	0.274
0.1046	318.15	0.0393	765.766	0.273
0.1046	318.15	0.0796	767.985	0.272
0.1046	318.15	0.1101	769.664	0.271
0.1046	318.15	0.1389	771.25	0.271
0.1046	318.15	0.1697	772.944	0.27
0.1046	318.15	0.2083	775.054	0.27
0.1046	318.15	0.2409	776.832	0.269
0.1046	318.15	0.2696	778.388	0.269
0.1046	318.15	0.2997	780.004	0.268
0.2021	318.15	0	771.427	0.266
0.2021	318.15	0.0406	773.64	0.27
0.2021	318.15	0.0813	775.846	0.286
0.2021	318.15	0.1108	777.44	0.269
0.2021	318.15	0.1537	779.743	0.268
0.2021	318.15	0.1726	780.76	0.268
0.2021	318.15	0.2129	782.909	0.267
0.2021	318.15	0.2478	784.767	0.266
0.2021	318.15	0.2761	786.277	0.266
0.2021	318.15	0.3006	787.564	0.265
0.2996	318.15	0	778.947	0.268
0.2996	318.15	0.0401	781.086	0.267
0.2996	318.15	0.0796	783.185	0.267
0.2996	318.15	0.1097	784.78	0.27
0.2996	318.15	0.1383	786.29	0.27
0.2996	318.15	0.1695	787.938	0.265
0.2996	318.15	0.2092	790.014	0.265
0.2996	318.15	0.2397	791.604	0.264
0.2996	318.15	0.2694	793.157	0.264
0.2996	318.15	0.2977	794.629	0.263

System: 2-acetoxybenzoic acid + acetonitrile + 1-butyl-3-methylimidazolium bromide; phases: Liquid
Fixed: Pressure, kPa = 86.8
Property: Speed of sound, m/s (Liquid); method: Sing-around technique in a fixed-path interferometer
Solvent: Molality, mol/kg of 1-butyl-3-methylimidazolium bromide	Temperature, K	Molality, mol/kg of 2-acetoxybenzoic acid	Speed of sound, m/s	uncertainty
0	288.15	0	1319.07	1.42
0	288.15	0.0402	1319.86	1.42
0	288.15	0.0834	1320.33	1.42
0	288.15	0.11	1320.59	1.42
0	288.15	0.1394	1320.82	1.42
0	288.15	0.1708	1321.1	1.42
0	288.15	0.2076	1321.4	1.42
0	288.15	0.2453	1321.75	1.42
0	288.15	0.2705	1321.97	1.42
0	288.15	0.3006	1322.23	1.42
0.1046	288.15	0	1323.5	1.42
0.1046	288.15	0.0393	1323.6	1.42
0.1046	288.15	0.0796	1323.84	1.42
0.1046	288.15	0.1101	1324.04	1.42
0.1046	288.15	0.1389	1324.24	1.42
0.1046	288.15	0.1697	1324.5	1.42
0.1046	288.15	0.2083	1324.82	1.42
0.1046	288.15	0.2409	1325.08	1.42
0.1046	288.15	0.2696	1325.31	1.42
0.1046	288.15	0.2997	1325.57	1.42
0.2021	288.15	0	1327.14	1.43
0.2021	288.15	0.0406	1326.95	1.42
0.2021	288.15	0.0813	1327.15	1.58
0.2021	288.15	0.1108	1327.32	1.42
0.2021	288.15	0.1537	1327.6	1.42
0.2021	288.15	0.1726	1327.75	1.42
0.2021	288.15	0.2129	1328.04	1.42
0.2021	288.15	0.2478	1328.29	1.42
0.2021	288.15	0.2761	1328.48	1.42
0.2021	288.15	0.3006	1328.64	1.42
0.2996	288.15	0	1330.32	1.42
0.2996	288.15	0.0401	1330.16	1.42
0.2996	288.15	0.0796	1330.25	1.42
0.2996	288.15	0.1097	1330.35	1.42
0.2996	288.15	0.1383	1330.45	1.42
0.2996	288.15	0.1695	1330.55	1.42
0.2996	288.15	0.2092	1330.71	1.42
0.2996	288.15	0.2397	1330.85	1.42
0.2996	288.15	0.2694	1330.97	1.42
0.2996	288.15	0.2977	1331.09	1.42
0	298.15	0	1278.59	1.41
0	298.15	0.0402	1279.32	1.41
0	298.15	0.0834	1279.68	1.41
0	298.15	0.11	1279.93	1.41
0	298.15	0.1394	1280.15	1.41
0	298.15	0.1708	1280.41	1.41
0	298.15	0.2076	1280.72	1.41
0	298.15	0.2453	1281.03	1.41
0	298.15	0.2705	1281.25	1.41
0	298.15	0.3006	1281.49	1.41
0.1046	298.15	0	1283.19	1.42
0.1046	298.15	0.0393	1283.15	1.41
0.1046	298.15	0.0796	1283.37	1.41
0.1046	298.15	0.1101	1283.56	1.41
0.1046	298.15	0.1389	1283.79	1.42
0.1046	298.15	0.1697	1284.03	1.42
0.1046	298.15	0.2083	1284.36	1.42
0.1046	298.15	0.2409	1284.61	1.42
0.1046	298.15	0.2696	1284.85	1.42
0.1046	298.15	0.2997	1285.07	1.42
0.2021	298.15	0	1287.06	1.42
0.2021	298.15	0.0406	1286.86	1.42
0.2021	298.15	0.0813	1287.04	1.42
0.2021	298.15	0.1108	1287.2	1.42
0.2021	298.15	0.1537	1287.44	1.42
0.2021	298.15	0.1726	1287.54	1.42
0.2021	298.15	0.2129	1287.78	1.42
0.2021	298.15	0.2478	1287.99	1.42
0.2021	298.15	0.2761	1288.19	1.42
0.2021	298.15	0.3006	1288.37	1.42
0.2996	298.15	0	1290.32	1.42
0.2996	298.15	0.0401	1290.17	1.42
0.2996	298.15	0.0796	1290.27	1.42
0.2996	298.15	0.1097	1290.36	1.42
0.2996	298.15	0.1383	1290.48	1.42
0.2996	298.15	0.1695	1290.61	1.42
0.2996	298.15	0.2092	1290.77	1.42
0.2996	298.15	0.2397	1290.93	1.42
0.2996	298.15	0.2694	1291.04	1.42
0.2996	298.15	0.2977	1291.17	1.42
0	308.15	0	1238.34	1.41
0	308.15	0.0402	1238.99	1.41
0	308.15	0.0834	1239.35	1.41
0	308.15	0.11	1239.55	1.41
0	308.15	0.1394	1239.72	1.41
0	308.15	0.1708	1239.98	1.41
0	308.15	0.2076	1240.28	1.41
0	308.15	0.2453	1240.53	1.41
0	308.15	0.2705	1240.75	1.41
0	308.15	0.3006	1241.04	1.41
0.1046	308.15	0	1243.19	1.41
0.1046	308.15	0.0393	1243.12	1.41
0.1046	308.15	0.0796	1243.32	1.41
0.1046	308.15	0.1101	1243.52	1.41
0.1046	308.15	0.1389	1243.7	1.41
0.1046	308.15	0.1697	1243.9	1.41
0.1046	308.15	0.2083	1244.17	1.41
0.1046	308.15	0.2409	1244.42	1.41
0.1046	308.15	0.2696	1244.64	1.41
0.1046	308.15	0.2997	1244.85	1.41
0.2021	308.15	0	1247.18	1.41
0.2021	308.15	0.0406	1246.93	1.41
0.2021	308.15	0.0813	1247.16	1.41
0.2021	308.15	0.1108	1247.32	1.41
0.2021	308.15	0.1537	1247.56	1.41
0.2021	308.15	0.1726	1247.66	1.41
0.2021	308.15	0.2129	1247.83	1.41
0.2021	308.15	0.2478	1248.01	1.41
0.2021	308.15	0.2761	1248.17	1.41
0.2021	308.15	0.3006	1248.32	1.41
0.2996	308.15	0	1250.63	1.41
0.2996	308.15	0.0401	1250.48	1.41
0.2996	308.15	0.0796	1250.62	1.41
0.2996	308.15	0.1097	1250.74	1.41
0.2996	308.15	0.1383	1250.88	1.41
0.2996	308.15	0.1695	1251.02	1.41
0.2996	308.15	0.2092	1251.17	1.41
0.2996	308.15	0.2397	1251.32	1.41
0.2996	308.15	0.2694	1251.49	1.41
0.2996	308.15	0.2977	1251.66	1.41
0	318.15	0	1198.25	1.4
0	318.15	0.0402	1198.8	1.4
0	318.15	0.0834	1199.15	1.4
0	318.15	0.11	1199.33	1.4
0	318.15	0.1394	1199.48	1.4
0	318.15	0.1708	1199.72	1.4
0	318.15	0.2076	1199.93	1.4
0	318.15	0.2453	1200.22	1.4
0	318.15	0.2705	1200.41	1.4
0	318.15	0.3006	1200.69	1.4
0.1046	318.15	0	1203.07	1.4
0.1046	318.15	0.0393	1202.95	1.4
0.1046	318.15	0.0796	1203.13	1.4
0.1046	318.15	0.1101	1203.29	1.4
0.1046	318.15	0.1389	1203.49	1.4
0.1046	318.15	0.1697	1203.7	1.4
0.1046	318.15	0.2083	1203.96	1.4
0.1046	318.15	0.2409	1204.22	1.4
0.1046	318.15	0.2696	1204.4	1.4
0.1046	318.15	0.2997	1204.6	1.4
0.2021	318.15	0	1207.34	1.41
0.2021	318.15	0.0406	1207.12	1.4
0.2021	318.15	0.0813	1207.29	1.41
0.2021	318.15	0.1108	1207.48	1.4
0.2021	318.15	0.1537	1207.78	1.4
0.2021	318.15	0.1726	1207.89	1.4
0.2021	318.15	0.2129	1208.14	1.4
0.2021	318.15	0.2478	1208.35	1.4
0.2021	318.15	0.2761	1208.55	1.4
0.2021	318.15	0.3006	1208.73	1.4
0.2996	318.15	0	1210.77	1.4
0.2996	318.15	0.0401	1210.58	1.4
0.2996	318.15	0.0796	1210.75	1.4
0.2996	318.15	0.1097	1210.95	1.4
0.2996	318.15	0.1383	1211.13	1.4
0.2996	318.15	0.1695	1211.34	1.4
0.2996	318.15	0.2092	1211.56	1.4
0.2996	318.15	0.2397	1211.72	1.4
0.2996	318.15	0.2694	1211.91	1.4
0.2996	318.15	0.2977	1212.11	1.4

System: 2-acetoxybenzoic acid + acetonitrile + 1-butyl-3-methylimidazolium bromide; phases: Liquid
Fixed: Pressure, kPa = 86.8
Property: Viscosity, Pa*s (Liquid); method: Capillary tube (Ostwald; Ubbelohde) method
Solvent: Molality, mol/kg of 1-butyl-3-methylimidazolium bromide	Temperature, K	Molality, mol/kg of 2-acetoxybenzoic acid	Viscosity, Pa*s	uncertainty
0	288.15	0	0.000388	1e-05
0	288.15	0.0402	0.000394	1e-05
0	288.15	0.0834	0.000398	1e-05
0	288.15	0.11	0.000402	1e-05
0	288.15	0.1394	0.000405	1.1e-05
0	288.15	0.1708	0.000408	1.1e-05
0	288.15	0.2076	0.000412	1.1e-05
0	288.15	0.2453	0.000416	1.1e-05
0	288.15	0.2705	0.000419	1.1e-05
0	288.15	0.3006	0.000422	1.1e-05
0.1046	288.15	0	0.0004	1e-05
0.1046	288.15	0.0393	0.000409	1.1e-05
0.1046	288.15	0.0796	0.000414	1.1e-05
0.1046	288.15	0.1101	0.000417	1.1e-05
0.1046	288.15	0.1389	0.000421	1.1e-05
0.1046	288.15	0.1697	0.000424	1.1e-05
0.1046	288.15	0.2083	0.000429	1.1e-05
0.1046	288.15	0.2409	0.000433	1.1e-05
0.1046	288.15	0.2696	0.000436	1.1e-05
0.1046	288.15	0.2997	0.00044	1.1e-05
0.2021	288.15	0	0.000421	1.1e-05
0.2021	288.15	0.0406	0.000427	1.1e-05
0.2021	288.15	0.0813	0.000432	1.1e-05
0.2021	288.15	0.1108	0.000435	1.1e-05
0.2021	288.15	0.1537	0.000441	1.1e-05
0.2021	288.15	0.1726	0.000444	1.1e-05
0.2021	288.15	0.2129	0.000449	1.1e-05
0.2021	288.15	0.2478	0.000454	1.1e-05
0.2021	288.15	0.2761	0.000457	1.1e-05
0.2021	288.15	0.3006	0.000461	1.1e-05
0.2996	288.15	0	0.00044	1.1e-05
0.2996	288.15	0.0401	0.000445	1.1e-05
0.2996	288.15	0.0796	0.000451	1.1e-05
0.2996	288.15	0.1097	0.000455	1.1e-05
0.2996	288.15	0.1383	0.000459	1.1e-05
0.2996	288.15	0.1695	0.000463	1.1e-05
0.2996	288.15	0.2092	0.000469	1.1e-05
0.2996	288.15	0.2397	0.000473	1.1e-05
0.2996	288.15	0.2694	0.000477	1.1e-05
0.2996	288.15	0.2977	0.00048	1.1e-05
0	298.15	0	0.000344	1e-05
0	298.15	0.0402	0.000349	1e-05
0	298.15	0.0834	0.000353	1e-05
0	298.15	0.11	0.000355	1e-05
0	298.15	0.1394	0.000358	1e-05
0	298.15	0.1708	0.000362	1e-05
0	298.15	0.2076	0.000365	1e-05
0	298.15	0.2453	0.000369	1e-05
0	298.15	0.2705	0.000371	1e-05
0	298.15	0.3006	0.000375	1e-05
0.1046	298.15	0	0.000363	1e-05
0.1046	298.15	0.0393	0.000368	1e-05
0.1046	298.15	0.0796	0.000372	1e-05
0.1046	298.15	0.1101	0.000376	1e-05
0.1046	298.15	0.1389	0.000379	1e-05
0.1046	298.15	0.1697	0.000382	1e-05
0.1046	298.15	0.2083	0.000386	1e-05
0.1046	298.15	0.2409	0.000389	1e-05
0.1046	298.15	0.2696	0.000393	1e-05
0.1046	298.15	0.2997	0.000396	1e-05
0.2021	298.15	0	0.00038	1e-05
0.2021	298.15	0.0406	0.000386	1e-05
0.2021	298.15	0.0813	0.00039	1e-05
0.2021	298.15	0.1108	0.000393	1e-05
0.2021	298.15	0.1537	0.000398	1e-05
0.2021	298.15	0.1726	0.0004	1e-05
0.2021	298.15	0.2129	0.000404	1.1e-05
0.2021	298.15	0.2478	0.000408	1.1e-05
0.2021	298.15	0.2761	0.000412	1.1e-05
0.2021	298.15	0.3006	0.000414	1.1e-05
0.2996	298.15	0	0.000398	1e-05
0.2996	298.15	0.0401	0.000402	1e-05
0.2996	298.15	0.0796	0.000407	1.1e-05
0.2996	298.15	0.1097	0.00041	1e-05
0.2996	298.15	0.1383	0.000414	1.1e-05
0.2996	298.15	0.1695	0.000418	1.1e-05
0.2996	298.15	0.2092	0.000422	1.1e-05
0.2996	298.15	0.2397	0.000427	1.1e-05
0.2996	298.15	0.2694	0.000431	1.1e-05
0.2996	298.15	0.2977	0.000434	1.1e-05
0	308.15	0	0.000313	1e-05
0	308.15	0.0402	0.000316	1e-05
0	308.15	0.0834	0.000319	1e-05
0	308.15	0.11	0.000322	1e-05
0	308.15	0.1394	0.000325	1e-05
0	308.15	0.1708	0.000328	1e-05
0	308.15	0.2076	0.000331	1e-05
0	308.15	0.2453	0.000334	1e-05
0	308.15	0.2705	0.000337	1e-05
0	308.15	0.3006	0.00034	1e-05
0.1046	308.15	0	0.000331	1e-05
0.1046	308.15	0.0393	0.000335	1e-05
0.1046	308.15	0.0796	0.000338	1e-05
0.1046	308.15	0.1101	0.000342	1e-05
0.1046	308.15	0.1389	0.000344	1e-05
0.1046	308.15	0.1697	0.000347	1e-05
0.1046	308.15	0.2083	0.000351	1e-05
0.1046	308.15	0.2409	0.000354	1e-05
0.1046	308.15	0.2696	0.000357	1e-05
0.1046	308.15	0.2997	0.000361	1e-05
0.2021	308.15	0	0.000346	1e-05
0.2021	308.15	0.0406	0.00035	1e-05
0.2021	308.15	0.0813	0.000354	1e-05
0.2021	308.15	0.1108	0.000357	1e-05
0.2021	308.15	0.1537	0.000362	1e-05
0.2021	308.15	0.1726	0.000363	1e-05
0.2021	308.15	0.2129	0.000367	1e-05
0.2021	308.15	0.2478	0.000371	1e-05
0.2021	308.15	0.2761	0.000374	1e-05
0.2021	308.15	0.3006	0.000376	1e-05
0.2996	308.15	0	0.000361	1e-05
0.2996	308.15	0.0401	0.000367	1e-05
0.2996	308.15	0.0796	0.00037	1e-05
0.2996	308.15	0.1097	0.000373	1e-05
0.2996	308.15	0.1383	0.000377	1e-05
0.2996	308.15	0.1695	0.000378	1e-05
0.2996	308.15	0.2092	0.000383	1e-05
0.2996	308.15	0.2397	0.000386	1e-05
0.2996	308.15	0.2694	0.000389	1e-05
0.2996	308.15	0.2977	0.000391	1e-05
0	318.15	0	0.000289	1e-05
0	318.15	0.0402	0.000292	1e-05
0	318.15	0.0834	0.000295	1e-05
0	318.15	0.11	0.000297	1e-05
0	318.15	0.1394	0.0003	1e-05
0	318.15	0.1708	0.000303	1e-05
0	318.15	0.2076	0.000306	1e-05
0	318.15	0.2453	0.000309	1e-05
0	318.15	0.2705	0.000311	1e-05
0	318.15	0.3006	0.000314	1e-05
0.1046	318.15	0	0.000304	1e-05
0.1046	318.15	0.0393	0.000307	1e-05
0.1046	318.15	0.0796	0.00031	1e-05
0.1046	318.15	0.1101	0.000313	1e-05
0.1046	318.15	0.1389	0.000315	1e-05
0.1046	318.15	0.1697	0.000318	1e-05
0.1046	318.15	0.2083	0.000321	1e-05
0.1046	318.15	0.2409	0.000324	1e-05
0.1046	318.15	0.2696	0.000327	1e-05
0.1046	318.15	0.2997	0.00033	1e-05
0.2021	318.15	0	0.000318	1e-05
0.2021	318.15	0.0406	0.000321	1e-05
0.2021	318.15	0.0813	0.000325	1e-05
0.2021	318.15	0.1108	0.000327	1e-05
0.2021	318.15	0.1537	0.000331	1e-05
0.2021	318.15	0.1726	0.000333	1e-05
0.2021	318.15	0.2129	0.000337	1e-05
0.2021	318.15	0.2478	0.00034	1e-05
0.2021	318.15	0.2761	0.000342	1e-05
0.2021	318.15	0.3006	0.000345	1e-05
0.2996	318.15	0	0.000331	1e-05
0.2996	318.15	0.0401	0.000335	1e-05
0.2996	318.15	0.0796	0.000338	1e-05
0.2996	318.15	0.1097	0.000341	1e-05
0.2996	318.15	0.1383	0.000343	1e-05
0.2996	318.15	0.1695	0.000346	1e-05
0.2996	318.15	0.2092	0.00035	1e-05
0.2996	318.15	0.2397	0.000353	1e-05
0.2996	318.15	0.2694	0.000355	1e-05
0.2996	318.15	0.2977	0.000359	1e-05

System: 2-acetoxybenzoic acid + acetonitrile + 1-butyl-3-methylimidazolium bromide; phases: Liquid
Fixed: Pressure, kPa = 86.8
Property: Refractive index (Na D-line) (Liquid); method: Standard Abbe refractometry
Solvent: Molality, mol/kg of 1-butyl-3-methylimidazolium bromide	Temperature, K	Molality, mol/kg of 2-acetoxybenzoic acid	Refractive index (Na D-line)	uncertainty
0	288.15	0	1.3461	0.004
0	288.15	0.0402	1.3467	0.004
0	288.15	0.0834	1.3476	0.004
0	288.15	0.11	1.3483	0.004
0	288.15	0.1394	1.349	0.004
0	288.15	0.1708	1.3498	0.004
0	288.15	0.2076	1.3505	0.004
0	288.15	0.2453	1.3513	0.004
0	288.15	0.2705	1.3519	0.004
0	288.15	0.3006	1.3527	0.004
0.1046	288.15	0	1.3492	0.004
0.1046	288.15	0.0393	1.3503	0.004
0.1046	288.15	0.0796	1.3511	0.004
0.1046	288.15	0.1101	1.3518	0.004
0.1046	288.15	0.1389	1.3526	0.004
0.1046	288.15	0.1697	1.3532	0.004
0.1046	288.15	0.2083	1.354	0.004
0.1046	288.15	0.2409	1.3548	0.004
0.1046	288.15	0.2696	1.3556	0.004
0.1046	288.15	0.2997	1.3562	0.004
0.2021	288.15	0	1.3528	0.004
0.2021	288.15	0.0406	1.3537	0.004
0.2021	288.15	0.0813	1.3544	0.004
0.2021	288.15	0.1108	1.355	0.004
0.2021	288.15	0.1537	1.3555	0.004
0.2021	288.15	0.1726	1.3563	0.004
0.2021	288.15	0.2129	1.357	0.004
0.2021	288.15	0.2478	1.3576	0.004
0.2021	288.15	0.2761	1.3582	0.004
0.2021	288.15	0.3006	1.3587	0.004
0.2996	288.15	0	1.3557	0.004
0.2996	288.15	0.0401	1.3564	0.004
0.2996	288.15	0.0796	1.3571	0.004
0.2996	288.15	0.1097	1.3577	0.004
0.2996	288.15	0.1383	1.3583	0.004
0.2996	288.15	0.1695	1.359	0.004
0.2996	288.15	0.2092	1.3598	0.004
0.2996	288.15	0.2397	1.3605	0.004
0.2996	288.15	0.2694	1.3611	0.004
0.2996	288.15	0.2977	1.3616	0.004
0	298.15	0	1.3412	0.004
0	298.15	0.0402	1.3422	0.004
0	298.15	0.0834	1.3431	0.004
0	298.15	0.11	1.3439	0.004
0	298.15	0.1394	1.3446	0.004
0	298.15	0.1708	1.3453	0.004
0	298.15	0.2076	1.3462	0.004
0	298.15	0.2453	1.347	0.004
0	298.15	0.2705	1.3477	0.004
0	298.15	0.3006	1.3484	0.004
0.1046	298.15	0	1.3449	0.004
0.1046	298.15	0.0393	1.3455	0.004
0.1046	298.15	0.0796	1.3465	0.004
0.1046	298.15	0.1101	1.3472	0.004
0.1046	298.15	0.1389	1.3479	0.004
0.1046	298.15	0.1697	1.3486	0.004
0.1046	298.15	0.2083	1.3495	0.004
0.1046	298.15	0.2409	1.3502	0.004
0.1046	298.15	0.2696	1.3508	0.004
0.1046	298.15	0.2997	1.3514	0.004
0.2021	298.15	0	1.3479	0.004
0.2021	298.15	0.0406	1.3492	0.004
0.2021	298.15	0.0813	1.3501	0.004
0.2021	298.15	0.1108	1.3507	0.004
0.2021	298.15	0.1537	1.3512	0.004
0.2021	298.15	0.1726	1.3519	0.004
0.2021	298.15	0.2129	1.3528	0.004
0.2021	298.15	0.2478	1.3534	0.004
0.2021	298.15	0.2761	1.354	0.004
0.2021	298.15	0.3006	1.3546	0.004
0.2996	298.15	0	1.3509	0.004
0.2996	298.15	0.0401	1.3518	0.004
0.2996	298.15	0.0796	1.3524	0.004
0.2996	298.15	0.1097	1.3531	0.004
0.2996	298.15	0.1383	1.3537	0.004
0.2996	298.15	0.1695	1.3543	0.004
0.2996	298.15	0.2092	1.355	0.004
0.2996	298.15	0.2397	1.3557	0.004
0.2996	298.15	0.2694	1.3563	0.004
0.2996	298.15	0.2977	1.3571	0.004
0	308.15	0	1.3371	0.004
0	308.15	0.0402	1.3378	0.004
0	308.15	0.0834	1.3388	0.004
0	308.15	0.11	1.3397	0.004
0	308.15	0.1394	1.3404	0.004
0	308.15	0.1708	1.3412	0.004
0	308.15	0.2076	1.3423	0.004
0	308.15	0.2453	1.3431	0.004
0	308.15	0.2705	1.3438	0.004
0	308.15	0.3006	1.3446	0.004
0.1046	308.15	0	1.3402	0.004
0.1046	308.15	0.0393	1.341	0.004
0.1046	308.15	0.0796	1.342	0.004
0.1046	308.15	0.1101	1.3427	0.004
0.1046	308.15	0.1389	1.3435	0.004
0.1046	308.15	0.1697	1.3441	0.004
0.1046	308.15	0.2083	1.3448	0.004
0.1046	308.15	0.2409	1.3455	0.004
0.1046	308.15	0.2696	1.3461	0.004
0.1046	308.15	0.2997	1.3468	0.004
0.2021	308.15	0	1.3429	0.004
0.2021	308.15	0.0406	1.3445	0.004
0.2021	308.15	0.0813	1.3454	0.004
0.2021	308.15	0.1108	1.3461	0.004
0.2021	308.15	0.1537	1.3467	0.004
0.2021	308.15	0.1726	1.3474	0.004
0.2021	308.15	0.2129	1.3482	0.004
0.2021	308.15	0.2478	1.349	0.004
0.2021	308.15	0.2761	1.3496	0.004
0.2021	308.15	0.3006	1.3502	0.004
0.2996	308.15	0	1.3462	0.004
0.2996	308.15	0.0401	1.3472	0.004
0.2996	308.15	0.0796	1.348	0.004
0.2996	308.15	0.1097	1.3487	0.004
0.2996	308.15	0.1383	1.3492	0.004
0.2996	308.15	0.1695	1.3498	0.004
0.2996	308.15	0.2092	1.3505	0.004
0.2996	308.15	0.2397	1.3511	0.004
0.2996	308.15	0.2694	1.3517	0.004
0.2996	308.15	0.2977	1.3524	0.004
0	318.15	0	1.3327	0.004
0	318.15	0.0402	1.3333	0.004
0	318.15	0.0834	1.3345	0.004
0	318.15	0.11	1.3352	0.004
0	318.15	0.1394	1.3359	0.004
0	318.15	0.1708	1.3367	0.004
0	318.15	0.2076	1.3377	0.004
0	318.15	0.2453	1.3388	0.004
0	318.15	0.2705	1.3395	0.004
0	318.15	0.3006	1.3403	0.004
0.1046	318.15	0	1.3359	0.004
0.1046	318.15	0.0393	1.3365	0.004
0.1046	318.15	0.0796	1.3373	0.004
0.1046	318.15	0.1101	1.338	0.004
0.1046	318.15	0.1389	1.3386	0.004
0.1046	318.15	0.1697	1.3393	0.004
0.1046	318.15	0.2083	1.3401	0.004
0.1046	318.15	0.2409	1.3407	0.004
0.1046	318.15	0.2696	1.3414	0.004
0.1046	318.15	0.2997	1.3422	0.004
0.2021	318.15	0	1.3381	0.004
0.2021	318.15	0.0406	1.3401	0.004
0.2021	318.15	0.0813	1.3409	0.004
0.2021	318.15	0.1108	1.3415	0.004
0.2021	318.15	0.1537	1.342	0.004
0.2021	318.15	0.1726	1.3428	0.004
0.2021	318.15	0.2129	1.3437	0.004
0.2021	318.15	0.2478	1.3444	0.004
0.2021	318.15	0.2761	1.345	0.004
0.2021	318.15	0.3006	1.3458	0.004
0.2996	318.15	0	1.3402	0.004
0.2996	318.15	0.0401	1.3425	0.004
0.2996	318.15	0.0796	1.3434	0.004
0.2996	318.15	0.1097	1.3441	0.004
0.2996	318.15	0.1383	1.3448	0.004
0.2996	318.15	0.1695	1.3454	0.004
0.2996	318.15	0.2092	1.3462	0.004
0.2996	318.15	0.2397	1.3469	0.004
0.2996	318.15	0.2694	1.3475	0.004
0.2996	318.15	0.2977	1.3481	0.004

System: 2-acetoxybenzoic acid + acetonitrile; phases: Liquid
Fixed: Pressure, kPa = 86.8
Property: Mass density, kg/m3 (Liquid); method: Vibrating tube method
Temperature, K	Molality, mol/kg of 2-acetoxybenzoic acid	Mass density, kg/m3	uncertainty
288.15	0.0402	789.756	0.165
288.15	0.0834	792.285	0.163
288.15	0.11	793.822	0.162
288.15	0.1394	795.495	0.161
288.15	0.1708	797.242	0.16
288.15	0.2076	799.277	0.159
288.15	0.2453	801.312	0.158
288.15	0.2705	802.661	0.157
288.15	0.3006	804.272	0.156
298.15	0.0402	778.992	0.169
298.15	0.0834	781.508	0.168
298.15	0.11	783.035	0.167
298.15	0.1394	784.705	0.166
298.15	0.1708	786.446	0.165
298.15	0.2076	788.483	0.164
298.15	0.2453	790.515	0.163
298.15	0.2705	791.87	0.162
298.15	0.3006	793.487	0.161
308.15	0.0402	768.176	0.175
308.15	0.0834	770.675	0.173
308.15	0.11	772.198	0.172
308.15	0.1394	773.857	0.171
308.15	0.1708	775.597	0.17
308.15	0.2076	777.624	0.169
308.15	0.2453	779.658	0.168
308.15	0.2705	781.016	0.167
308.15	0.3006	782.624	0.166
318.15	0.0402	757.205	0.179
318.15	0.0834	759.697	0.178
318.15	0.11	761.21	0.177
318.15	0.1394	762.869	0.176
318.15	0.1708	764.615	0.175
318.15	0.2076	766.635	0.174
318.15	0.2453	768.667	0.173
318.15	0.2705	770.017	0.172
318.15	0.3006	771.63	0.171

System: 2-acetoxybenzoic acid + acetonitrile; phases: Liquid
Fixed: Pressure, kPa = 86.8
Property: Speed of sound, m/s (Liquid); method: Sing-around technique in a fixed-path interferometer
Temperature, K	Molality, mol/kg of 2-acetoxybenzoic acid	Speed of sound, m/s	uncertainty
288.15	0.0402	1319.86	1.19
288.15	0.0834	1320.33	1.19
288.15	0.11	1320.59	1.19
288.15	0.1394	1320.82	1.19
288.15	0.1708	1321.1	1.19
288.15	0.2076	1321.4	1.19
288.15	0.2453	1321.75	1.19
288.15	0.2705	1321.97	1.19
288.15	0.3006	1322.23	1.19
298.15	0.0402	1279.32	1.18
298.15	0.0834	1279.68	1.18
298.15	0.11	1279.93	1.18
298.15	0.1394	1280.15	1.18
298.15	0.1708	1280.41	1.18
298.15	0.2076	1280.72	1.18
298.15	0.2453	1281.03	1.18
298.15	0.2705	1281.25	1.18
298.15	0.3006	1281.49	1.18
308.15	0.0402	1238.99	1.18
308.15	0.0834	1239.35	1.18
308.15	0.11	1239.55	1.18
308.15	0.1394	1239.72	1.18
308.15	0.1708	1239.98	1.18
308.15	0.2076	1240.28	1.18
308.15	0.2453	1240.53	1.18
308.15	0.2705	1240.75	1.18
308.15	0.3006	1241.04	1.18
318.15	0.0402	1198.8	1.17
318.15	0.0834	1199.15	1.17
318.15	0.11	1199.33	1.17
318.15	0.1394	1199.48	1.17
318.15	0.1708	1199.72	1.17
318.15	0.2076	1199.93	1.17
318.15	0.2453	1200.22	1.17
318.15	0.2705	1200.41	1.17
318.15	0.3006	1200.69	1.17

System: 2-acetoxybenzoic acid + acetonitrile; phases: Liquid
Fixed: Pressure, kPa = 86.8
Property: Viscosity, Pa*s (Liquid); method: Capillary tube (Ostwald; Ubbelohde) method
Temperature, K	Molality, mol/kg of 2-acetoxybenzoic acid	Viscosity, Pa*s	uncertainty
288.15	0.0402	0.000394	1e-05
288.15	0.0834	0.000398	1e-05
288.15	0.11	0.000402	1e-05
288.15	0.1394	0.000405	1e-05
288.15	0.1708	0.000408	1e-05
288.15	0.2076	0.000412	1e-05
288.15	0.2453	0.000416	1e-05
288.15	0.2705	0.000419	1e-05
288.15	0.3006	0.000422	1e-05
298.15	0.0402	0.000349	1e-05
298.15	0.0834	0.000353	1e-05
298.15	0.11	0.000355	1e-05
298.15	0.1394	0.000358	1e-05
298.15	0.1708	0.000362	1e-05
298.15	0.2076	0.000365	1e-05
298.15	0.2453	0.000369	1e-05
298.15	0.2705	0.000371	1e-05
298.15	0.3006	0.000375	1e-05
308.15	0.0402	0.000316	1e-05
308.15	0.0834	0.000319	1e-05
308.15	0.11	0.000322	1e-05
308.15	0.1394	0.000325	1e-05
308.15	0.1708	0.000328	1e-05
308.15	0.2076	0.000331	1e-05
308.15	0.2453	0.000334	1e-05
308.15	0.2705	0.000337	1e-05
308.15	0.3006	0.00034	1e-05
318.15	0.0402	0.000292	1e-05
318.15	0.0834	0.000295	1e-05
318.15	0.11	0.000297	1e-05
318.15	0.1394	0.0003	1e-05
318.15	0.1708	0.000303	1e-05
318.15	0.2076	0.000306	1e-05
318.15	0.2453	0.000309	1e-05
318.15	0.2705	0.000311	1e-05
318.15	0.3006	0.000314	1e-05

System: 2-acetoxybenzoic acid + acetonitrile; phases: Liquid
Fixed: Pressure, kPa = 86.8
Property: Refractive index (Na D-line) (Liquid); method: Standard Abbe refractometry
Temperature, K	Molality, mol/kg of 2-acetoxybenzoic acid	Refractive index (Na D-line)	uncertainty
288.15	0.0402	1.3467	0.004
288.15	0.0834	1.3476	0.004
288.15	0.11	1.3483	0.004
288.15	0.1394	1.349	0.004
288.15	0.1708	1.3498	0.004
288.15	0.2076	1.3505	0.004
288.15	0.2453	1.3513	0.004
288.15	0.2705	1.3519	0.004
288.15	0.3006	1.3527	0.004
298.15	0.0402	1.3422	0.004
298.15	0.0834	1.3431	0.004
298.15	0.11	1.3439	0.004
298.15	0.1394	1.3446	0.004
298.15	0.1708	1.3453	0.004
298.15	0.2076	1.3462	0.004
298.15	0.2453	1.347	0.004
298.15	0.2705	1.3477	0.004
298.15	0.3006	1.3484	0.004
308.15	0.0402	1.3378	0.004
308.15	0.0834	1.3388	0.004
308.15	0.11	1.3397	0.004
308.15	0.1394	1.3404	0.004
308.15	0.1708	1.3412	0.004
308.15	0.2076	1.3423	0.004
308.15	0.2453	1.3431	0.004
308.15	0.2705	1.3438	0.004
308.15	0.3006	1.3446	0.004
318.15	0.0402	1.3333	0.004
318.15	0.0834	1.3345	0.004
318.15	0.11	1.3352	0.004
318.15	0.1394	1.3359	0.004
318.15	0.1708	1.3367	0.004
318.15	0.2076	1.3377	0.004
318.15	0.2453	1.3388	0.004
318.15	0.2705	1.3395	0.004
318.15	0.3006	1.3403	0.004

System: acetonitrile + 1-butyl-3-methylimidazolium bromide; phases: Liquid
Fixed: Pressure, kPa = 86.8
Property: Mass density, kg/m3 (Liquid); method: Vibrating tube method
Molality, mol/kg of 1-butyl-3-methylimidazolium bromide	Temperature, K	Mass density, kg/m3	uncertainty
0.1046	288.15	796.218	0.171
0.2021	288.15	803.662	0.201
0.2996	288.15	810.75	0.169
0.1046	298.15	785.312	0.177
0.2021	298.15	792.989	0.175
0.2996	298.15	800.167	0.174
0.1046	308.15	774.491	0.182
0.2021	308.15	782.263	0.18
0.2996	308.15	789.528	0.179
0.1046	318.15	763.59	0.187
0.2021	318.15	771.427	0.193
0.2996	318.15	778.947	0.184

System: acetonitrile + 1-butyl-3-methylimidazolium bromide; phases: Liquid
Fixed: Pressure, kPa = 86.8
Property: Speed of sound, m/s (Liquid); method: Sing-around technique in a fixed-path interferometer
Molality, mol/kg of 1-butyl-3-methylimidazolium bromide	Temperature, K	Speed of sound, m/s	uncertainty
0.1046	288.15	1323.5	1.2
0.2021	288.15	1327.14	1.25
0.2996	288.15	1330.32	1.22
0.1046	298.15	1283.19	1.19
0.2021	298.15	1287.06	1.2
0.2996	298.15	1290.32	1.21
0.1046	308.15	1243.19	1.18
0.2021	308.15	1247.18	1.19
0.2996	308.15	1250.63	1.2
0.1046	318.15	1203.07	1.18
0.2021	318.15	1207.34	1.19
0.2996	318.15	1210.77	1.2

System: acetonitrile + 1-butyl-3-methylimidazolium bromide; phases: Liquid
Fixed: Pressure, kPa = 86.8
Property: Viscosity, Pa*s (Liquid); method: Capillary tube (Ostwald; Ubbelohde) method
Molality, mol/kg of 1-butyl-3-methylimidazolium bromide	Temperature, K	Viscosity, Pa*s	uncertainty
0.1046	288.15	0.0004	1e-05
0.2021	288.15	0.000421	1e-05
0.2996	288.15	0.00044	1e-05
0.1046	298.15	0.000363	1e-05
0.2021	298.15	0.00038	1e-05
0.2996	298.15	0.000398	1e-05
0.1046	308.15	0.000331	1e-05
0.2021	308.15	0.000346	1e-05
0.2996	308.15	0.000361	1e-05
0.1046	318.15	0.000304	1e-05
0.2021	318.15	0.000318	1e-05
0.2996	318.15	0.000331	1e-05

System: acetonitrile + 1-butyl-3-methylimidazolium bromide; phases: Liquid
Fixed: Pressure, kPa = 86.8
Property: Refractive index (Na D-line) (Liquid); method: Standard Abbe refractometry
Molality, mol/kg of 1-butyl-3-methylimidazolium bromide	Temperature, K	Refractive index (Na D-line)	uncertainty
0.1046	288.15	1.3492	0.004
0.2021	288.15	1.3528	0.004
0.2996	288.15	1.3557	0.004
0.1046	298.15	1.3449	0.004
0.2021	298.15	1.3479	0.004
0.2996	298.15	1.3509	0.004
0.1046	308.15	1.3402	0.004
0.2021	308.15	1.3429	0.004
0.2996	308.15	1.3462	0.004
0.1046	318.15	1.3359	0.004
0.2021	318.15	1.3381	0.004
0.2996	318.15	1.3402	0.004
