Measured thermophysical data. Compressed-Liquid Density Measurements of 3-Ethoxy-1,1,1,2,3,4,4,5,5,6,6,6-dodecafluoro-2-trifluoromethylhexane
Source: J. Chem. Eng. Data, 2014, 10.1021/je5002686
Compound 1: 2-trifluoromethyl-3-ethoxydodecafluorohexane, C9H5F15O, InChI=1S/C9H5F15O/c1-2-25-6(15,3(10,7(16,17)18)8(19,20)21)4(11,12)5(13,14)9(22,23)24/h2H2,1H3, purity 99.7%

System: 2-trifluoromethyl-3-ethoxydodecafluorohexane; phases: Liquid
Property: Mass density, kg/m3 (Liquid); method: Vibrating tube method
Temperature, K	Pressure, kPa	Mass density, kg/m3	uncertainty
270	49960	1759.2	1.9
270	45000	1752.6	1.7
270	40000	1745.8	1.6
270	35000	1738.7	1.5
270	30000	1731.2	1.4
270	24990	1723.4	1.3
270	20000	1715.2	1.2
270	14990	1706.5	1.1
270	9990	1697.3	1
270	5000	1687.5	0.9
270	3990	1685.5	0.9
270	3000	1683.4	0.9
270	1990	1681.3	0.9
270	990	1679.2	0.9
270	490	1678.1	0.9
270	49970	1759.2	1.9
270	45000	1752.6	1.7
270	40000	1745.7	1.6
270	35000	1738.6	1.5
270	30000	1731.1	1.4
270	25000	1723.3	1.3
270	20000	1715.1	1.2
270	15000	1706.5	1.1
270	10000	1697.3	1
270	4990	1687.5	0.9
270	3990	1685.5	0.9
270	3000	1683.4	0.9
270	1990	1681.3	0.9
270	1000	1679.2	0.9
270	490	1678.1	0.9
270	50000	1759.4	1.9
270	44990	1752.7	1.7
270	40000	1745.9	1.6
270	34990	1738.7	1.5
270	29990	1731.3	1.4
270	25000	1723.5	1.3
270	20000	1715.2	1.2
270	15000	1706.6	1.1
270	10000	1697.4	1
270	5000	1687.7	0.9
270	4000	1685.6	0.9
270	3010	1683.6	0.9
270	2000	1681.5	0.9
270	990	1679.3	0.9
270	500	1678.3	0.9
290	49930	1729.2	1.8
290	44990	1722.1	1.7
290	40000	1714.6	1.6
290	34990	1706.7	1.5
290	30000	1698.4	1.3
290	25000	1689.7	1.2
290	19990	1680.5	1.1
290	15000	1670.8	1.1
290	9990	1660.3	1
290	4990	1649.1	0.9
290	3990	1646.7	0.9
290	3000	1644.3	0.9
290	1990	1641.9	0.9
290	990	1639.4	0.9
290	500	1638.1	0.9
290	49950	1729	1.8
290	45000	1721.9	1.7
290	40000	1714.4	1.6
290	35000	1706.5	1.5
290	30010	1698.3	1.3
290	25000	1689.5	1.2
290	19990	1680.3	1.1
290	15000	1670.6	1.1
290	9990	1660.1	1
290	5000	1648.9	0.9
290	3990	1646.5	0.9
290	3000	1644.1	0.9
290	2000	1641.7	0.9
290	1000	1639.2	0.9
290	490	1637.9	0.9
290	49940	1729.1	1.8
290	45000	1722.1	1.7
290	40000	1714.5	1.6
290	35010	1706.7	1.5
290	30000	1698.4	1.3
290	25000	1689.7	1.2
290	20000	1680.6	1.1
290	15000	1670.8	1.1
290	9990	1660.4	1
290	5000	1649.2	0.9
290	4000	1646.8	0.9
290	2990	1644.4	0.9
290	2000	1642	0.9
290	990	1639.5	0.9
290	500	1638.2	0.9
310	49970	1699.6	1.8
310	45000	1691.8	1.6
310	40000	1683.6	1.5
310	35000	1674.9	1.4
310	29990	1665.8	1.3
310	25010	1656.2	1.2
310	19990	1645.9	1.1
310	15000	1634.9	1
310	10000	1623	1
310	5000	1610	0.9
310	3990	1607.3	0.9
310	3000	1604.5	0.9
310	2000	1601.6	0.9
310	990	1598.7	0.9
310	490	1597.2	0.9
310	50010	1699.6	1.8
310	45000	1691.7	1.6
310	40000	1683.5	1.5
310	34990	1674.8	1.4
310	30010	1665.7	1.3
310	25000	1656.1	1.2
310	19990	1645.8	1.1
310	15000	1634.8	1
310	10000	1622.9	1
310	4990	1609.9	0.9
310	4000	1607.2	0.9
310	3000	1604.4	0.9
310	2000	1601.6	0.9
310	1000	1598.7	0.9
310	500	1597.2	0.9
310	50050	1700.1	1.8
310	45000	1692.2	1.6
310	40000	1683.9	1.5
310	35010	1675.3	1.4
310	30000	1666.2	1.3
310	25010	1656.5	1.2
310	20000	1646.2	1.1
310	15000	1635.2	1
310	10000	1623.3	1
310	5010	1610.3	0.9
310	4000	1607.6	0.9
310	2990	1604.8	0.9
310	2000	1601.9	0.9
310	1000	1599	0.9
310	500	1597.5	0.9
330	50010	1670.6	1.7
330	45000	1662	1.6
330	40000	1653.1	1.5
330	34990	1643.6	1.4
330	29990	1633.5	1.3
330	25000	1622.9	1.2
330	19990	1611.3	1.1
330	15000	1598.9	1
330	9990	1585.3	1
330	5000	1570.3	0.9
330	4000	1567.1	0.9
330	3000	1563.8	0.9
330	1990	1560.4	0.9
330	1000	1556.9	0.9
330	500	1555.2	0.9
330	49990	1670.3	1.7
330	44990	1661.8	1.6
330	40000	1652.8	1.5
330	35000	1643.4	1.4
330	30000	1633.4	1.3
330	25000	1622.6	1.2
330	20000	1611.2	1.1
330	15000	1598.7	1
330	10000	1585.1	1
330	5000	1570.1	0.9
330	4000	1566.9	0.9
330	2990	1563.6	0.9
330	2000	1560.2	0.9
330	1000	1556.7	0.9
330	500	1555	0.9
330	49980	1670.4	1.7
330	44990	1661.9	1.6
330	40000	1652.9	1.5
330	34990	1643.5	1.4
330	30000	1633.5	1.3
330	25000	1622.7	1.2
330	19990	1611.2	1.1
330	15000	1598.8	1
330	10000	1585.2	1
330	4990	1570.2	0.9
330	3990	1567	0.9
330	3000	1563.7	0.9
330	2000	1560.3	0.9
330	1000	1556.9	0.9
330	490	1555.1	0.9
350	49990	1641.9	1.6
350	44990	1632.7	1.5
350	40000	1622.9	1.4
350	35000	1612.6	1.3
350	30000	1601.5	1.2
350	24990	1589.6	1.1
350	20000	1576.8	1.1
350	15000	1562.7	1
350	9990	1547.1	0.9
350	5000	1529.6	0.9
350	4000	1525.8	0.9
350	3000	1521.9	0.9
350	1990	1517.8	0.9
350	1000	1513.7	0.9
350	510	1511.6	0.9
350	49990	1641.7	1.6
350	45000	1632.5	1.5
350	40010	1622.7	1.4
350	34990	1612.3	1.3
350	29990	1601.3	1.2
350	24990	1589.4	1.1
350	19990	1576.5	1.1
350	15000	1562.5	1
350	10000	1546.9	0.9
350	4990	1529.4	0.9
350	4000	1525.6	0.9
350	3000	1521.7	0.9
350	2000	1517.6	0.9
350	1000	1513.5	0.9
350	500	1511.4	0.9
350	50000	1641.8	1.6
350	44990	1632.5	1.5
350	40000	1622.8	1.4
350	34990	1612.4	1.3
350	30000	1601.4	1.2
350	24990	1589.5	1.1
350	19990	1576.6	1.1
350	15000	1562.6	1
350	10000	1547	0.9
350	5000	1529.5	0.9
350	4000	1525.7	0.9
350	2990	1521.8	0.9
350	2000	1517.8	0.9
350	990	1513.6	0.9
350	500	1511.5	0.9
370	50020	1613.6	1.6
370	45000	1603.6	1.5
370	40000	1593	1.4
370	35000	1581.7	1.3
370	30000	1569.5	1.2
370	25000	1556.3	1.1
370	20000	1541.9	1
370	14990	1526	1
370	10000	1508.2	0.9
370	4990	1487.6	0.9
370	4000	1483.1	0.9
370	2990	1478.5	0.9
370	1990	1473.6	0.9
370	1000	1468.6	0.9
370	500	1466	0.9
370	49990	1613.2	1.6
370	45000	1603.3	1.5
370	40000	1592.7	1.4
370	35000	1581.4	1.3
370	30000	1569.2	1.2
370	25000	1556.1	1.1
370	19990	1541.7	1
370	14990	1525.8	1
370	10000	1507.9	0.9
370	5000	1487.5	0.9
370	4000	1483	0.9
370	3000	1478.2	0.9
370	2000	1473.4	0.9
370	1000	1468.4	0.9
370	490	1465.7	0.9
370	49990	1613.4	1.6
370	45000	1603.4	1.5
370	40000	1592.8	1.4
370	34990	1581.5	1.3
370	30000	1569.4	1.2
370	25000	1556.2	1.1
370	19990	1541.8	1
370	14990	1526	1
370	10000	1508.1	0.9
370	5000	1487.6	0.9
370	3990	1483.1	0.9
370	3000	1478.5	0.9
370	1990	1473.5	0.9
370	1000	1468.5	0.9
370	490	1465.9	0.9
390	49990	1585.5	1.5
390	45000	1574.7	1.4
390	40000	1563.2	1.3
390	35000	1550.9	1.2
390	30000	1537.6	1.2
390	25000	1523	1.1
390	20000	1507	1
390	14990	1488.9	1
390	10000	1468.4	0.9
390	5000	1444.3	0.9
390	3990	1438.8	0.9
390	3000	1433.2	0.9
390	1990	1427.2	0.9
390	1000	1421.1	0.9
390	500	1417.8	0.9
390	49980	1585.3	1.5
390	45000	1574.6	1.4
390	40000	1563.1	1.3
390	35000	1550.8	1.2
390	30000	1537.4	1.2
390	25000	1522.9	1.1
390	19990	1506.8	1
390	15000	1488.9	1
390	10000	1468.3	0.9
390	5000	1444.1	0.9
390	3990	1438.7	0.9
390	3000	1433.1	0.9
390	2000	1427.1	0.9
390	990	1420.9	0.9
390	500	1417.7	0.9
390	49990	1585.5	1.5
390	44990	1574.8	1.4
390	40000	1563.3	1.3
390	35000	1551	1.3
390	29990	1537.6	1.2
390	25000	1523.1	1.1
390	19990	1507	1
390	14990	1489	1
390	10000	1468.5	0.9
390	5000	1444.4	0.9
390	3990	1438.9	0.9
390	3010	1433.3	0.9
390	1990	1427.4	0.9
390	990	1421.1	0.9
390	490	1417.9	0.9
410	50000	1558	1.5
410	45000	1546.4	1.4
410	40000	1534	1.3
410	34990	1520.6	1.2
410	29990	1506	1.1
410	24990	1489.9	1.1
410	20000	1472	1
410	15000	1451.6	0.9
410	10000	1427.9	0.9
410	4990	1399.3	0.9
410	4000	1392.7	0.9
410	990	1370.5	0.9
410	50020	1557.9	1.5
410	45010	1546.3	1.4
410	40000	1533.9	1.3
410	35000	1520.5	1.2
410	30000	1505.8	1.1
410	24990	1489.7	1.1
410	19990	1471.8	1
410	15000	1451.5	0.9
410	3990	1392.5	0.9
410	50020	1557.9	1.5
410	45010	1546.3	1.4
410	40000	1533.9	1.3
410	35000	1520.5	1.2
410	30000	1505.8	1.1
410	24990	1489.7	1.1
410	19990	1471.8	1
410	15000	1451.5	0.9
410	3990	1392.5	0.9
430	49960	1530.9	1.4
430	45000	1518.6	1.4
430	40000	1505.2	1.3
430	35000	1490.6	1.2
430	29990	1474.6	1.1
430	25000	1456.9	1
430	20000	1436.9	1
430	14990	1413.9	0.9
430	9990	1386.6	0.9
430	5000	1352.4	0.9
430	4000	1344.3	0.9
430	3000	1335.6	0.9
430	2000	1326.2	0.9
430	1000	1316.1	0.9
430	500	1310.6	0.9
430	50000	1530.9	1.4
430	45000	1518.4	1.4
430	40000	1505	1.3
430	34990	1490.4	1.2
430	30010	1474.5	1.1
430	25000	1456.8	1
430	19990	1436.8	1
430	15000	1413.8	0.9
430	9990	1386.4	0.9
430	4990	1352.1	0.9
430	4000	1344.1	0.9
430	3000	1335.4	0.9
430	2000	1326	0.9
430	1000	1315.9	0.9
430	500	1310.4	0.9
430	49990	1531	1.4
430	45000	1518.6	1.4
430	40010	1505.2	1.3
430	35000	1490.6	1.2
430	30000	1474.7	1.1
430	24990	1456.9	1
430	19990	1437	1
430	15000	1414	0.9
430	9990	1386.6	0.9
430	4990	1352.4	0.9
430	4000	1344.3	0.9
430	3000	1335.7	0.9
430	2000	1326.3	0.9
430	1000	1316.2	0.9
450	49990	1504.5	1.4
450	45000	1491.2	1.3
450	39990	1476.8	1.2
450	35000	1461	1.1
450	29990	1443.6	1.1
450	25000	1424.1	1
450	19990	1401.9	1
450	15000	1375.9	0.9
450	10000	1344.2	0.9
450	4990	1302.9	0.9
450	3980	1292.6	0.9
450	1990	1269.4	0.9
450	50000	1504.4	1.4
450	45000	1491.1	1.3
450	40000	1476.6	1.2
450	34990	1460.8	1.1
450	29990	1443.4	1.1
450	25000	1424	1
450	19990	1401.7	1
450	14980	1375.6	0.9
450	10000	1344.1	0.9
450	49980	1504.5	1.4
450	45000	1491.2	1.3
450	40000	1476.8	1.2
450	34990	1461	1.1
450	30000	1443.6	1.1
450	25000	1424.1	1
450	19990	1401.9	1
450	14990	1375.9	0.9
450	10000	1344.3	0.9
450	4990	1303	0.9
450	4000	1292.9	0.9
470	50010	1478.5	1.4
470	44990	1464.2	1.3
470	40000	1448.7	1.2
470	34990	1431.7	1.1
470	30000	1412.8	1.1
470	25000	1391.4	1
470	20000	1366.7	0.9
470	14990	1337.3	0.9
470	9990	1300.6	0.9
470	5010	1250.5	0.9
470	49990	1478.4	1.4
470	44990	1464.1	1.3
470	40000	1448.7	1.2
470	35010	1431.7	1.1
470	29990	1412.7	1.1
470	25000	1391.3	1
470	19990	1366.6	0.9
470	15000	1337.3	0.9
470	10010	1300.7	0.9
470	50000	1478.6	1.4
470	45000	1464.3	1.3
470	39990	1448.8	1.2
470	34990	1431.8	1.1
470	30000	1412.9	1.1
470	25000	1391.5	1
470	20000	1366.9	0.9
470	15000	1337.5	0.9
470	9990	1300.8	0.9
