Measured thermophysical data. Thermodynamic Models for Determination of the Solubility of Dibenzothiophene in Different Solvents at Temperatures from (278.15 to 328.15) K
Source: J. Chem. Eng. Data, 2014, 10.1021/je500437m
Compound 1: dibenzothiophene, C12H8S, InChI=1S/C12H8S/c1-3-7-11-9(5-1)10-6-2-4-8-12(10)13-11/h1-8H, purity 98%
Compound 2: methanol, CH4O, InChI=1S/CH4O/c1-2/h2H,1H3, purity 99.7%
Compound 3: ethanol, C2H6O, InChI=1S/C2H6O/c1-2-3/h3H,2H2,1H3, purity 99.9%
Compound 4: propan-2-ol, C3H8O, InChI=1S/C3H8O/c1-3(2)4/h3-4H,1-2H3, purity 99.7%
Compound 5: butan-1-ol, C4H10O, InChI=1S/C4H10O/c1-2-3-4-5/h5H,2-4H2,1H3, purity 99.8%
Compound 6: formic acid, CH2O2, InChI=1S/CH2O2/c2-1-3/h1H,(H,2,3), purity 99.5%
Compound 7: acetonitrile, C2H3N, InChI=1S/C2H3N/c1-2-3/h1H3, purity 99.5%

System: dibenzothiophene; phases: Crystal, Liquid, Air at 1 atmosphere
Property: Normal melting temperature, K (Crystal); method: Heating/Cooling curves
Normal melting temperature, K	uncertainty
373.15	1.6

System: methanol + dibenzothiophene; phases: Liquid, Crystal
Fixed: Pressure, kPa = 101
Property: Mole fraction of dibenzothiophene (Liquid); method: gravimetric
Temperature, K	Mole fraction of dibenzothiophene	uncertainty
278.15	0.001262	5.1e-05
283.15	0.001628	6.6e-05
288.15	0.001923	7.7e-05
293.15	0.002424	9.8e-05
298.15	0.002897	0.000116
303.15	0.00331	0.000133
308.15	0.004064	0.000163
313.15	0.004782	0.000192
318.15	0.005727	0.00023
323.15	0.006685	0.000269
328.15	0.007946	0.000319

System: ethanol + dibenzothiophene; phases: Liquid, Crystal
Fixed: Pressure, kPa = 101
Property: Mole fraction of dibenzothiophene (Liquid); method: gravimetric
Temperature, K	Mole fraction of dibenzothiophene	uncertainty
278.15	0.00347	0.00014
283.15	0.004331	0.000174
288.15	0.005294	0.000213
293.15	0.006185	0.000249
298.15	0.007498	0.000302
303.15	0.009187	0.000369
308.15	0.010467	0.000421
313.15	0.012713	0.000511
318.15	0.014833	0.000596
323.15	0.017357	0.000698
328.15	0.020572	0.000827

System: propan-2-ol + dibenzothiophene; phases: Liquid, Crystal
Fixed: Pressure, kPa = 101
Property: Mole fraction of dibenzothiophene (Liquid); method: gravimetric
Temperature, K	Mole fraction of dibenzothiophene	uncertainty
278.15	0.002446	0.0001
283.15	0.003473	0.00014
288.15	0.004361	0.000176
293.15	0.005775	0.000233
298.15	0.007031	0.000283
303.15	0.008739	0.000352
308.15	0.011053	0.000445
313.15	0.013612	0.000548
318.15	0.016243	0.000654
323.15	0.020196	0.000814
328.15	0.024915	0.001002

System: butan-1-ol + dibenzothiophene; phases: Liquid, Crystal
Fixed: Pressure, kPa = 101
Property: Mole fraction of dibenzothiophene (Liquid); method: gravimetric
Temperature, K	Mole fraction of dibenzothiophene	uncertainty
278.15	0.004847	0.000196
283.15	0.006206	0.00025
288.15	0.007885	0.000318
293.15	0.009994	0.000404
298.15	0.013226	0.000533
303.15	0.016027	0.000645
308.15	0.019204	0.000774
313.15	0.02424	0.000977
318.15	0.030327	0.001223
323.15	0.038105	0.001534
328.15	0.04584	0.001843

System: formic acid + dibenzothiophene; phases: Liquid, Crystal
Fixed: Pressure, kPa = 101
Property: Mole fraction of dibenzothiophene (Liquid); method: gravimetric
Temperature, K	Mole fraction of dibenzothiophene	uncertainty
278.15	0.0475	0.0019
283.15	0.0578	0.0023
288.15	0.0668	0.0027
293.15	0.0756	0.003
298.15	0.0881	0.0035
303.15	0.0995	0.004
308.15	0.1116	0.0045
313.15	0.1264	0.0051
318.15	0.1399	0.0056
323.15	0.1571	0.0063
328.15	0.1768	0.0071

System: acetonitrile + dibenzothiophene; phases: Liquid, Crystal
Fixed: Pressure, kPa = 101
Property: Mole fraction of dibenzothiophene (Liquid); method: gravimetric
Temperature, K	Mole fraction of dibenzothiophene	uncertainty
278.15	0.004538	0.000184
283.15	0.006105	0.000248
288.15	0.008453	0.000345
293.15	0.012773	0.000517
298.15	0.015662	0.00063
303.15	0.018913	0.000762
308.15	0.024128	0.000975
313.15	0.032059	0.001294
318.15	0.040161	0.001619
323.15	0.050614	0.002041
328.15	0.063857	0.002572
