Measured thermophysical data. Measurement and Correlation of Isothermal Vapor Liquid Equilibrium of 1,1,1,3,3-Pentafluoropropane + N,N-Dimethylacetamide and 1,1,1,3,3,3-Hexafluoropropane + N,N-Dimethylacetamide/Diethylene Glycol Dimethyl Ether Systems
Source: J. Chem. Eng. Data, 2014, 10.1021/je500801w
Compound 1: 1,1,1,3,3-pentafluoropropane, C3H3F5, InChI=1S/C3H3F5/c4-2(5)1-3(6,7)8/h2H,1H2, purity 99.9%
Compound 2: 1,1,1,3,3,3-hexafluoropropane, C3H2F6, InChI=1S/C3H2F6/c4-2(5,6)1-3(7,8)9/h1H2, purity 99.9%
Compound 3: dimethylformamide, C3H7NO, InChI=1S/C3H7NO/c1-4(2)3-5/h3H,1-2H3, purity 99.9%
Compound 4: N,N-dimethylethanamide, C4H9NO, InChI=1S/C4H9NO/c1-4(6)5(2)3/h1-3H3, purity 99.9%
Compound 5: 2,5,8-trioxanonane, C6H14O3, InChI=1S/C6H14O3/c1-7-3-5-9-6-4-8-2/h3-6H2,1-2H3, purity 99.9%
Compound 6: difluoromethane, CH2F2, InChI=1S/CH2F2/c2-1-3/h1H2, purity 99.9%

System: dimethylformamide + difluoromethane; phases: Liquid, Gas
Property: Vapor or sublimation pressure, kPa (Liquid); method: Ebulliometric method (Recirculating still)
Temperature, K	Mole fraction of difluoromethane	Vapor or sublimation pressure, kPa	uncertainty
303.15	0.1259	192.74	43.32
303.15	0.2615	388.47	47.03
303.15	0.3608	562.43	53.25
303.15	0.4919	796.69	53.78
313.15	0.1256	231.32	60.04
313.15	0.252	484.26	56.08
313.15	0.3689	685.28	64.82
313.15	0.4799	976.87	78.96

System: N,N-dimethylethanamide + 1,1,1,3,3-pentafluoropropane; phases: Liquid, Gas
Property: Vapor or sublimation pressure, kPa (Liquid); method: Ebulliometric method (Recirculating still)
Temperature, K	Mole fraction of 1,1,1,3,3-pentafluoropropane	Vapor or sublimation pressure, kPa	uncertainty
293.15	0.31	24.7	3.3
293.15	0.3868	33.1	3.4
293.15	0.4663	42.3	3.8
293.15	0.5534	54	4
293.15	0.6391	65.8	4.4
293.15	0.7431	81.5	5
293.15	0.857	101.7	5.4
303.15	0.289	32	4.2
303.15	0.391	47	4.9
303.15	0.4713	61.4	5.2
303.15	0.5556	75.7	5.7
303.15	0.6239	90.4	6.9
303.15	0.6946	105.8	6.8
303.15	0.7647	121.9	7.2
303.15	0.8513	144.3	9.4
313.15	0.27	42	5.5
313.15	0.3697	60.9	6.3
313.15	0.4514	79.1	7.3
313.15	0.5295	98.9	7.7
313.15	0.597	116.2	8.8
313.15	0.6704	138.3	9.9
313.15	0.753	165.3	11
313.15	0.8398	199.2	13.9
323.15	0.28	59.7	7.6
323.15	0.3764	87.5	8.6
323.15	0.4539	109.6	9.6
323.15	0.5343	137.5	10.4
323.15	0.63	172.9	11.2
323.15	0.7056	203.5	12.4
323.15	0.7912	239.3	14.7
323.15	0.8597	283.8	21.6
333.15	0.3553	106.7	10.5
333.15	0.4753	153.6	12.7
333.15	0.5873	205.3	14.6
333.15	0.6736	249.8	16
333.15	0.7522	292.9	19.8
333.15	0.8625	373.1	23.4
343.15	0.1994	70.9	13
343.15	0.28	105.7	12.9
343.15	0.379	149.6	14.5
343.15	0.4751	199.8	16.7
343.15	0.5976	271.1	19.5
343.15	0.691	337.9	21.8
343.15	0.7784	402.2	24.6
343.15	0.8591	475.3	31.8
353.15	0.1292	60.8	15.7
353.15	0.2345	115.8	16.9
353.15	0.3538	187.1	19.6
353.15	0.4909	282.6	22.3
353.15	0.619	383.9	26.2
353.15	0.7417	501.2	30
353.15	0.8388	602.9	31.6

System: N,N-dimethylethanamide + 1,1,1,3,3,3-hexafluoropropane; phases: Liquid, Gas
Property: Vapor or sublimation pressure, kPa (Liquid); method: Ebulliometric method (Recirculating still)
Temperature, K	Mole fraction of 1,1,1,3,3,3-hexafluoropropane	Vapor or sublimation pressure, kPa	uncertainty
293.15	0.39	42.9	5.4
293.15	0.4603	55.5	5.3
293.15	0.5559	72.2	5.9
293.15	0.624	87.7	7
293.15	0.6902	103.2	8.5
293.15	0.7513	123.6	10.4
293.15	0.8233	149.2	12.2
293.15	0.8874	178.9	14
303.15	0.4226	65	7.3
303.15	0.4978	83.2	7.2
303.15	0.5633	100.6	8.6
303.15	0.6229	119.2	9.3
303.15	0.6811	136.6	11.8
303.15	0.7359	163	14.1
303.15	0.8198	201.5	16.6
303.15	0.8978	252.7	20.8
313.15	0.3784	75.1	8.5
313.15	0.4532	96.5	9.9
313.15	0.5555	133.2	11.3
313.15	0.6308	160.1	12.2
313.15	0.6935	189.5	15.1
313.15	0.7546	223.5	18.8
313.15	0.8173	267.7	21.8
313.15	0.8992	329.1	26.7
323.15	0.252	55.8	9.2
323.15	0.3284	79.1	10.7
323.15	0.43	119	12
323.15	0.5241	157.5	13.5
323.15	0.6225	205.5	16.5
323.15	0.6809	243.1	21.1
323.15	0.7285	278.7	22.7
323.15	0.8052	336.9	24
323.15	0.8578	382.2	31.8
323.15	0.903	440.9	39
333.15	0.2753	79.2	13.8
333.15	0.3506	113.9	14.2
333.15	0.437	155.3	15
333.15	0.5172	197.9	18.1
333.15	0.5853	243.6	22
333.15	0.6926	325.6	24.4
333.15	0.7875	407.3	31.5
333.15	0.8799	521.7	37.2
343.15	0.2591	96	15.5
343.15	0.3517	144.2	17.7
343.15	0.4761	223.8	21.5
343.15	0.6055	325.7	26.2
343.15	0.7113	429.3	32.5
343.15	0.7765	512.7	36.8
343.15	0.854	603.9	35.5
353.15	0.2397	112	21
353.15	0.34	182	21.9
353.15	0.4239	246.2	24.5
353.15	0.5137	323.6	28.2
353.15	0.6192	429.3	34.5
353.15	0.732	573.7	42.9
353.15	0.8364	739.9	47.9

System: 2,5,8-trioxanonane + 1,1,1,3,3,3-hexafluoropropane; phases: Liquid, Gas
Property: Vapor or sublimation pressure, kPa (Liquid); method: Ebulliometric method (Recirculating still)
Temperature, K	Mole fraction of 1,1,1,3,3,3-hexafluoropropane	Vapor or sublimation pressure, kPa	uncertainty
293.15	0.35	32.1	5.6
293.15	0.4621	52.7	6
293.15	0.5718	75.9	7
293.15	0.6783	103.1	7.8
293.15	0.7501	121.9	8.1
293.15	0.8403	146.6	9
293.15	0.889	163.9	10.7
303.15	0.3102	36.1	7.1
303.15	0.4076	59.1	7.9
303.15	0.5132	89.6	8.6
303.15	0.5978	113.2	8.9
303.15	0.656	133.9	10.7
303.15	0.7164	155.1	11.1
303.15	0.7701	175.8	10.2
303.15	0.8239	195.7	14.5
303.15	0.8668	217.5	22.9
313.15	0.275	42.5	8.2
313.15	0.3681	69.6	9.5
313.15	0.4564	99.7	10.8
313.15	0.531	128.1	11.6
313.15	0.6411	172.8	13.7
313.15	0.72	209.7	15.5
313.15	0.8002	252.9	18.4
313.15	0.8974	317.9	20.2
323.15	0.2303	47.1	10.4
323.15	0.3561	92.5	11.9
323.15	0.4335	126.5	13.9
323.15	0.5213	168.6	14.8
323.15	0.5834	199.7	14.3
323.15	0.6796	252.6	18.5
323.15	0.7664	312.3	21.5
323.15	0.8283	359.3	23.2
323.15	0.8866	407.2	27.6
333.15	0.1797	49.3	12.8
333.15	0.3022	101.3	13.8
333.15	0.4191	158.9	16.8
333.15	0.5188	221.6	20.4
333.15	0.6598	321.5	22.5
333.15	0.7692	409.3	26.7
333.15	0.8751	512.7	30.6
343.15	0.1565	61.7	15.6
343.15	0.2526	112.2	16.6
343.15	0.3627	175.7	18.6
343.15	0.4474	232.8	22.8
343.15	0.5425	311.6	25.3
343.15	0.6429	397.5	26.9
343.15	0.75	497	32
343.15	0.8664	633.9	38.2
353.15	0.1375	77.9	20.9
353.15	0.2827	179.1	22.6
353.15	0.3964	273.5	26.8
353.15	0.5573	423.6	30.2
353.15	0.68	559	34.3
353.15	0.755	650	39
353.15	0.8517	780.9	40.8
