Measured thermophysical data. Measurement and Modeling of the Densities for CO2 + Dodecane System from 313.55 K to 353.55 K and Pressures up to 18 MPa
Source: J. Chem. Eng. Data, 2014, 10.1021/je5005643
Compound 1: carbon dioxide, CO2, InChI=1S/CO2/c2-1-3, purity 99.99%
Compound 2: dodecane, C12H26, InChI=1S/C12H26/c1-3-5-7-9-11-12-10-8-6-4-2/h3-12H2,1-2H3, purity 99%

System: dodecane; phases: Liquid
Property: Mass density, kg/m3 (Liquid); method: Buoyancy - hydrostatic balance with magnetic suspension - one sinker
Temperature, K	Pressure, kPa	Mass density, kg/m3	uncertainty
313.53	8012	740.43	0.76
313.5	9962	741.88	0.76
313.5	12011	743.35	0.76
313.52	13987	744.76	0.76
313.48	16030	746.15	0.76
313.48	17972	747.51	0.76
323.46	7994	733.56	0.76
323.48	9968	735.18	0.76
323.57	11960	736.57	0.76
323.52	13993	738.13	0.76
323.49	16021	739.64	0.76
323.49	18018	741.06	0.76
333.55	8003	726.32	0.76
333.51	9996	727.99	0.76
333.55	11980	729.56	0.76
333.56	13998	731.15	0.76
333.53	15975	732.68	0.76
333.52	17973	734.22	0.76
343.5	7959	719.25	0.76
343.5	10036	721.04	0.76
343.48	11000	721.9	0.76
343.48	11993	722.72	0.76
343.47	12998	723.59	0.76
343.52	13977	724.32	0.76
343.54	14989	725.15	0.76
343.55	15979	725.97	0.76
343.56	16970	726.72	0.76
343.56	18004	727.54	0.76
353.57	8022	712.16	0.76
353.57	10035	713.95	0.76
353.58	11021	714.86	0.76
353.58	12000	715.73	0.76
353.56	13021	716.67	0.76
353.56	13976	717.47	0.76
353.52	15037	718.45	0.76
353.55	15991	719.22	0.76
353.59	17027	720.07	0.76
353.53	17993	720.9	0.76

System: dodecane + carbon dioxide; phases: Liquid
Property: Mass density, kg/m3 (Liquid); method: Buoyancy - hydrostatic balance with magnetic suspension - one sinker
Mole fraction of carbon dioxide	Temperature, K	Pressure, kPa	Mass density, kg/m3	uncertainty
0.2497	313.54	7993	748.94	0.75
0.2497	313.52	9972	750.63	0.75
0.2497	313.52	11965	752.3	0.75
0.2497	313.53	14025	753.97	0.75
0.2497	313.54	15978	755.52	0.75
0.2497	313.54	17997	757.08	0.75
0.2497	323.55	8026	741.11	0.75
0.2497	323.56	9995	742.91	0.75
0.2497	323.55	11976	744.66	0.75
0.2497	323.55	13979	746.39	0.75
0.2497	323.5	16002	748.1	0.75
0.2497	323.56	17984	749.68	0.75
0.2497	333.58	8015	733.22	0.75
0.2497	333.61	9988	735.15	0.75
0.2497	333.58	12010	737.07	0.75
0.2497	333.56	14019	738.9	0.75
0.2497	333.55	16022	740.69	0.75
0.2497	333.55	17984	742.4	0.75
0.2497	343.54	7974	725.24	0.75
0.2497	343.56	9992	727.25	0.75
0.2497	343.64	11017	728.21	0.75
0.2497	343.55	11994	729.28	0.75
0.2497	343.61	13009	730.19	0.75
0.2497	343.55	13976	731.19	0.75
0.2497	343.61	15024	732.13	0.75
0.2497	343.6	15993	733.05	0.75
0.2497	343.62	17021	733.98	0.75
0.2497	343.59	17995	734.91	0.75
0.2497	353.56	8014	717.24	0.75
0.2497	353.56	9981	719.4	0.75
0.2497	353.57	10997	720.4	0.75
0.2497	353.56	11975	721.48	0.75
0.2497	353.56	12973	722.51	0.75
0.2497	353.56	13976	723.53	0.75
0.2497	353.56	15006	724.58	0.75
0.2497	353.56	15977	725.54	0.75
0.2497	353.55	16962	726.51	0.75
0.2497	353.55	17992	727.51	0.75
0.5094	313.56	8036	763.24	0.75
0.5094	313.56	10001	765.42	0.75
0.5094	313.55	12014	767.64	0.75
0.5094	313.58	14011	769.93	0.75
0.5094	313.56	15994	771.98	0.75
0.5094	313.54	18008	774.01	0.75
0.5094	323.54	7997	753.12	0.75
0.5094	323.54	10025	755.61	0.75
0.5094	323.52	11968	757.97	0.75
0.5094	323.54	14030	760.36	0.75
0.5094	323.55	15994	762.57	0.75
0.5094	323.56	17992	764.75	0.75
0.5094	333.57	8000	742.98	0.75
0.5094	333.51	10006	745.73	0.75
0.5094	333.57	11977	748.19	0.75
0.5094	333.55	14002	750.74	0.75
0.5094	333.53	16031	753.21	0.75
0.5094	333.55	18033	755.54	0.75
0.5094	343.59	7978	732.73	0.75
0.5094	343.56	10030	735.61	0.75
0.5094	343.57	10969	736.93	0.75
0.5094	343.54	11978	738.32	0.75
0.5094	343.55	12995	739.68	0.75
0.5094	343.56	14002	741.03	0.75
0.5094	343.55	15005	742.32	0.75
0.5094	343.54	15956	743.55	0.75
0.5094	343.54	16991	744.81	0.75
0.5094	343.6	18001	746.02	0.75
0.5094	353.56	7967	722.15	0.75
0.5094	353.55	10040	725.34	0.75
0.5094	353.58	11024	726.76	0.75
0.5094	353.52	11993	728.32	0.75
0.5094	353.53	13039	729.7	0.75
0.5094	353.52	13989	731.05	0.75
0.5094	353.52	14994	732.43	0.75
0.5094	353.52	16009	733.76	0.75
0.5094	353.51	17021	735.12	0.75
0.5094	353.52	18046	736.44	0.75
0.7576	313.55	8004	782.38	0.75
0.7576	313.59	10058	789.02	0.75
0.7576	313.64	12100	794.44	0.75
0.7576	313.54	14028	799.42	0.75
0.7576	313.51	16026	804.03	0.75
0.7576	313.57	18004	808.21	0.75
0.7576	323.46	8055	760.85	0.75
0.7576	323.62	9995	768.97	0.75
0.7576	323.67	12038	775.3	0.75
0.7576	323.6	14069	781.26	0.75
0.7576	323.65	16025	786.31	0.75
0.7576	323.63	18086	791.48	0.75
0.7576	333.61	7992	744.44	0.75
0.7576	333.57	10006	752.49	0.75
0.7576	333.55	12007	757.03	0.75
0.7576	333.42	14015	762.38	0.75
0.7576	333.6	16018	766.86	0.75
0.7576	333.52	18006	771.25	0.75
0.7576	343.79	8013	733.81	0.75
0.7576	343.48	10004	737.22	0.75
0.7576	343.8	11003	738.64	0.75
0.7576	343.63	12017	741.46	0.75
0.7576	343.81	13005	743.67	0.75
0.7576	343.77	14037	745.82	0.75
0.7576	343.84	16033	750.16	0.75
0.7576	343.79	16996	752.07	0.75
0.7576	343.79	18010	754.59	0.75
0.7576	353.97	8002	720.62	0.75
0.7576	353.91	9970	724.39	0.75
0.7576	353.81	11011	726.87	0.75
0.7576	354.08	11996	728.47	0.75
0.7576	353.86	13015	730.39	0.75
0.7576	353.93	14105	732.74	0.75
0.7576	353.75	15027	734.21	0.75
0.7576	354.05	16004	736.69	0.75
0.7576	353.97	17019	738.62	0.75
0.7576	353.95	18004	741.23	0.75
0.861	313.62	7996	783.09	0.75
0.861	313.61	10013	791.6	0.75
0.861	313.54	11984	800.03	0.75
0.861	313.61	14002	806.79	0.75
0.861	313.58	15992	817	0.75
0.861	313.61	17974	824.13	0.75
0.861	323.44	10004	769.15	0.75
0.861	323.46	12005	775.62	0.75
0.861	323.61	13997	783.45	0.75
0.861	323.51	16013	791.52	0.75
0.861	323.56	18007	798.79	0.75
0.861	333.58	12005	743.04	0.75
0.861	333.52	14011	755.13	0.75
0.861	333.54	15992	766.11	0.75
0.861	333.58	18002	775.55	0.75
0.861	343.51	13000	725.84	0.75
0.861	343.57	14001	735.72	0.75
0.861	343.57	15003	740.92	0.75
0.861	343.57	16006	746.22	0.75
0.861	343.53	17011	751.18	0.75
0.861	343.51	17998	755.67	0.75
0.861	353.8	15002	721.93	0.75
0.861	353.71	16007	728.03	0.75
0.861	353.78	17002	732.8	0.75
0.861	353.75	18000	737.42	0.75
