Measured thermophysical data. Solid Liquid Equilibria for Six Binary Mixtures of Nonanedioic Acids, Decanedioic Acid, 3-Methylheptanedioic Acid, 2,2-Dimethylbutanedioic Acid, and 2,3-Dimethylbutanedioic Acid
Source: J. Chem. Eng. Data, 2014, 10.1021/je500684w
Compound 1: 1,9-nonanedioic acid, C9H16O4, InChI=1S/C9H16O4/c10-8(11)6-4-2-1-3-5-7-9(12)13/h1-7H2,(H,10,11)(H,12,13), purity 98%
Compound 2: 3-methylheptanedioic acid, C8H14O4, InChI=1S/C8H14O4/c1-6(5-8(11)12)3-2-4-7(9)10/h6H,2-5H2,1H3,(H,9,10)(H,11,12), purity 99%
Compound 3: 2,2-dimethyl-1,4-butanedioic acid, C6H10O4, InChI=1S/C6H10O4/c1-6(2,5(9)10)3-4(7)8/h3H2,1-2H3,(H,7,8)(H,9,10), purity 99%
Compound 4: 2,3-dimethyl-1,4-butanedioic acid, C6H10O4, InChI=1S/C6H10O4/c1-3(5(7)8)4(2)6(9)10/h3-4H,1-2H3,(H,7,8)(H,9,10), purity 99%
Compound 5: 1,10-decanedioic acid, C10H18O4, InChI=1S/C10H18O4/c11-9(12)7-5-3-1-2-4-6-8-10(13)14/h1-8H2,(H,11,12)(H,13,14), purity 99%

System: 1,9-nonanedioic acid; phases: Crystal, Liquid, Air at 1 atmosphere
Property: Molar enthalpy of transition or fusion, kJ/mol (Crystal); method: DSC
Molar enthalpy of transition or fusion, kJ/mol	uncertainty
36.91	0.8

System: 3-methylheptanedioic acid; phases: Crystal, Liquid, Air at 1 atmosphere
Property: Molar enthalpy of transition or fusion, kJ/mol (Crystal); method: DSC
Molar enthalpy of transition or fusion, kJ/mol	uncertainty
28.98	0.64

System: 2,2-dimethyl-1,4-butanedioic acid; phases: Crystal, Liquid, Air at 1 atmosphere
Property: Molar enthalpy of transition or fusion, kJ/mol (Crystal); method: DSC
Molar enthalpy of transition or fusion, kJ/mol	uncertainty
38.11	0.82

System: 2,3-dimethyl-1,4-butanedioic acid; phases: Crystal, Liquid, Air at 1 atmosphere
Property: Molar enthalpy of transition or fusion, kJ/mol (Crystal); method: DSC
Molar enthalpy of transition or fusion, kJ/mol	uncertainty
16.51	0.86

System: 1,10-decanedioic acid; phases: Crystal, Liquid, Air at 1 atmosphere
Property: Molar enthalpy of transition or fusion, kJ/mol (Crystal); method: DSC
Molar enthalpy of transition or fusion, kJ/mol	uncertainty
47.7	1

System: 1,9-nonanedioic acid + 3-methylheptanedioic acid; phases: Crystal, Crystal, Liquid, Air at 1 atmosphere
Property: Eutectic temperature, K (Crystal); method: DTA
Eutectic temperature, K	uncertainty
342.1	0.91

System: 1,9-nonanedioic acid + 3-methylheptanedioic acid; phases: Crystal, Crystal, Liquid, Air at 1 atmosphere
Property: Eutectic composition: mole fraction of 1,9-nonanedioic acid (Crystal); method: Derived from phase diagram analysis
Eutectic composition: mole fraction of 1,9-nonanedioic acid	uncertainty
0.347	0.029

System: 1,9-nonanedioic acid + 3-methylheptanedioic acid; phases: Liquid, Crystal
Fixed: Pressure, kPa = 101
Property: Solid-liquid equilibrium temperature, K (Liquid); method: DTA
Mole fraction of 1,9-nonanedioic acid	Solid-liquid equilibrium temperature, K	uncertainty
0	358.61	1.52
0.0499	355.29	1.53
0.1012	355.14	1.54
0.1535	349.77	1.54
0.1998	350.06	1.52
0.2476	347.53	1.54

System: 1,9-nonanedioic acid + 3-methylheptanedioic acid; phases: Liquid, Crystal
Fixed: Pressure, kPa = 101
Property: Solid-liquid equilibrium temperature, K (Liquid); method: DTA
Mole fraction of 1,9-nonanedioic acid	Solid-liquid equilibrium temperature, K	uncertainty
0.3996	347.45	1.54
0.4486	350.49	1.58
0.5004	358.35	1.57
0.5471	359.56	1.53
0.5988	361.6	1.54
0.6491	365.69	1.52
0.6996	363.91	1.53
0.7488	370.63	1.56
0.7965	372.56	1.53
0.8471	374.64	1.53
0.899	375.76	1.53
0.9491	377.36	1.53
1	380.3	1.52

System: 1,9-nonanedioic acid + 2,2-dimethyl-1,4-butanedioic acid; phases: Crystal, Crystal, Liquid, Air at 1 atmosphere
Property: Eutectic temperature, K (Crystal); method: DTA
Eutectic temperature, K	uncertainty
363.97	0.91

System: 1,9-nonanedioic acid + 2,2-dimethyl-1,4-butanedioic acid; phases: Crystal, Crystal, Liquid, Air at 1 atmosphere
Property: Eutectic composition: mole fraction of 1,9-nonanedioic acid (Crystal); method: Derived from phase diagram analysis
Eutectic composition: mole fraction of 1,9-nonanedioic acid	uncertainty
0.642	0.016

System: 1,9-nonanedioic acid + 2,2-dimethyl-1,4-butanedioic acid; phases: Liquid, Crystal
Fixed: Pressure, kPa = 101
Property: Solid-liquid equilibrium temperature, K (Liquid); method: DTA
Mole fraction of 1,9-nonanedioic acid	Solid-liquid equilibrium temperature, K	uncertainty
0	412.95	1.52
0.0474	407.56	1.56
0.1016	404.62	1.54
0.1512	402.21	1.54
0.1991	399.17	1.54
0.2485	395.74	1.55
0.299	391.68	1.56
0.3473	387.56	1.54
0.403	386.21	1.54
0.4518	382.17	1.55
0.4985	379.66	1.54

System: 1,9-nonanedioic acid + 2,2-dimethyl-1,4-butanedioic acid; phases: Liquid, Crystal
Fixed: Pressure, kPa = 101
Property: Solid-liquid equilibrium temperature, K (Liquid); method: DTA
Mole fraction of 1,9-nonanedioic acid	Solid-liquid equilibrium temperature, K	uncertainty
0.6527	367.3	1.52
0.6996	368.07	1.52
0.7526	369.46	1.53
0.7984	371.33	1.54
0.8471	374.85	1.54
0.8993	376.94	1.53
0.9531	378.77	1.53
1	380.3	1.52

System: 1,9-nonanedioic acid + 2,3-dimethyl-1,4-butanedioic acid; phases: Crystal, Crystal, Liquid, Air at 1 atmosphere
Property: Eutectic temperature, K (Crystal); method: DTA
Eutectic temperature, K	uncertainty
353.59	0.91

System: 1,9-nonanedioic acid + 2,3-dimethyl-1,4-butanedioic acid; phases: Crystal, Crystal, Liquid, Air at 1 atmosphere
Property: Eutectic composition: mole fraction of 1,9-nonanedioic acid (Crystal); method: Derived from phase diagram analysis
Eutectic composition: mole fraction of 1,9-nonanedioic acid	uncertainty
0.437	0.041

System: 1,9-nonanedioic acid + 2,3-dimethyl-1,4-butanedioic acid; phases: Liquid, Crystal
Fixed: Pressure, kPa = 101
Property: Solid-liquid equilibrium temperature, K (Liquid); method: DTA
Mole fraction of 1,9-nonanedioic acid	Solid-liquid equilibrium temperature, K	uncertainty
0	390.52	1.52
0.0525	384.81	1.57
0.0985	381.4	1.58
0.1512	374.02	1.57
0.1976	372	1.53
0.2476	370.66	1.54
0.302	366.24	1.56
0.3505	361.33	1.57

System: 1,9-nonanedioic acid + 2,3-dimethyl-1,4-butanedioic acid; phases: Liquid, Crystal
Fixed: Pressure, kPa = 101
Property: Solid-liquid equilibrium temperature, K (Liquid); method: DTA
Mole fraction of 1,9-nonanedioic acid	Solid-liquid equilibrium temperature, K	uncertainty
0.6047	363.97	1.52
0.6531	364.28	1.54
0.6996	368.98	1.55
0.745	371.08	1.53
0.803	372.58	1.53
0.8506	373.75	1.53
0.8996	375.25	1.54
0.9413	378.72	1.53
1	380.3	1.52

System: 1,10-decanedioic acid + 3-methylheptanedioic acid; phases: Crystal, Crystal, Liquid, Air at 1 atmosphere
Property: Eutectic temperature, K (Crystal); method: DTA
Eutectic temperature, K	uncertainty
350.75	0.91

System: 1,10-decanedioic acid + 3-methylheptanedioic acid; phases: Crystal, Crystal, Liquid, Air at 1 atmosphere
Property: Eutectic composition: mole fraction of 1,10-decanedioic acid (Crystal); method: Derived from phase diagram analysis
Eutectic composition: mole fraction of 1,10-decanedioic acid	uncertainty
0.14	0.01

System: 1,10-decanedioic acid + 3-methylheptanedioic acid; phases: Liquid, Crystal
Fixed: Pressure, kPa = 101
Property: Solid-liquid equilibrium temperature, K (Liquid); method: DTA
Mole fraction of 1,10-decanedioic acid	Solid-liquid equilibrium temperature, K	uncertainty
0	358.61	1.52
0.0496	357.08	1.53
0.0977	353.67	1.55

System: 1,10-decanedioic acid + 3-methylheptanedioic acid; phases: Liquid, Crystal
Fixed: Pressure, kPa = 101
Property: Solid-liquid equilibrium temperature, K (Liquid); method: DTA
Mole fraction of 1,10-decanedioic acid	Solid-liquid equilibrium temperature, K	uncertainty
0.1494	355.67	1.57
0.2029	360.73	1.57
0.2516	365.4	1.59
0.2993	371.52	1.59
0.3505	376.71	1.53
0.3989	376.42	1.54
0.4491	382.58	1.56
0.498	385.38	1.54
0.5473	388.04	1.53
0.5983	390.09	1.53
0.6493	391.97	1.53
0.6988	392.9	1.53
0.7519	395.59	1.54
0.798	398.77	1.54
0.8508	400.99	1.53
0.9019	403.08	1.53
0.9488	404.65	1.53
1	407.17	1.52

System: 1,10-decanedioic acid + 2,2-dimethyl-1,4-butanedioic acid; phases: Crystal, Crystal, Liquid, Air at 1 atmosphere
Property: Eutectic temperature, K (Crystal); method: DTA
Eutectic temperature, K	uncertainty
382.9	0.91

System: 1,10-decanedioic acid + 2,2-dimethyl-1,4-butanedioic acid; phases: Crystal, Crystal, Liquid, Air at 1 atmosphere
Property: Eutectic composition: mole fraction of 1,10-decanedioic acid (Crystal); method: Derived from phase diagram analysis
Eutectic composition: mole fraction of 1,10-decanedioic acid	uncertainty
0.469	0.023

System: 1,10-decanedioic acid + 2,2-dimethyl-1,4-butanedioic acid; phases: Liquid, Crystal
Fixed: Pressure, kPa = 101
Property: Solid-liquid equilibrium temperature, K (Liquid); method: DTA
Mole fraction of 1,10-decanedioic acid	Solid-liquid equilibrium temperature, K	uncertainty
0	412.95	1.52
0.0513	408.2	1.56
0.0994	404.67	1.55
0.153	400.62	1.54
0.1988	398.61	1.53
0.2501	397.25	1.54
0.3024	393.33	1.54
0.3491	390.9	1.54

System: 1,10-decanedioic acid + 2,2-dimethyl-1,4-butanedioic acid; phases: Liquid, Crystal
Fixed: Pressure, kPa = 101
Property: Solid-liquid equilibrium temperature, K (Liquid); method: DTA
Mole fraction of 1,10-decanedioic acid	Solid-liquid equilibrium temperature, K	uncertainty
0.5497	387.87	1.53
0.601	389.32	1.53
0.6493	391.89	1.53
0.6981	394.02	1.53
0.7513	395.89	1.53
0.7975	398.99	1.53
0.8479	400.42	1.53
0.8963	402.43	1.53
0.9487	404.39	1.53
1	407.17	1.52

System: 1,10-decanedioic acid + 2,3-dimethyl-1,4-butanedioic acid; phases: Crystal, Crystal, Liquid, Air at 1 atmosphere
Property: Eutectic temperature, K (Crystal); method: DTA
Eutectic temperature, K	uncertainty
369.44	0.91

System: 1,10-decanedioic acid + 2,3-dimethyl-1,4-butanedioic acid; phases: Crystal, Crystal, Liquid, Air at 1 atmosphere
Property: Eutectic composition: mole fraction of 1,10-decanedioic acid (Crystal); method: Derived from phase diagram analysis
Eutectic composition: mole fraction of 1,10-decanedioic acid	uncertainty
0.251	0.095

System: 1,10-decanedioic acid + 2,3-dimethyl-1,4-butanedioic acid; phases: Liquid, Crystal
Fixed: Pressure, kPa = 101
Property: Solid-liquid equilibrium temperature, K (Liquid); method: DTA
Mole fraction of 1,10-decanedioic acid	Solid-liquid equilibrium temperature, K	uncertainty
0	390.52	1.52
0.0497	386.97	1.55
0.0686	385.99	1.57
0.0997	382.44	1.58
0.1196	380.44	1.58
0.149	377.02	1.59

System: 1,10-decanedioic acid + 2,3-dimethyl-1,4-butanedioic acid; phases: Liquid, Crystal
Fixed: Pressure, kPa = 101
Property: Solid-liquid equilibrium temperature, K (Liquid); method: DTA
Mole fraction of 1,10-decanedioic acid	Solid-liquid equilibrium temperature, K	uncertainty
0.5005	385.14	1.53
0.548	387.18	1.53
0.5992	388.73	1.54
0.6509	392.53	1.54
0.6981	394.51	1.53
0.7513	396.84	1.53
0.8006	397.78	1.53
0.8504	400.44	1.53
0.9021	402	1.53
0.952	404.71	1.54
1	407.17	1.52
