Measured thermophysical data. Measurement and Correlation of Solubility of Calcium-l-lactate Pentahydrate in Ethanol + Water and Acetone + Water Systems
Source: J. Chem. Eng. Data, 2014, 10.1021/je500416k
Compound 1: water, H2O, InChI=1S/H2O/h1H2
Compound 2: ethanol, C2H6O, InChI=1S/C2H6O/c1-2-3/h3H,2H2,1H3, purity 99.5%
Compound 3: acetone, C3H6O, InChI=1S/C3H6O/c1-3(2)4/h1-2H3, purity 99.5%
Compound 4: calcium-L-lactate pentahydrate, C6H20CaO11, InChI=1S/2C3H6O3.Ca.5H2O/c2*1-2(4)3(5)6;;;;;;/h2*2,4H,1H3,(H,5,6);;5*1H2/q;;+2;;;;;/p-2/t2*2-;;;;;;/m00....../s1, purity 98.8%

System: ethanol + water + calcium-L-lactate pentahydrate; phases: Liquid, Crystal
Fixed: Pressure, kPa = 100
Property: Mole fraction of calcium-L-lactate pentahydrate (Liquid); method: Titration method
Temperature, K	Solvent: Mole fraction of ethanol	Mole fraction of calcium-L-lactate pentahydrate	uncertainty
278.1	0	0.002773	0.000111
278.1	0.04165	0.001763	7.8e-05
278.1	0.08908	0.000978	5.84e-05
278.1	0.1436	0.0005138	3.65e-05
278.1	0.2068	0.0003516	2.18e-05
278.1	0.2812	0.0002357	1.66e-05
278.1	0.3698	0.0001515	1.46e-05
278.1	0.4772	5.988e-05	9.95e-06
278.1	0.6101	2.742e-05	6.06e-06
283.15	0	0.003347	0.000134
283.15	0.04165	0.002148	9.4e-05
283.15	0.08908	0.001258	7.1e-05
283.15	0.1436	0.0007155	4.63e-05
283.15	0.2068	0.0004967	3.12e-05
283.15	0.2812	0.0003126	2.39e-05
283.15	0.3698	0.0001978	1.9e-05
283.15	0.4772	8.31e-05	1.253e-05
283.15	0.6101	4.08e-05	7.65e-06
288.15	0	0.003876	0.000155
288.15	0.04165	0.00268	0.000115
288.15	0.08908	0.001607	8.8e-05
288.15	0.1436	0.000953	6.05e-05
288.15	0.2068	0.0006286	4.07e-05
288.15	0.2812	0.000417	2.99e-05
288.15	0.3698	0.0002647	2.46e-05
288.15	0.4772	0.0001214	1.66e-05
288.15	0.6101	5.89e-05	1.153e-05
293.15	0	0.004479	0.000179
293.15	0.04165	0.003399	0.000144
293.15	0.08908	0.002025	0.00011
293.15	0.1436	0.001244	7.5e-05
293.15	0.2068	0.0008591	5.4e-05
293.15	0.2812	0.0005436	4.06e-05
293.15	0.3698	0.0003567	3.12e-05
293.15	0.4772	0.0001745	2.25e-05
293.15	0.6101	8.019e-05	1.71e-05
298.15	0	0.00544	0.000218
298.15	0.04165	0.003987	0.000168
298.15	0.08908	0.002585	0.000132
298.15	0.1436	0.001645	9.9e-05
298.15	0.2068	0.001054	6.9e-05
298.15	0.2812	0.0007368	5.06e-05
298.15	0.3698	0.0004547	4.25e-05
298.15	0.4772	0.0002243	2.82e-05
298.15	0.6101	0.00011	2.09e-05
303.15	0	0.006424	0.000257
303.15	0.04165	0.004853	0.000203
303.15	0.08908	0.003361	0.000163
303.15	0.1436	0.002199	0.000128
303.15	0.2068	0.001437	9.3e-05
303.15	0.2812	0.0009581	6.83e-05
303.15	0.3698	0.0006109	5.46e-05
303.15	0.4772	0.0003074	3.79e-05
303.15	0.6101	0.0001493	2.86e-05
308.15	0	0.007777	0.000312
308.15	0.04165	0.005994	0.000249
308.15	0.08908	0.00418	0.000199
308.15	0.1436	0.002874	0.000161
308.15	0.2068	0.001861	0.00012
308.15	0.2812	0.001277	8.9e-05
308.15	0.3698	0.0008062	7.16e-05
308.15	0.4772	0.0004223	4.96e-05
308.15	0.6101	0.0002058	4.02e-05
313.15	0	0.009339	0.000374
313.15	0.04165	0.007507	0.00031
313.15	0.08908	0.005346	0.000252
313.15	0.1436	0.003705	0.000208
313.15	0.2068	0.002361	0.000152
313.15	0.2812	0.001699	0.000113
313.15	0.3698	0.001055	9.4e-05
313.15	0.4772	0.00058	6.6e-05
313.15	0.6101	0.0002687	5.82e-05

System: acetone + water + calcium-L-lactate pentahydrate; phases: Liquid, Crystal
Fixed: Pressure, kPa = 100
Property: Mole fraction of calcium-L-lactate pentahydrate (Liquid); method: Titration method
Temperature, K	Solvent: Mole fraction of acetone	Mole fraction of calcium-L-lactate pentahydrate	uncertainty
278.15	0	0.002773	0.000111
278.15	0.03333	0.001674	7.5e-05
278.15	0.07198	0.000966	5.32e-05
278.15	0.1174	0.0005949	3.92e-05
278.15	0.1714	0.0003043	2.82e-05
278.15	0.2368	0.0001457	1.67e-05
278.15	0.3176	5.931e-05	9.15e-06
278.15	0.4199	1.61e-05	3.88e-06
278.15	0.5538	3.757e-06	2.048e-06
283.15	0	0.003347	0.000134
283.15	0.03333	0.002036	9e-05
283.15	0.07198	0.001238	6.6e-05
283.15	0.1174	0.0007655	4.96e-05
283.15	0.1714	0.000406	3.61e-05
283.15	0.2368	0.0001932	2.21e-05
283.15	0.3176	7.897e-05	1.196e-05
283.15	0.4199	2.186e-05	5.09e-06
283.15	0.5538	4.729e-06	2.829e-06
288.15	0	0.003876	0.000155
288.15	0.03333	0.002574	0.000111
288.15	0.07198	0.001584	8.3e-05
288.15	0.1174	0.0009852	6.38e-05
288.15	0.1714	0.0005131	4.67e-05
288.15	0.2368	0.000242	2.76e-05
288.15	0.3176	0.0001041	1.49e-05
288.15	0.4199	3.073e-05	6.75e-06
288.15	0.5538	5.908e-06	4.097e-06
293.15	0	0.004479	0.000179
293.15	0.03333	0.003076	0.000132
293.15	0.07198	0.001983	0.000101
293.15	0.1174	0.001245	7.8e-05
293.15	0.1714	0.0006911	5.85e-05
293.15	0.2368	0.0003315	3.72e-05
293.15	0.3176	0.0001415	2.04e-05
293.15	0.4199	4.114e-05	9.22e-06
293.15	0.5538	7.383e-06	5.577e-06
298.15	0	0.00544	0.000218
298.15	0.03333	0.003712	0.000159
298.15	0.07198	0.002419	0.000121
298.15	0.1174	0.001585	9.6e-05
298.15	0.1714	0.0008742	7.29e-05
298.15	0.2368	0.0004519	4.71e-05
298.15	0.3176	0.0001897	2.79e-05
298.15	0.4199	5.378e-05	1.239e-05
298.15	0.5538	9.136e-06	7.376e-06
303.15	0	0.006424	0.000257
303.15	0.03333	0.004587	0.000195
303.15	0.07198	0.002938	0.000146
303.15	0.1174	0.002011	0.000117
303.15	0.1714	0.001127	9.1e-05
303.15	0.2368	0.0006062	6.14e-05
303.15	0.3176	0.0002413	3.72e-05
303.15	0.4199	7.02e-05	1.583e-05
303.15	0.5538	1.123e-05	9.74e-06
308.15	0	0.007777	0.000312
308.15	0.03333	0.005565	0.000234
308.15	0.07198	0.003838	0.000184
308.15	0.1174	0.002594	0.000154
308.15	0.1714	0.001419	0.000118
308.15	0.2368	0.0007631	7.81e-05
308.15	0.3176	0.0002951	4.65e-05
308.15	0.4199	9.359e-05	1.949e-05
308.15	0.5538	1.373e-05	1.321e-05
313.15	0	0.009339	0.000374
313.15	0.03333	0.006914	0.00029
313.15	0.07198	0.004677	0.000226
313.15	0.1174	0.003208	0.000186
313.15	0.1714	0.001811	0.000144
313.15	0.2368	0.001012	9.9e-05
313.15	0.3176	0.0004042	6.27e-05
313.15	0.4199	0.0001229	2.73e-05
313.15	0.5538	1.655e-05	1.655e-05

System: water + calcium-L-lactate pentahydrate; phases: Liquid, Crystal
Fixed: Pressure, kPa = 100
Property: Mole fraction of calcium-L-lactate pentahydrate (Liquid); method: Titration method
Temperature, K	Mole fraction of calcium-L-lactate pentahydrate	uncertainty
278.1	0.002773	0.000111
283.15	0.003347	0.000134
288.15	0.003876	0.000155
293.15	0.004479	0.000179
298.15	0.00544	0.000218
303.15	0.006424	0.000257
308.15	0.007777	0.000312
313.15	0.009339	0.000374
278.15	0.002773	0.000111
