Measured thermophysical data. Article Previous Article Next Article Articles ASAP Phase Equilibrium of Binary Mixtures of n-Hexane + Branched Chlorobutanes: Experimental Results and Group Contribution Predictions
Source: J. Chem. Eng. Data, 2014, 10.1021/je500116z
Compound 1: hexane, C6H14, InChI=1S/C6H14/c1-3-5-6-4-2/h3-6H2,1-2H3, purity 99%
Compound 2: 2-chlorobutane, C4H9Cl, InChI=1S/C4H9Cl/c1-3-4(2)5/h4H,3H2,1-2H3, purity 99%
Compound 3: 1-chloro-2-methylpropane, C4H9Cl, InChI=1S/C4H9Cl/c1-4(2)3-5/h4H,3H2,1-2H3, purity 99%
Compound 4: 2-chloro-2-methylpropane, C4H9Cl, InChI=1S/C4H9Cl/c1-4(2,3)5/h1-3H3, purity 99%

System: hexane; phases: Liquid, Gas
Property: Vapor or sublimation pressure, kPa (Liquid); method: Ebulliometric method (Recirculating still)
Temperature, K	Vapor or sublimation pressure, kPa	uncertainty
288.15	12.895	0.097
298.15	20.22	0.129
308.15	30.705	0.174

System: 2-chlorobutane; phases: Liquid, Gas
Property: Vapor or sublimation pressure, kPa (Liquid); method: Ebulliometric method (Recirculating still)
Temperature, K	Vapor or sublimation pressure, kPa	uncertainty
288.15	13.36	0.099
298.15	20.905	0.132
308.15	31.55	0.178

System: 1-chloro-2-methylpropane; phases: Liquid, Gas
Property: Vapor or sublimation pressure, kPa (Liquid); method: Ebulliometric method (Recirculating still)
Temperature, K	Vapor or sublimation pressure, kPa	uncertainty
288.15	13	0.097
298.15	20.35	0.129
308.15	30.45	0.173

System: 2-chloro-2-methylpropane; phases: Liquid, Gas
Property: Vapor or sublimation pressure, kPa (Liquid); method: Ebulliometric method (Recirculating still)
Temperature, K	Vapor or sublimation pressure, kPa	uncertainty
288.15	26.42	0.16
298.15	40.13	0.22
308.15	59.52	0.304

System: 2-chlorobutane + hexane; phases: Liquid, Gas
Property: Vapor or sublimation pressure, kPa (Liquid); method: Ebulliometric method (Recirculating still)
Mole fraction of hexane	Temperature, K	Vapor or sublimation pressure, kPa	uncertainty
0	288.15	13.36	0.099
0.0574	288.15	13.565	0.101
0.1476	288.15	13.97	0.103
0.2386	288.15	14.27	0.104
0.3098	288.15	14.41	0.104
0.3804	288.15	14.525	0.105
0.4244	288.15	14.565	0.105
0.4853	288.15	14.565	0.105
0.5277	288.15	14.585	0.105
0.5583	288.15	14.54	0.105
0.6269	288.15	14.44	0.104
0.7126	288.15	14.285	0.104
0.8235	288.15	13.97	0.104
0.9377	288.15	13.295	0.102
1	288.15	12.895	0.097
0	298.15	20.905	0.132
0.0566	298.15	21.215	0.135
0.1532	298.15	21.88	0.138
0.239	298.15	22.29	0.14
0.3101	298.15	22.525	0.14
0.3912	298.15	22.67	0.141
0.4253	298.15	22.685	0.141
0.4853	298.15	22.755	0.141
0.5253	298.15	22.715	0.141
0.5559	298.15	22.675	0.142
0.6219	298.15	22.57	0.14
0.7042	298.15	22.345	0.139
0.8064	298.15	21.865	0.139
0.9377	298.15	20.875	0.134
1	298.15	20.22	0.129
0	308.15	31.55	0.178
0.0555	308.15	32.145	0.186
0.1431	308.15	33.1	0.188
0.2377	308.15	33.685	0.189
0.3105	308.15	34	0.19
0.3813	308.15	34.25	0.191
0.4253	308.15	34.325	0.191
0.4853	308.15	34.325	0.191
0.5258	308.15	34.31	0.191
0.5544	308.15	34.23	0.19
0.6163	308.15	34.065	0.19
0.7121	308.15	33.755	0.189
0.808	308.15	33.11	0.189
0.9383	308.15	31.715	0.185
1	308.15	30.705	0.174

System: 2-chlorobutane + hexane; phases: Gas, Liquid
Property: Mole fraction of hexane (Gas); method: Density calibration data
Mole fraction of hexane	Temperature, K	Mole fraction of hexane	uncertainty
0	288.15	0	
0.0574	288.15	0.0747	0.0064
0.1476	288.15	0.1868	0.006
0.2386	288.15	0.2737	0.0055
0.3098	288.15	0.3353	0.0056
0.3804	288.15	0.4007	0.0058
0.4244	288.15	0.4345	0.0058
0.4853	288.15	0.4843	0.0061
0.5277	288.15	0.5162	0.0062
0.5583	288.15	0.5413	0.0062
0.6269	288.15	0.5953	0.0061
0.7126	288.15	0.6642	0.006
0.8235	288.15	0.7547	0.0065
0.9377	288.15	0.9115	0.0069
1	288.15	1	
0	298.15	0	
0.0566	298.15	0.077	0.0063
0.1532	298.15	0.1901	0.006
0.239	298.15	0.2771	0.0056
0.3101	298.15	0.3357	0.0055
0.3912	298.15	0.4057	0.0058
0.4253	298.15	0.4363	0.0059
0.4853	298.15	0.4843	0.0061
0.5253	298.15	0.5162	0.0062
0.5559	298.15	0.5408	0.0062
0.6219	298.15	0.5948	0.0062
0.7042	298.15	0.6636	0.0061
0.8064	298.15	0.7504	0.0064
0.9377	298.15	0.9109	0.0066
1	298.15	1	
0	308.15	0	
0.0555	308.15	0.0747	0.0066
0.1431	308.15	0.1885	0.0059
0.2377	308.15	0.2719	0.0054
0.3105	308.15	0.3351	0.0056
0.3813	308.15	0.3989	0.0058
0.4253	308.15	0.4349	0.0058
0.4853	308.15	0.4843	0.0061
0.5258	308.15	0.5148	0.0062
0.5544	308.15	0.5403	0.0064
0.6163	308.15	0.5943	0.0061
0.7121	308.15	0.6662	0.0062
0.808	308.15	0.7676	0.0064
0.9383	308.15	0.9121	0.0063
1	308.15	1	

System: hexane + 1-chloro-2-methylpropane; phases: Liquid, Gas
Property: Vapor or sublimation pressure, kPa (Liquid); method: Ebulliometric method (Recirculating still)
Mole fraction of hexane	Temperature, K	Vapor or sublimation pressure, kPa	uncertainty
0	288.15	13	0.097
0.0426	288.15	13.105	0.099
0.1396	288.15	13.575	0.101
0.2547	288.15	13.9	0.102
0.3035	288.15	13.955	0.102
0.3893	288.15	14.125	0.103
0.4361	288.15	14.155	0.103
0.5223	288.15	14.17	0.103
0.5956	288.15	14.16	0.103
0.6251	288.15	14.195	0.103
0.653	288.15	14.11	0.103
0.6942	288.15	14.065	0.103
0.7487	288.15	13.845	0.102
0.8002	288.15	13.825	0.102
0.9011	288.15	13.44	0.101
0.9228	288.15	13.34	0.101
1	288.15	12.895	0.097
0	298.15	20.35	0.129
0.0448	298.15	20.545	0.131
0.1401	298.15	21.25	0.135
0.2489	298.15	21.765	0.139
0.3081	298.15	21.94	0.137
0.3937	298.15	22.125	0.138
0.4411	298.15	22.155	0.138
0.5227	298.15	22.205	0.138
0.5941	298.15	22.16	0.139
0.6226	298.15	22.165	0.138
0.6505	298.15	22.08	0.139
0.6921	298.15	21.99	0.138
0.7451	298.15	21.845	0.137
0.8006	298.15	21.64	0.141
0.8989	298.15	21.065	0.262
0.9222	298.15	20.875	0.143
1	298.15	20.22	0.129
0	308.15	30.45	0.173
0.0485	308.15	31.1	0.18
0.1403	308.15	31.87	0.182
0.2559	308.15	32.735	0.185
0.3064	308.15	33.025	0.185
0.3929	308.15	33.35	0.187
0.4415	308.15	33.475	0.187
0.5227	308.15	33.55	0.187
0.5927	308.15	33.5	0.187
0.6231	308.15	33.445	0.187
0.6485	308.15	33.405	0.187
0.6936	308.15	33.23	0.186
0.7503	308.15	33.03	0.186
0.7645	308.15	32.755	0.199
0.8887	308.15	31.955	0.182
0.9251	308.15	31.65	0.184
1	308.15	30.705	0.174

System: hexane + 1-chloro-2-methylpropane; phases: Gas, Liquid
Property: Mole fraction of hexane (Gas); method: Density calibration data
Mole fraction of hexane	Temperature, K	Mole fraction of hexane	uncertainty
0	288.15	0	
0.0426	288.15	0.0653	0.0062
0.1396	288.15	0.17	0.006
0.2547	288.15	0.301	0.0061
0.3035	288.15	0.347	0.0056
0.3893	288.15	0.42	0.0058
0.4361	288.15	0.457	0.0059
0.5223	288.15	0.5256	0.0062
0.5956	288.15	0.5839	0.0061
0.6251	288.15	0.6049	0.0061
0.653	288.15	0.6301	0.0063
0.6942	288.15	0.6656	0.0061
0.7487	288.15	0.7091	0.0061
0.8002	288.15	0.76	0.0063
0.9011	288.15	0.868	0.0065
0.9228	288.15	0.8944	0.0068
1	288.15	1	
0	298.15	0	
0.0448	298.15	0.0664	0.0062
0.1401	298.15	0.1715	0.0061
0.2489	298.15	0.3001	0.006
0.3081	298.15	0.3457	0.0055
0.3937	298.15	0.4191	0.0058
0.4411	298.15	0.4597	0.006
0.5227	298.15	0.5251	0.0062
0.5941	298.15	0.5829	0.0062
0.6226	298.15	0.6049	0.0062
0.6505	298.15	0.6291	0.0062
0.6921	298.15	0.6656	0.0061
0.7451	298.15	0.7091	0.0061
0.8006	298.15	0.762	0.0063
0.8989	298.15	0.8674	0.0062
0.9222	298.15	0.8966	0.0068
1	298.15	1	
0	308.15	0	
0.0485	308.15	0.0656	0.0063
0.1403	308.15	0.1725	0.006
0.2559	308.15	0.2972	0.0059
0.3064	308.15	0.3414	0.0056
0.3929	308.15	0.4177	0.0058
0.4415	308.15	0.4579	0.006
0.5227	308.15	0.5246	0.0063
0.5927	308.15	0.5844	0.0062
0.6231	308.15	0.6069	0.0062
0.6485	308.15	0.6311	0.0062
0.6936	308.15	0.6687	0.0061
0.7503	308.15	0.7189	0.0061
0.7645	308.15	0.7345	0.0066
0.8887	308.15	0.8658	0.006
0.9251	308.15	0.8989	0.0065
1	308.15	1	

System: hexane + 2-chloro-2-methylpropane; phases: Liquid, Gas
Property: Vapor or sublimation pressure, kPa (Liquid); method: Ebulliometric method (Recirculating still)
Mole fraction of hexane	Temperature, K	Vapor or sublimation pressure, kPa	uncertainty
0	288.15	26.42	0.16
0.0697	288.15	25.855	0.199
0.1663	288.15	25.15	0.213
0.2225	288.15	24.425	0.199
0.3376	288.15	23.7	0.202
0.447	288.15	22.485	0.239
0.5429	288.15	21.225	0.263
0.6239	288.15	19.995	0.255
0.7201	288.15	18.79	0.258
0.7856	288.15	17.69	0.298
0.8667	288.15	16.295	0.374
0.9704	288.15	13.6	0.422
1	288.15	12.895	0.097
0	298.15	40.13	0.22
0.07	298.15	39.325	0.301
0.1578	298.15	38.32	0.26
0.221	298.15	37.455	0.327
0.333	298.15	36.055	0.278
0.4105	298.15	34.76	0.342
0.5401	298.15	32.505	0.32
0.621	298.15	30.995	0.368
0.6941	298.15	29.54	0.326
0.7509	298.15	28.19	0.531
0.8443	298.15	25.66	0.504
0.9563	298.15	22	0.502
1	298.15	20.22	0.129
0	308.15	59.52	0.304
0.0702	308.15	58.405	0.428
0.6046	308.15	46.51	0.505
0.6843	308.15	44.24	0.534
0.1545	308.15	56.575	0.414
0.2215	308.15	55.645	0.425
0.3304	308.15	53.185	0.448
0.403	308.15	51.65	0.464
0.5294	308.15	48.51	0.48
0.7459	308.15	42.27	0.607
0.8372	308.15	38.88	0.72
0.9494	308.15	33.555	0.818
1	308.15	30.705	0.174

System: hexane + 2-chloro-2-methylpropane; phases: Gas, Liquid
Property: Mole fraction of hexane (Gas); method: Density calibration data
Mole fraction of hexane	Temperature, K	Mole fraction of hexane	uncertainty
0	288.15	0	
0.0697	288.15	0.048	0.0194
0.1663	288.15	0.1136	0.0201
0.2225	288.15	0.1663	0.019
0.3376	288.15	0.2259	0.0186
0.447	288.15	0.3004	0.0193
0.5429	288.15	0.3635	0.0217
0.6239	288.15	0.4626	0.0213
0.7201	288.15	0.5172	0.0194
0.7856	288.15	0.5692	0.0263
0.8667	288.15	0.7037	0.0363
0.9704	288.15	0.9412	0.0393
1	288.15	1	
0	298.15	0	
0.07	298.15	0.052	0.0196
0.1578	298.15	0.1122	0.0193
0.221	298.15	0.154	0.019
0.333	298.15	0.2259	0.0196
0.4105	298.15	0.2898	0.0193
0.5401	298.15	0.3672	0.0202
0.621	298.15	0.4555	0.0221
0.6941	298.15	0.5114	0.0212
0.7509	298.15	0.5681	0.0247
0.8443	298.15	0.6801	0.0297
0.9563	298.15	0.8853	0.036
1	298.15	1	
0	308.15	0	
0.0702	308.15	0.0531	0.0198
0.6046	308.15	0.4335	0.021
0.6843	308.15	0.5097	0.0224
0.1545	308.15	0.1126	0.0193
0.2215	308.15	0.1545	0.0193
0.3304	308.15	0.2303	0.0196
0.403	308.15	0.2823	0.0201
0.5294	308.15	0.3803	0.0201
0.7459	308.15	0.5681	0.0244
0.8372	308.15	0.6807	0.0294
0.9494	308.15	0.8773	0.0348
1	308.15	1	
