Measured thermophysical data. Effect of Temperature, Anion, and Alkyl Chain Length on the Density and Refractive Index of 1-Alkyl-3-methylimidazolium-Based Ionic Liquids
Source: J. Chem. Eng. Data, 2015, 10.1021/je501091q
Compound 1: 1-ethyl-3-methylimidazolium tetrafluoroborate, C6H11BF4N2, InChI=1S/C6H11N2.BF4/c1-3-8-5-4-7(2)6-8;2-1(3,4)5/h4-6H,3H2,1-2H3;/q+1;-1, purity 98%
Compound 2: 1-butyl-3-methylimidazolium tetrafluoroborate, C8H15BF4N2, InChI=1S/C8H15N2.BF4/c1-3-4-5-10-7-6-9(2)8-10;2-1(3,4)5/h6-8H,3-5H2,1-2H3;/q+1;-1, purity 99%
Compound 3: 1-hexyl-3-methylimidazolium tetrafluoroborate, C10H19BF4N2, InChI=1S/C10H19N2.BF4/c1-3-4-5-6-7-12-9-8-11(2)10-12;2-1(3,4)5/h8-10H,3-7H2,1-2H3;/q+1;-1, purity 99%
Compound 4: 1-methyl-3-octylimidazolium tetrafluoroborate, C12H23BF4N2, InChI=1S/C12H23N2.BF4/c1-3-4-5-6-7-8-9-14-11-10-13(2)12-14;2-1(3,4)5/h10-12H,3-9H2,1-2H3;/q+1;-1, purity 99%
Compound 5: 1-ethyl-3-methylimidazolium trifluoromethanesulfonate, C7H11F3N2O3S, InChI=1S/C6H11N2.CHF3O3S/c1-3-8-5-4-7(2)6-8;2-1(3,4)8(5,6)7/h4-6H,3H2,1-2H3;(H,5,6,7)/q+1;/p-1, purity 99%
Compound 6: 1-butyl-3-methylimidazolium trifluoromethanesulfonate, C9H15F3N2O3S, InChI=1S/C8H15N2.CHF3O3S/c1-3-4-5-10-7-6-9(2)8-10;2-1(3,4)8(5,6)7/h6-8H,3-5H2,1-2H3;(H,5,6,7)/q+1;/p-1, purity 99%
Compound 7: 1-butyl-3-methylimidazolium octyl sulfate, C16H32N2O4S, InChI=1S/C8H15N2.C8H18O4S/c1-3-4-5-10-7-6-9(2)8-10;1-2-3-4-5-6-7-8-12-13(9,10)11/h6-8H,3-5H2,1-2H3;2-8H2,1H3,(H,9,10,11)/q+1;/p-1, purity 98%
Compound 8: 1-butyl-3-methylimidazolium hexafluorophosphate, C8H15F6N2P, InChI=1S/C8H15N2.F6P/c1-3-4-5-10-7-6-9(2)8-10;1-7(2,3,4,5)6/h6-8H,3-5H2,1-2H3;/q+1;-1, purity 98%
Compound 9: 1-hexyl-3-methylimidazolium hexafluorophosphate, C10H19F6N2P, InChI=1S/C10H19N2.F6P/c1-3-4-5-6-7-12-9-8-11(2)10-12;1-7(2,3,4,5)6/h8-10H,3-7H2,1-2H3;/q+1;-1, purity 99%
Compound 10: 1-octyl-3-methylimidazolium hexafluorophosphate, C12H23F6N2P, InChI=1S/C12H23N2.F6P/c1-3-4-5-6-7-8-9-14-11-10-13(2)12-14;1-7(2,3,4,5)6/h10-12H,3-9H2,1-2H3;/q+1;-1, purity 98%
Compound 11: 1-ethyl-3-methylimidazolium bis((trifluoromethyl)sulfonyl)imide, C8H11F6N3O4S2, InChI=1S/C6H11N2.C2F6NO4S2/c1-3-8-5-4-7(2)6-8;3-1(4,5)14(10,11)9-15(12,13)2(6,7)8/h4-6H,3H2,1-2H3;/q+1;-1, purity 99%
Compound 12: 1-butyl-3-methylimidazolium bis(trifluoromethylsulfonyl)imide, C10H15F6N3O4S2, InChI=1S/C8H15N2.C2F6NO4S2/c1-3-4-5-10-7-6-9(2)8-10;3-1(4,5)14(10,11)9-15(12,13)2(6,7)8/h6-8H,3-5H2,1-2H3;/q+1;-1, purity 98%
Compound 13: 1-hexyl-3-methylimidazolium bis[(trifluoromethyl)sulfonyl]imide, C12H19F6N3O4S2, InChI=1S/C10H19N2.C2F6NO4S2/c1-3-4-5-6-7-12-9-8-11(2)10-12;3-1(4,5)14(10,11)9-15(12,13)2(6,7)8/h8-10H,3-7H2,1-2H3;/q+1;-1, purity 99%
Compound 14: 1-octyl-3-methylimidazolium bis[(trifluoromethyl)sulfonyl]imide, C14H23F6N3O4S2, InChI=1S/C12H23N2.C2F6NO4S2/c1-3-4-5-6-7-8-9-14-11-10-13(2)12-14;3-1(4,5)14(10,11)9-15(12,13)2(6,7)8/h10-12H,3-9H2,1-2H3;/q+1;-1, purity 99%
Compound 15: 1-ethyl-3-methylimidazolium ethyl sulfate, C8H16N2O4S, InChI=1S/C6H11N2.C2H6O4S/c1-3-8-5-4-7(2)6-8;1-2-6-7(3,4)5/h4-6H,3H2,1-2H3;2H2,1H3,(H,3,4,5)/q+1;/p-1, purity 99%

System: 1-ethyl-3-methylimidazolium tetrafluoroborate; phases: Liquid
Fixed: Pressure, kPa = 101.325
Property: Mass density, kg/m3 (Liquid); method: VIBTUB:UFactor:2
Temperature, K	Mass density, kg/m3	uncertainty
293.15	1283.28	1.78
303.15	1275.66	1.77
313.15	1268.08	1.75
323.15	1260.58	1.73
333.15	1253.15	1.72
343.15	1245.77	1.7

System: 1-ethyl-3-methylimidazolium tetrafluoroborate; phases: Liquid
Fixed: Pressure, kPa = 101.325
Property: Refractive index (Na D-line) (Liquid); method: Standard Abbe refractometry
Temperature, K	Refractive index (Na D-line)	uncertainty
293.15	1.415	0.0017
303.15	1.4095	0.0016
313.15	1.407	0.0016
323.15	1.406	0.0016
333.15	1.4035	0.0016
343.15	1.402	0.0016

System: 1-butyl-3-methylimidazolium tetrafluoroborate; phases: Liquid
Fixed: Pressure, kPa = 101.325
Property: Mass density, kg/m3 (Liquid); method: VIBTUB:UFactor:2
Temperature, K	Mass density, kg/m3	uncertainty
293.15	1203.11	1.1
303.15	1197.37	1.1
313.15	1190.54	1.1
323.15	1183.39	1.09
333.15	1176.34	1.09
343.15	1169.43	1.09

System: 1-butyl-3-methylimidazolium tetrafluoroborate; phases: Liquid
Fixed: Pressure, kPa = 101.325
Property: Refractive index (Na D-line) (Liquid); method: Standard Abbe refractometry
Temperature, K	Refractive index (Na D-line)	uncertainty
293.15	1.422	0.0016
303.15	1.42	0.0016
313.15	1.418	0.0016
323.15	1.416	0.0015
333.15	1.415	0.0015
343.15	1.4135	0.0015

System: 1-hexyl-3-methylimidazolium tetrafluoroborate; phases: Liquid
Fixed: Pressure, kPa = 101.325
Property: Mass density, kg/m3 (Liquid); method: VIBTUB:UFactor:2
Temperature, K	Mass density, kg/m3	uncertainty
293.15	1147.54	1.08
303.15	1140.61	1.08
313.15	1133.68	1.07
323.15	1126.83	1.07
333.15	1120.05	1.07
343.15	1113.31	1.06

System: 1-hexyl-3-methylimidazolium tetrafluoroborate; phases: Liquid
Fixed: Pressure, kPa = 101.325
Property: Refractive index (Na D-line) (Liquid); method: Standard Abbe refractometry
Temperature, K	Refractive index (Na D-line)	uncertainty
293.15	1.4275	0.0016
303.15	1.4255	0.0016
313.15	1.4235	0.0016
323.15	1.4215	0.0016
333.15	1.42	0.0016
343.15	1.417	0.0016

System: 1-methyl-3-octylimidazolium tetrafluoroborate; phases: Liquid
Fixed: Pressure, kPa = 101.325
Property: Mass density, kg/m3 (Liquid); method: VIBTUB:UFactor:2
Temperature, K	Mass density, kg/m3	uncertainty
293.15	1106.35	1.06
303.15	1099.6	1.06
313.15	1092.86	1.06
323.15	1086.16	1.05
333.15	1079.52	1.05
343.15	1072.93	1.05

System: 1-methyl-3-octylimidazolium tetrafluoroborate; phases: Liquid
Fixed: Pressure, kPa = 101.325
Property: Refractive index (Na D-line) (Liquid); method: Standard Abbe refractometry
Temperature, K	Refractive index (Na D-line)	uncertainty
293.15	1.4325	0.0016
303.15	1.4305	0.0016
313.15	1.4285	0.0016
323.15	1.4265	0.0016
333.15	1.4245	0.0016
343.15	1.422	0.0016

System: 1-ethyl-3-methylimidazolium trifluoromethanesulfonate; phases: Liquid
Fixed: Pressure, kPa = 101.325
Property: Mass density, kg/m3 (Liquid); method: VIBTUB:UFactor:2
Temperature, K	Mass density, kg/m3	uncertainty
293.15	1388.36	1.21
303.15	1379.94	1.21
313.15	1371.56	1.2
323.15	1363.24	1.2
333.15	1354.98	1.19
343.15	1346.76	1.19

System: 1-ethyl-3-methylimidazolium trifluoromethanesulfonate; phases: Liquid
Fixed: Pressure, kPa = 101.325
Property: Refractive index (Na D-line) (Liquid); method: Standard Abbe refractometry
Temperature, K	Refractive index (Na D-line)	uncertainty
293.15	1.433	0.0015
303.15	1.4315	0.0016
313.15	1.429	0.0016
323.15	1.4265	0.0016
333.15	1.4245	0.0016
343.15	1.422	0.0016

System: 1-butyl-3-methylimidazolium trifluoromethanesulfonate; phases: Liquid
Fixed: Pressure, kPa = 101.325
Property: Mass density, kg/m3 (Liquid); method: VIBTUB:UFactor:2
Temperature, K	Mass density, kg/m3	uncertainty
293.15	1296.64	1.15
303.15	1288.69	1.15
313.15	1280.77	1.15
323.15	1272.88	1.14
333.15	1265.02	1.14
343.15	1257.08	1.13

System: 1-butyl-3-methylimidazolium trifluoromethanesulfonate; phases: Liquid
Fixed: Pressure, kPa = 101.325
Property: Refractive index (Na D-line) (Liquid); method: Standard Abbe refractometry
Temperature, K	Refractive index (Na D-line)	uncertainty
293.15	1.437	0.0016
303.15	1.4345	0.0016
313.15	1.432	0.0016
323.15	1.429	0.0016
333.15	1.427	0.0015
343.15	1.426	0.0015

System: 1-butyl-3-methylimidazolium octyl sulfate; phases: Liquid
Fixed: Pressure, kPa = 101.325
Property: Mass density, kg/m3 (Liquid); method: VIBTUB:UFactor:2
Temperature, K	Mass density, kg/m3	uncertainty
293.15	1071.39	1.38
303.15	1064.84	1.37
313.15	1058.39	1.36
323.15	1052	1.35
333.15	1045.61	1.34
343.15	1039.26	1.33

System: 1-butyl-3-methylimidazolium octyl sulfate; phases: Liquid
Fixed: Pressure, kPa = 101.325
Property: Refractive index (Na D-line) (Liquid); method: Standard Abbe refractometry
Temperature, K	Refractive index (Na D-line)	uncertainty
293.15	1.4715	0.0016
303.15	1.4685	0.0016
313.15	1.466	0.0016
323.15	1.4635	0.0016
333.15	1.4615	0.0016
343.15	1.4595	0.0016

System: 1-butyl-3-methylimidazolium hexafluorophosphate; phases: Liquid
Fixed: Pressure, kPa = 101.325
Property: Mass density, kg/m3 (Liquid); method: VIBTUB:UFactor:2
Temperature, K	Mass density, kg/m3	uncertainty
293.15	1370.71	1.98
303.15	1362.36	1.96
313.15	1353.99	1.94
323.15	1345.7	1.92
333.15	1337.49	1.9
343.15	1329.36	1.89

System: 1-butyl-3-methylimidazolium hexafluorophosphate; phases: Liquid
Fixed: Pressure, kPa = 101.325
Property: Refractive index (Na D-line) (Liquid); method: Standard Abbe refractometry
Temperature, K	Refractive index (Na D-line)	uncertainty
293.15	1.41	0.0016
303.15	1.408	0.0016
313.15	1.4055	0.0016
323.15	1.403	0.0016
333.15	1.401	0.0016
343.15	1.399	0.0016

System: 1-hexyl-3-methylimidazolium hexafluorophosphate; phases: Liquid
Fixed: Pressure, kPa = 101.325
Property: Mass density, kg/m3 (Liquid); method: VIBTUB:UFactor:2
Temperature, K	Mass density, kg/m3	uncertainty
293.15	1297.26	1.15
303.15	1289.37	1.15
313.15	1281.49	1.15
323.15	1273.62	1.14
333.15	1265.8	1.14
343.15	1258.04	1.13

System: 1-hexyl-3-methylimidazolium hexafluorophosphate; phases: Liquid
Fixed: Pressure, kPa = 101.325
Property: Refractive index (Na D-line) (Liquid); method: Standard Abbe refractometry
Temperature, K	Refractive index (Na D-line)	uncertainty
293.15	1.418	0.0016
303.15	1.4155	0.0016
313.15	1.413	0.0016
323.15	1.4105	0.0016
333.15	1.408	0.0016
343.15	1.406	0.0016

System: 1-octyl-3-methylimidazolium hexafluorophosphate; phases: Liquid
Fixed: Pressure, kPa = 101.325
Property: Mass density, kg/m3 (Liquid); method: VIBTUB:UFactor:2
Temperature, K	Mass density, kg/m3	uncertainty
293.15	1240.19	1.69
303.15	1232.53	1.68
313.15	1224.99	1.66
323.15	1217.45	1.65
333.15	1209.92	1.63
343.15	1202.43	1.62

System: 1-octyl-3-methylimidazolium hexafluorophosphate; phases: Liquid
Fixed: Pressure, kPa = 101.325
Property: Refractive index (Na D-line) (Liquid); method: Standard Abbe refractometry
Temperature, K	Refractive index (Na D-line)	uncertainty
293.15	1.4235	0.0016
303.15	1.421	0.0016
313.15	1.4185	0.0016
323.15	1.416	0.0016
333.15	1.414	0.0016
343.15	1.4115	0.0016

System: 1-ethyl-3-methylimidazolium bis((trifluoromethyl)sulfonyl)imide; phases: Liquid
Fixed: Pressure, kPa = 101.325
Property: Mass density, kg/m3 (Liquid); method: VIBTUB:UFactor:2
Temperature, K	Mass density, kg/m3	uncertainty
293.15	1523.83	1.32
303.15	1513.74	1.31
313.15	1503.71	1.3
323.15	1493.74	1.29
333.15	1483.85	1.29
343.15	1473.97	1.28

System: 1-ethyl-3-methylimidazolium bis((trifluoromethyl)sulfonyl)imide; phases: Liquid
Fixed: Pressure, kPa = 101.325
Property: Refractive index (Na D-line) (Liquid); method: Standard Abbe refractometry
Temperature, K	Refractive index (Na D-line)	uncertainty
293.15	1.4235	0.0016
303.15	1.421	0.0016
313.15	1.4185	0.0016
323.15	1.416	0.0016
333.15	1.4135	0.0016
343.15	1.411	0.0016

System: 1-butyl-3-methylimidazolium bis(trifluoromethylsulfonyl)imide; phases: Liquid
Fixed: Pressure, kPa = 101.325
Property: Mass density, kg/m3 (Liquid); method: VIBTUB:UFactor:2
Temperature, K	Mass density, kg/m3	uncertainty
293.15	1440.33	2.15
303.15	1430.81	2.13
313.15	1420.16	2.1
323.15	1411.55	2.08
333.15	1402.21	2.06
343.15	1391.63	2.03

System: 1-butyl-3-methylimidazolium bis(trifluoromethylsulfonyl)imide; phases: Liquid
Fixed: Pressure, kPa = 101.325
Property: Refractive index (Na D-line) (Liquid); method: Standard Abbe refractometry
Temperature, K	Refractive index (Na D-line)	uncertainty
293.15	1.4284	0.0016
303.15	1.425	0.0016
313.15	1.4214	0.0016
323.15	1.4185	0.0016
333.15	1.4162	0.0016
343.15	1.413	0.0016

System: 1-hexyl-3-methylimidazolium bis[(trifluoromethyl)sulfonyl]imide; phases: Liquid
Fixed: Pressure, kPa = 101.325
Property: Mass density, kg/m3 (Liquid); method: VIBTUB:UFactor:2
Temperature, K	Mass density, kg/m3	uncertainty
293.15	1376.33	1.21
303.15	1367.17	1.2
313.15	1358.04	1.19
323.15	1348.97	1.19
333.15	1339.95	1.18
343.15	1330.97	1.18

System: 1-hexyl-3-methylimidazolium bis[(trifluoromethyl)sulfonyl]imide; phases: Liquid
Fixed: Pressure, kPa = 101.325
Property: Refractive index (Na D-line) (Liquid); method: Standard Abbe refractometry
Temperature, K	Refractive index (Na D-line)	uncertainty
293.15	1.431	0.0016
303.15	1.4285	0.0016
313.15	1.426	0.0016
323.15	1.4235	0.0016
333.15	1.4205	0.0016
343.15	1.418	0.0016

System: 1-octyl-3-methylimidazolium bis[(trifluoromethyl)sulfonyl]imide; phases: Liquid
Fixed: Pressure, kPa = 101.325
Property: Mass density, kg/m3 (Liquid); method: VIBTUB:UFactor:2
Temperature, K	Mass density, kg/m3	uncertainty
293.15	1324.8	1.17
303.15	1315.9	1.17
313.15	1307.04	1.16
323.15	1298.23	1.16
333.15	1289.42	1.15
343.15	1280.65	1.15

System: 1-octyl-3-methylimidazolium bis[(trifluoromethyl)sulfonyl]imide; phases: Liquid
Fixed: Pressure, kPa = 101.325
Property: Refractive index (Na D-line) (Liquid); method: Standard Abbe refractometry
Temperature, K	Refractive index (Na D-line)	uncertainty
293.15	1.4335	0.0016
303.15	1.4305	0.0016
313.15	1.428	0.0016
323.15	1.425	0.0016
333.15	1.4225	0.0016
343.15	1.42	0.0016

System: 1-ethyl-3-methylimidazolium ethyl sulfate; phases: Liquid
Fixed: Pressure, kPa = 101.325
Property: Mass density, kg/m3 (Liquid); method: VIBTUB:UFactor:4
Temperature, K	Mass density, kg/m3	uncertainty
293.15	1241.3	1.25
303.15	1235.01	1.24
313.15	1227.81	1.23
323.15	1221.32	1.22
333.15	1214.56	1.22
343.15	1207.94	1.21

System: 1-ethyl-3-methylimidazolium ethyl sulfate; phases: Liquid
Fixed: Pressure, kPa = 101.325
Property: Refractive index (Na D-line) (Liquid); method: Standard Abbe refractometry
Temperature, K	Refractive index (Na D-line)	uncertainty
293.15	1.4781	0.0016
303.15	1.4742	0.0016
313.15	1.4725	0.0015
323.15	1.471	0.0016
333.15	1.469	0.0016
343.15	1.4665	0.0016
