Measured thermophysical data. Speed of sound, density and related thermodynamic excess properties of binary mixtures of butan-2-one with C1-C4 nalkanols and chloroform
Source: J. Chem. Eng. Data, 2014, 10.1021/je5007604
Compound 1: butanone, C4H8O, InChI=1S/C4H8O/c1-3-4(2)5/h3H2,1-2H3, purity 98%
Compound 2: methanol, CH4O, InChI=1S/CH4O/c1-2/h2H,1H3, purity 98%
Compound 3: propan-1-ol, C3H8O, InChI=1S/C3H8O/c1-2-3-4/h4H,2-3H2,1H3, purity 98%
Compound 4: butan-1-ol, C4H10O, InChI=1S/C4H10O/c1-2-3-4-5/h5H,2-4H2,1H3, purity 98%
Compound 5: trichloromethane, CHCl3, InChI=1S/CHCl3/c2-1(3)4/h1H, purity 98%

System: butanone; phases: Liquid
Fixed: Pressure, kPa = 101
Property: Mass density, kg/m3 (Liquid); method: Vibrating tube method
Temperature, K	Mass density, kg/m3	uncertainty
293.151	804.965	0.175
298.149	799.739	0.177
303.149	794.471	0.178
308.149	789.176	0.18
313.149	783.846	0.181
318.149	778.481	0.183
323.149	773.086	0.184
293.152	804.834	0.171
298.155	799.597	0.171
303.154	794.334	0.172
308.154	789.044	0.173
313.154	783.72	0.174
318.155	778.362	0.175
323.155	772.966	0.175
293.151	804.903	0.175
298.149	799.678	0.177
303.149	794.414	0.178
308.149	789.124	0.18
313.149	783.798	0.181
318.149	778.438	0.183
323.149	773.04	0.184
293.151	805.166	0.175
298.149	799.937	0.177
303.149	794.672	0.178
308.149	789.382	0.179

System: butanone; phases: Liquid
Fixed: Pressure, kPa = 101
Property: Speed of sound, m/s (Liquid); method: Sing-around technique in a fixed-path interferometer
Temperature, K	Speed of sound, m/s	uncertainty
293.151	1213.15	1.23
298.149	1191.97	1.23
303.149	1170.57	1.22
308.149	1149.31	1.22
313.149	1128.08	1.22
318.149	1106.94	1.21
323.149	1085.89	1.21
293.152	1213.35	1.26
298.155	1192.06	1.26
303.154	1170.77	1.25
308.154	1149.56	1.25
313.154	1128.44	1.25
318.155	1107.39	1.24
323.155	1086.41	1.24
293.151	1213.3	1.23
298.149	1192.14	1.23
303.149	1170.79	1.22
308.149	1149.57	1.22
313.149	1128.37	1.22
318.149	1107.27	1.21
323.149	1086.19	1.21
293.151	1214.03	1.23
298.149	1193.15	1.23
303.149	1172.1	1.22
308.149	1151	1.22

System: methanol; phases: Liquid
Fixed: Pressure, kPa = 101
Property: Mass density, kg/m3 (Liquid); method: Vibrating tube method
Temperature, K	Mass density, kg/m3	uncertainty
293.151	791.283	0.172
298.149	786.577	0.173
303.149	781.849	0.175
308.149	777.101	0.176
313.149	772.316	0.177
318.149	767.513	0.179
323.149	762.669	0.18

System: methanol; phases: Liquid
Fixed: Pressure, kPa = 101
Property: Speed of sound, m/s (Liquid); method: Sing-around technique in a fixed-path interferometer
Temperature, K	Speed of sound, m/s	uncertainty
293.151	1119.3	1.19
298.149	1102.81	1.18
303.149	1086.39	1.18
308.149	1070.16	1.18
313.149	1053.93	1.17
318.149	1037.89	1.17
323.149	1021.87	1.17

System: propan-1-ol; phases: Liquid
Fixed: Pressure, kPa = 101
Property: Mass density, kg/m3 (Liquid); method: Vibrating tube method
Temperature, K	Mass density, kg/m3	uncertainty
293.151	803.476	0.171
298.153	799.471	0.171
303.154	795.437	0.172
308.155	791.372	0.173
313.154	787.262	0.173
318.155	783.104	0.174
323.155	778.897	0.175

System: propan-1-ol; phases: Liquid
Fixed: Pressure, kPa = 101
Property: Speed of sound, m/s (Liquid); method: Sing-around technique in a fixed-path interferometer
Temperature, K	Speed of sound, m/s	uncertainty
293.151	1222.55	1.26
298.153	1205.64	1.26
303.154	1188.77	1.26
308.155	1172.01	1.25
313.154	1155.35	1.25
318.155	1138.65	1.25
323.155	1121.93	1.24

System: butan-1-ol; phases: Liquid
Fixed: Pressure, kPa = 101
Property: Mass density, kg/m3 (Liquid); method: Vibrating tube method
Temperature, K	Mass density, kg/m3	uncertainty
293.151	809.613	0.159
298.149	805.808	0.16
303.149	801.969	0.161
308.149	798.101	0.162
313.149	794.193	0.164
318.149	790.244	0.165
323.149	786.25	0.166

System: butan-1-ol; phases: Liquid
Fixed: Pressure, kPa = 101
Property: Speed of sound, m/s (Liquid); method: Sing-around technique in a fixed-path interferometer
Temperature, K	Speed of sound, m/s	uncertainty
293.151	1257.01	1.21
298.149	1240.37	1.21
303.149	1223.64	1.2
308.149	1206.95	1.2
313.149	1190.34	1.2
318.149	1173.84	1.2
323.149	1157.36	1.19

System: trichloromethane; phases: Liquid
Fixed: Pressure, kPa = 101
Property: Mass density, kg/m3 (Liquid); method: Vibrating tube method
Temperature, K	Mass density, kg/m3	uncertainty
293.151	1487.632	0.298
298.149	1478.156	0.296
303.149	1468.608	0.294
308.149	1459.003	0.292

System: trichloromethane; phases: Liquid
Fixed: Pressure, kPa = 101
Property: Speed of sound, m/s (Liquid); method: Sing-around technique in a fixed-path interferometer
Temperature, K	Speed of sound, m/s	uncertainty
293.151	1000.63	1.17
298.149	983.68	1.17
303.149	966.68	1.17
308.149	949.78	1.16

System: methanol + butanone; phases: Liquid
Fixed: Pressure, kPa = 101
Property: Mass density, kg/m3 (Liquid); method: Vibrating tube method
Mole fraction of butanone	Temperature, K	Mass density, kg/m3	uncertainty
0	293.151	791.283	0.172
0	298.149	786.577	0.173
0	303.149	781.849	0.175
0	308.149	777.101	0.176
0	313.149	772.316	0.177
0	318.149	767.513	0.179
0	323.149	762.669	0.18
0.0962	293.151	795.933	0.166
0.0962	298.149	791.075	0.174
0.0962	303.149	786.188	0.176
0.0962	308.149	781.263	0.177
0.0962	313.149	776.323	0.178
0.0962	318.149	771.341	0.18
0.0962	323.149	766.318	0.187
0.22	293.151	799.736	0.17
0.22	298.149	794.761	0.175
0.22	303.149	789.746	0.176
0.22	308.15	784.692	0.178
0.22	313.149	779.594	0.179
0.22	318.149	774.457	0.181
0.22	323.149	769.28	0.185
0.3083	293.151	801.566	0.172
0.3083	298.151	796.52	0.175
0.3083	303.151	791.443	0.177
0.3083	308.151	786.319	0.178
0.3083	313.15	781.154	0.18
0.3083	318.15	775.936	0.181
0.3083	323.149	770.68	0.184
0.3858	293.151	802.742	0.172
0.3858	298.149	797.675	0.175
0.3858	303.149	792.552	0.177
0.3858	308.149	787.383	0.179
0.3858	313.149	782.172	0.18
0.3858	318.149	776.91	0.182
0.3858	323.149	771.601	0.185
0.4983	293.151	803.936	0.173
0.4983	298.149	798.805	0.176
0.4983	303.149	793.636	0.177
0.4983	308.149	788.417	0.179
0.4983	313.149	783.159	0.181
0.4983	318.149	777.848	0.182
0.4983	323.149	772.478	0.185
0.5781	293.149	804.516	0.174
0.5781	298.149	799.344	0.176
0.5781	303.149	794.136	0.178
0.5781	308.149	788.889	0.179
0.5781	313.149	783.601	0.181
0.5781	318.149	778.265	0.182
0.5781	323.149	772.868	0.185
0.6964	293.151	805.035	0.174
0.6964	298.149	799.83	0.176
0.6964	303.149	794.583	0.178
0.6964	308.149	789.292	0.179
0.6964	313.149	783.968	0.181
0.6964	318.149	778.602	0.183
0.6964	323.149	773.192	0.185
0.7943	293.151	805.218	0.175
0.7943	298.149	799.991	0.177
0.7943	303.149	794.727	0.178
0.7943	308.149	789.419	0.18
0.7943	313.149	784.079	0.181
0.7943	318.149	778.7	0.183
0.7943	323.149	773.276	0.185
0.8857	293.151	805.214	0.175
0.8857	298.149	799.977	0.177
0.8857	303.149	794.706	0.178
0.8857	308.149	789.4	0.18
0.8857	313.149	784.049	0.181
0.8857	318.149	778.666	0.183
0.8857	323.149	773.245	0.185
1	293.151	804.965	0.175
1	298.149	799.739	0.177
1	303.149	794.471	0.178
1	308.149	789.176	0.18
1	313.149	783.846	0.181
1	318.149	778.481	0.183
1	323.149	773.086	0.184

System: methanol + butanone; phases: Liquid
Fixed: Pressure, kPa = 101
Property: Speed of sound, m/s (Liquid); method: Sing-around technique in a fixed-path interferometer
Mole fraction of butanone	Temperature, K	Speed of sound, m/s	uncertainty
0	293.151	1119.3	1.19
0	298.149	1102.81	1.18
0	303.149	1086.39	1.18
0	308.149	1070.16	1.18
0	313.149	1053.93	1.17
0	318.149	1037.89	1.17
0	323.149	1021.87	1.17
0.0962	293.151	1142.79	1.18
0.0962	298.149	1125.4	1.19
0.0962	303.149	1107.98	1.19
0.0962	308.149	1090.54	1.19
0.0962	313.149	1073.35	1.18
0.0962	318.149	1056.21	1.18
0.0962	323.149	1039.12	1.19
0.22	293.151	1163.88	1.2
0.22	298.149	1145.63	1.2
0.22	303.149	1127.31	1.2
0.22	308.15	1109.04	1.2
0.22	313.149	1090.78	1.19
0.22	318.149	1072.56	1.19
0.22	323.149	1054.46	1.19
0.3083	293.151	1175.12	1.21
0.3083	298.151	1156.23	1.21
0.3083	303.151	1137.56	1.2
0.3083	308.151	1118.75	1.2
0.3083	313.15	1100	1.2
0.3083	318.15	1081.2	1.19
0.3083	323.149	1062.51	1.19
0.3858	293.151	1183.56	1.21
0.3858	298.149	1164.26	1.21
0.3858	303.149	1144.93	1.21
0.3858	308.149	1125.71	1.2
0.3858	313.149	1106.54	1.2
0.3858	318.149	1087.37	1.2
0.3858	323.149	1068.25	1.2
0.4983	293.151	1193.21	1.21
0.4983	298.149	1173.52	1.21
0.4983	303.149	1153.77	1.21
0.4983	308.149	1134.01	1.21
0.4983	313.149	1114.3	1.2
0.4983	318.149	1094.65	1.2
0.4983	323.149	1074.91	1.2
0.5781	293.149	1198.84	1.22
0.5781	298.149	1178.83	1.22
0.5781	303.149	1158.73	1.21
0.5781	308.149	1138.7	1.21
0.5781	313.149	1118.69	1.21
0.5781	318.149	1098.69	1.2
0.5781	323.149	1078.58	1.2
0.6964	293.151	1205.53	1.22
0.6964	298.149	1185.3	1.22
0.6964	303.149	1164.78	1.22
0.6964	308.149	1144.22	1.21
0.6964	313.149	1123.78	1.21
0.6964	318.149	1103.38	1.21
0.6964	323.149	1083	1.21
0.7943	293.151	1209.85	1.22
0.7943	298.149	1189.19	1.22
0.7943	303.149	1168.35	1.22
0.7943	308.149	1147.47	1.22
0.7943	313.149	1126.71	1.21
0.7943	318.149	1106	1.21
0.7943	323.149	1085.3	1.21
0.8857	293.151	1212.45	1.22
0.8857	298.149	1191.48	1.23
0.8857	303.149	1170.36	1.22
0.8857	308.149	1149.3	1.22
0.8857	313.149	1128.19	1.22
0.8857	318.149	1107.23	1.21
0.8857	323.149	1086.29	1.21
1	293.151	1213.15	1.23
1	298.149	1191.97	1.23
1	303.149	1170.57	1.22
1	308.149	1149.31	1.22
1	313.149	1128.08	1.22
1	318.149	1106.94	1.21
1	323.149	1085.89	1.21

System: propan-1-ol + butanone; phases: Liquid
Fixed: Pressure, kPa = 101
Property: Mass density, kg/m3 (Liquid); method: Vibrating tube method
Mole fraction of butanone	Temperature, K	Mass density, kg/m3	uncertainty
0	293.151	803.476	0.171
0	298.153	799.471	0.171
0	303.154	795.437	0.172
0	308.155	791.372	0.173
0	313.154	787.262	0.173
0	318.155	783.104	0.174
0	323.155	778.897	0.175
0.0715	293.154	803.777	0.171
0.0715	298.154	799.63	0.172
0.0715	303.154	795.449	0.172
0.0715	308.154	791.232	0.173
0.0715	313.154	786.978	0.173
0.0715	318.156	782.677	0.174
0.0715	323.156	778.324	0.175
0.2005	293.153	804.182	0.171
0.2005	298.154	799.805	0.172
0.2005	303.154	795.395	0.172
0.2005	308.155	790.95	0.173
0.2005	313.155	786.464	0.174
0.2005	318.154	781.936	0.174
0.2005	323.155	777.356	0.175
0.3006	293.151	804.352	0.171
0.3006	298.153	799.821	0.172
0.3006	303.154	795.256	0.172
0.3006	308.155	790.663	0.173
0.3006	313.155	786.028	0.174
0.3006	318.155	781.346	0.174
0.3006	323.155	776.616	0.175
0.3996	293.152	804.467	0.171
0.3996	298.153	799.804	0.172
0.3996	303.155	795.106	0.172
0.3996	308.155	790.37	0.173
0.3996	313.154	785.6	0.174
0.3996	318.155	780.785	0.174
0.3996	323.155	775.92	0.175
0.5024	293.152	804.599	0.171
0.5024	298.154	799.814	0.172
0.5024	303.154	794.989	0.172
0.5024	308.154	790.125	0.173
0.5024	313.154	785.227	0.174
0.5024	318.155	780.284	0.175
0.5024	323.156	775.293	0.175
0.5993	293.153	804.707	0.171
0.5993	298.153	799.809	0.172
0.5993	303.154	794.877	0.172
0.5993	308.154	789.907	0.173
0.5993	313.154	784.898	0.174
0.5993	318.155	779.842	0.175
0.5993	323.155	774.741	0.175
0.6994	293.152	804.703	0.171
0.6994	298.153	799.703	0.172
0.6994	303.154	794.67	0.172
0.6994	308.154	789.597	0.173
0.6994	313.154	784.493	0.174
0.6994	318.156	779.342	0.175
0.6994	323.156	774.15	0.175
0.7995	293.152	804.771	0.171
0.7995	298.154	799.68	0.172
0.7995	303.154	794.556	0.172
0.7995	308.154	789.393	0.173
0.7995	313.154	784.201	0.174
0.7995	318.155	778.968	0.175
0.7995	323.155	773.693	0.176
0.899	293.152	804.821	0.171
0.899	298.154	799.65	0.172
0.899	303.154	794.445	0.172
0.899	308.155	789.215	0.173
0.899	313.154	783.949	0.174
0.899	318.155	778.645	0.175
0.899	323.156	773.301	0.176
1	293.152	804.834	0.171
1	298.155	799.597	0.171
1	303.154	794.334	0.172
1	308.154	789.044	0.173
1	313.154	783.72	0.174
1	318.155	778.362	0.175
1	323.155	772.966	0.175

System: propan-1-ol + butanone; phases: Liquid
Fixed: Pressure, kPa = 101
Property: Speed of sound, m/s (Liquid); method: Sing-around technique in a fixed-path interferometer
Mole fraction of butanone	Temperature, K	Speed of sound, m/s	uncertainty
0	293.151	1222.55	1.26
0	298.153	1205.64	1.26
0	303.154	1188.77	1.26
0	308.155	1172.01	1.25
0	313.154	1155.35	1.25
0	318.155	1138.65	1.25
0	323.155	1121.93	1.24
0.0715	293.154	1223.57	1.26
0.0715	298.154	1206.22	1.26
0.0715	303.154	1188.64	1.26
0.0715	308.154	1171.17	1.25
0.0715	313.154	1153.83	1.25
0.0715	318.156	1136.56	1.25
0.0715	323.156	1119.36	1.24
0.2005	293.153	1223.86	1.26
0.2005	298.154	1205.46	1.26
0.2005	303.154	1187.12	1.25
0.2005	308.155	1168.9	1.25
0.2005	313.155	1150.81	1.25
0.2005	318.154	1132.85	1.25
0.2005	323.155	1115.06	1.24
0.3006	293.151	1223.04	1.26
0.3006	298.153	1204.22	1.26
0.3006	303.154	1185.39	1.25
0.3006	308.155	1166.65	1.25
0.3006	313.155	1147.98	1.25
0.3006	318.155	1129.37	1.25
0.3006	323.155	1110.82	1.24
0.3996	293.152	1221.91	1.26
0.3996	298.153	1202.65	1.26
0.3996	303.155	1183.46	1.25
0.3996	308.155	1164.31	1.25
0.3996	313.154	1145.23	1.25
0.3996	318.155	1126.21	1.25
0.3996	323.155	1107.24	1.24
0.5024	293.152	1220.74	1.26
0.5024	298.154	1201.25	1.26
0.5024	303.154	1181.62	1.25
0.5024	308.154	1162.06	1.25
0.5024	313.154	1142.57	1.25
0.5024	318.155	1123.14	1.24
0.5024	323.156	1103.75	1.24
0.5993	293.153	1219.89	1.26
0.5993	298.153	1199.95	1.26
0.5993	303.154	1180.01	1.25
0.5993	308.154	1160.11	1.25
0.5993	313.154	1140.29	1.25
0.5993	318.155	1120.5	1.24
0.5993	323.155	1100.75	1.24
0.6994	293.152	1218.82	1.26
0.6994	298.153	1198.45	1.26
0.6994	303.154	1178.1	1.25
0.6994	308.154	1157.82	1.25
0.6994	313.154	1137.61	1.25
0.6994	318.156	1117.43	1.24
0.6994	323.156	1097.31	1.24
0.7995	293.152	1217.75	1.26
0.7995	298.154	1197.05	1.26
0.7995	303.154	1176.35	1.25
0.7995	308.154	1155.72	1.25
0.7995	313.154	1135.15	1.25
0.7995	318.155	1114.61	1.24
0.7995	323.155	1094.15	1.24
0.899	293.152	1215.98	1.26
0.899	298.154	1194.93	1.26
0.899	303.154	1173.85	1.25
0.899	308.155	1152.85	1.25
0.899	313.154	1131.94	1.25
0.899	318.155	1111.1	1.24
0.899	323.156	1090.29	1.24
1	293.152	1213.35	1.26
1	298.155	1192.06	1.26
1	303.154	1170.77	1.25
1	308.154	1149.56	1.25
1	313.154	1128.44	1.25
1	318.155	1107.39	1.24
1	323.155	1086.41	1.24

System: butan-1-ol + butanone; phases: Liquid
Fixed: Pressure, kPa = 101
Property: Mass density, kg/m3 (Liquid); method: Vibrating tube method
Mole fraction of butanone	Temperature, K	Mass density, kg/m3	uncertainty
0	293.151	809.613	0.159
0	298.149	805.808	0.16
0	303.149	801.969	0.161
0	308.149	798.101	0.162
0	313.149	794.193	0.164
0	318.149	790.244	0.165
0	323.149	786.25	0.166
0.1033	293.151	809.161	0.161
0.1033	298.15	805.17	0.162
0.1033	303.149	801.15	0.163
0.1033	308.149	797.099	0.164
0.1033	313.149	793.012	0.166
0.1033	318.149	788.886	0.167
0.1033	323.149	784.717	0.168
0.2069	293.151	808.682	0.163
0.2069	298.151	804.522	0.164
0.2069	303.15	800.336	0.165
0.2069	308.15	796.113	0.166
0.2069	313.151	791.857	0.168
0.2069	318.149	787.562	0.169
0.2069	323.149	783.207	0.17
0.3055	293.151	808.213	0.164
0.3055	298.151	803.902	0.165
0.3055	303.151	799.56	0.167
0.3055	308.15	795.189	0.168
0.3055	313.151	790.782	0.169
0.3055	318.15	786.339	0.171
0.3055	323.149	781.851	0.172
0.3998	293.151	807.77	0.166
0.3998	298.151	803.322	0.167
0.3998	303.15	798.841	0.168
0.3998	308.151	794.328	0.17
0.3998	313.15	789.78	0.171
0.3998	318.15	785.192	0.172
0.3998	323.15	780.568	0.173
0.5002	293.151	807.329	0.167
0.5002	298.149	802.74	0.169
0.5002	303.149	798.114	0.17
0.5002	308.149	793.459	0.171
0.5002	313.149	788.765	0.173
0.5002	318.149	784.037	0.174
0.5002	323.149	779.268	0.175
0.5937	293.151	806.88	0.169
0.5937	298.15	802.161	0.17
0.5937	303.149	797.412	0.172
0.5937	308.15	792.628	0.173
0.5937	313.15	787.807	0.174
0.5937	318.15	782.953	0.176
0.5937	323.15	778.061	0.177
0.7008	293.151	806.418	0.171
0.7008	298.151	801.555	0.172
0.7008	303.15	796.66	0.173
0.7008	308.15	791.73	0.175
0.7008	313.15	786.766	0.176
0.7008	318.15	781.765	0.178
0.7008	323.149	776.725	0.179
0.803	293.151	805.915	0.172
0.803	298.149	800.92	0.174
0.803	303.149	795.887	0.175
0.803	308.149	790.827	0.177
0.803	313.149	785.725	0.178
0.803	318.149	780.596	0.18
0.803	323.149	775.415	0.181
0.8974	293.151	805.458	0.174
0.8974	298.151	800.34	0.175
0.8974	303.151	795.198	0.177
0.8974	308.151	790.021	0.178
0.8974	313.151	784.812	0.179
0.8974	318.151	779.565	0.181
0.8974	323.149	774.284	0.182
1	293.151	804.903	0.175
1	298.149	799.678	0.177
1	303.149	794.414	0.178
1	308.149	789.124	0.18
1	313.149	783.798	0.181
1	318.149	778.438	0.183
1	323.149	773.04	0.184

System: butan-1-ol + butanone; phases: Liquid
Fixed: Pressure, kPa = 101
Property: Speed of sound, m/s (Liquid); method: Sing-around technique in a fixed-path interferometer
Mole fraction of butanone	Temperature, K	Speed of sound, m/s	uncertainty
0	293.151	1257.01	1.21
0	298.149	1240.37	1.21
0	303.149	1223.64	1.2
0	308.149	1206.95	1.2
0	313.149	1190.34	1.2
0	318.149	1173.84	1.2
0	323.149	1157.36	1.19
0.1033	293.151	1253.19	1.21
0.1033	298.15	1235.96	1.21
0.1033	303.149	1218.6	1.21
0.1033	308.149	1201.3	1.2
0.1033	313.149	1184.11	1.2
0.1033	318.149	1166.99	1.2
0.1033	323.149	1149.96	1.2
0.2069	293.151	1248.52	1.21
0.2069	298.151	1230.78	1.21
0.2069	303.15	1212.91	1.21
0.2069	308.15	1195.07	1.21
0.2069	313.151	1177.32	1.2
0.2069	318.149	1159.64	1.2
0.2069	323.149	1141.75	1.2
0.3055	293.151	1243.9	1.22
0.3055	298.151	1225.51	1.21
0.3055	303.151	1207.32	1.21
0.3055	308.15	1189.09	1.21
0.3055	313.151	1170.9	1.2
0.3055	318.15	1152.79	1.2
0.3055	323.149	1134.72	1.2
0.3998	293.151	1239.61	1.22
0.3998	298.151	1221.08	1.22
0.3998	303.15	1202.31	1.21
0.3998	308.151	1183.64	1.21
0.3998	313.15	1165.03	1.21
0.3998	318.15	1146.45	1.2
0.3998	323.15	1127.99	1.2
0.5002	293.151	1235.42	1.22
0.5002	298.149	1216.38	1.22
0.5002	303.149	1197.2	1.21
0.5002	308.149	1178.15	1.21
0.5002	313.149	1159.11	1.21
0.5002	318.149	1140.14	1.2
0.5002	323.149	1121.21	1.2
0.5937	293.151	1231.47	1.22
0.5937	298.15	1212.18	1.22
0.5937	303.149	1192.7	1.22
0.5937	308.15	1173.24	1.21
0.5937	313.15	1153.82	1.21
0.5937	318.15	1134.49	1.21
0.5937	323.15	1115.23	1.2
0.7008	293.151	1227.47	1.22
0.7008	298.151	1207.71	1.22
0.7008	303.15	1187.75	1.22
0.7008	308.15	1167.81	1.21
0.7008	313.15	1147.93	1.21
0.7008	318.15	1128.12	1.21
0.7008	323.149	1108.31	1.21
0.803	293.151	1223.62	1.22
0.803	298.149	1203.33	1.22
0.803	303.149	1182.84	1.22
0.803	308.149	1162.46	1.22
0.803	313.149	1142.04	1.21
0.803	318.149	1121.75	1.21
0.803	323.149	1101.39	1.21
0.8974	293.151	1219.34	1.23
0.8974	298.151	1198.4	1.23
0.8974	303.151	1177.74	1.22
0.8974	308.151	1156.89	1.22
0.8974	313.151	1136.08	1.22
0.8974	318.151	1115.34	1.21
0.8974	323.149	1094.68	1.21
1	293.151	1213.3	1.23
1	298.149	1192.14	1.23
1	303.149	1170.79	1.22
1	308.149	1149.57	1.22
1	313.149	1128.37	1.22
1	318.149	1107.27	1.21
1	323.149	1086.19	1.21

System: trichloromethane + butanone; phases: Liquid
Fixed: Pressure, kPa = 101
Property: Mass density, kg/m3 (Liquid); method: Vibrating tube method
Mole fraction of butanone	Temperature, K	Mass density, kg/m3	uncertainty
0	293.151	1487.632	0.298
0	298.149	1478.156	0.296
0	303.149	1468.608	0.294
0	308.149	1459.003	0.292
0.0985	293.151	1414.988	0.287
0.0985	298.149	1406.027	0.281
0.0985	303.149	1397.007	0.279
0.0985	308.149	1387.933	0.273
0.1786	293.151	1356.752	0.268
0.1786	298.149	1348.262	0.262
0.1786	303.149	1339.723	0.261
0.1786	308.15	1331.074	0.256
0.3051	293.151	1266.117	0.243
0.3051	298.151	1258.189	0.235
0.3051	303.151	1250.227	0.235
0.3051	308.151	1242.14	0.228
0.3895	293.151	1206.738	0.226
0.3895	298.149	1199.182	0.219
0.3895	303.149	1191.573	0.219
0.3895	308.149	1183.921	0.212
0.5205	293.151	1116.203	0.208
0.5205	298.149	1109.214	0.198
0.5205	303.149	1102.177	0.197
0.5205	308.149	1095.095	0.188
0.6356	293.151	1038.571	0.19
0.6356	298.149	1032.041	0.183
0.6356	303.149	1025.464	0.183
0.6356	308.149	1018.848	0.175
0.7219	293.151	981.684	0.179
0.7219	298.149	975.475	0.177
0.7219	303.149	969.225	0.178
0.7219	308.149	962.936	0.175
0.7939	293.151	934.854	0.179
0.7939	298.149	928.929	0.177
0.7939	303.149	922.905	0.179
0.7939	308.149	916.881	0.176
0.8539	293.151	896.434	0.181
0.8539	298.149	890.699	0.179
0.8539	303.149	884.925	0.18
0.8539	308.149	879.117	0.178
0.9089	293.151	861.829	0.182
0.9089	298.149	856.285	0.181
0.9089	303.149	850.704	0.182
0.9089	308.149	845.091	0.181
1	293.151	805.166	0.175
1	298.149	799.937	0.177
1	303.149	794.672	0.178
1	308.149	789.382	0.179

System: trichloromethane + butanone; phases: Liquid
Fixed: Pressure, kPa = 101
Property: Speed of sound, m/s (Liquid); method: Sing-around technique in a fixed-path interferometer
Mole fraction of butanone	Temperature, K	Speed of sound, m/s	uncertainty
0	293.151	1000.63	1.17
0	298.149	983.68	1.17
0	303.149	966.68	1.17
0	308.149	949.78	1.16
0.0985	293.151	1010.23	1.17
0.0985	298.149	993.35	1.17
0.0985	303.149	976.36	1.17
0.0985	308.149	959.4	1.16
0.1786	293.151	1018.87	1.18
0.1786	298.149	1002.1	1.17
0.1786	303.149	985.21	1.17
0.1786	308.15	968.21	1.16
0.3051	293.151	1037.47	1.18
0.3051	298.151	1020.08	1.18
0.3051	303.151	1002.87	1.17
0.3051	308.151	985.85	1.17
0.3895	293.151	1051.13	1.19
0.3895	298.149	1033.9	1.18
0.3895	303.149	1016.54	1.18
0.3895	308.149	999.24	1.17
0.5205	293.151	1076.15	1.2
0.5205	298.149	1058.53	1.18
0.5205	303.149	1040.71	1.18
0.5205	308.149	1022.92	1.17
0.6356	293.151	1102.27	1.2
0.6356	298.149	1084.03	1.19
0.6356	303.149	1065.59	1.19
0.6356	308.149	1047.2	1.18
0.7219	293.151	1124.5	1.21
0.7219	298.149	1105.69	1.2
0.7219	303.149	1086.69	1.2
0.7219	308.149	1067.73	1.19
0.7939	293.151	1144.89	1.21
0.7939	298.149	1125.37	1.21
0.7939	303.149	1105.87	1.2
0.7939	308.149	1086.53	1.2
0.8539	293.151	1163.45	1.22
0.8539	298.149	1143.51	1.21
0.8539	303.149	1123.49	1.21
0.8539	308.149	1103.56	1.2
0.9089	293.151	1181.36	1.23
0.9089	298.149	1161.02	1.22
0.9089	303.149	1140.53	1.21
0.9089	308.149	1120.11	1.21
1	293.151	1214.03	1.23
1	298.149	1193.15	1.23
1	303.149	1172.1	1.22
1	308.149	1151	1.22
