Measured thermophysical data. Density of Mixtures Containing Sugars and Ionic Liquids: Experimental Data and PC-SAFT Modeling
Source: J. Chem. Eng. Data, 2014, 10.1021/je500079y
Compound 1: 1-ethyl-3-methylimidazolium ethyl sulfate, C8H16N2O4S, InChI=1S/C6H11N2.C2H6O4S/c1-3-8-5-4-7(2)6-8;1-2-6-7(3,4)5/h4-6H,3H2,1-2H3;2H2,1H3,(H,3,4,5)/q+1;/p-1
Compound 2: D-glucose, C6H12O6, InChI=1S/C6H12O6/c7-1-3(9)5(11)6(12)4(10)2-8/h1,3-6,8-12H,2H2/t3-,4+,5+,6+/m0/s1, purity 99%
Compound 3: D-fructose, C6H12O6, InChI=1S/C6H12O6/c7-1-3(9)5(11)6(12)4(10)2-8/h3,5-9,11-12H,1-2H2/t3-,5-,6-/m1/s1, purity 99%
Compound 4: xylitol, C5H12O5, InChI=1S/C5H12O5/c6-1-3(8)5(10)4(9)2-7/h3-10H,1-2H2/t3-,4+,5+, purity 99%
Compound 5: D-sorbitol, C6H14O6, InChI=1S/C6H14O6/c7-1-3(9)5(11)6(12)4(10)2-8/h3-12H,1-2H2/t3-,4+,5-,6-/m1/s1, purity 99%

System: 1-ethyl-3-methylimidazolium ethyl sulfate; phases: Liquid
Fixed: Pressure, kPa = 101.325
Property: Mass density, kg/m3 (Liquid); method: Vibrating tube method
Temperature, K	Mass density, kg/m3	uncertainty
278.15	1250.01	0.13
283.15	1246.61	0.13
288.15	1243.14	0.13
293.15	1239.68	0.13
298.15	1236.24	0.13
303.15	1232.82	0.13
308.15	1229.42	0.13
313.15	1226.03	0.13
318.15	1222.66	0.12
323.15	1219.3	0.1
328.15	1215.96	0.12
333.15	1212.63	0.12
338.15	1209.31	0.12
343.15	1206.01	0.12

System: D-glucose + 1-ethyl-3-methylimidazolium ethyl sulfate; phases: Liquid
Fixed: Pressure, kPa = 101
Property: Mass density, kg/m3 (Liquid); method: Vibrating tube method
Temperature, K	Mass fraction of D-glucose	Mass density, kg/m3	uncertainty
278.15	0.046	1260.18	0.17
278.15	0.059	1263.04	0.17
278.15	0.097	1271.43	0.18
278.15	0.134	1279.83	0.19
278.15	0.154	1284.18	0.2
278.15	0.18	1290.02	0.21
283.15	0.046	1256.74	0.17
283.15	0.059	1259.61	0.17
283.15	0.097	1268.01	0.18
283.15	0.134	1276.43	0.19
283.15	0.154	1280.78	0.2
283.15	0.18	1286.63	0.21
288.15	0.046	1253.31	0.16
288.15	0.059	1256.19	0.17
288.15	0.097	1264.58	0.18
288.15	0.134	1273.02	0.19
288.15	0.154	1277.37	0.2
288.15	0.18	1283.21	0.2
293.15	0.046	1249.88	0.16
293.15	0.059	1252.77	0.17
293.15	0.097	1261.19	0.18
293.15	0.134	1269.61	0.19
293.15	0.154	1273.96	0.19
293.15	0.18	1279.8	0.2
298.15	0.046	1246.45	0.16
298.15	0.059	1249.35	0.17
298.15	0.097	1257.81	0.18
298.15	0.134	1266.25	0.19
298.15	0.154	1270.6	0.19
298.15	0.18	1276.37	0.2
303.15	0.046	1243.04	0.16
303.15	0.059	1245.93	0.16
303.15	0.097	1254.43	0.17
303.15	0.134	1262.9	0.19
303.15	0.154	1267.26	0.19
303.15	0.18	1273	0.2
308.15	0.046	1239.63	0.16
308.15	0.059	1242.53	0.16
308.15	0.097	1251.04	0.17
308.15	0.134	1259.54	0.18
308.15	0.154	1263.91	0.19
308.15	0.18	1269.64	0.2
313.15	0.046	1236.25	0.16
313.15	0.059	1239.14	0.16
313.15	0.097	1247.66	0.17
313.15	0.134	1256.17	0.18
313.15	0.154	1260.56	0.19
313.15	0.18	1266.26	0.2
318.15	0.046	1232.88	0.16
318.15	0.059	1235.77	0.16
318.15	0.097	1244.29	0.17
318.15	0.134	1252.82	0.18
318.15	0.154	1257.21	0.19
318.15	0.18	1262.88	0.19
323.15	0.046	1229.52	0.15
323.15	0.059	1232.42	0.16
323.15	0.097	1240.94	0.17
323.15	0.134	1249.47	0.18
323.15	0.154	1253.87	0.19
323.15	0.18	1259.51	0.19
328.15	0.046	1226.18	0.15
328.15	0.059	1229.08	0.16
328.15	0.097	1237.6	0.17
328.15	0.134	1246.13	0.18
328.15	0.154	1250.54	0.18
328.15	0.18	1256.14	0.19
333.15	0.046	1222.86	0.15
333.15	0.059	1225.74	0.15
333.15	0.097	1234.28	0.17
333.15	0.134	1242.81	0.18
333.15	0.154	1247.23	0.18
333.15	0.18	1252.8	0.19
338.15	0.046	1219.54	0.15
338.15	0.059	1222.46	0.15
338.15	0.097	1230.97	0.16
338.15	0.134	1239.5	0.17
338.15	0.154	1243.93	0.18
338.15	0.18	1249.49	0.19
343.15	0.046	1216.24	0.15
343.15	0.059	1219.17	0.15
343.15	0.097	1227.66	0.16
343.15	0.134	1236.2	0.17
343.15	0.154	1240.64	0.18
343.15	0.18	1246.21	0.19

System: D-fructose + 1-ethyl-3-methylimidazolium ethyl sulfate; phases: Liquid
Fixed: Pressure, kPa = 101
Property: Mass density, kg/m3 (Liquid); method: Vibrating tube method
Temperature, K	Mass fraction of D-fructose	Mass density, kg/m3	uncertainty
278.15	0.069	1265.07	0.17
278.15	0.104	1272.55	0.18
278.15	0.171	1287.93	0.21
278.15	0.248	1306.03	0.23
278.15	0.266	1310.46	0.24
278.15	0.307	1320.13	0.26
283.15	0.069	1261.63	0.17
283.15	0.104	1269.11	0.18
283.15	0.171	1284.51	0.2
283.15	0.248	1302.63	0.23
283.15	0.266	1307.07	0.24
283.15	0.307	1316.76	0.26
288.15	0.069	1258.21	0.17
288.15	0.104	1265.68	0.18
288.15	0.171	1281.07	0.2
288.15	0.248	1299.21	0.23
288.15	0.307	1313.36	0.25
293.15	0.069	1254.78	0.17
293.15	0.104	1262.28	0.18
293.15	0.171	1277.63	0.2
293.15	0.248	1295.77	0.23
293.15	0.266	1300.21	0.24
293.15	0.307	1309.93	0.25
298.15	0.069	1251.35	0.17
298.15	0.104	1258.88	0.18
298.15	0.171	1274.21	0.2
298.15	0.248	1292.29	0.23
298.15	0.266	1296.72	0.23
298.15	0.307	1306.43	0.25
303.15	0.069	1247.93	0.17
303.15	0.104	1255.47	0.18
303.15	0.171	1270.78	0.2
303.15	0.248	1288.73	0.23
303.15	0.266	1293.13	0.23
303.15	0.307	1302.82	0.25
308.15	0.069	1244.5	0.16
308.15	0.104	1252.05	0.17
308.15	0.171	1267.3	0.2
308.15	0.248	1285.14	0.22
308.15	0.266	1289.48	0.23
308.15	0.307	1299.08	0.25
313.15	0.069	1241.08	0.16
313.15	0.104	1248.62	0.17
313.15	0.171	1263.76	0.19
313.15	0.248	1281.5	0.22
313.15	0.266	1285.81	0.23
313.15	0.307	1295.34	0.24
318.15	0.069	1237.67	0.16
318.15	0.104	1245.19	0.17
318.15	0.171	1260.19	0.19
318.15	0.248	1277.84	0.22
318.15	0.266	1282.13	0.23
318.15	0.307	1291.62	0.24
323.15	0.069	1234.25	0.16
323.15	0.104	1241.74	0.17
323.15	0.171	1256.61	0.19
323.15	0.248	1274.19	0.22
323.15	0.266	1278.47	0.22
323.15	0.307	1287.95	0.24
328.15	0.069	1230.83	0.16
328.15	0.104	1238.29	0.17
328.15	0.171	1253.07	0.19
328.15	0.248	1270.58	0.22
328.15	0.266	1274.85	0.22
328.15	0.307	1284.29	0.24
333.15	0.069	1227.42	0.16
333.15	0.104	1234.86	0.17
333.15	0.171	1249.57	0.19
333.15	0.248	1267.01	0.21
333.15	0.266	1271.26	0.22
333.15	0.307	1280.66	0.24
338.15	0.069	1224.03	0.16
338.15	0.104	1231.44	0.16
338.15	0.171	1246.09	0.19
338.15	0.248	1263.46	0.21
338.15	0.266	1267.69	0.22
338.15	0.307	1277.05	0.24
343.15	0.069	1220.66	0.15
343.15	0.104	1228.04	0.16
343.15	0.171	1242.65	0.18
343.15	0.248	1259.93	0.21
343.15	0.266	1264.14	0.22
343.15	0.307	1273.45	0.23

System: xylitol + 1-ethyl-3-methylimidazolium ethyl sulfate; phases: Liquid
Fixed: Pressure, kPa = 101
Property: Mass density, kg/m3 (Liquid); method: Vibrating tube method
Temperature, K	Mass fraction of xylitol	Mass density, kg/m3	uncertainty
278.15	0.05	1256.32	0.97
278.15	0.07	1258.74	0.97
278.15	0.098	1261.95	0.97
278.15	0.131	1267.09	0.97
278.15	0.15	1269.01	0.97
278.15	0.169	1271.21	0.97
283.15	0.05	1252.87	0.97
283.15	0.07	1255.31	0.97
283.15	0.098	1258.5	0.97
283.15	0.131	1263.64	0.97
283.15	0.15	1265.56	0.97
283.15	0.169	1267.75	0.97
288.15	0.05	1249.41	0.97
288.15	0.07	1251.86	0.97
288.15	0.098	1255.06	0.97
288.15	0.131	1260.2	0.97
288.15	0.15	1262.12	0.97
288.15	0.169	1264.31	0.97
293.15	0.05	1245.95	0.97
293.15	0.07	1248.4	0.97
293.15	0.098	1251.62	0.97
293.15	0.131	1256.76	0.97
293.15	0.15	1258.69	0.97
293.15	0.169	1260.89	0.97
298.15	0.05	1242.51	0.97
298.15	0.07	1244.96	0.97
298.15	0.098	1248.2	0.97
298.15	0.131	1253.33	0.97
298.15	0.15	1255.25	0.97
298.15	0.169	1257.46	0.97
303.15	0.05	1239.07	0.97
303.15	0.07	1241.53	0.97
303.15	0.098	1244.78	0.97
303.15	0.131	1249.9	0.97
303.15	0.15	1251.82	0.97
303.15	0.169	1254.03	0.97
308.15	0.05	1235.66	0.97
308.15	0.07	1238.11	0.97
308.15	0.098	1241.38	0.97
308.15	0.131	1246.49	0.97
308.15	0.15	1248.41	0.97
308.15	0.169	1250.61	0.97
313.15	0.05	1232.27	0.97
313.15	0.07	1234.72	0.97
313.15	0.098	1238.01	0.97
313.15	0.131	1243.08	0.97
313.15	0.15	1245	0.97
313.15	0.169	1247.2	0.97
318.15	0.05	1228.89	0.96
318.15	0.07	1231.34	0.97
318.15	0.098	1234.65	0.97
318.15	0.131	1239.7	0.97
318.15	0.15	1241.62	0.97
318.15	0.169	1243.81	0.97
323.15	0.05	1225.53	0.96
323.15	0.07	1227.97	0.97
323.15	0.098	1231.3	0.97
323.15	0.131	1236.33	0.97
323.15	0.15	1238.25	0.97
323.15	0.169	1240.44	0.97
328.15	0.05	1222.18	0.96
328.15	0.07	1224.62	0.97
328.15	0.098	1227.97	0.97
328.15	0.131	1232.97	0.97
328.15	0.15	1234.89	0.97
328.15	0.169	1237.08	0.97
333.15	0.05	1218.84	0.96
333.15	0.07	1221.29	0.96
333.15	0.098	1224.64	0.97
333.15	0.131	1229.63	0.97
333.15	0.15	1231.55	0.97
333.15	0.169	1233.73	0.97
338.15	0.05	1215.52	0.96
338.15	0.07	1217.96	0.96
338.15	0.098	1221.33	0.97
338.15	0.131	1226.3	0.97
338.15	0.169	1230.39	0.97
343.15	0.05	1212.21	0.96
343.15	0.07	1214.65	0.96
343.15	0.098	1218.02	0.97
343.15	0.131	1222.98	0.97
343.15	0.169	1227.06	0.97

System: D-sorbitol + 1-ethyl-3-methylimidazolium ethyl sulfate; phases: Liquid
Fixed: Pressure, kPa = 101
Property: Mass density, kg/m3 (Liquid); method: Vibrating tube method
Temperature, K	Mass fraction of D-sorbitol	Mass density, kg/m3	uncertainty
278.15	0.037	1255.77	0.16
278.15	0.056	1258.66	0.17
278.15	0.113	1267.3	0.18
278.15	0.16	1274.68	0.19
278.15	0.182	1278.11	0.2
278.15	0.202	1281.13	0.21
283.15	0.037	1252.33	0.16
283.15	0.056	1255.52	0.17
283.15	0.113	1263.85	0.18
283.15	0.16	1271.21	0.19
283.15	0.182	1274.65	0.2
283.15	0.202	1277.67	0.2
288.15	0.037	1248.88	0.16
288.15	0.056	1251.77	0.17
288.15	0.113	1260.41	0.18
288.15	0.16	1267.76	0.19
288.15	0.182	1271.19	0.2
288.15	0.202	1274.21	0.2
293.15	0.037	1245.42	0.16
293.15	0.056	1248.33	0.16
293.15	0.113	1256.99	0.18
293.15	0.16	1264.34	0.19
293.15	0.182	1267.76	0.2
293.15	0.202	1270.77	0.2
298.15	0.037	1241.97	0.16
298.15	0.056	1244.88	0.16
298.15	0.113	1253.56	0.18
298.15	0.16	1260.93	0.19
298.15	0.182	1264.36	0.19
298.15	0.202	1267.36	0.2
303.15	0.037	1238.54	0.16
303.15	0.056	1241.45	0.16
303.15	0.113	1250.14	0.17
303.15	0.16	1257.52	0.19
303.15	0.182	1260.96	0.19
303.15	0.202	1263.97	0.2
308.15	0.037	1235.13	0.16
308.15	0.056	1238.04	0.16
308.15	0.113	1246.73	0.17
308.15	0.16	1254.11	0.18
308.15	0.182	1257.55	0.19
308.15	0.202	1260.56	0.2
313.15	0.037	1231.74	0.15
313.15	0.056	1234.65	0.16
313.15	0.113	1243.33	0.17
313.15	0.16	1250.71	0.18
313.15	0.182	1254.15	0.19
313.15	0.202	1257.16	0.19
318.15	0.037	1228.36	0.15
318.15	0.056	1231.27	0.16
318.15	0.113	1239.95	0.17
318.15	0.16	1247.32	0.18
318.15	0.182	1250.77	0.19
318.15	0.202	1253.77	0.19
323.15	0.037	1225	0.15
323.15	0.056	1227.91	0.15
323.15	0.113	1236.59	0.17
323.15	0.16	1243.95	0.18
323.15	0.182	1247.4	0.19
323.15	0.202	1250.4	0.19
328.15	0.037	1221.65	0.15
328.15	0.056	1224.56	0.15
328.15	0.113	1233.25	0.17
328.15	0.16	1240.6	0.18
328.15	0.182	1244.04	0.18
328.15	0.202	1247.03	0.19
333.15	0.037	1218.32	0.15
333.15	0.056	1221.23	0.15
333.15	0.113	1229.92	0.16
333.15	0.16	1237.26	0.18
333.15	0.182	1240.7	0.18
333.15	0.202	1243.69	0.19
338.15	0.037	1215	0.15
338.15	0.056	1217.9	0.15
338.15	0.113	1226.61	0.16
338.15	0.16	1233.93	0.18
338.15	0.182	1237.37	0.18
338.15	0.202	1240.35	0.19
343.15	0.037	1211.69	0.15
343.15	0.056	1214.59	0.15
343.15	0.113	1223.3	0.16
343.15	0.16	1230.62	0.17
343.15	0.182	1234.06	0.18
343.15	0.202	1237.03	0.19
