Measured thermophysical data. Viscosity of Ammonium Nitrate + Formamide Mixtures
Source: J. Chem. Eng. Data, 2014, 10.1021/je500284p
Compound 1: ammonium nitrate, H4N2O3, InChI=1S/NO3.H3N/c2-1(3)4;/h;1H3/q-1;/p+1, purity 99%
Compound 2: formamide, CH3NO, InChI=1S/CH3NO/c2-1-3/h1H,(H2,2,3), purity 99.5%

System: formamide; phases: Liquid
Fixed: Pressure, kPa = 101.325
Property: Viscosity, Pa*s (Liquid); method: CONCYL:UFactor:12
Temperature, K	Viscosity, Pa*s	uncertainty
298.15	0.00323	0.00017
303.15	0.00295	0.00016
308.15	0.00267	0.00015
313.15	0.00243	0.00014
318.15	0.0022	0.00013
323.15	0.00199	0.00012
328.15	0.00182	0.00011
333.15	0.00169	0.00011
338.15	0.00158	0.00011
343.15	0.00152	0.0001
348.15	0.00149	0.0001

System: formamide + ammonium nitrate; phases: Liquid
Fixed: Pressure, kPa = 100
Property: Viscosity, Pa*s (Liquid); method: CONCYL:UFactor:12
Temperature, K	Mole fraction of ammonium nitrate	Viscosity, Pa*s	uncertainty
298.15	0.3703	0.01301	0.00055
298.15	0.3333	0.01171	0.0005
298.15	0.3	0.01049	0.00045
298.15	0.2499	0.00879	0.00038
298.15	0.1999	0.00719	0.00032
298.15	0.1667	0.00633	0.00029
298.15	0.1428	0.00576	0.00026
298.15	0.125	0.00535	0.00025
298.15	0.1111	0.005	0.00024
298.15	0.0999	0.00483	0.00023
298.15	0.0769	0.00442	0.00021
298.15	0.0624	0.00415	0.0002
298.15	0.0476	0.00391	0.00019
298.15	0.0243	0.00356	0.00018
298.15	0.0123	0.00337	0.00017
298.15	0.005	0.00331	0.00017
303.15	0.3703	0.01166	0.0005
303.15	0.3333	0.01051	0.00045
303.15	0.3	0.00937	0.00041
303.15	0.2499	0.00785	0.00035
303.15	0.1999	0.00644	0.00029
303.15	0.1667	0.0057	0.00026
303.15	0.1428	0.0052	0.00024
303.15	0.125	0.00483	0.00023
303.15	0.1111	0.00454	0.00022
303.15	0.0999	0.00437	0.00021
303.15	0.0769	0.00399	0.0002
303.15	0.0624	0.00377	0.00019
303.15	0.0476	0.00355	0.00018
303.15	0.0243	0.00325	0.00017
303.15	0.0123	0.00309	0.00016
303.15	0.005	0.00302	0.00016
308.15	0.3703	0.01043	0.00045
308.15	0.3333	0.00925	0.0004
308.15	0.3	0.00825	0.00036
308.15	0.2499	0.00691	0.00031
308.15	0.1999	0.00569	0.00026
308.15	0.1667	0.00507	0.00024
308.15	0.1428	0.00464	0.00022
308.15	0.125	0.00431	0.00021
308.15	0.1111	0.00408	0.0002
308.15	0.0999	0.00391	0.00019
308.15	0.0769	0.00356	0.00018
308.15	0.0624	0.00339	0.00017
308.15	0.0476	0.00319	0.00017
308.15	0.0243	0.00294	0.00016
308.15	0.0123	0.00281	0.00015
308.15	0.005	0.00273	0.00015
313.15	0.3703	0.00919	0.0004
313.15	0.3333	0.00823	0.00036
313.15	0.3	0.00736	0.00033
313.15	0.2499	0.00619	0.00028
313.15	0.1999	0.00509	0.00024
313.15	0.1667	0.00457	0.00022
313.15	0.1428	0.00419	0.0002
313.15	0.125	0.0039	0.00019
313.15	0.1111	0.00368	0.00018
313.15	0.0999	0.00353	0.00018
313.15	0.0769	0.00323	0.00017
313.15	0.0624	0.00308	0.00016
313.15	0.0476	0.0029	0.00015
313.15	0.0243	0.00266	0.00015
313.15	0.0123	0.00254	0.00014
313.15	0.005	0.00247	0.00014
318.15	0.3703	0.00818	0.00036
318.15	0.3333	0.00731	0.00033
318.15	0.3	0.00654	0.0003
318.15	0.2499	0.00552	0.00026
318.15	0.1999	0.00459	0.00022
318.15	0.1667	0.0041	0.0002
318.15	0.1428	0.00377	0.00019
318.15	0.125	0.00352	0.00018
318.15	0.1111	0.00334	0.00017
318.15	0.0999	0.00319	0.00017
318.15	0.0769	0.00292	0.00016
318.15	0.0624	0.00279	0.00015
318.15	0.0476	0.00263	0.00014
318.15	0.0243	0.00243	0.00014
318.15	0.0123	0.0023	0.00013
318.15	0.005	0.00224	0.00013
323.15	0.3703	0.0073	0.00033
323.15	0.3333	0.00653	0.0003
323.15	0.3	0.00585	0.00027
323.15	0.2499	0.005	0.00024
323.15	0.1999	0.00415	0.0002
323.15	0.1667	0.00375	0.00019
323.15	0.1428	0.00345	0.00018
323.15	0.125	0.00322	0.00017
323.15	0.1111	0.00307	0.00016
323.15	0.0999	0.00293	0.00016
323.15	0.0769	0.00268	0.00015
323.15	0.0624	0.00256	0.00014
323.15	0.0476	0.00241	0.00014
323.15	0.0243	0.0022	0.00013
323.15	0.0123	0.00209	0.00012
323.15	0.005	0.00203	0.00012
328.15	0.3703	0.0066	0.0003
328.15	0.3333	0.00592	0.00027
328.15	0.3	0.00533	0.00025
328.15	0.2499	0.00455	0.00022
328.15	0.1999	0.00382	0.00019
328.15	0.1667	0.00342	0.00017
328.15	0.1428	0.00316	0.00016
328.15	0.125	0.00296	0.00016
328.15	0.1111	0.00282	0.00015
328.15	0.0999	0.0027	0.00015
328.15	0.0769	0.00246	0.00014
328.15	0.0624	0.00235	0.00013
328.15	0.0476	0.00221	0.00013
328.15	0.0243	0.00202	0.00012
328.15	0.0123	0.00192	0.00012
328.15	0.005	0.00187	0.00012
333.15	0.3703	0.006	0.00027
333.15	0.3333	0.00537	0.00025
333.15	0.3	0.00485	0.00023
333.15	0.2499	0.00415	0.0002
333.15	0.1999	0.00349	0.00018
333.15	0.1667	0.00314	0.00016
333.15	0.1428	0.00291	0.00016
333.15	0.125	0.00273	0.00015
333.15	0.1111	0.0026	0.00014
333.15	0.0999	0.0025	0.00014
333.15	0.0769	0.00229	0.00013
333.15	0.0624	0.00218	0.00013
333.15	0.0476	0.00205	0.00012
333.15	0.0243	0.00187	0.00012
333.15	0.0123	0.00178	0.00011
333.15	0.005	0.00173	0.00011
338.15	0.3703	0.00546	0.00025
338.15	0.3333	0.00489	0.00023
338.15	0.3	0.00442	0.00021
338.15	0.2499	0.0038	0.00019
338.15	0.1999	0.00324	0.00017
338.15	0.1667	0.00291	0.00016
338.15	0.1428	0.0027	0.00015
338.15	0.125	0.00253	0.00014
338.15	0.1111	0.00241	0.00014
338.15	0.0999	0.00233	0.00013
338.15	0.0769	0.00214	0.00013
338.15	0.0624	0.00203	0.00012
338.15	0.0476	0.00191	0.00012
338.15	0.0243	0.00175	0.00011
338.15	0.0123	0.00167	0.00011
338.15	0.005	0.00162	0.00011
343.15	0.3703	0.00502	0.00024
343.15	0.3333	0.0045	0.00022
343.15	0.3	0.00408	0.0002
343.15	0.2499	0.00351	0.00018
343.15	0.1999	0.00302	0.00016
343.15	0.1667	0.0027	0.00015
343.15	0.1428	0.00253	0.00014
343.15	0.125	0.00238	0.00014
343.15	0.1111	0.00226	0.00013
343.15	0.0999	0.00219	0.00013
343.15	0.0769	0.00202	0.00012
343.15	0.0624	0.00193	0.00012
343.15	0.0476	0.00182	0.00011
343.15	0.0243	0.00167	0.00011
343.15	0.0123	0.0016	0.00011
343.15	0.005	0.00156	0.0001
348.15	0.3703	0.00463	0.00022
348.15	0.3333	0.00419	0.0002
348.15	0.3	0.00379	0.00019
348.15	0.2499	0.00327	0.00017
348.15	0.1999	0.00282	0.00015
348.15	0.1667	0.00254	0.00014
348.15	0.1428	0.00238	0.00014
348.15	0.125	0.00224	0.00013
348.15	0.1111	0.00214	0.00013
348.15	0.0999	0.00206	0.00012
348.15	0.0769	0.00193	0.00012
348.15	0.0624	0.00184	0.00012
348.15	0.0476	0.00175	0.00011
348.15	0.0243	0.00161	0.00011
348.15	0.0123	0.00156	0.0001
348.15	0.005	0.00152	0.0001

System: formamide + ammonium nitrate; phases: Liquid
Fixed: Pressure, kPa = 100
Property: Mass density, kg/m3 (Liquid); method: PYCNOM:UFactor:8
Temperature, K	Mole fraction of ammonium nitrate	Mass density, kg/m3	uncertainty
298.15	0.3703	1312.1	2.9
298.15	0.3333	1295.3	2.8
298.15	0.3	1280.2	2.8
298.15	0.2499	1257	2.7
298.15	0.1999	1235.4	2.6
298.15	0.1667	1217.6	2.6
298.15	0.1428	1207.1	2.6
298.15	0.125	1196.3	2.5
298.15	0.1111	1191.2	2.5
298.15	0.0999	1184.4	2.5
298.15	0.0769	1171.2	2.5
298.15	0.0624	1162.6	2.4
298.15	0.0476	1154.7	2.4
298.15	0.0243	1142.4	2.4
298.15	0.0123	1134.3	2.4
298.15	0.005	1129.6	2.3
308.15	0.3703	1304.9	3.1
308.15	0.3333	1287.9	3
308.15	0.3	1272.5	3
308.15	0.2499	1249.6	2.9
308.15	0.1999	1227.9	2.8
308.15	0.1667	1209.9	2.8
308.15	0.1428	1199.4	2.7
308.15	0.125	1187.9	2.7
308.15	0.1111	1183.8	2.7
308.15	0.0999	1176.3	2.7
308.15	0.0769	1162.7	2.6
308.15	0.0624	1154.3	2.6
308.15	0.0476	1146.2	2.6
308.15	0.0243	1134.2	2.5
308.15	0.0123	1127.4	2.5
308.15	0.005	1121.9	2.5
318.15	0.3703	1297.8	3.2
318.15	0.3333	1280.4	3.2
318.15	0.3	1264.9	3.1
318.15	0.2499	1242.2	3
318.15	0.1999	1220.1	3
318.15	0.1667	1202.6	2.9
318.15	0.1428	1191.5	2.9
318.15	0.125	1179.9	2.9
318.15	0.1111	1175.4	2.8
318.15	0.0999	1168.3	2.8
318.15	0.0769	1154.7	2.8
318.15	0.0624	1146.3	2.8
318.15	0.0476	1138.1	2.7
318.15	0.0243	1125.7	2.7
318.15	0.0123	1118.9	2.7
318.15	0.005	1113.7	2.7
328.15	0.3703	1290.7	3.4
328.15	0.3333	1273	3.3
328.15	0.3	1257.3	3.3
328.15	0.2499	1234.9	3.2
328.15	0.1999	1212.4	3.1
328.15	0.1667	1195.3	3.1
328.15	0.1428	1183.5	3.1
328.15	0.125	1172.1	3
328.15	0.1111	1167	3
328.15	0.0999	1160.3	3
328.15	0.0769	1146.8	3
328.15	0.0624	1138.4	2.9
328.15	0.0476	1130.1	2.9
328.15	0.0243	1117.2	2.9
328.15	0.0123	1110.4	2.9
328.15	0.005	1104.9	2.8
338.15	0.3703	1283.5	3.6
338.15	0.3333	1265.5	3.5
338.15	0.3	1249.7	3.4
338.15	0.2499	1227.5	3.4
338.15	0.1999	1204.6	3.3
338.15	0.1667	1188	3.3
338.15	0.1428	1175.5	3.2
338.15	0.125	1164.3	3.2
338.15	0.1111	1158.6	3.2
338.15	0.0999	1152.2	3.2
338.15	0.0769	1138.8	3.1
338.15	0.0624	1130.5	3.1
338.15	0.0476	1122.1	3.1
338.15	0.0243	1108.7	3
338.15	0.0123	1101.9	3
338.15	0.005	1096.3	3
348.15	0.3703	1276.4	3.7
348.15	0.3333	1258.1	3.7
348.15	0.3	1242.1	3.6
348.15	0.2499	1220.1	3.5
348.15	0.1999	1196.9	3.5
348.15	0.1667	1180.7	3.4
348.15	0.1428	1167.5	3.4
348.15	0.125	1156.4	3.4
348.15	0.1111	1150.2	3.3
348.15	0.0999	1144.2	3.3
348.15	0.0769	1130.8	3.3
348.15	0.0624	1122.6	3.3
348.15	0.0476	1114	3.2
348.15	0.0243	1100.1	3.2
348.15	0.0123	1093.5	3.2
348.15	0.005	1088.4	3.2
