Measured thermophysical data. Experimental and Modeling of the Propene Solubility in the Heptane and Methylbenzene Solvents
Source: J. Chem. Eng. Data, 2014, 10.1021/je5002347
Compound 1: propene, C3H6, InChI=1S/C3H6/c1-3-2/h3H,1H2,2H3, purity 99.9%
Compound 2: heptane, C7H16, InChI=1S/C7H16/c1-3-5-7-6-4-2/h3-7H2,1-2H3, purity 99%
Compound 3: toluene, C7H8, InChI=1S/C7H8/c1-7-5-3-2-4-6-7/h2-6H,1H3, purity 99.8%

System: propene + heptane; phases: Liquid, Gas
Property: Mole fraction of propene (Liquid); method: Pressure change
Temperature, K	Pressure, kPa	Mole fraction of propene	uncertainty
313.4	136	0.083	0.005
313.4	239	0.147	0.006
313.4	342	0.203	0.008
313.4	431	0.258	0.01
313.4	546	0.293	0.01
313.4	636	0.34	0.01
313.4	739	0.38	0.012
313.4	845	0.424	0.012
324.8	166	0.08	0.004
324.8	284	0.142	0.006
324.8	402	0.198	0.008
324.8	511	0.251	0.01
324.8	630	0.287	0.01
324.8	733	0.334	0.01
324.8	845	0.375	0.012
324.8	972	0.418	0.012
336.2	201	0.077	0.004
336.2	334	0.138	0.006
336.2	467	0.193	0.008
336.2	591	0.246	0.01
336.2	721	0.282	0.01
336.2	841	0.328	0.01
336.2	963	0.368	0.012
336.2	1107	0.411	0.012
347.6	241	0.074	0.004
347.6	391	0.134	0.006
347.6	536	0.188	0.008
347.6	675	0.24	0.01
347.6	821	0.275	0.01
347.6	957	0.321	0.012
347.6	1091	0.362	0.012
347.6	1259	0.404	0.012
359.1	288	0.07	0.004
359.1	452	0.13	0.006
359.1	614	0.183	0.008
359.1	770	0.234	0.01
359.1	932	0.269	0.01
359.1	1085	0.315	0.012
359.1	1228	0.355	0.012

System: toluene + propene; phases: Liquid, Gas
Property: Mole fraction of propene (Liquid); method: Pressure change
Temperature, K	Pressure, kPa	Mole fraction of propene	uncertainty
313.4	131	0.069	0.004
313.4	215	0.104	0.004
313.4	320	0.148	0.006
313.4	408	0.18	0.008
313.4	514	0.228	0.008
313.4	620	0.269	0.01
313.4	715	0.297	0.01
313.4	813	0.334	0.012
324.8	149	0.068	0.004
324.8	243	0.101	0.004
324.8	359	0.145	0.006
324.8	457	0.176	0.008
324.8	578	0.223	0.008
324.8	699	0.263	0.01
324.8	810	0.29	0.01
324.8	919	0.327	0.012
336.2	167	0.067	0.004
336.2	271	0.099	0.004
336.2	402	0.141	0.006
336.2	508	0.172	0.008
336.2	646	0.218	0.01
336.2	780	0.257	0.01
336.2	908	0.283	0.01
336.2	1029	0.32	0.012
347.6	188	0.066	0.004
347.6	301	0.097	0.004
347.6	446	0.138	0.006
347.6	560	0.169	0.008
347.6	718	0.213	0.01
347.6	871	0.251	0.01
347.6	1008	0.277	0.01
347.6	1148	0.313	0.012
359.1	213	0.064	0.004
359.1	335	0.095	0.004
359.1	490	0.136	0.006
359.1	625	0.164	0.008
359.1	792	0.208	0.01
359.1	957	0.246	0.01
359.1	1112	0.271	0.012
359.1	1266	0.307	0.012
