Measured thermophysical data. Thermodynamic Modeling of Apparent Molal Volumes of Metal Nitrate Salts with Pitzer Model
Source: J. Chem. Eng. Data, 2015, 10.1021/je5009894
Compound 1: water, H2O, InChI=1S/H2O/h1H2
Compound 2: aluminum trinitrate, AlN3O9, InChI=1S/Al.3NO3/c;3*2-1(3)4/q+3;3*-1
Compound 3: ferric nitrate, FeN3O9, InChI=1S/Fe.3NO3/c;3*2-1(3)4/q+3;3*-1
Compound 4: manganese nitrate, MnN2O6, InChI=1S/Mn.2NO3/c;2*2-1(3)4/q+2;2*-1

System: water + aluminum trinitrate; phases: Liquid
Fixed: Pressure, kPa = 101
Fixed: Temperature, K = 298.15
Property: Mass density, kg/m3 (Liquid); method: Pycnometric method
Molality, mol/kg of aluminum trinitrate	Mass density, kg/m3	uncertainty
2.7927	1355.7	0.8
2.0121	1288.7	0.8
1.5073	1213.3	0.8
1.0069	1148.4	0.7
0.8667	1128.8	0.8
0.5413	1081.6	0.7

System: water + ferric nitrate; phases: Liquid
Fixed: Pressure, kPa = 101
Fixed: Temperature, K = 298.15
Property: Mass density, kg/m3 (Liquid); method: Pycnometric method
Molality, mol/kg of ferric nitrate	Mass density, kg/m3	uncertainty
2.4423	1363.6	0.8
1.907	1293.8	0.8
1.4761	1235.5	0.8
1.1826	1194.2	0.8
0.4672	1079.1	0.8
0.1102	1017.4	0.7

System: water + manganese nitrate; phases: Liquid
Fixed: Pressure, kPa = 101
Fixed: Temperature, K = 298.15
Property: Mass density, kg/m3 (Liquid); method: Pycnometric method
Molality, mol/kg of manganese nitrate	Mass density, kg/m3	uncertainty
3.4838	1359	0.8
2.0057	1224	0.8
1.3726	1162.1	0.7
0.5661	1069.9	0.7
0.1948	1023	0.7
0.0287	1000.9	0.7
