Measured thermophysical data. Solubilities of Carbon Dioxide in Five Bio-based Solvents
Source: J. Chem. Eng. Data, 2015, 10.1021/je500812s
Compound 1: butanedioic acid, dibutyl ester, C12H22O4, InChI=1S/C12H22O4/c1-3-5-9-15-11(13)7-8-12(14)16-10-6-4-2/h3-10H2,1-2H3, purity 98.3%
Compound 2: 2-hydroxymethylfuran, C5H6O2, InChI=1S/C5H6O2/c6-4-5-2-1-3-7-5/h1-3,6H,4H2, purity 98.2%
Compound 3: ethyl levulinate, C7H12O3, InChI=1S/C7H12O3/c1-3-10-7(9)5-4-6(2)8/h3-5H2,1-2H3, purity 98.5%
Compound 4: butyl levulinate, C9H16O3, InChI=1S/C9H16O3/c1-3-4-7-12-9(11)6-5-8(2)10/h3-7H2,1-2H3, purity 98%
Compound 5: .gamma.-valerolactone, C5H8O2, InChI=1S/C5H8O2/c1-4-2-3-5(6)7-4/h4H,2-3H2,1H3, purity 98.5%
Compound 6: carbon dioxide, CO2, InChI=1S/CO2/c2-1-3, purity 99.9%

System: 2-hydroxymethylfuran + carbon dioxide; phases: Liquid, Gas
Property: Molality, mol/kg of carbon dioxide (Liquid); method: pressure drop
Temperature, K	Pressure, kPa	Molality, mol/kg of carbon dioxide	uncertainty
283.15	55.6	0.0441	0.0009
283.15	108.2	0.085	0.0017
283.15	188.1	0.1483	0.003
283.15	283.5	0.2239	0.0045
283.15	370.2	0.2927	0.006
283.15	466.3	0.3751	0.0077
283.15	508.5	0.4085	0.0084
283.15	554.8	0.4461	0.0093
293.15	63.5	0.0442	0.0009
293.15	115.2	0.0804	0.0016
293.15	196.8	0.1364	0.0027
293.15	299.1	0.2072	0.0042
293.15	385.5	0.2677	0.0054
293.15	485.7	0.3391	0.007
293.15	554.2	0.3888	0.008
303.15	62.3	0.0351	0.0007
303.15	121.6	0.0679	0.0014
303.15	206.8	0.1159	0.0023
303.15	299.3	0.1702	0.0034
303.15	385.6	0.2205	0.0045
303.15	487.4	0.2736	0.0056
303.15	555.9	0.3176	0.0065
313.15	73.4	0.0363	0.0007
313.15	125.4	0.0632	0.0013
313.15	217.6	0.1083	0.0022
313.15	309.4	0.1586	0.0032
313.15	410.8	0.2042	0.0041
313.15	504.4	0.2527	0.0051
313.15	566.1	0.2857	0.0058
323.15	56.6	0.0281	0.0006
323.15	131.4	0.0613	0.0012
323.15	213.8	0.0986	0.002
323.15	310.1	0.1426	0.0029
323.15	406.8	0.1851	0.0037
323.15	505.3	0.2314	0.0047
323.15	567.5	0.2602	0.0053

System: .gamma.-valerolactone + carbon dioxide; phases: Liquid, Gas
Property: Molality, mol/kg of carbon dioxide (Liquid); method: pressure drop
Temperature, K	Pressure, kPa	Molality, mol/kg of carbon dioxide	uncertainty
283.15	38.5	0.0713	0.01
283.15	89.9	0.1676	0.01
283.15	152.5	0.2934	0.01
283.15	234.6	0.4479	0.0102
283.15	321	0.6172	0.0103
283.15	426	0.823	0.0101
283.15	502.6	0.979	0.01
283.15	553.8	1.0791	0.0114
293.15	46	0.0712	0.01
293.15	90.3	0.1397	0.01
293.15	155.1	0.2408	0.01
293.15	242.6	0.382	0.0101
293.15	340	0.5419	0.0103
293.15	434	0.6981	0.0102
293.15	512.4	0.8327	0.0101
293.15	555.4	0.9069	0.01
303.15	46.5	0.06	0.01
303.15	98.9	0.1275	0.01
303.15	176.6	0.228	0.01
303.15	261.4	0.3413	0.0101
303.15	353.3	0.4632	0.0102
303.15	452.8	0.5981	0.0103
303.15	506.3	0.6735	0.0103
303.15	546.5	0.7322	0.0102
313.15	54.2	0.0583	0.01
313.15	104.3	0.115	0.01
313.15	177.9	0.198	0.01
313.15	259.7	0.2917	0.01
313.15	352.9	0.3982	0.0101
313.15	452.4	0.5135	0.0103
313.15	504	0.5756	0.0103
313.15	546.2	0.6248	0.0103
323.15	65.4	0.0599	0.01
323.15	122.1	0.1146	0.01
323.15	195.2	0.1826	0.01
323.15	280.1	0.2643	0.01
323.15	370.4	0.352	0.0101
323.15	469.9	0.4483	0.0102
323.15	515.5	0.4926	0.0103
323.15	556.1	0.5332	0.0103

System: carbon dioxide + butanedioic acid, dibutyl ester; phases: Liquid, Gas
Property: Molality, mol/kg of carbon dioxide (Liquid); method: pressure drop
Temperature, K	Pressure, kPa	Molality, mol/kg of carbon dioxide	uncertainty
283.15	45.1	0.0739	0.0015
283.15	99.5	0.1624	0.0033
283.15	183.5	0.3007	0.0061
283.15	271.2	0.4486	0.0093
283.15	348.8	0.5911	0.0122
283.15	411.9	0.6957	0.0142
283.15	496.2	0.8416	0.017
283.15	546.7	0.9299	0.0187
293.15	47	0.0641	0.0013
293.15	102.7	0.1412	0.0029
293.15	179.2	0.2483	0.005
293.15	265.1	0.3708	0.0076
293.15	354.8	0.4961	0.0104
293.15	436.6	0.6152	0.0127
293.15	549.2	0.7808	0.0158
303.15	52.5	0.0554	0.0011
303.15	108.8	0.1151	0.0023
303.15	181.4	0.1995	0.004
303.15	264.9	0.2929	0.006
303.15	359.4	0.3988	0.0082
303.15	456.6	0.5091	0.0106
303.15	513.4	0.5741	0.0119
303.15	547.7	0.6139	0.0126
313.15	58	0.0551	0.0011
313.15	114.9	0.11	0.0022
313.15	185.8	0.1796	0.0036
313.15	293.4	0.2838	0.0058
313.15	375.6	0.3642	0.0075
313.15	492	0.4783	0.01
313.15	550	0.5383	0.0112
323.15	58.4	0.0499	0.001
323.15	115.4	0.0979	0.002
323.15	194.8	0.1638	0.0033
323.15	279.7	0.2357	0.0048
323.15	377.1	0.3173	0.0065
323.15	455.6	0.384	0.0079
323.15	557.2	0.4711	0.0098

System: carbon dioxide + ethyl levulinate; phases: Liquid, Gas
Property: Molality, mol/kg of carbon dioxide (Liquid); method: pressure drop
Temperature, K	Pressure, kPa	Molality, mol/kg of carbon dioxide	uncertainty
283.15	36.1	0.0724	0.0015
283.15	80.3	0.1565	0.0032
283.15	123.6	0.2467	0.005
283.15	172.3	0.3406	0.0069
283.15	216.8	0.4381	0.009
283.15	265.4	0.5319	0.011
283.15	355.2	0.7349	0.0149
283.15	414.4	0.8438	0.017
283.15	524.4	1.0885	0.0225
293.15	27.8	0.0464	0.0009
293.15	54.3	0.0907	0.0018
293.15	103.6	0.1695	0.0034
293.15	160.9	0.2663	0.0054
293.15	214.7	0.3571	0.0073
293.15	252.4	0.4232	0.0087
293.15	358	0.6082	0.0125
293.15	422.2	0.7259	0.0147
293.15	514	0.8964	0.018
303.15	35.9	0.0466	0.0009
303.15	91.9	0.1211	0.0024
303.15	133.9	0.1768	0.0036
303.15	180.4	0.2397	0.0048
303.15	280.4	0.3689	0.0075
303.15	364.8	0.4942	0.0102
303.15	435.1	0.5934	0.0122
303.15	490	0.672	0.0136
303.15	513.3	0.7068	0.0143
313.15	34.2	0.0432	0.0009
313.15	76	0.0974	0.002
313.15	137.5	0.1769	0.0036
313.15	228.4	0.2755	0.0056
313.15	338.1	0.4141	0.0085
313.15	412.9	0.5065	0.0105
313.15	479.7	0.589	0.0121
323.15	48	0.0499	0.001
323.15	100.1	0.1036	0.0021
323.15	171.9	0.1778	0.0036
323.15	264.7	0.2715	0.0055
323.15	357.6	0.367	0.0075
323.15	418.2	0.4388	0.009
323.15	502.4	0.5225	0.0108

System: carbon dioxide + butyl levulinate; phases: Liquid, Gas
Property: Molality, mol/kg of carbon dioxide (Liquid); method: pressure drop
Temperature, K	Pressure, kPa	Molality, mol/kg of carbon dioxide	uncertainty
283.15	39	0.0738	0.003
283.15	90	0.1683	0.0067
283.15	156.8	0.2938	0.0118
283.15	242	0.4671	0.0189
283.15	350.2	0.6708	0.027
283.15	426.8	0.8234	0.033
283.15	472.8	0.9224	0.0369
283.15	539.7	1.055	0.0428
293.15	40.6	0.0631	0.0025
293.15	83.1	0.1312	0.0053
293.15	143.7	0.2279	0.0092
293.15	212.3	0.3398	0.0137
293.15	334.5	0.5461	0.0221
293.15	434.2	0.7187	0.0289
293.15	494.2	0.8234	0.033
293.15	542.2	0.9047	0.0362
303.15	62.3	0.0803	0.0032
303.15	134	0.1729	0.0069
303.15	197.6	0.2554	0.0103
303.15	309.2	0.3955	0.016
303.15	401.2	0.5287	0.0214
303.15	500.5	0.6502	0.0262
303.15	555.7	0.755	0.0303
313.15	53.6	0.0578	0.0023
313.15	110	0.1194	0.0048
313.15	188.1	0.2093	0.0084
313.15	275.8	0.3045	0.0123
313.15	363.1	0.398	0.0161
313.15	431	0.489	0.0199
313.15	497.5	0.5539	0.0224
313.15	521	0.5936	0.024
323.15	56.3	0.0515	0.0021
323.15	114.6	0.1042	0.0042
323.15	190.2	0.1741	0.007
323.15	302	0.277	0.0111
323.15	390.6	0.3563	0.0144
323.15	453.8	0.4147	0.0168
323.15	533.8	0.4915	0.02
