Measured thermophysical data. Activity Coefficients at Infinite Dilution of Alkanes, Alkenes, and Alkyl Benzenes in 1-Propyl-2,3-dimethylimidazolium Tetrafluoroborate Using Gas-Liquid Chromatography
Source: J. Chem. Eng. Data, 2007, 10.1021/je6005696
Compound 1: pentane, C5H12, InChI=1S/C5H12/c1-3-5-4-2/h3-5H2,1-2H3
Compound 2: 1,2-dimethyl-3-propylimidazolium tetrafluoroborate, C8H15BF4N2, InChI=1S/C8H15N2.BF4/c1-4-5-10-7-6-9(3)8(10)2;2-1(3,4)5/h6-7H,4-5H2,1-3H3;/q+1;-1, purity 99%
Compound 3: hexane, C6H14, InChI=1S/C6H14/c1-3-5-6-4-2/h3-6H2,1-2H3
Compound 4: heptane, C7H16, InChI=1S/C7H16/c1-3-5-7-6-4-2/h3-7H2,1-2H3
Compound 5: octane, C8H18, InChI=1S/C8H18/c1-3-5-7-8-6-4-2/h3-8H2,1-2H3
Compound 6: nonane, C9H20, InChI=1S/C9H20/c1-3-5-7-9-8-6-4-2/h3-9H2,1-2H3
Compound 7: decane, C10H22, InChI=1S/C10H22/c1-3-5-7-9-10-8-6-4-2/h3-10H2,1-2H3
Compound 8: 2,2,4-trimethylpentane, C8H18, InChI=1S/C8H18/c1-7(2)6-8(3,4)5/h7H,6H2,1-5H3
Compound 9: cyclohexane, C6H12, InChI=1S/C6H12/c1-2-4-6-5-3-1/h1-6H2
Compound 10: methylcyclohexane, C7H14, InChI=1S/C7H14/c1-7-5-3-2-4-6-7/h7H,2-6H2,1H3
Compound 11: cyclohexene, C6H10, InChI=1S/C6H10/c1-2-4-6-5-3-1/h1-2H,3-6H2
Compound 12: styrene, C8H8, InChI=1S/C8H8/c1-2-8-6-4-3-5-7-8/h2-7H,1H2
Compound 13: benzene, C6H6, InChI=1S/C6H6/c1-2-4-6-5-3-1/h1-6H
Compound 14: toluene, C7H8, InChI=1S/C7H8/c1-7-5-3-2-4-6-7/h2-6H,1H3
Compound 15: ethylbenzene, C8H10, InChI=1S/C8H10/c1-2-8-6-4-3-5-7-8/h3-7H,2H2,1H3
Compound 16: 1,2-dimethylbenzene, C8H10, InChI=1S/C8H10/c1-7-5-3-4-6-8(7)2/h3-6H,1-2H3
Compound 17: 1,3-dimethylbenzene, C8H10, InChI=1S/C8H10/c1-7-4-3-5-8(2)6-7/h3-6H,1-2H3
Compound 18: 1,4-dimethylbenzene, C8H10, InChI=1S/C8H10/c1-7-3-5-8(2)6-4-7/h3-6H,1-2H3

System: pentane + 1,2-dimethyl-3-propylimidazolium tetrafluoroborate; phases: Liquid, Gas
Fixed: Mole fraction of pentane = 0
Property: Activity coefficient of pentane (Liquid); method: Chromatography
Temperature, K	Activity coefficient of pentane	uncertainty
303.15	236.7	20.52
313.15	162	14.04
323.15	120.5	10.44
333.15	92.81	8.04
343.15	71.52	6.19
353.15	59.77	5.17
363.15	48.47	4.19

System: hexane + 1,2-dimethyl-3-propylimidazolium tetrafluoroborate; phases: Liquid, Gas
Fixed: Mole fraction of hexane = 0
Property: Activity coefficient of hexane (Liquid); method: Chromatography
Temperature, K	Activity coefficient of hexane	uncertainty
303.15	364.4	31.62
313.15	250.5	21.72
323.15	187	16.21
333.15	142.7	12.37
343.15	111	9.62
353.15	90.25	7.82
363.15	75.11	6.5

System: heptane + 1,2-dimethyl-3-propylimidazolium tetrafluoroborate; phases: Liquid, Gas
Fixed: Mole fraction of heptane = 0
Property: Activity coefficient of heptane (Liquid); method: Chromatography
Temperature, K	Activity coefficient of heptane	uncertainty
303.15	644.7	56
313.15	441.1	38.3
323.15	307.8	26.7
333.15	227.4	19.7
343.15	173.8	15.1
353.15	134.6	11.7
363.15	109.5	9.5

System: octane + 1,2-dimethyl-3-propylimidazolium tetrafluoroborate; phases: Liquid, Gas
Fixed: Mole fraction of octane = 0
Property: Activity coefficient of octane (Liquid); method: Chromatography
Temperature, K	Activity coefficient of octane	uncertainty
303.15	864.8	75.1
313.15	634.4	55.1
323.15	475.1	41.2
333.15	369.4	32.1
343.15	299.1	25.9
353.15	244.2	21.2
363.15	202.9	17.6

System: nonane + 1,2-dimethyl-3-propylimidazolium tetrafluoroborate; phases: Liquid, Gas
Fixed: Mole fraction of nonane = 0
Property: Activity coefficient of nonane (Liquid); method: Chromatography
Temperature, K	Activity coefficient of nonane	uncertainty
303.15	1843	160.3
313.15	944	82
323.15	602.3	52.3
333.15	297	25.8
343.15	170.4	14.8
353.15	102.6	8.9
363.15	69.5	6

System: decane + 1,2-dimethyl-3-propylimidazolium tetrafluoroborate; phases: Liquid, Gas
Fixed: Mole fraction of decane = 0
Property: Activity coefficient of decane (Liquid); method: Chromatography
Temperature, K	Activity coefficient of decane	uncertainty
303.15	9813	855.6
313.15	5975	520.6
323.15	3788	329.8
333.15	2579	224.4
343.15	1566	136.2
353.15	1164	101.2
363.15	814.2	70.7

System: 2,2,4-trimethylpentane + 1,2-dimethyl-3-propylimidazolium tetrafluoroborate; phases: Liquid, Gas
Fixed: Mole fraction of 2,2,4-trimethylpentane = 0
Property: Activity coefficient of 2,2,4-trimethylpentane (Liquid); method: Chromatography
Temperature, K	Activity coefficient of 2,2,4-trimethylpentane	uncertainty
303.15	611.6	53.1
313.15	439.9	38.2
323.15	333.4	28.9
333.15	259.6	22.5
343.15	208.6	18.1
353.15	169.7	14.7
363.15	142	12.3

System: cyclohexane + 1,2-dimethyl-3-propylimidazolium tetrafluoroborate; phases: Liquid, Gas
Fixed: Mole fraction of cyclohexane = 0
Property: Activity coefficient of cyclohexane (Liquid); method: Chromatography
Temperature, K	Activity coefficient of cyclohexane	uncertainty
303.15	149.2	12.9
313.15	112.8	9.8
323.15	83.3	7.2
333.15	64.7	5.6
343.15	52.2	4.5
353.15	43.2	3.7
363.15	36.1	3.1

System: methylcyclohexane + 1,2-dimethyl-3-propylimidazolium tetrafluoroborate; phases: Liquid, Gas
Fixed: Mole fraction of methylcyclohexane = 0
Property: Activity coefficient of methylcyclohexane (Liquid); method: Chromatography
Temperature, K	Activity coefficient of methylcyclohexane	uncertainty
303.15	251.5	21.8
313.15	182.6	15.8
323.15	134.3	11.6
333.15	103.2	8.9
343.15	82.1	7.1
353.15	66.1	5.7
363.15	54.2	4.7

System: cyclohexene + 1,2-dimethyl-3-propylimidazolium tetrafluoroborate; phases: Liquid, Gas
Fixed: Mole fraction of cyclohexene = 0
Property: Activity coefficient of cyclohexene (Liquid); method: Chromatography
Temperature, K	Activity coefficient of cyclohexene	uncertainty
303.15	47.24	4.09
313.15	37.13	3.21
323.15	30.18	2.61
333.15	24.34	2.1
343.15	20.65	1.78
353.15	17.31	1.5
363.15	14.62	1.26

System: styrene + 1,2-dimethyl-3-propylimidazolium tetrafluoroborate; phases: Liquid, Gas
Fixed: Mole fraction of styrene = 0
Property: Activity coefficient of styrene (Liquid); method: Chromatography
Temperature, K	Activity coefficient of styrene	uncertainty
303.15	6.606	0.57
313.15	5.314	0.458
323.15	4.587	0.396
333.15	3.817	0.329
343.15	3.378	0.291
353.15	2.967	0.256
363.15	2.653	0.229

System: benzene + 1,2-dimethyl-3-propylimidazolium tetrafluoroborate; phases: Liquid, Gas
Fixed: Mole fraction of benzene = 0
Property: Activity coefficient of benzene (Liquid); method: Chromatography
Temperature, K	Activity coefficient of benzene	uncertainty
303.15	4.239	0.366
313.15	3.551	0.306
323.15	3.123	0.269
333.15	2.745	0.237
343.15	2.436	0.21
353.15	2.193	0.189
363.15	2.011	0.173

System: toluene + 1,2-dimethyl-3-propylimidazolium tetrafluoroborate; phases: Liquid, Gas
Fixed: Mole fraction of toluene = 0
Property: Activity coefficient of toluene (Liquid); method: Chromatography
Temperature, K	Activity coefficient of toluene	uncertainty
303.15	7.082	0.611
313.15	6.048	0.522
323.15	5.351	0.462
333.15	4.594	0.396
343.15	4.323	0.373
353.15	3.861	0.333
363.15	3.514	0.303

System: ethylbenzene + 1,2-dimethyl-3-propylimidazolium tetrafluoroborate; phases: Liquid, Gas
Fixed: Mole fraction of ethylbenzene = 0
Property: Activity coefficient of ethylbenzene (Liquid); method: Chromatography
Temperature, K	Activity coefficient of ethylbenzene	uncertainty
303.15	16.81	1.452
313.15	13.5	1.166
323.15	11.16	0.964
333.15	9.63	0.831
343.15	8.356	0.721
353.15	7.396	0.638
363.15	6.616	0.571

System: 1,2-dimethylbenzene + 1,2-dimethyl-3-propylimidazolium tetrafluoroborate; phases: Liquid, Gas
Fixed: Mole fraction of 1,2-dimethylbenzene = 0
Property: Activity coefficient of 1,2-dimethylbenzene (Liquid); method: Chromatography
Temperature, K	Activity coefficient of 1,2-dimethylbenzene	uncertainty
303.15	11.33	0.978
313.15	9.341	0.806
323.15	7.855	0.678
333.15	6.793	0.586
343.15	6.022	0.52
353.15	5.455	0.471
363.15	4.97	0.429

System: 1,3-dimethylbenzene + 1,2-dimethyl-3-propylimidazolium tetrafluoroborate; phases: Liquid, Gas
Fixed: Mole fraction of 1,3-dimethylbenzene = 0
Property: Activity coefficient of 1,3-dimethylbenzene (Liquid); method: Chromatography
Temperature, K	Activity coefficient of 1,3-dimethylbenzene	uncertainty
303.15	14.93	1.29
313.15	12.11	1.046
323.15	10.21	0.882
333.15	8.773	0.757
343.15	7.734	0.668
353.15	6.948	0.6
363.15	6.253	0.54

System: 1,4-dimethylbenzene + 1,2-dimethyl-3-propylimidazolium tetrafluoroborate; phases: Liquid, Gas
Fixed: Mole fraction of 1,4-dimethylbenzene = 0
Property: Activity coefficient of 1,4-dimethylbenzene (Liquid); method: Chromatography
Temperature, K	Activity coefficient of 1,4-dimethylbenzene	uncertainty
303.15	14.22	1.228
313.15	11.5	0.993
323.15	9.645	0.833
333.15	8.414	0.726
343.15	7.367	0.636
353.15	6.576	0.567
363.15	5.98	0.516
