Measured thermophysical data. Solubility of N-Hydroxyphthalimide in Binary Acetic Acid + Water Solvent Mixtures at (293.2 to 363.2) K
Source: J. Chem. Eng. Data, 2007, 10.1021/je600579s
Compound 1: N-hydroxyphthalimide, C8H5NO3, InChI=1S/C8H5NO3/c10-7-5-3-1-2-4-6(5)8(11)9(7)12/h1-4,12H
Compound 2: acetic acid, C2H4O2, InChI=1S/C2H4O2/c1-2(3)4/h1H3,(H,3,4)
Compound 3: water, H2O, InChI=1S/H2O/h1H2

System: acetic acid + N-hydroxyphthalimide; phases: Liquid, Crystal
Fixed: Pressure, kPa = 101
Property: Mole fraction of N-hydroxyphthalimide (Liquid); method: Chromatography
Temperature, K	Mole fraction of N-hydroxyphthalimide	uncertainty
293.2	0.00298	0.00012
303.2	0.00394	0.00016
313.2	0.00504	0.00021
323.2	0.00658	0.00027
333.2	0.00816	0.00033
343.2	0.0103	0.00042
353.2	0.0127	0.00052
363.2	0.0155	0.00063

System: acetic acid + N-hydroxyphthalimide + water; phases: Liquid, Crystal
Fixed: Pressure, kPa = 101
Property: Mole fraction of N-hydroxyphthalimide (Liquid); method: Chromatography
Temperature, K	Solvent: Mole fraction of water	Mole fraction of N-hydroxyphthalimide	uncertainty
293.2	0	0.00298	0.00012
293.2	0.1493	0.00282	0.00012
293.2	0.2703	0.00279	0.00012
293.2	0.4545	0.00275	0.00012
293.2	0.5882	0.00305	0.00013
303.2	0	0.00394	0.00016
303.2	0.1493	0.00387	0.00016
303.2	0.2703	0.00398	0.00016
303.2	0.4545	0.00407	0.00017
303.2	0.5882	0.00466	0.0002
313.2	0	0.00504	0.00021
313.2	0.1493	0.0051	0.00021
313.2	0.2703	0.00553	0.00023
313.2	0.4545	0.00603	0.00025
313.2	0.5882	0.00676	0.00028
323.2	0	0.00658	0.00027
323.2	0.1493	0.00681	0.00028
323.2	0.2703	0.00754	0.00031
323.2	0.4545	0.00847	0.00035
323.2	0.5882	0.00979	0.00041
333.2	0	0.00816	0.00033
333.2	0.1493	0.00911	0.00037
333.2	0.2703	0.01	0.00041
333.2	0.4545	0.012	0.0005
333.2	0.5882	0.0138	0.00058
343.2	0	0.0103	0.00042
343.2	0.1493	0.0116	0.00047
343.2	0.2703	0.0136	0.00056
343.2	0.4545	0.0162	0.00067
343.2	0.5882	0.0191	0.0008
353.2	0	0.0127	0.00052
353.2	0.1493	0.015	0.00061
353.2	0.2703	0.0177	0.00073
353.2	0.4545	0.0221	0.00091
353.2	0.5882	0.0258	0.00108
363.2	0	0.0155	0.00063
363.2	0.1493	0.0187	0.00076
363.2	0.2703	0.0225	0.00092
363.2	0.4545	0.0287	0.00118
363.2	0.5882	0.0343	0.00143
