Measured thermophysical data. Isobaric Vapor-Liquid Equilibria for Methyl Acetate + Methanol + 1-Ethyl-3-methylimidazolium Trifluoromethanesulfonate at 100 kPa
Source: J. Chem. Eng. Data, 2007, 10.1021/je600518s
Compound 1: methyl ethanoate, C3H6O2, InChI=1S/C3H6O2/c1-3(4)5-2/h1-2H3
Compound 2: methanol, CH4O, InChI=1S/CH4O/c1-2/h2H,1H3
Compound 3: 1-ethyl-3-methylimidazolium trifluoromethanesulfonate, C7H11F3N2O3S, InChI=1S/C6H11N2.CHF3O3S/c1-3-8-5-4-7(2)6-8;2-1(3,4)8(5,6)7/h4-6H,3H2,1-2H3;(H,5,6,7)/q+1;/p-1

System: methyl ethanoate; phases: Liquid, Gas
Property: Vapor or sublimation pressure, kPa (Liquid); method: Ebulliometric method (Recirculating still)
Temperature, K	Vapor or sublimation pressure, kPa	uncertainty
304	37.143	0.19
306	40.4	0.206
308	43.887	0.224
310	47.616	0.243
312	51.6	0.263
314	55.851	0.284
316	60.382	0.307
318	65.206	0.332
320	70.339	0.358
322	75.793	0.385
324	81.583	0.414
326	87.725	0.446
328	94.233	0.478
330	101.123	0.513
332	108.411	0.55
334	116.114	0.589
336	124.247	0.63
338	132.829	0.673

System: methanol + methyl ethanoate; phases: Liquid, Gas
Fixed: Pressure, kPa = 100
Property: Boiling temperature at pressure P, K (Liquid); method: EBULLIO:UFactor:2
Mole fraction of methyl ethanoate	Boiling temperature at pressure P, K	uncertainty
0	337.41	0.17
0.033	335.44	0.2
0.069	333.7	0.19
0.109	332.14	0.18
0.15	330.89	0.18
0.193	329.95	0.18
0.235	329.18	0.17
0.278	328.53	0.17
0.321	327.99	0.17
0.368	327.55	0.17
0.412	327.2	0.17
0.443	326.92	0.17
0.486	326.71	0.17
0.534	326.54	0.17
0.583	326.42	0.17
0.624	326.35	0.17
0.655	326.32	0.17
0.683	326.35	0.17
0.72	326.39	0.17
0.749	326.46	0.17
0.768	326.54	0.17
0.788	326.63	0.17
0.808	326.74	0.17
0.829	326.89	0.17
0.852	327.07	0.17
0.875	327.28	0.17
0.921	327.9	0.17
0.967	328.82	0.18
1	329.72	0.17

System: methanol + methyl ethanoate; phases: Gas, Liquid
Fixed: Pressure, kPa = 100
Property: Mole fraction of methyl ethanoate (Gas); method: CHROM:UFactor:4
Mole fraction of methyl ethanoate	Mole fraction of methyl ethanoate	uncertainty
0	0	0.001
0.033	0.1	0.007
0.069	0.192	0.008
0.109	0.269	0.011
0.15	0.328	0.012
0.193	0.372	0.014
0.235	0.413	0.015
0.278	0.447	0.017
0.321	0.485	0.018
0.368	0.513	0.018
0.412	0.537	0.017
0.443	0.556	0.017
0.486	0.575	0.016
0.534	0.599	0.015
0.583	0.62	0.014
0.624	0.642	0.013
0.655	0.656	0.013
0.683	0.676	0.012
0.72	0.695	0.011
0.749	0.713	0.011
0.768	0.727	0.01
0.788	0.743	0.01
0.808	0.757	0.009
0.829	0.775	0.009
0.852	0.796	0.008
0.875	0.818	0.007
0.921	0.871	0.006
0.967	0.94	0.004
1	1	0.001

System: methyl ethanoate + 1-ethyl-3-methylimidazolium trifluoromethanesulfonate; phases: Liquid, Gas
Fixed: Pressure, kPa = 100
Property: Boiling temperature at pressure P, K (Liquid); method: EBULLIO:UFactor:2
Mole fraction of 1-ethyl-3-methylimidazolium trifluoromethanesulfonate	Boiling temperature at pressure P, K	uncertainty
0	329.72	0.17
0.0193	329.89	0.18
0.0374	329.94	0.2
0.0591	330	0.19
0.0846	330.11	0.19
0.1105	330.23	0.21
0.1346	330.4	0.24
0.1577	330.61	0.27
0.1779	330.84	0.31
0.1959	331.07	0.32
0.2107	331.3	0.35
0.2289	331.58	0.4
0.2397	331.78	0.41
0.2555	332.14	0.47
0.2681	332.36	0.49
0.2815	332.72	0.5
0.2982	333.11	0.57
0.3082	333.38	0.55
0.3204	333.79	0.61
0.3344	334.09	0.63
0.3474	334.55	0.65
0.3634	335.04	0.75
0.3767	335.55	0.76
0.3933	336.25	0.76
0.4096	336.85	0.77
0.4258	337.35	0.7
0.4307	337.55	0.69
0.4318	337.55	0.65

System: methanol + methyl ethanoate + 1-ethyl-3-methylimidazolium trifluoromethanesulfonate; phases: Liquid, Gas
Fixed: Pressure, kPa = 100
Property: Boiling temperature at pressure P, K (Liquid); method: EBULLIO:UFactor:2
Mole fraction of 1-ethyl-3-methylimidazolium trifluoromethanesulfonate	Solvent: Mole fraction of methyl ethanoate	Boiling temperature at pressure P, K	uncertainty
0.051	0	338.65	0.19
0.052	0.021	337.45	0.22
0.052	0.055	335.55	0.21
0.052	0.103	333.96	0.19
0.053	0.166	332.01	0.19
0.055	0.894	328.43	0.18
0.055	0.941	329.02	0.18
0.055	0.979	329.62	0.18
0.055	1	330.01	0.17
0.056	0.786	327.62	0.18
0.056	0.838	327.93	0.18
0.057	0.038	336.35	0.21
0.057	0.092	334.39	0.2
0.057	0.733	327.43	0.18
0.058	0.672	327.31	0.18
0.059	0.313	329.14	0.18
0.059	0.396	328.3	0.18
0.059	0.454	327.85	0.18
0.059	0.535	327.52	0.18
0.059	0.605	327.32	0.18
0.106	0.871	328.97	0.18
0.106	0.939	329.52	0.18
0.107	0	340.66	0.19
0.108	0.017	339.63	0.23
0.109	0.037	338.57	0.21
0.109	0.067	337.31	0.21
0.109	0.102	335.89	0.2
0.11	0.152	334.22	0.2
0.11	0.805	328.63	0.18
0.111	0.207	332.8	0.19
0.111	1	330.23	0.17
0.112	0.261	331.69	0.19
0.112	0.322	330.66	0.19
0.112	0.56	328.58	0.18
0.112	0.679	328.38	0.18
0.113	0.377	329.95	0.19
0.113	0.437	329.42	0.18
0.113	0.738	328.44	0.18
0.114	0.619	328.45	0.18
0.115	0.494	328.93	0.18
0.141	0	341.79	0.19
0.141	0.017	340.83	0.22
0.142	0.039	339.7	0.21
0.142	0.07	338.31	0.21
0.143	0.108	336.87	0.2
0.143	0.16	335.21	0.2
0.144	0.221	333.66	0.2
0.144	0.847	329.42	0.18
0.144	0.903	329.73	0.18
0.145	0.287	332.3	0.2
0.146	0.358	331.3	0.19
0.146	0.437	330.41	0.19
0.146	0.956	330.15	0.18
0.146	1	330.51	0.18
0.147	0.503	329.83	0.19
0.147	0.569	329.47	0.18
0.147	0.688	329.23	0.18
0.147	0.741	329.19	0.18
0.147	0.794	329.29	0.18
0.148	0.629	329.27	0.18
0.17	0.863	329.95	0.18
0.172	0	343.03	0.19
0.173	0.02	341.88	0.22
0.173	0.915	330.23	0.18
0.174	0.807	329.85	0.18
0.174	0.963	330.52	0.18
0.176	0.751	329.87	0.18
0.177	0.045	340.81	0.22
0.177	0.077	339.37	0.21
0.178	0.119	337.83	0.21
0.178	1	330.84	0.18
0.179	0.179	336.05	0.2
0.179	0.695	329.95	0.18
0.18	0.245	334.3	0.2
0.18	0.312	333.21	0.2
0.18	0.507	330.9	0.19
0.18	0.636	330.13	0.19
0.181	0.572	330.42	0.19
0.182	0.378	332.19	0.2
0.182	0.439	331.48	0.19
0.233	0.02	344.23	0.22
0.234	0	345.5	0.2
0.235	0.045	343.34	0.22
0.236	0.079	342	0.21
0.238	0.123	340.4	0.21
0.239	0.866	331.53	0.18
0.24	0.916	331.62	0.18
0.24	0.962	331.73	0.18
0.24	1	331.78	0.18
0.243	0.178	338.8	0.2
0.243	0.247	337.22	0.2
0.243	0.382	335	0.2
0.243	0.81	331.66	0.18
0.246	0.756	331.8	0.19
0.248	0.442	334.1	0.2
0.248	0.64	332.3	0.19
0.249	0.307	336.25	0.2
0.249	0.7	332.1	0.19
0.25	0.507	333.4	0.19
0.251	0.572	332.85	0.19
0.289	0	348.35	0.2
0.295	0.018	347.57	0.23
0.296	0.903	333.17	0.18
0.297	0.043	346.36	0.22
0.298	0.119	343.53	0.21
0.298	0.957	333.13	0.18
0.298	1	333.11	0.18
0.3	0.847	333.32	0.18
0.302	0.074	345.02	0.2
0.303	0.176	341.87	0.21
0.304	0.234	340.4	0.21
0.306	0.782	333.83	0.19
0.307	0.29	339.22	0.2
0.308	0.721	334.23	0.19
0.309	0.352	338.11	0.2
0.311	0.472	336.64	0.2
0.311	0.659	334.87	0.2
0.313	0.408	337.56	0.2
0.315	0.598	335.44	0.19
0.317	0.532	335.9	0.19

System: methanol + methyl ethanoate + 1-ethyl-3-methylimidazolium trifluoromethanesulfonate; phases: Gas, Liquid
Fixed: Pressure, kPa = 100
Property: Mole fraction of methyl ethanoate (Gas); method: CHROM:UFactor:4
Mole fraction of 1-ethyl-3-methylimidazolium trifluoromethanesulfonate	Solvent: Mole fraction of methyl ethanoate	Mole fraction of methyl ethanoate	uncertainty
0.051	0	0	0.001
0.052	0.021	0.067	0.006
0.052	0.055	0.155	0.007
0.052	0.103	0.253	0.011
0.053	0.166	0.346	0.013
0.055	0.894	0.879	0.005
0.055	0.941	0.928	0.004
0.055	0.979	0.973	0.003
0.055	1	1	0.001
0.056	0.786	0.788	0.008
0.056	0.838	0.829	0.007
0.057	0.038	0.113	0.006
0.057	0.092	0.234	0.01
0.057	0.733	0.752	0.01
0.058	0.672	0.713	0.011
0.059	0.313	0.477	0.018
0.059	0.396	0.548	0.017
0.059	0.454	0.592	0.016
0.059	0.535	0.633	0.014
0.059	0.605	0.674	0.013
0.106	0.871	0.885	0.005
0.106	0.939	0.942	0.003
0.107	0	0	0.001
0.108	0.017	0.053	0.006
0.109	0.037	0.106	0.006
0.109	0.067	0.171	0.008
0.109	0.102	0.241	0.01
0.11	0.152	0.32	0.012
0.11	0.805	0.834	0.007
0.111	0.207	0.392	0.015
0.111	1	1	0.001
0.112	0.261	0.449	0.017
0.112	0.322	0.491	0.019
0.112	0.56	0.67	0.013
0.112	0.679	0.748	0.01
0.113	0.377	0.545	0.017
0.113	0.437	0.586	0.016
0.113	0.738	0.786	0.008
0.114	0.619	0.709	0.011
0.115	0.494	0.629	0.014
0.141	0	0	0.001
0.141	0.017	0.05	0.006
0.142	0.039	0.107	0.006
0.142	0.07	0.175	0.008
0.143	0.108	0.248	0.01
0.143	0.16	0.328	0.013
0.144	0.221	0.401	0.015
0.144	0.847	0.873	0.005
0.144	0.903	0.918	0.004
0.145	0.287	0.466	0.018
0.146	0.358	0.533	0.018
0.146	0.437	0.595	0.016
0.146	0.956	0.96	0.003
0.146	1	1	0.001
0.147	0.503	0.641	0.014
0.147	0.569	0.686	0.012
0.147	0.688	0.764	0.009
0.147	0.741	0.798	0.008
0.147	0.794	0.837	0.007
0.148	0.629	0.726	0.011
0.17	0.863	0.892	0.005
0.172	0	0	0.001
0.173	0.02	0.057	0.006
0.173	0.915	0.931	0.004
0.174	0.807	0.853	0.006
0.174	0.963	0.967	0.003
0.176	0.751	0.815	0.007
0.177	0.045	0.116	0.007
0.177	0.077	0.195	0.008
0.178	0.119	0.266	0.01
0.178	1	1	0.001
0.179	0.179	0.355	0.014
0.179	0.695	0.779	0.009
0.18	0.245	0.435	0.017
0.18	0.312	0.494	0.019
0.18	0.507	0.651	0.013
0.18	0.636	0.739	0.01
0.181	0.572	0.697	0.012
0.182	0.378	0.556	0.017
0.182	0.439	0.605	0.015
0.233	0.02	0.056	0.006
0.234	0	0	0.001
0.235	0.045	0.116	0.007
0.236	0.079	0.186	0.008
0.238	0.123	0.264	0.01
0.239	0.866	0.907	0.004
0.24	0.916	0.942	0.003
0.24	0.962	0.973	0.003
0.24	1	1	0.001
0.243	0.178	0.355	0.014
0.243	0.247	0.43	0.016
0.243	0.382	0.561	0.017
0.243	0.81	0.872	0.005
0.246	0.756	0.834	0.007
0.248	0.442	0.614	0.015
0.248	0.64	0.76	0.009
0.249	0.307	0.493	0.019
0.249	0.7	0.801	0.008
0.25	0.507	0.667	0.013
0.251	0.572	0.712	0.011
0.289	0	0	0.001
0.295	0.018	0.05	0.006
0.296	0.903	0.939	0.003
0.297	0.043	0.11	0.006
0.298	0.119	0.254	0.01
0.298	0.957	0.972	0.003
0.298	1	1	0.001
0.3	0.847	0.905	0.004
0.302	0.074	0.183	0.008
0.303	0.176	0.351	0.013
0.304	0.234	0.422	0.016
0.306	0.782	0.865	0.005
0.307	0.29	0.484	0.018
0.308	0.721	0.825	0.007
0.309	0.352	0.54	0.018
0.311	0.472	0.645	0.014
0.311	0.659	0.781	0.009
0.313	0.408	0.593	0.016
0.315	0.598	0.741	0.01
0.317	0.532	0.697	0.012
