Measured thermophysical data. Thermal Analysis and Calorimetric Study of 4-Dimethylaminopyridine
Source: J. Chem. Eng. Data, 2007, 10.1021/je6005423
Compound 1: carbon dioxide, CO2, InChI=1S/CO2/c2-1-3
Compound 2: nitrogen, N2, InChI=1S/N2/c1-2
Compound 3: water, H2O, InChI=1S/H2O/h1H2
Compound 4: oxygen, O2, InChI=1S/O2/c1-2
Compound 5: 4-(dimethylamino)pyridine, C7H10N2, InChI=1S/C7H10N2/c1-9(2)7-3-5-8-6-4-7/h3-6H,1-2H3, purity 99%

System: 4-(dimethylamino)pyridine; phases: Crystal, Liquid, Air at 1 atmosphere
Property: Molar enthalpy of transition or fusion, kJ/mol (Crystal); method: DSC
Molar enthalpy of transition or fusion, kJ/mol	uncertainty
21.62	0.64

System: 4-(dimethylamino)pyridine; phases: Crystal, Liquid, Air at 1 atmosphere
Property: Molar enthalpy of transition or fusion, kJ/mol (Crystal); method: Adiabatic calorimetry
Molar enthalpy of transition or fusion, kJ/mol	uncertainty
21.628	0.288

System: 4-(dimethylamino)pyridine; phases: Crystal, Liquid, Air at 1 atmosphere
Property: Normal melting temperature, K (Crystal); method: DTA
Normal melting temperature, K	uncertainty
387.1	0.5

System: 4-(dimethylamino)pyridine; phases: Crystal, Liquid, Air at 1 atmosphere
Property: Normal melting temperature, K (Crystal); method: Adiabatic calorimetry
Normal melting temperature, K	uncertainty
387.094	0.039

System: 4-(dimethylamino)pyridine; phases: Crystal
Fixed: Pressure, kPa = 101.325
Property: Molar heat capacity at constant pressure, J/K/mol (Crystal); method: SMALLAD:UFactor:4
Temperature, K	Molar heat capacity at constant pressure, J/K/mol	uncertainty
80.029	64.465	1.309
83.524	66.813	1.345
86.437	69.049	1.38
89.41	71.035	1.41
92.439	72.951	1.524
95.511	74.9	1.548
98.506	76.862	1.572
101.434	78.683	1.595
104.423	80.51	1.618
107.476	82.302	1.64
110.47	83.917	1.66
113.409	85.666	1.681
116.409	87.309	1.702
119.474	89.007	1.723
122.49	90.571	1.742
125.457	92.111	1.761
128.49	93.686	1.781
131.59	95.38	1.802
134.647	96.775	1.819
137.664	98.295	1.838
140.645	99.756	1.856
143.69	101.216	1.874
146.804	102.903	1.895
149.884	104.47	1.914
152.93	105.969	1.933
155.944	107.422	1.951
158.929	108.617	1.966
161.982	109.905	1.982
165.1	111.539	2.002
168.189	113.065	2.021
171.249	114.493	2.039
174.283	115.97	2.057
177.291	117.203	2.072
180.272	118.569	2.089
183.322	120.194	2.109
186.437	121.884	2.13
189.533	123.23	2.147
192.6	124.432	2.162
195.648	125.953	2.181
198.673	127.3	2.197
201.678	128.646	2.214
204.663	130.004	2.231
207.717	131.456	2.249
210.837	133.092	2.269
213.937	134.614	2.288
217.018	135.816	2.303
220.083	139.061	2.343
223.124	141.264	2.37
226.123	143.323	2.396
229.086	145.302	2.421
232.059	146.844	2.44
235.106	149.013	2.467
238.154	150.963	2.491
241.183	152.052	2.504
244.186	153.794	2.526
247.179	155.152	2.543
250.165	156.563	2.56
253.132	157.383	2.57
256.162	158.569	2.585
259.236	159.801	2.6
262.287	161.744	2.624
265.401	163.214	2.643
268.514	165.517	2.671
271.553	167.505	2.696
274.506	168.697	2.71
277.424	169.84	2.725
280.395	171.691	2.748
283.342	173.548	2.771
286.274	175.429	2.794
289.251	177.992	2.826
292.277	179.133	2.84
295.28	180.145	2.852
298.29	181.316	2.867
301.343	183.527	2.894
304.435	184.83	2.91
307.473	185.41	2.918
310.421	187.121	2.939
313.405	188.443	2.955
316.419	189.786	2.972
319.402	191.08	2.988
322.402	192.541	3.006
325.407	193.752	3.021
328.415	194.698	3.033
331.502	195.133	3.038
334.532	196.953	3.061
337.562	198.328	3.078
340.666	200.842	3.109
342.968	199.879	3.097
343.661	201.985	3.123
343.856	200.316	3.102
345.557	201.092	3.112
346.455	202.231	3.126
346.698	203.24	3.139
348.77	203.519	3.142
349.624	204.759	3.157
349.67	205.226	3.163
351.862	205.789	3.17
352.626	206.7	3.181
352.695	207.191	3.188
354.939	207.376	3.19
355.716	208.458	3.203
355.822	209.438	3.215
358.069	209.19	3.212
358.459	210.775	3.232
359.14	211.212	3.237
361.258	211.54	3.241
361.641	213.949	3.271
362.405	212.777	3.257
364.461	214.961	3.284
364.969	216.447	3.302
365.519	215.575	3.291
367.638	216.473	3.303
368.271	219.209	3.337
368.629	217.484	3.315
370.811	219.174	3.336
371.065	221.32	3.363
371.592	220.81	3.356
373.975	222.943	3.383
374.278	223.048	3.384
374.544	223.681	3.392
377.121	225.02	3.409
377.356	225.003	3.408
377.659	225.684	3.417
380.176	228.35	3.45
380.23	226.873	3.432
380.768	227.732	3.442
383.329	231.813	3.493

System: 4-(dimethylamino)pyridine; phases: Liquid
Fixed: Pressure, kPa = 101.325
Property: Molar heat capacity at constant pressure, J/K/mol (Liquid); method: Small (less than 1 g) adiabatic calorimetry
Temperature, K	Molar heat capacity at constant pressure, J/K/mol	uncertainty
388.402	231.368	1.601
389.728	233.891	1.619
389.989	232.725	1.609
390.881	233.985	1.617
392.949	234.741	1.623
393.172	234.284	1.62
393.331	235.405	1.633
395.774	236.277	1.634
396.074	235.35	1.627
396.353	235.965	1.631
398.22	237.665	1.642
399.184	236.108	1.632
399.522	236.693	1.636
402.293	237.054	1.638
402.678	237.165	1.638

Reaction: -1 4-(dimethylamino)pyridine + 7 carbon dioxide + 1 nitrogen + 5 water + -9.5 oxygen
Property: Molar internal energy of reaction at constant volume, kJ/mol
-4232.5
