Measured thermophysical data. Density, Viscosity, and Vapor Pressure of Dichlorophenylphosphine Sulfide
Source: J. Chem. Eng. Data, 2007, 10.1021/je600566v
Compound 1: benzene phosphorus thiodichloride, C6H5Cl2PS, InChI=1S/C6H5Cl2PS/c7-9(8,10)6-4-2-1-3-5-6/h1-5H, purity 99.9%

System: benzene phosphorus thiodichloride; phases: Liquid
Fixed: Pressure, kPa = 101.325
Property: Viscosity, Pa*s (Liquid); method: CAPTUB:UFactor:4
Temperature, K	Viscosity, Pa*s	uncertainty
303.16	0.003634	8.2e-05
313.12	0.002957	6.7e-05
323.25	0.002439	5.6e-05
332.85	0.002082	4.8e-05
343	0.001791	4.2e-05
353.19	0.001556	3.7e-05
363.25	0.001356	3.2e-05
374.75	0.001199	2.9e-05
383.2	0.001082	2.6e-05
393.26	0.000972	2.4e-05
403.85	0.000872	2.2e-05
412.65	0.000798	2e-05
423.4	0.000729	1.9e-05

System: benzene phosphorus thiodichloride; phases: Liquid, Gas
Property: Vapor or sublimation pressure, kPa (Liquid); method: CCELL:UFactor:12
Temperature, K	Vapor or sublimation pressure, kPa	uncertainty
417.8	2.77	0.15
420	3.15	0.15
423.1	3.47	0.16
425.1	3.9	0.17
427.9	4.26	0.17
430.4	4.65	0.18
433.1	5.21	0.2
435.4	5.97	0.21
438.1	6.45	0.22
440.8	7.34	0.24
443.3	8.1	0.25
445.9	8.95	0.27
448.1	9.77	0.28

System: benzene phosphorus thiodichloride; phases: Liquid
Fixed: Pressure, kPa = 101.325
Property: Mass density, kg/m3 (Liquid); method: PYCNOM:UFactor:32
Temperature, K	Mass density, kg/m3	uncertainty
303.16	1381.8	12
313.12	1374.2	12.6
323.25	1359.3	13.3
332.85	1356.5	13.9
343	1344.3	14.6
353.19	1329.1	15.2
363.25	1308.4	15.7
374.75	1284.1	16.3
383.2	1276	16.9
393.26	1260.9	17.5
403.85	1237	18
412.65	1232.4	18.6
423.4	1210.6	19.2
