Measured thermophysical data. Solubility of Azelaic Acid in Supercritical Carbon Dioxide
Source: J. Chem. Eng. Data, 2007, 10.1021/je600572z
Compound 1: 1,9-nonanedioic acid, C9H16O4, InChI=1S/C9H16O4/c10-8(11)6-4-2-1-3-5-7-9(12)13/h1-7H2,(H,10,11)(H,12,13)
Compound 2: carbon dioxide, CO2, InChI=1S/CO2/c2-1-3

System: 1,9-nonanedioic acid + carbon dioxide; phases: Fluid (supercritical or subcritical phases), Crystal
Property: Mole fraction of 1,9-nonanedioic acid (Fluid (supercritical or subcritical phases)); method: Graviometric
Temperature, K	Pressure, kPa	Mole fraction of 1,9-nonanedioic acid	uncertainty
313.15	10000	1.47e-06	1.8e-07
313.15	13300	1.96e-06	1.88e-06
313.15	16700	3.44e-06	2.42e-06
313.15	20000	1.69e-06	1.22e-06
313.15	23300	3.57e-06	3.57e-06
313.15	26700	3.33e-06	3.33e-06
313.15	30000	7.17e-06	7.17e-06
333.15	10000	4.2e-07	2.6e-07
333.15	13300	1.72e-06	3.2e-07
333.15	16700	2.8e-06	3.4e-07
333.15	20000	3.92e-06	5.2e-07
333.15	23300	4.84e-06	1.84e-06
333.15	26700	1.012e-05	7.78e-06
333.15	30000	8.37e-06	1.54e-06
