Measured thermophysical data. Isochoric PVTx Measurements for the Carbon Dioxide + 1,1-Difluoroethane Binary System
Source: J. Chem. Eng. Data, 2007, 10.1021/je600583u
Compound 1: carbon dioxide, CO2, InChI=1S/CO2/c2-1-3, purity 99.99%
Compound 2: 1,1-difluoroethane, C2H4F2, InChI=1S/C2H4F2/c1-2(3)4/h2H,1H3, purity 99.94%

System: 1,1-difluoroethane + carbon dioxide; phases: Fluid (supercritical or subcritical phases)
Property: Molar volume, m3/mol (Fluid (supercritical or subcritical phases)); method: ISOCHOR
Mole fraction of carbon dioxide	Temperature, K	Pressure, kPa	Molar volume, m3/mol	uncertainty
0.117	303.06	589	0.003796	8e-06
0.117	308.03	602	0.003797	8e-06
0.117	313.02	615	0.003798	8e-06
0.117	318.01	627	0.003799	8e-06
0.117	323	640	0.0038	8e-06
0.117	327.98	652	0.003801	8e-06
0.117	332.97	664	0.003801	8e-06
0.117	337.96	677	0.003802	8e-06
0.117	342.95	689	0.003803	8e-06
0.25	293.09	577	0.003751	8e-06
0.25	298.07	590	0.003752	8e-06
0.25	303.05	602	0.003753	8e-06
0.25	308.04	615	0.003753	8e-06
0.25	313.03	627	0.003754	8e-06
0.25	318.02	640	0.003755	8e-06
0.25	323	652	0.003756	8e-06
0.25	327.99	664	0.003757	8e-06
0.25	332.98	676	0.003758	8e-06
0.25	337.96	688	0.003758	8e-06
0.25	342.95	700	0.003759	8e-06
0.389	293.09	699	0.00308	6e-06
0.389	298.07	715	0.003081	6e-06
0.389	303.06	731	0.003081	6e-06
0.389	308.04	746	0.003082	6e-06
0.389	313.03	761	0.003083	6e-06
0.389	318.01	776	0.003084	6e-06
0.389	323	791	0.003084	6e-06
0.389	327.99	806	0.003085	6e-06
0.389	332.97	820	0.003086	6e-06
0.389	337.95	835	0.003086	6e-06
0.389	342.94	850	0.003087	6e-06
0.503	293.09	930	0.002291	5e-06
0.503	298.07	952	0.002292	5e-06
0.503	303.05	973	0.002292	5e-06
0.503	308.04	994	0.002293	5e-06
0.503	313.03	1015	0.002293	5e-06
0.503	318.01	1035	0.002294	5e-06
0.503	323	1056	0.002294	5e-06
0.503	327.98	1076	0.002295	5e-06
0.503	332.97	1096	0.002295	5e-06
0.503	337.95	1116	0.002296	5e-06
0.503	342.94	1136	0.002296	5e-06
0.631	293.1	1257	0.001641	3e-06
0.631	298.09	1287	0.001641	3e-06
0.631	303.07	1317	0.001642	3e-06
0.631	308.05	1346	0.001642	3e-06
0.631	313.04	1375	0.001642	3e-06
0.631	318.03	1404	0.001643	3e-06
0.631	323.01	1433	0.001643	3e-06
0.631	328	1461	0.001643	3e-06
0.631	332.98	1489	0.001644	3e-06
0.631	337.97	1517	0.001644	3e-06
0.631	342.96	1545	0.001645	3e-06
0.685	293.09	1290	0.001629	3e-06
0.685	298.08	1320	0.00163	3e-06
0.685	303.06	1350	0.00163	3e-06
0.685	308.04	1380	0.00163	3e-06
0.685	313.03	1409	0.001631	3e-06
0.685	318.01	1438	0.001631	3e-06
0.685	323	1467	0.001632	3e-06
0.685	327.99	1496	0.001632	3e-06
0.685	332.97	1524	0.001632	3e-06
0.685	337.96	1553	0.001633	3e-06
0.685	342.94	1580	0.001633	3e-06
0.731	293.09	1572	0.001321	3e-06
0.731	298.07	1610	0.001321	3e-06
0.731	303.06	1648	0.001321	3e-06
0.731	308.05	1685	0.001322	3e-06
0.731	313.03	1722	0.001322	3e-06
0.731	318.02	1758	0.001322	3e-06
0.731	323	1794	0.001322	3e-06
0.731	327.98	1830	0.001323	3e-06
0.731	332.97	1866	0.001323	3e-06
0.731	337.96	1901	0.001323	3e-06
0.731	342.94	1936	0.001324	3e-06
0.873	293.08	3005	0.000595	1e-06
0.873	298.07	3114	0.000595	1e-06
0.873	303.04	3203	0.000595	1e-06
0.873	308.03	3292	0.000595	1e-06
0.873	313.02	3380	0.000595	1e-06
0.873	318	3467	0.000596	1e-06
0.873	323	3554	0.000596	1e-06
0.873	327.97	3638	0.000596	1e-06
0.873	332.96	3723	0.000596	1e-06
0.873	337.94	3807	0.000596	1e-06
0.873	342.93	3890	0.000596	1e-06
