Measured thermophysical data. Thermochemical Parameters of the Chloronitrophenol Isomers: A Combined Experimental and Theoretical Investigation
Source: J. Chem. Eng. Data, 2007, 10.1021/je6005218
Compound 1: hydrogen chloride, ClH, InChI=1S/ClH/h1H
Compound 2: carbon dioxide, CO2, InChI=1S/CO2/c2-1-3
Compound 3: nitrogen, N2, InChI=1S/N2/c1-2
Compound 4: water, H2O, InChI=1S/H2O/h1H2
Compound 5: oxygen, O2, InChI=1S/O2/c1-2
Compound 6: 2-chloro-4-nitrophenol, C6H4ClNO3, InChI=1S/C6H4ClNO3/c7-5-3-4(8(10)11)1-2-6(5)9/h1-3,9H, purity 97%
Compound 7: phenol, 4-chloro-2-nitro-, C6H4ClNO3, InChI=1S/C6H4ClNO3/c7-4-1-2-6(9)5(3-4)8(10)11/h1-3,9H, purity 98%
Compound 8: 4-chloro-3-nitrophenol, C6H4ClNO3, InChI=1S/C6H4ClNO3/c7-5-2-1-4(9)3-6(5)8(10)11/h1-3,9H, purity 98%

System: 2-chloro-4-nitrophenol; phases: Crystal, Liquid, Gas
Property: Molar enthalpy of transition or fusion, kJ/mol (Crystal); method: DSC
Molar enthalpy of transition or fusion, kJ/mol	uncertainty
20.88	0.53

System: 2-chloro-4-nitrophenol; phases: Crystal, Liquid, Air at 1 atmosphere
Property: Normal melting temperature, K (Crystal); method: DTA
Normal melting temperature, K	uncertainty
380.68	0.4

System: 2-chloro-4-nitrophenol; phases: Gas
Property: Molar enthalpy, kJ/mol (Gas); method: vacuum sublimation drop microcalorimetry
Temperature, K	Pressure, kPa	Molar enthalpy, kJ/mol	uncertainty
385	100	113.6	4.2

System: phenol, 4-chloro-2-nitro-; phases: Crystal, Liquid, Gas
Property: Molar enthalpy of transition or fusion, kJ/mol (Crystal); method: DSC
Molar enthalpy of transition or fusion, kJ/mol	uncertainty
22.69	0.54

System: phenol, 4-chloro-2-nitro-; phases: Crystal, Liquid, Air at 1 atmosphere
Property: Normal melting temperature, K (Crystal); method: DTA
Normal melting temperature, K	uncertainty
360.33	0.39

System: phenol, 4-chloro-2-nitro-; phases: Gas
Property: Molar enthalpy, kJ/mol (Gas); method: vacuum sublimation drop microcalorimetry
Temperature, K	Pressure, kPa	Molar enthalpy, kJ/mol	uncertainty
385	100	102	1.8

System: 4-chloro-3-nitrophenol; phases: Crystal, Liquid, Gas
Property: Molar enthalpy of transition or fusion, kJ/mol (Crystal); method: DSC
Molar enthalpy of transition or fusion, kJ/mol	uncertainty
25.97	0.58

System: 4-chloro-3-nitrophenol; phases: Crystal, Liquid, Air at 1 atmosphere
Property: Normal melting temperature, K (Crystal); method: DTA
Normal melting temperature, K	uncertainty
399.44	0.4

System: 4-chloro-3-nitrophenol; phases: Gas
Property: Molar enthalpy, kJ/mol (Gas); method: vacuum sublimation drop microcalorimetry
Temperature, K	Pressure, kPa	Molar enthalpy, kJ/mol	uncertainty
385	100	125.6	6.6

Reaction: -1 phenol, 4-chloro-2-nitro- + 1 hydrogen chloride + 6 carbon dioxide + .5 nitrogen + 1.5 water + -5.25 oxygen
Property: Specific internal energy of reaction at constant volume, J/g
-15687.3

Reaction: -1 2-chloro-4-nitrophenol + 1 hydrogen chloride + 6 carbon dioxide + .5 nitrogen + 1.5 water + -5.25 oxygen
Property: Specific internal energy of reaction at constant volume, J/g
-15680.4

Reaction: -1 4-chloro-3-nitrophenol + 1 hydrogen chloride + 6 carbon dioxide + .5 nitrogen + 1.5 water + -5.25 oxygen
Property: Specific internal energy of reaction at constant volume, J/g
-15785
