Measured thermophysical data. Molar Heat Capacities of Aminouracils by Differential Scanning Calorimetry
Source: J. Chem. Eng. Data, 2007, 10.1021/je6005168
Compound 1: 2,4(1H,3H)-pyrimidinedione, 5-amino-, C4H5N3O2, InChI=1S/C4H5N3O2/c5-2-1-6-4(9)7-3(2)8/h1H,5H2,(H2,6,7,8,9)
Compound 2: 6-aminouracil, C4H5N3O2, InChI=1S/C4H5N3O2/c5-2-1-3(8)7-4(9)6-2/h1H,(H4,5,6,7,8,9)
Compound 3: 6-amino-1,3-dimethyluracil, C6H9N3O2, InChI=1S/C6H9N3O2/c1-8-4(7)3-5(10)9(2)6(8)11/h3H,7H2,1-2H3
Compound 4: 6-amino-1-methyluracil, C5H7N3O2, InChI=1S/C5H7N3O2/c1-8-3(6)2-4(9)7-5(8)10/h2H,6H2,1H3,(H,7,9,10)

System: 2,4(1H,3H)-pyrimidinedione, 5-amino-; phases: Crystal
Fixed: Pressure, kPa = 101.325
Property: Molar heat capacity at constant pressure, J/K/mol (Crystal); method: Small sample (50 mg) DSC
Temperature, K	Molar heat capacity at constant pressure, J/K/mol	uncertainty
298.15	145	2.9
303.15	145.5	2.9
308.15	146.2	2.9
313.15	147	2.9
318.15	148	3
323.15	148.4	3
328.15	149.1	3
333.15	150	3
338.15	150.6	3
343.15	151.3	3

System: 6-aminouracil; phases: Crystal
Fixed: Pressure, kPa = 101.325
Property: Molar heat capacity at constant pressure, J/K/mol (Crystal); method: Small sample (50 mg) DSC
Temperature, K	Molar heat capacity at constant pressure, J/K/mol	uncertainty
298.15	147	2.9
303.15	147.6	3
308.15	148.2	3
313.15	149	3
318.15	149.6	3
323.15	150.3	3
328.15	151	3
333.15	151.6	3
338.15	152.3	3
343.15	153	3.1

System: 6-amino-1,3-dimethyluracil; phases: Crystal
Fixed: Pressure, kPa = 101.325
Property: Molar heat capacity at constant pressure, J/K/mol (Crystal); method: Small sample (50 mg) DSC
Temperature, K	Molar heat capacity at constant pressure, J/K/mol	uncertainty
298.15	189	3.8
303.15	191	3.8
308.15	193.1	3.9
313.15	195.2	3.9
318.15	197.3	3.9
323.15	199.5	4
328.15	201.6	4
333.15	204	4.1
338.15	206	4.1
343.15	208	4.2

System: 6-amino-1-methyluracil; phases: Crystal
Fixed: Pressure, kPa = 101.325
Property: Molar heat capacity at constant pressure, J/K/mol (Crystal); method: Small sample (50 mg) DSC
Temperature, K	Molar heat capacity at constant pressure, J/K/mol	uncertainty
298.15	166.2	3.3
303.15	167	3.3
308.15	168	3.4
313.15	168.5	3.4
318.15	169.2	3.4
323.15	170	3.4
328.15	171	3.4
333.15	171.4	3.4
338.15	172.2	3.4
343.15	173	3.5
