Measured thermophysical data. Molar Heat Capacities, Densities, Viscosities, and Refractive Indices of Dimethyl Sulfoxide + Tetrahydropyran and + 2-Methyltetrahydrofuran at (293.15, 303.15, and 313.15) K
Source: J. Chem. Eng. Data, 2007, 10.1021/je600557n
Compound 1: dimethyl sulfoxide, C2H6OS, InChI=1S/C2H6OS/c1-4(2)3/h1-2H3, purity 99.7%
Compound 2: tetrahydropyran, C5H10O, InChI=1S/C5H10O/c1-2-4-6-5-3-1/h1-5H2, purity 99%
Compound 3: 2-methyltetrahydrofuran, C5H10O, InChI=1S/C5H10O/c1-5-3-2-4-6-5/h5H,2-4H2,1H3, purity 99%

System: dimethyl sulfoxide; phases: Liquid
Fixed: Pressure, kPa = 101.325
Property: Molar heat capacity at constant pressure, J/K/mol (Liquid); method: Small sample (50 mg) DSC
Temperature, K	Molar heat capacity at constant pressure, J/K/mol	uncertainty
288.15	149.9	2.3
293.15	150.4	2.3
298.15	151.5	2.3
303.15	152.2	2.4
308.15	152.9	2.4
313.15	153.7	2.4
318.15	154.7	2.4
323.15	155.6	2.4

System: dimethyl sulfoxide; phases: Liquid
Fixed: Pressure, kPa = 101.325
Property: Viscosity, Pa*s (Liquid); method: CAPTUB:UFactor:2
Temperature, K	Viscosity, Pa*s	uncertainty
293.15	0.002213	3.3e-05
303.15	0.001812	2.7e-05
313.15	0.001513	2.3e-05

System: dimethyl sulfoxide; phases: Liquid
Fixed: Pressure, kPa = 101.325
Property: Refractive index (Na D-line) (Liquid); method: Standard Abbe refractometry
Temperature, K	Refractive index (Na D-line)	uncertainty
293.15	1.4815	0.0007
303.15	1.475	0.0007
313.15	1.4706	0.0006

System: dimethyl sulfoxide; phases: Liquid
Fixed: Pressure, kPa = 101.325
Property: Mass density, kg/m3 (Liquid); method: VIBTUB:UFactor:3
Temperature, K	Mass density, kg/m3	uncertainty
293.15	1100.42	0.23
303.15	1090.41	0.22
313.15	1080.26	0.21

System: tetrahydropyran; phases: Liquid
Fixed: Pressure, kPa = 101.325
Property: Molar heat capacity at constant pressure, J/K/mol (Liquid); method: Small sample (50 mg) DSC
Temperature, K	Molar heat capacity at constant pressure, J/K/mol	uncertainty
288.15	143.4	2.2
293.15	145.2	2.3
298.15	147.8	2.3
303.15	150.2	2.3
308.15	152.6	2.4
313.15	156	2.4
318.15	157.6	2.4
323.15	159.9	2.5

System: tetrahydropyran; phases: Liquid
Fixed: Pressure, kPa = 101.325
Property: Viscosity, Pa*s (Liquid); method: CAPTUB:UFactor:2
Temperature, K	Viscosity, Pa*s	uncertainty
293.15	0.000875	1.4e-05
303.15	0.000752	1.2e-05
313.15	0.000658	1.1e-05

System: tetrahydropyran; phases: Liquid
Fixed: Pressure, kPa = 101.325
Property: Refractive index (Na D-line) (Liquid); method: Standard Abbe refractometry
Temperature, K	Refractive index (Na D-line)	uncertainty
293.15	1.4235	0.0008
303.15	1.4171	0.0007
313.15	1.4119	0.0007

System: tetrahydropyran; phases: Liquid
Fixed: Pressure, kPa = 101.325
Property: Mass density, kg/m3 (Liquid); method: VIBTUB:UFactor:6
Temperature, K	Mass density, kg/m3	uncertainty
293.15	883.79	0.62
303.15	873.95	0.64
313.15	863.62	0.66

System: 2-methyltetrahydrofuran; phases: Liquid
Fixed: Pressure, kPa = 101.325
Property: Molar heat capacity at constant pressure, J/K/mol (Liquid); method: Small sample (50 mg) DSC
Temperature, K	Molar heat capacity at constant pressure, J/K/mol	uncertainty
288.15	153.5	2.4
293.15	155.3	2.4
298.15	156.9	2.4
303.15	158.7	2.5
308.15	160.2	2.5
313.15	162.1	2.5
318.15	164.2	2.5
323.15	166.2	2.6

System: 2-methyltetrahydrofuran; phases: Liquid
Fixed: Pressure, kPa = 101.325
Property: Viscosity, Pa*s (Liquid); method: CAPTUB:UFactor:2
Temperature, K	Viscosity, Pa*s	uncertainty
293.15	0.000492	8e-06
303.15	0.000443	8e-06
313.15	0.000416	7e-06

System: 2-methyltetrahydrofuran; phases: Liquid
Fixed: Pressure, kPa = 101.325
Property: Refractive index (Na D-line) (Liquid); method: Standard Abbe refractometry
Temperature, K	Refractive index (Na D-line)	uncertainty
293.15	1.4085	0.0008
303.15	1.4017	0.0007
313.15	1.3959	0.0007

System: 2-methyltetrahydrofuran; phases: Liquid
Fixed: Pressure, kPa = 101.325
Property: Mass density, kg/m3 (Liquid); method: VIBTUB:UFactor:6
Temperature, K	Mass density, kg/m3	uncertainty
293.15	853.15	0.68
303.15	842.8	0.7
313.15	832.44	0.72

System: dimethyl sulfoxide + tetrahydropyran; phases: Liquid
Fixed: Pressure, kPa = 101
Property: Molar heat capacity at constant pressure, J/K/mol (Liquid); method: Small sample (50 mg) DSC
Temperature, K	Mole fraction of dimethyl sulfoxide	Molar heat capacity at constant pressure, J/K/mol	uncertainty
293.15	0.0996	148.8	2.3
293.15	0.1317	149.7	2.3
293.15	0.2636	153	2.4
293.15	0.3636	154.6	2.4
293.15	0.4832	155.9	2.4
293.15	0.5309	156	2.4
293.15	0.5763	155.8	2.4
293.15	0.6773	155.5	2.4
293.15	0.7586	154.7	2.4
293.15	0.8412	153.7	2.4
293.15	0.9237	152	2.4
293.15	0.9579	151.4	2.3
303.15	0.0996	152.5	2.4
303.15	0.1317	153.1	2.4
303.15	0.2636	155	2.4
303.15	0.3636	156.1	2.4
303.15	0.4832	156.6	2.4
303.15	0.5309	156.8	2.4
303.15	0.5763	156.5	2.4
303.15	0.6773	156	2.4
303.15	0.7586	155.5	2.4
303.15	0.8412	154.6	2.4
303.15	0.9237	153.2	2.4
303.15	0.9579	152.9	2.4
313.15	0.0996	157.1	2.4
313.15	0.1317	157.7	2.4
313.15	0.2636	159.3	2.5
313.15	0.3636	160	2.5
313.15	0.4832	160.5	2.5
313.15	0.5309	160.3	2.5
313.15	0.5763	160.1	2.5
313.15	0.6773	159.3	2.5
313.15	0.7586	158.5	2.5
313.15	0.8412	157.3	2.4
313.15	0.9237	155.8	2.4
313.15	0.9579	155.1	2.4

System: dimethyl sulfoxide + tetrahydropyran; phases: Liquid
Fixed: Pressure, kPa = 101
Property: Viscosity, Pa*s (Liquid); method: CAPTUB:UFactor:2
Temperature, K	Mole fraction of dimethyl sulfoxide	Viscosity, Pa*s	uncertainty
293.15	0.073	0.000906	1.5e-05
293.15	0.1171	0.000931	1.5e-05
293.15	0.2176	0.001005	1.6e-05
293.15	0.3108	0.001082	1.7e-05
293.15	0.4069	0.001173	1.8e-05
293.15	0.4982	0.001274	2e-05
293.15	0.5786	0.001377	2.1e-05
293.15	0.6227	0.001433	2.2e-05
293.15	0.6527	0.001476	2.3e-05
293.15	0.7338	0.001605	2.4e-05
293.15	0.8085	0.00175	2.7e-05
293.15	0.9321	0.002022	3e-05
303.15	0.1175	0.000804	1.3e-05
303.15	0.2209	0.000865	1.4e-05
303.15	0.3113	0.000925	1.5e-05
303.15	0.411	0.001001	1.6e-05
303.15	0.4945	0.001078	1.7e-05
303.15	0.5341	0.001112	1.7e-05
303.15	0.5869	0.001168	1.8e-05
303.15	0.6597	0.00125	1.9e-05
303.15	0.7348	0.001345	2.1e-05
303.15	0.8105	0.001453	2.2e-05
303.15	0.876	0.001563	2.4e-05
303.15	0.9393	0.001679	2.5e-05
313.15	0.07165	0.000681	1.1e-05
313.15	0.1195	0.000701	1.2e-05
313.15	0.2128	0.000745	1.2e-05
313.15	0.3143	0.000803	1.3e-05
313.15	0.4102	0.000863	1.4e-05
313.15	0.4969	0.000927	1.5e-05
313.15	0.5311	0.000953	1.5e-05
313.15	0.5865	0.000997	1.6e-05
313.15	0.6595	0.001063	1.7e-05
313.15	0.7295	0.001136	1.8e-05
313.15	0.8349	0.00126	1.9e-05
313.15	0.938	0.001405	2.2e-05

System: dimethyl sulfoxide + tetrahydropyran; phases: Liquid
Fixed: Pressure, kPa = 101
Property: Refractive index (Na D-line) (Liquid); method: Standard Abbe refractometry
Temperature, K	Mole fraction of dimethyl sulfoxide	Refractive index (Na D-line)	uncertainty
293.15	0.073	1.4268	0.0007
293.15	0.1171	1.4288	0.0007
293.15	0.2176	1.4336	0.0007
293.15	0.3108	1.4383	0.0007
293.15	0.4069	1.4433	0.0007
293.15	0.4982	1.4483	0.0007
293.15	0.5786	1.4528	0.0007
293.15	0.6227	1.4554	0.0007
293.15	0.6527	1.4573	0.0007
293.15	0.7338	1.4624	0.0007
293.15	0.8085	1.4673	0.0007
293.15	0.9321	1.4761	0.0007
303.15	0.1175	1.4226	0.0007
303.15	0.2209	1.4275	0.0007
303.15	0.3113	1.4322	0.0007
303.15	0.411	1.4375	0.0007
303.15	0.4945	1.4422	0.0007
303.15	0.5341	1.4444	0.0007
303.15	0.5869	1.4477	0.0006
303.15	0.6597	1.4522	0.0006
303.15	0.7348	1.4571	0.0006
303.15	0.8105	1.4621	0.0006
303.15	0.876	1.4666	0.0006
303.15	0.9393	1.471	0.0006
313.15	0.07165	1.4152	0.0007
313.15	0.1195	1.4173	0.0007
313.15	0.2128	1.422	0.0006
313.15	0.3143	1.4272	0.0006
313.15	0.4102	1.4323	0.0006
313.15	0.4969	1.4375	0.0006
313.15	0.5311	1.4394	0.0006
313.15	0.5865	1.4429	0.0006
313.15	0.6595	1.4474	0.0006
313.15	0.7295	1.452	0.0006
313.15	0.8349	1.4592	0.0006
313.15	0.938	1.4663	0.0006

System: dimethyl sulfoxide + tetrahydropyran; phases: Liquid
Fixed: Pressure, kPa = 101
Property: Mass density, kg/m3 (Liquid); method: VIBTUB:UFactor:6
Temperature, K	Mole fraction of dimethyl sulfoxide	Mass density, kg/m3	uncertainty
293.15	0.073	895.7	0.57
293.15	0.1171	903.11	0.55
293.15	0.2176	920.63	0.49
293.15	0.3108	937.76	0.44
293.15	0.4069	956.42	0.39
293.15	0.4982	975.18	0.34
293.15	0.5786	992.6	0.29
293.15	0.6227	1002.56	0.27
293.15	0.6527	1009.49	0.28
293.15	0.7338	1028.89	0.31
293.15	0.8085	1047.69	0.34
293.15	0.9321	1080.93	0.4
303.15	0.1175	893.4	0.57
303.15	0.2209	911.49	0.51
303.15	0.3113	928.13	0.46
303.15	0.411	947.52	0.41
303.15	0.4945	964.64	0.36
303.15	0.5341	973.08	0.34
303.15	0.5869	984.64	0.3
303.15	0.6597	1001.27	0.26
303.15	0.7348	1019.24	0.29
303.15	0.8105	1038.27	0.32
303.15	0.876	1055.53	0.35
303.15	0.9393	1072.96	0.38
313.15	0.07165	875.38	0.62
313.15	0.1195	883.44	0.59
313.15	0.2128	899.76	0.54
313.15	0.3143	918.44	0.48
313.15	0.4102	937.09	0.43
313.15	0.4969	954.93	0.38
313.15	0.5311	962.23	0.36
313.15	0.5865	974.36	0.32
313.15	0.6595	991.06	0.27
313.15	0.7295	1007.8	0.26
313.15	0.8349	1034.54	0.31
313.15	0.938	1062.5	0.36

System: dimethyl sulfoxide + 2-methyltetrahydrofuran; phases: Liquid
Fixed: Pressure, kPa = 101
Property: Molar heat capacity at constant pressure, J/K/mol (Liquid); method: Small sample (50 mg) DSC
Temperature, K	Mole fraction of dimethyl sulfoxide	Molar heat capacity at constant pressure, J/K/mol	uncertainty
293.15	0.1033	155.2	2.4
293.15	0.1368	155.1	2.4
293.15	0.2714	155	2.4
293.15	0.3775	154.6	2.4
293.15	0.4881	154.2	2.4
293.15	0.5877	153.8	2.4
293.15	0.6274	153.6	2.4
293.15	0.6833	153.2	2.4
293.15	0.7593	152.9	2.4
293.15	0.8559	152	2.4
293.15	0.9343	151.2	2.3
293.15	0.9687	150.8	2.3
303.15	0.1033	158.4	2.5
303.15	0.1368	158.3	2.5
303.15	0.2714	157.7	2.4
303.15	0.3775	157.3	2.4
303.15	0.4881	156.7	2.4
303.15	0.5877	156.1	2.4
303.15	0.6274	155.8	2.4
303.15	0.6833	155.4	2.4
303.15	0.7593	154.7	2.4
303.15	0.8558	153.8	2.4
303.15	0.9343	152.9	2.4
303.15	0.9687	152.7	2.4
313.15	0.1033	161.5	2.5
313.15	0.1368	161.3	2.5
313.15	0.2714	160.6	2.5
313.15	0.3775	159.9	2.5
313.15	0.4881	158.9	2.5
313.15	0.5877	158.2	2.5
313.15	0.6274	158	2.4
313.15	0.6833	157.4	2.4
313.15	0.7593	156.7	2.4
313.15	0.8558	155.7	2.4
313.15	0.9343	154.5	2.4
313.15	0.9687	154.1	2.4

System: dimethyl sulfoxide + 2-methyltetrahydrofuran; phases: Liquid
Fixed: Pressure, kPa = 101
Property: Viscosity, Pa*s (Liquid); method: CAPTUB:UFactor:3
Temperature, K	Mole fraction of dimethyl sulfoxide	Viscosity, Pa*s	uncertainty
293.15	0.0675	0.000537	1.2e-05
293.15	0.1168	0.000561	1.2e-05
293.15	0.2208	0.000631	1.3e-05
293.15	0.3228	0.000719	1.5e-05
293.15	0.4044	0.00078	1.6e-05
293.15	0.4694	0.000876	1.8e-05
293.15	0.5058	0.000926	1.9e-05
293.15	0.5888	0.001047	2.1e-05
293.15	0.6692	0.001194	2.4e-05
293.15	0.7448	0.001354	2.6e-05
293.15	0.8192	0.00155	3e-05
293.15	0.9523	0.002004	3.8e-05
303.15	0.0609	0.000468	1.1e-05
303.15	0.1281	0.000501	1.1e-05
303.15	0.2161	0.000554	1.2e-05
303.15	0.3184	0.000628	1.3e-05
303.15	0.4156	0.00071	1.5e-05
303.15	0.5105	0.000807	1.7e-05
303.15	0.5491	0.000852	1.7e-05
303.15	0.584	0.000896	1.8e-05
303.15	0.6652	0.001013	2e-05
303.15	0.7439	0.001149	2.3e-05
303.15	0.8161	0.001286	2.5e-05
303.15	0.9427	0.001623	3.1e-05
313.15	0.0723	0.000428	1e-05
313.15	0.1209	0.000452	1e-05
313.15	0.2135	0.000497	1.1e-05
313.15	0.3285	0.000566	1.2e-05
313.15	0.4268	0.00064	1.4e-05
313.15	0.502	0.000706	1.5e-05
313.15	0.5525	0.000751	1.6e-05
313.15	0.5881	0.000786	1.6e-05
313.15	0.6613	0.000872	1.8e-05
313.15	0.7441	0.000997	2e-05
313.15	0.8488	0.001162	2.3e-05
313.15	0.9474	0.001374	2.7e-05

System: dimethyl sulfoxide + 2-methyltetrahydrofuran; phases: Liquid
Fixed: Pressure, kPa = 101
Property: Refractive index (Na D-line) (Liquid); method: Standard Abbe refractometry
Temperature, K	Mole fraction of dimethyl sulfoxide	Refractive index (Na D-line)	uncertainty
293.15	0.0675	1.4121	0.0007
293.15	0.1168	1.4152	0.0007
293.15	0.2208	1.4215	0.0007
293.15	0.3228	1.4282	0.0007
293.15	0.4044	1.4336	0.0007
293.15	0.4694	1.438	0.0007
293.15	0.5058	1.4407	0.0007
293.15	0.5888	1.4468	0.0007
293.15	0.6692	1.4527	0.0007
293.15	0.7448	1.4589	0.0006
293.15	0.8192	1.4651	0.0007
293.15	0.9523	1.477	0.0007
303.15	0.0609	1.4055	0.0007
303.15	0.1281	1.4096	0.0007
303.15	0.2161	1.4152	0.0007
303.15	0.3184	1.4216	0.0009
303.15	0.4156	1.4281	0.0007
303.15	0.5105	1.4349	0.0007
303.15	0.5491	1.4378	0.0007
303.15	0.584	1.4405	0.0007
303.15	0.6652	1.4469	0.0006
303.15	0.7439	1.4535	0.0006
303.15	0.8161	1.4595	0.0006
303.15	0.9427	1.4703	0.0006
313.15	0.0723	1.4004	0.0007
313.15	0.1209	1.4034	0.0007
313.15	0.2135	1.4093	0.0008
313.15	0.3285	1.4171	0.0008
313.15	0.4268	1.4237	0.0008
313.15	0.502	1.4291	0.0006
313.15	0.5525	1.433	0.0006
313.15	0.5881	1.4357	0.0006
313.15	0.6613	1.4415	0.0006
313.15	0.7441	1.4484	0.0006
313.15	0.8488	1.4572	0.0006
313.15	0.9474	1.4666	0.0005

System: dimethyl sulfoxide + 2-methyltetrahydrofuran; phases: Liquid
Fixed: Pressure, kPa = 101
Property: Mass density, kg/m3 (Liquid); method: VIBTUB:UFactor:6
Temperature, K	Mole fraction of dimethyl sulfoxide	Mass density, kg/m3	uncertainty
293.15	0.0675	865.78	0.64
293.15	0.1168	875.28	0.61
293.15	0.2208	896.02	0.55
293.15	0.3228	917.54	0.48
293.15	0.4044	935.66	0.44
293.15	0.4694	950.78	0.4
293.15	0.5058	959.5	0.38
293.15	0.5888	980.16	0.32
293.15	0.6692	1001.25	0.26
293.15	0.7448	1022.04	0.29
293.15	0.8192	1043.57	0.33
293.15	0.9523	1084.75	0.41
303.15	0.0609	854.29	0.66
303.15	0.1281	867.26	0.62
303.15	0.2161	884.84	0.57
303.15	0.3184	906.38	0.51
303.15	0.4156	928.04	0.45
303.15	0.5105	950.44	0.39
303.15	0.5491	959.9	0.37
303.15	0.584	968.73	0.34
303.15	0.6652	989.97	0.28
303.15	0.7439	1011.62	0.27
303.15	0.8161	1032.51	0.31
303.15	0.9427	1071.55	0.38
313.15	0.0723	846.13	0.67
313.15	0.1209	855.52	0.65
313.15	0.2135	874.07	0.59
313.15	0.3285	898.41	0.52
313.15	0.4268	920.49	0.46
313.15	0.502	938.3	0.42
313.15	0.5525	950.72	0.38
313.15	0.5881	959.69	0.36
313.15	0.6613	978.86	0.3
313.15	0.7441	1001.63	0.25
313.15	0.8488	1032.24	0.3
313.15	0.9474	1063.08	0.36
