Measured thermophysical data. Heat Capacities and Densities of Some Liquid Chloro-, Bromo-, and Bromochloro-Substituted Benzenes
Source: J. Chem. Eng. Data, 2007, 10.1021/je600573w
Compound 1: 1,2,3,4-tetrachlorobenzene, C6H2Cl4, InChI=1S/C6H2Cl4/c7-3-1-2-4(8)6(10)5(3)9/h1-2H, purity 98%
Compound 2: chlorobenzene, C6H5Cl, InChI=1S/C6H5Cl/c7-6-4-2-1-3-5-6/h1-5H, purity 99.5%
Compound 3: bromobenzene, C6H5Br, InChI=1S/C6H5Br/c7-6-4-2-1-3-5-6/h1-5H, purity 99%
Compound 4: 1-bromo-3-chlorobenzene, C6H4BrCl, InChI=1S/C6H4BrCl/c7-5-2-1-3-6(8)4-5/h1-4H, purity 99%
Compound 5: 1,2-dichlorobenzene, C6H4Cl2, InChI=1S/C6H4Cl2/c7-5-3-1-2-4-6(5)8/h1-4H, purity 99%
Compound 6: 1,4-dichlorobenzene, C6H4Cl2, InChI=1S/C6H4Cl2/c7-5-1-2-6(8)4-3-5/h1-4H, purity 99%
Compound 7: 1,2,3-trichlorobenzene, C6H3Cl3, InChI=1S/C6H3Cl3/c7-4-2-1-3-5(8)6(4)9/h1-3H, purity 99%
Compound 8: 1,2,4-trichlorobenzene, C6H3Cl3, InChI=1S/C6H3Cl3/c7-4-1-2-5(8)6(9)3-4/h1-3H, purity 99%
Compound 9: 1-bromo-2-chlorobenzene, C6H4BrCl, InChI=1S/C6H4BrCl/c7-5-3-1-2-4-6(5)8/h1-4H, purity 99%
Compound 10: 1,3-dichlorobenzene, C6H4Cl2, InChI=1S/C6H4Cl2/c7-5-2-1-3-6(8)4-5/h1-4H, purity 98%
Compound 11: 1,2-dibromobenzene, C6H4Br2, InChI=1S/C6H4Br2/c7-5-3-1-2-4-6(5)8/h1-4H, purity 98%
Compound 12: 1,3-dibromobenzene, C6H4Br2, InChI=1S/C6H4Br2/c7-5-2-1-3-6(8)4-5/h1-4H, purity 97%

System: 1,2,3,4-tetrachlorobenzene; phases: Liquid
Fixed: Pressure, kPa = 101.325
Property: Molar heat capacity at constant pressure, J/K/mol (Liquid); method: Small sample (50 mg) DSC
Temperature, K	Molar heat capacity at constant pressure, J/K/mol	uncertainty
327.15	225.17	3.49
329.15	225.49	3.49
331.15	225.82	3.5
333.15	226.14	3.5
335.15	226.47	3.51
337.15	226.8	3.51
339.15	227.13	3.52
341.15	227.46	3.52
343.15	227.8	3.53
345.15	228.13	3.53
347.15	228.47	3.54
349.15	228.81	3.54
351.15	229.16	3.55
353.15	229.5	3.56

System: chlorobenzene; phases: Liquid
Fixed: Pressure, kPa = 101.325
Property: Molar heat capacity at constant pressure, J/K/mol (Liquid); method: Small sample (50 mg) DSC
Temperature, K	Molar heat capacity at constant pressure, J/K/mol	uncertainty
283.15	147.73	2.29
285.15	148.14	2.29
287.15	148.56	2.3
289.15	148.99	2.31
291.15	149.41	2.31
293.15	149.85	2.32
295.15	150.29	2.33
297.15	150.73	2.34
299.15	151.18	2.34
301.15	151.64	2.35
303.15	152.1	2.36
305.15	152.56	2.36
307.15	153.03	2.37
309.15	153.5	2.38
311.15	153.97	2.39
313.15	154.45	2.39
315.15	154.93	2.4
317.15	155.41	2.41
319.15	155.9	2.42
321.15	156.39	2.42
323.15	156.88	2.43
325.15	157.37	2.44
327.15	157.86	2.45
329.15	158.36	2.45
331.15	158.86	2.46
333.15	159.35	2.47
335.15	159.85	2.48
337.15	160.35	2.48
339.15	160.85	2.49
341.15	161.35	2.5
343.15	161.85	2.51
345.15	162.35	2.52
347.15	162.85	2.52
349.15	163.34	2.53
351.15	163.84	2.54
353.15	164.34	2.55

System: chlorobenzene; phases: Liquid
Fixed: Pressure, kPa = 101.325
Property: Mass density, kg/m3 (Liquid); method: Vibrating tube method
Temperature, K	Mass density, kg/m3	uncertainty
288.15	1111.9	0.42
298.15	1101.14	0.4
308.15	1090.34	0.39
318.15	1079.48	0.38
328.15	1068.57	0.37
338.15	1057.58	0.36

System: bromobenzene; phases: Liquid
Fixed: Pressure, kPa = 101.325
Property: Molar heat capacity at constant pressure, J/K/mol (Liquid); method: Small sample (50 mg) DSC
Temperature, K	Molar heat capacity at constant pressure, J/K/mol	uncertainty
283.15	151.63	2.35
285.15	151.99	2.35
287.15	152.37	2.36
289.15	152.75	2.37
291.15	153.14	2.37
293.15	153.54	2.38
295.15	153.94	2.38
297.15	154.35	2.39
299.15	154.77	2.4
301.15	155.19	2.4
303.15	155.62	2.41
305.15	156.05	2.42
307.15	156.49	2.42
309.15	156.93	2.43
311.15	157.38	2.44
313.15	157.83	2.45
315.15	158.28	2.45
317.15	158.74	2.46
319.15	159.2	2.47
321.15	159.66	2.47
323.15	160.13	2.48
325.15	160.6	2.49
327.15	161.06	2.5
329.15	161.53	2.5
331.15	162	2.51
333.15	162.48	2.52
335.15	162.95	2.52
337.15	163.42	2.53
339.15	163.89	2.54
341.15	164.36	2.55
343.15	164.83	2.55
345.15	165.3	2.56
347.15	165.76	2.57
349.15	166.23	2.58
351.15	166.69	2.58
353.15	167.15	2.59

System: bromobenzene; phases: Liquid
Fixed: Pressure, kPa = 101.325
Property: Mass density, kg/m3 (Liquid); method: Vibrating tube method
Temperature, K	Mass density, kg/m3	uncertainty
288.15	1501.95	0.88
298.15	1488.45	0.86
308.15	1474.94	0.84
318.15	1461.39	0.83
328.15	1447.8	0.8
338.15	1434.15	0.79

System: 1-bromo-3-chlorobenzene; phases: Liquid
Fixed: Pressure, kPa = 101.325
Property: Molar heat capacity at constant pressure, J/K/mol (Liquid); method: Small sample (50 mg) DSC
Temperature, K	Molar heat capacity at constant pressure, J/K/mol	uncertainty
283.15	171.14	2.65
285.15	171.49	2.66
287.15	171.84	2.66
289.15	172.21	2.67
291.15	172.59	2.67
293.15	172.97	2.68
295.15	173.36	2.69
297.15	173.75	2.69
299.15	174.15	2.7
301.15	174.56	2.7
303.15	174.98	2.71
305.15	175.4	2.72
307.15	175.82	2.72
309.15	176.25	2.73
311.15	176.68	2.74
313.15	177.12	2.74
315.15	177.56	2.75
317.15	178	2.76
319.15	178.44	2.76
321.15	178.89	2.77
323.15	179.33	2.78
325.15	179.78	2.79
327.15	180.23	2.79
329.15	180.68	2.8
331.15	181.13	2.81
333.15	181.58	2.81
335.15	182.03	2.82
337.15	182.47	2.83
339.15	182.92	2.83
341.15	183.36	2.84
343.15	183.8	2.85
345.15	184.24	2.85
347.15	184.67	2.86
349.15	185.1	2.87
351.15	185.52	2.87
353.15	185.94	2.88

System: 1-bromo-3-chlorobenzene; phases: Liquid
Fixed: Pressure, kPa = 101.325
Property: Mass density, kg/m3 (Liquid); method: Vibrating tube method
Temperature, K	Mass density, kg/m3	uncertainty
288.15	1638.44	1.05
298.15	1624.97	1.04
308.15	1611.51	1.02
318.15	1598.05	1
328.15	1584.56	0.98
338.15	1571.05	0.97

System: 1,2-dichlorobenzene; phases: Liquid
Fixed: Pressure, kPa = 101.325
Property: Molar heat capacity at constant pressure, J/K/mol (Liquid); method: Small sample (50 mg) DSC
Temperature, K	Molar heat capacity at constant pressure, J/K/mol	uncertainty
283.15	167.68	2.6
285.15	168.06	2.6
287.15	168.44	2.61
289.15	168.83	2.62
291.15	169.23	2.62
293.15	169.64	2.63
295.15	170.05	2.63
297.15	170.47	2.64
299.15	170.89	2.65
301.15	171.32	2.65
303.15	171.76	2.66
305.15	172.2	2.67
307.15	172.64	2.67
309.15	173.09	2.68
311.15	173.54	2.69
313.15	174	2.7
315.15	174.46	2.7
317.15	174.92	2.71
319.15	175.38	2.72
321.15	175.85	2.72
323.15	176.32	2.73
325.15	176.79	2.74
327.15	177.26	2.75
329.15	177.73	2.75
331.15	178.2	2.76
333.15	178.67	2.77
335.15	179.14	2.78
337.15	179.61	2.78
339.15	180.07	2.79
341.15	180.54	2.8
343.15	181	2.8
345.15	181.47	2.81
347.15	181.92	2.82
349.15	182.38	2.83
351.15	182.83	2.83
353.15	183.28	2.84

System: 1,2-dichlorobenzene; phases: Liquid
Fixed: Pressure, kPa = 101.325
Property: Mass density, kg/m3 (Liquid); method: Vibrating tube method
Temperature, K	Mass density, kg/m3	uncertainty
288.15	1311.76	0.64
298.15	1300.61	0.63
308.15	1289.45	0.62
318.15	1278.29	0.6
328.15	1267.09	0.59
338.15	1255.87	0.58

System: 1,4-dichlorobenzene; phases: Liquid
Fixed: Pressure, kPa = 101.325
Property: Molar heat capacity at constant pressure, J/K/mol (Liquid); method: Small sample (50 mg) DSC
Temperature, K	Molar heat capacity at constant pressure, J/K/mol	uncertainty
327.15	177.09	2.74
329.15	177.53	2.75
331.15	177.98	2.76
333.15	178.43	2.76
335.15	178.89	2.77
337.15	179.35	2.78
339.15	179.81	2.79
341.15	180.28	2.79
343.15	180.76	2.8
345.15	181.24	2.81
347.15	181.73	2.82
349.15	182.22	2.82
351.15	182.71	2.83
353.15	183.21	2.84

System: 1,2,3-trichlorobenzene; phases: Liquid
Fixed: Pressure, kPa = 101.325
Property: Molar heat capacity at constant pressure, J/K/mol (Liquid); method: Small sample (50 mg) DSC
Temperature, K	Molar heat capacity at constant pressure, J/K/mol	uncertainty
327.15	201.44	3.12
329.15	201.8	3.13
331.15	202.16	3.13
333.15	202.52	3.14
335.15	202.88	3.14
337.15	203.25	3.15
339.15	203.62	3.15
341.15	204	3.16
343.15	204.38	3.17
345.15	204.75	3.17
347.15	205.14	3.18
349.15	205.52	3.18
351.15	205.91	3.19
353.15	206.3	3.2

System: 1,2,4-trichlorobenzene; phases: Liquid
Fixed: Pressure, kPa = 101.325
Property: Molar heat capacity at constant pressure, J/K/mol (Liquid); method: Small sample (50 mg) DSC
Temperature, K	Molar heat capacity at constant pressure, J/K/mol	uncertainty
293.15	194.25	3.01
295.15	194.57	3.01
297.15	194.9	3.02
299.15	195.23	3.02
301.15	195.57	3.03
303.15	195.92	3.04
305.15	196.27	3.04
307.15	196.63	3.05
309.15	196.99	3.05
311.15	197.35	3.06
313.15	197.72	3.06
315.15	198.09	3.07
317.15	198.47	3.07
319.15	198.85	3.08
321.15	199.23	3.09
323.15	199.61	3.09
325.15	200	3.1
327.15	200.38	3.1
329.15	200.77	3.11
331.15	201.16	3.12
333.15	201.55	3.12
335.15	201.93	3.13
337.15	202.32	3.13
339.15	202.71	3.14
341.15	203.09	3.15
343.15	203.47	3.15
345.15	203.85	3.16
347.15	204.23	3.16
349.15	204.61	3.17
351.15	204.98	3.18
353.15	205.35	3.18

System: 1,2,4-trichlorobenzene; phases: Liquid
Fixed: Pressure, kPa = 101.325
Property: Mass density, kg/m3 (Liquid); method: Vibrating tube method
Temperature, K	Mass density, kg/m3	uncertainty
288.15	1460.65	0.82
298.15	1448.67	0.81
308.15	1436.73	0.79
318.15	1424.8	0.8
328.15	1412.89	0.76
338.15	1400.98	0.75

System: 1-bromo-2-chlorobenzene; phases: Liquid
Fixed: Pressure, kPa = 101.325
Property: Molar heat capacity at constant pressure, J/K/mol (Liquid); method: Small sample (50 mg) DSC
Temperature, K	Molar heat capacity at constant pressure, J/K/mol	uncertainty
283.15	172.25	2.67
285.15	172.59	2.67
287.15	172.94	2.68
289.15	173.29	2.68
291.15	173.65	2.69
293.15	174.02	2.7
295.15	174.39	2.7
297.15	174.78	2.71
299.15	175.17	2.71
301.15	175.56	2.72
303.15	175.96	2.73
305.15	176.36	2.73
307.15	176.77	2.74
309.15	177.19	2.75
311.15	177.61	2.75
313.15	178.03	2.76
315.15	178.45	2.76
317.15	178.88	2.77
319.15	179.31	2.78
321.15	179.74	2.78
323.15	180.17	2.79
325.15	180.6	2.8
327.15	181.03	2.8
329.15	181.47	2.81
331.15	181.9	2.82
333.15	182.33	2.82
335.15	182.77	2.83
337.15	183.2	2.84
339.15	183.62	2.84
341.15	184.05	2.85
343.15	184.47	2.86
345.15	184.89	2.86
347.15	185.31	2.87
349.15	185.72	2.88
351.15	186.13	2.88
353.15	186.53	2.89

System: 1-bromo-2-chlorobenzene; phases: Liquid
Fixed: Pressure, kPa = 101.325
Property: Mass density, kg/m3 (Liquid); method: Vibrating tube method
Temperature, K	Mass density, kg/m3	uncertainty
288.15	1659.67	1.08
298.15	1646.32	1.07
308.15	1633.01	1.05
318.15	1619.69	1.03
328.15	1606.36	1.01
338.15	1593.03	1

System: 1,3-dichlorobenzene; phases: Liquid
Fixed: Pressure, kPa = 101.325
Property: Molar heat capacity at constant pressure, J/K/mol (Liquid); method: Small sample (50 mg) DSC
Temperature, K	Molar heat capacity at constant pressure, J/K/mol	uncertainty
283.15	167.15	2.59
285.15	167.54	2.6
287.15	167.93	2.6
289.15	168.32	2.61
291.15	168.72	2.61
293.15	169.13	2.62
295.15	169.55	2.63
297.15	169.97	2.63
299.15	170.39	2.64
301.15	170.82	2.65
303.15	171.25	2.65
305.15	171.69	2.66
307.15	172.14	2.67
309.15	172.58	2.67
311.15	173.04	2.68
313.15	173.49	2.69
315.15	173.95	2.69
317.15	174.41	2.7
319.15	174.88	2.71
321.15	175.35	2.72
323.15	175.83	2.72
325.15	176.3	2.73
327.15	176.78	2.74
329.15	177.26	2.75
331.15	177.75	2.75
333.15	178.24	2.76
335.15	178.73	2.77
337.15	179.22	2.78
339.15	179.71	2.78
341.15	180.2	2.79
343.15	180.7	2.8
345.15	181.2	2.81
347.15	181.7	2.81
349.15	182.2	2.82
351.15	182.7	2.83
353.15	183.2	2.84

System: 1,3-dichlorobenzene; phases: Liquid
Fixed: Pressure, kPa = 101.325
Property: Mass density, kg/m3 (Liquid); method: Vibrating tube method
Temperature, K	Mass density, kg/m3	uncertainty
288.15	1294.08	0.62
298.15	1282.79	0.61
308.15	1271.49	0.59
318.15	1260.17	0.58
328.15	1248.82	0.57
338.15	1237.42	0.56

System: 1,2-dibromobenzene; phases: Liquid
Fixed: Pressure, kPa = 101.325
Property: Molar heat capacity at constant pressure, J/K/mol (Liquid); method: Small sample (50 mg) DSC
Temperature, K	Molar heat capacity at constant pressure, J/K/mol	uncertainty
283.15	177.44	2.75
285.15	177.83	2.75
287.15	178.12	2.76
289.15	178.43	2.76
291.15	178.75	2.77
293.15	179.08	2.77
295.15	179.42	2.78
297.15	179.76	2.78
299.15	180.12	2.79
301.15	180.48	2.8
303.15	180.85	2.8
305.15	181.22	2.81
307.15	181.6	2.81
309.15	181.99	2.82
311.15	182.38	2.83
313.15	182.77	2.83
315.15	183.17	2.84
317.15	183.57	2.84
319.15	183.97	2.85
321.15	184.38	2.86
323.15	184.79	2.86
325.15	185.19	2.87
327.15	185.6	2.88
329.15	186.01	2.88
331.15	186.42	2.89
333.15	186.82	2.89
335.15	187.23	2.9
337.15	187.63	2.91
339.15	188.03	2.91
341.15	188.42	2.92
343.15	188.82	2.93
345.15	189.2	2.93
347.15	189.58	2.94
349.15	189.96	2.94
351.15	190.33	2.95
353.15	190.69	2.95

System: 1,2-dibromobenzene; phases: Liquid
Fixed: Pressure, kPa = 101.325
Property: Mass density, kg/m3 (Liquid); method: Vibrating tube method
Temperature, K	Mass density, kg/m3	uncertainty
288.15	1987.92	1.56
298.15	1972.75	1.54
308.15	1957.62	1.51
318.15	1942.51	1.49
328.15	1927.42	1.47
338.15	1912.34	1.45

System: 1,3-dibromobenzene; phases: Liquid
Fixed: Pressure, kPa = 101.325
Property: Molar heat capacity at constant pressure, J/K/mol (Liquid); method: Small sample (50 mg) DSC
Temperature, K	Molar heat capacity at constant pressure, J/K/mol	uncertainty
283.15	176.01	2.73
285.15	176.4	2.73
287.15	176.71	2.74
289.15	177.04	2.74
291.15	177.38	2.75
293.15	177.72	2.75
295.15	178.08	2.76
297.15	178.44	2.76
299.15	178.81	2.77
301.15	179.19	2.78
303.15	179.58	2.78
305.15	179.97	2.79
307.15	180.37	2.79
309.15	180.78	2.8
311.15	181.19	2.81
313.15	181.6	2.81
315.15	182.01	2.82
317.15	182.43	2.83
319.15	182.85	2.83
321.15	183.28	2.84
323.15	183.7	2.85
325.15	184.13	2.85
327.15	184.55	2.86
329.15	184.98	2.87
331.15	185.4	2.87
333.15	185.83	2.88
335.15	186.25	2.89
337.15	186.67	2.89
339.15	187.08	2.9
341.15	187.49	2.9
343.15	187.9	2.91
345.15	188.3	2.92
347.15	188.7	2.92
349.15	189.09	2.93
351.15	189.47	2.94
353.15	189.85	2.94

System: 1,3-dibromobenzene; phases: Liquid
Fixed: Pressure, kPa = 101.325
Property: Mass density, kg/m3 (Liquid); method: Vibrating tube method
Temperature, K	Mass density, kg/m3	uncertainty
288.15	1964.14	1.52
298.15	1948.87	1.5
308.15	1933.61	1.48
318.15	1918.3	1.45
328.15	1903.13	1.43
338.15	1887.88	1.41
