Measured thermophysical data. Solubility of Atractylenolide III in Hexane, Ethyl Acetate, Diethyl Ether, and Ethanol from (283.2 to 323.2) K
Source: J. Chem. Eng. Data, 2007, 10.1021/je6005482
Compound 1: hexane, C6H14, InChI=1S/C6H14/c1-3-5-6-4-2/h3-6H2,1-2H3
Compound 2: diethyl ether, C4H10O, InChI=1S/C4H10O/c1-3-5-4-2/h3-4H2,1-2H3
Compound 3: ethyl acetate, C4H8O2, InChI=1S/C4H8O2/c1-3-6-4(2)5/h3H2,1-2H3
Compound 4: ethanol, C2H6O, InChI=1S/C2H6O/c1-2-3/h3H,2H2,1H3
Compound 5: atractylenolide III, C15H20O3, InChI=1S/C15H20O3/c1-9-5-4-6-14(3)8-15(17)12(7-11(9)14)10(2)13(16)18-15/h11,17H,1,4-8H2,2-3H3, purity 99%

System: hexane + atractylenolide III; phases: Liquid, Crystal
Fixed: Pressure, kPa = 101
Property: Mole fraction of hexane (Liquid); method: Chromatography
Temperature, K	Mole fraction of hexane	uncertainty
283.2	2.44e-05	2.4e-06
288.2	4.12e-05	4.1e-06
293.2	6.39e-05	6.4e-06
298.2	8.32e-05	8.3e-06
303.2	0.0001128	1.13e-05
308.2	0.0001534	1.53e-05
313.2	0.0002017	2.02e-05
318.2	0.0002716	2.72e-05
323.2	0.0003362	3.36e-05

System: diethyl ether + atractylenolide III; phases: Liquid, Crystal
Fixed: Pressure, kPa = 101
Property: Mole fraction of diethyl ether (Liquid); method: Chromatography
Temperature, K	Mole fraction of diethyl ether	uncertainty
283.2	0.00277	0.000277
288.2	0.003749	0.000375
293.2	0.005624	0.000562
298.2	0.007383	0.000738
303.2	0.009387	0.000939

System: ethyl acetate + atractylenolide III; phases: Liquid, Crystal
Fixed: Pressure, kPa = 101
Property: Mole fraction of ethyl acetate (Liquid); method: Chromatography
Temperature, K	Mole fraction of ethyl acetate	uncertainty
283.2	0.02243	0.00135
288.2	0.02285	0.00137
293.2	0.02362	0.00142
298.2	0.0242	0.00145
303.2	0.02521	0.00151
308.2	0.0261	0.00157
313.2	0.02711	0.00163
318.2	0.02815	0.00169
323.2	0.02928	0.00176

System: ethanol + atractylenolide III; phases: Liquid, Crystal
Fixed: Pressure, kPa = 101
Property: Mole fraction of ethanol (Liquid); method: Chromatography
Temperature, K	Mole fraction of ethanol	uncertainty
283.2	0.004426	0.000266
288.2	0.005475	0.000329
293.2	0.006733	0.000404
298.2	0.008085	0.000485
303.2	0.009657	0.000579
308.2	0.01131	0.00068
313.2	0.01309	0.00079
318.2	0.01507	0.0009
323.2	0.01713	0.00103
