Measured thermophysical data. Solubilities of Benzoic Acid and Phthalic Acid in Acetic Acid + Water Solvent Mixtures
Source: J. Chem. Eng. Data, 2007, 10.1021/je600527c
Compound 1: benzoic acid, C7H6O2, InChI=1S/C7H6O2/c8-7(9)6-4-2-1-3-5-6/h1-5H,(H,8,9), purity 99%
Compound 2: water, H2O, InChI=1S/H2O/h1H2
Compound 3: 1,2-benzenedicarboxylic acid, C8H6O4, InChI=1S/C8H6O4/c9-7(10)5-3-1-2-4-6(5)8(11)12/h1-4H,(H,9,10)(H,11,12), purity 98.5%
Compound 4: acetic acid, C2H4O2, InChI=1S/C2H4O2/c1-2(3)4/h1H3,(H,3,4)

System: acetic acid; phases: Liquid
Property: Refractive index (Na D-line) (Liquid); method: Standard Abbe refractometry
Temperature, K	Pressure, kPa	Refractive index (Na D-line)	uncertainty
298.15	101.325	1.37	0.001

System: acetic acid; phases: Liquid
Property: Mass density, kg/m3 (Liquid); method: Pycnometric method
Temperature, K	Pressure, kPa	Mass density, kg/m3	uncertainty
298.15	101.325	1045	8

System: acetic acid + benzoic acid + water; phases: Liquid, Crystal
Fixed: Pressure, kPa = 101
Property: Mass ratio of solute to solvent of benzoic acid (Liquid); method: gravimetric analysis
Solvent: Mass fraction of acetic acid	Temperature, K	Mass ratio of solute to solvent of benzoic acid	uncertainty
0.8	298.3	0.2202	0.0132
0.8	308.4	0.2529	0.0204
0.8	318.3	0.2994	0.0196
0.8	328.2	0.3354	0.0228
0.8	338	0.3655	0.0219
0.8	348.3	0.4043	0.0243
0.8	358.6	0.4517	0.0304
0.85	298.3	0.2315	0.0139
0.85	308.4	0.2788	0.0168
0.85	318.3	0.3173	0.0191
0.85	328.2	0.3616	0.0217
0.85	338	0.4075	0.0245
0.85	348.3	0.4503	0.027
0.85	358.6	0.5048	0.0408
0.95	298.3	0.2509	0.0196
0.95	308.4	0.3035	0.0182
0.95	318.3	0.3622	0.0218
0.95	328.2	0.4154	0.0338
0.95	338	0.4906	0.0372
0.95	348.3	0.5364	0.0322
0.95	358.6	0.6216	0.0373
1	298.3	0.2506	0.0188
1	308.4	0.3068	0.0185
1	318.3	0.3805	0.0229
1	328.2	0.4468	0.0269
1	338	0.5315	0.0408
1	348.3	0.5988	0.036
1	358.6	0.6976	0.053

System: acetic acid + 1,2-benzenedicarboxylic acid + water; phases: Liquid, Crystal
Fixed: Pressure, kPa = 101
Property: Mass ratio of solute to solvent of 1,2-benzenedicarboxylic acid (Liquid); method: gravimetric analysis
Solvent: Mass fraction of acetic acid	Temperature, K	Mass ratio of solute to solvent of 1,2-benzenedicarboxylic acid	uncertainty
0.8	298.3	0.0199	0.0012
0.8	308.4	0.0374	0.0023
0.8	318.3	0.0649	0.005
0.8	328.2	0.106	0.0083
0.8	338	0.1639	0.0115
0.8	348.3	0.2373	0.0144
0.8	358.6	0.3504	0.0211
0.8	367.9	0.4478	0.0311
0.85	298.3	0.0226	0.0016
0.85	308.4	0.0398	0.0028
0.85	318.3	0.0661	0.004
0.85	328.2	0.107	0.0083
0.85	338	0.1606	0.0127
0.85	348.3	0.2314	0.014
0.85	358.6	0.3215	0.0194
0.85	367.9	0.4158	0.0327
0.9	298.3	0.0263	0.002
0.9	308.4	0.0423	0.0032
0.9	318.3	0.0694	0.0042
0.9	328.2	0.1059	0.0078
0.9	338	0.1513	0.0092
0.9	348.3	0.2232	0.0169
0.9	358.6	0.3003	0.0181
0.9	367.9	0.3787	0.0298
0.95	298.3	0.0285	0.0017
0.95	308.4	0.0436	0.0032
0.95	318.3	0.0682	0.0044
0.95	328.2	0.0957	0.0074
0.95	338	0.1362	0.0083
0.95	348.3	0.1972	0.0139
0.95	358.6	0.2624	0.0208
0.95	367.9	0.3346	0.0256
1	298.3	0.0296	0.002
1	308.4	0.0422	0.0032
1	318.3	0.0629	0.0048
1	328.2	0.0878	0.0066
1	338	0.1204	0.009
1	348.3	0.1633	0.0102
1	358.6	0.2153	0.013
1	367.9	0.2752	0.022

System: acetic acid + benzoic acid; phases: Liquid, Crystal
Fixed: Pressure, kPa = 101
Property: Mass ratio of solute to solvent of benzoic acid (Liquid); method: gravimetric analysis
Temperature, K	Mass ratio of solute to solvent of benzoic acid	uncertainty
298.3	0.2506	0.0188
308.4	0.3068	0.0185
318.3	0.3805	0.0229
328.2	0.4468	0.0269
338	0.5315	0.0408
348.3	0.5988	0.036
358.6	0.6976	0.053

System: acetic acid + 1,2-benzenedicarboxylic acid; phases: Liquid, Crystal
Fixed: Pressure, kPa = 101
Property: Mass ratio of solute to solvent of 1,2-benzenedicarboxylic acid (Liquid); method: gravimetric analysis
Temperature, K	Mass ratio of solute to solvent of 1,2-benzenedicarboxylic acid	uncertainty
298.3	0.0296	0.002
308.4	0.0422	0.0032
318.3	0.0629	0.0048
328.2	0.0878	0.0066
338	0.1204	0.009
348.3	0.1633	0.0102
358.6	0.2153	0.013
367.9	0.2752	0.022
