Measured thermophysical data. Vapor-Liquid Equilibria in the 2-Methylcyclohexanol + 2-Methylcyclohexyl Ethanoate System at 101.325 kPa
Source: J. Chem. Eng. Data, 2007, 10.1021/je600559q
Compound 1: 2-methylcyclohexanol, C7H14O, InChI=1S/C7H14O/c1-6-4-2-3-5-7(6)8/h6-8H,2-5H2,1H3
Compound 2: 2-methylcyclohexyl acetate, C9H16O2, InChI=1S/C9H16O2/c1-7-5-3-4-6-9(7)11-8(2)10/h7,9H,3-6H2,1-2H3

System: 2-methylcyclohexanol; phases: Liquid
Property: Refractive index (Na D-line) (Liquid); method: Standard Abbe refractometry
Temperature, K	Pressure, kPa	Refractive index (Na D-line)	uncertainty
293.1	101.325	1.46313	0.00072

System: 2-methylcyclohexanol; phases: Liquid, Gas
Property: Vapor or sublimation pressure, kPa (Liquid); method: TWINEBU:UFactor:2
Temperature, K	Vapor or sublimation pressure, kPa	uncertainty
361.23	5.394	0.02
361.23	5.394	0.02
362.23	5.668	0.02
363.13	5.919	0.02
365.7	6.693	0.02
367.68	7.345	0.021
369.92	8.152	0.021
371.63	8.817	0.021
373.16	9.448	0.021
375.31	10.399	0.021
377.78	11.578	0.021
380.39	12.943	0.021
383.11	14.517	0.022
385.95	16.323	0.022
386.1	16.418	0.022
389.56	18.864	0.022
393.07	21.648	0.023
395.88	24.104	0.023
398.52	26.604	0.024
402.67	30.99	0.024
406.67	35.73	0.025
410.73	41.114	0.026
414	45.898	0.027
418.26	52.847	0.029
424.63	64.662	0.033
439.57	100.473	0.036

System: 2-methylcyclohexyl acetate; phases: Liquid
Property: Refractive index (Na D-line) (Liquid); method: Standard Abbe refractometry
Temperature, K	Pressure, kPa	Refractive index (Na D-line)	uncertainty
293.1	101.325	1.43896	0.00072

System: 2-methylcyclohexyl acetate; phases: Liquid, Gas
Property: Vapor or sublimation pressure, kPa (Liquid); method: TWINEBU:UFactor:2
Temperature, K	Vapor or sublimation pressure, kPa	uncertainty
368.01	5.32	0.02
369.86	5.758	0.02
371.87	6.261	0.02
373.83	6.787	0.02
376.56	7.594	0.021
379.93	8.675	0.021
383.36	9.912	0.021
386.65	11.216	0.021
391.27	13.318	0.021
393.39	14.379	0.021
394.15	14.773	0.021
398.42	17.204	0.022
401.6	19.193	0.022
403.3	20.341	0.022
405.73	22.082	0.022
410.71	26.013	0.023
415.57	30.387	0.024
418.74	33.542	0.024
421.2	36.157	0.025
423.84	39.173	0.025
426.54	42.453	0.026
429.41	46.213	0.026
433.2	51.551	0.028
440.4	63.092	0.031
458	100.13	0.034

System: 2-methylcyclohexanol + 2-methylcyclohexyl acetate; phases: Liquid, Gas
Fixed: Pressure, kPa = 101.325
Property: Boiling temperature at pressure P, K (Liquid); method: Ebulliometric method (Recirculating still)
Mole fraction of 2-methylcyclohexanol	Boiling temperature at pressure P, K	uncertainty
0.0158	458.16	0.27
0.0462	457.39	0.24
0.0934	456.4	0.24
0.1535	454.97	0.25
0.211	453.7	0.24
0.2532	452.77	0.23
0.384	450.01	0.23
0.4811	448.04	0.22
0.5332	447.11	0.19
0.6539	445.12	0.18
0.6824	444.67	0.18
0.7313	443.96	0.18
0.8046	442.79	0.18
0.867	441.91	0.18
0.9157	441.09	0.18
0.9592	440.48	0.17
0.9864	440.11	0.16

System: 2-methylcyclohexanol + 2-methylcyclohexyl acetate; phases: Gas, Liquid
Fixed: Pressure, kPa = 101.325
Property: Mole fraction of 2-methylcyclohexanol (Gas); method: Index of refraction calibration data
Mole fraction of 2-methylcyclohexanol	Mole fraction of 2-methylcyclohexanol	uncertainty
0.0158	0.0299	0.0184
0.0462	0.077	0.0174
0.0934	0.1408	0.0168
0.1535	0.2213	0.0165
0.211	0.2953	0.0159
0.2532	0.3438	0.0153
0.384	0.4956	0.0152
0.4811	0.6034	0.0141
0.5332	0.6418	0.013
0.6539	0.7467	0.0119
0.6824	0.7649	0.0132
0.7313	0.812	0.013
0.8046	0.867	0.0123
0.867	0.9101	0.0122
0.9157	0.9456	0.0122
0.9592	0.9745	0.0119
0.9864	0.991	0.009
