Measured thermophysical data. Liquid-Liquid Equilibria for the Ternary Systems Acetic Acid + Water + Butyl Acetate and Acetic Acid + Water + 2-Methyl Propyl Acetate at 304.15 K, 332.15 K, and 366.15 K
Source: J. Chem. Eng. Data, 2007, 10.1021/je6005746
Compound 1: acetic acid, C2H4O2, InChI=1S/C2H4O2/c1-2(3)4/h1H3,(H,3,4)
Compound 2: butyl ethanoate, C6H12O2, InChI=1S/C6H12O2/c1-3-4-5-8-6(2)7/h3-5H2,1-2H3
Compound 3: water, H2O, InChI=1S/H2O/h1H2
Compound 4: 2-methylpropyl ethanoate, C6H12O2, InChI=1S/C6H12O2/c1-5(2)4-8-6(3)7/h5H,4H2,1-3H3

System: acetic acid + butyl ethanoate + water; phases: Liquid mixture 1, Liquid mixture 2
Fixed: Pressure, kPa = 101
Property: Mole fraction of acetic acid (Liquid mixture 1); method: Chromatography
Property: Mole fraction of water (Liquid mixture 2); method: Chromatography
Property: Mole fraction of acetic acid (Liquid mixture 2); method: Chromatography
Temperature, K	Mole fraction of water	Mole fraction of acetic acid	uncertainty	Mole fraction of water	uncertainty	Mole fraction of acetic acid	uncertainty
304.15	0.102	0		0.9995	0.0001	0	
304.15	0.1529	0.0396	0.0004	0.985	0.0002	0.014	
304.15	0.1737	0.0808	0.0008	0.9709	0.0003	0.0277	
304.15	0.2099	0.1215	0.0012	0.9579	0.0004	0.0403	
304.15	0.2434	0.1563	0.0016	0.9419	0.0006	0.0558	
304.15	0.2832	0.1929	0.0019	0.9264	0.0007	0.0704	
304.15	0.3261	0.2166	0.0022	0.9088	0.0009	0.0869	
304.15	0.3839	0.2396	0.0024	0.891	0.0011	0.1028	
304.15	0.405	0.2532	0.0025	0.8796	0.0012	0.1127	
332.15	0.1316	0		0.9992	0.0001	0	
332.15	0.1774	0.0435	0.0004	0.985	0.0002	0.0137	
332.15	0.2086	0.08	0.0008	0.9716	0.0003	0.0271	
332.15	0.2327	0.1176	0.0012	0.9557	0.0004	0.0424	
332.15	0.3031	0.1854	0.0019	0.9386	0.0006	0.0575	
332.15	0.3466	0.2087	0.0021	0.9031	0.001	0.091	
332.15	0.3813	0.2427	0.0024	0.8874	0.0011	0.1044	
332.15	0.4	0.2502	0.0025	0.8629	0.0014	0.1267	
366.15	0.5061	0.2617	0.0026	0.8263	0.0017	0.1557	
366.15	0.1732	0.0386	0.0004	0.985	0.0002	0.0136	
366.15	0.1573	0		0.9991	0.0001	0	
366.15	0.2024	0.0761	0.0008	0.971	0.0003	0.0268	
366.15	0.2182	0.1134	0.0011	0.9526	0.0005	0.0436	
366.15	0.3052	0.1788	0.0018	0.9208	0.0008	0.0744	
366.15	0.3309	0.2098	0.0021	0.8958	0.001	0.0982	
366.15	0.395	0.2251	0.0023	0.8802	0.0012	0.1111	

System: acetic acid + 2-methylpropyl ethanoate + water; phases: Liquid mixture 2, Liquid mixture 1
Fixed: Pressure, kPa = 101
Property: Mole fraction of acetic acid (Liquid mixture 2); method: Chromatography
Property: Mole fraction of water (Liquid mixture 1); method: Chromatography
Property: Mole fraction of acetic acid (Liquid mixture 1); method: Chromatography
Temperature, K	Mole fraction of water	Mole fraction of acetic acid	uncertainty	Mole fraction of water	uncertainty	Mole fraction of acetic acid	uncertainty
304.15	0.1262	0		0.9964	0.0001	0	
304.15	0.2085	0.0541	0.0005	0.981	0.0002	0.015	
304.15	0.2594	0.0947	0.0009	0.9684	0.0003	0.0266	
304.15	0.3119	0.1325	0.0013	0.9511	0.0005	0.0425	
304.15	0.3638	0.1662	0.0017	0.9346	0.0007	0.0575	
304.15	0.438	0.1886	0.0019	0.9101	0.0009	0.0794	
304.15	0.5079	0.204	0.002	0.8858	0.0011	0.0984	
304.15	0.5805	0.217	0.0022	0.8374	0.0016	0.1311	
332.15	0.2356	0.0531	0.0005	0.9802	0.0002	0.0155	
332.15	0.2884	0.0953	0.001	0.9663	0.0003	0.0285	
332.15	0.3513	0.1291	0.0013	0.9485	0.0005	0.0447	
332.15	0.3875	0.1606	0.0016	0.9329	0.0007	0.0579	
332.15	0.4554	0.1864	0.0019	0.9077	0.0009	0.0787	
332.15	0.4917	0.2003	0.002	0.8745	0.0013	0.1048	
332.15	0.6184	0.2001	0.002	0.7953	0.002	0.147	
332.15	0.1713	0		0.9966	0.0001	0	
366.15	0.2521	0.0468	0.0005	0.9804	0.0002	0.015	
366.15	0.3134	0.0823	0.0008	0.9655	0.0003	0.0286	
366.15	0.2251	0		0.9968	0.0001	0	
366.15	0.3497	0.1168	0.0012	0.9472	0.0005	0.0456	
366.15	0.412	0.1752	0.0018	0.8973	0.001	0.0866	
366.15	0.4864	0.1853	0.0019	0.8687	0.0013	0.1063	
366.15	0.574	0.2141	0.0021	0.7784	0.0022	0.1602	

System: butyl ethanoate + water; phases: Liquid mixture 1, Liquid mixture 2
Fixed: Pressure, kPa = 101
Property: Mole fraction of water (Liquid mixture 1); method: Chromatography
Temperature, K	Mole fraction of water	uncertainty
304.15	0.102	
332.15	0.1316	
366.15	0.1573	

System: butyl ethanoate + water; phases: Liquid mixture 2, Liquid mixture 1
Fixed: Pressure, kPa = 101
Property: Mole fraction of water (Liquid mixture 2); method: Chromatography
Temperature, K	Mole fraction of water	uncertainty
304.15	0.9995	0.0001
332.15	0.9992	0.0001
366.15	0.9991	0.0001

System: 2-methylpropyl ethanoate + water; phases: Liquid mixture 2, Liquid mixture 1
Fixed: Pressure, kPa = 101
Property: Mole fraction of water (Liquid mixture 2); method: Chromatography
Temperature, K	Mole fraction of water	uncertainty
304.15	0.1262	0.1262
332.15	0.1713	0.1713
366.15	0.2251	0.2251

System: 2-methylpropyl ethanoate + water; phases: Liquid mixture 1, Liquid mixture 2
Fixed: Pressure, kPa = 101
Property: Mole fraction of water (Liquid mixture 1); method: Chromatography
Temperature, K	Mole fraction of water	uncertainty
304.15	0.9964	0.0036
332.15	0.9966	0.0034
366.15	0.9968	0.0032
