Measured thermophysical data. Viscosity and Density of Water + Ethyl Acetate + Ethanol Mixtures at 298.15 and 318.15 K and Atmospheric Pressure
Source: J. Chem. Eng. Data, 2007, 10.1021/je600565m
Compound 1: water, H2O, InChI=1S/H2O/h1H2
Compound 2: ethyl acetate, C4H8O2, InChI=1S/C4H8O2/c1-3-6-4(2)5/h3H2,1-2H3
Compound 3: ethanol, C2H6O, InChI=1S/C2H6O/c1-2-3/h3H,2H2,1H3, purity 99.8%

System: ethanol + ethyl acetate; phases: Liquid
Fixed: Pressure, kPa = 101
Property: Viscosity, Pa*s (Liquid); method: SPHERE:UFactor:3
Temperature, K	Mole fraction of ethyl acetate	Viscosity, Pa*s	uncertainty
298.15	0.1	0.000848	2e-05
298.15	0.2	0.000707	1.7e-05
298.15	0.3	0.000614	1.5e-05
298.15	0.4	0.00056	1.3e-05
298.15	0.5	0.000513	1.2e-05
298.15	0.6	0.000488	1.2e-05
298.15	0.7	0.000465	1.1e-05
298.15	0.8	0.000448	1.1e-05
298.15	0.9	0.000434	1e-05
318.15	0.1	0.000624	1.5e-05
318.15	0.2	0.000535	1.3e-05
318.15	0.3007	0.000471	1.2e-05
318.15	0.4	0.000432	1e-05
318.15	0.5	0.000412	1e-05
318.15	0.6003	0.000387	9e-06
318.15	0.7006	0.000374	9e-06
318.15	0.8	0.000364	9e-06
318.15	0.9	0.00036	9e-06

System: ethanol + ethyl acetate; phases: Liquid
Fixed: Pressure, kPa = 101
Property: Mass density, kg/m3 (Liquid); method: VIBTUB:UFactor:3
Temperature, K	Mole fraction of ethyl acetate	Mass density, kg/m3	uncertainty
298.15	0.1	801.5	0.33
298.15	0.1992	816.25	0.32
298.15	0.3006	829.52	0.3
298.15	0.3949	840.61	0.29
298.15	0.5001	852.04	0.28
298.15	0.5987	861.64	0.27
298.15	0.7	870.79	0.26
298.15	0.7981	879.06	0.25
298.15	0.9	886.96	0.24
298.15	0.9501	890.81	0.24
318.15	0.1	783.09	0.35
318.15	0.2001	796.45	0.34
318.15	0.3	808.31	0.33
318.15	0.4001	819.37	0.31
318.15	0.5	829.53	0.3
318.15	0.6	838.75	0.29
318.15	0.7	847.18	0.28
318.15	0.8001	855.16	0.28
318.15	0.8999	862.6	0.27

System: ethyl acetate + water; phases: Liquid
Fixed: Pressure, kPa = 101
Property: Viscosity, Pa*s (Liquid); method: SPHERE:UFactor:3
Temperature, K	Mole fraction of water	Viscosity, Pa*s	uncertainty
298.15	0.0258	0.000436	1e-05
298.15	0.045	0.000444	1.1e-05
298.15	0.0748	0.000456	1.1e-05
298.15	0.0853	0.00046	1.1e-05
298.15	0.1053	0.000468	1.1e-05
298.15	0.1258	0.000476	1.1e-05
318.15	0.025	0.000362	1e-05
318.15	0.0496	0.000368	1.1e-05
318.15	0.075	0.000373	9e-06
318.15	0.0999	0.000379	1e-05
318.15	0.1254	0.000385	9e-06

System: ethyl acetate + water; phases: Liquid
Fixed: Pressure, kPa = 101
Property: Mass density, kg/m3 (Liquid); method: VIBTUB:UFactor:3
Temperature, K	Mole fraction of water	Mass density, kg/m3	uncertainty
298.15	0.0269	895.32	0.23
298.15	0.0469	896.13	0.23
298.15	0.0722	897.09	0.23
298.15	0.0892	897.9	0.23
298.15	0.1045	898.48	0.23
298.15	0.1249	899.5	0.23
318.15	0.0249	870.81	0.26
318.15	0.0524	871.8	0.26
318.15	0.0766	872.73	0.26
318.15	0.1003	873.94	0.26
318.15	0.1255	875.08	0.25

System: ethanol + water; phases: Liquid
Fixed: Pressure, kPa = 101
Property: Viscosity, Pa*s (Liquid); method: SPHERE:UFactor:3
Temperature, K	Mole fraction of water	Viscosity, Pa*s	uncertainty
298.15	0.2009	0.001407	3.3e-05
298.15	0.3001	0.001558	3.7e-05
298.15	0.4016	0.001761	4.2e-05
298.15	0.5001	0.001946	4.6e-05
298.15	0.6	0.002166	5.1e-05
298.15	0.7	0.002342	5.6e-05
298.15	0.8	0.00239	5.7e-05
298.15	0.9	0.001923	4.6e-05
318.15	0.1	0.000848	2e-05
318.15	0.2	0.000951	2.3e-05
318.15	0.3001	0.001003	2.4e-05
318.15	0.4036	0.00109	2.6e-05
318.15	0.5002	0.001168	2.8e-05
318.15	0.6	0.001243	3.1e-05
318.15	0.7	0.001298	3.2e-05
318.15	0.8007	0.001293	3.5e-05
318.15	0.9	0.000977	2.4e-05

System: ethanol + water; phases: Liquid
Fixed: Pressure, kPa = 101
Property: Mass density, kg/m3 (Liquid); method: VIBTUB:UFactor:3
Temperature, K	Mole fraction of water	Mass density, kg/m3	uncertainty
298.15	0.0998	797.6	0.34
298.15	0.2018	810.78	0.32
298.15	0.3085	826.73	0.3
298.15	0.4145	843.26	0.28
298.15	0.5001	858.65	0.27
298.15	0.6205	885.56	0.24
298.15	0.7005	904.69	0.22
298.15	0.7992	933.6	0.18
298.15	0.9051	965.51	0.15
318.15	0.1	780.53	0.36
318.15	0.201	793.6	0.34
318.15	0.3001	807.71	0.32
318.15	0.4004	823.81	0.31
318.15	0.5003	840.31	0.29
318.15	0.5998	863.31	0.26
318.15	0.7001	888.76	0.23
318.15	0.8001	919.19	0.2
318.15	0.9	952.47	0.17

System: ethanol + ethyl acetate + water; phases: Liquid
Fixed: Pressure, kPa = 101
Property: Viscosity, Pa*s (Liquid); method: SPHERE:UFactor:3
Temperature, K	Mole fraction of water	Mole fraction of ethyl acetate	Viscosity, Pa*s	uncertainty
298.15	0	0.1	0.000848	2e-05
298.15	0	0.2	0.000707	1.7e-05
298.15	0	0.3	0.000614	1.5e-05
298.15	0	0.4	0.00056	1.3e-05
298.15	0	0.5	0.000513	1.2e-05
298.15	0	0.6	0.000488	1.2e-05
298.15	0	0.7	0.000465	1.1e-05
298.15	0	0.8	0.000448	1.1e-05
298.15	0	0.9	0.000434	1e-05
298.15	0.01	0.9	0.000435	1e-05
298.15	0.02	0.8	0.00045	1.1e-05
298.15	0.0258	0.9742	0.000436	1e-05
298.15	0.03	0.9	0.000442	1.1e-05
298.15	0.0301	0.7	0.000476	1.1e-05
298.15	0.0401	0.6	0.000512	1.2e-05
298.15	0.045	0.955	0.000444	1.1e-05
298.15	0.05	0.9001	0.00045	1.1e-05
298.15	0.0501	0.5	0.000551	1.3e-05
298.15	0.0599	0.8001	0.00046	1.1e-05
298.15	0.06	0.4012	0.000605	1.4e-05
298.15	0.0701	0.3	0.000691	1.6e-05
298.15	0.0748	0.9252	0.000456	1.1e-05
298.15	0.0802	0.2	0.00081	1.9e-05
298.15	0.0853	0.9147	0.00046	1.1e-05
298.15	0.0899	0.7001	0.000487	1.2e-05
298.15	0.0902	0.1	0.001042	2.5e-05
298.15	0.1	0.8	0.000477	1.1e-05
298.15	0.1001	0.45	0.000579	1.4e-05
298.15	0.1002	0.27	0.000713	1.7e-05
298.15	0.1003	0.6297	0.000506	1.2e-05
298.15	0.1053	0.8947	0.000468	1.1e-05
298.15	0.1199	0.6	0.000523	1.2e-05
298.15	0.1258	0.8742	0.000476	1.1e-05
298.15	0.1401	0.7999	0.00048	1.1e-05
298.15	0.1499	0.5001	0.000579	1.4e-05
298.15	0.1501	0.7	0.00051	1.2e-05
298.15	0.1798	0.4001	0.000653	1.6e-05
298.15	0.2	0.08	0.001132	2.7e-05
298.15	0.2	0.24	0.000821	1.9e-05
298.15	0.2001	0.6	0.000557	1.3e-05
298.15	0.2003	0.3999	0.000661	1.6e-05
298.15	0.2009	0	0.001407	3.3e-05
298.15	0.2098	0.3	0.000756	1.8e-05
298.15	0.2098	0.7002	0.000529	1.3e-05
298.15	0.2398	0.2001	0.000914	2.2e-05
298.15	0.2502	0.4999	0.000628	1.5e-05
298.15	0.2697	0.1002	0.001151	2.7e-05
298.15	0.28	0.6001	0.000594	1.4e-05
298.15	0.3	0.21	0.000948	2.3e-05
298.15	0.3001	0	0.001558	3.7e-05
298.15	0.3002	0.3499	0.000762	1.8e-05
298.15	0.3002	0.3999	0.000708	1.7e-05
298.15	0.3002	0.4898	0.000646	1.5e-05
298.15	0.3008	0.0699	0.001283	3e-05
298.15	0.3446	0.5078	0.000666	1.6e-05
298.15	0.35	0.3	0.000854	2e-05
298.15	0.3999	0.2	0.001052	2.5e-05
298.15	0.4	0.06	0.001461	3.5e-05
298.15	0.4	0.42	0.000745	1.8e-05
298.15	0.4001	0.3	0.000887	2.1e-05
298.15	0.4002	0.18	0.001107	2.6e-05
298.15	0.4016	0	0.001761	4.2e-05
298.15	0.42	0.4	0.000791	1.9e-05
298.15	0.4499	0.1001	0.001363	3.2e-05
298.15	0.49	0.3	0.000946	2.2e-05
298.15	0.5	0.15	0.001268	3e-05
298.15	0.5001	0	0.001946	4.6e-05
298.15	0.5002	0.2499	0.001027	2.4e-05
298.15	0.5003	0.05	0.001654	3.9e-05
298.15	0.5529	0.2101	0.001153	2.7e-05
298.15	0.6	0	0.002166	5.1e-05
298.15	0.6	0.04	0.001868	4.4e-05
298.15	0.6	0.12	0.001464	3.5e-05
298.15	0.6002	0.1999	0.001226	2.9e-05
298.15	0.7	0	0.002342	5.6e-05
298.15	0.7	0.09	0.001679	4e-05
298.15	0.7001	0.03	0.002069	4.9e-05
298.15	0.8	0	0.00239	5.7e-05
298.15	0.8	0.02	0.002119	5e-05
298.15	0.8	0.06	0.001844	4.4e-05
298.15	0.9	0	0.001923	4.6e-05
298.15	0.9	0.01	0.001834	4.4e-05
298.15	0.9	0.03	0.001681	4e-05
318.15	0	0.1	0.000624	1.5e-05
318.15	0	0.2	0.000535	1.3e-05
318.15	0	0.3007	0.000471	1.2e-05
318.15	0	0.4	0.000432	1e-05
318.15	0	0.5	0.000412	1e-05
318.15	0	0.6003	0.000387	9e-06
318.15	0	0.7006	0.000374	9e-06
318.15	0	0.8	0.000364	9e-06
318.15	0	0.9	0.00036	9e-06
318.15	0.0101	0.8991	0.000367	1e-05
318.15	0.02	0.8	0.000374	9e-06
318.15	0.025	0.975	0.000362	1e-05
318.15	0.03	0.7	0.000387	9e-06
318.15	0.03	0.9	0.000362	9e-06
318.15	0.04	0.5999	0.000402	1e-05
318.15	0.0496	0.9504	0.000368	1.1e-05
318.15	0.05	0.5	0.000425	1e-05
318.15	0.05	0.9	0.000362	9e-06
318.15	0.06	0.3994	0.00046	1.1e-05
318.15	0.0601	0.7999	0.000376	9e-06
318.15	0.07	0.3001	0.00051	1.2e-05
318.15	0.0703	0.8996	0.000356	1e-05
318.15	0.075	0.925	0.000373	9e-06
318.15	0.08	0.2	0.000577	1.4e-05
318.15	0.09	0.1	0.000685	1.7e-05
318.15	0.09	0.7	0.000396	1e-05
318.15	0.0999	0.9001	0.000379	1e-05
318.15	0.1	0	0.000848	2e-05
318.15	0.1	0.09	0.000704	1.7e-05
318.15	0.1	0.27	0.000534	1.3e-05
318.15	0.1	0.45	0.000442	1.1e-05
318.15	0.1	0.7999	0.000382	9e-06
318.15	0.1002	0.6298	0.000398	1e-05
318.15	0.1201	0.6	0.00042	1e-05
318.15	0.1254	0.8746	0.000385	9e-06
318.15	0.1399	0.8001	0.000377	9e-06
318.15	0.15	0.7	0.000405	1e-05
318.15	0.1501	0.5	0.000453	1.1e-05
318.15	0.1801	0.4	0.000498	1.2e-05
318.15	0.1999	0.5601	0.000439	1.1e-05
318.15	0.2	0	0.000951	2.3e-05
318.15	0.2	0.4	0.000493	1.2e-05
318.15	0.2	0.6001	0.000433	1e-05
318.15	0.2001	0.08	0.000781	1.9e-05
318.15	0.2004	0.2399	0.000593	1.4e-05
318.15	0.2101	0.3	0.000557	1.3e-05
318.15	0.2101	0.6999	0.00041	1e-05
318.15	0.24	0.2004	0.00065	1.6e-05
318.15	0.25	0.5	0.000473	1.1e-05
318.15	0.2701	0.1	0.000791	1.9e-05
318.15	0.2818	0.5974	0.000454	1.1e-05
318.15	0.2895	0.071	0.00085	2e-05
318.15	0.3	0.4	0.000527	1.3e-05
318.15	0.3	0.49	0.000487	1.2e-05
318.15	0.3001	0	0.001003	2.4e-05
318.15	0.3001	0.21	0.00067	1.6e-05
318.15	0.3005	0.3497	0.000558	1.3e-05
318.15	0.35	0.2999	0.000609	1.5e-05
318.15	0.35	0.4999	0.000498	1.2e-05
318.15	0.4	0.06	0.000946	2.3e-05
318.15	0.4	0.2	0.000719	1.7e-05
318.15	0.4	0.3	0.00063	1.5e-05
318.15	0.4019	0.1794	0.000761	1.8e-05
318.15	0.4036	0	0.00109	2.6e-05
318.15	0.42	0.4	0.000567	1.4e-05
318.15	0.45	0.1	0.00089	2.1e-05
318.15	0.49	0.3	0.000657	1.6e-05
318.15	0.5002	0	0.001168	2.8e-05
318.15	0.5002	0.15	0.000861	2.1e-05
318.15	0.5006	0.2497	0.000718	1.7e-05
318.15	0.5014	0.0499	0.001034	2.4e-05
318.15	0.56	0.2	0.000814	1.9e-05
318.15	0.6	0	0.001243	3.1e-05
318.15	0.6	0.04	0.001128	2.7e-05
318.15	0.6	0.12	0.000987	2.4e-05
318.15	0.6	0.2	0.000827	2e-05
318.15	0.63	0.1	0.000989	2.5e-05
318.15	0.7	0	0.001298	3.2e-05
318.15	0.7	0.03	0.0012	3e-05
318.15	0.8	0.02	0.001204	3e-05
318.15	0.8007	0	0.001293	3.5e-05
318.15	0.9	0	0.000977	2.4e-05
318.15	0.42	0.4	0.000551	1.3e-05

System: ethanol + ethyl acetate + water; phases: Liquid
Fixed: Pressure, kPa = 101
Property: Mass density, kg/m3 (Liquid); method: VIBTUB:UFactor:3
Temperature, K	Mole fraction of water	Mole fraction of ethyl acetate	Mass density, kg/m3	uncertainty
298.15	0	0.1	801.5	0.33
298.15	0	0.1992	816.25	0.32
298.15	0	0.3006	829.52	0.3
298.15	0	0.3949	840.61	0.29
298.15	0	0.5001	852.04	0.28
298.15	0	0.5987	861.64	0.27
298.15	0	0.7	870.79	0.26
298.15	0	0.7981	879.06	0.25
298.15	0	0.9	886.96	0.24
298.15	0	0.9501	890.81	0.24
298.15	0.0095	0.9047	888.44	0.24
298.15	0.0199	0.8002	881.43	0.25
298.15	0.0269	0.9731	895.32	0.23
298.15	0.0298	0.7001	874.3	0.25
298.15	0.03	0.9001	890.1	0.24
298.15	0.0397	0.6003	866.24	0.26
298.15	0.0469	0.9531	896.13	0.23
298.15	0.0497	0.5002	857.82	0.27
298.15	0.05	0.9001	891.98	0.24
298.15	0.0596	0.4006	848.14	0.28
298.15	0.06	0.8002	885.85	0.24
298.15	0.0696	0.3004	837.6	0.29
298.15	0.07	0.9	894.89	0.23
298.15	0.0722	0.9278	897.09	0.23
298.15	0.0795	0.2002	825.85	0.31
298.15	0.0892	0.9108	897.9	0.23
298.15	0.0894	0.1001	812.45	0.32
298.15	0.0899	0.7006	881.29	0.25
298.15	0.098	0.0902	812.03	0.32
298.15	0.0998	0	797.6	0.34
298.15	0.1	0.27	838.04	0.29
298.15	0.1	0.45	858.99	0.27
298.15	0.1	0.63	876.43	0.25
298.15	0.1	0.8001	890.16	0.24
298.15	0.1045	0.8955	898.48	0.23
298.15	0.12	0.6004	876.23	0.25
298.15	0.1249	0.8751	899.5	0.23
298.15	0.1401	0.8	895.77	0.23
298.15	0.15	0.5005	870.56	0.26
298.15	0.15	0.7001	888.23	0.24
298.15	0.1798	0.4012	864.15	0.26
298.15	0.1999	0.08	823.98	0.31
298.15	0.1999	0.5601	882.73	0.24
298.15	0.2001	0.6	885.98	0.24
298.15	0.2003	0.2401	847.6	0.28
298.15	0.2004	0.3998	866.77	0.26
298.15	0.2018	0	810.78	0.32
298.15	0.2091	0.3036	856.88	0.27
298.15	0.21	0.7001	896.7	0.23
298.15	0.24	0.2007	847.91	0.28
298.15	0.25	0.5004	883.41	0.24
298.15	0.27	0.1008	837.52	0.29
298.15	0.2802	0.5999	897.68	0.23
298.15	0.2989	0.0701	836.94	0.29
298.15	0.3	0.35	875.39	0.25
298.15	0.3002	0.3999	880.33	0.24
298.15	0.3006	0.21	858.16	0.27
298.15	0.3059	0.4859	890.62	0.23
298.15	0.3085	0	826.73	0.3
298.15	0.3501	0.5	898.62	0.22
298.15	0.3503	0.2999	876.56	0.25
298.15	0.3972	0.181	869.48	0.26
298.15	0.4	0.3	885.49	0.24
298.15	0.4	0.42	898.52	0.22
298.15	0.4003	0.2	871.81	0.25
298.15	0.4009	0.0599	851.92	0.28
298.15	0.4145	0	843.26	0.28
298.15	0.4202	0.4	899.74	0.22
298.15	0.4503	0.1001	866.09	0.26
298.15	0.4902	0.2999	901.04	0.22
298.15	0.4989	0.0501	867.26	0.26
298.15	0.4998	0.2501	896.53	0.22
298.15	0.5001	0	858.65	0.27
298.15	0.5004	0.15	882.97	0.24
298.15	0.5573	0.2042	902	0.22
298.15	0.5999	0.04	886.45	0.24
298.15	0.6	0.2	910.13	0.21
298.15	0.6003	0.12	899.27	0.22
298.15	0.6205	0	885.56	0.24
298.15	0.6303	0.1	903.4	0.22
298.15	0.697	0.0303	908.9	0.21
298.15	0.6996	0.0902	917.01	0.2
298.15	0.7005	0	904.69	0.22
298.15	0.7992	0	933.6	0.18
298.15	0.8	0.02	933.52	0.18
298.15	0.8002	0.06	938.09	0.18
298.15	0.9	0.01	962.27	0.16
298.15	0.9001	0.03	965.29	0.15
298.15	0.9051	0	965.51	0.15
318.15	0	0.1	783.09	0.35
318.15	0	0.2001	796.45	0.34
318.15	0	0.3	808.31	0.33
318.15	0	0.4001	819.37	0.31
318.15	0	0.5	829.53	0.3
318.15	0	0.6	838.75	0.29
318.15	0	0.7	847.18	0.28
318.15	0	0.8001	855.16	0.28
318.15	0	0.8999	862.6	0.27
318.15	0.01	0.9	863.62	0.27
318.15	0.02	0.8	857.21	0.27
318.15	0.0249	0.9751	870.81	0.26
318.15	0.03	0.9	865.7	0.27
318.15	0.0301	0.7001	850.51	0.28
318.15	0.0401	0.6	843.07	0.29
318.15	0.05	0.9018	867.93	0.26
318.15	0.0501	0.5	835.14	0.3
318.15	0.0524	0.9476	871.8	0.26
318.15	0.0601	0.4	826.43	0.31
318.15	0.0601	0.8	861.69	0.27
318.15	0.0699	0.9001	870.54	0.26
318.15	0.0702	0.3	816.83	0.32
318.15	0.0766	0.9234	872.73	0.26
318.15	0.0802	0.2	806.06	0.33
318.15	0.0901	0.7	857.44	0.27
318.15	0.0902	0.1	793.8	0.34
318.15	0.0993	0.6305	853.79	0.28
318.15	0.0998	0.8005	866.38	0.26
318.15	0.1	0	780.53	0.36
318.15	0.1	0.09	793.01	0.34
318.15	0.1	0.45	836.69	0.3
318.15	0.1003	0.8997	873.94	0.26
318.15	0.1005	0.2698	817.19	0.32
318.15	0.1201	0.5999	852.82	0.28
318.15	0.1255	0.8745	875.08	0.25
318.15	0.1401	0.7999	871.12	0.26
318.15	0.1501	0.5	847.59	0.28
318.15	0.1501	0.7003	864.9	0.26
318.15	0.1802	0.4	841.83	0.29
318.15	0.2001	0.2402	826.77	0.31
318.15	0.2002	0.5599	859.64	0.27
318.15	0.2002	0.6	863.15	0.26
318.15	0.201	0	793.6	0.34
318.15	0.201	0.0799	805.52	0.33
318.15	0.2028	0.3986	844.85	0.28
318.15	0.2087	0.305	835.33	0.3
318.15	0.21	0.7	872.42	0.25
318.15	0.2402	0.2	827.32	0.3
318.15	0.2501	0.5002	861.18	0.27
318.15	0.2702	0.1	818.16	0.31
318.15	0.2801	0.5999	873.93	0.25
318.15	0.2998	0.2102	837.43	0.29
318.15	0.3	0.07	818.23	0.31
318.15	0.3001	0	807.71	0.32
318.15	0.3003	0.3999	858.68	0.27
318.15	0.3009	0.3496	853.59	0.27
318.15	0.3081	0.4844	868	0.26
318.15	0.3493	0.501	875.49	0.25
318.15	0.3504	0.2999	855.69	0.27
318.15	0.3955	0.1815	848.93	0.28
318.15	0.4	0.06	832.74	0.3
318.15	0.4004	0	823.81	0.31
318.15	0.4004	0.2	852	0.28
318.15	0.4011	0.4193	876.1	0.25
318.15	0.4018	0.2991	864.05	0.26
318.15	0.4179	0.4031	877.26	0.25
318.15	0.4504	0.0999	847.79	0.28
318.15	0.4901	0.3	879.32	0.24
318.15	0.4996	0.2502	875.74	0.25
318.15	0.5003	0	840.31	0.29
318.15	0.5004	0.05	849.59	0.28
318.15	0.5004	0.15	863.58	0.26
318.15	0.56	0.2	881.56	0.24
318.15	0.5998	0	863.31	0.26
318.15	0.5998	0.2001	889.9	0.23
318.15	0.5999	0.1201	880.16	0.24
318.15	0.6001	0.04	869.09	0.26
318.15	0.63	0.1001	884.33	0.24
318.15	0.6999	0.0901	900.41	0.22
318.15	0.7001	0	888.76	0.23
318.15	0.7004	0.03	893.58	0.23
318.15	0.8	0.02	921.59	0.2
318.15	0.8	0.0601	925.41	0.19
318.15	0.8001	0	919.19	0.2
318.15	0.8997	0.01	954.19	0.17
318.15	0.9	0	952.47	0.17
318.15	0.9	0.03	957.55	0.16
