Measured thermophysical data. Experimental Investigation of the Solubility of CO2 in (Acetone + Water)
Source: J. Chem. Eng. Data, 2007, 10.1021/je600571v
Compound 1: carbon dioxide, CO2, InChI=1S/CO2/c2-1-3, purity 99.995%
Compound 2: acetone, C3H6O, InChI=1S/C3H6O/c1-3(2)4/h1-2H3, purity 99.5%
Compound 3: water, H2O, InChI=1S/H2O/h1H2, purity 99.5%

System: acetone + carbon dioxide + water; phases: Liquid, Gas
Property: Molality, mol/kg of carbon dioxide (Liquid); method: Visual observation of dissolution with increased pressure
Solvent: Mole fraction of acetone	Temperature, K	Pressure, kPa	Molality, mol/kg of carbon dioxide	uncertainty
0.05123	313.75	339	0.0851	0.0054
0.05123	313.75	872	0.2222	0.0068
0.05123	313.75	1277	0.3227	0.0081
0.05123	313.75	1862	0.4592	0.0103
0.05123	313.75	2520	0.6055	0.0129
0.05123	313.75	3209	0.7525	0.0156
0.05123	313.75	3984	0.8975	0.0184
0.05123	313.75	4843	1.05	0.0211
0.05123	313.75	4907	1.054	0.0212
0.05123	313.75	5433	1.137	0.0231
0.05123	354.35	586	0.0755	0.0035
0.05123	354.35	1017	0.1431	0.0042
0.05123	354.35	1719	0.2542	0.0059
0.05123	354.35	2668	0.3972	0.0084
0.05123	354.35	3704	0.5441	0.0113
0.05123	354.35	4767	0.6864	0.014
0.05123	354.35	5975	0.8372	0.0169
0.05123	354.35	6637	0.91	0.0183
0.05123	354.35	7315	0.9805	0.0196
0.05123	354.35	9100	1.167	0.0234
0.05123	354.35	9414	1.187	0.0238
0.05123	395	415	0	0.0026
0.05123	395	971	0.0728	0.003
0.05123	395	1459	0.1364	0.0038
0.05123	395	2290	0.2441	0.0055
0.05123	395	3286	0.3678	0.0078
0.05123	395	4616	0.5285	0.0109
0.05123	395	5570	0.6376	0.013
0.05123	395	6873	0.7794	0.0158
0.05123	395	7453	0.8367	0.0169
0.05123	395	7988	0.8946	0.0184
0.05123	395	8114	0.9194	0.0188
0.05123	395	9157	1.018	0.0205
0.10046	313.75	405	0.1195	0.0062
0.10046	313.75	684	0.2089	0.0078
0.10046	313.75	1102	0.3391	0.0093
0.10046	313.75	1523	0.467	0.0108
0.10046	313.75	1954	0.5976	0.0132
0.10046	313.75	2392	0.7281	0.016
0.10046	313.75	2839	0.8564	0.0181
0.10046	313.75	3335	0.9936	0.0086
0.10046	313.75	3846	1.1312	0.0233
0.10046	354.35	157	0	0.0044
0.10046	354.35	1166	0.2199	0.0062
0.10046	354.35	1997	0.397	0.009
0.10046	354.35	2746	0.5531	0.0119
0.10046	354.35	3452	0.6999	0.0147
0.10046	354.35	4242	0.8556	0.0175
0.10046	354.35	5008	1.008	0.0205
0.10046	354.35	6587	1.32	0.0267
0.10046	395	505	0	0.0035
0.10046	395	1344	0.1535	0.0049
0.10046	395	1809	0.2396	0.006
0.10046	395	2887	0.4341	0.0094
0.10046	395	3781	0.5927	0.0124
0.10046	395	4708	0.7562	0.0155
0.10046	395	5650	0.9198	0.0187
0.10046	395	7577	1.236	0.025
0.10046	395	9057	1.5	0.0302
0.10046	395	9666	1.588	0.032
0.24961	313.75	196	0.0961	0.0133
0.24961	313.75	392	0.2098	0.0137
0.24961	313.75	757	0.4624	0.0164
0.24961	313.75	970	0.6097	0.0226
0.24961	313.75	1354	0.8802	0.0233
0.24961	313.75	1504	0.9975	0.0108
0.24961	313.75	1792	1.214	0.0307
0.24961	313.75	2155	1.485	0.0334
0.24961	313.75	2416	1.68	0.0399
0.24961	313.75	2533	1.853	0.0385
0.24961	354.35	187	0	0.0091
0.24961	354.35	918	0.3371	0.0112
0.24961	354.35	1531	0.626	0.0146
0.24961	354.35	2192	0.9659	0.0245
0.24961	354.35	3022	1.321	0.0277
0.24961	354.35	3295	1.524	0.0323
0.24961	354.35	4045	1.918	0.0531
0.24961	354.35	4865	2.561	0.0676
0.24961	395	562	0	0.0079
0.24961	395	1475	0.3605	0.011
0.24961	395	2500	0.7875	0.0176
0.24961	395	3607	1.207	0.0256
0.24961	395	4675	1.675	0.035
0.24961	395	5833	2.209	0.0453
0.24961	395	6216	2.358	0.0481
0.24961	395	7116	2.76	0.0563
0.24961	395	7772	3.098	0.0634
0.24961	395	8546	3.716	0.0761
0.24994	313.75	886	0.543	0.0123
0.24994	313.75	1659	1.062	0.0271
0.24994	354.35	185	0	0.0091
0.24994	354.35	1568	0.631	0.0147
0.24994	354.35	2276	0.9802	0.0242
0.24994	354.35	4009	1.887	0.0527
0.24994	354.35	4920	2.558	0.0675
0.24994	354.35	5185	2.721	0.0579
0.49782	313.75	366	0.4191	0.0306
0.49782	313.75	656	0.855	0.0338
0.49782	313.75	970	1.297	0.0396
0.49782	313.75	1251	1.746	0.0507
0.49782	313.75	1271	1.828	0.0517
0.49782	313.75	1894	2.964	0.0733
0.49782	313.75	2390	4.234	0.0979
0.49782	313.75	2563	4.51	0.115
0.49782	354.35	197	0	0.0173
0.49782	354.35	722	0.4767	0.0206
0.49782	354.35	1346	1.061	0.0308
0.49782	354.35	2663	2.542	0.0558
0.49782	354.35	3523	3.69	0.0793
0.49782	354.35	4351	4.898	0.1038
0.49782	354.35	5225	6.339	0.1292
0.49782	354.35	5282	6.48	0.132
0.49782	354.35	5527	6.944	0.1463
0.49782	395	621	0	0.0139
0.49782	395	1457	0.5821	0.019
0.49782	395	2386	1.302	0.031
0.49782	395	3419	2.154	0.0471
0.49782	395	4351	3.006	0.0638
0.49782	395	5358	3.999	0.0833
0.49782	395	6300	5.034	0.104
0.49782	395	7202	6.032	0.1244
0.49782	395	7812	6.955	0.1433
0.49782	395	8712	8.23	0.1757
0.49782	395	8942	8.557	0.1849
0.7501	313.75	561	1.049	0.0598
0.7501	313.75	901	1.984	0.0671
0.7501	313.75	1227	2.839	0.0809
0.7501	313.75	1739	4.34	0.1079
0.7501	313.75	2108	5.634	0.1378
0.7501	313.75	2892	8.835	0.1989
0.7501	313.75	3254	10.69	0.242
0.7501	313.75	3623	12.86	0.2908
0.7501	313.75	3888	14.79	0.3368
0.7501	313.75	4025	16	0.3615
0.7501	313.75	4119	16.65	0.3635
0.7501	354.35	222	0	0.0268
0.7501	354.35	981	1.015	0.0349
0.7501	354.35	1779	2.256	0.056
0.7501	354.35	3050	4.463	0.0984
0.7501	354.35	3889	6.203	0.1377
0.7501	354.35	4822	8.493	0.1742
0.7501	354.35	5392	10.1	0.2137
0.7501	354.35	6477	13.79	0.2877
0.7501	354.35	7086	16.34	0.3416
0.7501	354.35	7840	20.02	0.4177
0.7501	354.35	8318	22.89	0.4765
0.7501	395	648	0	0.0198
0.7501	395	1641	0.9757	0.0299
0.7501	395	3017	2.583	0.0575
0.7501	395	4154	3.944	0.0834
0.7501	395	4560	4.42	0.0953
0.7501	395	5868	6.499	0.1362
0.7501	395	6944	8.52	0.1787
0.7501	395	7997	10.5	0.2204
0.7501	395	9388	14.11	0.2927
0.8998	313.75	854	2.226	0.0824
0.8998	313.75	1589	4.734	0.1231
0.8998	313.75	2365	8.015	0.1865
0.8998	313.75	2987	11.28	0.2559
0.8998	313.75	3522	14.75	0.3369
0.8998	313.75	4155	20.13	0.4483
0.8998	313.75	4622	25.16	0.5656
0.8998	313.75	5016	30.45	0.6922
0.8998	313.75	5344	36.51	0.8244
0.8998	354.35	223	0	0.0328
0.8998	354.35	1060	1.323	0.0424
0.8998	354.35	2055	3.103	0.0734
0.8998	354.35	3033	5.155	0.1144
0.8998	354.35	4008	7.555	0.1656
0.8998	354.35	4976	10.39	0.2228
0.8998	354.35	5773	12.89	0.2685
0.8998	354.35	6374	15.72	0.336
0.8998	354.35	7513	21.54	0.4479
0.8998	354.35	8113	25.34	0.5338
0.8998	354.35	8815	31.36	0.6561
0.8998	395	652	0	0.0221
0.8998	395	1494	0.9226	0.0307
0.8998	395	2990	2.797	0.0617
0.8998	395	3239	3.087	0.0686
0.8998	395	3895	4.036	0.0878
0.8998	395	4765	5.402	0.1151
0.8998	395	5409	6.453	0.1373
0.8998	395	6880	9.298	0.1936
0.8998	395	7339	10.24	0.2175
0.8998	395	8446	13.16	0.2773
0.8998	395	8885	14.89	0.3191
0.9488	313.75	63	0	0.0586
0.9488	313.75	880	2.39	0.0806
0.9488	313.75	1562	4.836	0.1277
0.9488	313.75	2283	8.094	0.1895
0.9488	313.75	2985	11.76	0.2626
0.9488	313.75	3260	13.64	0.3168
0.9488	313.75	4083	20.34	0.4464
0.9488	313.75	4374	23.44	0.5288
0.9488	313.75	4734	28.04	0.6312
0.9488	313.75	5013	32.05	0.7712
0.9488	313.75	5764	48.48	1.0782
0.9488	354.35	223	0	0.0337
0.9488	354.35	961	1.209	0.0422
0.9488	354.35	1976	3.099	0.0783
0.9488	354.35	2967	5.303	0.1196
0.9488	354.35	4002	7.824	0.176
0.9488	354.35	5055	11.09	0.2495
0.9488	354.35	5763	13.66	0.2923
0.9488	354.35	6392	16.42	0.347
0.9488	354.35	7243	20.79	0.4371
0.9488	354.35	8295	27.85	0.5785
0.9488	395	635	0	0.0233
0.9488	395	1323	0.7865	0.0287
0.9488	395	2359	2.032	0.0486
0.9488	395	3304	3.31	0.0734
0.9488	395	4483	5.124	0.1086
0.9488	395	5337	6.53	0.1382
0.9488	395	6753	9.365	0.1961
0.9488	395	7537	11.35	0.2382
0.9488	395	8526	13.9	0.2919
1	313.75	1001	2.934	0.0954
1	313.75	1383	4.354	0.1228
1	313.75	2337	8.61	0.2021
1	313.75	3022	12.88	0.2897
1	313.75	3441	15.63	0.3544
1	313.75	3665	18.26	0.4401
1	313.75	4763	29.22	0.6636
1	313.75	5006	32.9	0.7539
1	313.75	5215	36.98	0.8561
1	313.75	5572	44.41	0.991
1	354.35	226	0	0.036
1	354.35	1323	1.906	0.0548
1	354.35	2171	3.615	0.0865
1	354.35	3013	5.496	0.1254
1	354.35	4014	8.14	0.1717
1	354.35	4558	9.81	0.2177
1	354.35	5376	12.66	0.2693
1	354.35	6321	16.86	0.352
1	354.35	6960	19.87	0.4155
1	354.35	7886	25.43	0.5912
1	354.35	7909	25.77	0.597
1	395	623	0	0.0237
1	395	1533	1.075	0.0323
1	395	2197	1.849	0.0468
1	395	3665	3.955	0.0864
1	395	4624	5.439	0.1159
1	395	5221	6.568	0.1399
1	395	6361	8.789	0.1848
1	395	6855	9.88	0.2096
1	395	7740	12.27	0.2589
1	395	8246	13.47	0.2813
