Measured thermophysical data. Vapor Pressures and Standard Molar Sublimation Enthalpies of Three 6-Methylthio-2,4-di(alkylamino)-1,3,5-triazine Derivatives: Simetryn, Ametryn, and Terbutryn
Source: J. Chem. Eng. Data, 2007, 10.1021/je600580r
Compound 1: 2-methylthio-4,6-bis(ethylamino)-1,3,5-triazine, C8H15N5S, InChI=1S/C8H15N5S/c1-4-9-6-11-7(10-5-2)13-8(12-6)14-3/h4-5H2,1-3H3,(H2,9,10,11,12,13)
Compound 2: 2-methylthio-4-ethylamino-6-isopropylamino-1,3,5-triazine, C9H17N5S, InChI=1S/C9H17N5S/c1-5-10-7-12-8(11-6(2)3)14-9(13-7)15-4/h6H,5H2,1-4H3,(H2,10,11,12,13,14)
Compound 3: N-(1,1-dimethylethyl)-N'-ethyl-6-(methylthio)-1,3,5-triazine-2,4-diamine, C10H19N5S, InChI=1S/C10H19N5S/c1-6-11-7-12-8(15-10(2,3)4)14-9(13-7)16-5/h6H2,1-5H3,(H2,11,12,13,14,15)

System: 2-methylthio-4,6-bis(ethylamino)-1,3,5-triazine; phases: Crystal, Liquid, Air at 1 atmosphere
Property: Molar enthalpy of transition or fusion, kJ/mol (Crystal); method: DSC
Molar enthalpy of transition or fusion, kJ/mol	uncertainty
24	2

System: 2-methylthio-4,6-bis(ethylamino)-1,3,5-triazine; phases: Crystal, Liquid, Air at 1 atmosphere
Property: Normal melting temperature, K (Crystal); method: DTA
Normal melting temperature, K	uncertainty
350.5	0.5

System: 2-methylthio-4,6-bis(ethylamino)-1,3,5-triazine; phases: Liquid, Gas
Property: Molar enthalpy of vaporization or sublimation, kJ/mol (Liquid); method: DSC
Temperature, K	Molar enthalpy of vaporization or sublimation, kJ/mol	uncertainty
461	88	8

System: 2-methylthio-4,6-bis(ethylamino)-1,3,5-triazine; phases: Liquid, Gas
Property: Molar enthalpy of vaporization or sublimation, kJ/mol (Liquid); method: Derived by Second law
Temperature, K	Molar enthalpy of vaporization or sublimation, kJ/mol	uncertainty
423.7	86.6	2.9

System: 2-methylthio-4,6-bis(ethylamino)-1,3,5-triazine; phases: Liquid, Gas
Property: Molar enthalpy of vaporization or sublimation, kJ/mol (Liquid); method: Derived by Second law
Temperature, K	Molar enthalpy of vaporization or sublimation, kJ/mol	uncertainty
453	83.7	2.9

System: 2-methylthio-4-ethylamino-6-isopropylamino-1,3,5-triazine; phases: Crystal, Liquid, Air at 1 atmosphere
Property: Molar enthalpy of transition or fusion, kJ/mol (Crystal); method: DSC
Molar enthalpy of transition or fusion, kJ/mol	uncertainty
26	4

System: 2-methylthio-4-ethylamino-6-isopropylamino-1,3,5-triazine; phases: Crystal, Liquid, Air at 1 atmosphere
Property: Normal melting temperature, K (Crystal); method: DTA
Normal melting temperature, K	uncertainty
356.7	0.5

System: 2-methylthio-4-ethylamino-6-isopropylamino-1,3,5-triazine; phases: Liquid, Gas
Property: Molar enthalpy of vaporization or sublimation, kJ/mol (Liquid); method: DSC
Temperature, K	Molar enthalpy of vaporization or sublimation, kJ/mol	uncertainty
466	91	8

System: 2-methylthio-4-ethylamino-6-isopropylamino-1,3,5-triazine; phases: Liquid, Gas
Property: Molar enthalpy of vaporization or sublimation, kJ/mol (Liquid); method: Derived by Second law
Temperature, K	Molar enthalpy of vaporization or sublimation, kJ/mol	uncertainty
435.4	87	3.5

System: 2-methylthio-4-ethylamino-6-isopropylamino-1,3,5-triazine; phases: Liquid, Gas
Property: Molar enthalpy of vaporization or sublimation, kJ/mol (Liquid); method: Derived by Second law
Temperature, K	Molar enthalpy of vaporization or sublimation, kJ/mol	uncertainty
453	84.9	2.9

System: N-(1,1-dimethylethyl)-N'-ethyl-6-(methylthio)-1,3,5-triazine-2,4-diamine; phases: Crystal, Liquid, Air at 1 atmosphere
Property: Molar enthalpy of transition or fusion, kJ/mol (Crystal); method: DSC
Molar enthalpy of transition or fusion, kJ/mol	uncertainty
21	4

System: N-(1,1-dimethylethyl)-N'-ethyl-6-(methylthio)-1,3,5-triazine-2,4-diamine; phases: Crystal, Liquid, Air at 1 atmosphere
Property: Normal melting temperature, K (Crystal); method: DTA
Normal melting temperature, K	uncertainty
372.3	0.5

System: N-(1,1-dimethylethyl)-N'-ethyl-6-(methylthio)-1,3,5-triazine-2,4-diamine; phases: Liquid, Gas
Property: Molar enthalpy of vaporization or sublimation, kJ/mol (Liquid); method: Derived by Second law
Temperature, K	Molar enthalpy of vaporization or sublimation, kJ/mol	uncertainty
451.9	83.2	2.4

System: N-(1,1-dimethylethyl)-N'-ethyl-6-(methylthio)-1,3,5-triazine-2,4-diamine; phases: Liquid, Gas
Property: Molar enthalpy of vaporization or sublimation, kJ/mol (Liquid); method: Derived by Second law
Temperature, K	Molar enthalpy of vaporization or sublimation, kJ/mol	uncertainty
433.6	83	3.3

System: N-(1,1-dimethylethyl)-N'-ethyl-6-(methylthio)-1,3,5-triazine-2,4-diamine; phases: Liquid, Gas
Property: Molar enthalpy of vaporization or sublimation, kJ/mol (Liquid); method: DSC
Temperature, K	Molar enthalpy of vaporization or sublimation, kJ/mol	uncertainty
467	87	10
