Measured thermophysical data. Isothermal Vapor-Liquid Equilibrium at 333.15 K, Density, and Refractive Index at 298.15 K for the Ternary Mixture of Dibutyl Ether + Ethanol + Benzene and Binary Subsystems
Source: J. Chem. Eng. Data, 2007, 10.1021/je600578u
Compound 1: dibutyl ether, C8H18O, InChI=1S/C8H18O/c1-3-5-7-9-8-6-4-2/h3-8H2,1-2H3
Compound 2: ethanol, C2H6O, InChI=1S/C2H6O/c1-2-3/h3H,2H2,1H3
Compound 3: benzene, C6H6, InChI=1S/C6H6/c1-2-4-6-5-3-1/h1-6H

System: dibutyl ether; phases: Liquid
Property: Refractive index (Na D-line) (Liquid); method: Standard Abbe refractometry
Temperature, K	Pressure, kPa	Refractive index (Na D-line)	uncertainty
298.15	101.325	1.39646	0.00052

System: dibutyl ether; phases: Liquid
Property: Mass density, kg/m3 (Liquid); method: VIBTUB:UFactor:4
Temperature, K	Pressure, kPa	Mass density, kg/m3	uncertainty
298.15	101.325	764.22	0.99

System: ethanol; phases: Liquid
Property: Refractive index (Na D-line) (Liquid); method: Standard Abbe refractometry
Temperature, K	Pressure, kPa	Refractive index (Na D-line)	uncertainty
298.15	101.325	1.35928	0.00052

System: ethanol; phases: Liquid
Property: Mass density, kg/m3 (Liquid); method: VIBTUB:UFactor:4
Temperature, K	Pressure, kPa	Mass density, kg/m3	uncertainty
298.15	101.325	785.27	0.98

System: benzene; phases: Liquid
Property: Refractive index (Na D-line) (Liquid); method: Standard Abbe refractometry
Temperature, K	Pressure, kPa	Refractive index (Na D-line)	uncertainty
298.15	101.325	1.49764	0.00054

System: benzene; phases: Liquid
Property: Mass density, kg/m3 (Liquid); method: VIBTUB:UFactor:4
Temperature, K	Pressure, kPa	Mass density, kg/m3	uncertainty
298.15	101.325	873.57	0.96

System: ethanol + dibutyl ether; phases: Liquid
Fixed: Temperature, K = 298.15
Fixed: Pressure, kPa = 101
Property: Refractive index (Na D-line) (Liquid); method: Standard Abbe refractometry
Mole fraction of dibutyl ether	Refractive index (Na D-line)	uncertainty
0.0502	1.3643	0.00052
0.0997	1.36848	0.00052
0.1995	1.37548	0.00052
0.3	1.38028	0.00052
0.4	1.38429	0.00052
0.5003	1.38771	0.00052
0.6022	1.39046	0.00052
0.7013	1.39237	0.00052
0.8005	1.39414	0.00052
0.9014	1.3955	0.00052
0.9489	1.39608	0.00052

System: ethanol + dibutyl ether; phases: Liquid
Fixed: Temperature, K = 298.15
Fixed: Pressure, kPa = 101
Property: Mass density, kg/m3 (Liquid); method: VIBTUB:UFactor:4
Mole fraction of dibutyl ether	Mass density, kg/m3	uncertainty
0.0502	782.69	0.98
0.0997	780.5	0.98
0.1995	777.02	0.98
0.3	774.28	0.98
0.4	772.09	0.98
0.5003	770.31	0.98
0.6022	768.81	0.98
0.7013	767.53	0.98
0.8005	766.35	0.98
0.9014	765.28	0.98
0.9489	764.79	0.98

System: ethanol + dibutyl ether; phases: Gas, Liquid
Fixed: Temperature, K = 333.15
Property: Mole fraction of ethanol (Gas); method: Chromatography
Mole fraction of ethanol	Mole fraction of ethanol	uncertainty
0.0191	0.4988	0.013
0.0391	0.6288	0.0124
0.0604	0.701	0.0119
0.0782	0.7368	0.0116
0.1175	0.7784	0.0113
0.1682	0.8195	0.0109
0.2278	0.844	0.0108
0.349	0.8621	0.0106
0.529	0.8898	0.0104
0.5896	0.9017	0.0103
0.6496	0.9036	0.0103
0.7095	0.916	0.0103
0.7697	0.9265	0.0102
0.8296	0.9416	0.0101
0.8796	0.9485	0.0101
0.9201	0.9633	0.0101
0.94	0.9706	0.01
0.9601	0.978	0.01
0.9802	0.9884	0.01

System: benzene + dibutyl ether; phases: Liquid
Fixed: Temperature, K = 298.15
Fixed: Pressure, kPa = 101
Property: Refractive index (Na D-line) (Liquid); method: Standard Abbe refractometry
Mole fraction of dibutyl ether	Refractive index (Na D-line)	uncertainty
0.0502	1.48717	0.00054
0.0999	1.47826	0.00054
0.1999	1.46325	0.00054
0.2999	1.45049	0.00054
0.4	1.43935	0.00054
0.4994	1.42978	0.00054
0.6002	1.42142	0.00054
0.6985	1.41407	0.00054
0.8005	1.40759	0.00054
0.9014	1.40163	0.00054
0.9506	1.39897	0.00054

System: benzene + dibutyl ether; phases: Liquid
Fixed: Temperature, K = 298.15
Fixed: Pressure, kPa = 101
Property: Mass density, kg/m3 (Liquid); method: Vibrating tube method
Mole fraction of dibutyl ether	Mass density, kg/m3	uncertainty
0.0502	863.1	0.72
0.0999	853.73	0.71
0.1999	837.31	0.69
0.2999	823.35	0.68
0.4	811.31	0.67
0.4994	800.95	0.66
0.6002	791.7	0.65
0.6985	783.71	0.64
0.8005	776.38	0.63
0.9014	769.91	0.63
0.9506	767.02	0.62

System: benzene + dibutyl ether; phases: Gas, Liquid
Fixed: Temperature, K = 333.15
Property: Mole fraction of benzene (Gas); method: Chromatography
Mole fraction of benzene	Mole fraction of benzene	uncertainty
0.0187	0.1463	0.0102
0.0406	0.2718	0.0105
0.0589	0.3592	0.0111
0.0787	0.4402	0.012
0.1187	0.5571	0.0128
0.1691	0.6885	0.012
0.2286	0.7499	0.0115
0.2895	0.8014	0.0111
0.3485	0.8409	0.0108
0.4096	0.8746	0.0105
0.4689	0.892	0.0104
0.5291	0.9115	0.0103
0.5895	0.9291	0.0102
0.6493	0.9439	0.0101
0.7094	0.9557	0.0101
0.7693	0.9668	0.01
0.8298	0.9768	0.01
0.8799	0.9816	0.01
0.9199	0.9891	0.01
0.9402	0.9908	0.0092
0.9603	0.995	0.005
0.9804	0.9981	0.0019

System: ethanol + benzene; phases: Gas, Liquid
Fixed: Temperature, K = 333.15
Property: Mole fraction of ethanol (Gas); method: Chromatography
Mole fraction of ethanol	Mole fraction of ethanol	uncertainty
0.0029	0.0632	0.015
0.006	0.0639	0.015
0.0089	0.0833	0.0151
0.0396	0.1982	0.0151
0.0595	0.2361	0.0152
0.0795	0.2763	0.0153
0.1195	0.314	0.0155
0.1695	0.3401	0.0156
0.2296	0.3725	0.0158
0.2898	0.3808	0.0159
0.3499	0.3906	0.016
0.41	0.4115	0.0161
0.4701	0.4308	0.0163
0.5303	0.4522	0.0165
0.5904	0.4677	0.0167
0.6504	0.4903	0.017
0.7053	0.536	0.017
0.7705	0.5762	0.0169
0.8305	0.6154	0.0167
0.8804	0.6776	0.0165
0.9203	0.738	0.0161
0.9403	0.7891	0.0158
0.9602	0.8401	0.0155
0.9801	0.8927	0.0153

System: ethanol + benzene + dibutyl ether; phases: Liquid
Fixed: Temperature, K = 298.15
Fixed: Pressure, kPa = 101
Property: Refractive index (Na D-line) (Liquid); method: Standard Abbe refractometry
Mole fraction of dibutyl ether	Mole fraction of ethanol	Refractive index (Na D-line)	uncertainty
0.0202	0.7999	1.39369	0.00054
0.0203	0.18	1.47571	0.00054
0.0299	0.6999	1.40817	0.00054
0.03	0.9	1.37543	0.00054
0.0301	0.0687	1.48585	0.00054
0.0301	0.2697	1.46398	0.00054
0.0402	0.5997	1.42116	0.00054
0.0405	0.3591	1.45188	0.00054
0.0497	0.4502	1.43873	0.00054
0.0602	0.54	1.42623	0.00054
0.0698	0.8995	1.37114	0.00054
0.0699	0.0289	1.48147	0.00054
0.0898	0.7	1.40065	0.00054
0.0901	0.2101	1.46034	0.00054
0.0996	0.8003	1.38448	0.00054
0.0999	0.0994	1.47	0.00054
0.1199	0.2787	1.44803	0.00054
0.1203	0.5997	1.4108	0.00054
0.1487	0.501	1.41928	0.00054
0.1501	0.1484	1.45687	0.00054
0.1501	0.3492	1.43628	0.00054
0.1507	0.6994	1.3938	0.00054
0.1799	0.02	1.46448	0.00054
0.1802	0.4193	1.42489	0.00054
0.1803	0.7997	1.37674	0.00054
0.1993	0.6012	1.40125	0.00054
0.1997	0.2	1.44513	0.00054
0.2098	0.0904	1.454	0.00054
0.25	0.5005	1.4079	0.00054
0.2505	0.2486	1.43397	0.00054
0.27	0.0293	1.45156	0.00054
0.2706	0.6986	1.38265	0.00054
0.2794	0.5994	1.39379	0.00054
0.2796	0.1208	1.44253	0.00054
0.2993	0.3997	1.41371	0.00054
0.3001	0.3003	1.4233	0.00054
0.3498	0.151	1.43201	0.00054
0.3506	0.4997	1.39866	0.00054
0.36	0.0406	1.4403	0.00054
0.3604	0.5997	1.38718	0.00054
0.3998	0.2994	1.41384	0.00054
0.4002	0.0587	1.4347	0.00054
0.4004	0.1804	1.42443	0.00054
0.4205	0.4001	1.40274	0.00054
0.4497	0.4995	1.39083	0.00054
0.4991	0.0499	1.42615	0.00054
0.4997	0.2489	1.41024	0.00054
0.4998	0.1492	1.41811	0.00054
0.5006	0.3497	1.40094	0.00054
0.5394	0.4005	1.39389	0.00054
0.599	0.0408	1.41858	0.00054
0.5996	0.3597	1.39344	0.00054
0.6	0.2801	1.39992	0.00054
0.6009	0.1973	1.40649	0.00054
0.6015	0.1181	1.41282	0.00054
0.6998	0.2095	1.39908	0.00054
0.7003	0.2689	1.39471	0.00054
0.7004	0.0887	1.40786	0.00054
0.7013	0.1483	1.40344	0.00054
0.7048	0.0257	1.41212	0.00054
0.7988	0.1017	1.40087	0.00054
0.8004	0.019	1.40634	0.00054
0.8009	0.1795	1.39542	0.00054
0.9009	0.0289	1.39981	0.00054

System: ethanol + benzene + dibutyl ether; phases: Liquid
Fixed: Temperature, K = 298.15
Fixed: Pressure, kPa = 101
Property: Mass density, kg/m3 (Liquid); method: VIBTUB:UFactor:4
Mole fraction of dibutyl ether	Mole fraction of ethanol	Mass density, kg/m3	uncertainty
0.0202	0.7999	806.13	0.97
0.0203	0.18	857.23	0.96
0.0299	0.6999	814.52	0.97
0.03	0.9	792.75	0.97
0.0301	0.0687	862.51	0.96
0.0301	0.2697	849.23	0.96
0.0402	0.5997	821.79	0.97
0.0405	0.3591	840.9	0.97
0.0497	0.4502	832.34	0.97
0.0602	0.54	823.15	0.97
0.0698	0.8995	785.58	0.98
0.0699	0.0289	857.25	0.96
0.0898	0.7	803.6	0.97
0.0901	0.2101	842.1	0.97
0.0996	0.8003	791.83	0.97
0.0999	0.0994	847.41	0.96
0.1199	0.2787	832.26	0.97
0.1203	0.5997	807.67	0.97
0.1487	0.501	811.38	0.97
0.1501	0.1484	835.9	0.97
0.1501	0.3492	822.52	0.97
0.1507	0.6994	793.9	0.97
0.1799	0.02	839.03	0.97
0.1802	0.4193	812.91	0.97
0.1803	0.7997	779.71	0.98
0.1993	0.6012	795.63	0.97
0.1997	0.2	825.04	0.97
0.2098	0.0904	830.38	0.97
0.25	0.5005	797.01	0.97
0.2505	0.2486	814.85	0.97
0.27	0.0293	825.46	0.97
0.2706	0.6986	777.92	0.98
0.2794	0.5994	785.42	0.98
0.2796	0.1208	818.97	0.97
0.2993	0.3997	798.26	0.97
0.3001	0.3003	805.09	0.97
0.3498	0.151	808.59	0.97
0.3506	0.4997	785.06	0.98
0.36	0.0406	813.56	0.97
0.3604	0.5997	776.36	0.98
0.3998	0.2994	793.68	0.97
0.4002	0.0587	808.11	0.97
0.4004	0.1804	801.12	0.97
0.4205	0.4001	784.85	0.98
0.4497	0.4995	775.08	0.98
0.4991	0.0499	798.48	0.97
0.4997	0.2489	786.99	0.98
0.4998	0.1492	792.95	0.97
0.5006	0.3497	780.55	0.98
0.5394	0.4005	773.77	0.98
0.599	0.0408	789.95	0.97
0.5996	0.3597	771.6	0.98
0.6	0.2801	776.27	0.98
0.6009	0.1973	781.07	0.98
0.6015	0.1181	785.65	0.98
0.6998	0.2095	772.79	0.98
0.7003	0.2689	769.43	0.98
0.7004	0.0887	779.23	0.98
0.7013	0.1483	775.94	0.98
0.7048	0.0257	782.26	0.98
0.7988	0.1017	771.6	0.98
0.8004	0.019	775.61	0.98
0.8009	0.1795	767.38	0.98
0.9009	0.0289	768.54	0.98

System: ethanol + benzene + dibutyl ether; phases: Gas, Liquid
Fixed: Temperature, K = 333.15
Property: Mole fraction of ethanol (Gas); method: Chromatography
Mole fraction of dibutyl ether	Mole fraction of ethanol	Mole fraction of ethanol	uncertainty
0.0199	0.8003	0.6597	0.0166
0.0202	0.1803	0.3818	0.014
0.0296	0.0683	0.2593	0.0148
0.0298	0.7007	0.5979	0.014
0.0298	0.9001	0.8214	0.018
0.0305	0.2693	0.4216	0.0124
0.0397	0.3593	0.4586	0.0129
0.0403	0.5995	0.5562	0.0137
0.0497	0.4497	0.4997	0.0136
0.0594	0.5409	0.5426	0.0135
0.0697	0.0299	0.1801	0.0249
0.07	0.9	0.901	0.0205
0.09	0.6999	0.6627	0.0163
0.0904	0.2117	0.4049	0.0128
0.0998	0.0997	0.3187	0.0133
0.1	0.8	0.7834	0.0154
0.1195	0.2793	0.4531	0.0133
0.12	0.6	0.6187	0.0143
0.1496	0.15	0.377	0.0139
0.1496	0.3497	0.5028	0.0139
0.1498	0.5002	0.5757	0.0138
0.15	0.6997	0.7328	0.0182
0.1738	0.0541	0.1651	0.019
0.1798	0.8003	0.9077	0.0184
0.1799	0.4186	0.553	0.0136
0.1999	0.1997	0.4406	0.0139
0.2001	0.6001	0.6882	0.0142
0.2097	0.0898	0.3323	0.0148
0.2097	0.7007	0.802	0.0153
0.2492	0.2499	0.493	0.0145
0.2501	0.4995	0.6484	0.0152
0.2699	0.03	0.21	0.0219
0.27	0.7003	0.8848	0.0167
0.2797	0.1198	0.3987	0.0148
0.2806	0.5997	0.7685	0.0167
0.2999	0.3998	0.6083	0.0148
0.3005	0.2997	0.5511	0.0147
0.3501	0.5003	0.7383	0.0159
0.3502	0.1498	0.4669	0.0217
0.3594	0.0421	0.2806	0.0215
0.3601	0.6001	0.8622	0.0155
0.4002	0.3	0.5973	0.0152
0.4003	0.0589	0.3034	0.0189
0.4012	0.1784	0.4949	0.0176
0.4201	0.3998	0.6966	0.0151
0.4491	0.5013	0.8448	0.0158
0.4993	0.3492	0.7149	0.0155
0.4994	0.0499	0.3049	0.0236
0.4998	0.1487	0.5143	0.0198
0.5003	0.2489	0.6154	0.0162
0.5395	0.3996	0.8162	0.0153
0.5995	0.0417	0.3109	0.0305
0.5996	0.1209	0.5303	0.0246
0.5998	0.2796	0.7292	0.0181
0.6002	0.2	0.637	0.0175
0.6973	0.1525	0.6457	0.0233
0.6993	0.2083	0.7404	0.0189
0.7011	0.0896	0.5271	0.0318
0.7015	0.269	0.8239	0.0173
0.7022	0.0284	0.2833	0.0418
0.7988	0.1013	0.6386	0.0371
0.8011	0.0187	0.2581	0.0473
0.8035	0.1782	0.8147	0.0248
0.899	0.069	0.6662	0.0881
0.9019	0.0284	0.3208	0.0856

System: ethanol + benzene + dibutyl ether; phases: Gas, Liquid
Fixed: Temperature, K = 333.15
Property: Mole fraction of dibutyl ether (Gas); method: Chromatography
Mole fraction of dibutyl ether	Mole fraction of ethanol	Mole fraction of dibutyl ether	uncertainty
0.0199	0.8003	0.0045	0.0045
0.0202	0.1803	0.0014	0.0014
0.0296	0.0683	0.0032	0.0032
0.0298	0.7007	0.0056	0.0056
0.0298	0.9001	0.0111	0.01
0.0305	0.2693	0.0025	0.0025
0.0397	0.3593	0.0037	0.0037
0.0403	0.5995	0.0071	0.0071
0.0497	0.4497	0.0053	0.0053
0.0594	0.5409	0.0084	0.0084
0.0697	0.0299	0.0091	0.0091
0.07	0.9	0.0265	0.0101
0.09	0.6999	0.0195	0.01
0.0904	0.2117	0.01	0.01
0.0998	0.0997	0.0112	0.01
0.1	0.8	0.027	0.01
0.1195	0.2793	0.0152	0.01
0.12	0.6	0.0192	0.01
0.1496	0.15	0.0186	0.01
0.1496	0.3497	0.0183	0.01
0.1498	0.5002	0.024	0.01
0.15	0.6997	0.0311	0.0101
0.1738	0.0541	0.0203	0.01
0.1798	0.8003	0.0507	0.0101
0.1799	0.4186	0.0239	0.01
0.1999	0.1997	0.0229	0.01
0.2001	0.6001	0.0357	0.01
0.2097	0.0898	0.0244	0.01
0.2097	0.7007	0.0466	0.01
0.2492	0.2499	0.0286	0.01
0.2501	0.4995	0.0396	0.0101
0.2699	0.03	0.0333	0.01
0.27	0.7003	0.0614	0.0101
0.2797	0.1198	0.0314	0.01
0.2806	0.5997	0.0548	0.0101
0.2999	0.3998	0.0427	0.01
0.3005	0.2997	0.0391	0.01
0.3501	0.5003	0.0573	0.0101
0.3502	0.1498	0.0345	0.01
0.3594	0.0421	0.043	0.0101
0.3601	0.6001	0.0723	0.0101
0.4002	0.3	0.053	0.0101
0.4003	0.0589	0.0549	0.01
0.4012	0.1784	0.0448	0.01
0.4201	0.3998	0.069	0.0101
0.4491	0.5013	0.0775	0.01
0.4993	0.3492	0.0799	0.0101
0.4994	0.0499	0.0725	0.0102
0.4998	0.1487	0.0589	0.01
0.5003	0.2489	0.0728	0.0101
0.5395	0.3996	0.0908	0.0101
0.5995	0.0417	0.0974	0.0103
0.5996	0.1209	0.0844	0.01
0.5998	0.2796	0.1016	0.0102
0.6002	0.2	0.0912	0.0101
0.6973	0.1525	0.1243	0.0101
0.6993	0.2083	0.1197	0.0101
0.7011	0.0896	0.1237	0.0102
0.7015	0.269	0.1292	0.0102
0.7022	0.0284	0.1439	0.0113
0.7988	0.1013	0.175	0.0111
0.8011	0.0187	0.2224	0.0138
0.8035	0.1782	0.1527	0.0106
0.899	0.069	0.2522	0.0379
0.9019	0.0284	0.3989	0.0365
