Measured thermophysical data. Dielectric Constants of Aqueous Diisopropanolamine, Diethanolamine, N-Methyldiethanolamine, Triethanolamine, and 2-Amino-2-methyl-1-propanol Solutions
Source: J. Chem. Eng. Data, 2007, 10.1021/je600515j
Compound 1: diethanolamine, C4H11NO2, InChI=1S/C4H11NO2/c6-3-1-5-2-4-7/h5-7H,1-4H2, purity 99%
Compound 2: N-(2-hydroxypropyl)-2-hydroxy-1-propanamine, C6H15NO2, InChI=1S/C6H15NO2/c1-5(8)3-7-4-6(2)9/h5-9H,3-4H2,1-2H3, purity 99%
Compound 3: N-methyldiethanolamine, C5H13NO2, InChI=1S/C5H13NO2/c1-6(2-4-7)3-5-8/h7-8H,2-5H2,1H3, purity 98.5%
Compound 4: triethanolamine, C6H15NO3, InChI=1S/C6H15NO3/c8-4-1-7(2-5-9)3-6-10/h8-10H,1-6H2, purity 99.91%
Compound 5: 2-amino-2-methylpropan-1-ol, C4H11NO, InChI=1S/C4H11NO/c1-4(2,5)3-6/h6H,3,5H2,1-2H3, purity 99%
Compound 6: 1,2-propanediol, C3H8O2, InChI=1S/C3H8O2/c1-3(5)2-4/h3-5H,2H2,1H3, purity 99%
Compound 7: water, H2O, InChI=1S/H2O/h1H2, purity 99%

System: diethanolamine; phases: Liquid
Fixed: Pressure, kPa = 101.325
Property: Relative permittivity at zero frequency (Liquid); method: dielectric analyzer
Temperature, K	Relative permittivity at zero frequency	uncertainty
303.15	24.69	0.49
308.15	24.3	0.49
313.15	23.86	0.48
318.15	23.28	0.47
323.15	22.63	0.45
328.15	22.13	0.44

System: N-(2-hydroxypropyl)-2-hydroxy-1-propanamine; phases: Liquid
Fixed: Pressure, kPa = 101.325
Property: Relative permittivity at zero frequency (Liquid); method: dielectric analyzer
Temperature, K	Relative permittivity at zero frequency	uncertainty
303.15	13.87	0.28
308.15	13.75	0.28
313.15	13.62	0.27
318.15	13.49	0.27
323.15	13.36	0.27
328.15	13.26	0.27

System: N-methyldiethanolamine; phases: Liquid
Fixed: Pressure, kPa = 101.325
Property: Relative permittivity at zero frequency (Liquid); method: dielectric analyzer
Temperature, K	Relative permittivity at zero frequency	uncertainty
303.15	21.84	0.44
308.15	21.33	0.43
313.15	20.83	0.42
318.15	20.32	0.41
323.15	19.79	0.4
328.15	19.28	0.39

System: triethanolamine; phases: Liquid
Fixed: Pressure, kPa = 101.325
Property: Relative permittivity at zero frequency (Liquid); method: dielectric analyzer
Temperature, K	Relative permittivity at zero frequency	uncertainty
303.15	28.11	0.56
308.15	27.41	0.55
313.15	26.73	0.53
318.15	26.07	0.52
323.15	25.41	0.51
328.15	24.8	0.5

System: 2-amino-2-methylpropan-1-ol; phases: Liquid
Fixed: Pressure, kPa = 101.325
Property: Relative permittivity at zero frequency (Liquid); method: dielectric analyzer
Temperature, K	Relative permittivity at zero frequency	uncertainty
303.15	20.59	0.41
308.15	20.11	0.4
313.15	19.69	0.39
318.15	19.27	0.39
323.15	18.88	0.38
328.15	18.37	0.37

System: 1,2-propanediol; phases: Liquid
Fixed: Pressure, kPa = 101.325
Property: Relative permittivity at zero frequency (Liquid); method: dielectric analyzer
Temperature, K	Relative permittivity at zero frequency	uncertainty
303.15	27.87	0.56
308.15	27.13	0.54
313.15	26.43	0.53
318.15	25.76	0.52
323.15	25.08	0.5
328.15	24.57	0.49

System: diethanolamine + water; phases: Liquid
Fixed: Pressure, kPa = 101
Property: Relative permittivity at zero frequency (Liquid); method: dielectric analyzer
Temperature, K	Mole fraction of diethanolamine	Relative permittivity at zero frequency	uncertainty
303.15	0.2	52.65	1.05
303.15	0.4	39.11	0.78
303.15	0.6	30.57	0.61
303.15	0.8	26.95	0.54
308.15	0.2	51.53	1.03
308.15	0.4	38.06	0.76
308.15	0.6	29.75	0.6
308.15	0.8	26.41	0.53
313.15	0.2	49.58	0.99
313.15	0.4	36.95	0.74
313.15	0.6	28.91	0.58
313.15	0.8	25.86	0.52
318.15	0.2	48.31	0.97
318.15	0.4	35.81	0.72
318.15	0.6	28.07	0.56
318.15	0.8	25.42	0.51
323.15	0.2	46.78	0.94
323.15	0.4	34.68	0.69
323.15	0.6	27.36	0.55
323.15	0.8	24.81	0.5
328.15	0.2	45.68	0.91
328.15	0.4	33.73	0.67
328.15	0.6	26.7	0.53
328.15	0.8	24.13	0.48

System: N-(2-hydroxypropyl)-2-hydroxy-1-propanamine + water; phases: Liquid
Fixed: Pressure, kPa = 101
Property: Relative permittivity at zero frequency (Liquid); method: dielectric analyzer
Temperature, K	Mole fraction of N-(2-hydroxypropyl)-2-hydroxy-1-propanamine	Relative permittivity at zero frequency	uncertainty
303.15	0.2	41.34	0.83
303.15	0.4	24.52	0.49
303.15	0.6	18.46	0.37
303.15	0.8	16.65	0.33
308.15	0.2	40.27	0.81
308.15	0.4	24	0.48
308.15	0.6	18.15	0.36
308.15	0.8	16.45	0.33
313.15	0.2	39.35	0.79
313.15	0.4	23.48	0.47
313.15	0.6	17.84	0.36
313.15	0.8	16.26	0.33
318.15	0.2	38.46	0.77
318.15	0.4	23	0.46
318.15	0.6	17.53	0.35
318.15	0.8	16.05	0.32
323.15	0.2	37.74	0.75
323.15	0.4	22.52	0.45
323.15	0.6	17.2	0.34
323.15	0.8	15.83	0.32
328.15	0.2	37.16	0.74
328.15	0.4	22.19	0.44
328.15	0.6	16.97	0.34
328.15	0.8	15.66	0.31

System: N-methyldiethanolamine + water; phases: Liquid
Fixed: Pressure, kPa = 101
Property: Relative permittivity at zero frequency (Liquid); method: dielectric analyzer
Temperature, K	Mole fraction of N-methyldiethanolamine	Relative permittivity at zero frequency	uncertainty
303.15	0.2	48.77	0.98
303.15	0.4	33.92	0.68
303.15	0.6	26.68	0.53
303.15	0.8	23.44	0.47
308.15	0.2	47.54	0.95
308.15	0.4	33.09	0.66
308.15	0.6	26.03	0.52
308.15	0.8	22.86	0.46
313.15	0.2	46.36	0.93
313.15	0.4	32.16	0.64
313.15	0.6	25.4	0.51
313.15	0.8	22.31	0.45
318.15	0.2	45.14	0.9
318.15	0.4	31.25	0.63
318.15	0.6	24.69	0.49
318.15	0.8	21.77	0.44
323.15	0.2	43.98	0.88
323.15	0.4	30.37	0.61
323.15	0.6	23.96	0.48
323.15	0.8	21.15	0.42
328.15	0.2	42.68	0.85
328.15	0.4	29.41	0.59
328.15	0.6	23.21	0.46
328.15	0.8	20.56	0.41

System: triethanolamine + water; phases: Liquid
Fixed: Pressure, kPa = 101
Property: Relative permittivity at zero frequency (Liquid); method: dielectric analyzer
Temperature, K	Mole fraction of triethanolamine	Relative permittivity at zero frequency	uncertainty
303.15	0.2	49.25	0.99
303.15	0.4	36.34	0.73
303.15	0.6	31.48	0.63
303.15	0.8	29.67	0.59
308.15	0.2	48.14	0.96
308.15	0.4	35.44	0.71
308.15	0.6	30.66	0.61
308.15	0.8	28.92	0.58
313.15	0.2	47.23	0.94
313.15	0.4	34.53	0.69
313.15	0.6	29.85	0.6
313.15	0.8	28.17	0.56
318.15	0.2	46.33	0.93
318.15	0.4	33.6	0.67
318.15	0.6	29.05	0.58
318.15	0.8	27.43	0.55
323.15	0.2	45.45	0.91
323.15	0.4	32.73	0.65
323.15	0.6	28.25	0.57
323.15	0.8	26.69	0.53
328.15	0.2	44.63	0.89
328.15	0.4	31.93	0.64
328.15	0.6	27.51	0.55
328.15	0.8	26.04	0.52

System: 2-amino-2-methylpropan-1-ol + water; phases: Liquid
Fixed: Pressure, kPa = 101
Property: Relative permittivity at zero frequency (Liquid); method: dielectric analyzer
Temperature, K	Mole fraction of 2-amino-2-methylpropan-1-ol	Relative permittivity at zero frequency	uncertainty
303.15	0.2	48.24	0.96
303.15	0.4	33.65	0.67
303.15	0.6	26.63	0.53
303.15	0.8	23.35	0.47
308.15	0.2	47.33	0.95
308.15	0.4	32.99	0.66
308.15	0.6	26.17	0.52
308.15	0.8	22.82	0.46
313.15	0.2	46.43	0.93
313.15	0.4	32.33	0.65
313.15	0.6	25.65	0.51
313.15	0.8	22.28	0.45
318.15	0.2	45.46	0.91
318.15	0.4	31.8	0.64
318.15	0.6	25.14	0.5
318.15	0.8	21.87	0.44
323.15	0.2	44.31	0.89
323.15	0.4	31.15	0.62
323.15	0.6	24.95	0.5
323.15	0.8	21.42	0.43
328.15	0.2	43.13	0.86
328.15	0.4	30.11	0.6
328.15	0.6	24.37	0.49
328.15	0.8	21.03	0.42
