Measured thermophysical data. Solid-Liquid Equilibria under High Pressure of Eight Pure n-Alkylcyclohexanes
Source: J. Chem. Eng. Data, 2007, 10.1021/je600575r
Compound 1: decylcyclohexane, C16H32, InChI=1S/C16H32/c1-2-3-4-5-6-7-8-10-13-16-14-11-9-12-15-16/h16H,2-15H2,1H3, purity 99.7%
Compound 2: undecane, 1-cyclohexyl-, C17H34, InChI=1S/C17H34/c1-2-3-4-5-6-7-8-9-11-14-17-15-12-10-13-16-17/h17H,2-16H2,1H3, purity 99.3%
Compound 3: dodecylcyclohexane, C18H36, InChI=1S/C18H36/c1-2-3-4-5-6-7-8-9-10-12-15-18-16-13-11-14-17-18/h18H,2-17H2,1H3, purity 99.7%
Compound 4: cyclohexane, tridecyl-, C19H38, InChI=1S/C19H38/c1-2-3-4-5-6-7-8-9-10-11-13-16-19-17-14-12-15-18-19/h19H,2-18H2,1H3, purity 99%
Compound 5: tetradecylcyclohexane, C20H40, InChI=1S/C20H40/c1-2-3-4-5-6-7-8-9-10-11-12-14-17-20-18-15-13-16-19-20/h20H,2-19H2,1H3, purity 99.2%
Compound 6: cyclohexane, pentadecyl-, C21H42, InChI=1S/C21H42/c1-2-3-4-5-6-7-8-9-10-11-12-13-15-18-21-19-16-14-17-20-21/h21H,2-20H2,1H3, purity 99%
Compound 7: octadecylcyclohexane, C24H48, InChI=1S/C24H48/c1-2-3-4-5-6-7-8-9-10-11-12-13-14-15-16-18-21-24-22-19-17-20-23-24/h24H,2-23H2,1H3, purity 99%
Compound 8: nonadecylcyclohexane, C25H50, InChI=1S/C25H50/c1-2-3-4-5-6-7-8-9-10-11-12-13-14-15-16-17-19-22-25-23-20-18-21-24-25/h25H,2-24H2,1H3, purity 99.5%

System: decylcyclohexane; phases: Crystal, Liquid
Property: Solid-liquid equilibrium temperature, K (Crystal); method: VISOBS:corrimp
Pressure, kPa	Solid-liquid equilibrium temperature, K	uncertainty
100	271.3	0.5
20000	276	0.5
40100	280.5	0.6
59900	284.8	0.6
80100	289.2	0.6
100100	293.9	0.6

System: undecane, 1-cyclohexyl-; phases: Crystal, Liquid
Property: Solid-liquid equilibrium temperature, K (Crystal); method: VISOBS:corrimp
Pressure, kPa	Solid-liquid equilibrium temperature, K	uncertainty
100	272.4	0.8
20000	276.8	0.8
40000	281.3	0.8
60000	285.7	0.9
80500	289.9	0.9
100000	293.9	0.9

System: dodecylcyclohexane; phases: Crystal, Liquid
Property: Solid-liquid equilibrium temperature, K (Crystal); method: VISOBS:corrimp
Pressure, kPa	Solid-liquid equilibrium temperature, K	uncertainty
100	285.8	0.5
19500	290.6	0.6
39600	295.2	0.6
60900	299.9	0.6
79900	304.2	0.6
100000	308.4	0.6

System: cyclohexane, tridecyl-; phases: Crystal, Liquid
Property: Solid-liquid equilibrium temperature, K (Crystal); method: VISOBS:corrimp
Pressure, kPa	Solid-liquid equilibrium temperature, K	uncertainty
100	286.9	1.1
20000	291.7	1.1
40200	296.3	1.1
60000	300.7	1.1
80100	304.9	1.1
100000	309.1	1.1

System: tetradecylcyclohexane; phases: Crystal, Liquid
Property: Solid-liquid equilibrium temperature, K (Crystal); method: VISOBS:corrimp
Pressure, kPa	Solid-liquid equilibrium temperature, K	uncertainty
100	297.2	0.9
20000	302.2	0.9
39900	307	0.9
60000	311.5	0.9
79900	316	0.9
100100	320.3	1

System: cyclohexane, pentadecyl-; phases: Crystal, Liquid
Property: Solid-liquid equilibrium temperature, K (Crystal); method: VISOBS:corrimp
Pressure, kPa	Solid-liquid equilibrium temperature, K	uncertainty
100	298.1	1.1
19300	302.6	1.1
40000	307.6	1.1
60100	312.3	1.1
80300	316.8	1.1
100100	320.8	1.1

System: octadecylcyclohexane; phases: Crystal, Liquid
Property: Solid-liquid equilibrium temperature, K (Crystal); method: VISOBS:corrimp
Pressure, kPa	Solid-liquid equilibrium temperature, K	uncertainty
100	314.3	1.1
20000	319.3	1.1
39900	324.2	1.1
59600	328.8	1.1

System: nonadecylcyclohexane; phases: Crystal, Liquid
Property: Solid-liquid equilibrium temperature, K (Crystal); method: VISOBS:corrimp
Pressure, kPa	Solid-liquid equilibrium temperature, K	uncertainty
100	315.7	0.7
19800	320.6	0.7
39500	324.8	0.7
59800	329.2	0.7
78000	333.7	0.7
