Measured thermophysical data. Densities, Viscosities, Speeds of Sound, and Refractive Indices for Binary Mixtures of Diethylcarbonate, Acetophenone, and 1-Hexanol at (293.15, 303.15, 313.15, and 323.15) K for the Liquid Region and at Ambient Pressure
Source: J. Chem. Eng. Data, 2007, 10.1021/je600519p
Compound 1: diethyl carbonate, C5H10O3, InChI=1S/C5H10O3/c1-3-7-5(6)8-4-2/h3-4H2,1-2H3
Compound 2: acetophenone, C8H8O, InChI=1S/C8H8O/c1-7(9)8-5-3-2-4-6-8/h2-6H,1H3
Compound 3: hexan-1-ol, C6H14O, InChI=1S/C6H14O/c1-2-3-4-5-6-7/h7H,2-6H2,1H3

System: diethyl carbonate; phases: Liquid
Property: Refractive index (Na D-line) (Liquid); method: ABBE:UFactor:4
Temperature, K	Pressure, kPa	Refractive index (Na D-line)	uncertainty
293.15	101.325	1.3845	0.0012

System: diethyl carbonate; phases: Liquid
Property: Mass density, kg/m3 (Liquid); method: VIBTUB:UFactor:6
Temperature, K	Pressure, kPa	Mass density, kg/m3	uncertainty
293.15	101.325	974.65	0.29

System: acetophenone; phases: Liquid
Property: Refractive index (Na D-line) (Liquid); method: ABBE:UFactor:4
Temperature, K	Pressure, kPa	Refractive index (Na D-line)	uncertainty
293.15	101.325	1.5336	0.0013

System: acetophenone; phases: Liquid
Property: Mass density, kg/m3 (Liquid); method: VIBTUB:UFactor:6
Temperature, K	Pressure, kPa	Mass density, kg/m3	uncertainty
293.15	101.325	1027.93	0.46

System: hexan-1-ol; phases: Liquid
Property: Refractive index (Na D-line) (Liquid); method: ABBE:UFactor:4
Temperature, K	Pressure, kPa	Refractive index (Na D-line)	uncertainty
293.15	101.325	1.4178	0.0013

System: hexan-1-ol; phases: Liquid
Property: Mass density, kg/m3 (Liquid); method: VIBTUB:UFactor:6
Temperature, K	Pressure, kPa	Mass density, kg/m3	uncertainty
293.15	101.325	818.84	0.75

System: acetophenone + diethyl carbonate; phases: Liquid
Fixed: Pressure, kPa = 101
Property: Viscosity, Pa*s (Liquid); method: CAPTUB:UFactor:8
Temperature, K	Mole fraction of diethyl carbonate	Viscosity, Pa*s	uncertainty
293.15	0.0511	0.001754	8.2e-05
293.15	0.1014	0.001688	7.9e-05
293.15	0.1501	0.001625	7.6e-05
293.15	0.1996	0.001564	7.4e-05
293.15	0.2465	0.001507	7.1e-05
293.15	0.3041	0.001441	6.8e-05
293.15	0.3467	0.001391	6.6e-05
293.15	0.4001	0.001329	6.4e-05
293.15	0.4507	0.001276	6.1e-05
293.15	0.4888	0.001238	6e-05
293.15	0.5506	0.001174	5.7e-05
293.15	0.6038	0.001122	5.5e-05
293.15	0.6498	0.001079	5.3e-05
293.15	0.7104	0.001025	5.1e-05
293.15	0.7513	0.000989	4.9e-05
293.15	0.8078	0.000941	4.7e-05
293.15	0.8522	0.000906	4.5e-05
293.15	0.8993	0.000869	4.4e-05
293.15	0.9488	0.000833	4.2e-05
303.15	0.0511	0.001455	6.9e-05
303.15	0.1014	0.001402	6.7e-05
303.15	0.1501	0.001352	6.5e-05
303.15	0.1996	0.001302	6.3e-05
303.15	0.2465	0.001257	6.1e-05
303.15	0.3041	0.001203	5.8e-05
303.15	0.3467	0.001165	5.7e-05
303.15	0.4001	0.001118	5.5e-05
303.15	0.4507	0.001075	5.3e-05
303.15	0.4888	0.001042	5.1e-05
303.15	0.5506	0.000993	4.9e-05
303.15	0.6038	0.000952	4.7e-05
303.15	0.6498	0.000918	4.6e-05
303.15	0.7104	0.000875	4.4e-05
303.15	0.7513	0.000848	4.3e-05
303.15	0.8078	0.000811	4.1e-05
303.15	0.8522	0.000784	4e-05
303.15	0.8993	0.000755	3.9e-05
303.15	0.9488	0.000727	3.8e-05
313.15	0.0511	0.001232	6e-05
313.15	0.1014	0.001188	5.8e-05
313.15	0.1501	0.001148	5.6e-05
313.15	0.1996	0.00111	5.4e-05
313.15	0.2465	0.001073	5.3e-05
313.15	0.3041	0.00103	5.1e-05
313.15	0.3467	0.000998	4.9e-05
313.15	0.4001	0.000961	4.8e-05
313.15	0.4507	0.000925	4.6e-05
313.15	0.4888	0.0009	4.5e-05
313.15	0.5506	0.00086	4.3e-05
313.15	0.6038	0.000827	4.2e-05
313.15	0.6498	0.000799	4.1e-05
313.15	0.7104	0.000765	3.9e-05
313.15	0.7513	0.000742	3.8e-05
313.15	0.8078	0.000711	3.7e-05
313.15	0.8522	0.000688	3.6e-05
313.15	0.8993	0.000665	3.5e-05
313.15	0.9488	0.000641	3.4e-05
323.15	0.0511	0.001057	5.2e-05
323.15	0.1014	0.001023	5.1e-05
323.15	0.1501	0.000991	4.9e-05
323.15	0.1996	0.000959	4.8e-05
323.15	0.2465	0.000929	4.6e-05
323.15	0.3041	0.000893	4.5e-05
323.15	0.3467	0.000868	4.4e-05
323.15	0.4001	0.000837	4.2e-05
323.15	0.4507	0.000809	4.1e-05
323.15	0.4888	0.000787	4e-05
323.15	0.5506	0.000755	3.9e-05
323.15	0.6038	0.000727	3.8e-05
323.15	0.6498	0.000704	3.7e-05
323.15	0.7104	0.000676	3.5e-05
323.15	0.7513	0.000656	3.5e-05
323.15	0.8078	0.000631	3.4e-05
323.15	0.8522	0.000612	3.3e-05
323.15	0.8993	0.000592	3.2e-05
323.15	0.9488	0.000573	3.1e-05

System: acetophenone + diethyl carbonate; phases: Liquid
Fixed: Pressure, kPa = 101
Property: Refractive index (Na D-line) (Liquid); method: ABBE:UFactor:4
Temperature, K	Mole fraction of diethyl carbonate	Refractive index (Na D-line)	uncertainty
293.15	0.0511	1.5269	0.0013
293.15	0.1014	1.5201	0.0013
293.15	0.1501	1.5134	0.0013
293.15	0.1996	1.5065	0.0013
293.15	0.2465	1.5001	0.0013
293.15	0.3041	1.4919	0.0013
293.15	0.3467	1.4858	0.0013
293.15	0.4001	1.4781	0.0013
293.15	0.4507	1.4707	0.0013
293.15	0.4888	1.4651	0.0013
293.15	0.5506	1.4558	0.0013
293.15	0.6038	1.4477	0.0012
293.15	0.6498	1.4406	0.0012
293.15	0.7104	1.4312	0.0012
293.15	0.7513	1.4247	0.0012
293.15	0.8078	1.4158	0.0012
293.15	0.8522	1.4086	0.0012
293.15	0.8993	1.401	0.0012
293.15	0.9488	1.3929	0.0012
303.15	0.0511	1.5221	0.0013
303.15	0.1014	1.5154	0.0013
303.15	0.1501	1.5089	0.0013
303.15	0.1996	1.5022	0.0013
303.15	0.2465	1.4958	0.0013
303.15	0.3041	1.4877	0.0013
303.15	0.3467	1.4817	0.0013
303.15	0.4001	1.474	0.0013
303.15	0.4507	1.4666	0.0013
303.15	0.4888	1.461	0.0013
303.15	0.5506	1.4518	0.0013
303.15	0.6038	1.4437	0.0012
303.15	0.6498	1.4366	0.0012
303.15	0.7104	1.4271	0.0012
303.15	0.7513	1.4206	0.0012
303.15	0.8078	1.4116	0.0012
303.15	0.8522	1.4043	0.0012
303.15	0.8993	1.3966	0.0012
303.15	0.9488	1.3884	0.0012
313.15	0.0511	1.5172	0.0013
313.15	0.1014	1.5107	0.0013
313.15	0.1501	1.5043	0.0013
313.15	0.1996	1.4976	0.0013
313.15	0.2465	1.4913	0.0013
313.15	0.3041	1.4833	0.0013
313.15	0.3467	1.4774	0.0013
313.15	0.4001	1.4697	0.0013
313.15	0.4507	1.4624	0.0013
313.15	0.4888	1.4568	0.0013
313.15	0.5506	1.4475	0.0013
313.15	0.6038	1.4395	0.0012
313.15	0.6498	1.4323	0.0012
313.15	0.7104	1.4228	0.0012
313.15	0.7513	1.4164	0.0012
313.15	0.8078	1.4072	0.0012
313.15	0.8522	1.3999	0.0012
313.15	0.8993	1.3922	0.0012
313.15	0.9488	1.3839	0.0012
323.15	0.0511	1.5123	0.0013
323.15	0.1014	1.506	0.0013
323.15	0.1501	1.4998	0.0013
323.15	0.1996	1.4932	0.0013
323.15	0.2465	1.4869	0.0013
323.15	0.3041	1.479	0.0013
323.15	0.3467	1.4731	0.0013
323.15	0.4001	1.4656	0.0013
323.15	0.4507	1.4583	0.0013
323.15	0.4888	1.4527	0.0013
323.15	0.5506	1.4435	0.0013
323.15	0.6038	1.4353	0.0012
323.15	0.6498	1.4282	0.0012
323.15	0.7104	1.4186	0.0012
323.15	0.7513	1.4121	0.0012
323.15	0.8078	1.4029	0.0012
323.15	0.8522	1.3957	0.0012
323.15	0.8993	1.3878	0.0012
323.15	0.9488	1.3791	0.0012

System: acetophenone + diethyl carbonate; phases: Liquid
Fixed: Pressure, kPa = 101
Property: Speed of sound, m/s (Liquid); method: FPINT:UFactor:16
Temperature, K	Mole fraction of diethyl carbonate	Speed of sound, m/s	uncertainty
293.15	0.0511	1443	11
293.15	0.1014	1405	11
293.15	0.1501	1377	11
293.15	0.1996	1347	11
293.15	0.2465	1322	11
293.15	0.3041	1297	11
293.15	0.3467	1280	10
293.15	0.4001	1265	10
293.15	0.4507	1251	10
293.15	0.4888	1242	10
293.15	0.5506	1231	10
293.15	0.6038	1222	10
293.15	0.6498	1218	10
293.15	0.7104	1215	10
293.15	0.7513	1213	10
293.15	0.8078	1210	10
293.15	0.8522	1208	10
293.15	0.8993	1207	10
293.15	0.9488	1206	10
303.15	0.0511	1408	11
303.15	0.1014	1369	11
303.15	0.1501	1339	11
303.15	0.1996	1312	11
303.15	0.2465	1290	11
303.15	0.3041	1265	10
303.15	0.3467	1249	10
303.15	0.4001	1232	10
303.15	0.4507	1217	10
303.15	0.4888	1208	10
303.15	0.5506	1198	10
303.15	0.6038	1194	10
303.15	0.6498	1193	10
303.15	0.7104	1192	10
303.15	0.7513	1191	10
303.15	0.8078	1190	10
303.15	0.8522	1189	10
303.15	0.8993	1188	10
303.15	0.9488	1187	10
313.15	0.0511	1365	11
313.15	0.1014	1326	11
313.15	0.1501	1292	11
313.15	0.1996	1263	10
313.15	0.2465	1238	10
313.15	0.3041	1212	10
313.15	0.3467	1196	10
313.15	0.4001	1180	10
313.15	0.4507	1168	10
313.15	0.4888	1160	10
313.15	0.5506	1153	10
313.15	0.6038	1152	10
313.15	0.6498	1151	10
313.15	0.7104	1150	10
313.15	0.7513	1149	10
313.15	0.8078	1148	10
313.15	0.8522	1147	10
313.15	0.8993	1146	10
313.15	0.9488	1145	10
323.15	0.0511	1305	11
323.15	0.1014	1265	10
323.15	0.1501	1234	10
323.15	0.1996	1208	10
323.15	0.2465	1185	10
323.15	0.3041	1164	10
323.15	0.3467	1151	10
323.15	0.4001	1137	10
323.15	0.4507	1126	10
323.15	0.4888	1121	9
323.15	0.5506	1118	9
323.15	0.6038	1117	9
323.15	0.6498	1116	9
323.15	0.7104	1115	9
323.15	0.7513	1114	9
323.15	0.8078	1113	9
323.15	0.8522	1112	9
323.15	0.8993	1111	9
323.15	0.9488	1110	9

System: acetophenone + diethyl carbonate; phases: Liquid
Fixed: Pressure, kPa = 101
Property: Mass density, kg/m3 (Liquid); method: VIBTUB:UFactor:6
Temperature, K	Mole fraction of diethyl carbonate	Mass density, kg/m3	uncertainty
293.15	0.0511	1025.19	0.44
293.15	0.1014	1023.01	0.43
293.15	0.1501	1020.69	0.41
293.15	0.1996	1018.39	0.4
293.15	0.2465	1016.19	0.38
293.15	0.3041	1013.29	0.36
293.15	0.3467	1011.15	0.35
293.15	0.4001	1008.46	0.34
293.15	0.4507	1005.89	0.32
293.15	0.4888	1003.9	0.31
293.15	0.5506	1000.67	0.29
293.15	0.6038	997.77	0.29
293.15	0.6498	995.25	0.29
293.15	0.7104	991.92	0.29
293.15	0.7513	989.53	0.29
293.15	0.8078	986.29	0.29
293.15	0.8522	983.66	0.29
293.15	0.8993	980.83	0.29
293.15	0.9488	977.82	0.29
303.15	0.0511	1016.4	0.42
303.15	0.1014	1014.09	0.4
303.15	0.1501	1011.77	0.39
303.15	0.1996	1009.35	0.37
303.15	0.2465	1007.04	0.36
303.15	0.3041	1004.02	0.34
303.15	0.3467	1001.78	0.33
303.15	0.4001	998.99	0.32
303.15	0.4507	996.27	0.31
303.15	0.4888	994.18	0.31
303.15	0.5506	990.73	0.31
303.15	0.6038	987.73	0.31
303.15	0.6498	985.06	0.31
303.15	0.7104	981.54	0.31
303.15	0.7513	979.05	0.31
303.15	0.8078	975.68	0.31
303.15	0.8522	972.91	0.31
303.15	0.8993	969.91	0.31
303.15	0.9488	966.78	0.32
313.15	0.0511	1007.58	0.39
313.15	0.1014	1005.19	0.38
313.15	0.1501	1002.73	0.36
313.15	0.1996	1000.2	0.35
313.15	0.2465	997.78	0.34
313.15	0.3041	994.63	0.34
313.15	0.3467	992.31	0.34
313.15	0.4001	989.35	0.34
313.15	0.4507	986.55	0.33
313.15	0.4888	984.35	0.33
313.15	0.5506	980.71	0.33
313.15	0.6038	977.48	0.33
313.15	0.6498	974.69	0.33
313.15	0.7104	971.04	0.33
313.15	0.7513	968.47	0.33
313.15	0.8078	964.89	0.33
313.15	0.8522	961.99	0.34
313.15	0.8993	958.99	0.34
313.15	0.9488	955.63	0.34
323.15	0.0511	998.79	0.38
323.15	0.1014	996.27	0.37
323.15	0.1501	993.68	0.37
323.15	0.1996	991.08	0.36
323.15	0.2465	988.56	0.36
323.15	0.3041	985.24	0.36
323.15	0.3467	982.8	0.36
323.15	0.4001	979.74	0.36
323.15	0.4507	976.77	0.35
323.15	0.4888	974.49	0.35
323.15	0.5506	970.76	0.35
323.15	0.6038	967.47	0.35
323.15	0.6498	964.54	0.35
323.15	0.7104	960.63	0.36
323.15	0.7513	957.86	0.36
323.15	0.8078	954.13	0.36
323.15	0.8522	951.07	0.36
323.15	0.8993	947.76	0.36
323.15	0.9488	944.32	0.37

System: diethyl carbonate + hexan-1-ol; phases: Liquid
Fixed: Pressure, kPa = 101
Property: Viscosity, Pa*s (Liquid); method: CAPTUB:UFactor:8
Temperature, K	Mole fraction of diethyl carbonate	Viscosity, Pa*s	uncertainty
293.15	0.0502	0.004731	0.000207
293.15	0.1123	0.004164	0.000184
293.15	0.1499	0.003715	0.000165
293.15	0.2103	0.003178	0.000142
293.15	0.2508	0.002837	0.000128
293.15	0.3121	0.002382	0.000109
293.15	0.3576	0.002078	9.6e-05
293.15	0.4113	0.001757	8.2e-05
293.15	0.4632	0.001488	7e-05
293.15	0.5111	0.001247	6e-05
293.15	0.552	0.001115	5.4e-05
293.15	0.6008	0.000956	4.8e-05
293.15	0.6498	0.000863	4.4e-05
293.15	0.7108	0.000859	4.3e-05
293.15	0.7554	0.00084	4.3e-05
293.15	0.8112	0.000831	4.2e-05
293.15	0.8501	0.000825	4.2e-05
293.15	0.9002	0.000818	4.2e-05
293.15	0.9555	0.000803	4.1e-05
303.15	0.0502	0.003486	0.000155
303.15	0.1123	0.00303	0.000136
303.15	0.1499	0.002796	0.000126
303.15	0.2103	0.002403	0.00011
303.15	0.2508	0.002165	9.9e-05
303.15	0.3121	0.001859	8.6e-05
303.15	0.3576	0.001621	7.6e-05
303.15	0.4113	0.001414	6.7e-05
303.15	0.4632	0.00122	5.9e-05
303.15	0.5111	0.001063	5.2e-05
303.15	0.552	0.000951	4.7e-05
303.15	0.6008	0.000844	4.3e-05
303.15	0.6498	0.000811	4.1e-05
303.15	0.7108	0.000804	8e-05
303.15	0.7554	0.000774	8e-05
303.15	0.8112	0.000748	3.9e-05
303.15	0.8501	0.00073	3.8e-05
303.15	0.9002	0.000724	3.8e-05
303.15	0.9555	0.000713	3.7e-05
313.15	0.0502	0.002621	0.000119
313.15	0.1123	0.002339	0.000107
313.15	0.1499	0.002115	9.7e-05
313.15	0.2103	0.001856	8.6e-05
313.15	0.2508	0.001687	7.9e-05
313.15	0.3121	0.001466	7e-05
313.15	0.3576	0.001319	6.3e-05
313.15	0.4113	0.00116	5.6e-05
313.15	0.4632	0.001031	5.1e-05
313.15	0.5111	0.000912	4.6e-05
313.15	0.552	0.000826	4.2e-05
313.15	0.6008	0.000744	3.8e-05
313.15	0.6498	0.000689	3.6e-05
313.15	0.7108	0.00061	3.3e-05
313.15	0.7554	0.000607	3.2e-05
313.15	0.8112	0.000602	3.2e-05
313.15	0.8501	0.000606	3.2e-05
313.15	0.9002	0.00061	3.3e-05
313.15	0.9555	0.000615	3.3e-05
323.15	0.0502	0.00206	9.5e-05
323.15	0.1123	0.001825	8.5e-05
323.15	0.1499	0.001689	7.9e-05
323.15	0.2103	0.001488	7.1e-05
323.15	0.2508	0.001367	6.5e-05
323.15	0.3121	0.00122	5.9e-05
323.15	0.3576	0.001093	5.4e-05
323.15	0.4113	0.00097	4.8e-05
323.15	0.4632	0.000857	4.3e-05
323.15	0.5111	0.000765	3.9e-05
323.15	0.552	0.000689	3.6e-05
323.15	0.6008	0.000607	3.3e-05
323.15	0.6498	0.000568	3.1e-05
323.15	0.7108	0.000532	2.9e-05
323.15	0.7554	0.000535	2.9e-05
323.15	0.8112	0.000537	2.9e-05
323.15	0.8501	0.00054	3e-05
323.15	0.9002	0.000544	3e-05
323.15	0.9555	0.000548	3e-05

System: diethyl carbonate + hexan-1-ol; phases: Liquid
Fixed: Pressure, kPa = 101
Property: Refractive index (Na D-line) (Liquid); method: ABBE:UFactor:4
Temperature, K	Mole fraction of diethyl carbonate	Refractive index (Na D-line)	uncertainty
293.15	0.0502	1.4168	0.0013
293.15	0.1123	1.4152	0.0013
293.15	0.1499	1.4143	0.0013
293.15	0.2103	1.4125	0.0013
293.15	0.2508	1.4111	0.0013
293.15	0.3121	1.4089	0.0013
293.15	0.3576	1.4071	0.0013
293.15	0.4113	1.4049	0.0013
293.15	0.4632	1.4028	0.0013
293.15	0.5111	1.4008	0.0012
293.15	0.552	1.3991	0.0012
293.15	0.6008	1.3972	0.0012
293.15	0.6498	1.3953	0.0012
293.15	0.7108	1.3929	0.0012
293.15	0.7554	1.3912	0.0012
293.15	0.8112	1.3894	0.0012
293.15	0.8501	1.3883	0.0012
293.15	0.9002	1.3869	0.0012
293.15	0.9555	1.3855	0.0012
303.15	0.0502	1.4131	0.0013
303.15	0.1123	1.4115	0.0013
303.15	0.1499	1.4106	0.0013
303.15	0.2103	1.4088	0.0013
303.15	0.2508	1.4074	0.0013
303.15	0.3121	1.4051	0.0013
303.15	0.3576	1.4033	0.0013
303.15	0.4113	1.4011	0.0013
303.15	0.4632	1.3989	0.0013
303.15	0.5111	1.3969	0.0012
303.15	0.552	1.3952	0.0012
303.15	0.6008	1.3931	0.0012
303.15	0.6498	1.3911	0.0012
303.15	0.7108	1.3887	0.0012
303.15	0.7554	1.387	0.0012
303.15	0.8112	1.3851	0.0012
303.15	0.8501	1.3838	0.0012
303.15	0.9002	1.3823	0.0012
303.15	0.9555	1.3809	0.0012
313.15	0.0502	1.4089	0.0013
313.15	0.1123	1.4075	0.0013
313.15	0.1499	1.4065	0.0013
313.15	0.2103	1.4047	0.0013
313.15	0.2508	1.4034	0.0013
313.15	0.3121	1.4011	0.0013
313.15	0.3576	1.3992	0.0013
313.15	0.4113	1.3969	0.0013
313.15	0.4632	1.3947	0.0013
313.15	0.5111	1.3927	0.0012
313.15	0.552	1.3909	0.0012
313.15	0.6008	1.3888	0.0012
313.15	0.6498	1.3867	0.0012
313.15	0.7108	1.3842	0.0012
313.15	0.7554	1.3825	0.0012
313.15	0.8112	1.3805	0.0012
313.15	0.8501	1.3792	0.0012
313.15	0.9002	1.3776	0.0012
313.15	0.9555	1.3762	0.0012
323.15	0.0502	1.4049	0.0013
323.15	0.1123	1.4036	0.0013
323.15	0.1499	1.4026	0.0013
323.15	0.2103	1.4007	0.0013
323.15	0.2508	1.3994	0.0013
323.15	0.3121	1.3971	0.0013
323.15	0.3576	1.3953	0.0013
323.15	0.4113	1.3931	0.0013
323.15	0.4632	1.3909	0.0013
323.15	0.5111	1.3887	0.0012
323.15	0.552	1.3868	0.0012
323.15	0.6008	1.3846	0.0012
323.15	0.6498	1.3825	0.0012
323.15	0.7108	1.3798	0.0012
323.15	0.7554	1.3779	0.0012
323.15	0.8112	1.3758	0.0012
323.15	0.8501	1.3745	0.0012
323.15	0.9002	1.3729	0.0012
323.15	0.9555	1.3714	0.0012

System: diethyl carbonate + hexan-1-ol; phases: Liquid
Fixed: Pressure, kPa = 101
Property: Speed of sound, m/s (Liquid); method: FPINT:UFactor:16
Temperature, K	Mole fraction of diethyl carbonate	Speed of sound, m/s	uncertainty
293.15	0.0502	1301	11
293.15	0.1123	1291	11
293.15	0.1499	1285	10
293.15	0.2103	1275	10
293.15	0.2508	1268	10
293.15	0.3121	1259	10
293.15	0.3576	1252	10
293.15	0.4113	1245	10
293.15	0.4632	1239	10
293.15	0.5111	1234	10
293.15	0.552	1230	10
293.15	0.6008	1226	10
293.15	0.6498	1222	10
293.15	0.7108	1219	10
293.15	0.7554	1216	10
293.15	0.8112	1213	10
293.15	0.8501	1211	10
293.15	0.9002	1208	10
293.15	0.9555	1206	10
303.15	0.0502	1267	10
303.15	0.1123	1256	10
303.15	0.1499	1249	10
303.15	0.2103	1240	10
303.15	0.2508	1234	10
303.15	0.3121	1225	10
303.15	0.3576	1217	10
303.15	0.4113	1210	10
303.15	0.4632	1204	10
303.15	0.5111	1200	10
303.15	0.552	1197	10
303.15	0.6008	1194	10
303.15	0.6498	1193	10
303.15	0.7108	1192	10
303.15	0.7554	1191	10
303.15	0.8112	1190	10
303.15	0.8501	1189	10
303.15	0.9002	1188	10
303.15	0.9555	1187	10
313.15	0.0502	1252	10
313.15	0.1123	1236	10
313.15	0.1499	1224	10
313.15	0.2103	1211	10
313.15	0.2508	1203	10
313.15	0.3121	1192	10
313.15	0.3576	1185	10
313.15	0.4113	1177	10
313.15	0.4632	1170	10
313.15	0.5111	1165	10
313.15	0.552	1162	10
313.15	0.6008	1158	10
313.15	0.6498	1155	10
313.15	0.7108	1153	10
313.15	0.7554	1152	10
313.15	0.8112	1151	10
313.15	0.8501	1150	10
313.15	0.9002	1148	10
313.15	0.9555	1146	10
323.15	0.0502	1204	10
323.15	0.1123	1184	10
323.15	0.1499	1172	10
323.15	0.2103	1160	10
323.15	0.2508	1153	10
323.15	0.3121	1143	10
323.15	0.3576	1137	10
323.15	0.4113	1131	10
323.15	0.4632	1126	10
323.15	0.5111	1123	9
323.15	0.552	1121	9
323.15	0.6008	1119	9
323.15	0.6498	1117	9
323.15	0.7108	1115	9
323.15	0.7554	1114	9
323.15	0.8112	1113	9
323.15	0.8501	1112	9
323.15	0.9002	1111	9
323.15	0.9555	1110	9

System: diethyl carbonate + hexan-1-ol; phases: Liquid
Fixed: Pressure, kPa = 101
Property: Mass density, kg/m3 (Liquid); method: VIBTUB:UFactor:6
Temperature, K	Mole fraction of diethyl carbonate	Mass density, kg/m3	uncertainty
293.15	0.0502	825.96	0.72
293.15	0.1123	834.86	0.7
293.15	0.1499	840.29	0.68
293.15	0.2103	849.1	0.66
293.15	0.2508	855.05	0.64
293.15	0.3121	864.19	0.61
293.15	0.3576	871.02	0.59
293.15	0.4113	879.15	0.57
293.15	0.4632	887.08	0.55
293.15	0.5111	894.51	0.52
293.15	0.552	900.88	0.51
293.15	0.6008	908.59	0.48
293.15	0.6498	916.39	0.46
293.15	0.7108	926.19	0.43
293.15	0.7554	933.45	0.41
293.15	0.8112	942.65	0.39
293.15	0.8501	949.13	0.37
293.15	0.9002	957.5	0.35
293.15	0.9555	966.89	0.32
303.15	0.0502	818.55	0.74
303.15	0.1123	827.16	0.71
303.15	0.1499	832.48	0.7
303.15	0.2103	841.04	0.67
303.15	0.2508	846.79	0.66
303.15	0.3121	855.69	0.63
303.15	0.3576	862.23	0.61
303.15	0.4113	870.21	0.59
303.15	0.4632	877.88	0.57
303.15	0.5111	885.13	0.54
303.15	0.552	891.35	0.53
303.15	0.6008	898.87	0.51
303.15	0.6498	906.42	0.48
303.15	0.7108	915.93	0.46
303.15	0.7554	923.08	0.44
303.15	0.8112	932.03	0.41
303.15	0.8501	938.29	0.39
303.15	0.9002	946.57	0.37
303.15	0.9555	955.77	0.35
313.15	0.0502	811.04	0.76
313.15	0.1123	819.37	0.73
313.15	0.1499	824.54	0.71
313.15	0.2103	832.78	0.69
313.15	0.2508	838.35	0.67
313.15	0.3121	846.97	0.65
313.15	0.3576	853.42	0.63
313.15	0.4113	861.12	0.61
313.15	0.4632	868.59	0.59
313.15	0.5111	875.61	0.56
313.15	0.552	881.55	0.55
313.15	0.6008	888.91	0.53
313.15	0.6498	896.35	0.51
313.15	0.7108	905.65	0.48
313.15	0.7554	912.55	0.46
313.15	0.8112	921.16	0.43
313.15	0.8501	927.49	0.42
313.15	0.9002	935.57	0.39
313.15	0.9555	944.49	0.37
323.15	0.0502	803.29	0.77
323.15	0.1123	811.3	0.75
323.15	0.1499	816.2	0.73
323.15	0.2103	824.2	0.71
323.15	0.2508	829.57	0.69
323.15	0.3121	837.88	0.67
323.15	0.3576	844.05	0.65
323.15	0.4113	851.48	0.63
323.15	0.4632	858.73	0.61
323.15	0.5111	865.59	0.59
323.15	0.552	871.51	0.57
323.15	0.6008	878.65	0.55
323.15	0.6498	885.85	0.53
323.15	0.7108	894.96	0.5
323.15	0.7554	901.77	0.48
323.15	0.8112	910.41	0.46
323.15	0.8501	916.42	0.44
323.15	0.9002	924.3	0.42
323.15	0.9555	933.24	0.4

System: acetophenone + hexan-1-ol; phases: Liquid
Fixed: Pressure, kPa = 101
Property: Viscosity, Pa*s (Liquid); method: CAPTUB:UFactor:8
Temperature, K	Mole fraction of acetophenone	Viscosity, Pa*s	uncertainty
293.15	0.0498	0.004831	0.000211
293.15	0.1009	0.004397	0.000193
293.15	0.1517	0.003997	0.000177
293.15	0.2106	0.003605	0.00016
293.15	0.2474	0.00331	0.000148
293.15	0.3028	0.002986	0.000134
293.15	0.3426	0.002744	0.000124
293.15	0.3978	0.002491	0.000113
293.15	0.4512	0.002266	0.000104
293.15	0.4985	0.002085	9.6e-05
293.15	0.5526	0.00193	9e-05
293.15	0.6071	0.001798	8.4e-05
293.15	0.6491	0.001744	8.2e-05
293.15	0.7101	0.00165	7.8e-05
293.15	0.7485	0.001664	7.8e-05
293.15	0.8019	0.001673	7.9e-05
293.15	0.8521	0.001691	7.9e-05
293.15	0.9045	0.00171	8e-05
293.15	0.9554	0.001727	8.1e-05
303.15	0.0498	0.003559	0.000158
303.15	0.1009	0.003262	0.000146
303.15	0.1517	0.002989	0.000134
303.15	0.2106	0.002725	0.000123
303.15	0.2474	0.002511	0.000114
303.15	0.3028	0.002306	0.000106
303.15	0.3426	0.002148	9.9e-05
303.15	0.3978	0.001961	9.1e-05
303.15	0.4512	0.001805	8.4e-05
303.15	0.4985	0.001692	7.9e-05
303.15	0.5526	0.001583	7.5e-05
303.15	0.6071	0.001488	7.1e-05
303.15	0.6491	0.001442	6.9e-05
303.15	0.7101	0.001431	6.8e-05
303.15	0.7485	0.001426	6.8e-05
303.15	0.8019	0.001455	6.9e-05
303.15	0.8521	0.001465	7e-05
303.15	0.9045	0.00148	7e-05
303.15	0.9554	0.001496	7.1e-05
313.15	0.0498	0.002684	0.000122
313.15	0.1009	0.002481	0.000113
313.15	0.1517	0.002292	0.000105
313.15	0.2106	0.002104	9.7e-05
313.15	0.2474	0.001977	9.2e-05
313.15	0.3028	0.001812	8.4e-05
313.15	0.3426	0.001697	8e-05
313.15	0.3978	0.00158	7.5e-05
313.15	0.4512	0.001483	7e-05
313.15	0.4985	0.001396	6.7e-05
313.15	0.5526	0.001322	6.3e-05
313.15	0.6071	0.001263	6.1e-05
313.15	0.6491	0.001255	6.1e-05
313.15	0.7101	0.001243	6e-05
313.15	0.7485	0.001252	6e-05
313.15	0.8019	0.001264	6.1e-05
313.15	0.8521	0.001266	6.1e-05
313.15	0.9045	0.001271	6.1e-05
313.15	0.9554	0.001276	6.1e-05
323.15	0.0498	0.002119	9.8e-05
323.15	0.1009	0.00197	9.1e-05
323.15	0.1517	0.001831	8.5e-05
323.15	0.2106	0.00169	7.9e-05
323.15	0.2474	0.001585	7.5e-05
323.15	0.3028	0.00148	7e-05
323.15	0.3426	0.001395	6.7e-05
323.15	0.3978	0.001307	6.3e-05
323.15	0.4512	0.001236	6e-05
323.15	0.4985	0.001169	5.7e-05
323.15	0.5526	0.001118	5.5e-05
323.15	0.6071	0.001075	5.3e-05
323.15	0.6491	0.001069	5.3e-05
323.15	0.7101	0.001073	5.3e-05
323.15	0.7485	0.001075	5.3e-05
323.15	0.8019	0.001073	5.3e-05
323.15	0.8521	0.001067	5.2e-05
323.15	0.9045	0.001076	5.3e-05
323.15	0.9554	0.001086	5.3e-05

System: acetophenone + hexan-1-ol; phases: Liquid
Fixed: Pressure, kPa = 101
Property: Refractive index (Na D-line) (Liquid); method: ABBE:UFactor:4
Temperature, K	Mole fraction of acetophenone	Refractive index (Na D-line)	uncertainty
293.15	0.0498	1.4234	0.0013
293.15	0.1009	1.4291	0.0013
293.15	0.1517	1.4348	0.0013
293.15	0.2106	1.4415	0.0013
293.15	0.2474	1.4457	0.0013
293.15	0.3028	1.4521	0.0013
293.15	0.3426	1.4567	0.0013
293.15	0.3978	1.4631	0.0013
293.15	0.4512	1.4693	0.0013
293.15	0.4985	1.4748	0.0013
293.15	0.5526	1.4811	0.0013
293.15	0.6071	1.4874	0.0013
293.15	0.6491	1.4923	0.0013
293.15	0.7101	1.4994	0.0013
293.15	0.7485	1.5039	0.0013
293.15	0.8019	1.5101	0.0013
293.15	0.8521	1.516	0.0013
293.15	0.9045	1.5222	0.0013
293.15	0.9554	1.5283	0.0013
303.15	0.0498	1.4196	0.0013
303.15	0.1009	1.4253	0.0013
303.15	0.1517	1.431	0.0013
303.15	0.2106	1.4377	0.0013
303.15	0.2474	1.4419	0.0013
303.15	0.3028	1.4482	0.0013
303.15	0.3426	1.4528	0.0013
303.15	0.3978	1.4591	0.0013
303.15	0.4512	1.4653	0.0013
303.15	0.4985	1.4707	0.0013
303.15	0.5526	1.4769	0.0013
303.15	0.6071	1.4832	0.0013
303.15	0.6491	1.488	0.0013
303.15	0.7101	1.495	0.0013
303.15	0.7485	1.4994	0.0013
303.15	0.8019	1.5056	0.0013
303.15	0.8521	1.5114	0.0013
303.15	0.9045	1.5175	0.0013
303.15	0.9554	1.5235	0.0013
313.15	0.0498	1.4153	0.0013
313.15	0.1009	1.421	0.0013
313.15	0.1517	1.4267	0.0013
313.15	0.2106	1.4334	0.0013
313.15	0.2474	1.4376	0.0013
313.15	0.3028	1.4439	0.0013
313.15	0.3426	1.4484	0.0013
313.15	0.3978	1.4547	0.0013
313.15	0.4512	1.4608	0.0013
313.15	0.4985	1.4662	0.0013
313.15	0.5526	1.4724	0.0013
313.15	0.6071	1.4786	0.0013
313.15	0.6491	1.4834	0.0013
313.15	0.7101	1.4903	0.0013
313.15	0.7485	1.4947	0.0013
313.15	0.8019	1.5008	0.0013
313.15	0.8521	1.5066	0.0013
313.15	0.9045	1.5126	0.0013
313.15	0.9554	1.5185	0.0013
323.15	0.0498	1.4113	0.0013
323.15	0.1009	1.417	0.0013
323.15	0.1517	1.4227	0.0013
323.15	0.2106	1.4293	0.0013
323.15	0.2474	1.4335	0.0013
323.15	0.3028	1.4398	0.0013
323.15	0.3426	1.4443	0.0013
323.15	0.3978	1.4506	0.0013
323.15	0.4512	1.4567	0.0013
323.15	0.4985	1.4621	0.0013
323.15	0.5526	1.4682	0.0013
323.15	0.6071	1.4743	0.0013
323.15	0.6491	1.479	0.0013
323.15	0.7101	1.4858	0.0013
323.15	0.7485	1.4901	0.0013
323.15	0.8019	1.4962	0.0013
323.15	0.8521	1.5019	0.0013
323.15	0.9045	1.5079	0.0013
323.15	0.9554	1.5137	0.0013

System: acetophenone + hexan-1-ol; phases: Liquid
Fixed: Pressure, kPa = 101
Property: Speed of sound, m/s (Liquid); method: FPINT:UFactor:16
Temperature, K	Mole fraction of acetophenone	Speed of sound, m/s	uncertainty
293.15	0.0498	1316	11
293.15	0.1009	1323	11
293.15	0.1517	1331	11
293.15	0.2106	1341	11
293.15	0.2474	1348	11
293.15	0.3028	1358	11
293.15	0.3426	1365	11
293.15	0.3978	1375	11
293.15	0.4512	1385	11
293.15	0.4985	1394	11
293.15	0.5526	1404	11
293.15	0.6071	1415	11
293.15	0.6491	1424	11
293.15	0.7101	1437	11
293.15	0.7485	1445	11
293.15	0.8019	1457	12
293.15	0.8521	1467	12
293.15	0.9045	1476	12
293.15	0.9554	1485	12
303.15	0.0498	1285	11
303.15	0.1009	1293	11
303.15	0.1517	1302	11
303.15	0.2106	1313	11
303.15	0.2474	1320	11
303.15	0.3028	1332	11
303.15	0.3426	1340	11
303.15	0.3978	1351	11
303.15	0.4512	1362	11
303.15	0.4985	1371	11
303.15	0.5526	1382	11
303.15	0.6071	1393	11
303.15	0.6491	1402	11
303.15	0.7101	1414	11
303.15	0.7485	1421	11
303.15	0.8019	1430	11
303.15	0.8521	1439	11
303.15	0.9045	1445	11
303.15	0.9554	1451	12
313.15	0.0498	1277	10
313.15	0.1009	1285	11
313.15	0.1517	1293	11
313.15	0.2106	1303	11
313.15	0.2474	1310	11
313.15	0.3028	1320	11
313.15	0.3426	1328	11
313.15	0.3978	1339	11
313.15	0.4512	1350	11
313.15	0.4985	1360	11
313.15	0.5526	1370	11
313.15	0.6071	1380	11
313.15	0.6491	1387	11
313.15	0.7101	1398	11
313.15	0.7485	1404	11
313.15	0.8019	1408	11
313.15	0.8521	1409	11
313.15	0.9045	1411	11
313.15	0.9554	1416	11
323.15	0.0498	1230	10
323.15	0.1009	1238	10
323.15	0.1517	1247	10
323.15	0.2106	1259	10
323.15	0.2474	1266	10
323.15	0.3028	1278	10
323.15	0.3426	1287	11
323.15	0.3978	1298	11
323.15	0.4512	1308	11
323.15	0.4985	1316	11
323.15	0.5526	1326	11
323.15	0.6071	1335	11
323.15	0.6491	1342	11
323.15	0.7101	1351	11
323.15	0.7485	1356	11
323.15	0.8019	1361	11
323.15	0.8521	1365	11
323.15	0.9045	1370	11
323.15	0.9554	1372	11

System: acetophenone + hexan-1-ol; phases: Liquid
Fixed: Pressure, kPa = 101
Property: Mass density, kg/m3 (Liquid); method: VIBTUB:UFactor:6
Temperature, K	Mole fraction of acetophenone	Mass density, kg/m3	uncertainty
293.15	0.0498	828.69	0.73
293.15	0.1009	838.84	0.71
293.15	0.1517	848.99	0.69
293.15	0.2106	860.83	0.66
293.15	0.2474	868.27	0.65
293.15	0.3028	879.53	0.63
293.15	0.3426	887.67	0.61
293.15	0.3978	899.01	0.59
293.15	0.4512	910.05	0.57
293.15	0.4985	919.88	0.55
293.15	0.5526	931.2	0.53
293.15	0.6071	942.67	0.5
293.15	0.6491	951.55	0.49
293.15	0.7101	964.53	0.46
293.15	0.7485	972.75	0.45
293.15	0.8019	984.23	0.42
293.15	0.8521	995.09	0.4
293.15	0.9045	1006.5	0.41
293.15	0.9554	1017.63	0.44
303.15	0.0498	821.41	0.74
303.15	0.1009	831.48	0.72
303.15	0.1517	841.54	0.7
303.15	0.2106	853.28	0.68
303.15	0.2474	860.66	0.66
303.15	0.3028	871.83	0.64
303.15	0.3426	879.89	0.63
303.15	0.3978	891.14	0.6
303.15	0.4512	902.09	0.58
303.15	0.4985	911.85	0.56
303.15	0.5526	923.08	0.54
303.15	0.6071	934.47	0.52
303.15	0.6491	943.29	0.5
303.15	0.7101	956.19	0.48
303.15	0.7485	964.35	0.46
303.15	0.8019	975.77	0.44
303.15	0.8521	986.56	0.42
303.15	0.9045	997.88	0.4
303.15	0.9554	1008.95	0.42
313.15	0.0498	813.97	0.76
313.15	0.1009	823.85	0.74
313.15	0.1517	833.75	0.72
313.15	0.2106	845.32	0.69
313.15	0.2474	852.58	0.68
313.15	0.3028	863.61	0.66
313.15	0.3426	871.57	0.64
313.15	0.3978	882.7	0.62
313.15	0.4512	893.55	0.6
313.15	0.4985	903.23	0.58
313.15	0.5526	914.38	0.56
313.15	0.6071	925.7	0.54
313.15	0.6491	934.49	0.52
313.15	0.7101	947.35	0.49
313.15	0.7485	955.5	0.48
313.15	0.8019	966.9	0.46
313.15	0.8521	977.72	0.44
313.15	0.9045	989.09	0.41
313.15	0.9554	1000.23	0.39
323.15	0.0498	806.47	0.77
323.15	0.1009	816.28	0.75
323.15	0.1517	826.11	0.73
323.15	0.2106	837.59	0.71
323.15	0.2474	844.8	0.7
323.15	0.3028	855.74	0.67
323.15	0.3426	863.65	0.66
323.15	0.3978	874.71	0.64
323.15	0.4512	885.48	0.62
323.15	0.4985	895.1	0.6
323.15	0.5526	906.19	0.57
323.15	0.6071	917.44	0.55
323.15	0.6491	926.17	0.54
323.15	0.7101	938.95	0.51
323.15	0.7485	947.06	0.5
323.15	0.8019	958.4	0.47
323.15	0.8521	969.16	0.45
323.15	0.9045	980.48	0.43
323.15	0.9554	991.56	0.41
