Measured thermophysical data. Measurement and Correlation of Diffusion Coefficients of Aromatic Compounds at Infinite Dilution in Alkane and Cycloalkane Solvents
Source: J. Chem. Eng. Data, 2007, 10.1021/je6005604
Compound 1: benzene, C6H6, InChI=1S/C6H6/c1-2-4-6-5-3-1/h1-6H
Compound 2: chlorobenzene, C6H5Cl, InChI=1S/C6H5Cl/c7-6-4-2-1-3-5-6/h1-5H
Compound 3: ethylbenzene, C8H10, InChI=1S/C8H10/c1-2-8-6-4-3-5-7-8/h3-7H,2H2,1H3
Compound 4: toluene, C7H8, InChI=1S/C7H8/c1-7-5-3-2-4-6-7/h2-6H,1H3
Compound 5: 4-chlorotoluene, C7H7Cl, InChI=1S/C7H7Cl/c1-6-2-4-7(8)5-3-6/h2-5H,1H3
Compound 6: naphthalene, C10H8, InChI=1S/C10H8/c1-2-6-10-8-4-3-7-9(10)5-1/h1-8H
Compound 7: pyrene, C16H10, InChI=1S/C16H10/c1-3-11-7-9-13-5-2-6-14-10-8-12(4-1)15(11)16(13)14/h1-10H
Compound 8: perylene, C20H12, InChI=1S/C20H12/c1-5-13-6-2-11-17-18-12-4-8-14-7-3-10-16(20(14)18)15(9-1)19(13)17/h1-12H
Compound 9: hexane, C6H14, InChI=1S/C6H14/c1-3-5-6-4-2/h3-6H2,1-2H3
Compound 10: octane, C8H18, InChI=1S/C8H18/c1-3-5-7-8-6-4-2/h3-8H2,1-2H3
Compound 11: decane, C10H22, InChI=1S/C10H22/c1-3-5-7-9-10-8-6-4-2/h3-10H2,1-2H3
Compound 12: heptane, C7H16, InChI=1S/C7H16/c1-3-5-7-6-4-2/h3-7H2,1-2H3
Compound 13: cyclohexane, C6H12, InChI=1S/C6H12/c1-2-4-6-5-3-1/h1-6H2

System: benzene + hexane + octane; phases: Liquid, Gas
Fixed: Mole fraction of benzene = 0
Fixed: Temperature, K = 298.15
Property: Binary diffusion coefficient, m2/s (Liquid); method: Taylor dispersion method
Solvent: Mole fraction of hexane	Binary diffusion coefficient, m2/s	uncertainty
0	3.19e-09	0.07
0.1008	3.29e-09	0.08
0.2033	3.41e-09	0.08
0.3001	3.52e-09	0.08
0.3997	3.65e-09	0.08
0.5002	3.79e-09	0.09
0.5991	3.94e-09	0.09
0.7005	4.1e-09	0.09
0.7984	4.29e-09	0.1
0.8954	4.48e-09	0.1
1	4.7e-09	0.1

System: chlorobenzene + hexane + octane; phases: Liquid, Gas
Fixed: Mole fraction of chlorobenzene = 0
Fixed: Temperature, K = 298.15
Property: Binary diffusion coefficient, m2/s (Liquid); method: Taylor dispersion method
Solvent: Mole fraction of hexane	Binary diffusion coefficient, m2/s	uncertainty
0	2.89e-09	0.07
0.1008	2.97e-09	0.07
0.2033	3.07e-09	0.07
0.3001	3.16e-09	0.07
0.3997	3.27e-09	0.08
0.5002	3.39e-09	0.08
0.5991	3.52e-09	0.08
0.7005	3.66e-09	0.08
0.7984	3.81e-09	0.09
0.8954	3.97e-09	0.09
1	4.16e-09	0.09

System: ethylbenzene + hexane + octane; phases: Liquid, Gas
Fixed: Mole fraction of ethylbenzene = 0
Fixed: Temperature, K = 298.15
Property: Binary diffusion coefficient, m2/s (Liquid); method: Taylor dispersion method
Solvent: Mole fraction of hexane	Binary diffusion coefficient, m2/s	uncertainty
0	2.58e-09	0.06
0.1008	2.66e-09	0.06
0.2033	2.74e-09	0.07
0.3001	2.83e-09	0.07
0.3997	2.92e-09	0.07
0.5002	3.04e-09	0.07
0.5991	3.15e-09	0.07
0.7005	3.28e-09	0.08
0.7984	3.41e-09	0.08
0.8954	3.56e-09	0.08
1	3.73e-09	0.08

System: toluene + hexane + octane; phases: Liquid, Gas
Fixed: Mole fraction of toluene = 0
Fixed: Temperature, K = 298.15
Property: Binary diffusion coefficient, m2/s (Liquid); method: Taylor dispersion method
Solvent: Mole fraction of hexane	Binary diffusion coefficient, m2/s	uncertainty
0	2.83e-09	0.07
0.1008	2.92e-09	0.07
0.2033	3.01e-09	0.07
0.3001	3.11e-09	0.07
0.3997	3.22e-09	0.07
0.5002	3.34e-09	0.08
0.5991	3.47e-09	0.08
0.7005	3.61e-09	0.08
0.7984	3.76e-09	0.09
0.8954	3.93e-09	0.09
1	4.12e-09	0.09

System: 4-chlorotoluene + hexane + octane; phases: Liquid, Gas
Fixed: Mole fraction of 4-chlorotoluene = 0
Fixed: Temperature, K = 298.15
Property: Binary diffusion coefficient, m2/s (Liquid); method: Taylor dispersion method
Solvent: Mole fraction of hexane	Binary diffusion coefficient, m2/s	uncertainty
0	2.62e-09	0.06
0.1008	2.7e-09	0.06
0.2033	2.78e-09	0.07
0.3001	2.86e-09	0.07
0.3997	2.95e-09	0.07
0.5002	3.06e-09	0.07
0.5991	3.17e-09	0.07
0.7005	3.29e-09	0.08
0.7984	3.43e-09	0.08
0.8954	3.57e-09	0.08
1	3.74e-09	0.08

System: naphthalene + hexane + octane; phases: Liquid, Gas
Fixed: Mole fraction of naphthalene = 0
Fixed: Temperature, K = 298.15
Property: Binary diffusion coefficient, m2/s (Liquid); method: Taylor dispersion method
Solvent: Mole fraction of hexane	Binary diffusion coefficient, m2/s	uncertainty
0	2.35e-09	0.06
0.1008	2.43e-09	0.06
0.2033	2.52e-09	0.06
0.3001	2.61e-09	0.06
0.3997	2.71e-09	0.06
0.5002	2.83e-09	0.07
0.5991	2.94e-09	0.07
0.7005	3.07e-09	0.07
0.7984	3.22e-09	0.07
0.8954	3.37e-09	0.08
1	3.55e-09	0.08

System: hexane + octane + pyrene; phases: Liquid, Gas
Fixed: Mole fraction of pyrene = 0
Fixed: Temperature, K = 298.15
Property: Binary diffusion coefficient, m2/s (Liquid); method: Taylor dispersion method
Solvent: Mole fraction of octane	Binary diffusion coefficient, m2/s	uncertainty
0	1.81e-09	0.05
0.1008	1.86e-09	0.05
0.2033	1.92e-09	0.05
0.3001	1.98e-09	0.05
0.3997	2.04e-09	0.05
0.5002	2.11e-09	0.05
0.5991	2.19e-09	0.05
0.7005	2.27e-09	0.06
0.7984	2.37e-09	0.06
0.8954	2.46e-09	0.06
1	2.58e-09	0.06

System: benzene + hexane + decane; phases: Liquid, Gas
Fixed: Mole fraction of benzene = 0
Fixed: Temperature, K = 298.15
Property: Binary diffusion coefficient, m2/s (Liquid); method: Taylor dispersion method
Solvent: Mole fraction of hexane	Binary diffusion coefficient, m2/s	uncertainty
0	2.16e-09	0.053
0.1927	2.406e-09	0.058
0.4143	2.782e-09	0.066
0.5131	2.995e-09	0.07
0.7203	3.55e-09	0.081
0.8935	4.19e-09	0.094
1	4.7e-09	0.104

System: chlorobenzene + hexane + decane; phases: Liquid, Gas
Fixed: Mole fraction of chlorobenzene = 0
Fixed: Temperature, K = 298.15
Property: Binary diffusion coefficient, m2/s (Liquid); method: Taylor dispersion method
Solvent: Mole fraction of hexane	Binary diffusion coefficient, m2/s	uncertainty
0	1.98e-09	0.05
0.1927	2.2e-09	0.054
0.4143	2.532e-09	0.061
0.5131	2.719e-09	0.064
0.7203	3.207e-09	0.074
0.8935	3.715e-09	0.084
1	4.16e-09	0.093

System: ethylbenzene + hexane + decane; phases: Liquid, Gas
Fixed: Mole fraction of ethylbenzene = 0
Fixed: Temperature, K = 298.15
Property: Binary diffusion coefficient, m2/s (Liquid); method: Taylor dispersion method
Solvent: Mole fraction of hexane	Binary diffusion coefficient, m2/s	uncertainty
0	1.79e-09	0.046
0.1927	1.984e-09	0.05
0.4143	2.279e-09	0.056
0.5131	2.444e-09	0.059
0.7203	2.879e-09	0.068
0.8935	3.352e-09	0.077
1	3.73e-09	0.085

System: toluene + hexane + decane; phases: Liquid, Gas
Fixed: Mole fraction of toluene = 0
Fixed: Temperature, K = 298.15
Property: Binary diffusion coefficient, m2/s (Liquid); method: Taylor dispersion method
Solvent: Mole fraction of hexane	Binary diffusion coefficient, m2/s	uncertainty
0	1.93e-09	0.049
0.1927	2.143e-09	0.053
0.4143	2.48e-09	0.06
0.5131	2.67e-09	0.063
0.7203	3.16e-09	0.073
0.8935	3.69e-09	0.084
1	4.12e-09	0.092

System: 4-chlorotoluene + hexane + decane; phases: Liquid, Gas
Fixed: Mole fraction of 4-chlorotoluene = 0
Fixed: Temperature, K = 298.15
Property: Binary diffusion coefficient, m2/s (Liquid); method: Taylor dispersion method
Solvent: Mole fraction of hexane	Binary diffusion coefficient, m2/s	uncertainty
0	1.8e-09	0.046
0.1927	1.98e-09	0.05
0.4143	2.266e-09	0.055
0.5131	2.429e-09	0.059
0.7203	2.889e-09	0.068
0.8935	3.35e-09	0.077
1	3.74e-09	0.085

System: naphthalene + hexane + decane; phases: Liquid, Gas
Fixed: Mole fraction of naphthalene = 0
Fixed: Temperature, K = 298.15
Property: Binary diffusion coefficient, m2/s (Liquid); method: Taylor dispersion method
Solvent: Mole fraction of hexane	Binary diffusion coefficient, m2/s	uncertainty
0	1.65e-09	0.043
0.1927	1.834e-09	0.047
0.4143	2.123e-09	0.052
0.5131	2.284e-09	0.056
0.7203	2.705e-09	0.064
0.8935	3.167e-09	0.073
1	3.55e-09	0.081

System: hexane + decane + pyrene; phases: Liquid, Gas
Fixed: Mole fraction of pyrene = 0
Fixed: Temperature, K = 298.15
Property: Binary diffusion coefficient, m2/s (Liquid); method: Taylor dispersion method
Solvent: Mole fraction of hexane	Binary diffusion coefficient, m2/s	uncertainty
0	1.23e-09	0.035
0.1927	1.357e-09	0.037
0.4143	1.553e-09	0.041
0.5131	1.668e-09	0.043
0.7203	1.966e-09	0.049
0.8935	2.315e-09	0.056
1	2.58e-09	0.062

System: hexane + decane + perylene; phases: Liquid, Gas
Fixed: Mole fraction of perylene = 0
Fixed: Temperature, K = 298.15
Property: Binary diffusion coefficient, m2/s (Liquid); method: Taylor dispersion method
Solvent: Mole fraction of hexane	Binary diffusion coefficient, m2/s	uncertainty
0	1.075e-09	0.032
0.1927	1.191e-09	0.034
0.4143	1.374e-09	0.037
0.5131	1.477e-09	0.04
0.7203	1.751e-09	0.045
0.8935	2.047e-09	0.051
1	2.3e-09	0.056

System: benzene + octane + heptane; phases: Liquid, Gas
Fixed: Mole fraction of benzene = 0
Fixed: Temperature, K = 298.15
Property: Binary diffusion coefficient, m2/s (Liquid); method: Taylor dispersion method
Solvent: Mole fraction of heptane	Binary diffusion coefficient, m2/s	uncertainty
0	3.19e-09	0.07
0.0992	3.23e-09	0.07
0.2287	3.3e-09	0.08
0.2924	3.33e-09	0.08
0.4101	3.39e-09	0.08
0.5052	3.44e-09	0.08
0.6082	3.5e-09	0.08
0.6973	3.55e-09	0.08
0.7898	3.61e-09	0.08
0.8954	3.68e-09	0.08
1	3.75e-09	0.09

System: chlorobenzene + octane + heptane; phases: Liquid, Gas
Fixed: Mole fraction of chlorobenzene = 0
Fixed: Temperature, K = 298.15
Property: Binary diffusion coefficient, m2/s (Liquid); method: Taylor dispersion method
Solvent: Mole fraction of heptane	Binary diffusion coefficient, m2/s	uncertainty
0	2.89e-09	0.07
0.0992	2.93e-09	0.07
0.2287	2.99e-09	0.07
0.2924	3.02e-09	0.07
0.4101	3.08e-09	0.07
0.5052	3.13e-09	0.07
0.6082	3.19e-09	0.07
0.6973	3.24e-09	0.08
0.7898	3.29e-09	0.08
0.8954	3.36e-09	0.08
1	3.42e-09	0.08

System: ethylbenzene + octane + heptane; phases: Liquid, Gas
Fixed: Mole fraction of ethylbenzene = 0
Fixed: Temperature, K = 298.15
Property: Binary diffusion coefficient, m2/s (Liquid); method: Taylor dispersion method
Solvent: Mole fraction of heptane	Binary diffusion coefficient, m2/s	uncertainty
0	2.58e-09	0.06
0.0992	2.63e-09	0.06
0.2287	2.69e-09	0.06
0.2924	2.72e-09	0.06
0.4101	2.79e-09	0.07
0.5052	2.84e-09	0.07
0.6082	2.9e-09	0.07
0.6973	2.95e-09	0.07
0.7898	3.01e-09	0.07
0.8954	3.08e-09	0.07
1	3.15e-09	0.07

System: toluene + octane + heptane; phases: Liquid, Gas
Fixed: Mole fraction of toluene = 0
Fixed: Temperature, K = 298.15
Property: Binary diffusion coefficient, m2/s (Liquid); method: Taylor dispersion method
Solvent: Mole fraction of heptane	Binary diffusion coefficient, m2/s	uncertainty
0	2.83e-09	0.07
0.0992	2.88e-09	0.07
0.2287	2.95e-09	0.07
0.2924	2.98e-09	0.07
0.4101	3.05e-09	0.07
0.5052	3.1e-09	0.07
0.6082	3.16e-09	0.07
0.6973	3.22e-09	0.07
0.7898	3.28e-09	0.08
0.8954	3.35e-09	0.08
1	3.42e-09	0.08

System: 4-chlorotoluene + octane + heptane; phases: Liquid, Gas
Fixed: Mole fraction of 4-chlorotoluene = 0
Fixed: Temperature, K = 298.15
Property: Binary diffusion coefficient, m2/s (Liquid); method: Taylor dispersion method
Solvent: Mole fraction of heptane	Binary diffusion coefficient, m2/s	uncertainty
0	2.62e-09	0.06
0.0992	2.66e-09	0.06
0.2287	2.72e-09	0.06
0.2924	2.74e-09	0.07
0.4101	2.81e-09	0.07
0.5052	2.84e-09	0.07
0.6082	2.89e-09	0.07
0.6973	2.94e-09	0.07
0.7898	2.99e-09	0.07
0.8954	3.05e-09	0.07
1	3.11e-09	0.07

System: naphthalene + octane + heptane; phases: Liquid, Gas
Fixed: Mole fraction of naphthalene = 0
Fixed: Temperature, K = 298.15
Property: Binary diffusion coefficient, m2/s (Liquid); method: Taylor dispersion method
Solvent: Mole fraction of heptane	Binary diffusion coefficient, m2/s	uncertainty
0	2.35e-09	0.06
0.0992	2.39e-09	0.06
0.2287	2.44e-09	0.06
0.2924	2.47e-09	0.06
0.4101	2.52e-09	0.06
0.5052	2.56e-09	0.06
0.6082	2.61e-09	0.06
0.6973	2.65e-09	0.06
0.7898	2.7e-09	0.06
0.8954	2.75e-09	0.07
1	2.81e-09	0.07

System: octane + pyrene + heptane; phases: Liquid, Gas
Fixed: Mole fraction of pyrene = 0
Fixed: Temperature, K = 298.15
Property: Binary diffusion coefficient, m2/s (Liquid); method: Taylor dispersion method
Solvent: Mole fraction of heptane	Binary diffusion coefficient, m2/s	uncertainty
0	1.81e-09	0.05
0.0992	1.84e-09	0.05
0.2287	1.88e-09	0.05
0.2924	1.9e-09	0.05
0.4101	1.94e-09	0.05
0.5052	1.97e-09	0.05
0.6082	2.01e-09	0.05
0.6973	2.04e-09	0.05
0.7898	2.07e-09	0.05
0.8954	2.12e-09	0.05
1	2.16e-09	0.05

System: octane + heptane + perylene; phases: Liquid, Gas
Fixed: Mole fraction of perylene = 0
Fixed: Temperature, K = 298.15
Property: Binary diffusion coefficient, m2/s (Liquid); method: Taylor dispersion method
Solvent: Mole fraction of heptane	Binary diffusion coefficient, m2/s	uncertainty
0	1.58e-09	0.04
0.0992	1.61e-09	0.04
0.2287	1.64e-09	0.04
0.2924	1.66e-09	0.04
0.4101	1.69e-09	0.04
0.5052	1.72e-09	0.04
0.6082	1.75e-09	0.05
0.6973	1.78e-09	0.05
0.7898	1.81e-09	0.05
0.8954	1.85e-09	0.05
1	1.89e-09	0.05

System: benzene + decane + heptane; phases: Liquid, Gas
Fixed: Mole fraction of benzene = 0
Fixed: Temperature, K = 298.15
Property: Binary diffusion coefficient, m2/s (Liquid); method: Taylor dispersion method
Solvent: Mole fraction of heptane	Binary diffusion coefficient, m2/s	uncertainty
0	2.16e-09	0.05
0.1178	2.27e-09	0.06
0.1784	2.32e-09	0.06
0.3091	2.47e-09	0.06
0.4135	2.59e-09	0.06
0.4703	2.68e-09	0.06
0.6041	2.88e-09	0.07
0.6863	3.04e-09	0.07
0.7595	3.18e-09	0.07
0.8884	3.46e-09	0.08
1	3.75e-09	0.09

System: chlorobenzene + decane + heptane; phases: Liquid, Gas
Fixed: Mole fraction of chlorobenzene = 0
Fixed: Temperature, K = 298.15
Property: Binary diffusion coefficient, m2/s (Liquid); method: Taylor dispersion method
Solvent: Mole fraction of heptane	Binary diffusion coefficient, m2/s	uncertainty
0	1.98e-09	0.05
0.1178	2.08e-09	0.05
0.1784	2.13e-09	0.05
0.3091	2.26e-09	0.06
0.4135	2.38e-09	0.06
0.4703	2.45e-09	0.06
0.6041	2.64e-09	0.06
0.6863	2.77e-09	0.07
0.7595	2.89e-09	0.07
0.8884	3.15e-09	0.07
1	3.42e-09	0.08

System: ethylbenzene + decane + heptane; phases: Liquid, Gas
Fixed: Mole fraction of ethylbenzene = 0
Fixed: Temperature, K = 298.15
Property: Binary diffusion coefficient, m2/s (Liquid); method: Taylor dispersion method
Solvent: Mole fraction of heptane	Binary diffusion coefficient, m2/s	uncertainty
0	1.79e-09	0.05
0.1178	1.88e-09	0.05
0.1784	1.92e-09	0.05
0.3091	2.05e-09	0.05
0.4135	2.16e-09	0.05
0.4703	2.23e-09	0.05
0.6041	2.41e-09	0.06
0.6863	2.54e-09	0.06
0.7595	2.65e-09	0.06
0.8884	2.9e-09	0.07
1	3.15e-09	0.07

System: toluene + decane + heptane; phases: Liquid, Gas
Fixed: Mole fraction of toluene = 0
Fixed: Temperature, K = 298.15
Property: Binary diffusion coefficient, m2/s (Liquid); method: Taylor dispersion method
Solvent: Mole fraction of heptane	Binary diffusion coefficient, m2/s	uncertainty
0	1.93e-09	0.05
0.1178	2.04e-09	0.05
0.1784	2.1e-09	0.05
0.3091	2.24e-09	0.06
0.4135	2.36e-09	0.06
0.4703	2.43e-09	0.06
0.6041	2.62e-09	0.06
0.6863	2.76e-09	0.07
0.7595	2.9e-09	0.07
0.8884	3.15e-09	0.07
1	3.42e-09	0.08

System: 4-chlorotoluene + decane + heptane; phases: Liquid, Gas
Fixed: Mole fraction of 4-chlorotoluene = 0
Fixed: Temperature, K = 298.15
Property: Binary diffusion coefficient, m2/s (Liquid); method: Taylor dispersion method
Solvent: Mole fraction of heptane	Binary diffusion coefficient, m2/s	uncertainty
0	1.8e-09	0.05
0.1178	1.89e-09	0.05
0.1784	1.94e-09	0.05
0.3091	2.07e-09	0.05
0.4135	2.17e-09	0.05
0.4703	2.23e-09	0.05
0.6041	2.4e-09	0.06
0.6863	2.52e-09	0.06
0.7595	2.63e-09	0.06
0.8884	2.86e-09	0.07
1	3.11e-09	0.07

System: naphthalene + decane + heptane; phases: Liquid, Gas
Fixed: Mole fraction of naphthalene = 0
Fixed: Temperature, K = 298.15
Property: Binary diffusion coefficient, m2/s (Liquid); method: Taylor dispersion method
Solvent: Mole fraction of heptane	Binary diffusion coefficient, m2/s	uncertainty
0	1.65e-09	0.04
0.1178	1.73e-09	0.04
0.1784	1.78e-09	0.05
0.3091	1.89e-09	0.05
0.4135	1.98e-09	0.05
0.4703	2.04e-09	0.05
0.6041	2.19e-09	0.05
0.6863	2.3e-09	0.06
0.7595	2.4e-09	0.06
0.8884	2.59e-09	0.06
1	2.81e-09	0.07

System: decane + pyrene + heptane; phases: Liquid, Gas
Fixed: Temperature, K = 298.15
Fixed: Mole fraction of pyrene = 0
Property: Binary diffusion coefficient, m2/s (Liquid); method: Taylor dispersion method
Solvent: Mole fraction of heptane	Binary diffusion coefficient, m2/s	uncertainty
0	1.23e-09	0.04
0.1178	1.3e-09	0.04
0.1784	1.33e-09	0.04
0.3091	1.42e-09	0.04
0.4135	1.49e-09	0.04
0.4703	1.54e-09	0.04
0.6041	1.66e-09	0.04
0.6863	1.74e-09	0.05
0.7595	1.82e-09	0.05
0.8884	1.99e-09	0.05
1	2.16e-09	0.05

System: decane + heptane + perylene; phases: Liquid, Gas
Fixed: Temperature, K = 298.15
Fixed: Mole fraction of perylene = 0
Property: Binary diffusion coefficient, m2/s (Liquid); method: Taylor dispersion method
Solvent: Mole fraction of heptane	Binary diffusion coefficient, m2/s	uncertainty
0	1.08e-09	0.03
0.1178	1.13e-09	0.03
0.1784	1.16e-09	0.03
0.3091	1.24e-09	0.04
0.4135	1.3e-09	0.04
0.4703	1.34e-09	0.04
0.6041	1.45e-09	0.04
0.6863	1.53e-09	0.04
0.7595	1.6e-09	0.04
0.8884	1.74e-09	0.05
1	1.89e-09	0.05

System: benzene + octane + decane; phases: Liquid, Gas
Fixed: Mole fraction of benzene = 0
Fixed: Temperature, K = 298.15
Property: Binary diffusion coefficient, m2/s (Liquid); method: Taylor dispersion method
Solvent: Mole fraction of octane	Binary diffusion coefficient, m2/s	uncertainty
0	2.16e-09	0.05
0.1384	2.27e-09	0.06
0.2144	2.33e-09	0.06
0.3015	2.4e-09	0.06
0.452	2.54e-09	0.06
0.601	2.69e-09	0.06
0.6988	2.8e-09	0.07
0.8208	2.95e-09	0.07
0.8858	3.03e-09	0.07
1	3.19e-09	0.07

System: chlorobenzene + octane + decane; phases: Liquid, Gas
Fixed: Mole fraction of chlorobenzene = 0
Fixed: Temperature, K = 298.15
Property: Binary diffusion coefficient, m2/s (Liquid); method: Taylor dispersion method
Solvent: Mole fraction of octane	Binary diffusion coefficient, m2/s	uncertainty
0	1.98e-09	0.05
0.1384	2.07e-09	0.05
0.2144	2.13e-09	0.05
0.3015	2.19e-09	0.05
0.452	2.31e-09	0.06
0.601	2.45e-09	0.06
0.6988	2.54e-09	0.06
0.8208	2.67e-09	0.06
0.8858	2.75e-09	0.07
1	2.89e-09	0.07

System: ethylbenzene + octane + decane; phases: Liquid, Gas
Fixed: Mole fraction of ethylbenzene = 0
Fixed: Temperature, K = 298.15
Property: Binary diffusion coefficient, m2/s (Liquid); method: Taylor dispersion method
Solvent: Mole fraction of octane	Binary diffusion coefficient, m2/s	uncertainty
0	1.79e-09	0.05
0.1384	1.87e-09	0.05
0.2144	1.92e-09	0.05
0.3015	1.97e-09	0.05
0.452	2.08e-09	0.05
0.601	2.2e-09	0.05
0.6988	2.28e-09	0.06
0.8208	2.39e-09	0.06
0.8858	2.44e-09	0.06
1	2.58e-09	0.06

System: toluene + octane + decane; phases: Liquid, Gas
Fixed: Mole fraction of toluene = 0
Fixed: Temperature, K = 298.15
Property: Binary diffusion coefficient, m2/s (Liquid); method: Taylor dispersion method
Solvent: Mole fraction of octane	Binary diffusion coefficient, m2/s	uncertainty
0	1.93e-09	0.05
0.1384	2.02e-09	0.05
0.2144	2.08e-09	0.05
0.3015	2.14e-09	0.05
0.452	2.26e-09	0.06
0.601	2.39e-09	0.06
0.6988	2.49e-09	0.06
0.8208	2.61e-09	0.06
0.8858	2.69e-09	0.06
1	2.83e-09	0.07

System: 4-chlorotoluene + octane + decane; phases: Liquid, Gas
Fixed: Mole fraction of 4-chlorotoluene = 0
Fixed: Temperature, K = 298.15
Property: Binary diffusion coefficient, m2/s (Liquid); method: Taylor dispersion method
Solvent: Mole fraction of octane	Binary diffusion coefficient, m2/s	uncertainty
0	1.8e-09	0.05
0.1384	1.88e-09	0.05
0.2144	1.93e-09	0.05
0.3015	1.99e-09	0.05
0.452	2.1e-09	0.05
0.601	2.22e-09	0.05
0.6988	2.31e-09	0.06
0.8208	2.43e-09	0.06
0.8858	2.49e-09	0.06
1	2.62e-09	0.06

System: naphthalene + octane + decane; phases: Liquid, Gas
Fixed: Mole fraction of naphthalene = 0
Fixed: Temperature, K = 298.15
Property: Binary diffusion coefficient, m2/s (Liquid); method: Taylor dispersion method
Solvent: Mole fraction of octane	Binary diffusion coefficient, m2/s	uncertainty
0	1.65e-09	0.04
0.1384	1.72e-09	0.04
0.2144	1.76e-09	0.05
0.3015	1.81e-09	0.05
0.452	1.91e-09	0.05
0.601	2.01e-09	0.05
0.6988	2.08e-09	0.05
0.8208	2.18e-09	0.05
0.8858	2.24e-09	0.06
1	2.35e-09	0.06

System: octane + decane + pyrene; phases: Liquid, Gas
Fixed: Mole fraction of pyrene = 0
Fixed: Temperature, K = 298.15
Property: Binary diffusion coefficient, m2/s (Liquid); method: Taylor dispersion method
Solvent: Mole fraction of octane	Binary diffusion coefficient, m2/s	uncertainty
0	1.23e-09	0.04
0.1384	1.29e-09	0.04
0.2144	1.32e-09	0.04
0.3015	1.37e-09	0.04
0.452	1.44e-09	0.04
0.601	1.53e-09	0.04
0.6988	1.59e-09	0.04
0.8208	1.67e-09	0.04
0.8858	1.72e-09	0.04
1	1.81e-09	0.05

System: octane + decane + perylene; phases: Liquid, Gas
Fixed: Mole fraction of perylene = 0
Fixed: Temperature, K = 298.15
Property: Binary diffusion coefficient, m2/s (Liquid); method: Taylor dispersion method
Solvent: Mole fraction of octane	Binary diffusion coefficient, m2/s	uncertainty
0	1.08e-09	0.03
0.1384	1.13e-09	0.03
0.2144	1.16e-09	0.03
0.3015	1.19e-09	0.03
0.452	1.26e-09	0.04
0.601	1.34e-09	0.04
0.6988	1.39e-09	0.04
0.8208	1.46e-09	0.04
0.8858	1.5e-09	0.04
1	1.58e-09	0.04

System: benzene + hexane + cyclohexane; phases: Liquid, Gas
Fixed: Mole fraction of benzene = 0
Fixed: Temperature, K = 298.15
Property: Binary diffusion coefficient, m2/s (Liquid); method: Taylor dispersion method
Solvent: Mole fraction of cyclohexane	Binary diffusion coefficient, m2/s	uncertainty
0	4.7e-09	0.1
0.1884	4.26e-09	0.1
0.3882	3.78e-09	0.09
0.4918	3.46e-09	0.08
0.5857	3.18e-09	0.07
0.6988	2.85e-09	0.07
0.7914	2.5e-09	0.06
0.8977	2.21e-09	0.05
1	1.92e-09	0.05

System: chlorobenzene + hexane + cyclohexane; phases: Liquid, Gas
Fixed: Mole fraction of chlorobenzene = 0
Fixed: Temperature, K = 298.15
Property: Binary diffusion coefficient, m2/s (Liquid); method: Taylor dispersion method
Solvent: Mole fraction of cyclohexane	Binary diffusion coefficient, m2/s	uncertainty
0	4.16e-09	0.09
0.1884	3.62e-09	0.08
0.3882	3.07e-09	0.07
0.4918	2.74e-09	0.07
0.5857	2.46e-09	0.06
0.6988	2.13e-09	0.05
0.7914	1.85e-09	0.05
0.8977	1.6e-09	0.04
1	1.34e-09	0.04

System: ethylbenzene + hexane + cyclohexane; phases: Liquid, Gas
Fixed: Mole fraction of ethylbenzene = 0
Fixed: Temperature, K = 298.15
Property: Binary diffusion coefficient, m2/s (Liquid); method: Taylor dispersion method
Solvent: Mole fraction of cyclohexane	Binary diffusion coefficient, m2/s	uncertainty
0	3.73e-09	0.08
0.1884	3.29e-09	0.08
0.3882	2.85e-09	0.07
0.4918	2.58e-09	0.06
0.5857	2.34e-09	0.06
0.6988	2.04e-09	0.05
0.7914	1.81e-09	0.05
0.8977	1.6e-09	0.04
1	1.36e-09	0.04

System: toluene + hexane + cyclohexane; phases: Liquid, Gas
Fixed: Mole fraction of toluene = 0
Fixed: Temperature, K = 298.15
Property: Binary diffusion coefficient, m2/s (Liquid); method: Taylor dispersion method
Solvent: Mole fraction of cyclohexane	Binary diffusion coefficient, m2/s	uncertainty
0	4.12e-09	0.09
0.1884	3.71e-09	0.08
0.3882	3.3e-09	0.08
0.4918	3.02e-09	0.07
0.5857	2.76e-09	0.07
0.6988	2.47e-09	0.06
0.7914	2.18e-09	0.05
0.8977	1.91e-09	0.05
1	1.66e-09	0.04

System: 4-chlorotoluene + hexane + cyclohexane; phases: Liquid, Gas
Fixed: Mole fraction of 4-chlorotoluene = 0
Fixed: Temperature, K = 298.15
Property: Binary diffusion coefficient, m2/s (Liquid); method: Taylor dispersion method
Solvent: Mole fraction of cyclohexane	Binary diffusion coefficient, m2/s	uncertainty
0	3.74e-09	0.08
0.1884	3.25e-09	0.08
0.3882	2.76e-09	0.07
0.4918	2.49e-09	0.06
0.5857	2.25e-09	0.06
0.6988	1.97e-09	0.05
0.7914	1.74e-09	0.05
0.8977	1.51e-09	0.04
1	1.28e-09	0.04

System: naphthalene + hexane + cyclohexane; phases: Liquid, Gas
Fixed: Mole fraction of naphthalene = 0
Fixed: Temperature, K = 298.15
Property: Binary diffusion coefficient, m2/s (Liquid); method: Taylor dispersion method
Solvent: Mole fraction of cyclohexane	Binary diffusion coefficient, m2/s	uncertainty
0	3.55e-09	0.08
0.1884	3.16e-09	0.07
0.3882	2.71e-09	0.06
0.4918	2.43e-09	0.06
0.5857	2.19e-09	0.05
0.6988	1.88e-09	0.05
0.7914	1.66e-09	0.04
0.8977	1.44e-09	0.04
1	1.18e-09	0.03

System: hexane + cyclohexane + pyrene; phases: Liquid, Gas
Fixed: Mole fraction of pyrene = 0
Fixed: Temperature, K = 298.15
Property: Binary diffusion coefficient, m2/s (Liquid); method: Taylor dispersion method
Solvent: Mole fraction of cyclohexane	Binary diffusion coefficient, m2/s	uncertainty
0	2.58e-09	0.06
0.1884	2.34e-09	0.06
0.3882	2.03e-09	0.05
0.4918	1.84e-09	0.05
0.5857	1.67e-09	0.04
0.6988	1.46e-09	0.04
0.7914	1.3e-09	0.04
0.8977	1.13e-09	0.03
1	9.5e-10	0.03

System: hexane + cyclohexane + perylene; phases: Liquid, Gas
Fixed: Mole fraction of perylene = 0
Fixed: Temperature, K = 298.15
Property: Binary diffusion coefficient, m2/s (Liquid); method: Taylor dispersion method
Solvent: Mole fraction of cyclohexane	Binary diffusion coefficient, m2/s	uncertainty
0	2.3e-09	0.06
0.1884	2.05e-09	0.05
0.3882	1.76e-09	0.05
0.4918	1.57e-09	0.04
0.5857	1.41e-09	0.04
0.6988	1.24e-09	0.04
0.7914	1.09e-09	0.03
0.8977	9.4e-10	0.03
1	7.9e-10	0.03

System: benzene + cyclohexane + heptane; phases: Liquid, Gas
Fixed: Mole fraction of benzene = 0
Fixed: Temperature, K = 298.15
Property: Binary diffusion coefficient, m2/s (Liquid); method: Taylor dispersion method
Solvent: Mole fraction of cyclohexane	Binary diffusion coefficient, m2/s	uncertainty
0	3.75e-09	0.09
0.1013	3.68e-09	0.08
0.2027	3.53e-09	0.08
0.4037	3.24e-09	0.08
0.4998	3.05e-09	0.07
0.6018	2.83e-09	0.07
0.8024	2.39e-09	0.06
0.9002	2.22e-09	0.05
1	1.92e-09	0.05

System: chlorobenzene + cyclohexane + heptane; phases: Liquid, Gas
Fixed: Mole fraction of chlorobenzene = 0
Fixed: Temperature, K = 298.15
Property: Binary diffusion coefficient, m2/s (Liquid); method: Taylor dispersion method
Solvent: Mole fraction of cyclohexane	Binary diffusion coefficient, m2/s	uncertainty
0	3.42e-09	0.08
0.1013	3.26e-09	0.08
0.2027	3.05e-09	0.07
0.4037	2.64e-09	0.06
0.4998	2.44e-09	0.06
0.6018	2.2e-09	0.05
0.8024	1.75e-09	0.05
0.9002	1.58e-09	0.04
1	1.34e-09	0.04

System: ethylbenzene + cyclohexane + heptane; phases: Liquid, Gas
Fixed: Mole fraction of ethylbenzene = 0
Fixed: Temperature, K = 298.15
Property: Binary diffusion coefficient, m2/s (Liquid); method: Taylor dispersion method
Solvent: Mole fraction of cyclohexane	Binary diffusion coefficient, m2/s	uncertainty
0	3.15e-09	0.07
0.1013	3.07e-09	0.07
0.2027	2.9e-09	0.07
0.4037	2.56e-09	0.06
0.4998	2.38e-09	0.06
0.6018	2.18e-09	0.05
0.8024	1.77e-09	0.05
0.9002	1.57e-09	0.04
1	1.36e-09	0.04

System: toluene + cyclohexane + heptane; phases: Liquid, Gas
Fixed: Mole fraction of toluene = 0
Fixed: Temperature, K = 298.15
Property: Binary diffusion coefficient, m2/s (Liquid); method: Taylor dispersion method
Solvent: Mole fraction of cyclohexane	Binary diffusion coefficient, m2/s	uncertainty
0	3.42e-09	0.08
0.1013	3.3e-09	0.08
0.2027	3.14e-09	0.07
0.4037	2.87e-09	0.07
0.4998	2.69e-09	0.06
0.6018	2.52e-09	0.06
0.8024	2.12e-09	0.05
0.9002	1.92e-09	0.05
1	1.66e-09	0.04

System: 4-chlorotoluene + cyclohexane + heptane; phases: Liquid, Gas
Fixed: Mole fraction of 4-chlorotoluene = 0
Fixed: Temperature, K = 298.15
Property: Binary diffusion coefficient, m2/s (Liquid); method: Taylor dispersion method
Solvent: Mole fraction of cyclohexane	Binary diffusion coefficient, m2/s	uncertainty
0	3.11e-09	0.07
0.1013	3e-09	0.07
0.2027	2.84e-09	0.07
0.4037	2.51e-09	0.06
0.4998	2.32e-09	0.06
0.6018	2.1e-09	0.05
0.8024	1.68e-09	0.04
0.9002	1.5e-09	0.04
1	1.28e-09	0.04

System: naphthalene + cyclohexane + heptane; phases: Liquid, Gas
Fixed: Mole fraction of naphthalene = 0
Fixed: Temperature, K = 298.15
Property: Binary diffusion coefficient, m2/s (Liquid); method: Taylor dispersion method
Solvent: Mole fraction of cyclohexane	Binary diffusion coefficient, m2/s	uncertainty
0	2.81e-09	0.07
0.1013	2.72e-09	0.06
0.2027	2.57e-09	0.06
0.4037	2.26e-09	0.06
0.4998	2.08e-09	0.05
0.6018	1.9e-09	0.05
0.8024	1.53e-09	0.04
0.9002	1.38e-09	0.04
1	1.18e-09	0.03

System: cyclohexane + pyrene + heptane; phases: Liquid, Gas
Fixed: Mole fraction of pyrene = 0
Fixed: Temperature, K = 298.15
Property: Binary diffusion coefficient, m2/s (Liquid); method: Taylor dispersion method
Solvent: Mole fraction of cyclohexane	Binary diffusion coefficient, m2/s	uncertainty
0	2.16e-09	0.05
0.1013	2.1e-09	0.05
0.2027	1.99e-09	0.05
0.4037	1.75e-09	0.05
0.4998	1.63e-09	0.04
0.6018	1.48e-09	0.04
0.8024	1.22e-09	0.03
0.9002	1.11e-09	0.03
1	9.5e-10	0.03

System: cyclohexane + heptane + perylene; phases: Liquid, Gas
Fixed: Mole fraction of perylene = 0
Fixed: Temperature, K = 298.15
Property: Binary diffusion coefficient, m2/s (Liquid); method: Taylor dispersion method
Solvent: Mole fraction of cyclohexane	Binary diffusion coefficient, m2/s	uncertainty
0	1.89e-09	0.05
0.1013	1.82e-09	0.05
0.2027	1.7e-09	0.04
0.4037	1.51e-09	0.04
0.4998	1.4e-09	0.04
0.6018	1.28e-09	0.04
0.8024	1.04e-09	0.03
0.9002	9.3e-10	0.03
1	7.9e-10	0.03

System: benzene + cyclohexane + octane; phases: Liquid, Gas
Fixed: Mole fraction of benzene = 0
Fixed: Temperature, K = 298.15
Property: Binary diffusion coefficient, m2/s (Liquid); method: Taylor dispersion method
Solvent: Mole fraction of cyclohexane	Binary diffusion coefficient, m2/s	uncertainty
0	3.19e-09	0.07
0.2042	3.02e-09	0.07
0.4044	2.8e-09	0.07
0.5017	2.72e-09	0.06
0.6029	2.6e-09	0.06
0.8014	2.32e-09	0.06
0.8971	2.14e-09	0.05
1	1.92e-09	0.05

System: chlorobenzene + cyclohexane + octane; phases: Liquid, Gas
Fixed: Mole fraction of chlorobenzene = 0
Fixed: Temperature, K = 298.15
Property: Binary diffusion coefficient, m2/s (Liquid); method: Taylor dispersion method
Solvent: Mole fraction of cyclohexane	Binary diffusion coefficient, m2/s	uncertainty
0	2.89e-09	0.07
0.2042	2.6e-09	0.06
0.4044	2.31e-09	0.06
0.5017	2.17e-09	0.05
0.6029	2.02e-09	0.05
0.8014	1.72e-09	0.04
0.8971	1.55e-09	0.04
1	1.34e-09	0.04

System: ethylbenzene + cyclohexane + octane; phases: Liquid, Gas
Fixed: Mole fraction of ethylbenzene = 0
Fixed: Temperature, K = 298.15
Property: Binary diffusion coefficient, m2/s (Liquid); method: Taylor dispersion method
Solvent: Mole fraction of cyclohexane	Binary diffusion coefficient, m2/s	uncertainty
0	2.58e-09	0.06
0.2042	2.4e-09	0.06
0.4044	2.17e-09	0.05
0.5017	2.07e-09	0.05
0.6029	1.94e-09	0.05
0.8014	1.72e-09	0.04
0.8971	1.54e-09	0.04
1	1.36e-09	0.04

System: toluene + cyclohexane + octane; phases: Liquid, Gas
Fixed: Mole fraction of toluene = 0
Fixed: Temperature, K = 298.15
Property: Binary diffusion coefficient, m2/s (Liquid); method: Taylor dispersion method
Solvent: Mole fraction of cyclohexane	Binary diffusion coefficient, m2/s	uncertainty
0	2.83e-09	0.07
0.2042	2.66e-09	0.06
0.4044	2.47e-09	0.06
0.5017	2.38e-09	0.06
0.6029	2.26e-09	0.06
0.8014	2.01e-09	0.05
0.8971	1.85e-09	0.05
1	1.66e-09	0.04

System: 4-chlorotoluene + cyclohexane + octane; phases: Liquid, Gas
Fixed: Mole fraction of 4-chlorotoluene = 0
Fixed: Temperature, K = 298.15
Property: Binary diffusion coefficient, m2/s (Liquid); method: Taylor dispersion method
Solvent: Mole fraction of cyclohexane	Binary diffusion coefficient, m2/s	uncertainty
0	2.62e-09	0.06
0.2042	2.39e-09	0.06
0.4044	2.14e-09	0.05
0.5017	2.03e-09	0.05
0.6029	1.89e-09	0.05
0.8014	1.63e-09	0.04
0.8971	1.47e-09	0.04
1	1.28e-09	0.04

System: naphthalene + cyclohexane + octane; phases: Liquid, Gas
Fixed: Mole fraction of naphthalene = 0
Fixed: Temperature, K = 298.15
Property: Binary diffusion coefficient, m2/s (Liquid); method: Taylor dispersion method
Solvent: Mole fraction of cyclohexane	Binary diffusion coefficient, m2/s	uncertainty
0	2.35e-09	0.06
0.2042	2.15e-09	0.05
0.4044	1.93e-09	0.05
0.5017	1.83e-09	0.05
0.6029	1.71e-09	0.04
0.8014	1.48e-09	0.04
0.8971	1.34e-09	0.04
1	1.18e-09	0.03

System: cyclohexane + octane + pyrene; phases: Liquid, Gas
Fixed: Mole fraction of pyrene = 0
Fixed: Temperature, K = 298.15
Property: Binary diffusion coefficient, m2/s (Liquid); method: Taylor dispersion method
Solvent: Mole fraction of cyclohexane	Binary diffusion coefficient, m2/s	uncertainty
0	1.81e-09	0.05
0.2042	1.67e-09	0.04
0.4044	1.52e-09	0.04
0.5017	1.45e-09	0.04
0.6029	1.36e-09	0.04
0.8014	1.19e-09	0.03
0.8971	1.08e-09	0.03
1	9.5e-10	0.03

System: cyclohexane + octane + perylene; phases: Liquid, Gas
Fixed: Mole fraction of perylene = 0
Fixed: Temperature, K = 298.15
Property: Binary diffusion coefficient, m2/s (Liquid); method: Taylor dispersion method
Solvent: Mole fraction of cyclohexane	Binary diffusion coefficient, m2/s	uncertainty
0	1.58e-09	0.04
0.2042	1.45e-09	0.04
0.4044	1.3e-09	0.04
0.5017	1.24e-09	0.04
0.6029	1.16e-09	0.03
0.8014	9.9e-10	0.03
0.8971	9e-10	0.03
1	7.9e-10	0.03

System: benzene + cyclohexane + decane; phases: Liquid, Gas
Fixed: Mole fraction of benzene = 0
Fixed: Temperature, K = 298.15
Property: Binary diffusion coefficient, m2/s (Liquid); method: Taylor dispersion method
Solvent: Mole fraction of cyclohexane	Binary diffusion coefficient, m2/s	uncertainty
0	2.16e-09	0.05
0.2065	2.12e-09	0.05
0.4003	2.1e-09	0.05
0.5005	2.09e-09	0.05
0.7045	2.06e-09	0.05
0.9001	2e-09	0.05
1	1.92e-09	0.05

System: chlorobenzene + cyclohexane + decane; phases: Liquid, Gas
Fixed: Mole fraction of chlorobenzene = 0
Fixed: Temperature, K = 298.15
Property: Binary diffusion coefficient, m2/s (Liquid); method: Taylor dispersion method
Solvent: Mole fraction of cyclohexane	Binary diffusion coefficient, m2/s	uncertainty
0	1.98e-09	0.05
0.2065	1.85e-09	0.05
0.4003	1.74e-09	0.05
0.5005	1.68e-09	0.04
0.7045	1.54e-09	0.04
0.9001	1.41e-09	0.04
1	1.34e-09	0.04

System: ethylbenzene + cyclohexane + decane; phases: Liquid, Gas
Fixed: Mole fraction of ethylbenzene = 0
Fixed: Temperature, K = 298.15
Property: Binary diffusion coefficient, m2/s (Liquid); method: Taylor dispersion method
Solvent: Mole fraction of cyclohexane	Binary diffusion coefficient, m2/s	uncertainty
0	1.79e-09	0.05
0.2065	1.71e-09	0.04
0.4003	1.65e-09	0.04
0.5005	1.62e-09	0.04
0.7045	1.53e-09	0.04
0.9001	1.43e-09	0.04
1	1.36e-09	0.04

System: toluene + cyclohexane + decane; phases: Liquid, Gas
Fixed: Mole fraction of toluene = 0
Fixed: Temperature, K = 298.15
Property: Binary diffusion coefficient, m2/s (Liquid); method: Taylor dispersion method
Solvent: Mole fraction of cyclohexane	Binary diffusion coefficient, m2/s	uncertainty
0	1.93e-09	0.05
0.2065	1.9e-09	0.05
0.4003	1.86e-09	0.05
0.5005	1.84e-09	0.05
0.7045	1.79e-09	0.05
0.9001	1.72e-09	0.04
1	1.66e-09	0.04

System: 4-chlorotoluene + cyclohexane + decane; phases: Liquid, Gas
Fixed: Mole fraction of 4-chlorotoluene = 0
Fixed: Temperature, K = 298.15
Property: Binary diffusion coefficient, m2/s (Liquid); method: Taylor dispersion method
Solvent: Mole fraction of cyclohexane	Binary diffusion coefficient, m2/s	uncertainty
0	1.8e-09	0.05
0.2065	1.7e-09	0.04
0.4003	1.61e-09	0.04
0.5005	1.57e-09	0.04
0.7045	1.46e-09	0.04
0.9001	1.35e-09	0.04
1	1.28e-09	0.04

System: naphthalene + cyclohexane + decane; phases: Liquid, Gas
Fixed: Mole fraction of naphthalene = 0
Fixed: Temperature, K = 298.15
Property: Binary diffusion coefficient, m2/s (Liquid); method: Taylor dispersion method
Solvent: Mole fraction of cyclohexane	Binary diffusion coefficient, m2/s	uncertainty
0	1.65e-09	0.04
0.2065	1.57e-09	0.04
0.4003	1.48e-09	0.04
0.5005	1.43e-09	0.04
0.7045	1.33e-09	0.04
0.9001	1.23e-09	0.04
1	1.18e-09	0.03

System: cyclohexane + decane + pyrene; phases: Liquid, Gas
Fixed: Mole fraction of pyrene = 0
Fixed: Temperature, K = 298.15
Property: Binary diffusion coefficient, m2/s (Liquid); method: Taylor dispersion method
Solvent: Mole fraction of cyclohexane	Binary diffusion coefficient, m2/s	uncertainty
0	1.23e-09	0.04
0.2065	1.18e-09	0.03
0.4003	1.13e-09	0.03
0.5005	1.11e-09	0.03
0.7045	1.05e-09	0.03
0.9001	9.9e-10	0.03
1	9.5e-10	0.03

System: cyclohexane + decane + perylene; phases: Liquid, Gas
Fixed: Mole fraction of perylene = 0
Fixed: Temperature, K = 298.15
Property: Binary diffusion coefficient, m2/s (Liquid); method: Taylor dispersion method
Solvent: Mole fraction of cyclohexane	Binary diffusion coefficient, m2/s	uncertainty
0	1.08e-09	0.03
0.2065	1.02e-09	0.03
0.4003	9.7e-10	0.03
0.5005	9.4e-10	0.03
0.7045	8.9e-10	0.03
0.9001	8.3e-10	0.03
1	7.9e-10	0.03

System: hexane + octane + perylene; phases: Liquid, Gas
Fixed: Mole fraction of perylene = 0
Fixed: Temperature, K = 298.15
Property: Binary diffusion coefficient, m2/s (Liquid); method: Taylor dispersion method
Solvent: Mole fraction of hexane	Binary diffusion coefficient, m2/s	uncertainty
0	1.58e-09	0.04
0.1008	1.63e-09	0.04
0.2033	1.68e-09	0.04
0.3001	1.74e-09	0.05
0.3997	1.8e-09	0.05
0.5002	1.87e-09	0.05
0.5991	1.94e-09	0.05
0.7005	2.02e-09	0.05
0.7984	2.1e-09	0.05
0.8954	2.19e-09	0.05
1	2.3e-09	0.06
