Measured thermophysical data. Temperature Dependence of Limiting Activity Coefficients, Henry s Law Constants, and Related Infinite Dilution Properties of Branched (C3 and C4) Alkanols in Water. Measurement, Critical Compilation, Correlation, and Recommended Data
Source: J. Chem. Eng. Data, 2007, 10.1021/je600567z
Compound 1: propan-2-ol, C3H8O, InChI=1S/C3H8O/c1-3(2)4/h3-4H,1-2H3
Compound 2: butan-2-ol, C4H10O, InChI=1S/C4H10O/c1-3-4(2)5/h4-5H,3H2,1-2H3
Compound 3: 2-methyl-1-propanol, C4H10O, InChI=1S/C4H10O/c1-4(2)3-5/h4-5H,3H2,1-2H3
Compound 4: 2-methylpropan-2-ol, C4H10O, InChI=1S/C4H10O/c1-4(2,3)5/h5H,1-3H3
Compound 5: water, H2O, InChI=1S/H2O/h1H2

System: propan-2-ol + water; phases: Liquid, Gas
Fixed: Mole fraction of propan-2-ol = 0
Property: Activity coefficient of propan-2-ol (Liquid); method: circulation equilibrium still
Temperature, K	Activity coefficient of propan-2-ol	uncertainty
353.15	12.5	0.8
363.15	12.9	0.8
371.15	13.1	0.8

System: propan-2-ol + water; phases: Liquid, Gas
Property: Activity coefficient of propan-2-ol (Liquid); method: Rayleigh distallation
Temperature, K	Mole fraction of propan-2-ol	Activity coefficient of propan-2-ol	uncertainty
333.15	0	11.8	0.7

System: propan-2-ol + water; phases: Liquid, Gas
Fixed: Mole fraction of propan-2-ol = 0
Property: Activity coefficient of propan-2-ol (Liquid); method: Relative Headspace Analysis
Temperature, K	Activity coefficient of propan-2-ol	uncertainty
283.15	5.37	0.32
293.15	6.89	0.41
308.15	8.84	0.53

System: butan-2-ol + water; phases: Liquid, Gas
Fixed: Mole fraction of butan-2-ol = 0
Property: Activity coefficient of butan-2-ol (Liquid); method: circulation equilibrium still
Temperature, K	Activity coefficient of butan-2-ol	uncertainty
363.15	40.4	2.4
371.15	37.8	2.3

System: butan-2-ol + water; phases: Liquid, Gas
Fixed: Mole fraction of butan-2-ol = 0
Property: Activity coefficient of butan-2-ol (Liquid); method: Relative Headspace Analysis
Temperature, K	Activity coefficient of butan-2-ol	uncertainty
273.35	13.7	0.8
283.15	17.9	1.1
293.15	22.6	1.4

System: butan-2-ol + water; phases: Liquid, Gas
Fixed: Mole fraction of butan-2-ol = 0
Property: Activity coefficient of butan-2-ol (Liquid); method: headspace analysis
Temperature, K	Activity coefficient of butan-2-ol	uncertainty
293.15	22.5	1.4
303.15	26.8	1.6
313.15	31.3	1.9
323.15	33.8	2
333.15	36.9	2.2

System: butan-2-ol + water; phases: Liquid, Gas
Fixed: Mole fraction of butan-2-ol = 0
Property: Activity coefficient of butan-2-ol (Liquid); method: Rayleigh distallation
Temperature, K	Activity coefficient of butan-2-ol	uncertainty
343.15	38	2.3
353.15	38.4	2.3

System: butan-2-ol + water; phases: Liquid, Gas
Fixed: Mole fraction of butan-2-ol = 0
Property: Activity coefficient of butan-2-ol (Liquid); method: inert gas stripping
Temperature, K	Activity coefficient of butan-2-ol	uncertainty
303.15	26.8	1.6
313.15	30.8	1.8
323.15	34.4	2.1
333.15	35.7	2.1

System: 2-methyl-1-propanol + water; phases: Liquid, Gas
Fixed: Mole fraction of 2-methyl-1-propanol = 0
Property: Activity coefficient of 2-methyl-1-propanol (Liquid); method: circulation equilibrium still
Temperature, K	Activity coefficient of 2-methyl-1-propanol	uncertainty
363.15	54.3	3.3
371.15	52.2	3.1

System: 2-methyl-1-propanol + water; phases: Liquid, Gas
Fixed: Mole fraction of 2-methyl-1-propanol = 0
Property: Activity coefficient of 2-methyl-1-propanol (Liquid); method: Relative Headspace Analysis
Temperature, K	Activity coefficient of 2-methyl-1-propanol	uncertainty
273.35	31.6	1.9
283.15	36.8	2.2
298.15	47.4	2.8

System: 2-methyl-1-propanol + water; phases: Liquid, Gas
Fixed: Mole fraction of 2-methyl-1-propanol = 0
Property: Activity coefficient of 2-methyl-1-propanol (Liquid); method: headspace analysis
Temperature, K	Activity coefficient of 2-methyl-1-propanol	uncertainty
293.15	44.3	2.7
303.15	50.3	3
313.15	54.1	3.2
323.15	57.6	3.5
333.15	58.3	3.5

System: 2-methylpropan-2-ol + water; phases: Liquid, Gas
Fixed: Mole fraction of 2-methylpropan-2-ol = 0
Property: Activity coefficient of 2-methylpropan-2-ol (Liquid); method: circulation equilibrium still
Temperature, K	Activity coefficient of 2-methylpropan-2-ol	uncertainty
353.15	25.4	1.5
363.15	26.3	1.6
371.15	27.4	1.6

System: 2-methylpropan-2-ol + water; phases: Liquid, Gas
Fixed: Mole fraction of 2-methylpropan-2-ol = 0
Property: Activity coefficient of 2-methylpropan-2-ol (Liquid); method: headspace analysis
Temperature, K	Activity coefficient of 2-methylpropan-2-ol	uncertainty
299.15	13.1	0.8
303.15	14.4	0.9
313.15	16.9	1

System: 2-methylpropan-2-ol + water; phases: Liquid, Gas
Fixed: Mole fraction of 2-methylpropan-2-ol = 0
Property: Activity coefficient of 2-methylpropan-2-ol (Liquid); method: Rayleigh distallation
Temperature, K	Activity coefficient of 2-methylpropan-2-ol	uncertainty
323.15	19.9	1.2
333.15	21.8	1.3
343.15	23.5	1.4
