Measured thermophysical data. Isothermal Vapor-Liquid Equilibria of Binary Mixtures of Nitrogen with Dimethyl Sulfoxide, N-Methyl-2-pyrrolidone, and Diethylene Glycol Monobutyl Ether at Elevated Pressures
Source: J. Chem. Eng. Data, 2007, 10.1021/je6005357
Compound 1: dimethyl sulfoxide, C2H6OS, InChI=1S/C2H6OS/c1-4(2)3/h1-2H3
Compound 2: nitrogen, N2, InChI=1S/N2/c1-2
Compound 3: N-methylpyrrolidone, C5H9NO, InChI=1S/C5H9NO/c1-6-4-2-3-5(6)7/h2-4H2,1H3
Compound 4: 3,6-dioxa-1-decanol, C8H18O3, InChI=1S/C8H18O3/c1-2-3-5-10-7-8-11-6-4-9/h9H,2-8H2,1H3

System: dimethyl sulfoxide + nitrogen; phases: Gas, Liquid
Property: Mole fraction of dimethyl sulfoxide (Gas); method: sample volume
Temperature, K	Pressure, kPa	Mole fraction of dimethyl sulfoxide	uncertainty
323.15	3000	0.0007	0.0001
323.15	4000	0.0005	0.0001
323.15	5000	0.0004	0.0001
323.15	6000	0.0004	0.0001
323.15	7000	0.0003	0.0001
323.15	8000	0.0003	0.0001
323.15	9000	0.0003	0.0001
323.15	10000	0.0003	0.0001
353.15	3000	0.0012	0.0001
353.15	4000	0.001	0.0001
353.15	5000	0.0009	0.0001
353.15	6000	0.0008	0.0001
353.15	7000	0.0007	0.0001
353.15	8000	0.0007	0.0001
353.15	9000	0.0006	0.0001
353.15	10000	0.0006	0.0001
393.15	3000	0.0036	0.0002
393.15	4000	0.0031	0.0001
393.15	5000	0.0025	0.0001
393.15	6000	0.0022	0.0001
393.15	7000	0.002	0.0001
393.15	8000	0.002	0.0001
393.15	9000	0.0019	0.0001
393.15	10000	0.0018	0.0001

System: dimethyl sulfoxide + nitrogen; phases: Liquid, Gas
Property: Mole fraction of nitrogen (Liquid); method: sample volume
Temperature, K	Pressure, kPa	Mole fraction of nitrogen	uncertainty
323.15	3000	0.0026	0.0001
323.15	4000	0.0035	0.0002
323.15	5000	0.0044	0.0002
323.15	6000	0.0052	0.0002
323.15	7000	0.0059	0.0002
323.15	8000	0.0067	0.0003
323.15	9000	0.0074	0.0003
323.15	10000	0.008	0.0003
353.15	3000	0.0032	0.0001
353.15	4000	0.0042	0.0002
353.15	5000	0.0052	0.0002
353.15	6000	0.0063	0.0003
353.15	7000	0.0073	0.0003
353.15	8000	0.0084	0.0003
353.15	9000	0.0094	0.0004
353.15	10000	0.0104	0.0004
393.15	3000	0.0043	0.0002
393.15	4000	0.0057	0.0002
393.15	5000	0.007	0.0003
393.15	6000	0.0083	0.0003
393.15	7000	0.0096	0.0004
393.15	8000	0.0112	0.0005
393.15	9000	0.0126	0.0005
393.15	10000	0.0146	0.0006

System: N-methylpyrrolidone + nitrogen; phases: Gas, Liquid
Property: Mole fraction of N-methylpyrrolidone (Gas); method: sample volume
Temperature, K	Pressure, kPa	Mole fraction of N-methylpyrrolidone	uncertainty
323.15	3000	0.0005	0.0001
323.15	4000	0.0004	0.0001
323.15	5000	0.0003	0.0001
323.15	6000	0.0003	0.0001
323.15	7000	0.0002	0.0001
323.15	8000	0.0002	0.0001
323.15	9000	0.0002	0.0001
323.15	10000	0.0002	0.0001
353.15	3000	0.0008	0.0001
353.15	4000	0.0007	0.0001
353.15	5000	0.0005	0.0001
353.15	6000	0.0005	0.0001
353.15	7000	0.0004	0.0001
353.15	8000	0.0004	0.0001
353.15	9000	0.0004	0.0001
353.15	10000	0.0004	0.0001
393.15	3000	0.0028	0.0001
393.15	4000	0.0022	0.0001
393.15	5000	0.0019	0.0001
393.15	6000	0.0017	0.0001
393.15	7000	0.0015	0.0001
393.15	8000	0.0014	0.0001
393.15	9000	0.0014	0.0001
393.15	10000	0.0013	0.0001

System: N-methylpyrrolidone + nitrogen; phases: Liquid, Gas
Property: Mole fraction of nitrogen (Liquid); method: sample volume
Temperature, K	Pressure, kPa	Mole fraction of nitrogen	uncertainty
323.15	3000	0.006	0.0002
323.15	4000	0.0078	0.0003
323.15	5000	0.0098	0.0004
323.15	6000	0.0119	0.0005
323.15	7000	0.0136	0.0005
323.15	8000	0.0159	0.0006
323.15	9000	0.0175	0.0007
323.15	10000	0.0189	0.0008
353.15	3000	0.0066	0.0003
353.15	4000	0.0089	0.0004
353.15	5000	0.0112	0.0005
353.15	6000	0.0134	0.0005
353.15	7000	0.0158	0.0006
353.15	8000	0.0178	0.0007
353.15	9000	0.0199	0.0008
353.15	10000	0.0215	0.0009
393.15	3000	0.0083	0.0003
393.15	4000	0.0109	0.0004
393.15	5000	0.0138	0.0006
393.15	6000	0.0165	0.0007
393.15	7000	0.0192	0.0008
393.15	8000	0.0214	0.0009
393.15	9000	0.0237	0.001
393.15	10000	0.026	0.001

System: 3,6-dioxa-1-decanol + nitrogen; phases: Gas, Liquid
Property: Mole fraction of 3,6-dioxa-1-decanol (Gas); method: sample volume
Temperature, K	Pressure, kPa	Mole fraction of 3,6-dioxa-1-decanol	uncertainty
323.15	3000	0.0001	0.0001
323.15	4000	0.0001	0.0001
323.15	5000	0.0001	0.0001
323.15	6000	0.0001	0.0001
323.15	7000	0.0001	0.0001
323.15	8000	0.0001	0.0001
323.15	9000	0.0001	0.0001
323.15	10000	0	
353.15	3000	0.0003	0.0001
353.15	4000	0.0002	0.0001
353.15	5000	0.0002	0.0001
353.15	6000	0.0002	0.0001
353.15	7000	0.0002	0.0001
353.15	8000	0.0001	0.0001
353.15	9000	0.0001	0.0001
353.15	10000	0.0001	0.0001
393.15	3000	0.0008	0.0001
393.15	4000	0.0007	0.0001
393.15	5000	0.0006	0.0001
393.15	6000	0.0005	0.0001
393.15	7000	0.0005	0.0001
393.15	8000	0.0004	0.0001
393.15	9000	0.0004	0.0001
393.15	10000	0.0004	0.0001

System: 3,6-dioxa-1-decanol + nitrogen; phases: Liquid, Gas
Property: Mole fraction of nitrogen (Liquid); method: sample volume
Temperature, K	Pressure, kPa	Mole fraction of nitrogen	uncertainty
323.15	3000	0.0121	0.0005
323.15	4000	0.0157	0.0006
323.15	5000	0.0201	0.0008
323.15	6000	0.0243	0.001
323.15	7000	0.0289	0.0012
323.15	8000	0.033	0.0013
323.15	9000	0.0372	0.0015
323.15	10000	0.0415	0.0017
353.15	3000	0.0132	0.0005
353.15	4000	0.0187	0.0008
353.15	5000	0.0234	0.0009
353.15	6000	0.0291	0.0012
353.15	7000	0.0338	0.0014
353.15	8000	0.0386	0.0015
353.15	9000	0.043	0.0017
353.15	10000	0.0482	0.0019
393.15	3000	0.0144	0.0006
393.15	4000	0.0206	0.0008
393.15	5000	0.0264	0.0011
393.15	6000	0.0312	0.0013
393.15	7000	0.0364	0.0015
393.15	8000	0.042	0.0017
393.15	9000	0.0479	0.0019
393.15	10000	0.053	0.0021
