Measured thermophysical data. Density and Viscosity of Diisodecyl Phthalate C6H4(COOC10H21)2, with Nominal Viscosity at T ) 298 K and p ) 0.1 MPa of 87 mPaas, at Temperatures from (298.15 to 423.15) K and Pressures up to 70 MPa
Source: J. Chem. Eng. Data, 2007, 10.1021/je600562n
Compound 1: 3-methylnonyl 1,2-benzenedioate, C28H46O4, InChI=1S/C28H46O4/c1-23(2)17-11-7-5-9-15-21-31-27(29)25-19-13-14-20-26(25)28(30)32-22-16-10-6-8-12-18-24(3)4/h13-14,19-20,23-24H,5-12,15-18,21-22H2,1-4H3, purity 99.9%

System: 3-methylnonyl 1,2-benzenedioate; phases: Liquid
Fixed: Pressure, kPa = 101.325
Property: Viscosity, Pa*s (Liquid); method: Vibrating wire viscometry
Temperature, K	Viscosity, Pa*s	uncertainty
298.15	0.0872	0.0019
323.15	0.02385	0.00049
348.15	0.00971	0.00019
363.15	0.00639	0.00013

System: 3-methylnonyl 1,2-benzenedioate; phases: Liquid
Fixed: Pressure, kPa = 101.325
Property: Mass density, kg/m3 (Liquid); method: Vibrating tube method
Temperature, K	Mass density, kg/m3	uncertainty
298.15	963.66	0.97
323.15	945.62	0.95
348.15	927.67	0.94
363.15	916.97	0.93

System: 3-methylnonyl 1,2-benzenedioate; phases: Liquid
Fixed: Pressure, kPa = 101.325
Property: Viscosity, Pa*s (Liquid); method: Vibrating wire viscometry
Temperature, K	Viscosity, Pa*s	uncertainty
298.15	0.0875	0.002
303.15	0.0646	0.0013
308.15	0.04899	0.001
313.15	0.03774	0.00077
323.15	0.02385	0.00049
348.15	0.00972	0.00019
373.15	0.00503	0.0001
398.15	0.003043	6.3e-05
423.15	0.002052	4.2e-05

System: 3-methylnonyl 1,2-benzenedioate; phases: Liquid
Fixed: Pressure, kPa = 101.325
Property: Mass density, kg/m3 (Liquid); method: Vibrating tube method
Temperature, K	Mass density, kg/m3	uncertainty
298.15	960.1	2.9
323.15	941.6	2.8
348.15	924.3	2.8
373.15	907	2.7

System: 3-methylnonyl 1,2-benzenedioate; phases: Liquid
Fixed: Pressure, kPa = 101.325
Property: Mass density, kg/m3 (Liquid); method: Vibrating tube method
Temperature, K	Mass density, kg/m3	uncertainty
298.15	963.81	0.97
323.15	945.64	0.95
348.15	927.68	0.94
363.15	916.95	0.93

System: 3-methylnonyl 1,2-benzenedioate; phases: Liquid
Property: Viscosity, Pa*s (Liquid); method: Vibrating wire viscometry
Temperature, K	Pressure, kPa	Viscosity, Pa*s	uncertainty
298.15	10000	0.1073	0.0025
303.15	10000	0.0785	0.0019
303.15	20000	0.098	0.0025
303.15	30000	0.1209	0.0032
308.15	10000	0.0603	0.0013
308.15	20000	0.0731	0.0017
308.15	30000	0.089	0.0022
308.15	50000	0.1354	0.0036
313.15	10000	0.0465	0.001
313.15	20000	0.057	0.0013
313.15	30000	0.0681	0.0016
313.15	50000	0.1001	0.0025
323.15	10000	0.02924	0.0006
323.15	20000	0.03563	0.0008
323.15	30000	0.04246	0.00094
323.15	50000	0.0604	0.0013
323.15	70000	0.0806	0.0018
348.15	10000	0.01155	0.00025
348.15	20000	0.01381	0.0003
348.15	30000	0.01593	0.00034
348.15	50000	0.0215	0.0005
348.15	70000	0.02886	0.00076
373.15	10000	0.00592	0.00012
373.15	20000	0.00696	0.00015
373.15	30000	0.00784	0.00017
373.15	50000	0.01033	0.00022
373.15	70000	0.01345	0.00032
398.15	10000	0.003601	7.4e-05
398.15	20000	0.00412	9e-05
398.15	30000	0.004741	0.000101
398.15	50000	0.00598	0.00013
398.15	70000	0.00764	0.00017
423.15	10000	0.002401	5.2e-05
423.15	20000	0.002707	5.8e-05
423.15	30000	0.003001	6.5e-05
423.15	50000	0.003857	8.2e-05
423.15	70000	0.004826	0.000102

System: 3-methylnonyl 1,2-benzenedioate; phases: Liquid
Property: Mass density, kg/m3 (Liquid); method: Vibrating tube method
Temperature, K	Pressure, kPa	Mass density, kg/m3	uncertainty
298.15	5000	962.8	2.9
298.15	10000	965.6	2.9
298.15	20000	970.8	2.9
298.15	30000	976	2.9
298.15	50000	985.5	3
298.15	70000	995.2	3
323.15	5000	945.4	2.9
323.15	10000	948.5	2.9
323.15	20000	954.6	2.9
323.15	30000	960.4	2.9
323.15	50000	970.7	2.9
323.15	70000	980.1	3
348.15	5000	927.9	2.8
348.15	10000	931.3	2.8
348.15	20000	938	2.8
348.15	30000	944.1	2.8
348.15	50000	955.3	2.9
348.15	70000	965.7	2.9
373.15	5000	911.1	2.8
373.15	10000	914.8	2.8
373.15	20000	922.1	2.8
373.15	30000	929	2.8
373.15	50000	941	2.8
373.15	70000	952.1	2.9
398.15	5000	893.4	2.7
398.15	10000	898.8	2.7
398.15	20000	906.6	2.7
398.15	30000	913.5	2.8
398.15	50000	926	2.8
398.15	70000	938.9	2.8
423.15	5000	877.5	2.7
423.15	10000	881.6	2.7
423.15	20000	890.4	2.7
423.15	30000	898.6	2.7
423.15	50000	912.6	2.8
423.15	70000	926.7	2.8

System: 3-methylnonyl 1,2-benzenedioate; phases: Liquid
Fixed: Pressure, kPa = 101.325
Property: Viscosity, Pa*s (Liquid); method: Vibrating wire viscometry
Temperature, K	Viscosity, Pa*s	uncertainty
298.15	0.0873	0.002
323.15	0.02384	0.0005
348.15	0.00971	0.0002
363.15	0.00639	0.00013

System: 3-methylnonyl 1,2-benzenedioate; phases: Liquid
Fixed: Pressure, kPa = 101.325
Property: Mass density, kg/m3 (Liquid); method: Vibrating tube method
Temperature, K	Mass density, kg/m3	uncertainty
298.15	964.61	0.99
323.15	946.14	0.97
348.15	928.23	0.95
363.15	917.53	0.94

System: 3-methylnonyl 1,2-benzenedioate; phases: Liquid
Fixed: Pressure, kPa = 101.325
Property: Mass density, kg/m3 (Liquid); method: Vibrating tube method
Temperature, K	Mass density, kg/m3	uncertainty
298.15	963.63	0.97
323.15	945.55	0.95
348.15	927.66	0.93
363.15	916.89	0.92

System: 3-methylnonyl 1,2-benzenedioate; phases: Liquid
Fixed: Pressure, kPa = 101.325
Property: Mass density, kg/m3 (Liquid); method: Vibrating tube method
Temperature, K	Mass density, kg/m3	uncertainty
298.15	963.85	0.97
323.15	945.66	0.95
348.15	927.74	0.93
363.15	917.07	0.92

System: 3-methylnonyl 1,2-benzenedioate; phases: Liquid
Fixed: Pressure, kPa = 101.325
Property: Mass density, kg/m3 (Liquid); method: Vibrating tube method
Temperature, K	Mass density, kg/m3	uncertainty
298.15	964.99	0.99
323.15	946.41	0.97
348.15	928.51	0.95
363.15	917.8	0.94
