Measured thermophysical data. Study of the Acoustic and Thermodynamic Properties of 1,2- and 1,3-Butanediol by Means of High-Pressure Speed of Sound Measurements at Temperatures from (293 to 318) K and Pressures up to 101 MPa
Source: J. Chem. Eng. Data, 2007, 10.1021/je6005778
Compound 1: 1,2-butanediol, C4H10O2, InChI=1S/C4H10O2/c1-2-4(6)3-5/h4-6H,2-3H2,1H3, purity 99%
Compound 2: 1,3-butanediol, C4H10O2, InChI=1S/C4H10O2/c1-4(6)2-3-5/h4-6H,2-3H2,1H3, purity 99.5%

System: 1,2-butanediol; phases: Liquid
Fixed: Pressure, kPa = 101.325
Property: Speed of sound, m/s (Liquid); method: Pulse-echo method
Temperature, K	Speed of sound, m/s	uncertainty
292.93	1466.45	1.59
298.1	1451.31	1.59
303.18	1436.45	1.58
308.17	1421.82	1.58
313.35	1406.66	1.58
318.15	1392.6	1.58

System: 1,2-butanediol; phases: Liquid
Fixed: Pressure, kPa = 101.325
Property: Mass density, kg/m3 (Liquid); method: VIBTUB:UFactor:4
Temperature, K	Mass density, kg/m3	uncertainty
288.15	1005.78	0.335
293.15	1002.119	0.327
298.15	998.408	0.325
303.155	994.659	0.33
308.155	990.872	0.334
313.155	987.048	0.339
318.155	983.185	0.344
323.15	979.285	0.349
328.155	975.354	0.353
333.155	971.386	0.358
338.156	967.378	0.363
343.15	963.333	0.369
348.156	959.256	0.374
353.15	955.143	0.379
358.15	950.989	0.385
363.15	946.804	0.39

System: 1,2-butanediol; phases: Liquid
Property: Speed of sound, m/s (Liquid); method: Pulse-echo method
Temperature, K	Pressure, kPa	Speed of sound, m/s	uncertainty
292.87	45600	1634.28	2.55
292.87	60790	1681.52	2.53
292.87	75990	1726	2.52
292.87	91190	1767.98	2.51
292.87	101320	1794.72	2.51
292.88	15200	1528.18	2.59
292.88	30400	1583.21	2.58
298.15	15200	1513.55	2.6
298.15	30400	1569.21	2.58
298.15	45600	1621.06	2.56
298.15	60790	1668.75	2.54
298.15	75990	1713.76	2.52
298.15	91190	1755.94	2.51
298.15	101320	1783.03	2.51
303.13	15200	1500	2.6
303.13	30400	1556.36	2.59
303.13	45600	1608.77	2.56
303.13	60790	1657.14	2.54
303.13	75990	1702.16	2.52
303.13	91190	1745.03	2.51
303.13	101320	1772.29	2.51
308.12	60790	1645.52	2.54
308.12	91190	1734.25	2.51
308.13	15200	1486.59	2.6
308.13	30400	1543.51	2.59
308.13	45600	1596.48	2.56
308.13	75990	1690.99	2.52
308.13	101320	1761.67	2.51
313.3	30400	1530.35	2.6
313.3	45600	1583.69	2.57
313.3	60790	1633.4	2.55
313.3	75990	1679.32	2.53
313.3	91190	1723.02	2.52
313.3	101320	1750.42	2.51
313.31	15200	1472.75	2.61

System: 1,3-butanediol; phases: Liquid
Fixed: Pressure, kPa = 101.325
Property: Speed of sound, m/s (Liquid); method: Pulse-echo method
Temperature, K	Speed of sound, m/s	uncertainty
292.92	1537.73	1.34
298.2	1523.31	1.34
303.17	1509.72	1.33
308.16	1495.99	1.33
313.14	1482.26	1.33
318.32	1467.86	1.33

System: 1,3-butanediol; phases: Liquid
Fixed: Pressure, kPa = 101.325
Property: Mass density, kg/m3 (Liquid); method: VIBTUB:UFactor:4
Temperature, K	Mass density, kg/m3	uncertainty
288.15	1006.753	0.198
293.155	1003.52	0.194
298.15	1000.231	0.189
303.155	996.895	0.193
308.15	993.524	0.197
313.155	990.116	0.201
318.156	986.665	0.205
323.155	983.181	0.209
328.156	979.654	0.214
333.156	976.087	0.218
338.155	972.476	0.223
343.15	968.825	0.227
348.156	965.14	0.232
353.15	961.411	0.237
358.15	957.637	0.242
363.15	953.825	0.247

System: 1,3-butanediol; phases: Liquid
Property: Speed of sound, m/s (Liquid); method: Pulse-echo method
Temperature, K	Pressure, kPa	Speed of sound, m/s	uncertainty
292.86	45590	1686.46	2.37
292.86	75990	1770.09	2.34
292.86	91180	1808.68	2.34
292.86	101320	1833.59	2.34
292.87	15200	1592.09	2.4
292.87	30390	1641.04	2.39
292.87	60790	1729.45	2.35
298.15	15200	1578.42	2.4
298.15	30390	1627.99	2.39
298.15	45590	1673.84	2.37
298.15	60790	1717.36	2.36
298.15	75990	1758.28	2.35
298.15	91180	1797.29	2.34
298.15	101320	1822.09	2.34
303.13	15200	1565.32	2.41
303.13	30390	1615.87	2.39
303.13	45590	1662.19	2.37
303.13	60790	1705.98	2.36
303.13	75990	1747.28	2.35
303.13	91180	1786.71	2.34
303.13	101320	1811.64	2.34
308.11	101320	1801.68	2.34
308.12	45590	1650.63	2.37
308.12	75990	1736.67	2.35
308.13	15200	1552.43	2.41
308.13	30390	1603.47	2.4
308.13	60790	1694.59	2.36
308.13	91180	1776.31	2.34
313.11	15200	1539.62	2.41
313.11	30390	1591.21	2.4
313.11	45590	1639.14	2.38
313.11	60790	1683.62	2.36
313.11	75990	1725.92	2.35
313.11	91180	1765.94	2.34
313.11	101320	1791.5	2.34
318.29	15200	1526.2	2.42
318.29	30390	1578.39	2.41
318.29	45590	1626.98	2.38
318.29	60790	1671.97	2.37
318.29	75990	1714.82	2.35
318.29	91180	1755.19	2.34
318.29	101320	1781.07	2.34
