Measured thermophysical data. Solubilities and Phase Equilibria for Ternary Solutions of alpha, alpha, alpha-Trifluorotoluene, Water, and 2-Propanol at Three Temperatures and Pressure of 101.2 kPa
Source: J. Chem. Eng. Data, 2007, 10.1021/je600526x
Compound 1: water, H2O, InChI=1S/H2O/h1H2, purity 99.9%
Compound 2: propan-2-ol, C3H8O, InChI=1S/C3H8O/c1-3(2)4/h3-4H,1-2H3, purity 99.8%
Compound 3: (trifluoromethyl)benzene, C7H5F3, InChI=1S/C7H5F3/c8-7(9,10)6-4-2-1-3-5-6/h1-5H, purity 99.5%

System: propan-2-ol + (trifluoromethyl)benzene + water; phases: Liquid mixture 1, Liquid mixture 2
Fixed: Pressure, kPa = 101.2
Property: Mole fraction of propan-2-ol (Liquid mixture 1); method: Chromatography
Mole fraction of water	Temperature, K	Mole fraction of propan-2-ol	uncertainty
0.046	288.15	0.1781	0.0274
0.0486	298.15	0.1759	0.0256
0.0693	308.15	0.0801	0.0282
0.0754	298.15	0.2199	0.0183
0.0795	288.15	0.2635	0.0212
0.0912	308.15	0.1378	0.0299
0.1042	288.15	0.2839	0.0143
0.1075	288.15	0.2912	0.0142
0.1148	298.15	0.2698	0.015
0.1178	308.15	0.2162	0.0251
0.1203	308.15	0.229	0.0255
0.1405	308.15	0.25	0.013
0.152	288.15	0.3355	0.0134
0.1648	298.15	0.3173	0.0127
0.1675	308.15	0.2675	0.0119
0.1897	288.15	0.3621	0.0117
0.1903	308.15	0.2805	0.0111
0.2206	298.15	0.3489	0.011
0.2235	288.15	0.3744	0.0108
0.2241	308.15	0.2929	0.0109
0.2707	288.15	0.387	0.0107
0.2712	308.15	0.3107	0.0104
0.2933	298.15	0.3671	0.0105
0.3093	288.15	0.3962	0.0104
0.3317	308.15	0.3144	0.0103
0.3335	298.15	0.368	0.0104
0.3562	288.15	0.3893	0.0105
0.3726	298.15	0.363	0.0105
0.3901	308.15	0.3043	0.0105
0.3945	288.15	0.3835	0.0105
0.4137	298.15	0.354	0.0104
0.4367	288.15	0.3741	0.0107
0.451	298.15	0.3434	0.0108
0.4592	308.15	0.2864	0.0107
0.4802	288.15	0.3601	0.0109
0.4922	298.15	0.3277	0.0107
0.5297	288.15	0.3412	0.0112
0.5358	298.15	0.3104	0.011
0.538	308.15	0.2573	0.0109
0.5811	298.15	0.2902	0.0116
0.5903	288.15	0.3105	0.0116
0.6157	308.15	0.2235	0.0112
0.6328	298.15	0.2623	0.0115
0.6507	288.15	0.2762	0.0117
0.6883	298.15	0.2323	0.0116
0.6914	308.15	0.1841	0.0114
0.6989	288.15	0.2475	0.0118
0.7405	288.15	0.222	0.0115
0.7415	298.15	0.2036	0.0117
0.7585	288.15	0.2151	0.0119
0.7604	308.15	0.1462	0.0115
0.7837	298.15	0.1793	0.0115
0.7906	288.15	0.1917	0.0124
0.8151	298.15	0.1605	0.0113
0.817	308.15	0.1143	0.0116
0.8358	298.15	0.1481	0.0102
0.8795	308.15	0.0768	0.0116
0.9058	308.15	0.0617	0.0115

System: propan-2-ol + (trifluoromethyl)benzene + water; phases: Liquid mixture 1, Liquid mixture 2
Fixed: Pressure, kPa = 101.2
Property: Mole fraction of propan-2-ol (Liquid mixture 1); method: Chromatography
Property: Mole fraction of propan-2-ol (Liquid mixture 2); method: Chromatography
Property: Mole fraction of water (Liquid mixture 2); method: Chromatography
Temperature, K	Mole fraction of water	Mole fraction of propan-2-ol	uncertainty	Mole fraction of propan-2-ol	uncertainty	Mole fraction of water	uncertainty
288.15	0.8265	0.1636	0.013	0.3929	0.0104	0.3079	
288.15	0.7684	0.203	0.0122	0.389	0.0106	0.3623	
288.15	0.885	0.1073	0.0136	0.3812	0.0106	0.2476	
288.15	0.92	0.078	0.0135	0.3691	0.0116	0.1972	
288.15	0.9562	0.0428	0.0139	0.3218	0.0134	0.1347	
288.15	0.9785	0.0215	0.0138	0.266	0.0165	0.0768	
288.15	0.9858	0.0142	0.0139	0.1813	0.0198	0.027	
288.15	0.5147	0.3504	0.0118	0.3504	0.0106	0.5147	
298.15	0.8456	0.1408	0.0115	0.3642	0.0104	0.3692	
298.15	0.8856	0.1052	0.0131	0.3697	0.0103	0.3291	
298.15	0.9197	0.073	0.014	0.3692	0.0103	0.2876	
298.15	0.9415	0.0528	0.0141	0.3652	0.0108	0.2496	
298.15	0.9616	0.0349	0.0125	0.3506	0.0115	0.2164	
298.15	0.9732	0.0268	0.0108	0.3038	0.0124	0.1401	
298.15	0.98	0.02	0.0116	0.2751	0.0213	0.1053	
298.15	0.9831	0.0169	0.0119	0.0765	0.0239	0.0136	
298.15	0.5479	0.3038	0.0115	0.3038	0.0108	0.5479	
308.15	0.7259	0.16	0.0113	0.3175	0.0107	0.2965	
308.15	0.7847	0.1323	0.0113	0.3008	0.0108	0.2442	
308.15	0.843	0.0999	0.0116	0.273	0.0113	0.1715	
308.15	0.865	0.0848	0.012	0.2501	0.0173	0.148	
308.15	0.9251	0.0456	0.0119	0.161	0.0193	0.09	
308.15	0.95	0.03	0.0118	0.1191	0.0231	0.0699	
308.15	0.5287	0.2618	0.0114	0.2618	0.0105	0.5287	
