Measured thermophysical data. Densities and Viscosities for Binary Mixtures of Ethyl Lactate with Methacrylic Acid, Benzyl Methacrylate, and 2-Hydroxyethyl Methacrylate at (298.15, 308.15, and 318.15) K
Source: J. Chem. Eng. Data, 2007, 10.1021/je600568w
Compound 1: 2-methyl-2-propenoic acid, C4H6O2, InChI=1S/C4H6O2/c1-3(2)4(5)6/h1H2,2H3,(H,5,6), purity 99%
Compound 2: 2-hydroxyethyl 2-methyl-2-propenoate, C6H10O3, InChI=1S/C6H10O3/c1-5(2)6(8)9-4-3-7/h7H,1,3-4H2,2H3, purity 98%
Compound 3: benzyl methacrylate, C11H12O2, InChI=1S/C11H12O2/c1-9(2)11(12)13-8-10-6-4-3-5-7-10/h3-7H,1,8H2,2H3, purity 98%
Compound 4: DL-ethyl lactate, C5H10O3, InChI=1S/C5H10O3/c1-3-8-5(7)4(2)6/h4,6H,3H2,1-2H3, purity 99%

System: 2-methyl-2-propenoic acid; phases: Liquid
Fixed: Pressure, kPa = 101
Property: Viscosity, Pa*s (Liquid); method: Capillary tube (Ostwald; Ubbelohde) method
Temperature, K	Viscosity, Pa*s	uncertainty
298.15	0.001267	2.7e-05
308.15	0.001078	2.3e-05
318.15	0.000945	2e-05

System: 2-methyl-2-propenoic acid; phases: Liquid
Fixed: Pressure, kPa = 101
Property: Mass density, kg/m3 (Liquid); method: PYCNOM::UFactor:2
Temperature, K	Mass density, kg/m3	uncertainty
298.15	1009.5	2.2
308.15	999.4	2.2
318.15	989.2	2.2

System: 2-hydroxyethyl 2-methyl-2-propenoate; phases: Liquid
Fixed: Pressure, kPa = 101
Property: Viscosity, Pa*s (Liquid); method: Capillary tube (Ostwald; Ubbelohde) method
Temperature, K	Viscosity, Pa*s	uncertainty
298.15	0.005784	0.000132
308.15	0.004194	9.6e-05
318.15	0.003181	7.3e-05

System: 2-hydroxyethyl 2-methyl-2-propenoate; phases: Liquid
Fixed: Pressure, kPa = 101
Property: Mass density, kg/m3 (Liquid); method: PYCNOM::UFactor:2
Temperature, K	Mass density, kg/m3	uncertainty
298.15	1067.1	2.6
308.15	1057.7	2.6
318.15	1048.6	2.6

System: benzyl methacrylate; phases: Liquid
Fixed: Pressure, kPa = 101
Property: Viscosity, Pa*s (Liquid); method: Capillary tube (Ostwald; Ubbelohde) method
Temperature, K	Viscosity, Pa*s	uncertainty
298.15	0.002302	5.3e-05
308.15	0.001885	4.3e-05
318.15	0.00158	3.6e-05

System: benzyl methacrylate; phases: Liquid
Fixed: Pressure, kPa = 101
Property: Mass density, kg/m3 (Liquid); method: PYCNOM::UFactor:2
Temperature, K	Mass density, kg/m3	uncertainty
298.15	1034.7	2.5
308.15	1025.8	2.5
318.15	1017	2.5

System: DL-ethyl lactate; phases: Liquid
Fixed: Pressure, kPa = 101
Property: Viscosity, Pa*s (Liquid); method: Capillary tube (Ostwald; Ubbelohde) method
Temperature, K	Viscosity, Pa*s	uncertainty
298.15	0.002398	5.1e-05
308.15	0.001863	4e-05
318.15	0.001494	3.2e-05

System: DL-ethyl lactate; phases: Liquid
Fixed: Pressure, kPa = 101
Property: Mass density, kg/m3 (Liquid); method: PYCNOM:UFactor:2
Temperature, K	Mass density, kg/m3	uncertainty
298.15	1029.1	2.3
308.15	1018.7	2.3
318.15	1007.5	2.3

System: 2-methyl-2-propenoic acid + DL-ethyl lactate; phases: Liquid
Fixed: Pressure, kPa = 101
Property: Viscosity, Pa*s (Liquid); method: Capillary tube (Ostwald; Ubbelohde) method
Temperature, K	Mole fraction of DL-ethyl lactate	Viscosity, Pa*s	uncertainty
298.15	0	0.001267	2.7e-05
298.15	0.1	0.001422	3e-05
298.15	0.2	0.00166	3.5e-05
298.15	0.3	0.001933	4.1e-05
298.15	0.3999	0.002181	4.6e-05
298.15	0.5	0.002378	5.1e-05
298.15	0.6	0.002465	5.2e-05
298.15	0.6999	0.002532	5.4e-05
298.15	0.8	0.002539	5.4e-05
298.15	0.9001	0.002471	5.3e-05
298.15	1	0.002398	5.1e-05
308.15	0	0.001078	2.3e-05
308.15	0.1	0.00119	2.5e-05
308.15	0.2	0.001368	2.9e-05
308.15	0.3	0.001567	3.3e-05
308.15	0.3999	0.001742	3.7e-05
308.15	0.5	0.00187	4e-05
308.15	0.6	0.001929	4.1e-05
308.15	0.6999	0.001967	4.2e-05
308.15	0.8	0.001962	4.2e-05
308.15	0.9001	0.001907	4.1e-05
308.15	1	0.001863	4e-05
318.15	0	0.000945	2e-05
318.15	0.1	0.00102	2.2e-05
318.15	0.2	0.001154	2.5e-05
318.15	0.3	0.001306	2.8e-05
318.15	0.3999	0.00143	3e-05
318.15	0.5	0.00152	3.2e-05
318.15	0.6	0.001551	3.3e-05
318.15	0.6999	0.001579	3.4e-05
318.15	0.8	0.001567	3.3e-05
318.15	0.9001	0.001526	3.3e-05
318.15	1	0.001494	3.2e-05

System: 2-methyl-2-propenoic acid + DL-ethyl lactate; phases: Liquid
Fixed: Pressure, kPa = 101
Property: Mass density, kg/m3 (Liquid); method: PYCNOM:UFactor:2
Temperature, K	Mole fraction of DL-ethyl lactate	Mass density, kg/m3	uncertainty
298.15	0	1009.5	2.2
298.15	0.1	1012.1	2.2
298.15	0.2	1014.6	2.2
298.15	0.3	1017	2.2
298.15	0.3999	1019.8	2.2
298.15	0.5	1022.5	2.3
298.15	0.6	1024.7	2.3
298.15	0.6999	1026.5	2.3
298.15	0.8	1027.9	2.3
298.15	0.9001	1028.7	2.3
298.15	1	1029.1	2.3
308.15	0	999.4	2.2
308.15	0.1	1002	2.2
308.15	0.2	1004.6	2.2
308.15	0.3	1007.4	2.2
308.15	0.3999	1010.2	2.2
308.15	0.5	1012.7	2.3
308.15	0.6	1014.8	2.3
308.15	0.6999	1016.5	2.3
308.15	0.8	1017.8	2.3
308.15	0.9001	1018.6	2.3
308.15	1	1018.7	2.3
318.15	0	989.2	2.2
318.15	0.1	991.7	2.2
318.15	0.2	994.5	2.2
318.15	0.3	997.3	2.2
318.15	0.3999	999.9	2.2
318.15	0.5	1002.2	2.3
318.15	0.6	1004.2	2.3
318.15	0.6999	1005.8	2.3
318.15	0.8	1007.2	2.3
318.15	0.9001	1008.2	2.3
318.15	1	1007.5	2.3

System: DL-ethyl lactate + benzyl methacrylate; phases: Liquid
Fixed: Pressure, kPa = 101
Property: Viscosity, Pa*s (Liquid); method: Capillary tube (Ostwald; Ubbelohde) method
Temperature, K	Mole fraction of DL-ethyl lactate	Viscosity, Pa*s	uncertainty
298.15	0	0.002302	5.3e-05
298.15	0.1	0.002219	5e-05
298.15	0.1999	0.002166	4.9e-05
298.15	0.3	0.002153	4.8e-05
298.15	0.4	0.002149	4.8e-05
298.15	0.5	0.002161	4.8e-05
298.15	0.6	0.002179	4.8e-05
298.15	0.7	0.002209	4.8e-05
298.15	0.7999	0.00225	4.8e-05
298.15	0.9	0.002303	4.9e-05
298.15	1	0.002398	5.1e-05
308.15	0	0.001885	4.3e-05
308.15	0.1	0.001832	4.2e-05
308.15	0.1999	0.0018	4.1e-05
308.15	0.3	0.00177	4e-05
308.15	0.4	0.001753	3.9e-05
308.15	0.5	0.001749	3.9e-05
308.15	0.6	0.001753	3.8e-05
308.15	0.7	0.001761	3.8e-05
308.15	0.7999	0.001782	3.8e-05
308.15	0.9	0.001807	3.9e-05
308.15	1	0.001863	4e-05
318.15	0	0.00158	3.6e-05
318.15	0.1	0.00153	3.5e-05
318.15	0.1999	0.001493	3.4e-05
318.15	0.3	0.001458	3.3e-05
318.15	0.4	0.001437	3.2e-05
318.15	0.5	0.001426	3.1e-05
318.15	0.6	0.001426	3.1e-05
318.15	0.7	0.001431	3.1e-05
318.15	0.7999	0.001447	3.1e-05
318.15	0.9	0.001464	3.1e-05
318.15	1	0.001494	3.2e-05

System: DL-ethyl lactate + benzyl methacrylate; phases: Liquid
Fixed: Pressure, kPa = 101
Property: Mass density, kg/m3 (Liquid); method: PYCNOM:UFactor:2
Temperature, K	Mole fraction of DL-ethyl lactate	Mass density, kg/m3	uncertainty
298.15	0	1034.7	2.5
298.15	0.1	1033.7	2.5
298.15	0.1999	1032.7	2.4
298.15	0.3	1032.1	2.4
298.15	0.4	1031.6	2.4
298.15	0.5	1031.1	2.4
298.15	0.6	1030.7	2.3
298.15	0.7	1030.2	2.3
298.15	0.7999	1029.8	2.3
298.15	0.9	1029.4	2.3
298.15	1	1029.1	2.3
308.15	0	1025.8	2.5
308.15	0.1	1024.3	2.5
308.15	0.1999	1023.3	2.4
308.15	0.3	1022.6	2.4
308.15	0.4	1021.9	2.4
308.15	0.5	1021.2	2.4
308.15	0.6	1020.6	2.3
308.15	0.7	1020	2.3
308.15	0.7999	1019.4	2.3
308.15	0.9	1018.9	2.3
308.15	1	1018.7	2.3
318.15	0	1017	2.5
318.15	0.1	1015.1	2.5
318.15	0.1999	1013.9	2.4
318.15	0.3	1012.9	2.4
318.15	0.4	1012.1	2.4
318.15	0.5	1011.2	2.3
318.15	0.6	1010.4	2.3
318.15	0.7	1009.5	2.3
318.15	0.7999	1008.7	2.3
318.15	0.9	1008	2.3
318.15	1	1007.5	2.3

System: DL-ethyl lactate + 2-hydroxyethyl 2-methyl-2-propenoate; phases: Liquid
Fixed: Pressure, kPa = 101
Property: Viscosity, Pa*s (Liquid); method: Capillary tube (Ostwald; Ubbelohde) method
Temperature, K	Mole fraction of DL-ethyl lactate	Viscosity, Pa*s	uncertainty
298.15	0	0.005784	0.000132
298.15	0.1	0.00523	0.000119
298.15	0.2	0.00475	0.000107
298.15	0.3	0.00436	9.7e-05
298.15	0.4	0.003989	8.8e-05
298.15	0.5	0.003663	8e-05
298.15	0.6	0.003343	7.3e-05
298.15	0.7	0.003041	6.6e-05
298.15	0.8	0.002767	6e-05
298.15	0.9	0.002524	5.4e-05
298.15	1	0.002398	5.1e-05
308.15	0	0.004194	9.6e-05
308.15	0.1	0.003833	8.7e-05
308.15	0.2	0.003513	7.9e-05
308.15	0.3	0.003215	7.2e-05
308.15	0.4	0.002975	6.6e-05
308.15	0.5	0.002742	6e-05
308.15	0.6	0.002526	5.5e-05
308.15	0.7	0.002323	5e-05
308.15	0.8	0.002127	4.6e-05
308.15	0.9	0.001949	4.2e-05
308.15	1	0.001863	4e-05
318.15	0	0.003181	7.3e-05
318.15	0.1	0.002938	6.7e-05
318.15	0.2	0.00271	6.1e-05
318.15	0.3	0.002493	5.6e-05
318.15	0.4	0.002311	5.1e-05
318.15	0.5	0.002141	4.7e-05
318.15	0.6	0.001985	4.3e-05
318.15	0.7	0.001834	4e-05
318.15	0.8	0.001689	3.6e-05
318.15	0.9	0.001556	3.3e-05
318.15	1	0.001494	3.2e-05

System: DL-ethyl lactate + 2-hydroxyethyl 2-methyl-2-propenoate; phases: Liquid
Fixed: Pressure, kPa = 101
Property: Mass density, kg/m3 (Liquid); method: PYCNOM:UFactor:2
Temperature, K	Mole fraction of DL-ethyl lactate	Mass density, kg/m3	uncertainty
298.15	0	1067.1	2.6
298.15	0.1	1063.9	2.5
298.15	0.2	1060.6	2.5
298.15	0.3	1057.1	2.5
298.15	0.4	1053.5	2.4
298.15	0.5	1049.8	2.4
298.15	0.6	1045.9	2.4
298.15	0.7	1041.8	2.3
298.15	0.8	1037.7	2.3
298.15	0.9	1033.4	2.3
298.15	1	1029.1	2.3
308.15	0	1057.7	2.6
308.15	0.1	1054.7	2.5
308.15	0.2	1051.4	2.5
308.15	0.3	1047.9	2.5
308.15	0.4	1044.3	2.4
308.15	0.5	1040.4	2.4
308.15	0.6	1036.4	2.4
308.15	0.7	1032.2	2.3
308.15	0.8	1027.9	2.3
308.15	0.9	1023.4	2.3
308.15	1	1018.7	2.3
318.15	0	1048.6	2.6
318.15	0.1	1045.6	2.5
318.15	0.2	1042.2	2.5
318.15	0.3	1038.5	2.5
318.15	0.4	1034.6	2.4
318.15	0.5	1030.6	2.4
318.15	0.6	1026.4	2.4
318.15	0.7	1022	2.3
318.15	0.8	1017.5	2.3
318.15	0.9	1012.8	2.3
318.15	1	1007.5	2.3
