Measured thermophysical data. Densities and Viscosities of MTBE + Heptane or Octane at p ) 0.1 MPa from (273.15 to 363.15) K
Source: J. Chem. Eng. Data, 2007, 10.1021/je600554h
Compound 1: heptane, C7H16, InChI=1S/C7H16/c1-3-5-7-6-4-2/h3-7H2,1-2H3, purity 99.6%
Compound 2: octane, C8H18, InChI=1S/C8H18/c1-3-5-7-8-6-4-2/h3-8H2,1-2H3, purity 99.44%
Compound 3: 2-methoxy-2-methylpropane, C5H12O, InChI=1S/C5H12O/c1-5(2,3)6-4/h1-4H3, purity 99.96%

System: heptane; phases: Liquid
Fixed: Pressure, kPa = 101.325
Property: Viscosity, Pa*s (Liquid); method: Capillary tube (Ostwald; Ubbelohde) method
Temperature, K	Viscosity, Pa*s	uncertainty
273.15	0.000526	9e-06
278.15	0.000495	9e-06
283.15	0.000465	9e-06
288.15	0.000438	9e-06
293.15	0.000415	9e-06
298.15	0.000392	9e-06
303.15	0.000372	8e-06
308.15	0.000354	8e-06
313.15	0.000336	8e-06

System: heptane; phases: Liquid
Fixed: Pressure, kPa = 101.325
Property: Mass density, kg/m3 (Liquid); method: VIBTUB:UFactor:4
Temperature, K	Mass density, kg/m3	uncertainty
273.15	700.75	0.62
278.15	696.59	0.62
283.15	692.42	0.63
288.15	688.22	0.64
293.15	684	0.64
298.15	679.75	0.65
303.15	675.48	0.66
308.15	671.19	0.66
313.15	666.86	0.67
318.15	662.5	0.68
323.15	658.11	0.68
328.15	653.68	0.69
333.15	649.22	0.7
338.15	644.72	0.71
343.15	640.17	0.71
348.15	635.58	0.72
353.15	630.41	0.73
358.15	626.34	0.74

System: octane; phases: Liquid
Fixed: Pressure, kPa = 101.325
Property: Viscosity, Pa*s (Liquid); method: Capillary tube (Ostwald; Ubbelohde) method
Temperature, K	Viscosity, Pa*s	uncertainty
273.15	0.000718	9e-06
278.15	0.000671	9e-06
283.15	0.000623	9e-06
288.15	0.000584	9e-06
293.15	0.000545	9e-06
298.15	0.000514	9e-06
303.15	0.000486	9e-06
308.15	0.000459	9e-06
313.15	0.000434	9e-06
318.15	0.000415	9e-06
323.15	0.000394	9e-06
328.15	0.000375	9e-06
333.15	0.000357	8e-06

System: octane; phases: Liquid
Fixed: Pressure, kPa = 101.325
Property: Mass density, kg/m3 (Liquid); method: VIBTUB:UFactor:4
Temperature, K	Mass density, kg/m3	uncertainty
273.15	718.58	0.6
278.15	714.61	0.61
283.15	710.62	0.62
288.15	706.62	0.62
293.15	702.61	0.63
298.15	698.57	0.64
303.15	694.52	0.64
308.15	690.44	0.65
313.15	686.35	0.65
318.15	682.23	0.66
323.15	678.09	0.67
328.15	673.92	0.67
333.15	669.71	0.68
338.15	665.51	0.69
343.15	661.24	0.69
348.15	656.96	0.7
353.15	652.63	0.71
358.15	648.26	0.72
363.15	643.85	0.72

System: 2-methoxy-2-methylpropane; phases: Liquid
Fixed: Pressure, kPa = 101.325
Property: Viscosity, Pa*s (Liquid); method: Capillary tube (Ostwald; Ubbelohde) method
Temperature, K	Viscosity, Pa*s	uncertainty
273.15	0.000443	9e-06
278.15	0.000417	9e-06
283.15	0.000392	8e-06
288.15	0.00037	8e-06

System: 2-methoxy-2-methylpropane; phases: Liquid
Fixed: Pressure, kPa = 101.325
Property: Mass density, kg/m3 (Liquid); method: VIBTUB:UFactor:2
Temperature, K	Mass density, kg/m3	uncertainty
273.15	761.34	0.25
278.15	756.14	0.26
283.15	751.02	0.26
288.15	745.85	0.27
293.15	740.65	0.27
298.15	735.4	0.27
303.15	730.1	0.28
308.15	724.82	0.28
313.15	719.42	0.29
318.15	713.96	0.29

System: heptane + 2-methoxy-2-methylpropane; phases: Liquid
Fixed: Pressure, kPa = 100
Property: Viscosity, Pa*s (Liquid); method: Capillary tube (Ostwald; Ubbelohde) method
Temperature, K	Mole fraction of 2-methoxy-2-methylpropane	Viscosity, Pa*s	uncertainty
273.15	0.1004	0.000515	9e-06
273.15	0.1998	0.000507	9e-06
273.15	0.3008	0.000494	9e-06
273.15	0.4024	0.000485	9e-06
273.15	0.5007	0.000476	9e-06
273.15	0.5989	0.000468	9e-06
273.15	0.6981	0.000462	9e-06
273.15	0.7887	0.000456	9e-06
273.15	0.898	0.000448	9e-06
278.15	0.1004	0.000484	9e-06
278.15	0.1998	0.000474	9e-06
278.15	0.3008	0.000464	9e-06
278.15	0.4024	0.000456	9e-06
278.15	0.5007	0.000448	9e-06
278.15	0.5989	0.00044	9e-06
278.15	0.6981	0.000433	9e-06
278.15	0.7887	0.000427	9e-06
278.15	0.898	0.000421	8e-06
283.15	0.1004	0.000455	9e-06
283.15	0.1998	0.000446	9e-06
283.15	0.3008	0.000437	9e-06
283.15	0.4024	0.000429	9e-06
283.15	0.5007	0.000422	9e-06
283.15	0.5989	0.000414	8e-06
283.15	0.6981	0.000408	8e-06
283.15	0.7887	0.000403	8e-06
283.15	0.898	0.000397	8e-06
288.15	0.1004	0.000429	9e-06
288.15	0.1998	0.000421	9e-06
288.15	0.3008	0.000413	9e-06
288.15	0.4024	0.000405	8e-06
288.15	0.5007	0.000398	8e-06
288.15	0.5989	0.000391	8e-06
288.15	0.6981	0.000385	8e-06
288.15	0.7887	0.00038	8e-06
288.15	0.898	0.000375	8e-06
293.15	0.1004	0.000406	9e-06
293.15	0.1998	0.000398	8e-06
293.15	0.3008	0.00039	8e-06
293.15	0.4024	0.000383	8e-06
293.15	0.5007	0.000376	8e-06
293.15	0.5989	0.000369	8e-06
293.15	0.6981	0.000364	8e-06
293.15	0.7887	0.000359	8e-06
298.15	0.1004	0.000384	8e-06
298.15	0.1998	0.000377	8e-06
298.15	0.3008	0.00037	8e-06
298.15	0.4024	0.000363	8e-06
298.15	0.5007	0.000357	8e-06
303.15	0.1004	0.000365	8e-06
303.15	0.1998	0.000358	8e-06
303.15	0.3008	0.000351	8e-06
303.15	0.4024	0.000344	8e-06
308.15	0.1004	0.000347	8e-06
308.15	0.1998	0.00034	8e-06
313.15	0.1004	0.00033	8e-06

System: heptane + 2-methoxy-2-methylpropane; phases: Liquid
Fixed: Pressure, kPa = 1000
Property: Mass density, kg/m3 (Liquid); method: Vibrating tube method
Temperature, K	Mole fraction of 2-methoxy-2-methylpropane	Mass density, kg/m3	uncertainty
273.15	0.1042	705.19	0.25
273.15	0.2146	710.4	0.25
273.15	0.3024	714.67	0.26
273.15	0.3982	719.73	0.27
273.15	0.4996	725.44	0.28
273.15	0.5875	730.85	0.3
273.15	0.6985	738.08	0.31
273.15	0.794	744.8	0.33
273.15	0.889	752	0.33
278.15	0.1042	700.96	0.25
278.15	0.2146	706.09	0.25
278.15	0.3024	710.3	0.26
278.15	0.3982	715.27	0.27
278.15	0.4996	720.9	0.28
278.15	0.5875	726.22	0.29
278.15	0.6985	733.34	0.3
278.15	0.794	739.96	0.32
278.15	0.889	747.05	0.33
283.15	0.1042	696.72	0.25
283.15	0.2146	701.76	0.25
283.15	0.3024	705.9	0.26
283.15	0.3982	710.79	0.27
283.15	0.4996	716.32	0.28
283.15	0.5875	721.55	0.29
283.15	0.6985	728.56	0.3
283.15	0.794	735.08	0.32
283.15	0.889	742.07	0.33
288.15	0.1042	692.45	0.25
288.15	0.2146	697.4	0.25
288.15	0.3024	701.47	0.26
288.15	0.3982	706.28	0.26
288.15	0.4996	711.72	0.27
288.15	0.5875	716.86	0.29
288.15	0.6985	723.76	0.3
288.15	0.794	730.17	0.32
288.15	0.889	737.04	0.32
293.15	0.1042	688.15	0.25
293.15	0.2146	693.02	0.25
293.15	0.3024	697.02	0.25
293.15	0.3982	701.73	0.26
293.15	0.4996	707.09	0.27
293.15	0.5875	712.13	0.29
293.15	0.6985	718.92	0.3
293.15	0.794	725.22	0.31
293.15	0.889	731.98	0.32
298.15	0.1042	683.83	0.25
298.15	0.2146	688.62	0.25
298.15	0.3024	692.54	0.25
298.15	0.3982	697.16	0.26
298.15	0.4996	702.42	0.27
298.15	0.5875	707.37	0.28
298.15	0.6985	714.04	0.29
298.15	0.794	720.23	0.31
298.15	0.889	726.87	0.32
303.15	0.1042	679.49	0.25
303.15	0.2146	684.18	0.25
303.15	0.3024	688.02	0.25
303.15	0.3982	692.55	0.26
303.15	0.4996	697.72	0.27
303.15	0.5875	702.57	0.28
303.15	0.6985	709.11	0.29
303.15	0.794	715.19	0.31
303.15	0.889	721.72	0.31
308.15	0.1042	675.12	0.25
308.15	0.2146	679.71	0.24
308.15	0.3024	683.48	0.25
308.15	0.3982	687.91	0.26
308.15	0.4996	692.98	0.27
308.15	0.5875	697.73	0.28
308.15	0.6985	704.14	0.29
308.15	0.794	710.11	0.3
313.15	0.1042	670.71	0.25
313.15	0.2146	675.19	0.24
313.15	0.3024	678.89	0.25
313.15	0.3982	683.23	0.26
313.15	0.4996	688.2	0.26
313.15	0.5875	692.85	0.28
313.15	0.6985	699.12	0.28
318.15	0.1042	666.28	0.24
318.15	0.2146	670.65	0.24
318.15	0.3024	674.26	0.25
318.15	0.3982	678.51	0.25
318.15	0.4996	683.38	0.26
318.15	0.5875	687.92	0.27
323.15	0.1042	661.8	0.24
323.15	0.2146	666.08	0.24
323.15	0.3024	669.6	0.25
323.15	0.3982	673.75	0.25
323.15	0.4996	678.5	0.26
328.15	0.1042	657.27	0.24
328.15	0.2146	661.46	0.24
328.15	0.3024	664.89	0.24
328.15	0.3982	668.93	0.25
333.15	0.1042	652.74	0.24
333.15	0.2146	656.77	0.24
333.15	0.3024	660.13	0.24
338.16	0.1042	648.13	0.24
338.16	0.2146	652.07	0.24
343.16	0.1042	643.27	0.24

System: octane + 2-methoxy-2-methylpropane; phases: Liquid
Fixed: Pressure, kPa = 100
Property: Viscosity, Pa*s (Liquid); method: Capillary tube (Ostwald; Ubbelohde) method
Temperature, K	Mole fraction of 2-methoxy-2-methylpropane	Viscosity, Pa*s	uncertainty
273.15	0.1019	0.000685	9e-06
273.15	0.2189	0.000651	9e-06
273.15	0.3026	0.000622	9e-06
273.15	0.4029	0.000597	9e-06
273.15	0.4995	0.00057	9e-06
273.15	0.6099	0.000549	9e-06
273.15	0.7072	0.000525	9e-06
273.15	0.7981	0.000494	9e-06
273.15	0.8941	0.000472	9e-06
278.15	0.1019	0.000638	9e-06
278.15	0.2189	0.000607	9e-06
278.15	0.3026	0.000583	9e-06
278.15	0.4029	0.000559	9e-06
278.15	0.4995	0.000534	9e-06
278.15	0.6099	0.000514	9e-06
278.15	0.7072	0.000492	9e-06
278.15	0.7981	0.000462	9e-06
278.15	0.8941	0.000442	9e-06
283.15	0.1019	0.000597	9e-06
283.15	0.2189	0.000568	9e-06
283.15	0.3026	0.000545	9e-06
283.15	0.4029	0.000523	9e-06
283.15	0.4995	0.000501	9e-06
283.15	0.6099	0.000483	9e-06
283.15	0.7072	0.000462	9e-06
283.15	0.7981	0.000435	9e-06
283.15	0.8941	0.000417	9e-06
288.15	0.1019	0.000559	9e-06
288.15	0.2189	0.000533	9e-06
288.15	0.3026	0.000514	9e-06
288.15	0.4029	0.000492	9e-06
288.15	0.4995	0.000471	9e-06
288.15	0.6099	0.000454	9e-06
288.15	0.7072	0.000435	9e-06
288.15	0.7981	0.00041	9e-06
288.15	0.8941	0.000393	8e-06
293.15	0.1019	0.000525	9e-06
293.15	0.2189	0.000501	9e-06
293.15	0.3026	0.000483	9e-06
293.15	0.4029	0.000464	9e-06
293.15	0.4995	0.000445	9e-06
293.15	0.6099	0.000428	9e-06
293.15	0.7072	0.000411	9e-06
293.15	0.7981	0.000388	8e-06
293.15	0.8941	0.000372	8e-06
298.15	0.1019	0.000495	9e-06
298.15	0.2189	0.000473	9e-06
298.15	0.3026	0.000455	9e-06
298.15	0.4029	0.000439	9e-06
298.15	0.4995	0.00042	9e-06
298.15	0.6099	0.000405	9e-06
298.15	0.7072	0.000388	8e-06
298.15	0.7981	0.000367	8e-06
303.15	0.1019	0.000468	9e-06
303.15	0.2189	0.000447	9e-06
303.15	0.3026	0.00043	9e-06
303.15	0.4029	0.000414	9e-06
303.15	0.4995	0.000397	8e-06
303.15	0.6099	0.000382	8e-06
303.15	0.7072	0.000367	8e-06
308.15	0.1019	0.000443	9e-06
308.15	0.2189	0.000425	9e-06
308.15	0.3026	0.000409	9e-06
308.15	0.4029	0.000393	8e-06
308.15	0.4995	0.000376	8e-06
308.15	0.6099	0.000362	8e-06
313.15	0.1019	0.00042	9e-06
313.15	0.2189	0.000402	9e-06
313.15	0.3026	0.000387	8e-06
313.15	0.4029	0.000374	8e-06
313.15	0.4995	0.000358	8e-06
318.15	0.1019	0.000398	9e-06
318.15	0.2189	0.000381	8e-06
318.15	0.3026	0.000367	8e-06
318.15	0.4029	0.000355	8e-06
323.15	0.1019	0.000377	8e-06
323.15	0.2189	0.000361	8e-06
323.15	0.3026	0.000349	8e-06
328.15	0.1019	0.000359	8e-06
328.15	0.2189	0.000344	8e-06
333.15	0.1019	0.000342	8e-06

System: octane + 2-methoxy-2-methylpropane; phases: Liquid
Fixed: Pressure, kPa = 100
Property: Mass density, kg/m3 (Liquid); method: VIBTUB:UFactor:4
Temperature, K	Mole fraction of 2-methoxy-2-methylpropane	Mass density, kg/m3	uncertainty
273.15	0.1059	721.15	0.6
273.15	0.2123	724.203	0.589
273.15	0.3019	727.065	0.584
273.15	0.4099	730.835	0.577
273.15	0.5053	734.583	0.573
273.15	0.6005	738.614	0.569
273.15	0.6934	742.992	0.566
273.15	0.7967	748.318	0.566
273.15	0.8975	754.329	0.563
278.15	0.1059	717.106	0.603
278.15	0.2123	720.082	0.594
278.15	0.3019	722.866	0.589
278.15	0.4099	726.533	0.582
278.15	0.5053	730.183	0.578
278.15	0.6005	734.106	0.574
278.15	0.6934	738.371	0.571
278.15	0.7967	743.56	0.57
278.15	0.8975	749.42	0.567
283.15	0.1059	713.046	0.608
283.15	0.2123	715.938	0.6
283.15	0.3019	718.644	0.595
283.15	0.4099	722.208	0.588
283.15	0.5053	725.756	0.583
283.15	0.6005	729.573	0.579
283.15	0.6934	733.719	0.576
283.15	0.7967	738.766	0.575
283.15	0.8975	744.471	0.572
288.15	0.1059	708.972	0.614
288.15	0.2123	711.779	0.605
288.15	0.3019	714.403	0.6
288.15	0.4099	717.859	0.593
288.15	0.5053	721.306	0.589
288.15	0.6005	725.009	0.584
288.15	0.6934	729.044	0.582
288.15	0.7967	733.942	0.58
288.15	0.8975	739.489	0.576
293.15	0.1059	704.884	0.619
293.15	0.2123	707.601	0.611
293.15	0.3019	710.139	0.606
293.15	0.4099	713.488	0.599
293.15	0.5053	716.833	0.594
293.15	0.6005	720.419	0.59
293.15	0.6934	724.332	0.587
293.15	0.7967	729.066	0.585
293.15	0.8975	734.467	0.581
298.15	0.1059	700.768	0.625
298.15	0.2123	703.393	0.617
298.15	0.3019	705.856	0.611
298.15	0.4099	709.092	0.605
298.15	0.5053	712.324	0.6
298.15	0.6005	715.799	0.595
298.15	0.6934	719.586	0.592
298.15	0.7967	724.172	0.59
298.15	0.8975	729.408	0.586
303.15	0.1059	696.633	0.63
303.15	0.2123	699.177	0.622
303.15	0.3019	701.546	0.617
303.15	0.4099	704.666	0.61
303.15	0.5053	707.798	0.606
303.15	0.6005	711.146	0.601
303.15	0.6934	714.806	0.598
303.15	0.7967	719.238	0.596
303.15	0.8975	724.303	0.592
308.15	0.1059	692.484	0.636
308.15	0.2123	694.926	0.628
308.15	0.3019	697.212	0.623
308.15	0.4099	700.213	0.616
308.15	0.5053	703.231	0.611
308.15	0.6005	706.458	0.607
308.15	0.6934	709.988	0.603
308.15	0.7967	714.261	0.601
308.15	0.8975	719.151	0.597
313.15	0.1059	688.303	0.642
313.15	0.2123	690.652	0.634
313.15	0.3019	692.842	0.629
313.15	0.4099	695.728	0.622
313.15	0.5053	698.629	0.617
313.15	0.6005	701.736	0.613
313.15	0.6934	705.127	0.609
313.15	0.7967	709.24	0.606
313.15	0.8975	713.95	0.602
318.15	0.1059	684.108	0.647
318.15	0.2123	686.345	0.64
318.15	0.3019	688.444	0.634
318.15	0.4099	691.207	0.628
318.15	0.5053	693.985	0.623
318.15	0.6005	696.968	0.619
318.15	0.6934	700.224	0.615
318.15	0.7967	704.169	0.612
318.15	0.8975	708.696	0.608
323.15	0.1059	679.876	0.653
323.15	0.2123	682.017	0.646
323.15	0.3019	684.017	0.64
323.15	0.4099	686.655	0.634
323.15	0.5053	689.306	0.629
323.15	0.6005	692.159	0.625
323.15	0.6934	695.271	0.621
323.15	0.7967	699.039	0.615
328.15	0.1059	675.617	0.659
328.15	0.2123	677.665	0.652
328.15	0.3019	679.549	0.647
328.15	0.4099	682.067	0.64
328.15	0.5053	684.587	0.635
328.15	0.6005	687.304	0.631
328.15	0.6934	690.272	0.626
333.15	0.1059	671.333	0.665
333.15	0.2123	673.25	0.658
333.15	0.3019	675.046	0.653
333.15	0.4099	677.434	0.647
333.15	0.5053	679.825	0.642
333.15	0.6005	682.397	0.636
338.15	0.1059	667.018	0.671
338.15	0.2123	668.815	0.664
338.15	0.3019	670.514	0.659
338.15	0.4099	672.758	0.652
343.15	0.1059	662.68	0.677
343.15	0.2123	664.349	0.67
343.15	0.3019	665.923	0.666
343.15	0.4099	668.038	0.659
348.15	0.1059	658.279	0.683
348.15	0.2123	659.83	0.677
348.15	0.3019	661.299	0.672
353.15	0.1059	653.843	0.69
353.15	0.2123	655.28	0.684
353.15	0.3019	656.638	0.678
358.15	0.1059	649.405	0.697
358.15	0.2123	650.681	0.69
358.15	0.3019	651.917	0.685
363.15	0.1059	644.85	0.703
363.15	0.2123	646.031	0.697
363.15	0.3019	647.14	0.693
