Measured thermophysical data. Solubility of Sodium Cefotaxime in Different Solvents
Source: J. Chem. Eng. Data, 2007, 10.1021/je600564q
Compound 1: cefotaxime sodium salt, C16H16N5NaO7S2, InChI=1S/C16H17N5O7S2.Na/c1-6(22)28-3-7-4-29-14-10(13(24)21(14)11(7)15(25)26)19-12(23)9(20-27-2)8-5-30-16(17)18-8;/h5,10,14H,3-4H2,1-2H3,(H2,17,18)(H,19,23)(H,25,26);/q;+1/p-1/b20-9+;/t10-,14-;/m1./s1
Compound 2: formamide, CH3NO, InChI=1S/CH3NO/c2-1-3/h1H,(H2,2,3), purity 99.5%
Compound 3: dimethylformamide, C3H7NO, InChI=1S/C3H7NO/c1-4(2)3-5/h3H,1-2H3, purity 99.5%
Compound 4: dimethyl sulfoxide, C2H6OS, InChI=1S/C2H6OS/c1-4(2)3/h1-2H3, purity 99.5%
Compound 5: water, H2O, InChI=1S/H2O/h1H2
Compound 6: N-methylpyrrolidone, C5H9NO, InChI=1S/C5H9NO/c1-6-4-2-3-5(6)7/h2-4H2,1H3, purity 99.5%

System: formamide + cefotaxime sodium salt; phases: Liquid, Crystal
Fixed: Pressure, kPa = 101
Property: Mole fraction of cefotaxime sodium salt (Liquid); method: Laser monitoring observation technique
Temperature, K	Mole fraction of cefotaxime sodium salt	uncertainty
278.15	0.048303	0.004613
280.15	0.050265	0.0048
283.15	0.052955	0.005058
285.15	0.056184	0.005366
288.15	0.059646	0.005696
290.15	0.061517	0.005875
293.15	0.064359	0.006146
295.15	0.065158	0.006222
298.15	0.067434	0.006439
300.15	0.068772	0.006567
303.15	0.070191	0.006702
305.15	0.071863	0.006862
308.15	0.073271	0.006996

System: dimethylformamide + cefotaxime sodium salt; phases: Liquid, Crystal
Fixed: Pressure, kPa = 101
Property: Mole fraction of cefotaxime sodium salt (Liquid); method: Laser monitoring observation technique
Temperature, K	Mole fraction of cefotaxime sodium salt	uncertainty
278.15	0.040727	0.00648
280.15	0.0413	0.006572
283.15	0.043607	0.006939
285.15	0.046185	0.007349
288.15	0.047428	0.007548
290.15	0.053743	0.008553
293.15	0.056962	0.009064
295.15	0.060021	0.009552
298.15	0.066202	0.010535
300.15	0.069022	0.010984
303.15	0.075678	0.012043
305.15	0.078517	0.012494
308.15	0.084511	0.013448

System: dimethyl sulfoxide + cefotaxime sodium salt; phases: Liquid, Crystal
Fixed: Pressure, kPa = 101
Property: Mole fraction of cefotaxime sodium salt (Liquid); method: Laser monitoring observation technique
Temperature, K	Mole fraction of cefotaxime sodium salt	uncertainty
293.15	0.073768	0.001269
295.15	0.074391	0.001281
297.15	0.075085	0.001293
298.15	0.07549	0.001302
300.15	0.076973	0.001328
302.15	0.077655	0.00134
303.15	0.077911	0.001344
305.15	0.078328	0.001352
307.15	0.078537	0.001356
308.15	0.078797	0.001361

System: water + cefotaxime sodium salt; phases: Liquid, Crystal
Fixed: Pressure, kPa = 101
Property: Mole fraction of cefotaxime sodium salt (Liquid); method: Laser monitoring observation technique
Temperature, K	Mole fraction of cefotaxime sodium salt	uncertainty
278.15	0.018026	0.001721
280.15	0.018095	0.001728
282.15	0.018216	0.001739
283.15	0.018304	0.001748
285.15	0.018351	0.001752
287.15	0.018394	0.001756
288.15	0.018415	0.001758
290.15	0.018539	0.00177
292.15	0.018618	0.001778
293.15	0.018758	0.001791
295.15	0.018799	0.001795
297.15	0.018851	0.0018
298.15	0.018884	0.001803

System: N-methylpyrrolidone + cefotaxime sodium salt; phases: Liquid, Crystal
Fixed: Pressure, kPa = 101
Property: Mole fraction of cefotaxime sodium salt (Liquid); method: Laser monitoring observation technique
Temperature, K	Mole fraction of cefotaxime sodium salt	uncertainty
278.15	0.000254	0.000205
280.15	0.000935	0.000744
283.15	0.001523	0.001212
285.15	0.001915	0.001524
288.15	0.002788	0.002218
290.15	0.003829	0.003046
293.15	0.005241	0.00417
295.15	0.008686	0.006911
298.15	0.011798	0.009401
300.15	0.038016	0.030267
303.15	0.073655	0.0586
305.15	0.082957	0.065995
308.15	0.10297	0.081916
