Measured thermophysical data. Group Contribution Model for Predicting Viscosity of Fatty Compounds
Source: J. Chem. Eng. Data, 2007, 10.1021/je600552b
Compound 1: methyl dodecanoate, C13H26O2, InChI=1S/C13H26O2/c1-3-4-5-6-7-8-9-10-11-12-13(14)15-2/h3-12H2,1-2H3
Compound 2: methyl tetradecanoate, C15H30O2, InChI=1S/C15H30O2/c1-3-4-5-6-7-8-9-10-11-12-13-14-15(16)17-2/h3-14H2,1-2H3
Compound 3: methyl hexadecanoate, C17H34O2, InChI=1S/C17H34O2/c1-3-4-5-6-7-8-9-10-11-12-13-14-15-16-17(18)19-2/h3-16H2,1-2H3
Compound 4: methyl cis-9-octadecenoate, C19H36O2, InChI=1S/C19H36O2/c1-3-4-5-6-7-8-9-10-11-12-13-14-15-16-17-18-19(20)21-2/h10-11H,3-9,12-18H2,1-2H3/b11-10-
Compound 5: methyl (Z,Z)-9,12-octadecadienate, C19H34O2, InChI=1S/C19H34O2/c1-3-4-5-6-7-8-9-10-11-12-13-14-15-16-17-18-19(20)21-2/h7-8,10-11H,3-6,9,12-18H2,1-2H3/b8-7-,11-10-
Compound 6: all-cis-9,12,15-octadecatrienoic acid, C18H30O2, InChI=1S/C18H30O2/c1-2-3-4-5-6-7-8-9-10-11-12-13-14-15-16-17-18(19)20/h3-4,6-7,9-10H,2,5,8,11-17H2,1H3,(H,19,20)/b4-3-,7-6-,10-9-
Compound 7: trilinolenin, C57H92O6, InChI=1S/C57H92O6/c1-4-7-10-13-16-19-22-25-28-31-34-37-40-43-46-49-55(58)61-52-54(63-57(60)51-48-45-42-39-36-33-30-27-24-21-18-15-12-9-6-3)53-62-56(59)50-47-44-41-38-35-32-29-26-23-20-17-14-11-8-5-2/h7-12,16-21,25-30,54H,4-6,13-15,22-24,31-53H2,1-3H3/b10-7-,11-8-,12-9-,19-16-,20-17-,21-18-,28-25-,29-26-,30-27-
Compound 8: methyl (Z,Z,Z)-9,12,15-octadecatrienoate, C19H32O2, InChI=1S/C19H32O2/c1-3-4-5-6-7-8-9-10-11-12-13-14-15-16-17-18-19(20)21-2/h4-5,7-8,10-11H,3,6,9,12-18H2,1-2H3/b5-4-,8-7-,11-10-

System: methyl dodecanoate; phases: Liquid
Fixed: Pressure, kPa = 101.325
Property: Viscosity, Pa*s (Liquid); method: Falling or rolling sphere viscometry
Temperature, K	Viscosity, Pa*s	uncertainty
293.15	0.003096	0.000106
303.15	0.002475	8.5e-05
313.15	0.002044	7e-05
323.15	0.001643	5.6e-05
333.15	0.001383	4.7e-05
343.15	0.001173	4e-05

System: methyl tetradecanoate; phases: Liquid
Fixed: Pressure, kPa = 101.325
Property: Viscosity, Pa*s (Liquid); method: Falling or rolling sphere viscometry
Temperature, K	Viscosity, Pa*s	uncertainty
293.15	0.004442	0.000153
303.15	0.003496	0.00012
313.15	0.002841	9.8e-05
323.15	0.002252	7.8e-05
333.15	0.001819	6.3e-05
343.15	0.001521	5.2e-05

System: methyl hexadecanoate; phases: Liquid
Fixed: Pressure, kPa = 101.325
Property: Viscosity, Pa*s (Liquid); method: Falling or rolling sphere viscometry
Temperature, K	Viscosity, Pa*s	uncertainty
313.15	0.003764	0.00013
323.15	0.002931	0.000101
333.15	0.002336	8e-05
343.15	0.001946	6.7e-05

System: methyl cis-9-octadecenoate; phases: Liquid
Fixed: Pressure, kPa = 101.325
Property: Viscosity, Pa*s (Liquid); method: Falling or rolling sphere viscometry
Temperature, K	Viscosity, Pa*s	uncertainty
293.15	0.00637	0.000219
303.15	0.004922	0.00017
313.15	0.003939	0.000136
323.15	0.003097	0.000107
333.15	0.002472	8.5e-05
343.15	0.002054	7.1e-05

System: methyl (Z,Z)-9,12-octadecadienate; phases: Liquid
Fixed: Pressure, kPa = 101.325
Property: Viscosity, Pa*s (Liquid); method: Falling or rolling sphere viscometry
Temperature, K	Viscosity, Pa*s	uncertainty
293.15	0.004798	0.000165
303.15	0.003822	0.000131
313.15	0.003166	0.000109
323.15	0.00255	8.8e-05
333.15	0.002078	7.1e-05
343.15	0.001755	6e-05

System: all-cis-9,12,15-octadecatrienoic acid; phases: Liquid
Fixed: Pressure, kPa = 101.325
Property: Kinematic viscosity, m2/s (Liquid); method: Falling or rolling sphere viscometry
Temperature, K	Kinematic viscosity, m2/s	uncertainty
293.15	1.546e-05	7.9e-07
303.15	1.242e-05	6.3e-07
313.15	8.905e-06	4.55e-07
323.15	7.262e-06	3.7e-07
333.15	5.962e-06	3.03e-07
343.15	5.13e-06	2.61e-07

System: trilinolenin; phases: Liquid
Fixed: Pressure, kPa = 101.325
Property: Kinematic viscosity, m2/s (Liquid); method: Falling or rolling sphere viscometry
Temperature, K	Kinematic viscosity, m2/s	uncertainty
293.15	2.37e-05	8.1e-07
303.15	1.758e-05	6.1e-07
313.15	1.355e-05	4.6e-07
323.15	1.07e-05	3.7e-07
333.15	8.68e-06	3e-07
343.15	7.18e-06	2.5e-07

System: methyl (Z,Z,Z)-9,12,15-octadecatrienoate; phases: Liquid
Fixed: Pressure, kPa = 101.325
Property: Viscosity, Pa*s (Liquid); method: Falling or rolling sphere viscometry
Temperature, K	Viscosity, Pa*s	uncertainty
293.15	0.004022	0.000138
303.15	0.003301	0.000113
313.15	0.00279	9.6e-05
323.15	0.002299	7.9e-05
333.15	0.001862	6.4e-05
343.15	0.001596	5.5e-05
