Measured thermophysical data. Solubility of Anthracene in Binary Diisopropyl Ether + Alcohol Solvent Mixtures at 298.15 K
Source: J. Chem. Eng. Data, 2007, 10.1021/je600525e
Compound 1: anthracene, C14H10, InChI=1S/C14H10/c1-2-6-12-10-14-8-4-3-7-13(14)9-11(12)5-1/h1-10H
Compound 2: propan-1-ol, C3H8O, InChI=1S/C3H8O/c1-2-3-4/h4H,2-3H2,1H3
Compound 3: propan-2-ol, C3H8O, InChI=1S/C3H8O/c1-3(2)4/h3-4H,1-2H3
Compound 4: butan-2-ol, C4H10O, InChI=1S/C4H10O/c1-3-4(2)5/h4-5H,3H2,1-2H3
Compound 5: 2-methyl-1-propanol, C4H10O, InChI=1S/C4H10O/c1-4(2)3-5/h4-5H,3H2,1-2H3
Compound 6: 3-methylbutan-1-ol, C5H12O, InChI=1S/C5H12O/c1-5(2)3-4-6/h5-6H,3-4H2,1-2H3
Compound 7: butan-1-ol, C4H10O, InChI=1S/C4H10O/c1-2-3-4-5/h5H,2-4H2,1H3
Compound 8: diisopropyl ether, C6H14O, InChI=1S/C6H14O/c1-5(2)7-6(3)4/h5-6H,1-4H3

System: propan-1-ol + anthracene; phases: Liquid, Crystal
Property: Mole fraction of anthracene (Liquid); method: OTHER::sMethod:spectroscopy
Temperature, K	Pressure, kPa	Mole fraction of anthracene	uncertainty
298.15	101	0.000591	1.8e-05

System: diisopropyl ether + anthracene; phases: Liquid, Crystal
Property: Mole fraction of anthracene (Liquid); method: OTHER::sMethod:spectroscopy
Temperature, K	Pressure, kPa	Mole fraction of anthracene	uncertainty
298.15	101	0.002515	7.4e-05

System: propan-2-ol + anthracene; phases: Liquid, Crystal
Property: Mole fraction of anthracene (Liquid); method: OTHER::sMethod:spectroscopy
Temperature, K	Pressure, kPa	Mole fraction of anthracene	uncertainty
298.15	101	0.000411	1.2e-05

System: butan-2-ol + anthracene; phases: Liquid, Crystal
Property: Mole fraction of anthracene (Liquid); method: OTHER::sMethod:spectroscopy
Temperature, K	Pressure, kPa	Mole fraction of anthracene	uncertainty
298.15	101	0.000585	1.7e-05

System: 2-methyl-1-propanol + anthracene; phases: Liquid, Crystal
Property: Mole fraction of anthracene (Liquid); method: OTHER::sMethod:spectroscopy
Temperature, K	Pressure, kPa	Mole fraction of anthracene	uncertainty
298.15	101	0.00047	1.4e-05

System: anthracene + 3-methylbutan-1-ol; phases: Liquid, Crystal
Property: Mole fraction of anthracene (Liquid); method: OTHER::sMethod:spectroscopy
Temperature, K	Pressure, kPa	Mole fraction of anthracene	uncertainty
298.15	101	0.000727	2.1e-05

System: butan-1-ol + anthracene; phases: Liquid, Crystal
Property: Mole fraction of anthracene (Liquid); method: spectroscopy
Temperature, K	Pressure, kPa	Mole fraction of anthracene	uncertainty
298.15	101	0.000801	2.4e-05

System: propan-1-ol + diisopropyl ether + anthracene; phases: Liquid, Crystal
Fixed: Temperature, K = 298.15
Fixed: Pressure, kPa = 101
Property: Mole fraction of anthracene (Liquid); method: spectroscopy
Solvent: Mole fraction of diisopropyl ether	Mole fraction of anthracene	uncertainty
0	0.000591	1.8e-05
0.0649	0.000793	2.4e-05
0.1171	0.000949	2.8e-05
0.2663	0.001388	4.1e-05
0.3533	0.001638	4.8e-05
0.4519	0.0019	5.6e-05
0.6433	0.002302	6.8e-05
0.8166	0.002549	7.5e-05
1	0.002515	7.4e-05

System: propan-2-ol + diisopropyl ether + anthracene; phases: Liquid, Crystal
Fixed: Temperature, K = 298.15
Fixed: Pressure, kPa = 101
Property: Mole fraction of anthracene (Liquid); method: spectroscopy
Solvent: Mole fraction of diisopropyl ether	Mole fraction of anthracene	uncertainty
0	0.000411	1.2e-05
0.0551	0.000559	1.7e-05
0.1147	0.000713	2.1e-05
0.2631	0.001139	3.4e-05
0.356	0.001387	4.1e-05
0.4948	0.001777	5.2e-05
0.6336	0.002115	6.2e-05
0.8201	0.002454	7.2e-05

System: butan-2-ol + diisopropyl ether + anthracene; phases: Liquid, Crystal
Fixed: Temperature, K = 298.15
Fixed: Pressure, kPa = 101
Property: Mole fraction of anthracene (Liquid); method: spectroscopy
Solvent: Mole fraction of diisopropyl ether	Mole fraction of anthracene	uncertainty
0	0.000585	1.7e-05
0.0812	0.000811	2.4e-05
0.1584	0.001027	3e-05
0.3032	0.001435	4.2e-05
0.3953	0.001661	4.9e-05
0.509	0.001965	5.8e-05
0.7448	0.002449	7.2e-05
0.8438	0.002539	7.5e-05

System: 2-methyl-1-propanol + diisopropyl ether + anthracene; phases: Liquid, Crystal
Fixed: Temperature, K = 298.15
Fixed: Pressure, kPa = 101
Property: Mole fraction of anthracene (Liquid); method: spectroscopy
Solvent: Mole fraction of diisopropyl ether	Mole fraction of anthracene	uncertainty
0	0.00047	1.4e-05
0.0696	0.000644	1.9e-05
0.1434	0.000836	2.5e-05
0.3193	0.001323	3.9e-05
0.3941	0.001538	4.5e-05
0.5031	0.001834	5.4e-05
0.7176	0.002299	6.8e-05
0.8561	0.002505	7.4e-05

System: diisopropyl ether + anthracene + 3-methylbutan-1-ol; phases: Liquid, Crystal
Fixed: Temperature, K = 298.15
Fixed: Pressure, kPa = 101
Property: Mole fraction of anthracene (Liquid); method: spectroscopy
Solvent: Mole fraction of diisopropyl ether	Mole fraction of anthracene	uncertainty
0	0.000727	2.1e-05
0.0955	0.001001	2.9e-05
0.1765	0.001215	3.6e-05
0.3343	0.001629	4.8e-05
0.4307	0.001842	5.4e-05
0.5258	0.002066	6.1e-05
0.7552	0.002478	7.3e-05
0.8738	0.002571	7.6e-05

System: butan-1-ol + diisopropyl ether + anthracene; phases: Liquid, Crystal
Fixed: Temperature, K = 298.15
Fixed: Pressure, kPa = 101
Property: Mole fraction of anthracene (Liquid); method: spectroscopy
Solvent: Mole fraction of diisopropyl ether	Mole fraction of anthracene	uncertainty
0	0.000801	2.4e-05
0.0797	0.001068	3.2e-05
0.1443	0.001261	3.7e-05
0.2974	0.001677	4.9e-05
0.3966	0.001914	5.6e-05
0.4952	0.002143	6.3e-05
0.7263	0.002544	7.5e-05
0.8363	0.002605	7.7e-05
