Measured thermophysical data. Pressure-Density-Temperature (p-rho-T) Surface of [C6mim][NTf2]
Source: J. Chem. Eng. Data, 2008, 10.1021/je700628w
Compound 1: 1-hexyl-3-methylimidazolium bis[(trifluoromethyl)sulfonyl]imide, C12H19F6N3O4S2, InChI=1S/C10H19N2.C2F6NO4S2/c1-3-4-5-6-7-12-9-8-11(2)10-12;3-1(4,5)14(10,11)9-15(12,13)2(6,7)8/h8-10H,3-7H2,1-2H3;/q+1;-1, purity 99.5%

System: 1-hexyl-3-methylimidazolium bis[(trifluoromethyl)sulfonyl]imide; phases: Liquid
Property: Mass density, kg/m3 (Liquid); method: Vibrating tube method
Temperature, K	Pressure, kPa	Mass density, kg/m3	uncertainty
293.15	100	1377.3	0.7
293.15	2500	1379	0.7
293.15	5030	1380.8	0.7
293.15	10010	1384.4	0.7
293.15	15020	1387.8	0.8
293.15	20010	1391.1	0.8
293.15	25050	1394.5	0.9
293.15	30010	1397.7	0.9
293.15	34990	1400.8	1
293.15	40040	1403.9	1
293.15	45050	1406.8	1.1
293.15	50010	1409.8	1.2
293.15	55020	1412.6	1.2
293.15	59970	1415.5	1.3
293.15	65020	1418.2	1.4
293.15	100	1377.3	0.7
298.15	100	1372.3	0.7
298.15	2500	1374.1	0.7
298.15	5020	1376	0.7
298.15	10010	1379.6	0.7
298.15	15020	1383.1	0.8
298.15	20010	1386.6	0.8
298.15	25020	1389.9	0.8
298.15	30010	1393.2	0.9
298.15	34990	1396.3	1
298.15	40010	1399.4	1
298.15	45020	1402.4	1.1
298.15	50010	1405.4	1.2
298.15	55010	1408.2	1.2
298.15	59980	1411.1	1.3
298.15	65020	1413.9	1.4
298.15	100	1372.4	0.7
303.15	100	1367.9	0.7
303.15	5020	1371.7	0.7
303.15	10010	1375.3	0.7
303.15	15020	1378.9	0.8
303.15	20020	1382.4	0.8
303.15	25050	1385.9	0.8
303.15	30030	1389.1	0.9
303.15	35020	1392.3	1
303.15	40010	1395.5	1
303.15	45020	1398.5	1.1
303.15	50010	1401.5	1.1
303.15	55020	1404.4	1.2
303.15	59890	1407.2	1.3
303.15	65020	1410	1.4
303.15	100	1367.9	0.7
303.15	15020	1379	0.8
308.15	100	1363.1	0.7
308.15	2500	1365	0.7
308.15	5030	1367	0.7
308.15	10010	1370.8	0.7
308.15	15020	1374.4	0.7
308.15	20040	1378	0.8
308.15	25020	1381.4	0.8
308.15	30010	1384.8	0.9
308.15	35040	1388.1	1
308.15	40010	1391.2	1
308.15	45050	1394.3	1.1
308.15	50010	1397.3	1.1
308.15	55020	1400.2	1.2
308.15	60000	1403	1.3
308.15	65010	1405.9	1.3
308.15	100	1363.2	0.7
313.15	100	1358.8	0.6
313.15	2500	1360.7	0.7
313.15	5030	1362.7	0.7
313.15	10010	1366.6	0.7
313.15	15020	1370.3	0.7
313.15	20030	1373.9	0.8
313.15	25020	1377.4	0.8
313.15	30010	1380.8	0.9
313.15	34990	1384.1	0.9
313.15	40010	1387.4	1
313.15	45020	1390.4	1.1
313.15	50000	1393.5	1.1
313.15	55030	1396.4	1.2
313.15	60010	1399.3	1.3
313.15	65020	1402	1.3
313.15	100	1358.8	0.6
318.15	100	1354.2	0.6
318.15	2500	1356.2	0.7
318.15	5020	1358.3	0.7
318.15	10010	1362.3	0.7
318.15	15050	1366.1	0.7
318.15	20010	1369.8	0.8
318.15	25020	1373.4	0.8
318.15	30010	1376.9	0.9
318.15	35010	1380.2	0.9
318.15	40010	1383.5	1
318.15	45050	1386.6	1.1
318.15	50010	1389.7	1.1
318.15	55030	1392.6	1.2
318.15	59980	1395.4	1.3
318.15	65000	1398.3	1.3
318.15	10010	1362.3	0.7
323.15	100	1350.2	0.6
323.15	2500	1352.3	0.7
323.15	2520	1352.4	0.7
323.15	5040	1354.5	0.7
323.15	10010	1358.4	0.7
323.15	15020	1362.4	0.7
323.15	20010	1366.1	0.8
323.15	25020	1369.8	0.8
323.15	30010	1373.3	0.9
323.15	35020	1376.8	0.9
323.15	40010	1380	1
323.15	45050	1383.3	1.1
323.15	50030	1386.3	1.1
323.15	55020	1389.3	1.2
323.15	59960	1392.2	1.2
323.15	65000	1395	1.3
323.15	100	1350.3	0.6
323.15	10010	1358.5	0.7
328.15	100	1345.7	0.6
328.15	2500	1347.8	0.7
328.15	5020	1350	0.7
328.15	10020	1354.2	0.7
328.15	15020	1358.2	0.7
328.15	20010	1362	0.8
328.15	25050	1365.7	0.8
328.15	30010	1369.3	0.9
328.15	34990	1372.8	0.9
328.15	40010	1376.1	1
328.15	45020	1379.4	1
328.15	49990	1382.5	1.1
328.15	55020	1385.5	1.2
328.15	59970	1388.4	1.2
328.15	65020	1391.2	1.3
328.15	100	1345.7	0.6
333.15	100	1341	0.6
333.15	2500	1343.2	0.7
333.15	5020	1345.4	0.7
333.15	10010	1349.7	0.7
333.15	15020	1353.7	0.7
333.15	20010	1357.7	0.8
333.15	25010	1361.5	0.8
333.15	30000	1365.2	0.9
333.15	35020	1368.7	0.9
333.15	40010	1372.1	1
333.15	45080	1375.4	1
333.15	50010	1378.6	1.1
333.15	55020	1381.6	1.2
333.15	59980	1384.5	1.2
333.15	65020	1387.3	1.3
333.15	100	1341	0.6
338.15	100	1336.2	0.6
338.15	2500	1338.4	0.7
338.15	5020	1340.7	0.7
338.15	5030	1340.8	0.7
338.15	10040	1345.1	0.7
338.15	15020	1349.4	0.7
338.15	15030	1349.4	0.7
338.15	20010	1353.4	0.8
338.15	25020	1357.3	0.8
338.15	30010	1361	0.9
338.15	35020	1364.6	0.9
338.15	40010	1368.1	1
338.15	45020	1371.4	1
338.15	49990	1374.6	1.1
338.15	55020	1377.7	1.2
338.15	59970	1380.6	1.2
338.15	65020	1383.4	1.3
