Measured thermophysical data. Solubilities of Triptycene, 9-Phenylanthracene, 9,10-Dimethylanthracene, and 2-Methylanthracene in Pressurized Hot Water at Temperatures from 313 K to the Melting Point
Source: J. Chem. Eng. Data, 2008, 10.1021/je700447m
Compound 1: 9,10-dimethylanthracene, C16H14, InChI=1S/C16H14/c1-11-13-7-3-5-9-15(13)12(2)16-10-6-4-8-14(11)16/h3-10H,1-2H3
Compound 2: 9-phenylanthracene, C20H14, InChI=1S/C20H14/c1-2-8-15(9-3-1)20-18-12-6-4-10-16(18)14-17-11-5-7-13-19(17)20/h1-14H
Compound 3: tribenzobicyclo[2.2.2]octatriene, C20H14, InChI=1S/C20H14/c1-2-8-14-13(7-1)19-15-9-3-5-11-17(15)20(14)18-12-6-4-10-16(18)19/h1-12,19-20H
Compound 4: 2-methylanthracene, C15H12, InChI=1S/C15H12/c1-11-6-7-14-9-12-4-2-3-5-13(12)10-15(14)8-11/h2-10H,1H3
Compound 5: water, H2O, InChI=1S/H2O/h1H2

System: 9,10-dimethylanthracene + water; phases: Liquid, Crystal
Property: Mole fraction of 9,10-dimethylanthracene (Liquid); method: Chromatography
Temperature, K	Pressure, kPa	Mole fraction of 9,10-dimethylanthracene	uncertainty
313.2	5300	3.27e-09	3.27e-09
333.2	5100	1.07e-08	1.1e-09
353.2	5000	4.1e-08	4e-09
373.2	5000	1.38e-07	1.4e-08
393.2	5000	5.07e-07	5.3e-08
413.2	5000	1.71e-06	1.78e-07
433.2	5000	5.28e-06	5.45e-07
448.2	5200	1.24e-05	1.276e-06

System: 9-phenylanthracene + water; phases: Liquid, Crystal
Property: Mole fraction of 9-phenylanthracene (Liquid); method: Chromatography
Temperature, K	Pressure, kPa	Mole fraction of 9-phenylanthracene	uncertainty
313.2	5100	7.57e-10	2.03e-10
333.2	5000	3.44e-09	3.7e-10
353.2	5000	1.16e-08	1.3e-09
373.2	5100	4.07e-08	4.3e-09
393.2	5000	1.71e-07	1.9e-08
413.2	5000	6.71e-07	7e-08
423.2	5000	1.2e-06	1.4e-07

System: tribenzobicyclo[2.2.2]octatriene + water; phases: Liquid, Crystal
Property: Mole fraction of tribenzobicyclo[2.2.2]octatriene (Liquid); method: Chromatography
Temperature, K	Pressure, kPa	Mole fraction of tribenzobicyclo[2.2.2]octatriene	uncertainty
313.2	5100	7.57e-09	7.9e-10
333.2	5200	2.03e-08	2.1e-09
353.2	5000	6.02e-08	6.4e-09
373.2	5000	1.79e-07	1.9e-08
393.2	5000	5.26e-07	5.5e-08
413.2	5000	1.77e-06	1.95e-07
433.2	5300	5.78e-06	6.03e-07
453.2	5000	1.81e-05	1.891e-06
473.2	5100	5.91e-05	6.218e-06
493.2	5000	0.000174	1.8527e-05
513.2	5000	0.000539	5.6386e-05

System: 2-methylanthracene + water; phases: Liquid, Crystal
Property: Mole fraction of 2-methylanthracene (Liquid); method: Chromatography
Temperature, K	Pressure, kPa	Mole fraction of 2-methylanthracene	uncertainty
313.2	6400	5.23e-09	2.16e-09
333.2	5100	1.86e-08	5.7e-09
353.2	5000	6.43e-08	2.21e-08
373.2	5100	2.56e-07	1.04e-07
393.2	5100	8.33e-07	8.6e-08
413.2	5100	2.45e-06	2.45e-06
433.2	5400	7.73e-06	2.899e-06
453.2	5600	3.06e-05	2.3084e-05
