Measured thermophysical data. Temperature Dependence of the Volumetric Properties of Binary and Ternary Mixtures of Water (1) + Methanol (2) + Ethanol (3) at Ambient Pressure (81.5 kPa)
Source: J. Chem. Eng. Data, 2007, 10.1021/je700300y
Compound 1: water, H2O, InChI=1S/H2O/h1H2
Compound 2: methanol, CH4O, InChI=1S/CH4O/c1-2/h2H,1H3
Compound 3: ethanol, C2H6O, InChI=1S/C2H6O/c1-2-3/h3H,2H2,1H3

System: water; phases: Liquid
Property: Refractive index (Na D-line) (Liquid); method: Standard Abbe refractometry
Temperature, K	Pressure, kPa	Refractive index (Na D-line)	uncertainty
298.15	101.325	1.3326	0.0007

System: methanol; phases: Liquid
Property: Refractive index (Na D-line) (Liquid); method: Standard Abbe refractometry
Temperature, K	Pressure, kPa	Refractive index (Na D-line)	uncertainty
298.15	101.325	1.327	0.0007

System: methanol; phases: Liquid
Fixed: Pressure, kPa = 101.325
Property: Mass density, kg/m3 (Liquid); method: VIBTUB:UFactor:2
Temperature, K	Mass density, kg/m3	uncertainty
283.15	800.67	0.23
288.15	795.98	0.23
293.15	791.28	0.23
298.15	786.57	0.24
303.15	781.85	0.24
308.15	777.1	0.25
313.15	772.32	0.25

System: ethanol; phases: Liquid
Property: Refractive index (Na D-line) (Liquid); method: Standard Abbe refractometry
Temperature, K	Pressure, kPa	Refractive index (Na D-line)	uncertainty
298.15	101.325	1.3595	0.0007

System: ethanol; phases: Liquid
Fixed: Pressure, kPa = 101.325
Property: Mass density, kg/m3 (Liquid); method: VIBTUB:UFactor:2
Temperature, K	Mass density, kg/m3	uncertainty
283.15	797.99	0.23
288.15	793.73	0.23
293.15	789.47	0.24
298.15	785.18	0.24
303.15	780.87	0.24
308.15	776.52	0.25
313.15	772.14	0.25

System: methanol + water; phases: Liquid
Fixed: Pressure, kPa = 101
Property: Mass density, kg/m3 (Liquid); method: VIBTUB:UFactor:2
Temperature, K	Mole fraction of water	Mass density, kg/m3	uncertainty
283.15	0.0871	814.96	0.21
283.15	0.1529	826.26	0.2
283.15	0.2395	841.8	0.19
283.15	0.3306	859.01	0.18
283.15	0.4064	873.83	0.17
283.15	0.4788	888.32	0.16
283.15	0.5552	904.06	0.14
283.15	0.6365	921.03	0.13
283.15	0.7321	941.06	0.12
283.15	0.7901	952.73	0.11
283.15	0.8807	970.64	0.09
283.15	0.964	988.96	0.08
288.15	0.0871	810.44	0.22
288.15	0.1529	821.86	0.21
288.15	0.2395	837.53	0.2
288.15	0.3306	854.89	0.18
288.15	0.4064	869.85	0.17
288.15	0.4788	884.5	0.16
288.15	0.5552	900.44	0.15
288.15	0.6365	917.69	0.13
288.15	0.7321	938.2	0.12
288.15	0.7901	950.29	0.11
288.15	0.8807	969.11	0.09
288.15	0.964	988.25	0.08
293.15	0.0871	805.91	0.22
293.15	0.1529	817.44	0.21
293.15	0.2395	833.23	0.2
293.15	0.3306	850.73	0.19
293.15	0.4064	865.81	0.17
293.15	0.4788	880.62	0.16
293.15	0.5552	896.75	0.15
293.15	0.6365	914.28	0.14
293.15	0.7321	935.24	0.12
293.15	0.7901	947.7	0.11
293.15	0.8807	967.39	0.1
293.15	0.964	987.25	0.08
298.15	0.0871	801.35	0.22
298.15	0.1529	812.99	0.21
298.15	0.2395	828.9	0.2
298.15	0.3306	846.53	0.19
298.15	0.4064	861.73	0.18
298.15	0.4788	876.68	0.17
298.15	0.5552	893	0.15
298.15	0.6365	910.78	0.14
298.15	0.7321	932.18	0.12
298.15	0.7901	945	0.11
298.15	0.8807	965.47	0.1
298.15	0.964	986	0.08
303.15	0.0871	796.78	0.23
303.15	0.1529	808.5	0.22
303.15	0.2395	824.53	0.21
303.15	0.3306	842.28	0.19
303.15	0.4064	857.59	0.18
303.15	0.4788	872.67	0.17
303.15	0.5552	889.17	0.16
303.15	0.6365	907.2	0.14
303.15	0.7321	929.02	0.13
303.15	0.7901	942.19	0.12
303.15	0.8807	963.37	0.1
303.15	0.964	984.5	0.08
308.15	0.0871	792.17	0.23
308.15	0.1529	803.98	0.22
308.15	0.2395	820.11	0.21
308.15	0.3306	837.98	0.2
308.15	0.4064	853.4	0.18
308.15	0.4788	868.59	0.17
308.15	0.5552	885.26	0.16
308.15	0.6365	903.52	0.14
308.15	0.7321	925.74	0.13
308.15	0.7901	939.27	0.12
308.15	0.8807	961.09	0.1
308.15	0.964	982.79	0.08
313.15	0.0871	787.52	0.23
313.15	0.1529	799.41	0.22
313.15	0.2395	815.64	0.21
313.15	0.3306	833.61	0.2
313.15	0.4064	849.13	0.19
313.15	0.4788	864.45	0.17
313.15	0.5552	881.28	0.16
313.15	0.6365	899.76	0.15
313.15	0.7321	922.36	0.13
313.15	0.7901	936.09	0.12
313.15	0.8807	958.65	0.1
313.15	0.964	980.87	0.09

System: ethanol + water; phases: Liquid
Fixed: Pressure, kPa = 101
Property: Mass density, kg/m3 (Liquid); method: VIBTUB:UFactor:2
Temperature, K	Mole fraction of water	Mass density, kg/m3	uncertainty
283.15	0.0805	808.05	0.22
283.15	0.1584	818.14	0.21
283.15	0.2376	828.89	0.2
283.15	0.3322	842.93	0.19
283.15	0.4026	854.12	0.18
283.15	0.491	869.86	0.17
283.15	0.5806	888.19	0.16
283.15	0.648	903.57	0.15
283.15	0.7185	921.65	0.13
283.15	0.8009	944.6	0.11
283.15	0.8813	965.96	0.1
283.15	0.9605	984.04	0.08
288.15	0.0805	803.79	0.22
288.15	0.1584	813.87	0.21
288.15	0.2376	824.61	0.21
288.15	0.3322	838.67	0.19
288.15	0.4026	849.89	0.19
288.15	0.491	865.67	0.17
288.15	0.5806	884.08	0.16
288.15	0.648	899.55	0.15
288.15	0.7185	917.78	0.13
288.15	0.8009	941.07	0.12
288.15	0.8813	963.49	0.1
288.15	0.9605	983.11	0.08
293.15	0.0805	799.51	0.22
293.15	0.1584	809.57	0.22
293.15	0.2376	820.29	0.21
293.15	0.3322	834.37	0.2
293.15	0.4026	845.61	0.19
293.15	0.491	861.44	0.18
293.15	0.5806	879.93	0.16
293.15	0.648	895.48	0.15
293.15	0.7185	913.84	0.14
293.15	0.8009	937.48	0.12
293.15	0.8813	960.85	0.1
293.15	0.9605	981.89	0.08
298.15	0.0805	795.19	0.23
298.15	0.1584	805.23	0.22
298.15	0.2376	815.93	0.21
298.15	0.3322	830.01	0.2
298.15	0.4026	841.27	0.19
298.15	0.491	857.16	0.18
298.15	0.5806	875.71	0.17
298.15	0.648	891.35	0.15
298.15	0.7185	909.85	0.14
298.15	0.8009	933.81	0.12
298.15	0.8813	958.06	0.1
298.15	0.9605	980.42	0.09
303.15	0.0805	790.85	0.23
303.15	0.1584	800.84	0.22
303.15	0.2376	811.53	0.22
303.15	0.3322	825.61	0.2
303.15	0.4026	836.89	0.2
303.15	0.491	852.81	0.18
303.15	0.5806	871.44	0.17
303.15	0.648	887.16	0.16
303.15	0.7185	905.8	0.14
303.15	0.8009	930.07	0.12
303.15	0.8813	955.13	0.11
303.15	0.9605	978.75	0.09
308.15	0.0805	786.45	0.23
308.15	0.1584	796.41	0.23
308.15	0.2376	807.07	0.22
308.15	0.3322	821.15	0.21
308.15	0.4026	832.45	0.2
308.15	0.491	848.4	0.19
308.15	0.5806	867.11	0.17
308.15	0.648	882.91	0.16
308.15	0.7185	901.68	0.15
308.15	0.8009	926.25	0.13
308.15	0.8813	952.05	0.11
308.15	0.9605	976.91	0.09
313.15	0.0805	782.01	0.24
313.15	0.1584	791.93	0.23
313.15	0.2376	802.5	0.22
313.15	0.3322	816.63	0.21
313.15	0.4026	827.94	0.2
313.15	0.491	843.95	0.19
313.15	0.5806	862.72	0.18
313.15	0.648	878.59	0.16
313.15	0.7185	897.49	0.15
313.15	0.8009	922.34	0.13
313.15	0.8813	948.82	0.11
313.15	0.9605	974.89	0.09

System: ethanol + methanol; phases: Liquid
Fixed: Pressure, kPa = 101
Property: Mass density, kg/m3 (Liquid); method: VIBTUB:UFactor:2
Temperature, K	Mole fraction of methanol	Mass density, kg/m3	uncertainty
283.15	0.0729	798.11	0.23
283.15	0.1632	798.27	0.23
283.15	0.3251	798.58	0.23
283.15	0.5592	799.14	0.22
283.15	0.6349	799.35	0.22
283.15	0.7182	799.6	0.22
283.15	0.8027	799.88	0.22
283.15	0.8714	800.12	0.22
283.15	0.9485	800.43	0.22
288.15	0.0729	793.83	0.23
288.15	0.1632	793.97	0.23
288.15	0.3251	794.22	0.23
288.15	0.5592	794.68	0.23
288.15	0.6349	794.85	0.23
288.15	0.7182	795.07	0.23
288.15	0.8027	795.3	0.23
288.15	0.8714	795.51	0.23
288.15	0.9485	795.78	0.23
293.15	0.0729	789.54	0.23
293.15	0.1632	789.64	0.23
293.15	0.3251	789.84	0.23
293.15	0.5592	790.2	0.23
293.15	0.6349	790.34	0.23
293.15	0.7182	790.52	0.23
293.15	0.8027	790.71	0.23
293.15	0.8714	790.89	0.23
293.15	0.9485	791.1	0.23
298.15	0.0729	785.23	0.24
298.15	0.1632	785.3	0.24
298.15	0.3251	785.44	0.24
298.15	0.5592	785.7	0.24
298.15	0.6349	785.81	0.24
298.15	0.7182	785.95	0.24
298.15	0.8027	786.11	0.23
298.15	0.8714	786.25	0.23
298.15	0.9485	786.43	0.23
303.15	0.0729	780.89	0.24
303.15	0.1632	780.94	0.24
303.15	0.3251	781.02	0.24
303.15	0.5592	781.19	0.24
303.15	0.6349	781.26	0.24
303.15	0.7182	781.36	0.24
303.15	0.8027	781.49	0.24
303.15	0.8714	781.59	0.24
303.15	0.9485	781.73	0.24
308.15	0.0729	776.52	0.24
308.15	0.1632	776.54	0.24
308.15	0.3251	776.57	0.24
308.15	0.5592	776.65	0.24
308.15	0.6349	776.69	0.24
308.15	0.7182	776.76	0.24
308.15	0.8027	776.84	0.24
308.15	0.8714	776.9	0.24
308.15	0.9485	777.01	0.24
313.15	0.0729	772.12	0.25
313.15	0.1632	772.11	0.25
313.15	0.3251	772.09	0.25
313.15	0.5592	772.08	0.25
313.15	0.6349	772.09	0.25
313.15	0.7182	772.12	0.25
313.15	0.8027	772.16	0.25
313.15	0.8714	772.19	0.25
313.15	0.9485	772.26	0.25

System: ethanol + methanol + water; phases: Liquid
Fixed: Pressure, kPa = 101
Property: Mass density, kg/m3 (Liquid); method: VIBTUB:UFactor:2
Temperature, K	Mole fraction of water	Mole fraction of methanol	Mass density, kg/m3	uncertainty
283.15	0.0958	0.5537	815.17	0.21
283.15	0.097	0.8004	815.87	0.21
283.15	0.0978	0.2942	812.18	0.21
283.15	0.0988	0.4034	812.9	0.21
283.15	0.1009	0.1993	811.78	0.22
283.15	0.1011	0.4997	813.91	0.21
283.15	0.1017	0.1046	811.4	0.22
283.15	0.1037	0.6967	816.02	0.21
283.15	0.1987	0.1944	825.86	0.2
283.15	0.1988	0.6013	831.32	0.2
283.15	0.1997	0.6973	833	0.2
283.15	0.2003	0.397	828.84	0.2
283.15	0.2022	0.4979	830.57	0.2
283.15	0.2031	0.1009	825.36	0.2
283.15	0.2071	0.2954	828.49	0.2
283.15	0.265	0.2062	836.26	0.2
283.15	0.2851	0.4041	843.51	0.19
283.15	0.2997	0.4995	848.36	0.19
283.15	0.3004	0.1002	839.93	0.19
283.15	0.3019	0.2952	844.18	0.19
283.15	0.302	0.6039	851.26	0.18
283.15	0.3787	0.2286	856.44	0.18
283.15	0.3906	0.301	860.92	0.18
283.15	0.3943	0.0984	855.57	0.18
283.15	0.3959	0.5113	868.77	0.17
283.15	0.398	0.4012	865.59	0.17
283.15	0.496	0.4083	887.92	0.16
283.15	0.4974	0.0976	875.3	0.17
283.15	0.5047	0.2974	885.15	0.16
283.15	0.5062	0.2068	881.52	0.16
283.15	0.605	0.1015	899.08	0.15
283.15	0.6072	0.2977	910.32	0.14
283.15	0.6079	0.1941	904.99	0.14
283.15	0.7117	0.1949	932.23	0.12
283.15	0.712	0.0923	926.05	0.13
283.15	0.8023	0.1009	951.08	0.11
288.15	0.0958	0.5537	810.76	0.22
288.15	0.097	0.8004	811.41	0.22
288.15	0.0978	0.2942	807.85	0.22
288.15	0.0988	0.4034	808.56	0.22
288.15	0.1009	0.1993	807.47	0.22
288.15	0.1011	0.4997	809.57	0.22
288.15	0.1017	0.1046	807.12	0.22
288.15	0.1037	0.6967	811.59	0.22
288.15	0.1987	0.1944	821.57	0.21
288.15	0.1988	0.6013	826.99	0.2
288.15	0.1997	0.6973	828.66	0.2
288.15	0.2003	0.397	824.52	0.21
288.15	0.2022	0.4979	826.25	0.2
288.15	0.2031	0.1009	821.08	0.21
288.15	0.2071	0.2954	824.18	0.21
288.15	0.265	0.2062	831.98	0.2
288.15	0.2851	0.4041	839.24	0.19
288.15	0.2997	0.4995	844.13	0.19
288.15	0.3004	0.1002	835.65	0.2
288.15	0.3019	0.2952	839.92	0.19
288.15	0.302	0.6039	847.06	0.19
288.15	0.3787	0.2286	852.21	0.18
288.15	0.3906	0.301	856.73	0.18
288.15	0.3943	0.0984	851.34	0.18
288.15	0.3959	0.5113	864.7	0.17
288.15	0.398	0.4012	861.45	0.18
288.15	0.496	0.4083	884	0.16
288.15	0.4974	0.0976	871.2	0.17
288.15	0.5047	0.2974	881.13	0.16
288.15	0.5062	0.2068	877.43	0.16
288.15	0.605	0.1015	895.09	0.15
288.15	0.6072	0.2977	906.66	0.14
288.15	0.6079	0.1941	901.11	0.15
288.15	0.7117	0.1949	928.85	0.13
288.15	0.712	0.0923	922.34	0.13
288.15	0.8023	0.1009	948.13	0.11
293.15	0.0958	0.5537	806.34	0.22
293.15	0.097	0.8004	806.93	0.22
293.15	0.0978	0.2942	803.5	0.22
293.15	0.0988	0.4034	804.18	0.22
293.15	0.1009	0.1993	803.14	0.22
293.15	0.1011	0.4997	805.17	0.22
293.15	0.1017	0.1046	802.81	0.22
293.15	0.1037	0.6967	807.14	0.22
293.15	0.1987	0.1944	817.24	0.21
293.15	0.1988	0.6013	822.63	0.21
293.15	0.1997	0.6973	824.3	0.21
293.15	0.2003	0.397	820.17	0.21
293.15	0.2022	0.4979	821.9	0.21
293.15	0.2031	0.1009	816.76	0.21
293.15	0.2071	0.2954	819.84	0.21
293.15	0.265	0.2062	827.66	0.2
293.15	0.2851	0.4041	834.94	0.2
293.15	0.2997	0.4995	839.85	0.19
293.15	0.3004	0.1002	831.34	0.2
293.15	0.3019	0.2952	835.61	0.2
293.15	0.302	0.6039	842.82	0.19
293.15	0.3787	0.2286	847.94	0.19
293.15	0.3906	0.301	852.49	0.18
293.15	0.3943	0.0984	847.06	0.19
293.15	0.3959	0.5113	860.57	0.18
293.15	0.398	0.4012	857.26	0.18
293.15	0.496	0.4083	880.01	0.16
293.15	0.4974	0.0976	867	0.17
293.15	0.5047	0.2974	877.05	0.17
293.15	0.5062	0.2068	873.28	0.17
293.15	0.605	0.1015	891.03	0.15
293.15	0.6072	0.2977	902.9	0.15
293.15	0.6079	0.1941	897.17	0.15
293.15	0.7117	0.1949	925.39	0.13
293.15	0.712	0.0923	918.57	0.13
293.15	0.8023	0.1009	945.08	0.11
298.15	0.0958	0.5537	801.89	0.22
298.15	0.097	0.8004	802.42	0.22
298.15	0.0978	0.2942	799.12	0.22
298.15	0.0988	0.4034	799.78	0.22
298.15	0.1009	0.1993	798.78	0.23
298.15	0.1011	0.4997	800.75	0.22
298.15	0.1017	0.1046	798.46	0.23
298.15	0.1037	0.6967	802.67	0.22
298.15	0.1987	0.1944	812.87	0.21
298.15	0.1988	0.6013	818.24	0.21
298.15	0.1997	0.6973	819.91	0.21
298.15	0.2003	0.397	815.79	0.21
298.15	0.2022	0.4979	817.51	0.21
298.15	0.2031	0.1009	812.4	0.21
298.15	0.2071	0.2954	815.47	0.21
298.15	0.265	0.2062	823.3	0.21
298.15	0.2851	0.4041	830.59	0.2
298.15	0.2997	0.4995	835.53	0.2
298.15	0.3004	0.1002	826.98	0.2
298.15	0.3019	0.2952	831.26	0.2
298.15	0.302	0.6039	838.53	0.19
298.15	0.3787	0.2286	843.63	0.19
298.15	0.3906	0.301	848.2	0.19
298.15	0.3943	0.0984	842.73	0.19
298.15	0.3959	0.5113	856.4	0.18
298.15	0.398	0.4012	853.02	0.18
298.15	0.496	0.4083	875.97	0.17
298.15	0.4974	0.0976	862.74	0.18
298.15	0.5047	0.2974	872.92	0.17
298.15	0.5062	0.2068	869.09	0.17
298.15	0.605	0.1015	886.91	0.16
298.15	0.6072	0.2977	899.06	0.15
298.15	0.6079	0.1941	893.16	0.15
298.15	0.7117	0.1949	921.84	0.13
298.15	0.712	0.0923	914.72	0.14
298.15	0.8023	0.1009	941.91	0.12
303.15	0.0958	0.5537	797.41	0.23
303.15	0.097	0.8004	797.89	0.23
303.15	0.0978	0.2942	794.71	0.23
303.15	0.0988	0.4034	795.34	0.23
303.15	0.1009	0.1993	794.39	0.23
303.15	0.1011	0.4997	796.29	0.23
303.15	0.1017	0.1046	794.09	0.23
303.15	0.1037	0.6967	798.17	0.23
303.15	0.1987	0.1944	808.46	0.22
303.15	0.1988	0.6013	813.8	0.21
303.15	0.1997	0.6973	815.48	0.21
303.15	0.2003	0.397	811.37	0.22
303.15	0.2022	0.4979	813.09	0.21
303.15	0.2031	0.1009	808	0.22
303.15	0.2071	0.2954	811.05	0.22
303.15	0.265	0.2062	818.88	0.21
303.15	0.2851	0.4041	826.2	0.2
303.15	0.2997	0.4995	831.16	0.2
303.15	0.3004	0.1002	822.57	0.21
303.15	0.3019	0.2952	826.87	0.2
303.15	0.302	0.6039	834.2	0.2
303.15	0.3787	0.2286	839.27	0.19
303.15	0.3906	0.301	843.86	0.19
303.15	0.3943	0.0984	838.35	0.19
303.15	0.3959	0.5113	852.17	0.18
303.15	0.398	0.4012	848.72	0.19
303.15	0.496	0.4083	871.87	0.17
303.15	0.4974	0.0976	858.43	0.18
303.15	0.5047	0.2974	868.72	0.17
303.15	0.5062	0.2068	864.83	0.17
303.15	0.605	0.1015	882.74	0.16
303.15	0.6072	0.2977	895.16	0.15
303.15	0.6079	0.1941	889.08	0.16
303.15	0.7117	0.1949	918.21	0.13
303.15	0.712	0.0923	910.81	0.14
303.15	0.8023	0.1009	938.64	0.12
308.15	0.0958	0.5537	792.9	0.23
308.15	0.097	0.8004	793.33	0.23
308.15	0.0978	0.2942	790.26	0.23
308.15	0.0988	0.4034	790.87	0.23
308.15	0.1009	0.1993	789.95	0.23
308.15	0.1011	0.4997	791.8	0.23
308.15	0.1017	0.1046	789.67	0.23
308.15	0.1037	0.6967	793.63	0.23
308.15	0.1987	0.1944	804	0.22
308.15	0.1988	0.6013	809.33	0.22
308.15	0.1997	0.6973	811.01	0.22
308.15	0.2003	0.397	806.89	0.22
308.15	0.2022	0.4979	808.62	0.22
308.15	0.2031	0.1009	803.55	0.22
308.15	0.2071	0.2954	806.6	0.22
308.15	0.265	0.2062	814.43	0.21
308.15	0.2851	0.4041	821.76	0.21
308.15	0.2997	0.4995	826.75	0.2
308.15	0.3004	0.1002	818.11	0.21
308.15	0.3019	0.2952	822.43	0.21
308.15	0.302	0.6039	829.82	0.2
308.15	0.3787	0.2286	834.85	0.2
308.15	0.3906	0.301	839.46	0.19
308.15	0.3943	0.0984	833.92	0.2
308.15	0.3959	0.5113	847.88	0.19
308.15	0.398	0.4012	844.37	0.19
308.15	0.496	0.4083	867.7	0.17
308.15	0.4974	0.0976	854.07	0.18
308.15	0.5047	0.2974	864.46	0.17
308.15	0.5062	0.2068	860.52	0.18
308.15	0.605	0.1015	878.49	0.16
308.15	0.6072	0.2977	891.17	0.15
308.15	0.6079	0.1941	884.94	0.16
308.15	0.7117	0.1949	914.49	0.14
308.15	0.712	0.0923	906.82	0.14
308.15	0.8023	0.1009	935.25	0.12
313.15	0.0958	0.5537	788.34	0.23
313.15	0.097	0.8004	788.72	0.23
313.15	0.0978	0.2942	785.77	0.24
313.15	0.0988	0.4034	786.36	0.23
313.15	0.1009	0.1993	785.48	0.24
313.15	0.1011	0.4997	787.26	0.23
313.15	0.1017	0.1046	785.2	0.24
313.15	0.1037	0.6967	789.05	0.23
313.15	0.1987	0.1944	799.49	0.22
313.15	0.1988	0.6013	804.81	0.22
313.15	0.1997	0.6973	806.49	0.22
313.15	0.2003	0.397	802.38	0.22
313.15	0.2022	0.4979	804.1	0.22
313.15	0.2031	0.1009	799.04	0.22
313.15	0.2071	0.2954	802.08	0.22
313.15	0.265	0.2062	809.91	0.22
313.15	0.2851	0.4041	817.27	0.21
313.15	0.2997	0.4995	822.29	0.21
313.15	0.3004	0.1002	813.6	0.21
313.15	0.3019	0.2952	817.92	0.21
313.15	0.302	0.6039	825.37	0.2
313.15	0.3787	0.2286	830.36	0.2
313.15	0.3906	0.301	835.01	0.2
313.15	0.3943	0.0984	829.42	0.2
313.15	0.3959	0.5113	843.52	0.19
313.15	0.398	0.4012	839.96	0.19
313.15	0.496	0.4083	863.46	0.18
313.15	0.4974	0.0976	849.63	0.19
313.15	0.5047	0.2974	860.14	0.18
313.15	0.5062	0.2068	856.14	0.18
313.15	0.605	0.1015	874.19	0.17
313.15	0.6072	0.2977	887.11	0.16
313.15	0.6079	0.1941	880.73	0.16
313.15	0.7117	0.1949	910.69	0.14
313.15	0.712	0.0923	902.76	0.15
313.15	0.8023	0.1009	931.76	0.12
