Measured thermophysical data. Excess Volumes of Binary Solutions of Methyl Formate, Ethyl Formate, Propyl Formate, and Benzyl Acetate with Bromo-, Chloro-, and Nitrobenzenes at (303.15, 308.15, and 313.15) K
Source: J. Chem. Eng. Data, 2008, 10.1021/je700150e
Compound 1: methyl methanoate, C2H4O2, InChI=1S/C2H4O2/c1-4-2-3/h2H,1H3, purity 99%
Compound 2: ethyl methanoate, C3H6O2, InChI=1S/C3H6O2/c1-2-5-3-4/h3H,2H2,1H3, purity 99%
Compound 3: propyl methanoate, C4H8O2, InChI=1S/C4H8O2/c1-2-3-6-4-5/h4H,2-3H2,1H3, purity 99%
Compound 4: benzyl ethanoate, C9H10O2, InChI=1S/C9H10O2/c1-8(10)11-7-9-5-3-2-4-6-9/h2-6H,7H2,1H3, purity 99%
Compound 5: chlorobenzene, C6H5Cl, InChI=1S/C6H5Cl/c7-6-4-2-1-3-5-6/h1-5H
Compound 6: bromobenzene, C6H5Br, InChI=1S/C6H5Br/c7-6-4-2-1-3-5-6/h1-5H
Compound 7: nitrobenzene, C6H5NO2, InChI=1S/C6H5NO2/c8-7(9)6-4-2-1-3-5-6/h1-5H

System: methyl methanoate; phases: Liquid
Property: Refractive index (Na D-line) (Liquid); method: Standard Abbe refractometry
Temperature, K	Pressure, kPa	Refractive index (Na D-line)	uncertainty
303.15	101.325	1.3393	0.0006

System: methyl methanoate; phases: Liquid
Fixed: Pressure, kPa = 101.325
Property: Mass density, kg/m3 (Liquid); method: VIBTUB:UFactor:6
Temperature, K	Mass density, kg/m3	uncertainty
303.15	958.8	0.6
308.15	950.6	0.6
313.15	943.1	0.6

System: ethyl methanoate; phases: Liquid
Property: Refractive index (Na D-line) (Liquid); method: Standard Abbe refractometry
Temperature, K	Pressure, kPa	Refractive index (Na D-line)	uncertainty
303.15	101.325	1.3552	0.0006

System: ethyl methanoate; phases: Liquid
Fixed: Pressure, kPa = 101.325
Property: Mass density, kg/m3 (Liquid); method: VIBTUB:UFactor:6
Temperature, K	Mass density, kg/m3	uncertainty
303.15	908.3	0.7
308.15	901.5	0.8
313.15	894.8	0.8

System: propyl methanoate; phases: Liquid
Property: Refractive index (Na D-line) (Liquid); method: Standard Abbe refractometry
Temperature, K	Pressure, kPa	Refractive index (Na D-line)	uncertainty
303.15	101.325	1.3726	0.0006

System: propyl methanoate; phases: Liquid
Fixed: Pressure, kPa = 101.325
Property: Mass density, kg/m3 (Liquid); method: VIBTUB:UFactor:6
Temperature, K	Mass density, kg/m3	uncertainty
303.15	894.2	0.8
308.15	888.5	0.8
313.15	882.8	0.8

System: benzyl ethanoate; phases: Liquid
Property: Refractive index (Na D-line) (Liquid); method: Standard Abbe refractometry
Temperature, K	Pressure, kPa	Refractive index (Na D-line)	uncertainty
303.15	101.325	1.4997	0.0006

System: benzyl ethanoate; phases: Liquid
Fixed: Pressure, kPa = 101.325
Property: Mass density, kg/m3 (Liquid); method: VIBTUB:UFactor:6
Temperature, K	Mass density, kg/m3	uncertainty
303.15	1048.4	0.7
308.15	1045	0.7
313.15	1041.7	0.6

System: chlorobenzene; phases: Liquid
Property: Refractive index (Na D-line) (Liquid); method: Standard Abbe refractometry
Temperature, K	Pressure, kPa	Refractive index (Na D-line)	uncertainty
303.15	101.325	1.5191	0.0006

System: chlorobenzene; phases: Liquid
Fixed: Pressure, kPa = 101.325
Property: Mass density, kg/m3 (Liquid); method: VIBTUB:UFactor:6
Temperature, K	Mass density, kg/m3	uncertainty
303.15	1095.6	0.8
308.15	1090.7	0.8
313.15	1085.2	0.8

System: bromobenzene; phases: Liquid
Property: Refractive index (Na D-line) (Liquid); method: Standard Abbe refractometry
Temperature, K	Pressure, kPa	Refractive index (Na D-line)	uncertainty
303.15	101.325	1.5546	0.0006

System: bromobenzene; phases: Liquid
Fixed: Pressure, kPa = 101.325
Property: Mass density, kg/m3 (Liquid); method: VIBTUB:UFactor:6
Temperature, K	Mass density, kg/m3	uncertainty
303.15	1481.4	2.3
308.15	1474.8	2.2
313.15	1468	2.2

System: nitrobenzene; phases: Liquid
Property: Refractive index (Na D-line) (Liquid); method: Standard Abbe refractometry
Temperature, K	Pressure, kPa	Refractive index (Na D-line)	uncertainty
303.15	101.325	1.5476	0.0006

System: nitrobenzene; phases: Liquid
Fixed: Pressure, kPa = 101.325
Property: Mass density, kg/m3 (Liquid); method: VIBTUB:UFactor:6
Temperature, K	Mass density, kg/m3	uncertainty
303.15	1193.4	1.2
308.15	1188.5	1.2
313.15	1183.5	1.2

System: methyl methanoate + chlorobenzene; phases: Liquid
Fixed: Pressure, kPa = 101
Property: Mass density, kg/m3 (Liquid); method: VIBTUB:UFactor:6
Temperature, K	Mole fraction of methyl methanoate	Mass density, kg/m3	uncertainty
303.15	0.0724	1089.8	0.8
303.15	0.1523	1082.8	0.8
303.15	0.299	1068.3	0.8
303.15	0.4093	1056.1	0.8
303.15	0.5185	1042.6	0.8
303.15	0.5906	1032.8	0.7
303.15	0.7079	1015.2	0.7
303.15	0.7933	1000.8	0.7
303.15	0.8669	987.1	0.7
303.15	0.9356	973.2	0.7
303.15	0.9646	966.9	0.7
308.15	0.0724	1084.8	0.8
308.15	0.1523	1077.6	0.8
308.15	0.299	1062.7	0.8
308.15	0.4093	1050.1	0.8
308.15	0.5185	1036.3	0.8
308.15	0.5906	1026.4	0.7
308.15	0.7079	1008.3	0.7
308.15	0.7933	993.6	0.7
308.15	0.8669	979.7	0.7
308.15	0.9356	965.4	0.7
308.15	0.9646	958.9	0.7
313.15	0.0724	1079.3	0.8
313.15	0.1523	1072.1	0.8
313.15	0.299	1056.9	0.8
313.15	0.4093	1044.1	0.8
313.15	0.5185	1030.1	0.7
313.15	0.5906	1019.9	0.7
313.15	0.7079	1001.7	0.7
313.15	0.7933	986.9	0.7
313.15	0.8669	972.7	0.7
313.15	0.9356	958.3	0.7
313.15	0.9646	951.6	0.8

System: methyl methanoate + bromobenzene; phases: Liquid
Fixed: Pressure, kPa = 101
Property: Mass density, kg/m3 (Liquid); method: VIBTUB:UFactor:6
Temperature, K	Mole fraction of methyl methanoate	Mass density, kg/m3	uncertainty
303.15	0.0853	1454.9	1.7
303.15	0.1581	1430.4	1.6
303.15	0.288	1382.2	1.5
303.15	0.42	1326.5	1.3
303.15	0.5298	1274.3	1.2
303.15	0.6305	1220.9	1.1
303.15	0.717	1169.8	1
303.15	0.8026	1114	0.9
303.15	0.8711	1064.8	0.8
303.15	0.9384	1011.9	0.8
303.15	0.9681	986.8	0.8
308.15	0.0853	1448.4	1.7
308.15	0.1581	1423.8	1.6
308.15	0.288	1375.3	1.5
308.15	0.42	1319.3	1.3
308.15	0.5298	1266.9	1.2
308.15	0.6305	1213.5	1.1
308.15	0.717	1162.2	1
308.15	0.8026	1106.2	0.9
308.15	0.8711	1056.8	0.8
308.15	0.9384	1003.9	0.8
308.15	0.9681	978.7	0.8
313.15	0.0853	1441.8	1.6
313.15	0.1581	1417.3	1.6
313.15	0.288	1368.3	1.4
313.15	0.42	1312.2	1.3
313.15	0.5298	1259.7	1.2
313.15	0.6305	1206.1	1.1
313.15	0.717	1154.9	1
313.15	0.8026	1099	0.9
313.15	0.8711	1049.7	0.8
313.15	0.9384	996.5	0.8
313.15	0.9681	971.3	0.8

System: nitrobenzene + methyl methanoate; phases: Liquid
Fixed: Pressure, kPa = 101
Property: Mass density, kg/m3 (Liquid); method: VIBTUB:UFactor:6
Temperature, K	Mole fraction of methyl methanoate	Mass density, kg/m3	uncertainty
303.15	0.0825	1181.8	1
303.15	0.1554	1170.9	1
303.15	0.2947	1147.2	0.9
303.15	0.4138	1124.4	0.9
303.15	0.5234	1101	0.9
303.15	0.6166	1079.1	0.8
303.15	0.7119	1054.1	0.8
303.15	0.7915	1031.1	0.8
303.15	0.8682	1006.9	0.7
303.15	0.9369	982.8	0.7
303.15	0.9691	970.9	0.7
308.15	0.0825	1177.1	1
308.15	0.1554	1165.9	1
308.15	0.2947	1142	0.9
308.15	0.4138	1118.8	0.9
308.15	0.5234	1095.1	0.8
308.15	0.6166	1072.8	0.8
308.15	0.7119	1047.6	0.8
308.15	0.7915	1024.4	0.7
308.15	0.8682	999.7	0.7
308.15	0.9369	975.4	0.7
308.15	0.9691	963	0.8
313.15	0.0825	1172	1
313.15	0.1554	1160.8	1
313.15	0.2947	1136.6	0.9
313.15	0.4138	1113.2	0.9
313.15	0.5234	1089.2	0.8
313.15	0.6166	1066.7	0.8
313.15	0.7119	1041.2	0.8
313.15	0.7915	1017.7	0.7
313.15	0.8682	992.8	0.7
313.15	0.9369	968.2	0.7
313.15	0.9691	955.6	0.8

System: chlorobenzene + ethyl methanoate; phases: Liquid
Fixed: Pressure, kPa = 101
Property: Mass density, kg/m3 (Liquid); method: VIBTUB:UFactor:6
Temperature, K	Mole fraction of ethyl methanoate	Mass density, kg/m3	uncertainty
303.15	0.0611	1086.8	0.8
303.15	0.123	1077.5	0.8
303.15	0.2382	1059.4	0.8
303.15	0.3486	1041.1	0.8
303.15	0.4543	1022.5	0.7
303.15	0.5535	1004.2	0.7
303.15	0.6524	984.9	0.7
303.15	0.7443	966.1	0.7
303.15	0.8332	946.9	0.8
303.15	0.9183	927.8	0.8
303.15	0.96	917.9	0.8
308.15	0.0611	1082	0.8
308.15	0.123	1072.7	0.8
308.15	0.2382	1054.4	0.8
308.15	0.3486	1035.7	0.8
308.15	0.4543	1016.9	0.7
308.15	0.5535	998.4	0.7
308.15	0.6524	978.9	0.7
308.15	0.7443	960	0.7
308.15	0.8332	940.8	0.8
308.15	0.9183	921.4	0.8
308.15	0.96	911.3	0.8
313.15	0.0611	1076.5	0.8
313.15	0.123	1067.2	0.8
313.15	0.2382	1048.7	0.8
313.15	0.3486	1029.9	0.7
313.15	0.4543	1011	0.7
313.15	0.5535	992.4	0.7
313.15	0.6524	972.8	0.7
313.15	0.8332	934.4	0.8
313.15	0.9183	914.8	0.8
313.15	0.96	904.7	0.8

System: bromobenzene + ethyl methanoate; phases: Liquid
Fixed: Pressure, kPa = 101
Property: Mass density, kg/m3 (Liquid); method: VIBTUB:UFactor:6
Temperature, K	Mole fraction of ethyl methanoate	Mass density, kg/m3	uncertainty
303.15	0.0616	1454.2	0.9
303.15	0.1253	1425.3	0.8
303.15	0.2469	1367.6	0.8
303.15	0.3564	1312.4	0.8
303.15	0.4626	1255.6	0.8
303.15	0.5639	1198	0.7
303.15	0.6593	1140.7	0.7
303.15	0.7486	1084	0.7
303.15	0.8373	1024.8	0.7
303.15	0.9205	966.5	0.7
303.15	0.9606	937.4	0.7
308.15	0.0616	1447.7	0.8
308.15	0.1253	1418.7	0.8
308.15	0.2469	1361	0.8
308.15	0.3564	1305.6	0.8
308.15	0.4626	1248.6	0.8
308.15	0.5639	1190.9	0.7
308.15	0.6593	1133.6	0.7
308.15	0.7486	1077	0.7
308.15	0.8373	1017.6	0.7
308.15	0.9205	959.7	0.7
308.15	0.9606	930.6	0.7
313.15	0.0616	1440.9	0.8
313.15	0.1253	1411.9	0.8
313.15	0.2469	1354.1	0.8
313.15	0.3564	1298.6	0.8
313.15	0.4626	1241.5	0.8
313.15	0.5639	1183.8	0.7
313.15	0.6593	1126.6	0.7
313.15	0.7486	1070.1	0.7
313.15	0.8373	1011	0.7
313.15	0.9205	953	0.7
313.15	0.9606	923.9	0.7

System: nitrobenzene + ethyl methanoate; phases: Liquid
Fixed: Pressure, kPa = 101
Property: Mass density, kg/m3 (Liquid); method: VIBTUB:UFactor:6
Temperature, K	Mole fraction of ethyl methanoate	Mass density, kg/m3	uncertainty
303.15	0.0631	1179.5	1
303.15	0.1261	1165.1	1
303.15	0.2363	1138.9	0.9
303.15	0.353	1109.5	0.9
303.15	0.4591	1081.1	0.8
303.15	0.5495	1055.8	0.8
303.15	0.6563	1023.9	0.7
303.15	0.7459	995.8	0.7
303.15	0.8359	966.2	0.7
303.15	0.9197	937.4	0.8
303.15	0.96	922.9	0.8
308.15	0.0631	1174.7	1
308.15	0.1261	1160.3	1
308.15	0.2363	1134.1	0.9
308.15	0.353	1104.7	0.9
308.15	0.4591	1076.1	0.8
308.15	0.5495	1050.5	0.8
308.15	0.6563	1018.4	0.7
308.15	0.7459	990	0.7
308.15	0.8359	960.2	0.7
308.15	0.9197	930.8	0.8
308.15	0.96	916.3	0.8
313.15	0.0631	1170	1
313.15	0.1261	1155.8	1
313.15	0.2363	1129.7	0.9
313.15	0.353	1099.9	0.9
313.15	0.4591	1071.2	0.8
313.15	0.5495	1045.4	0.8
313.15	0.6563	1013.2	0.7
313.15	0.7459	984.6	0.7
313.15	0.8359	954.5	0.8
313.15	0.9197	924.8	0.8
313.15	0.96	909.9	0.8

System: chlorobenzene + propyl methanoate; phases: Liquid
Fixed: Pressure, kPa = 101
Property: Mass density, kg/m3 (Liquid); method: VIBTUB:UFactor:6
Temperature, K	Mole fraction of propyl methanoate	Mass density, kg/m3	uncertainty
303.15	0.0499	1086.2	0.8
303.15	0.1037	1076	0.8
303.15	0.2072	1056	0.8
303.15	0.3197	1033.9	0.7
303.15	0.4114	1015.7	0.7
303.15	0.6096	975.7	0.7
303.15	0.7075	955.6	0.7
303.15	0.807	935	0.8
303.15	0.9035	914.8	0.8
303.15	0.9513	904.6	0.8
308.15	0.0499	1081.3	0.8
308.15	0.1037	1071.1	0.8
308.15	0.2072	1051	0.8
308.15	0.3197	1028.8	0.7
308.15	0.4114	1010.5	0.7
308.15	0.5111	990.5	0.7
308.15	0.6096	970.3	0.7
308.15	0.7075	950.2	0.8
308.15	0.807	929.6	0.8
308.15	0.9035	909.3	0.8
308.15	0.9513	899	0.8
313.15	0.0499	1075.8	0.8
313.15	0.1037	1065.6	0.8
313.15	0.2072	1045.5	0.8
313.15	0.3197	1023.2	0.7
313.15	0.4114	1004.9	0.7
313.15	0.5111	984.8	0.7
313.15	0.6096	964.7	0.7
313.15	0.7075	944.6	0.8
313.15	0.807	924	0.8
313.15	0.9035	903.6	0.8
313.15	0.9513	893.4	0.8

System: bromobenzene + propyl methanoate; phases: Liquid
Fixed: Pressure, kPa = 101
Property: Mass density, kg/m3 (Liquid); method: VIBTUB:UFactor:6
Temperature, K	Mole fraction of propyl methanoate	Mass density, kg/m3	uncertainty
303.15	0.0535	1452.4	1.7
303.15	0.1075	1422.9	1.6
303.15	0.2154	1363.4	1.4
303.15	0.3187	1305.2	1.3
303.15	0.4198	1247.2	1.2
303.15	0.5206	1188.4	1.1
303.15	0.6195	1129.5	0.9
303.15	0.7169	1070.6	0.8
303.15	0.8128	1011.6	0.8
303.15	0.9071	952.9	0.8
303.15	0.951	925.2	0.8
308.15	0.0535	1445.9	1.7
308.15	0.1075	1416.4	1.6
308.15	0.2154	1356.9	1.4
308.15	0.3187	1298.8	1.3
308.15	0.4198	1240.7	1.2
308.15	0.5206	1182	1
308.15	0.6195	1123.2	0.9
308.15	0.7169	1064.4	0.8
308.15	0.8128	1005.7	0.7
308.15	0.9071	947.1	0.8
308.15	0.951	919.5	0.8
313.15	0.0535	1439.3	1.6
313.15	0.1075	1409.9	1.6
313.15	0.2154	1350.3	1.4
313.15	0.3187	1292.1	1.3
313.15	0.4198	1234.2	1.1
313.15	0.5206	1175.5	1
313.15	0.6195	1116.9	0.9
313.15	0.7169	1058.3	0.8
313.15	0.8128	999.7	0.7
313.15	0.9071	941.3	0.8
313.15	0.951	913.7	0.8

System: nitrobenzene + propyl methanoate; phases: Liquid
Fixed: Pressure, kPa = 101
Property: Mass density, kg/m3 (Liquid); method: VIBTUB:UFactor:6
Temperature, K	Mole fraction of propyl methanoate	Mass density, kg/m3	uncertainty
303.15	0.0536	1178.6	1
303.15	0.1082	1163.3	1
303.15	0.2064	1135.4	0.9
303.15	0.3143	1104.2	0.9
303.15	0.4165	1074.2	0.8
303.15	0.5062	1047.5	0.8
303.15	0.6162	1014.3	0.7
303.15	0.7117	984.9	0.7
303.15	0.8107	954.2	0.8
303.15	0.9059	924.2	0.8
303.15	0.9528	909.4	0.8
308.15	0.0536	1173.8	1
308.15	0.1082	1158.5	1
308.15	0.2064	1130.5	0.9
308.15	0.3143	1099.1	0.9
308.15	0.4165	1068.9	0.8
308.15	0.5062	1042.1	0.8
308.15	0.6162	1008.8	0.7
308.15	0.7117	979.5	0.7
308.15	0.8107	948.8	0.8
308.15	0.9059	918.7	0.8
308.15	0.9528	903.8	0.8
313.15	0.0536	1168.8	1
313.15	0.1082	1153.5	1
313.15	0.2064	1125.5	0.9
313.15	0.3143	1093.9	0.9
313.15	0.4165	1063.5	0.8
313.15	0.5062	1036.7	0.8
313.15	0.6162	1003.3	0.7
313.15	0.8107	943.3	0.8
313.15	0.9059	913.2	0.8
313.15	0.9528	898.2	0.8

System: chlorobenzene + benzyl ethanoate; phases: Liquid
Fixed: Pressure, kPa = 101
Property: Mass density, kg/m3 (Liquid); method: VIBTUB:UFactor:6
Temperature, K	Mole fraction of benzyl ethanoate	Mass density, kg/m3	uncertainty
303.15	0.038	1093.2	0.8
303.15	0.073	1091.1	0.8
303.15	0.1509	1086.5	0.8
303.15	0.237	1081.7	0.8
303.15	0.3217	1077.2	0.8
303.15	0.4161	1072.5	0.8
303.15	0.5161	1067.7	0.8
303.15	0.6232	1063	0.8
303.15	0.7399	1058.1	0.8
303.15	0.8651	1053.3	0.8
303.15	0.9213	1051.2	0.8
308.15	0.038	1088.4	0.8
308.15	0.073	1086.4	0.8
308.15	0.1509	1082	0.8
308.15	0.237	1077.3	0.8
308.15	0.3217	1073	0.8
308.15	0.4161	1068.8	0.8
308.15	0.6232	1059.2	0.8
308.15	0.7399	1054.5	0.8
308.15	0.8651	1049.8	0.8
308.15	0.9213	1047.8	0.8
313.15	0.038	1083.1	0.8
313.15	0.073	1081.2	0.8
313.15	0.1509	1077.1	0.8
313.15	0.237	1072.6	0.8
313.15	0.3217	1068.5	0.8
313.15	0.4161	1064.1	0.8
313.15	0.5161	1059.7	0.8
313.15	0.6232	1055.3	0.8
313.15	0.7399	1050.8	0.8
313.15	0.8651	1046.4	0.8
313.15	0.9213	1044.5	0.8

System: bromobenzene + benzyl ethanoate; phases: Liquid
Fixed: Pressure, kPa = 101
Property: Mass density, kg/m3 (Liquid); method: VIBTUB:UFactor:6
Temperature, K	Mole fraction of benzyl ethanoate	Mass density, kg/m3	uncertainty
303.15	0.0359	1460.8	1.7
303.15	0.0904	1430.4	1.6
303.15	0.1697	1388.2	1.5
303.15	0.2397	1352.6	1.4
303.15	0.3289	1309.5	1.3
303.15	0.4231	1266.5	1.2
303.15	0.5226	1223.6	1.1
303.15	0.6203	1183.8	1
303.15	0.7462	1135.8	0.9
303.15	0.8688	1092.2	0.9
303.15	0.9318	1070.8	0.8
308.15	0.0359	1454.5	1.7
308.15	0.0904	1424.3	1.6
308.15	0.1697	1382.4	1.5
308.15	0.2397	1347.1	1.4
308.15	0.3289	1304.4	1.3
308.15	0.4231	1261.7	1.2
308.15	0.5226	1219.1	1.1
308.15	0.6203	1179.6	1
308.15	0.7462	1131.9	0.9
308.15	0.8688	1088.6	0.8
308.15	0.9318	1067.3	0.8
313.15	0.0359	1448	1.7
313.15	0.0904	1418.1	1.6
313.15	0.1697	1376.5	1.5
313.15	0.2397	1341.5	1.4
313.15	0.3289	1299.1	1.3
313.15	0.4231	1256.8	1.2
313.15	0.5226	1214.6	1.1
313.15	0.6203	1175.4	1
313.15	0.7462	1128.1	0.9
313.15	0.8688	1085.1	0.8
313.15	0.9318	1063.9	0.8

System: nitrobenzene + benzyl ethanoate; phases: Liquid
Fixed: Pressure, kPa = 101
Property: Mass density, kg/m3 (Liquid); method: VIBTUB:UFactor:6
Temperature, K	Mole fraction of benzyl ethanoate	Mass density, kg/m3	uncertainty
303.15	0.0363	1186.3	1
303.15	0.0735	1179.3	1
303.15	0.1516	1165.1	1
303.15	0.2365	1150.5	1
303.15	0.3226	1136.4	0.9
303.15	0.4162	1122	0.9
303.15	0.5173	1107.4	0.9
303.15	0.6251	1092.8	0.8
303.15	0.7408	1078.1	0.8
303.15	0.8654	1063.3	0.8
303.15	0.9323	1055.8	0.8
308.15	0.0363	1181.6	1
308.15	0.0735	1174.7	1
308.15	0.1516	1160.6	1
308.15	0.2365	1146.1	0.9
308.15	0.3226	1132.2	0.9
308.15	0.4162	1118	0.9
308.15	0.5173	1103.6	0.9
308.15	0.6251	1089.1	0.8
308.15	0.7408	1074.6	0.8
308.15	0.8654	1059.9	0.8
308.15	0.9323	1052.4	0.8
313.15	0.0363	1176.8	1
313.15	0.0735	1170	1
313.15	0.1516	1156.2	1
313.15	0.2365	1141.8	0.9
313.15	0.3226	1128	0.9
313.15	0.4162	1114	0.9
313.15	0.5173	1099.7	0.9
313.15	0.6251	1085.4	0.8
313.15	0.7408	1071	0.8
313.15	0.8654	1056.6	0.8
313.15	0.9323	1049.1	0.8
