Measured thermophysical data. Mutual Solubility Measurements of Hydrocarbon-Water Systems Containing Benzene, Toluene, and 3-Methylpentane
Source: J. Chem. Eng. Data, 2008, 10.1021/je700449z
Compound 1: water, H2O, InChI=1S/H2O/h1H2
Compound 2: benzene, C6H6, InChI=1S/C6H6/c1-2-4-6-5-3-1/h1-6H
Compound 3: toluene, C7H8, InChI=1S/C7H8/c1-7-5-3-2-4-6-7/h2-6H,1H3
Compound 4: 3-methylpentane, C6H14, InChI=1S/C6H14/c1-4-6(3)5-2/h6H,4-5H2,1-3H3

System: benzene + water; phases: Liquid mixture 1, Liquid mixture 2
Property: Mole fraction of benzene (Liquid mixture 1); method: Chromatography
Temperature, K	Pressure, kPa	Mole fraction of benzene	uncertainty
299.1	194	0.000413	1.1e-05
324.3	139	0.000468	8e-06
350.2	271	0.000661	1.2e-05
376.2	443	0.001	2.1e-05
400.3	638	0.00152	2.3e-05
431.4	1944	0.00272	0.000218
461.8	3426	0.00485	0.000341
490.8	6873	0.0066	0.000153

System: benzene + water; phases: Liquid mixture 2, Liquid mixture 1
Property: Mole fraction of water (Liquid mixture 2); method: Chromatography
Temperature, K	Pressure, kPa	Mole fraction of water	uncertainty
299	204	0.0032	0.0003
324.3	139	0.0064	0.0004
350.2	271	0.0126	0.0009
376.2	443	0.0217	0.0014
400.3	638	0.0383	0.002
431.4	1944	0.0833	0.0069
461.8	3426	0.144	0.0096
490.8	6873	0.255	0.0104

System: toluene + water; phases: Liquid mixture 1, Liquid mixture 2
Property: Mole fraction of toluene (Liquid mixture 1); method: Chromatography
Temperature, K	Pressure, kPa	Mole fraction of toluene	uncertainty
297.8	115	0.000107	7e-06
324	199	0.000131	2e-06
350.6	197	0.000178	3e-06
376.1	167	0.000277	4e-06
401.6	792	0.000449	1.7e-05
431.9	1261	0.000746	4.4e-05
461	2040	0.00145	7e-05
490.4	3800	0.00253	0.000123

System: toluene + water; phases: Liquid mixture 2, Liquid mixture 1
Property: Mole fraction of water (Liquid mixture 2); method: Chromatography
Temperature, K	Pressure, kPa	Mole fraction of water	uncertainty
298.5	112	0.003	0.0002
324.3	201	0.0055	0.0005
350.9	358	0.0115	0.001
376.6	478	0.0222	0.0021
401.5	716	0.0411	0.0035
431.7	1450	0.0779	0.0046
461.8	3076	0.154	0.0072
491.4	4733	0.252	0.0092

System: 3-methylpentane + water; phases: Liquid mixture 1, Liquid mixture 2
Property: Mole fraction of 3-methylpentane (Liquid mixture 1); method: Chromatography
Temperature, K	Pressure, kPa	Mole fraction of 3-methylpentane	uncertainty
298.3	188	2.6e-06	2e-07
324.5	275	3.1e-06	2e-07
351.2	402	4.7e-06	2e-07
377.2	478	7.7e-06	2e-07
401.2	709	1.4e-05	9e-07
432.2	1924	2.6e-05	1.6e-06
462.1	3352	6e-05	3.6e-06
491.9	7248	0.000218	1.23e-05

System: 3-methylpentane + water; phases: Liquid mixture 2, Liquid mixture 1
Property: Mole fraction of water (Liquid mixture 2); method: Chromatography
Temperature, K	Pressure, kPa	Mole fraction of water	uncertainty
295.5	168	0.00031	4e-05
299.1	194	0.00038	5e-05
324.3	139	0.0011	0.00016
350.9	486	0.0029	0.00016
376.4	575	0.0052	0.00087
400.3	638	0.0117	0.00041
432.4	2144	0.0251	0.00187
491.5	5860	0.13	0.00863
