Measured thermophysical data. Experimental Determination of Solubilities of Betulin in Acetone + Water and Ethanol + Water Mixed Solvents at T ) (278.2, 288.2, 298.2, 308.2, and 318.2) K
Source: J. Chem. Eng. Data, 2007, 10.1021/je7004177
Compound 1: betulin, C30H50O2, InChI=1S/C30H50O2/c1-19(2)20-10-15-30(18-31)17-16-28(6)21(25(20)30)8-9-23-27(5)13-12-24(32)26(3,4)22(27)11-14-29(23,28)7/h20-25,31-32H,1,8-18H2,2-7H3/t20-,21+,22-,23+,24-,25+,27-,28+,29+,30+/m0/s1, purity 98%
Compound 2: acetone, C3H6O, InChI=1S/C3H6O/c1-3(2)4/h1-2H3
Compound 3: water, H2O, InChI=1S/H2O/h1H2
Compound 4: ethanol, C2H6O, InChI=1S/C2H6O/c1-2-3/h3H,2H2,1H3

System: acetone + betulin; phases: Liquid, Crystal
Fixed: Pressure, kPa = 101
Property: Mole fraction of betulin (Liquid); method: Chromatography
Temperature, K	Mole fraction of betulin	uncertainty
278.2	0.0006894	7.16e-05
288.2	0.001007	0.000104
298.2	0.0015	0.0001541
308.2	0.002026	0.0002066
318.2	0.002434	0.0002474

System: ethanol + betulin; phases: Liquid, Crystal
Fixed: Pressure, kPa = 101
Property: Mole fraction of betulin (Liquid); method: Chromatography
Temperature, K	Mole fraction of betulin	uncertainty
278.2	0.0008417	8.61e-05
288.2	0.0009597	9.81e-05
298.2	0.001068	0.0001092
308.2	0.001243	0.0001271
318.2	0.001352	0.0001381

System: acetone + betulin + water; phases: Liquid, Crystal
Fixed: Pressure, kPa = 101
Property: Mole fraction of betulin (Liquid); method: Chromatography
Temperature, K	Solvent: Mole fraction of acetone	Mole fraction of betulin	uncertainty
278.2	0.3111	1.07e-05	1.2e-06
278.2	0.4261	5.04e-05	5.3e-06
278.2	0.5107	0.0001413	1.45e-05
278.2	0.5958	0.0002801	2.88e-05
278.2	0.7207	0.0004237	4.33e-05
278.2	0.8479	0.0005515	5.63e-05
278.2	1	0.0006894	7.16e-05
288.2	0.3111	1.58e-05	1.7e-06
288.2	0.4261	6.11e-05	6.4e-06
288.2	0.5107	0.0001574	1.62e-05
288.2	0.5958	0.0002977	3.05e-05
288.2	0.7207	0.000459	4.69e-05
288.2	0.8479	0.0006464	6.59e-05
288.2	1	0.001007	0.000104
298.2	0.3111	2.24e-05	2.4e-06
298.2	0.4261	9.14e-05	9.6e-06
298.2	0.5107	0.0001772	1.83e-05
298.2	0.5958	0.0003154	3.23e-05
298.2	0.7207	0.0005296	5.41e-05
298.2	0.8479	0.0007849	8.01e-05
298.2	1	0.0015	0.0001541
308.2	0.3111	3.51e-05	3.8e-06
308.2	0.4261	0.0001158	1.21e-05
308.2	0.5107	0.0002037	2.1e-05
308.2	0.5958	0.0003426	3.51e-05
308.2	0.7207	0.0005998	6.13e-05
308.2	0.8479	0.000919	9.36e-05
308.2	1	0.002026	0.0002066
318.2	0.3111	6.16e-05	6.6e-06
318.2	0.4261	0.0001471	1.54e-05
318.2	0.5107	0.0002445	2.53e-05
318.2	0.5958	0.0003639	3.74e-05
318.2	0.7207	0.0006609	6.75e-05
318.2	0.8479	0.001004	0.0001039
318.2	1	0.002434	0.0002474

System: ethanol + betulin + water; phases: Liquid, Crystal
Fixed: Pressure, kPa = 101
Property: Mole fraction of betulin (Liquid); method: Chromatography
Temperature, K	Solvent: Mole fraction of ethanol	Mole fraction of betulin	uncertainty
278.2	0.3531	2.25e-05	2.4e-06
278.2	0.4907	0.0001111	1.16e-05
278.2	0.58	0.0001775	1.85e-05
278.2	0.6499	0.000233	2.87e-05
278.2	0.7578	0.0003766	3.88e-05
278.2	0.8685	0.0006343	6.52e-05
278.2	1	0.0008417	8.61e-05
288.2	0.3531	2.75e-05	6.1e-06
288.2	0.4907	0.0001229	1.28e-05
288.2	0.58	0.0002072	2.16e-05
288.2	0.6499	0.0002755	2.87e-05
288.2	0.7578	0.0004554	4.72e-05
288.2	0.8685	0.0007152	7.34e-05
288.2	1	0.0009597	9.81e-05
298.2	0.3531	3.72e-05	4.2e-06
298.2	0.4907	0.0001419	1.48e-05
298.2	0.58	0.0002751	2.87e-05
298.2	0.6499	0.0003909	4.07e-05
298.2	0.7578	0.0006125	6.34e-05
298.2	0.8685	0.0008408	8.63e-05
298.2	1	0.001068	0.0001092
308.2	0.3531	4.71e-05	5e-06
308.2	0.4907	0.0001721	1.8e-05
308.2	0.58	0.0003182	3.31e-05
308.2	0.6499	0.0004854	5.03e-05
308.2	0.7578	0.000737	7.6e-05
308.2	0.8685	0.0009592	9.84e-05
308.2	1	0.001243	0.0001271
318.2	0.3531	6.75e-05	1.62e-05
318.2	0.4907	0.0002036	2.15e-05
318.2	0.58	0.000391	4.08e-05
318.2	0.6499	0.0005647	5.85e-05
318.2	0.7578	0.0008326	8.57e-05
318.2	0.8685	0.001043	0.000107
318.2	1	0.001352	0.0001381
