Measured thermophysical data. Solubility of 1-H-Tetrazole-1-acetic Acid in Different Solvents between 283 K and 323 K
Source: J. Chem. Eng. Data, 2007, 10.1021/je700200b
Compound 1: 1H-tetrazol-1-acetic acid, C3H4N4O2, InChI=1S/C3H4N4O2/c8-3(9)1-7-2-4-5-6-7/h2H,1H2,(H,8,9), purity 99.1%
Compound 2: water, H2O, InChI=1S/H2O/h1H2
Compound 3: methanol, CH4O, InChI=1S/CH4O/c1-2/h2H,1H3
Compound 4: propan-1-ol, C3H8O, InChI=1S/C3H8O/c1-2-3-4/h4H,2-3H2,1H3
Compound 5: ethyl acetate, C4H8O2, InChI=1S/C4H8O2/c1-3-6-4(2)5/h3H2,1-2H3
Compound 6: propan-2-ol, C3H8O, InChI=1S/C3H8O/c1-3(2)4/h3-4H,1-2H3
Compound 7: acetone, C3H6O, InChI=1S/C3H6O/c1-3(2)4/h1-2H3
Compound 8: butyl ethanoate, C6H12O2, InChI=1S/C6H12O2/c1-3-4-5-8-6(2)7/h3-5H2,1-2H3
Compound 9: ethanol, C2H6O, InChI=1S/C2H6O/c1-2-3/h3H,2H2,1H3

System: water + 1H-tetrazol-1-acetic acid; phases: Liquid, Crystal
Fixed: Pressure, kPa = 101.3
Property: Mole fraction of 1H-tetrazol-1-acetic acid (Liquid); method: laser monitoring observation technique
Temperature, K	Mole fraction of 1H-tetrazol-1-acetic acid	uncertainty
283.17	0.007291	0.000172
288.31	0.01089	0.00025
293.28	0.01597	0.00037
298.24	0.02337	0.00054
303.19	0.03483	0.00083
308.3	0.0549	0.0013
313.17	0.08257	0.00204
318.22	0.1219	0.0031
323.16	0.1726	0.0046

System: methanol + 1H-tetrazol-1-acetic acid; phases: Liquid, Crystal
Fixed: Pressure, kPa = 101.3
Property: Mole fraction of 1H-tetrazol-1-acetic acid (Liquid); method: laser monitoring observation technique
Temperature, K	Mole fraction of 1H-tetrazol-1-acetic acid	uncertainty
288.18	0.1455	0.0021
293.29	0.1555	0.0022
298.23	0.1732	0.0026
303.22	0.1991	0.003
308.24	0.2333	0.0037
313.34	0.2764	0.0047
318.22	0.3255	0.0059
323.19	0.3834	0.0075

System: propan-1-ol + 1H-tetrazol-1-acetic acid; phases: Liquid, Crystal
Fixed: Pressure, kPa = 101.3
Property: Mole fraction of 1H-tetrazol-1-acetic acid (Liquid); method: laser monitoring observation technique
Temperature, K	Mole fraction of 1H-tetrazol-1-acetic acid	uncertainty
288.27	0.03119	0.00026
293.21	0.03862	0.0003
298.23	0.04636	0.00035
303.29	0.05573	0.00043
308.33	0.06801	0.00055
313.18	0.08389	0.0007
318.22	0.1059	0.0009
323.32	0.1354	0.0012

System: ethyl acetate + 1H-tetrazol-1-acetic acid; phases: Liquid, Crystal
Fixed: Pressure, kPa = 101.3
Property: Mole fraction of 1H-tetrazol-1-acetic acid (Liquid); method: laser monitoring observation technique
Temperature, K	Mole fraction of 1H-tetrazol-1-acetic acid	uncertainty
288.27	0.01208	6e-05
293.28	0.01377	7e-05
298.19	0.01544	8e-05
303.31	0.01731	9e-05
308.22	0.01934	0.0001
313.26	0.02177	0.00011
318.16	0.0246	0.00013
323.21	0.0281	0.00014

System: propan-2-ol + 1H-tetrazol-1-acetic acid; phases: Liquid, Crystal
Fixed: Pressure, kPa = 101.3
Property: Mole fraction of 1H-tetrazol-1-acetic acid (Liquid); method: laser monitoring observation technique
Temperature, K	Mole fraction of 1H-tetrazol-1-acetic acid	uncertainty
288.17	0.02819	0.00026
293.22	0.03745	0.00032
298.26	0.04913	0.00042
303.2	0.06295	0.00053
308.21	0.07936	0.00065
313.29	0.09846	0.0008
318.24	0.1195	0.001
323.27	0.1432	0.0012

System: acetone + 1H-tetrazol-1-acetic acid; phases: Liquid, Crystal
Fixed: Pressure, kPa = 101.3
Property: Mole fraction of 1H-tetrazol-1-acetic acid (Liquid); method: laser monitoring observation technique
Temperature, K	Mole fraction of 1H-tetrazol-1-acetic acid	uncertainty
288.23	0.09645	0.00073
293.32	0.1054	0.0008
298.24	0.1148	0.0009
303.31	0.1254	0.001
308.18	0.1363	0.0011
313.26	0.1486	0.0012
318.27	0.1616	0.0013
323.23	0.1752	0.0014

System: butyl ethanoate + 1H-tetrazol-1-acetic acid; phases: Liquid, Crystal
Fixed: Pressure, kPa = 101.3
Property: Mole fraction of 1H-tetrazol-1-acetic acid (Liquid); method: laser monitoring observation technique
Temperature, K	Mole fraction of 1H-tetrazol-1-acetic acid	uncertainty
288.22	0.004435	1.7e-05
293.3	0.004834	1.9e-05
298.33	0.005523	2.5e-05
303.18	0.006465	3.1e-05
308.22	0.007733	3.8e-05
313.3	0.009309	4.6e-05
318.24	0.01113	5e-05
323.28	0.01327	6e-05

System: ethanol + 1H-tetrazol-1-acetic acid; phases: Liquid, Crystal
Fixed: Pressure, kPa = 101.3
Property: Mole fraction of 1H-tetrazol-1-acetic acid (Liquid); method: laser monitoring observation technique
Temperature, K	Mole fraction of 1H-tetrazol-1-acetic acid	uncertainty
283.27	0.05173	0.0005
288.17	0.06205	0.0006
293.46	0.07504	0.00073
298.22	0.08914	0.00088
303.31	0.1076	0.0011
308.17	0.1291	0.0013
313.23	0.1565	0.0017
318.21	0.1893	0.0021
323.26	0.2291	0.0026
