Measured thermophysical data. Octanol/Water Partition Coefficient of Substituted Benzene Derivatives Containing Halogens and Carboxyls: Determination Using the Shake-Flask Method and Estimation Using the Fragment Method
Source: J. Chem. Eng. Data, 2008, 10.1021/je700381u
Compound 1: water, H2O, InChI=1S/H2O/h1H2
Compound 2: octan-1-ol, C8H18O, InChI=1S/C8H18O/c1-2-3-4-5-6-7-8-9/h9H,2-8H2,1H3
Compound 3: 2-chloro-3-fluorobenzoic acid, C7H4ClFO2, InChI=1S/C7H4ClFO2/c8-6-4(7(10)11)2-1-3-5(6)9/h1-3H,(H,10,11)
Compound 4: 4-chloro-2-fluorobenzoic acid, C7H4ClFO2, InChI=1S/C7H4ClFO2/c8-4-1-2-5(7(10)11)6(9)3-4/h1-3H,(H,10,11)
Compound 5: 2-bromo-5-fluorobenzoic acid, C7H4BrFO2, InChI=1S/C7H4BrFO2/c8-6-2-1-4(9)3-5(6)7(10)11/h1-3H,(H,10,11)
Compound 6: 3-bromo-4-fluorobenzoic acid, C7H4BrFO2, InChI=1S/C7H4BrFO2/c8-5-3-4(7(10)11)1-2-6(5)9/h1-3H,(H,10,11)
Compound 7: 4-bromo-2-fluorobenzoic acid, C7H4BrFO2, InChI=1S/C7H4BrFO2/c8-4-1-2-5(7(10)11)6(9)3-4/h1-3H,(H,10,11)
Compound 8: 5-chloro-2-fluorobenzoic acid, C7H4ClFO2, InChI=1S/C7H4ClFO2/c8-4-1-2-6(9)5(3-4)7(10)11/h1-3H,(H,10,11)
Compound 9: 2-chloro-4-fluorobenzoic acid, C7H4ClFO2, InChI=1S/C7H4ClFO2/c8-6-3-4(9)1-2-5(6)7(10)11/h1-3H,(H,10,11)
Compound 10: 2-chloro-5-fluorobenzoic acid, C7H4ClFO2, InChI=1S/C7H4ClFO2/c8-6-2-1-4(9)3-5(6)7(10)11/h1-3H,(H,10,11)
Compound 11: 5-bromo-2-chlorobenzoic acid, C7H4BrClO2, InChI=1S/C7H4BrClO2/c8-4-1-2-6(9)5(3-4)7(10)11/h1-3H,(H,10,11)
Compound 12: 5-bromo-2-fluorobenzoic acid, C7H4BrFO2, InChI=1S/C7H4BrFO2/c8-4-1-2-6(9)5(3-4)7(10)11/h1-3H,(H,10,11)

System: octan-1-ol + water + 2-chloro-3-fluorobenzoic acid; phases: Liquid, Liquid
Property: Amount concentration (molarity), mol/dm3 of 2-chloro-3-fluorobenzoic acid (Liquid); method: Shake-flask method.
Amount concentration (molarity), mol/dm3 of 2-chloro-3-fluorobenzoic acid	Temperature, K	Pressure, kPa	Amount concentration (molarity), mol/dm3 of 2-chloro-3-fluorobenzoic acid	uncertainty
0	298.15	101	55	3.8

System: octan-1-ol + 4-chloro-2-fluorobenzoic acid + water; phases: Liquid, Liquid
Property: Amount concentration (molarity), mol/dm3 of 4-chloro-2-fluorobenzoic acid (Liquid); method: Shake-flask method.
Amount concentration (molarity), mol/dm3 of 4-chloro-2-fluorobenzoic acid	Temperature, K	Pressure, kPa	Amount concentration (molarity), mol/dm3 of 4-chloro-2-fluorobenzoic acid	uncertainty
0	298.15	101	190.5	3.8

System: octan-1-ol + 2-bromo-5-fluorobenzoic acid + water; phases: Liquid, Liquid
Property: Amount concentration (molarity), mol/dm3 of 2-bromo-5-fluorobenzoic acid (Liquid); method: shake flask method.
Amount concentration (molarity), mol/dm3 of 2-bromo-5-fluorobenzoic acid	Pressure, kPa	Temperature, K	Amount concentration (molarity), mol/dm3 of 2-bromo-5-fluorobenzoic acid	uncertainty
0	101	298.15	162.2	3.8

System: octan-1-ol + 3-bromo-4-fluorobenzoic acid + water; phases: Liquid, Liquid
Property: Amount concentration (molarity), mol/dm3 of 3-bromo-4-fluorobenzoic acid (Liquid); method: shake flask method.
Amount concentration (molarity), mol/dm3 of 3-bromo-4-fluorobenzoic acid	Pressure, kPa	Temperature, K	Amount concentration (molarity), mol/dm3 of 3-bromo-4-fluorobenzoic acid	uncertainty
0	101	298.15	3630.8	3.8

System: octan-1-ol + water + 4-bromo-2-fluorobenzoic acid; phases: Liquid, Liquid
Property: Amount concentration (molarity), mol/dm3 of 4-bromo-2-fluorobenzoic acid (Liquid); method: shake flask method.
Amount concentration (molarity), mol/dm3 of 4-bromo-2-fluorobenzoic acid	Pressure, kPa	Temperature, K	Amount concentration (molarity), mol/dm3 of 4-bromo-2-fluorobenzoic acid	uncertainty
0	101	298.15	467.7	3.8

System: octan-1-ol + 5-chloro-2-fluorobenzoic acid + water; phases: Liquid, Liquid
Property: Amount concentration (molarity), mol/dm3 of 5-chloro-2-fluorobenzoic acid (Liquid); method: shake flask method.
Amount concentration (molarity), mol/dm3 of 5-chloro-2-fluorobenzoic acid	Pressure, kPa	Temperature, K	Amount concentration (molarity), mol/dm3 of 5-chloro-2-fluorobenzoic acid	uncertainty
0	101	298.15	38.9	3.8

System: octan-1-ol + 2-chloro-4-fluorobenzoic acid + water; phases: Liquid, Liquid
Property: Amount concentration (molarity), mol/dm3 of 2-chloro-4-fluorobenzoic acid (Liquid); method: shake flask method.
Amount concentration (molarity), mol/dm3 of 2-chloro-4-fluorobenzoic acid	Pressure, kPa	Temperature, K	Amount concentration (molarity), mol/dm3 of 2-chloro-4-fluorobenzoic acid	uncertainty
0	101	298.15	426.6	3.8

System: octan-1-ol + 2-chloro-5-fluorobenzoic acid + water; phases: Liquid, Liquid
Property: Amount concentration (molarity), mol/dm3 of 2-chloro-5-fluorobenzoic acid (Liquid); method: shake flask method.
Amount concentration (molarity), mol/dm3 of 2-chloro-5-fluorobenzoic acid	Pressure, kPa	Temperature, K	Amount concentration (molarity), mol/dm3 of 2-chloro-5-fluorobenzoic acid	uncertainty
0	101	298.15	245.5	3.8

System: octan-1-ol + water + 5-bromo-2-chlorobenzoic acid; phases: Liquid, Liquid
Property: Amount concentration (molarity), mol/dm3 of 5-bromo-2-chlorobenzoic acid (Liquid); method: shake flask method.
Amount concentration (molarity), mol/dm3 of 5-bromo-2-chlorobenzoic acid	Pressure, kPa	Temperature, K	Amount concentration (molarity), mol/dm3 of 5-bromo-2-chlorobenzoic acid	uncertainty
0	101	298.15	1445.4	3.8

System: octan-1-ol + water + 5-bromo-2-fluorobenzoic acid; phases: Liquid, Liquid
Property: Amount concentration (molarity), mol/dm3 of 5-bromo-2-fluorobenzoic acid (Liquid); method: shake flask method.
Amount concentration (molarity), mol/dm3 of 5-bromo-2-fluorobenzoic acid	Pressure, kPa	Temperature, K	Amount concentration (molarity), mol/dm3 of 5-bromo-2-fluorobenzoic acid	uncertainty
0	101	298.15	2691.5	3.8
