Measured thermophysical data. Isothermal Binary and Ternary VLE for the Mixtures of Propyl Vinyl Ether + Ethanol + Isooctane at 323.15 K and VE at 293.15 K
Source: J. Chem. Eng. Data, 2007, 10.1021/je700094y
Compound 1: ethanol, C2H6O, InChI=1S/C2H6O/c1-2-3/h3H,2H2,1H3
Compound 2: 2,2,4-trimethylpentane, C8H18, InChI=1S/C8H18/c1-7(2)6-8(3,4)5/h7H,6H2,1-5H3
Compound 3: propyl vinyl ether, C5H10O, InChI=1S/C5H10O/c1-3-5-6-4-2/h4H,2-3,5H2,1H3

System: ethanol; phases: Liquid
Property: Mass density, kg/m3 (Liquid); method: VIBTUB:UFactor:2
Temperature, K	Pressure, kPa	Mass density, kg/m3	uncertainty
293.15	101.325	789.38	0.24

System: 2,2,4-trimethylpentane; phases: Liquid
Property: Mass density, kg/m3 (Liquid); method: VIBTUB:UFactor:2
Temperature, K	Pressure, kPa	Mass density, kg/m3	uncertainty
293.15	101.325	692.05	0.31

System: propyl vinyl ether; phases: Liquid
Property: Mass density, kg/m3 (Liquid); method: VIBTUB:UFactor:2
Temperature, K	Pressure, kPa	Mass density, kg/m3	uncertainty
293.15	101.325	768.97	0.25

System: propyl vinyl ether; phases: Liquid, Gas
Property: Vapor or sublimation pressure, kPa (Liquid); method: EBULLIO:UFactor:64
Temperature, K	Vapor or sublimation pressure, kPa	uncertainty
296.02	20	0.79
301.62	25	0.83
305.44	30	0.87
309.37	35	0.91
312.65	40	0.96
315.13	45	1
317.88	50	1.04
320.29	55	1.07
322.72	60	1.11
324.9	65	1.16
326.95	70	1.2
328.89	75	1.24
330.76	80	1.26
332.86	85	1.31
334.22	90	1.35
336.28	95	1.39
337.38	100	1.53
337.9	101.7	1.45

System: ethanol + propyl vinyl ether; phases: Liquid
Fixed: Pressure, kPa = 101
Fixed: Temperature, K = 293.15
Property: Mass density, kg/m3 (Liquid); method: VIBTUB:UFactor:2
Mole fraction of propyl vinyl ether	Mass density, kg/m3	uncertainty
0.0499	787.89	0.24
0.1	786.34	0.24
0.2002	783.37	0.24
0.2996	780.78	0.24
0.4004	778.49	0.24
0.5006	776.39	0.25
0.6005	774.44	0.25
0.7005	772.61	0.25
0.8002	771.01	0.25
0.8997	769.67	0.25
0.9492	769.18	0.25

System: ethanol + propyl vinyl ether; phases: Gas, Liquid
Fixed: Temperature, K = 323.15
Property: Mole fraction of propyl vinyl ether (Gas); method: Chromatography
Mole fraction of propyl vinyl ether	Mole fraction of propyl vinyl ether	uncertainty
0.0201	0.1681	0.0101
0.0398	0.2625	0.0103
0.0592	0.2997	0.0103
0.0797	0.3702	0.0105
0.1193	0.4554	0.0107
0.1688	0.5189	0.0108
0.229	0.567	0.0107
0.2898	0.6081	0.0106
0.349	0.6253	0.0105
0.4086	0.6476	0.0105
0.4686	0.6621	0.0104
0.5294	0.6837	0.0104
0.5894	0.7087	0.0103
0.6512	0.7311	0.0103
0.7088	0.7562	0.0102
0.77	0.7799	0.0102
0.8287	0.8009	0.0102
0.8778	0.8297	0.0101
0.9195	0.8549	0.0101
0.9416	0.8772	0.0101
0.9601	0.9087	0.01
0.9784	0.9397	0.01

System: ethanol + 2,2,4-trimethylpentane; phases: Liquid
Fixed: Pressure, kPa = 101
Fixed: Temperature, K = 293.15
Property: Mass density, kg/m3 (Liquid); method: VIBTUB:UFactor:2
Mole fraction of ethanol	Mass density, kg/m3	uncertainty
0.052	693.45	0.31
0.1002	694.99	0.31
0.199	698.69	0.3
0.2992	703.17	0.3
0.3991	708.52	0.3
0.5005	715.22	0.29
0.6006	723.37	0.29
0.7002	733.6	0.28
0.8006	746.91	0.27
0.8998	764.31	0.25
0.9503	775.79	0.25

System: ethanol + 2,2,4-trimethylpentane; phases: Gas, Liquid
Fixed: Temperature, K = 323.15
Property: Mole fraction of ethanol (Gas); method: Chromatography
Mole fraction of ethanol	Mole fraction of ethanol	uncertainty
0.0045	0.1432	0.0108
0.0097	0.2414	0.0105
0.021	0.3604	0.0105
0.0601	0.4435	0.0107
0.0808	0.4624	0.0108
0.1197	0.4878	0.0108
0.1701	0.5081	0.0109
0.2303	0.5313	0.0108
0.2903	0.5463	0.0107
0.3501	0.5592	0.0107
0.4114	0.5699	0.0107
0.4699	0.5775	0.0106
0.5305	0.5891	0.0106
0.5907	0.6028	0.0106
0.6504	0.6155	0.0105
0.7109	0.6329	0.0105
0.77	0.6467	0.0105
0.8302	0.6699	0.0104
0.8806	0.7007	0.0103
0.9201	0.7532	0.0102
0.9406	0.7816	0.0102
0.9602	0.8309	0.0101
0.9802	0.8964	0.0101

System: 2,2,4-trimethylpentane + propyl vinyl ether; phases: Liquid
Fixed: Pressure, kPa = 101
Fixed: Temperature, K = 293.15
Property: Mass density, kg/m3 (Liquid); method: VIBTUB:UFactor:2
Mole fraction of propyl vinyl ether	Mass density, kg/m3	uncertainty
0.0503	694.47	0.31
0.1011	696.92	0.31
0.2002	702.16	0.3
0.3002	707.68	0.3
0.3995	713.8	0.29
0.4998	720.72	0.29
0.6003	728.49	0.28
0.7004	736.99	0.28
0.7998	746.25	0.27
0.9002	756.95	0.26
0.9503	762.56	0.26

System: 2,2,4-trimethylpentane + propyl vinyl ether; phases: Gas, Liquid
Fixed: Temperature, K = 323.15
Property: Mole fraction of propyl vinyl ether (Gas); method: Chromatography
Mole fraction of propyl vinyl ether	Mole fraction of propyl vinyl ether	uncertainty
0.0199	0.0839	0.0101
0.0393	0.1522	0.0101
0.0596	0.2147	0.0102
0.0783	0.2555	0.0102
0.1184	0.3413	0.0104
0.1698	0.4373	0.0107
0.2289	0.5231	0.0108
0.2881	0.5922	0.0106
0.3494	0.6495	0.0105
0.409	0.6984	0.0103
0.4684	0.7397	0.0103
0.5287	0.7759	0.0102
0.5886	0.8076	0.0101
0.6492	0.8373	0.0101
0.7091	0.8676	0.0101
0.7679	0.8956	0.01
0.8303	0.9216	0.01
0.8783	0.9458	0.01
0.9205	0.9656	0.01
0.9401	0.9728	0.01
0.9599	0.9826	0.01
0.9795	0.9912	0.0088

System: ethanol + 2,2,4-trimethylpentane + propyl vinyl ether; phases: Gas, Liquid
Fixed: Temperature, K = 323.15
Property: Mole fraction of ethanol (Gas); method: Chromatography
Mole fraction of propyl vinyl ether	Mole fraction of ethanol	Mole fraction of ethanol	uncertainty
0.0198	0.18	0.5091	0.0114
0.0298	0.2704	0.5129	0.0111
0.0301	0.7001	0.5827	0.0113
0.0302	0.0707	0.4434	0.012
0.0308	0.8993	0.68	0.0115
0.0413	0.3597	0.5423	0.011
0.0413	0.599	0.5597	0.0108
0.0497	0.4503	0.5435	0.0108
0.0606	0.5391	0.5411	0.0108
0.0693	0.901	0.6411	0.0117
0.0703	0.031	0.3352	0.0187
0.0892	0.7006	0.5476	0.0109
0.09	0.2118	0.4685	0.0109
0.0996	0.8006	0.5583	0.0108
0.1005	0.1015	0.4201	0.0113
0.1198	0.5998	0.51	0.011
0.1209	0.2801	0.4744	0.0109
0.1485	0.1518	0.4363	0.0108
0.1504	0.4994	0.4783	0.0109
0.1505	0.6997	0.5034	0.0112
0.1794	0.8005	0.5069	0.0111
0.1801	0.4194	0.4518	0.0109
0.1829	0.0202	0.228	0.0205
0.199	0.1998	0.4024	0.0108
0.1999	0.6001	0.4571	0.0108
0.2092	0.0913	0.3568	0.0109
0.2095	0.7003	0.4578	0.0108
0.2493	0.5012	0.4262	0.0107
0.2497	0.2498	0.3895	0.0107
0.27	0.6999	0.4378	0.0108
0.2703	0.0281	0.2274	0.0165
0.2795	0.6005	0.4196	0.0107
0.2798	0.1183	0.3438	0.011
0.2997	0.3002	0.3757	0.0108
0.3009	0.399	0.3939	0.0106
0.3503	0.1502	0.3244	0.0131
0.3507	0.5016	0.3865	0.0106
0.3601	0.0401	0.2327	0.0134
0.3603	0.6002	0.3933	0.0106
0.3986	0.1816	0.319	0.0106
0.3993	0.3004	0.3488	0.0107
0.4197	0.4005	0.3498	0.0105
0.4337	0.0668	0.2586	0.0107
0.4498	0.5003	0.3435	0.0104
0.4983	0.0502	0.2099	0.0121
0.4985	0.2514	0.3111	0.0107
0.4994	0.3512	0.3283	0.0105
0.5005	0.1485	0.2769	0.0114
0.5392	0.4004	0.3197	0.0104
0.5983	0.362	0.3052	0.0105
0.5984	0.2022	0.2732	0.0107
0.5989	0.1216	0.2413	0.0125
0.5994	0.0402	0.1596	0.0141
0.6004	0.2795	0.2891	0.0105
0.6978	0.0921	0.2018	0.0144
0.6986	0.2115	0.2551	0.0106
0.6994	0.0301	0.1122	0.0172
0.7003	0.2699	0.2685	0.0105
0.7007	0.1497	0.2338	0.0111
0.799	0.1807	0.2326	0.0115
0.7993	0.1012	0.1897	0.0143
0.8003	0.0189	0.0696	0.0177
0.8986	0.0706	0.16	0.0114

System: ethanol + 2,2,4-trimethylpentane + propyl vinyl ether; phases: Gas, Liquid
Fixed: Temperature, K = 323.15
Property: Mole fraction of propyl vinyl ether (Gas); method: Chromatography
Mole fraction of propyl vinyl ether	Mole fraction of ethanol	Mole fraction of propyl vinyl ether	uncertainty
0.0198	0.18	0.0362	0.01
0.0298	0.2704	0.0524	0.01
0.0301	0.7001	0.085	0.0102
0.0302	0.0707	0.0566	0.01
0.0308	0.8993	0.1297	0.0103
0.0413	0.3597	0.078	0.0101
0.0413	0.599	0.0982	0.0101
0.0497	0.4503	0.0972	0.0101
0.0606	0.5391	0.1258	0.0101
0.0693	0.901	0.2749	0.0153
0.0703	0.031	0.1404	0.0108
0.0892	0.7006	0.2023	0.0115
0.09	0.2118	0.1463	0.0101
0.0996	0.8006	0.2744	0.0114
0.1005	0.1015	0.1641	0.0101
0.1198	0.5998	0.2284	0.0108
0.1209	0.2801	0.1968	0.0103
0.1485	0.1518	0.2319	0.0103
0.1504	0.4994	0.2561	0.0106
0.1505	0.6997	0.3182	0.0133
0.1794	0.8005	0.4571	0.0129
0.1801	0.4194	0.2793	0.0103
0.1829	0.0202	0.3388	0.0132
0.199	0.1998	0.2837	0.0103
0.1999	0.6001	0.3561	0.011
0.2092	0.0913	0.3032	0.0104
0.2095	0.7003	0.4321	0.0118
0.2493	0.5012	0.3829	0.0118
0.2497	0.2498	0.3404	0.0105
0.27	0.6999	0.5235	0.013
0.2703	0.0281	0.4269	0.0124
0.2795	0.6005	0.4669	0.013
0.2798	0.1183	0.3712	0.0105
0.2997	0.3002	0.3969	0.0106
0.3009	0.399	0.4131	0.011
0.3503	0.1502	0.4329	0.0117
0.3507	0.5016	0.4947	0.0123
0.3601	0.0401	0.4941	0.0118
0.3603	0.6002	0.5673	0.0123
0.3986	0.1816	0.4726	0.0109
0.3993	0.3004	0.4819	0.0108
0.4197	0.4005	0.5288	0.0111
0.4337	0.0668	0.5039	0.011
0.4498	0.5003	0.6163	0.0117
0.4983	0.0502	0.5923	0.011
0.4985	0.2514	0.552	0.0108
0.4994	0.3512	0.578	0.0109
0.5005	0.1485	0.551	0.0109
0.5392	0.4004	0.6382	0.011
0.5983	0.362	0.6679	0.011
0.5984	0.2022	0.6215	0.0106
0.5989	0.1216	0.6219	0.011
0.5994	0.0402	0.6705	0.0121
0.6004	0.2795	0.6398	0.0109
0.6978	0.0921	0.6948	0.0118
0.6986	0.2115	0.6945	0.0106
0.6994	0.0301	0.7552	0.0139
0.7003	0.2699	0.7146	0.0108
0.7007	0.1497	0.688	0.0104
0.799	0.1807	0.7565	0.0102
0.7993	0.1012	0.7586	0.0114
0.8003	0.0189	0.8389	0.014
0.8986	0.0706	0.8258	0.0101
