Measured thermophysical data. Density and Speed of Sound of Binary Mixtures of N-Methyldiethanolamine and Triethanolamine with Ethanol
Source: J. Chem. Eng. Data, 2007, 10.1021/je700245a
Compound 1: ethanol, C2H6O, InChI=1S/C2H6O/c1-2-3/h3H,2H2,1H3
Compound 2: N-methyldiethanolamine, C5H13NO2, InChI=1S/C5H13NO2/c1-6(2-4-7)3-5-8/h7-8H,2-5H2,1H3
Compound 3: triethanolamine, C6H15NO3, InChI=1S/C6H15NO3/c8-4-1-7(2-5-9)3-6-10/h8-10H,1-6H2

System: ethanol + N-methyldiethanolamine; phases: Liquid
Fixed: Pressure, kPa = 101
Property: Speed of sound, m/s (Liquid); method: Sing-around technique in a fixed-path interferometer
Mole fraction of N-methyldiethanolamine	Temperature, K	Speed of sound, m/s	uncertainty
0	288.15	1179	1.2
0	293.15	1162	1.2
0	298.15	1144.9	1.2
0	303.15	1128	1.2
0	308.15	1111.1	1.2
0	313.15	1094.3	1.2
0.0049	288.15	1183.1	3.6
0.0049	293.15	1166	3.6
0.0049	298.15	1149.2	3.7
0.0049	303.15	1132.3	3.6
0.0049	308.15	1114.8	3.6
0.0049	313.15	1098.8	3.9
0.0253	288.15	1201.7	3.5
0.0253	293.15	1184.9	3.6
0.0253	298.15	1168	3.6
0.0253	303.15	1151.2	3.6
0.0253	308.15	1134.5	3.7
0.0253	313.15	1117.9	3.7
0.0524	288.15	1222.5	3.3
0.0524	293.15	1205.9	3.4
0.0524	298.15	1189.3	3.4
0.0524	303.15	1172.7	3.4
0.0524	308.15	1156.3	3.4
0.0524	313.15	1139.8	3.4
0.102	288.15	1260.9	3.1
0.102	293.15	1244.5	3.2
0.102	298.15	1228.1	3.3
0.102	303.15	1211.8	3.3
0.102	308.15	1195.6	3.3
0.102	313.15	1179.5	3.4
0.1629	288.15	1301	2.9
0.1629	293.15	1286	2.9
0.1629	298.15	1272.9	3
0.1629	303.15	1257.3	3
0.1629	308.15	1241.5	3
0.1629	313.15	1225.8	3
0.2474	288.15	1353	2.6
0.2474	293.15	1338	2.6
0.2474	298.15	1325	2.6
0.2474	303.15	1310	2.6
0.2474	308.15	1293	2.6
0.2474	313.15	1278	2.6
0.3713	288.15	1415	2.4
0.3713	293.15	1399.7	2.4
0.3713	298.15	1384.6	2.4
0.3713	303.15	1369.4	2.4
0.3713	308.15	1354.1	2.4
0.3713	313.15	1339	2.4
0.4806	288.15	1460	2.3
0.4806	293.15	1444	2.3
0.4806	298.15	1429.2	2.3
0.4806	303.15	1414	2.3
0.4806	308.15	1398.8	2.3
0.4806	313.15	1383.7	2.3
0.5506	288.15	1486	2.2
0.5506	293.15	1470	2.2
0.5506	298.15	1457	2.1
0.5506	303.15	1439	2.1
0.5506	308.15	1423.8	2.1
0.5506	313.15	1408.7	2.1
0.7035	288.15	1536	2.2
0.7035	293.15	1520	2.2
0.7035	298.15	1500	2.2
0.7035	303.15	1484.3	2.2
0.7035	308.15	1468.9	2.2
0.7035	313.15	1453.6	2.2
0.7916	288.15	1557	2.2
0.7916	293.15	1542	2.2
0.7916	298.15	1522	2.2
0.7916	303.15	1505.6	2.2
0.7916	308.15	1490.3	2.2
0.7916	313.15	1475.1	2.2
0.8688	288.15	1573.2	2.2
0.8688	293.15	1557.7	2.2
0.8688	298.15	1538	2.2
0.8688	303.15	1520.8	2.2
0.8688	308.15	1506.2	2.2
0.8688	313.15	1491.5	2.2
0.9415	288.15	1588.4	2.3
0.9415	293.15	1572.9	2.3
0.9415	298.15	1553	2.3
0.9415	303.15	1535	2.2
0.9415	308.15	1520.4	2.2
0.9415	313.15	1506.1	2.2
1	288.15	1598.8	2.2
1	293.15	1583.1	2.2
1	298.15	1564	2.2
1	303.15	1546	2.2
1	308.15	1531	2.2
1	313.15	1516	2.2

System: ethanol + N-methyldiethanolamine; phases: Liquid
Fixed: Pressure, kPa = 101
Property: Mass density, kg/m3 (Liquid); method: VIBTUB:UFactor:6
Mole fraction of N-methyldiethanolamine	Temperature, K	Mass density, kg/m3	uncertainty
0	288.15	793.6	0.8
0	293.15	789.35	0.8
0	298.15	785.06	0.81
0	303.15	780.76	0.82
0	308.15	776	0.83
0	313.15	772.03	0.84
0.0049	288.15	797.34	3.15
0.0049	293.15	793.08	3.14
0.0049	298.15	788.79	3.14
0.0049	303.15	784.48	2.89
0.0049	308.15	779.2	3.13
0.0049	313.15	775.41	2.88
0.0253	288.15	810.93	2.54
0.0253	293.15	806.7	2.54
0.0253	298.15	802.07	2.51
0.0253	303.15	797.45	2.52
0.0253	308.15	792.51	2.53
0.0253	313.15	788.32	2.53
0.0524	288.15	826.23	2.44
0.0524	293.15	822.03	2.41
0.0524	298.15	817.31	2.41
0.0524	303.15	812.97	2.4
0.0524	308.15	807.85	2.39
0.0524	313.15	803.95	2.39
0.102	288.15	855.32	2.19
0.102	293.15	850.46	2.17
0.102	298.15	845.79	2.18
0.102	303.15	841.06	2.17
0.102	308.15	835.99	2.17
0.102	313.15	831.61	2.17
0.1629	288.15	883.86	1.8
0.1629	293.15	879	1.8
0.1629	298.15	874.36	1.81
0.1629	303.15	869.83	1.81
0.1629	308.15	864.64	1.81
0.1629	313.15	860.34	1.82
0.2474	288.15	916.48	1.45
0.2474	293.15	911.75	1.45
0.2474	298.15	907.18	1.45
0.2474	303.15	902.4	1.46
0.2474	308.15	897.2	1.46
0.2474	313.15	892.65	1.47
0.3713	288.15	952.15	1.22
0.3713	293.15	947.5	1.24
0.3713	298.15	942.7	1.24
0.3713	303.15	938.24	1.24
0.3713	308.15	933.17	1.25
0.3713	313.15	928.65	1.25
0.4806	288.15	977.2	1.09
0.4806	293.15	973.1	1.1
0.4806	298.15	968.28	1.11
0.4806	303.15	963.57	1.11
0.4806	308.15	958.75	1.12
0.4806	313.15	954	1.12
0.5506	288.15	991.1	0.94
0.5506	293.15	986.7	0.93
0.5506	298.15	982.08	0.94
0.5506	303.15	977.52	0.95
0.5506	308.15	972.75	0.96
0.5506	313.15	967.98	0.98
0.7035	288.15	1013.7	0.99
0.7035	293.15	1009.24	0.98
0.7035	298.15	1005.04	0.97
0.7035	303.15	1000.62	0.96
0.7035	308.15	996.08	0.96
0.7035	313.15	991.6	0.97
0.7916	288.15	1024.1	1.03
0.7916	293.15	1019.88	1.02
0.7916	298.15	1015.3	1
0.7916	303.15	1011.24	0.99
0.7916	308.15	1006.79	0.98
0.7916	313.15	1002.49	0.97
0.8688	288.15	1032.69	1.08
0.8688	293.15	1028.4	1.07
0.8688	298.15	1024.2	1.07
0.8688	303.15	1019.64	1.06
0.8688	308.15	1015.81	1.05
0.8688	313.15	1011.97	1.04
0.9415	288.15	1038.68	1.15
0.9415	293.15	1034.96	1.14
0.9415	298.15	1031.19	1.13
0.9415	303.15	1027.42	1.13
0.9415	308.15	1023.63	1.12
0.9415	313.15	1019.82	1.1
1	288.15	1044.32	1.17
1	293.15	1040.6	1.16
1	298.15	1036.83	1.14
1	303.15	1033.06	1.12
1	308.15	1029.26	1.11
1	313.15	1025.45	1.09

System: ethanol + triethanolamine; phases: Liquid
Fixed: Pressure, kPa = 101
Property: Speed of sound, m/s (Liquid); method: FPINT:UFactor:32
Mole fraction of triethanolamine	Temperature, K	Speed of sound, m/s	uncertainty
0	288.15	1179	19.6
0	293.15	1162	19.4
0	298.15	1144.9	19.2
0	303.15	1128	19
0	308.15	1111.1	18.8
0	313.15	1094.3	18.5
0.0075	288.15	1185.2	19.9
0.0075	293.15	1168.3	19.7
0.0075	298.15	1151.4	19.5
0.0075	303.15	1134.6	19.4
0.0075	308.15	1117.9	19.2
0.0075	313.15	1101.2	19
0.0184	288.15	1193.4	20
0.0184	293.15	1176.9	19.8
0.0184	298.15	1160.4	19.6
0.0184	303.15	1143.9	19.5
0.0184	308.15	1127.4	19.3
0.0184	313.15	1111.1	19.1
0.0304	288.15	1202.1	20.1
0.0304	293.15	1185.9	19.9
0.0304	298.15	1170	19.7
0.0304	303.15	1153.8	19.5
0.0304	308.15	1137.7	19.4
0.0304	313.15	1121.6	19.2
0.0622	288.15	1225.5	20.4
0.0622	293.15	1210	20.2
0.0622	298.15	1194.4	20
0.0622	303.15	1178.9	19.8
0.0622	308.15	1163.4	19.6
0.0622	313.15	1148	19.5
0.1385	288.15	1277	21
0.1385	293.15	1262.7	20.8
0.1385	298.15	1248.6	20.6
0.1385	303.15	1234.5	20.5
0.1385	308.15	1220.4	20.3
0.1385	313.15	1206.4	20.2
0.2275	288.15	1333.2	21.7
0.2275	293.15	1320	21.5
0.2275	298.15	1307.1	21.3
0.2275	303.15	1294.3	21.2
0.2275	308.15	1281.5	21
0.2275	313.15	1268.8	20.9
0.335	288.15	1397	22.4
0.335	293.15	1385	22.3
0.335	298.15	1373.1	22.1
0.335	303.15	1361.4	22
0.335	308.15	1349.9	21.8
0.335	313.15	1338.4	21.7
0.4675	288.15	1453.1	23.1
0.4675	293.15	1442.5	22.9
0.4675	298.15	1431.6	22.8
0.4675	303.15	1420.9	22.7
0.4675	308.15	1410.5	22.6
0.4675	313.15	1400.1	22.4
0.6413	288.15	1528	24
0.6413	293.15	1516.6	23.9
0.6413	298.15	1505.9	23.7
0.6413	303.15	1496	23.6
0.6413	308.15	1486.6	23.5
0.6413	313.15	1477.3	23.4
0.779	288.15	1558.4	24.4
0.779	293.15	1546.8	24.2
0.779	298.15	1536.4	24.1
0.779	303.15	1526.6	24
0.779	308.15	1517.4	23.9
0.779	313.15	1508.5	23.8
0.8537	288.15	1597.9	24.9
0.8537	293.15	1585.3	24.7
0.8537	298.15	1574.3	24.6
0.8537	303.15	1564.5	24.5
0.8537	308.15	1555.6	24.4
0.8537	313.15	1547	24.3
0.9328	288.15	1617.3	25.1
0.9328	293.15	1604.6	24.9
0.9328	298.15	1593.8	24.8
0.9328	303.15	1584.2	24.7
0.9328	308.15	1575.4	24.6
0.9328	313.15	1567.1	24.5
1	288.15	1640.5	25.4
1	293.15	1625.6	25.2
1	298.15	1614.5	25
1	303.15	1604.5	24.9
1	308.15	1595.5	24.8
1	313.15	1586	24.7

System: ethanol + triethanolamine; phases: Liquid
Fixed: Pressure, kPa = 101
Property: Mass density, kg/m3 (Liquid); method: VIBTUB:UFactor:6
Mole fraction of triethanolamine	Temperature, K	Mass density, kg/m3	uncertainty
0	288.15	793.6	0.8
0	293.15	789.35	0.8
0	298.15	785.06	0.81
0	303.15	780.76	0.82
0	308.15	776	0.83
0	313.15	772.03	0.84
0.0075	288.15	799.61	3.34
0.0075	293.15	795.43	3.39
0.0075	298.15	791.34	3.42
0.0075	303.15	786.78	3.48
0.0075	308.15	782.53	3.48
0.0075	313.15	778.51	3.51
0.0184	288.15	808.53	3.3
0.0184	293.15	804.51	3.29
0.0184	298.15	800.35	3.28
0.0184	303.15	796.27	3.36
0.0184	308.15	791.61	3.33
0.0184	313.15	787.72	3.38
0.0304	288.15	818	3.01
0.0304	293.15	813.73	2.99
0.0304	298.15	809.59	3
0.0304	303.15	805.5	3.02
0.0304	308.15	801.05	3.04
0.0304	313.15	797.32	3.08
0.0622	288.15	840.61	2.72
0.0622	293.15	836.37	2.73
0.0622	298.15	832.35	2.74
0.0622	303.15	828.41	2.76
0.0622	308.15	824.11	2.76
0.0622	313.15	820.47	2.77
0.1385	288.15	889.41	2.38
0.1385	293.15	885.58	2.39
0.1385	298.15	881.74	2.4
0.1385	303.15	877.88	2.41
0.1385	308.15	873.56	2.41
0.1385	313.15	869.89	2.42
0.2275	288.15	935.37	1.92
0.2275	293.15	931.77	1.93
0.2275	298.15	928.14	1.94
0.2275	303.15	924.44	1.95
0.2275	308.15	920.24	1.96
0.2275	313.15	916.68	1.97
0.335	288.15	979.49	1.54
0.335	293.15	976.06	1.55
0.335	298.15	972.67	1.56
0.335	303.15	969.17	1.57
0.335	308.15	965.2	1.58
0.335	313.15	961.76	1.59
0.4675	288.15	1021.75	1.3
0.4675	293.15	1018.53	1.29
0.4675	298.15	1015.52	1.29
0.4675	303.15	1012.27	1.3
0.4675	308.15	1008.69	1.3
0.4675	313.15	1005.44	1.31
0.6413	288.15	1064.29	1.31
0.6413	293.15	1061.37	1.31
0.6413	298.15	1058.61	1.3
0.6413	303.15	1055.67	1.3
0.6413	308.15	1052.55	1.3
0.6413	313.15	1049.55	1.29
0.779	288.15	1091.59	1.39
0.779	293.15	1088.73	1.38
0.779	298.15	1086.14	1.38
0.779	303.15	1083.38	1.37
0.779	308.15	1080.43	1.36
0.779	313.15	1077.53	1.35
0.8537	288.15	1104.43	1.43
0.8537	293.15	1101.67	1.42
0.8537	298.15	1099.23	1.42
0.8537	303.15	1096.33	1.41
0.8537	308.15	1093.46	1.4
0.8537	313.15	1090.66	1.39
0.9328	288.15	1116.76	1.52
0.9328	293.15	1114.01	1.51
0.9328	298.15	1111.63	1.5
0.9328	303.15	1108.88	1.49
0.9328	308.15	1106.09	1.48
0.9328	313.15	1103.23	1.47
1	288.15	1126.19	1.51
1	293.15	1123.42	1.49
1	298.15	1120.99	1.48
1	303.15	1118.21	1.47
1	308.15	1115.38	1.46
1	313.15	1112.57	1.45
