Measured thermophysical data. Measurement and Prediction of Vapor Pressure of Binary and Ternary Systems Containing 1-Ethyl-3-methylimidazolium Ethyl Sulfate
Source: J. Chem. Eng. Data, 2007, 10.1021/je700038w
Compound 1: water, H2O, InChI=1S/H2O/h1H2
Compound 2: ethanol, C2H6O, InChI=1S/C2H6O/c1-2-3/h3H,2H2,1H3
Compound 3: methanol, CH4O, InChI=1S/CH4O/c1-2/h2H,1H3
Compound 4: 1-ethyl-3-methylimidazolium ethyl sulfate, C8H16N2O4S, InChI=1S/C6H11N2.C2H6O4S/c1-3-8-5-4-7(2)6-8;1-2-6-7(3,4)5/h4-6H,3H2,1-2H3;2H2,1H3,(H,3,4,5)/q+1;/p-1

System: water + 1-ethyl-3-methylimidazolium ethyl sulfate; phases: Liquid, Gas
Property: Vapor or sublimation pressure, kPa (Liquid); method: EBULLIO:UFactor:4
Mole fraction of water	Temperature, K	Vapor or sublimation pressure, kPa	uncertainty
0.8489	325.55	10.03	0.378
0.8489	334.18	15.148	0.445
0.8489	340.27	20.028	0.537
0.8489	346.15	25.941	0.607
0.8489	352.47	33.899	0.774
0.8489	357.64	41.547	0.913
0.8489	364.54	54.343	1.164
0.8489	369.29	65.276	1.321
0.9291	321.47	9.988	0.377
0.9291	327.87	13.708	0.418
0.9291	334.76	18.953	0.498
0.9291	343.69	28.279	0.653
0.9291	349.08	35.55	0.767
0.9291	354.16	43.748	0.915
0.9291	359.21	53.509	1.086
0.9291	366.6	71.023	1.385
0.9683	318.06	9.018	0.357
0.9683	325.1	12.858	0.409
0.9683	332.58	18.414	0.485
0.9683	339.37	25.062	0.591
0.9683	345.48	32.753	0.7
0.9683	351.71	42.577	0.842
0.9683	356.54	51.819	0.978
0.9683	364.69	71.142	1.34
0.9915	316.93	8.843	0.357
0.9915	328.27	15.566	0.481
0.9915	335.25	21.593	0.543
0.9915	344.29	32.228	0.711
0.9915	348.27	38.203	0.783
0.9915	352.99	46.426	0.943
0.9915	358.06	56.897	1.122
0.9915	363.71	70.899	1.32

System: methanol + 1-ethyl-3-methylimidazolium ethyl sulfate; phases: Liquid, Gas
Property: Vapor or sublimation pressure, kPa (Liquid); method: EBULLIO:UFactor:4
Mole fraction of methanol	Temperature, K	Vapor or sublimation pressure, kPa	uncertainty
0.7597	298.28	10.617	0.385
0.7597	301.76	12.716	0.408
0.7597	307.97	17.313	0.487
0.7597	313.2	22.24	0.544
0.7597	318.56	28.533	0.653
0.7597	323.07	34.955	0.769
0.7597	327.83	43	0.918
0.7597	333.16	53.789	1.104
0.8806	294.24	11.21	0.384
0.8806	300.06	15.229	0.442
0.8806	304.34	18.911	0.484
0.8806	310.83	25.922	0.601
0.8806	317.71	35.615	0.769
0.8806	321.94	43.163	0.897
0.8806	327.98	55.934	1.116
0.8806	331.77	65.5	1.271
0.9451	292	11.213	0.379
0.9451	295.26	13.371	0.411
0.9451	302.87	19.786	0.499
0.9451	307.75	25.181	0.558
0.9451	314.46	34.639	0.709
0.9451	319.77	44.019	0.89
0.9451	325.29	56.146	1.091
0.9451	329.17	66.186	1.259
0.9852	291.66	11.684	0.386
0.9852	299.14	17.4	0.465
0.9852	304.28	22.581	0.537
0.9852	308.71	28.062	0.624
0.9852	313.71	35.592	0.76
0.9852	318.45	44.233	0.907
0.9852	322.57	53.123	1.063
0.9852	327.74	66.303	1.245

System: ethanol + 1-ethyl-3-methylimidazolium ethyl sulfate; phases: Liquid, Gas
Property: Vapor or sublimation pressure, kPa (Liquid); method: EBULLIO:UFactor:4
Mole fraction of ethanol	Temperature, K	Vapor or sublimation pressure, kPa	uncertainty
0.6874	305.35	8.385	0.346
0.6874	314.52	13.612	0.408
0.6874	321.14	18.711	0.476
0.6874	326.74	24.248	0.554
0.6874	331.63	30.278	0.656
0.6874	335.42	35.663	0.737
0.6874	338.76	41.105	0.833
0.6874	345.75	54.978	1.065
0.8369	300.55	7.718	0.336
0.8369	311	13.526	0.406
0.8369	317.3	18.685	0.469
0.8369	322.92	24.612	0.549
0.8369	328.62	32.084	0.67
0.8369	333.58	40.123	0.807
0.8369	339.52	51.997	0.996
0.8369	345.43	66.579	1.229
0.9299	298.99	7.742	0.336
0.9299	306.41	11.681	0.382
0.9299	313.87	17.287	0.453
0.9299	320.94	24.548	0.549
0.9299	326.82	32.469	0.677
0.9299	332.6	42.304	0.836
0.9299	337.59	52.691	1.005
0.9299	342.96	66.174	1.224
0.9788	299.82	8.514	0.344
0.9788	309.12	14.234	0.421
0.9788	315.58	19.901	0.493
0.9788	321.28	26.388	0.588
0.9788	326.63	34.054	0.716
0.9788	332.21	44	0.882
0.9788	337.7	56.084	1.076
0.9788	342.13	67.782	1.25

System: ethanol + water + 1-ethyl-3-methylimidazolium ethyl sulfate; phases: Liquid, Gas
Property: Vapor or sublimation pressure, kPa (Liquid); method: EBULLIO:UFactor:4
Mole fraction of water	Mole fraction of ethanol	Temperature, K	Vapor or sublimation pressure, kPa	uncertainty
0.3394	0.5312	301.49	8.144	0.339
0.3394	0.5312	310.37	12.989	0.394
0.3394	0.5312	317.47	18.752	0.465
0.3394	0.5312	323.2	24.832	0.543
0.3394	0.5312	329.06	32.683	0.666
0.3394	0.5312	333.93	40.838	0.794
0.3394	0.5312	338.66	50.208	0.941
0.3394	0.5312	343.38	61.278	1.115
0.5626	0.3302	300.88	7.384	0.33
0.5626	0.3302	311.17	12.914	0.393
0.5626	0.3302	318.83	19.147	0.47
0.5626	0.3302	324.22	24.722	0.542
0.5626	0.3302	330.37	33.063	0.673
0.5626	0.3302	335.07	40.996	0.798
0.5626	0.3302	339.84	50.456	0.946
0.5626	0.3302	344.39	61.139	1.114
0.7205	0.188	302.37	7.507	0.332
0.7205	0.188	313.71	13.598	0.401
0.7205	0.188	320.2	18.672	0.464
0.7205	0.188	326.48	25.225	0.55
0.7205	0.188	332.47	33.053	0.673
0.7205	0.188	337.45	41.146	0.801
0.7205	0.188	342.36	50.69	0.951
0.7205	0.188	346.84	61.23	1.116
0.8307	0.0813	308.27	8.36	0.341
0.8307	0.0813	317.67	13.528	0.401
0.8307	0.0813	324.54	18.813	0.466
0.8307	0.0813	330.77	24.984	0.547
0.8307	0.0813	336.67	32.638	0.667
0.8307	0.0813	341.52	40.227	0.787
0.8307	0.0813	346.21	48.919	0.924
0.8307	0.0813	350.66	58.751	1.078

System: methanol + water + 1-ethyl-3-methylimidazolium ethyl sulfate; phases: Liquid, Gas
Property: Vapor or sublimation pressure, kPa (Liquid); method: EBULLIO:UFactor:4
Mole fraction of water	Mole fraction of methanol	Temperature, K	Vapor or sublimation pressure, kPa	uncertainty
0.2754	0.6196	291.87	8.282	0.344
0.2754	0.6196	300.22	13.124	0.399
0.2754	0.6196	307.23	18.662	0.467
0.2754	0.6196	313.81	25.593	0.557
0.2754	0.6196	320.06	34.116	0.69
0.2754	0.6196	324.96	42.423	0.819
0.2754	0.6196	330.31	53.212	0.987
0.2754	0.6196	334.59	63.468	1.147
0.4915	0.4147	295.22	8.246	0.347
0.4915	0.4147	303.17	12.66	0.397
0.4915	0.4147	310.33	18.184	0.47
0.4915	0.4147	316.49	24.482	0.56
0.4915	0.4147	322.31	31.822	0.681
0.4915	0.4147	327.68	40.138	0.82
0.4915	0.4147	332.48	49.206	0.972
0.4915	0.4147	337.18	59.786	1.138
0.63	0.2835	299.4	8.18	0.347
0.63	0.2835	307.97	12.866	0.404
0.63	0.2835	315.3	18.311	0.477
0.63	0.2835	321.89	24.984	0.571
0.63	0.2835	328.23	33.107	0.704
0.63	0.2835	333.43	41.341	0.843
0.63	0.2835	337.97	50.099	0.99
0.63	0.2835	342.74	60.923	1.156

System: ethanol + methanol + 1-ethyl-3-methylimidazolium ethyl sulfate; phases: Liquid, Gas
Property: Vapor or sublimation pressure, kPa (Liquid); method: EBULLIO:UFactor:4
Mole fraction of ethanol	Mole fraction of methanol	Temperature, K	Vapor or sublimation pressure, kPa	uncertainty
0.1295	0.7444	296	11.432	0.378
0.1295	0.7444	299.03	13.348	0.4
0.1295	0.7444	304.38	17.682	0.454
0.1295	0.7444	310.21	23.475	0.529
0.1295	0.7444	315.81	30.513	0.638
0.1295	0.7444	320.5	37.631	0.751
0.1295	0.7444	325.47	46.79	0.896
0.1295	0.7444	330.38	57.63	1.062
0.2745	0.5918	298.19	11.427	0.377
0.2745	0.5918	302.22	14.159	0.41
0.2745	0.5918	307.7	18.706	0.467
0.2745	0.5918	313.01	24.211	0.537
0.2745	0.5918	318.14	30.732	0.638
0.2745	0.5918	322.78	37.857	0.751
0.2745	0.5918	327.85	47.173	0.897
0.2745	0.5918	332.64	57.673	1.062
0.438	0.4197	300.5	11.416	0.378
0.438	0.4197	301.83	11.973	0.385
0.438	0.4197	310.18	18.303	0.461
0.438	0.4197	316.16	24.419	0.544
0.438	0.4197	321.83	31.746	0.658
0.438	0.4197	326.86	39.651	0.784
0.438	0.4197	331.63	48.761	0.929
0.438	0.4197	335.28	56.765	1.053
0.6238	0.2242	303.51	11.403	0.377
0.6238	0.2242	307.04	13.626	0.404
0.6238	0.2242	313.28	18.604	0.466
0.6238	0.2242	319.87	25.492	0.557
0.6238	0.2242	325.65	33.173	0.678
0.6238	0.2242	331.45	42.889	0.831
0.6238	0.2242	335.96	52.006	0.974
0.6238	0.2242	339.87	61.187	1.117
