Measured thermophysical data. Densities and Isothermal Compressibilities at Pressures up to 20 MPa of the Systems N,N-Dimethylformamide or N,N-Dimethylacetamide + 1-Chloroalkane
Source: J. Chem. Eng. Data, 2007, 10.1021/je700096m
Compound 1: dimethylformamide, C3H7NO, InChI=1S/C3H7NO/c1-4(2)3-5/h3H,1-2H3, purity 99%
Compound 2: N,N-dimethylethanamide, C4H9NO, InChI=1S/C4H9NO/c1-4(6)5(2)3/h1-3H3, purity 99%
Compound 3: 1-chlorobutane, C4H9Cl, InChI=1S/C4H9Cl/c1-2-3-4-5/h2-4H2,1H3, purity 99.8%
Compound 4: 1-chlorohexane, C6H13Cl, InChI=1S/C6H13Cl/c1-2-3-4-5-6-7/h2-6H2,1H3, purity 99%
Compound 5: 1-chlorooctane, C8H17Cl, InChI=1S/C8H17Cl/c1-2-3-4-5-6-7-8-9/h2-8H2,1H3, purity 98%

System: dimethylformamide; phases: Liquid
Property: Mass density, kg/m3 (Liquid); method: VIBTUB:UFactor:6
Temperature, K	Pressure, kPa	Mass density, kg/m3	uncertainty
288.15	100	953.4	0.5
288.15	2100	954.5	0.5
288.15	4000	955.6	0.5
288.15	6100	956.8	0.5
288.15	7900	957.8	0.5
288.15	9900	958.9	0.6
288.15	12100	960.1	0.6
288.15	14000	961.2	0.6
288.15	16000	962.2	0.6
288.15	18000	963.3	0.6
288.15	19800	964.3	0.6
298.15	100	943.8	0.5
298.15	2000	945	0.5
298.15	4100	946.2	0.5
298.15	6100	947.4	0.6
298.15	8100	948.6	0.6
298.15	10100	949.8	0.6
298.15	12100	951	0.6
298.15	14100	952.1	0.6
298.15	16300	953.3	0.7
298.15	18300	954.3	0.7
298.15	20100	955.5	0.7
308.15	100	935	0.5
308.15	2000	936.2	0.5
308.15	4100	937.6	0.6
308.15	6100	938.9	0.6
308.15	8100	940	0.6
308.15	10100	941.2	0.6
308.15	12100	942.5	0.7
308.15	14300	943.7	0.7
308.15	16300	944.9	0.7
308.15	18300	946	0.7
308.15	20200	947	0.7
318.15	100	925.5	0.5
318.15	2100	926.9	0.6
318.15	4000	928.3	0.6
318.15	6000	929.6	0.6
318.15	7900	930.8	0.6
318.15	10200	932.2	0.7
318.15	12000	933.4	0.7
318.15	14000	934.5	0.7
318.15	16000	935.8	0.7
318.15	18000	937	0.8
318.15	20200	938.1	0.8

System: N,N-dimethylethanamide; phases: Liquid
Property: Mass density, kg/m3 (Liquid); method: VIBTUB:UFactor:6
Temperature, K	Pressure, kPa	Mass density, kg/m3	uncertainty
288.15	100	945.7	0.5
288.15	2000	946.7	0.5
288.15	4000	947.8	0.5
288.15	6000	949	0.6
288.15	8100	950.1	0.6
288.15	9900	951.1	0.6
288.15	12000	952.2	0.6
288.15	13900	953.2	0.6
288.15	16000	954.3	0.6
288.15	18100	955.4	0.7
288.15	20000	956.5	0.7
298.15	100	937	0.5
298.15	2000	938.1	0.5
298.15	4100	939.4	0.6
298.15	6100	940.6	0.6
298.15	8100	941.8	0.6
298.15	10000	943	0.6
298.15	12100	944.1	0.7
298.15	14200	945.3	0.7
298.15	16300	946.4	0.7
298.15	18400	947.5	0.7
298.15	20100	948.6	0.7
308.15	100	927.9	0.5
308.15	2000	929.1	0.6
308.15	4100	930.4	0.6
308.15	6100	931.6	0.6
308.15	8100	932.8	0.6
308.15	10100	934	0.7
308.15	12100	935.3	0.7
308.15	14200	936.5	0.7
308.15	16300	937.6	0.7
308.15	18200	938.7	0.8
308.15	20200	939.9	0.8
318.15	100	918.7	0.5
318.15	2000	919.8	0.6
318.15	4000	921.2	0.6
318.15	6000	922.5	0.6
318.15	8000	923.8	0.7
318.15	9900	925	0.7
318.15	12000	926.3	0.7
318.15	14000	927.5	0.8
318.15	16000	928.7	0.8
318.15	18100	930	0.8
318.15	20000	931.3	0.8

System: 1-chlorobutane; phases: Liquid
Property: Mass density, kg/m3 (Liquid); method: VIBTUB:UFactor:2
Temperature, K	Pressure, kPa	Mass density, kg/m3	uncertainty
288.15	100	891.8	0.2
288.15	2000	893.6	0.3
288.15	4100	895.6	0.3
288.15	6100	897.5	0.3
288.15	8100	899.4	0.3
288.15	10100	901.3	0.3
288.15	12100	903	0.3
288.15	14100	904.9	0.3
288.15	16300	906.7	0.3
288.15	18400	908.5	0.3
288.15	20200	910.3	0.3
298.15	100	880.6	0.3
298.15	2000	882.6	0.3
298.15	4100	884.9	0.3
298.15	6100	886.8	0.3
298.15	8100	888.7	0.3
298.15	10100	890.9	0.3
298.15	12100	892.8	0.3
298.15	14200	894.7	0.3
298.15	16200	896.5	0.3
298.15	18300	898.5	0.3
298.15	20400	900.2	0.3
308.15	100	870	0.3
308.15	2000	872.1	0.3
308.15	4100	874.4	0.3
308.15	6100	876.5	0.3
308.15	8100	878.6	0.3
308.15	10100	880.8	0.3
308.15	12100	882.9	0.3
308.15	14200	884.9	0.3
308.15	16200	886.8	0.3
308.15	18300	888.8	0.4
308.15	20200	890.6	0.4
318.15	100	859.1	0.3
318.15	2000	861.5	0.3
318.15	4000	863.8	0.3
318.15	6100	866.3	0.3
318.15	8100	868.7	0.3
318.15	10100	870.9	0.3
318.15	12100	873.1	0.3
318.15	14100	875.1	0.3
318.15	16200	877.2	0.4
318.15	18400	879.3	0.4
318.15	20200	881.2	0.4

System: 1-chlorohexane; phases: Liquid
Property: Mass density, kg/m3 (Liquid); method: VIBTUB:UFactor:6
Temperature, K	Pressure, kPa	Mass density, kg/m3	uncertainty
288.15	100	882.7	0.6
288.15	2000	884.4	0.7
288.15	4100	886	0.7
288.15	5900	887.5	0.8
288.15	8100	889.2	0.8
288.15	10100	890.7	0.9
288.15	12200	892.3	0.9
288.15	14200	893.8	0.9
288.15	16200	895.2	1
288.15	18200	896.7	1
288.15	20200	898.3	1.1
298.15	100	873.1	0.6
298.15	2000	874.8	0.7
298.15	4100	876.6	0.7
298.15	6100	878.3	0.8
298.15	8100	879.9	0.8
298.15	10200	881.7	0.9
298.15	12100	883.3	0.9
298.15	14200	885	1
298.15	16400	886.6	1
298.15	18400	888.1	1.1
298.15	20200	889.6	1.1
308.15	100	864.3	0.7
308.15	2000	866.1	0.7
308.15	4100	868	0.8
308.15	6100	869.7	0.8
308.15	8100	871.5	0.9
308.15	10200	873.3	0.9
308.15	12100	875	1
308.15	14200	876.7	1
308.15	16200	878.3	1.1
308.15	18300	879.9	1.1
308.15	20200	881.5	1.2
318.15	100	855.1	0.7
318.15	2000	857	0.7
318.15	4000	858.9	0.8
318.15	6100	860.9	0.9
318.15	8100	862.7	0.9
318.15	10100	864.6	1
318.15	11900	866.1	1
318.15	14100	868.1	1.1
318.15	16100	869.9	1.1
318.15	18000	871.4	1.2
318.15	20000	872.8	1.2

System: 1-chlorooctane; phases: Liquid
Property: Mass density, kg/m3 (Liquid); method: VIBTUB:UFactor:8
Temperature, K	Pressure, kPa	Mass density, kg/m3	uncertainty
288.15	100	877.3	1.3
288.15	2000	878.8	1.3
288.15	4000	880.2	1.4
288.15	6000	881.6	1.5
288.15	8000	883	1.5
288.15	10000	884.4	1.6
288.15	11900	885.8	1.7
288.15	13900	887.1	1.7
288.15	16000	888.4	1.8
288.15	18000	889.7	1.8
288.15	20100	891.2	1.9
298.15	100	868.8	1.3
298.15	2000	870.2	1.3
298.15	4100	871.8	1.4
298.15	6100	873.3	1.5
298.15	8100	874.8	1.6
298.15	10000	876.2	1.6
298.15	12100	877.8	1.7
298.15	14200	879.3	1.8
298.15	16300	880.7	1.8
298.15	18300	882.1	1.9
298.15	20200	883.4	2
308.15	100	861.4	1.3
308.15	2000	862.8	1.4
308.15	4000	864.4	1.4
308.15	6000	865.9	1.5
308.15	7900	867.5	1.6
308.15	10100	869.1	1.7
308.15	12000	870.5	1.7
308.15	14000	872	1.8
308.15	15900	873.3	1.9
308.15	18000	874.8	2
308.15	20000	876.5	2
318.15	100	852.9	1.3
318.15	2000	854.5	1.4
318.15	4000	856.2	1.5
318.15	6000	857.9	1.5
318.15	8000	859.5	1.6
318.15	10000	861.2	1.7
318.15	12000	862.8	1.8
318.15	14000	864.3	1.9
318.15	16000	865.8	1.9
318.15	18000	867.3	2
318.15	20100	868.9	2.1

System: dimethylformamide + 1-chlorobutane; phases: Liquid
Fixed: Temperature, K = 298.15
Property: Mass density, kg/m3 (Liquid); method: VIBTUB:UFactor:4
Mole fraction of dimethylformamide	Pressure, kPa	Mass density, kg/m3	uncertainty
0.0998	100	885.5	0.4
0.0998	2000	887.4	0.4
0.0998	4000	889.3	0.4
0.0998	6000	891.2	0.4
0.0998	8000	893.1	0.4
0.0998	10000	895.1	0.5
0.0998	12000	896.9	0.5
0.0998	14000	898.6	0.5
0.0998	16000	900.4	0.5
0.0998	18000	902.1	0.6
0.0998	20000	903.8	0.6
0.1981	100	890.7	0.4
0.1981	2000	892.5	0.4
0.1981	4000	894.4	0.4
0.1981	6000	896.3	0.4
0.1981	8000	898.1	0.4
0.1981	10000	900	0.5
0.1981	12000	901.6	0.5
0.1981	14000	903.4	0.5
0.1981	16000	905.1	0.5
0.1981	18000	906.8	0.6
0.1981	20000	908.7	0.6
0.2988	100	896.3	0.4
0.2988	2000	898	0.4
0.2988	4000	899.8	0.4
0.2988	6000	901.6	0.4
0.2988	8000	903.3	0.4
0.2988	10000	905.1	0.5
0.2988	12000	906.8	0.5
0.2988	14000	908.4	0.5
0.2988	16000	910.1	0.5
0.2988	18000	911.7	0.5
0.2988	20000	913.1	0.6
0.4019	100	902.3	0.4
0.4019	2000	903.9	0.4
0.4019	4000	905.7	0.4
0.4019	6000	907.3	0.4
0.4019	8000	908.9	0.4
0.4019	10000	910.7	0.5
0.4019	12000	912.2	0.5
0.4019	14000	913.8	0.5
0.4019	16000	915.3	0.5
0.4019	18000	916.7	0.5
0.4019	20000	918.3	0.6
0.501	100	908.6	0.4
0.501	2000	910.1	0.4
0.501	4000	911.7	0.4
0.501	6000	913.3	0.4
0.501	8000	914.9	0.4
0.501	10000	916.6	0.5
0.501	11900	918	0.5
0.501	14000	919.5	0.5
0.501	16000	921	0.5
0.501	18000	922.4	0.5
0.501	20000	924	0.5
0.6087	100	915.5	0.4
0.6087	2000	917	0.4
0.6087	4000	918.5	0.4
0.6087	6000	920	0.4
0.6087	8000	921.5	0.4
0.6087	10000	923	0.5
0.6087	12000	924.4	0.5
0.6087	14000	925.9	0.5
0.6087	16000	927.21	0.5
0.6087	18100	928.6	0.5
0.6087	20000	930.2	0.5
0.7008	100	921.8	0.4
0.7008	2000	923.1	0.4
0.7008	4000	924.6	0.4
0.7008	6000	926	0.4
0.7008	7900	927.5	0.4
0.7008	10000	928.8	0.5
0.7008	12000	930.3	0.5
0.7008	14000	931.7	0.5
0.7008	16000	933	0.5
0.7008	18000	934.3	0.5
0.7008	20000	935.6	0.5
0.8163	100	930.2	0.4
0.8163	2000	931.5	0.4
0.8163	4000	932.8	0.4
0.8163	6000	934.2	0.4
0.8163	8000	935.4	0.4
0.8163	10000	936.8	0.5
0.8163	12000	938.1	0.5
0.8163	14000	939.3	0.5
0.8163	16000	940.6	0.5
0.8163	18000	941.8	0.5
0.8163	20000	943.3	0.5
0.9007	100	936.6	0.4
0.9007	2000	937.8	0.4
0.9007	4000	939.1	0.4
0.9007	6000	940.3	0.4
0.9007	8000	941.5	0.4
0.9007	10000	942.9	0.5
0.9007	12000	944.1	0.5
0.9007	14000	945.3	0.5
0.9007	16000	946.4	0.5
0.9007	18000	947.5	0.5
0.9007	20000	949.1	0.5

System: dimethylformamide + 1-chlorohexane; phases: Liquid
Fixed: Temperature, K = 298.15
Property: Mass density, kg/m3 (Liquid); method: VIBTUB:UFactor:6
Mole fraction of dimethylformamide	Pressure, kPa	Mass density, kg/m3	uncertainty
0.097	100	876.9	0.6
0.097	2000	878.5	0.7
0.097	4000	880.2	0.7
0.097	6000	881.8	0.8
0.097	8000	883.4	0.8
0.097	10000	885.1	0.9
0.097	12000	886.7	0.9
0.097	14000	888.2	1
0.097	16000	889.7	1
0.097	18000	891.2	1.1
0.097	20000	892.8	1.1
0.2019	100	881.2	0.6
0.2019	2000	882.8	0.7
0.2019	4000	884.4	0.7
0.2019	6000	886	0.8
0.2019	8000	887.6	0.8
0.2019	10000	889.3	0.9
0.2019	12000	890.8	0.9
0.2019	14000	892.3	0.9
0.2019	16000	893.8	1
0.2019	18000	895.3	1
0.2019	20000	896.6	1.1
0.2707	100	884.4	0.6
0.2707	2000	885.9	0.7
0.2707	4000	887.5	0.7
0.2707	6000	889.1	0.8
0.2707	8000	890.7	0.8
0.2707	10000	892.3	0.8
0.2707	12000	893.8	0.9
0.2707	14000	895.2	0.9
0.2707	16000	896.7	1
0.2707	18000	898.1	1
0.2707	20000	899.6	1
0.4007	100	891.3	0.6
0.4007	2000	892.8	0.6
0.4007	4000	894.3	0.7
0.4007	6000	895.8	0.7
0.4007	8000	897.3	0.8
0.4007	10000	898.8	0.8
0.4007	12000	900	0.9
0.4007	14000	901.8	0.9
0.4007	16000	903.2	0.9
0.4007	18000	904.6	1
0.4007	20000	906	1
0.5017	100	897.4	0.6
0.5017	2000	898.8	0.6
0.5017	4000	900.3	0.7
0.5017	6000	901.8	0.7
0.5017	8000	903.3	0.8
0.5017	10000	904.8	0.8
0.5017	12000	906.3	0.8
0.5017	14000	907.6	0.9
0.5017	16000	909.1	0.9
0.5017	18000	910.4	0.9
0.5017	20000	911.8	1
0.6155	100	905.4	0.6
0.6155	2000	906.9	0.6
0.6155	4000	908.4	0.6
0.6155	6000	909.8	0.7
0.6155	8000	911.2	0.7
0.6155	10000	912.7	0.8
0.6155	11900	914	0.8
0.6155	14000	915.4	0.8
0.6155	16000	916.8	0.9
0.6155	18000	918.1	0.9
0.6155	20000	919.5	0.9
0.6988	100	912.7	0.6
0.6988	2000	914	0.6
0.6988	4000	915.5	0.6
0.6988	6000	916.8	0.7
0.6988	8000	918.2	0.7
0.6988	10000	919.6	0.7
0.6988	12000	920.9	0.8
0.6988	14000	922.3	0.8
0.6988	16000	923	0.8
0.6988	18000	924.9	0.8
0.6988	20000	926.2	0.9
0.7993	100	921.8	0.5
0.7993	2000	923.1	0.6
0.7993	4000	924.4	0.6
0.7993	6000	925.7	0.6
0.7993	8000	927	0.7
0.7993	10000	928.4	0.7
0.7993	12000	929.7	0.7
0.7993	13900	930.9	0.7
0.7993	16000	932.1	0.8
0.7993	17900	933.3	0.8
0.7993	20000	934.6	0.8
0.9018	100	932.6	0.5
0.9018	2000	933.8	0.5
0.9018	4000	935.1	0.6
0.9018	6000	936.4	0.6
0.9018	8000	937.6	0.6
0.9018	10000	938.9	0.6
0.9018	12000	940.1	0.7
0.9018	14000	941.3	0.7
0.9018	16000	942.5	0.7
0.9018	18000	943.6	0.7
0.9018	20000	944.9	0.7

System: dimethylformamide + 1-chlorooctane; phases: Liquid
Fixed: Temperature, K = 298.15
Property: Mass density, kg/m3 (Liquid); method: VIBTUB:UFactor:6
Mole fraction of dimethylformamide	Pressure, kPa	Mass density, kg/m3	uncertainty
0.1042	100	871.7	1
0.1042	2000	873.1	1.1
0.1042	4000	874.7	1.1
0.1042	6000	876.1	1.2
0.1042	7900	877.6	1.3
0.1042	10000	879.1	1.3
0.1042	12000	880.6	1.4
0.1042	14000	882	1.4
0.1042	15900	883.2	1.5
0.1042	18000	884.6	1.5
0.1042	20000	886	1.5
0.2009	100	875.3	1
0.2009	2000	876.7	1
0.2009	4000	878.2	1.1
0.2009	6000	879.7	1.1
0.2009	8000	881.1	1.2
0.2009	10000	882.7	1.2
0.2009	12000	884.1	1.3
0.2009	13900	885.4	1.3
0.2009	16000	886.4	1.4
0.2009	18000	888.2	1.4
0.2009	20100	889.6	1.5
0.2669	100	877.9	0.9
0.2669	2000	879.4	1
0.2669	4000	880.8	1
0.2669	6000	882.3	1.1
0.2669	8000	883.7	1.1
0.2669	10000	885.2	1.2
0.2669	12000	886.6	1.2
0.2669	14000	887.9	1.3
0.2669	15900	889.2	1.3
0.2669	18000	890.6	1.4
0.2669	20000	891.8	1.4
0.4023	100	884.2	0.9
0.4023	2000	885.6	0.9
0.4023	4000	887.1	1
0.4023	6000	888.5	1
0.4023	8000	889.9	1.1
0.4023	10000	891.4	1.1
0.4023	12000	892.8	1.1
0.4023	14000	894.1	1.2
0.4023	16000	895.4	1.2
0.4023	17900	896.7	1.3
0.4023	20000	898	1.3
0.4992	100	889.7	0.8
0.4992	2000	891	0.8
0.4992	4000	892.5	0.9
0.4992	6000	893.9	0.9
0.4992	8000	895.3	1
0.4992	10000	896.8	1
0.4992	12000	898.1	1.1
0.4992	14000	899.4	1.1
0.4992	15900	900.7	1.1
0.4992	18000	902	1.2
0.4992	20000	903.3	1.2
0.6035	100	896.8	0.7
0.6035	2000	898.2	0.8
0.6035	4000	899.6	0.8
0.6035	6000	900.9	0.9
0.6035	8000	902.3	0.9
0.6035	10000	903.7	1
0.6035	12000	905	1
0.6035	14000	906.3	1
0.6035	16000	907.7	1.1
0.6035	18000	908.9	1.1
0.6035	20000	910.3	1.1
0.6982	100	904.7	0.7
0.6982	2000	906	0.7
0.6982	4000	907.5	0.8
0.6982	6000	908.8	0.8
0.6982	8000	910.1	0.8
0.6982	10000	911.4	0.9
0.6982	12000	912.7	0.9
0.6982	14000	914	0.9
0.6982	16000	915.4	1
0.6982	18000	916.5	1
0.6982	20000	917.7	1
0.8002	100	914.9	0.6
0.8002	2000	916.1	0.7
0.8002	4000	917.4	0.7
0.8002	6000	918.8	0.7
0.8002	8000	920.1	0.8
0.8002	9900	921.4	0.8
0.8002	12000	922.7	0.8
0.8002	14000	924	0.9
0.8002	16000	925	0.9
0.8002	18000	926.3	0.9
0.8002	20000	927.5	0.9
0.9001	100	927.7	0.6
0.9001	2000	928.8	0.6
0.9001	4000	930.2	0.6
0.9001	6000	931.4	0.7
0.9001	8000	932.6	0.7
0.9001	10000	933.9	0.7
0.9001	12000	935.1	0.7
0.9001	14000	936.3	0.8
0.9001	16000	937.6	0.8
0.9001	17900	938.6	0.8
0.9001	20000	939.8	0.8

System: 1-chlorobutane + N,N-dimethylethanamide; phases: Liquid
Fixed: Temperature, K = 298.15
Property: Mass density, kg/m3 (Liquid); method: VIBTUB:UFactor:4
Mole fraction of N,N-dimethylethanamide	Pressure, kPa	Mass density, kg/m3	uncertainty
0.0967	100	885.6	0.4
0.0967	2000	887.5	0.4
0.0967	4000	889.5	0.4
0.0967	6000	891.4	0.4
0.0967	8000	893.3	0.4
0.0967	10000	895.3	0.5
0.0967	12000	897.1	0.5
0.0967	14000	898.9	0.5
0.0967	16000	900.6	0.5
0.0967	17900	902.3	0.6
0.0967	20000	904.2	0.6
0.2105	100	891.8	0.4
0.2105	2000	893.6	0.4
0.2105	4000	895.5	0.4
0.2105	6000	897.2	0.4
0.2105	8000	899.1	0.4
0.2105	10000	900.9	0.5
0.2105	12000	902.6	0.5
0.2105	14000	904.4	0.5
0.2105	16000	906.1	0.5
0.2105	17900	907.6	0.5
0.2105	20000	909.3	0.6
0.2984	100	896.7	0.4
0.2984	2000	898.4	0.4
0.2984	4000	900.1	0.4
0.2984	6000	901.9	0.4
0.2984	8000	903.6	0.4
0.2984	10000	905.3	0.5
0.2984	12000	907	0.5
0.2984	14000	908.6	0.5
0.2984	16000	910.2	0.5
0.2984	18000	911.7	0.5
0.2984	20100	913.5	0.6
0.4019	100	902.5	0.4
0.4019	2000	904.1	0.4
0.4019	4000	905.8	0.4
0.4019	6000	907.45	0.41
0.4019	8000	909	0.4
0.4019	10000	910.9	0.5
0.4019	11900	912.3	0.5
0.4019	13900	913.9	0.5
0.4019	16000	915.4	0.5
0.4019	18000	916.9	0.5
0.4019	20100	918.5	0.6
0.499	100	908.1	0.4
0.499	2000	909.6	0.4
0.499	4000	911.2	0.4
0.499	6000	912.7	0.4
0.499	8000	914.2	0.4
0.499	10000	915.8	0.5
0.499	12000	917.3	0.5
0.499	14000	918.8	0.5
0.499	16000	920.2	0.5
0.499	18000	921.6	0.5
0.499	20100	923.1	0.5
0.5947	100	913.3	0.4
0.5947	2000	914.8	0.4
0.5947	4000	916.2	0.4
0.5947	6000	917.8	0.4
0.5947	8000	919.2	0.4
0.5947	10000	920.7	0.5
0.5947	12000	922.1	0.5
0.5947	14000	923.5	0.5
0.5947	16000	924.8	0.5
0.5947	18000	926.2	0.5
0.5947	20100	927.6	0.5
0.6992	100	919.2	0.4
0.6992	2000	920.6	0.4
0.6992	4000	922.1	0.4
0.6992	6000	923.4	0.4
0.6992	8000	924.8	0.4
0.6992	10000	926.2	0.5
0.6992	12000	927.6	0.5
0.6992	14000	929	0.5
0.6992	16000	930.3	0.5
0.6992	18000	931.5	0.5
0.6992	20000	932.9	0.5
0.7997	100	924.7	0.4
0.7997	2000	925.9	0.4
0.7997	4000	927.3	0.4
0.7997	6000	928.7	0.4
0.7997	8000	930	0.5
0.7997	10000	931.3	0.5
0.7997	12000	932.6	0.5
0.7997	14000	933.8	0.5
0.7997	15900	935.1	0.5
0.7997	17900	936.2	0.5
0.7997	20000	937.7	0.5
0.9015	100	930.4	0.4
0.9015	2000	931.6	0.4
0.9015	4000	932.9	0.4
0.9015	6000	934.1	0.4
0.9015	8000	935.5	0.5
0.9015	10000	936.7	0.5
0.9015	12000	937.9	0.5
0.9015	14000	939	0.5
0.9015	16000	940.3	0.5
0.9015	18000	941.5	0.5
0.9015	20000	942.6	0.5

System: N,N-dimethylethanamide + 1-chlorohexane; phases: Liquid
Fixed: Temperature, K = 298.15
Property: Mass density, kg/m3 (Liquid); method: VIBTUB:UFactor:4
Mole fraction of N,N-dimethylethanamide	Pressure, kPa	Mass density, kg/m3	uncertainty
0.0952	100	877.1	0.5
0.0952	2000	878.7	0.5
0.0952	4000	880.4	0.5
0.0952	6000	882	0.6
0.0952	8000	883.6	0.6
0.0952	10000	885.3	0.6
0.0952	12000	886.8	0.7
0.0952	14000	888.4	0.7
0.0952	16000	889.9	0.7
0.0952	18000	891.3	0.8
0.0952	20000	892.9	0.8
0.2003	100	881.6	0.5
0.2003	2000	883.2	0.5
0.2003	4000	884.8	0.5
0.2003	6000	886.4	0.6
0.2003	8000	888	0.6
0.2003	10000	889.6	0.6
0.2003	12000	891.2	0.7
0.2003	14000	892.78	0.68
0.2003	16000	894.1	0.7
0.2003	18000	895.6	0.7
0.2003	20000	897.2	0.8
0.3011	100	886.4	0.5
0.3011	2000	888	0.5
0.3011	4000	889.5	0.5
0.3011	6000	891.2	0.6
0.3011	8000	892.7	0.6
0.3011	10000	894.3	0.6
0.3011	12000	895.8	0.6
0.3011	14000	897.2	0.7
0.3011	16000	898.7	0.7
0.3011	18000	900.1	0.7
0.3011	20000	901.8	0.7
0.4036	100	891.9	0.5
0.4036	2000	893.41	0.48
0.4036	4000	895	0.5
0.4036	6000	896.5	0.5
0.4036	8000	898	0.6
0.4036	10000	899.6	0.6
0.4036	12000	901	0.6
0.4036	14000	902.4	0.7
0.4036	16000	903.8	0.7
0.4036	18000	905.2	0.7
0.4036	20100	906.8	0.7
0.503	100	897.5	0.5
0.503	2000	899	0.5
0.503	4000	900.4	0.5
0.503	6000	901.9	0.5
0.503	8000	903.4	0.6
0.503	10000	904.9	0.6
0.503	12000	906.3	0.6
0.503	14000	907.6	0.6
0.503	16000	909	0.7
0.503	18000	910.3	0.7
0.503	20000	911.8	0.7
0.6051	100	903.8	0.4
0.6051	2000	905.2	0.5
0.6051	4000	906.7	0.5
0.6051	6000	908.1	0.5
0.6051	8000	909.5	0.5
0.6051	10000	910.9	0.6
0.6051	12000	912.3	0.6
0.6051	14000	913.6	0.6
0.6051	16000	914.9	0.6
0.6051	18000	916.2	0.7
0.6051	20000	917.7	0.67
0.6992	100	910.4	0.4
0.6992	2000	911.7	0.5
0.6992	4000	913.1	0.5
0.6992	6000	914.5	0.5
0.6992	8000	915.9	0.5
0.6992	10000	917.3	0.5
0.6992	11900	918.6	0.6
0.6992	14000	919.9	0.6
0.6992	16000	921.2	0.6
0.6992	18000	922.6	0.6
0.6992	20000	924	0.6
0.8013	100	918.4	0.4
0.8013	2000	919.7	0.5
0.8013	4000	921	0.5
0.8013	6000	922.3	0.5
0.8013	8000	923.6	0.5
0.8013	10000	925	0.5
0.8013	12000	926.3	0.5
0.8013	14000	927.5	0.6
0.8013	16000	928.7	0.6
0.8013	18000	929.9	0.6
0.8013	20000	931.3	0.6
0.8996	100	926.8	0.4
0.8996	2000	928.1	0.4
0.8996	4000	929.3	0.5
0.8996	6000	930.5	0.5
0.8996	8000	931.7	0.5
0.8996	10000	933.1	0.5
0.8996	12000	934.3	0.5
0.8996	14000	935.5	0.5
0.8996	16000	936.6	0.6
0.8996	18000	937.7	0.6
0.8996	20100	939	0.6

System: 1-chlorooctane + N,N-dimethylethanamide; phases: Liquid
Fixed: Temperature, K = 298.15
Property: Mass density, kg/m3 (Liquid); method: VIBTUB:UFactor:6
Mole fraction of N,N-dimethylethanamide	Pressure, kPa	Mass density, kg/m3	uncertainty
0.0963	100	872	1
0.0963	2000	873.5	1.1
0.0963	4000	875	1.2
0.0963	6000	876.5	1.2
0.0963	8000	877.9	1.3
0.0963	10000	879.5	1.3
0.0963	12000	880.9	1.4
0.0963	14000	882.3	1.4
0.0963	16000	883.7	1.5
0.0963	18000	885	1.5
0.0963	20000	886.5	1.6
0.2006	100	875.8	1
0.2006	2000	877.2	1
0.2006	4000	878.7	1.1
0.2006	6000	880.2	1.1
0.2006	8000	881.6	1.2
0.2006	10000	883.1	1.2
0.2006	12000	884.5	1.3
0.2006	14000	885.9	1.3
0.2006	16000	887.3	1.4
0.2006	18000	888.6	1.4
0.2006	20000	890.1	1.5
0.2938	100	879.6	0.9
0.2938	2000	881.1	1
0.2938	4000	882.5	1
0.2938	6000	884	1.1
0.2938	8000	885.5	1.1
0.2938	10000	887	1.2
0.2938	12000	888.3	1.2
0.2938	14000	889.7	1.3
0.2938	16000	891.1	1.3
0.2938	18000	892.4	1.4
0.2938	20000	893.9	1.4
0.4059	100	884.87	0.85
0.4059	2000	886.2	0.9
0.4059	4000	887.6	1
0.4059	6000	889	1
0.4059	8000	890.4	1
0.4059	10000	892	1.1
0.4059	12000	893.3	1.1
0.4059	14000	894.6	1.2
0.4059	16000	896	1.2
0.4059	18000	897.3	1.3
0.4059	20000	898.5	1.3
0.5022	100	890.2	0.8
0.5022	2000	891.5	0.8
0.5022	4000	892.9	0.9
0.5022	6000	894.3	0.9
0.5022	8000	895.8	1
0.5022	10000	897.3	1
0.5022	12000	898.5	1.1
0.5022	14000	899.9	1.1
0.5022	16000	901.1	1.1
0.5022	18000	902.4	1.2
0.5022	20000	903.8	1.2
0.602	100	896.7	0.7
0.602	2000	898.1	0.8
0.602	4000	899.4	0.8
0.602	6000	900.8	0.9
0.602	8000	902.2	0.9
0.602	10000	903.6	1
0.602	12000	904.9	1
0.602	14000	906.1	1
0.602	15900	907.4	1.1
0.602	18000	908.7	1.1
0.602	20000	910	1.1
0.7005	100	904.1	0.7
0.7005	2000	905.4	0.7
0.7005	4000	906.8	0.8
0.7005	6000	908.1	0.8
0.7005	8000	909.4	0.8
0.7005	10000	910.8	0.9
0.7005	12000	912.1	0.9
0.7005	14000	913.4	1
0.7005	16000	914.6	1
0.7005	18000	915.8	1
0.7005	20000	917.1	1
0.8075	100	913.7	0.6
0.8075	2000	914.9	0.7
0.8075	4000	916.3	0.7
0.8075	6000	917.5	0.7
0.8075	8000	918.8	0.8
0.8075	10000	920	0.8
0.8075	12000	921.3	0.8
0.8075	14000	922.4	0.9
0.8075	16000	923.7	0.9
0.8075	18000	924.9	0.9
0.8075	20000	926.1	0.9
0.901	100	923.6	0.6
0.901	2000	924.8	0.6
0.901	4000	926.1	0.6
0.901	6000	927.3	0.7
0.901	8000	928.5	0.7
0.901	10000	929.8	0.7
0.901	12000	931	0.7
0.901	14000	932.2	0.8
0.901	16000	933.3	0.8
0.901	18000	934.4	0.8
0.901	20000	935.7	0.8
