Measured thermophysical data. Thermodynamic Properties of Inorganic Salts in Nonaqeous Solvents. IV. Apparent Molar Volumes and Compressibilities of Divalent Transition-Metal Bromides and Chlorides in Acetonitrile
Source: J. Chem. Eng. Data, 2007, 10.1021/je7001946
Compound 1: manganese(II) bromide, Br2Mn, InChI=1S/2BrH.Mn/h2*1H;/q;;+2/p-2
Compound 2: cobalt(II) bromide, Br2Co, InChI=1S/2BrH.Co/h2*1H;/q;;+2/p-2
Compound 3: zinc bromide, Br2Zn, InChI=1S/2BrH.Zn/h2*1H;/q;;+2/p-2
Compound 4: cobalt chloride, Cl2Co, InChI=1S/2ClH.Co/h2*1H;/q;;+2/p-2
Compound 5: zinc chloride, Cl2Zn, InChI=1S/2ClH.Zn/h2*1H;/q;;+2/p-2
Compound 6: acetonitrile, C2H3N, InChI=1S/C2H3N/c1-2-3/h1H3

System: acetonitrile; phases: Liquid
Property: Speed of sound, m/s (Liquid); method: Pulse-echo method
Pressure, kPa	Temperature, K	Speed of sound, m/s	uncertainty
101.3	298.15	1278.28	1.19

System: acetonitrile; phases: Liquid
Fixed: Pressure, kPa = 101.3
Property: Mass density, kg/m3 (Liquid); method: VIBTUB:UFactor:4
Temperature, K	Mass density, kg/m3	uncertainty
288.15	787.299	0.599
288.15	787.315	0.601
288.15	787.313	0.599
288.15	787.297	0.587
288.15	787.303	0.586
293.15	781.923	0.606
293.15	781.939	0.607
293.15	781.935	0.605
293.15	781.919	0.593
293.15	781.922	0.593
298.15	776.525	0.612
298.15	776.538	0.614
298.15	776.535	0.612
298.15	776.518	0.6
298.15	776.522	0.599
303.15	771.097	0.619
303.15	771.112	0.62
303.15	771.106	0.618
303.15	771.09	0.607
303.15	771.095	0.606
308.15	765.64	0.625
308.15	765.653	0.627
308.15	765.65	0.625
308.15	765.631	0.613
308.15	765.637	0.613
313.15	760.148	0.632
313.15	760.164	0.633
313.15	760.159	0.632
313.15	760.142	0.62
313.15	760.151	0.62
323.15	749.055	0.645
323.15	749.073	0.647
323.15	749.07	0.645
323.15	749.056	0.634
323.15	749.071	0.634

System: acetonitrile + manganese(II) bromide; phases: Liquid
Fixed: Pressure, kPa = 101.3
Fixed: Temperature, K = 298.15
Property: Speed of sound, m/s (Liquid); method: Pulse-echo method
Molality, mol/kg of manganese(II) bromide	Speed of sound, m/s	uncertainty
0.06115	1277.23	1.19
0.08138	1276.92	1.19
0.1006	1276.65	1.19
0.1406	1276.11	1.19
0.1712	1275.69	1.19
0.1995	1275.31	1.19

System: acetonitrile + manganese(II) bromide; phases: Liquid
Fixed: Pressure, kPa = 101.3
Property: Mass density, kg/m3 (Liquid); method: VIBTUB:UFactor:4
Temperature, K	Molality, mol/kg of manganese(II) bromide	Mass density, kg/m3	uncertainty
288.15	0	787.299	0.599
288.15	0.0415	793.652	0.592
288.15	0.0513	795.156	0.59
288.15	0.06115	796.676	0.588
288.15	0.07131	798.243	0.587
288.15	0.08138	799.819	0.585
288.15	0.09054	801.238	0.583
288.15	0.1006	802.824	0.582
288.15	0.1214	806.091	0.578
288.15	0.1406	809.125	0.575
288.15	0.1603	812.287	0.571
288.15	0.1712	814.024	0.569
288.15	0.1804	815.501	0.567
288.15	0.1995	818.585	0.564
293.15	0	781.923	0.606
293.15	0.0415	788.26	0.598
293.15	0.0513	789.764	0.596
293.15	0.06115	791.28	0.595
293.15	0.07131	792.85	0.593
293.15	0.08138	794.414	0.591
293.15	0.09054	795.84	0.59
293.15	0.1006	797.413	0.588
293.15	0.1214	800.671	0.584
293.15	0.1406	803.696	0.581
293.15	0.1603	806.853	0.577
293.15	0.1712	808.58	0.575
293.15	0.1804	810.054	0.574
293.15	0.1995	813.117	0.57
298.15	0	776.525	0.612
298.15	0.0415	782.85	0.605
298.15	0.0513	784.353	0.603
298.15	0.06115	785.862	0.601
298.15	0.07131	787.428	0.599
298.15	0.08138	788.989	0.598
298.15	0.09054	790.408	0.596
298.15	0.1006	791.982	0.594
298.15	0.1214	795.23	0.59
298.15	0.1406	798.249	0.587
298.15	0.1603	801.398	0.584
298.15	0.1712	803.121	0.582
298.15	0.1804	804.59	0.58
298.15	0.1995	807.642	0.576
303.15	0	771.097	0.619
303.15	0.0415	777.408	0.611
303.15	0.0513	778.907	0.609
303.15	0.06115	780.415	0.608
303.15	0.07131	781.978	0.606
303.15	0.08138	783.537	0.604
303.15	0.09054	784.953	0.603
303.15	0.1006	786.518	0.601
303.15	0.1214	789.765	0.597
303.15	0.1406	792.776	0.594
303.15	0.1603	795.916	0.59
303.15	0.1712	797.634	0.588
303.15	0.1804	799.11	0.587
303.15	0.1995	802.149	0.583
308.15	0	765.64	0.625
308.15	0.0415	771.942	0.618
308.15	0.0513	773.433	0.616
308.15	0.06115	774.941	0.614
308.15	0.07131	776.494	0.612
308.15	0.08138	778.054	0.611
308.15	0.09054	779.461	0.609
308.15	0.1006	781.03	0.607
308.15	0.1214	784.269	0.604
308.15	0.1406	787.272	0.6
308.15	0.1603	790.407	0.597
308.15	0.1712	792.128	0.595
308.15	0.1804	793.589	0.593
308.15	0.1995	796.622	0.589
313.15	0	760.148	0.632
313.15	0.0415	766.441	0.625
313.15	0.0513	767.926	0.623
313.15	0.06115	769.432	0.621
313.15	0.07131	770.984	0.619
313.15	0.08138	772.539	0.617
313.15	0.09054	773.94	0.616
313.15	0.1006	775.513	0.614
313.15	0.1214	778.744	0.61
313.15	0.1406	781.741	0.607
313.15	0.1603	784.868	0.603
313.15	0.1712	786.584	0.601
313.15	0.1804	788.041	0.6
313.15	0.1995	791.065	0.596
323.15	0	749.055	0.645
323.15	0.0415	755.33	0.638
323.15	0.0513	756.805	0.636
323.15	0.06115	758.311	0.634
323.15	0.07131	759.855	0.633
323.15	0.08138	761.403	0.631
323.15	0.09054	762.804	0.629
323.15	0.1006	764.368	0.628
323.15	0.1214	767.585	0.624
323.15	0.1406	770.567	0.62
323.15	0.1603	773.687	0.617
323.15	0.1712	775.396	0.615
323.15	0.1804	776.847	0.613
323.15	0.1995	779.856	0.609

System: acetonitrile + cobalt(II) bromide; phases: Liquid
Fixed: Pressure, kPa = 101.3
Fixed: Temperature, K = 298.15
Property: Speed of sound, m/s (Liquid); method: Pulse-echo method
Molality, mol/kg of cobalt(II) bromide	Speed of sound, m/s	uncertainty
0	1278.28	1.19
0.09698	1277.02	1.19
0.1286	1276.04	1.19
0.1587	1275.3	1.19
0.19	1274.64	1.19
0.2204	1273.9	1.19
0.2636	1273.2	1.19
0.3089	1272.1	1.19

System: acetonitrile + cobalt(II) bromide; phases: Liquid
Fixed: Pressure, kPa = 101.3
Property: Mass density, kg/m3 (Liquid); method: VIBTUB:UFactor:4
Temperature, K	Molality, mol/kg of cobalt(II) bromide	Mass density, kg/m3	uncertainty
288.15	0	787.315	0.601
288.15	0.06384	797.529	0.589
288.15	0.08092	800.3	0.586
288.15	0.09698	802.926	0.583
288.15	0.1125	805.465	0.58
288.15	0.1286	808.142	0.578
288.15	0.1428	810.505	0.575
288.15	0.1587	813.161	0.572
288.15	0.19	818.466	0.566
288.15	0.2204	823.615	0.561
288.15	0.2527	829.214	0.555
288.15	0.2636	831.14	0.553
288.15	0.2777	833.591	0.551
288.15	0.3089	839.134	0.545
293.15	0	781.939	0.607
293.15	0.06384	792.118	0.595
293.15	0.08092	794.88	0.592
293.15	0.09698	797.495	0.59
293.15	0.1125	800.033	0.587
293.15	0.1286	802.7	0.584
293.15	0.1428	805.061	0.581
293.15	0.1587	807.703	0.579
293.15	0.19	812.988	0.573
293.15	0.2204	818.13	0.567
293.15	0.2527	823.715	0.561
293.15	0.2636	825.637	0.559
293.15	0.2777	828.085	0.557
293.15	0.3089	833.612	0.551
298.15	0	776.538	0.614
298.15	0.06384	786.677	0.601
298.15	0.08092	789.432	0.599
298.15	0.09698	792.044	0.596
298.15	0.1125	794.565	0.593
298.15	0.1286	797.232	0.591
298.15	0.1428	799.583	0.588
298.15	0.1587	802.224	0.585
298.15	0.19	807.489	0.579
298.15	0.2204	812.623	0.574
298.15	0.2527	818.194	0.568
298.15	0.2636	820.113	0.566
298.15	0.2777	822.557	0.564
298.15	0.3089	828.072	0.557
303.15	0	771.112	0.62
303.15	0.06384	781.218	0.608
303.15	0.08092	783.966	0.605
303.15	0.09698	786.563	0.602
303.15	0.1125	789.08	0.6
303.15	0.1286	791.742	0.597
303.15	0.1428	794.089	0.594
303.15	0.1587	796.713	0.592
303.15	0.19	801.964	0.586
303.15	0.2204	807.083	0.58
303.15	0.2527	812.642	0.574
303.15	0.2636	814.557	0.572
303.15	0.2777	816.995	0.57
303.15	0.3089	822.494	0.564
308.15	0	765.653	0.627
308.15	0.06384	775.72	0.614
308.15	0.08092	778.458	0.612
308.15	0.09698	781.049	0.609
308.15	0.1125	783.57	0.606
308.15	0.1286	786.222	0.603
308.15	0.1428	788.55	0.601
308.15	0.1587	791.168	0.598
308.15	0.19	796.411	0.592
308.15	0.2204	801.513	0.587
308.15	0.2527	807.057	0.581
308.15	0.2636	808.967	0.579
308.15	0.2777	811.404	0.576
308.15	0.3089	816.889	0.57
313.15	0	760.164	0.633
313.15	0.06384	770.192	0.621
313.15	0.08092	772.92	0.618
313.15	0.09698	775.5	0.616
313.15	0.1125	778.02	0.613
313.15	0.1286	780.656	0.61
313.15	0.1428	782.985	0.607
313.15	0.1587	785.595	0.605
313.15	0.19	790.822	0.599
313.15	0.2204	795.917	0.593
313.15	0.2527	801.45	0.587
313.15	0.2636	803.34	0.585
313.15	0.2777	805.778	0.583
313.15	0.3089	811.253	0.576
323.15	0	749.073	0.647
323.15	0.06384	759.026	0.634
323.15	0.08092	761.738	0.632
323.15	0.09698	764.302	0.629
323.15	0.1125	766.801	0.626
323.15	0.1286	769.421	0.623
323.15	0.1428	771.734	0.621
323.15	0.1587	774.335	0.618
323.15	0.19	779.533	0.612
323.15	0.2204	784.593	0.607
323.15	0.2527	790.088	0.601
323.15	0.2636	791.988	0.599
323.15	0.2777	794.405	0.596
323.15	0.3089	799.854	0.59

System: acetonitrile + zinc bromide; phases: Liquid
Fixed: Pressure, kPa = 101.3
Fixed: Temperature, K = 298.15
Property: Speed of sound, m/s (Liquid); method: Pulse-echo method
Molality, mol/kg of zinc bromide	Speed of sound, m/s	uncertainty
0.02964	1277.07	1.19
0.04717	1276.38	1.19
0.06324	1275.72	1.19
0.07952	1275.06	1.19
0.1099	1273.6	1.19
0.1317	1272.55	1.19
0.1554	1271.25	1.19

System: acetonitrile + zinc bromide; phases: Liquid
Fixed: Pressure, kPa = 101.3
Property: Mass density, kg/m3 (Liquid); method: VIBTUB:UFactor:4
Temperature, K	Molality, mol/kg of zinc bromide	Mass density, kg/m3	uncertainty
288.15	0	787.313	0.599
288.15	0.03209	792.171	0.593
288.15	0.0404	793.435	0.592
288.15	0.04717	794.467	0.591
288.15	0.05609	795.839	0.589
288.15	0.06324	796.938	0.588
288.15	0.07124	798.167	0.586
288.15	0.07952	799.446	0.585
288.15	0.09524	801.876	0.582
288.15	0.1099	804.162	0.58
288.15	0.1252	806.567	0.577
288.15	0.1317	807.593	0.576
288.15	0.1402	808.922	0.574
293.15	0	781.935	0.605
293.15	0.03209	786.781	0.599
293.15	0.0404	788.04	0.598
293.15	0.04717	789.072	0.597
293.15	0.05609	790.436	0.595
293.15	0.06324	791.534	0.594
293.15	0.07124	792.766	0.593
293.15	0.07952	794.033	0.591
293.15	0.09524	796.466	0.589
293.15	0.1099	798.743	0.586
293.15	0.1252	801.138	0.583
293.15	0.1317	802.157	0.582
293.15	0.1402	803.487	0.58
298.15	0	776.535	0.612
298.15	0.03209	781.365	0.606
298.15	0.0404	782.622	0.604
298.15	0.04717	783.65	0.604
298.15	0.05609	785.044	0.602
298.15	0.06324	786.108	0.6
298.15	0.07124	787.332	0.599
298.15	0.07952	788.597	0.598
298.15	0.09524	791.02	0.595
298.15	0.1099	793.295	0.593
298.15	0.1252	795.677	0.59
298.15	0.1317	796.698	0.589
298.15	0.1402	798.026	0.587
303.15	0	771.106	0.618
303.15	0.03209	775.922	0.612
303.15	0.0404	777.179	0.611
303.15	0.04717	778.202	0.61
303.15	0.05609	779.559	0.608
303.15	0.06324	780.651	0.607
303.15	0.07124	781.876	0.606
303.15	0.07952	783.143	0.604
303.15	0.09524	785.546	0.602
303.15	0.1099	787.86	0.599
303.15	0.1252	790.202	0.596
303.15	0.1317	791.221	0.595
303.15	0.1402	792.539	0.593
308.15	0	765.65	0.625
308.15	0.03209	770.453	0.619
308.15	0.0404	771.701	0.617
308.15	0.04717	772.724	0.617
308.15	0.05609	774.08	0.615
308.15	0.06324	775.17	0.614
308.15	0.07124	776.393	0.612
308.15	0.07952	777.651	0.611
308.15	0.09524	780.047	0.608
308.15	0.1099	782.357	0.606
308.15	0.1252	784.687	0.602
308.15	0.1317	785.702	0.602
308.15	0.1402	787.024	0.6
313.15	0	760.159	0.632
313.15	0.03209	764.95	0.625
313.15	0.0404	766.197	0.624
313.15	0.04717	767.215	0.623
313.15	0.05609	768.567	0.622
313.15	0.06324	769.655	0.62
313.15	0.07124	770.874	0.619
313.15	0.07952	772.126	0.617
313.15	0.09524	774.52	0.615
313.15	0.1099	776.822	0.612
313.15	0.1252	779.149	0.609
313.15	0.1317	780.162	0.608
313.15	0.1402	781.476	0.606
323.15	0	749.07	0.645
323.15	0.03209	753.836	0.639
323.15	0.0404	755.075	0.638
323.15	0.04717	756.09	0.637
323.15	0.05609	757.437	0.635
323.15	0.06324	758.516	0.634
323.15	0.07124	759.73	0.632
323.15	0.07952	760.98	0.631
323.15	0.09524	763.359	0.628
323.15	0.1099	765.649	0.626
323.15	0.1252	767.969	0.623
323.15	0.1317	768.971	0.622
323.15	0.1402	770.273	0.62

System: acetonitrile + cobalt chloride; phases: Liquid
Fixed: Pressure, kPa = 101.3
Fixed: Temperature, K = 298.15
Property: Speed of sound, m/s (Liquid); method: Pulse-echo method
Molality, mol/kg of cobalt chloride	Speed of sound, m/s	uncertainty
0.08764	1279.85	1.19
0.1171	1280.49	1.19
0.146	1281.1	1.19
0.1743	1281.8	1.19
0.2031	1282.5	1.19
0.2318	1283.23	1.19
0.26	1283.95	1.19
0.2873	1284.75	1.2

System: acetonitrile + cobalt chloride; phases: Liquid
Fixed: Pressure, kPa = 101.3
Property: Mass density, kg/m3 (Liquid); method: VIBTUB:UFactor:4
Temperature, K	Molality, mol/kg of cobalt chloride	Mass density, kg/m3	uncertainty
288.15	0	787.297	0.587
288.15	0.08764	795.418	0.577
288.15	0.1171	798.185	0.573
288.15	0.146	800.89	0.57
288.15	0.1743	803.599	0.567
288.15	0.2031	806.356	0.564
288.15	0.2318	809.121	0.56
288.15	0.26	811.836	0.557
288.15	0.2873	814.493	0.554
293.15	0	781.919	0.593
293.15	0.08764	790.014	0.583
293.15	0.1171	792.779	0.58
293.15	0.146	795.475	0.577
293.15	0.1743	798.184	0.574
293.15	0.2031	800.934	0.57
293.15	0.2318	803.697	0.567
293.15	0.26	806.407	0.564
293.15	0.2873	809.058	0.56
298.15	0	776.518	0.6
298.15	0.08764	784.59	0.59
298.15	0.1171	787.348	0.587
298.15	0.146	790.038	0.583
298.15	0.1743	792.742	0.58
298.15	0.2031	795.487	0.577
298.15	0.2318	798.244	0.574
298.15	0.26	800.953	0.57
298.15	0.2873	803.595	0.567
303.15	0	771.09	0.607
303.15	0.08764	779.137	0.597
303.15	0.1171	781.889	0.593
303.15	0.146	784.571	0.59
303.15	0.1743	787.274	0.587
303.15	0.2031	790.011	0.584
303.15	0.2318	792.763	0.58
303.15	0.26	795.467	0.577
303.15	0.2873	798.109	0.574
308.15	0	765.631	0.613
308.15	0.08764	773.654	0.603
308.15	0.1171	776.401	0.6
308.15	0.146	779.078	0.597
308.15	0.1743	781.773	0.594
308.15	0.2031	784.51	0.591
308.15	0.2318	787.256	0.587
308.15	0.26	789.954	0.584
308.15	0.2873	792.59	0.581
313.15	0	760.142	0.62
313.15	0.08764	768.139	0.61
313.15	0.1171	770.881	0.607
313.15	0.146	773.545	0.604
313.15	0.1743	776.24	0.601
313.15	0.2031	778.973	0.597
313.15	0.2318	781.714	0.594
313.15	0.26	784.407	0.591
313.15	0.2873	787.039	0.587
323.15	0	749.056	0.634
323.15	0.08764	756.997	0.624
323.15	0.1171	759.736	0.622
323.15	0.146	762.939	0.617
323.15	0.1743	765.073	0.613
323.15	0.2031	767.796	0.611
323.15	0.2318	770.528	0.608
323.15	0.26	773.206	0.605
323.15	0.2873	775.843	0.601

System: acetonitrile + zinc chloride; phases: Liquid
Fixed: Pressure, kPa = 101.3
Property: Mass density, kg/m3 (Liquid); method: VIBTUB:UFactor:4
Temperature, K	Molality, mol/kg of zinc chloride	Mass density, kg/m3	uncertainty
288.15	0	787.303	0.586
288.15	0.05257	791.935	0.58
288.15	0.06571	793.095	0.579
288.15	0.07576	794	0.578
288.15	0.08438	794.764	0.577
288.15	0.1077	796.85	0.574
288.15	0.128	798.676	0.572
288.15	0.1487	800.536	0.57
288.15	0.1684	802.335	0.568
288.15	0.1902	804.302	0.565
288.15	0.2114	806.244	0.563
293.15	0	781.922	0.593
293.15	0.05257	786.551	0.587
293.15	0.06571	787.712	0.586
293.15	0.07576	788.618	0.584
293.15	0.08438	789.38	0.584
293.15	0.1077	791.469	0.581
293.15	0.128	793.289	0.579
293.15	0.1487	795.155	0.577
293.15	0.1684	796.955	0.574
293.15	0.1902	798.922	0.572
293.15	0.2114	800.862	0.57
298.15	0	776.522	0.599
298.15	0.05257	781.15	0.594
298.15	0.06571	782.313	0.592
298.15	0.07576	783.217	0.591
298.15	0.08438	783.985	0.59
298.15	0.1077	786.068	0.588
298.15	0.128	787.887	0.585
298.15	0.1487	789.746	0.583
298.15	0.1684	791.541	0.581
298.15	0.1902	793.519	0.579
298.15	0.2114	795.456	0.576
303.15	0	771.095	0.606
303.15	0.05257	775.724	0.6
303.15	0.06571	776.886	0.599
303.15	0.07576	777.79	0.598
303.15	0.08438	778.553	0.597
303.15	0.1077	780.64	0.594
303.15	0.128	782.455	0.592
303.15	0.1487	784.317	0.59
303.15	0.1684	786.115	0.588
303.15	0.1902	788.091	0.585
303.15	0.2114	790.032	0.583
308.15	0	765.637	0.613
308.15	0.05257	770.266	0.607
308.15	0.06571	771.431	0.606
308.15	0.07576	772.33	0.605
308.15	0.08438	773.096	0.604
308.15	0.1077	775.184	0.601
308.15	0.128	777.003	0.599
308.15	0.1487	778.858	0.597
308.15	0.1684	780.661	0.595
308.15	0.1902	782.635	0.592
308.15	0.2114	784.575	0.59
313.15	0	760.151	0.62
313.15	0.05257	764.781	0.614
313.15	0.06571	765.94	0.613
313.15	0.07576	766.841	0.612
313.15	0.08438	767.607	0.611
313.15	0.1077	769.697	0.608
313.15	0.128	771.516	0.606
313.15	0.1487	773.372	0.604
313.15	0.1684	775.165	0.601
313.15	0.1902	777.148	0.599
313.15	0.2114	779.089	0.596
323.15	0	749.071	0.634
323.15	0.05257	753.694	0.628
323.15	0.06571	754.859	0.627
323.15	0.07576	755.76	0.625
323.15	0.08438	756.526	0.625
323.15	0.1077	758.618	0.622
323.15	0.128	760.435	0.62
323.15	0.1487	762.295	0.617
323.15	0.1684	764.103	0.615
323.15	0.1902	766.072	0.613
323.15	0.2114	768.014	0.61
