Measured thermophysical data. Solubilities of Vitamin K3 in Benzene, Toluene, Ethylbenzene, o-Xylene, m-Xylene, and p-Xylene between (299.44 and 344.24) K
Source: J. Chem. Eng. Data, 2008, 10.1021/je7003885
Compound 1: ethylbenzene, C8H10, InChI=1S/C8H10/c1-2-8-6-4-3-5-7-8/h3-7H,2H2,1H3
Compound 2: 1,2-dimethylbenzene, C8H10, InChI=1S/C8H10/c1-7-5-3-4-6-8(7)2/h3-6H,1-2H3
Compound 3: 1,3-dimethylbenzene, C8H10, InChI=1S/C8H10/c1-7-4-3-5-8(2)6-7/h3-6H,1-2H3
Compound 4: 1,4-dimethylbenzene, C8H10, InChI=1S/C8H10/c1-7-3-5-8(2)6-4-7/h3-6H,1-2H3
Compound 5: 2-methyl-1,4-naphthalenedione, C11H8O2, InChI=1S/C11H8O2/c1-7-6-10(12)8-4-2-3-5-9(8)11(7)13/h2-6H,1H3
Compound 6: benzene, C6H6, InChI=1S/C6H6/c1-2-4-6-5-3-1/h1-6H
Compound 7: toluene, C7H8, InChI=1S/C7H8/c1-7-5-3-2-4-6-7/h2-6H,1H3

System: 2-methyl-1,4-naphthalenedione + benzene; phases: Liquid, Crystal
Fixed: Pressure, kPa = 101
Property: Mole fraction of 2-methyl-1,4-naphthalenedione (Liquid); method: Chromatography
Temperature, K	Mole fraction of 2-methyl-1,4-naphthalenedione	uncertainty
299.44	0.1088	0.0026
304.83	0.1302	0.0031
309.71	0.1523	0.0037
313.92	0.1742	0.0042
317.75	0.197	0.0048
321.86	0.2243	0.0055
326.75	0.2616	0.0064
330.75	0.2966	0.0073
334.65	0.3343	0.0082
338.96	0.3791	0.0094

System: 2-methyl-1,4-naphthalenedione + toluene; phases: Liquid, Crystal
Fixed: Pressure, kPa = 101
Property: Mole fraction of 2-methyl-1,4-naphthalenedione (Liquid); method: Chromatography
Temperature, K	Mole fraction of 2-methyl-1,4-naphthalenedione	uncertainty
303.44	0.1194	0.0029
308.84	0.1428	0.0034
313.63	0.1655	0.004
317.65	0.1893	0.0046
321.85	0.2157	0.0052
325.99	0.2463	0.0059
330.04	0.2768	0.0067
333.86	0.3114	0.0075
337.8	0.3507	0.0085
342.59	0.4036	0.0099

System: 2-methyl-1,4-naphthalenedione + ethylbenzene; phases: Liquid, Crystal
Fixed: Pressure, kPa = 101
Property: Mole fraction of 2-methyl-1,4-naphthalenedione (Liquid); method: Chromatography
Temperature, K	Mole fraction of 2-methyl-1,4-naphthalenedione	uncertainty
302.85	0.09763	0.00233
309.44	0.1218	0.0029
314.77	0.1464	0.0035
319.53	0.1726	0.0041
323.75	0.1994	0.0048
327.93	0.2283	0.0055
331.75	0.2602	0.0062
335.44	0.2967	0.0071
339.42	0.3423	0.0083
343.86	0.3957	0.0096

System: 2-methyl-1,4-naphthalenedione + 1,2-dimethylbenzene; phases: Liquid, Crystal
Fixed: Pressure, kPa = 101
Property: Mole fraction of 2-methyl-1,4-naphthalenedione (Liquid); method: Chromatography
Temperature, K	Mole fraction of 2-methyl-1,4-naphthalenedione	uncertainty
302.95	0.1404	0.0034
309.24	0.1687	0.004
314.25	0.1935	0.0046
318.34	0.2186	0.0052
322.45	0.2453	0.0059
326.77	0.2744	0.0066
330.54	0.305	0.0073
334.23	0.3396	0.0082
338.32	0.3829	0.0093
342.43	0.4321	0.0105

System: 2-methyl-1,4-naphthalenedione + 1,3-dimethylbenzene; phases: Liquid, Crystal
Fixed: Pressure, kPa = 101
Property: Mole fraction of 2-methyl-1,4-naphthalenedione (Liquid); method: Chromatography
Temperature, K	Mole fraction of 2-methyl-1,4-naphthalenedione	uncertainty
301.65	0.127	0.003
307.74	0.1515	0.0036
312.76	0.1761	0.0042
317.36	0.2021	0.0048
321.64	0.2295	0.0055
325.94	0.2581	0.0062
329.73	0.2881	0.0069
333.64	0.323	0.0078
337.61	0.3645	0.0088
341.55	0.4109	0.01

System: 2-methyl-1,4-naphthalenedione + 1,4-dimethylbenzene; phases: Liquid, Crystal
Fixed: Pressure, kPa = 101
Property: Mole fraction of 2-methyl-1,4-naphthalenedione (Liquid); method: Chromatography
Temperature, K	Mole fraction of 2-methyl-1,4-naphthalenedione	uncertainty
302.5	0.1289	0.0031
309.53	0.1579	0.0038
314.64	0.1841	0.0044
318.96	0.2103	0.005
323.35	0.2386	0.0057
327.68	0.2687	0.0065
332.02	0.3039	0.0073
335.89	0.3445	0.0083
340.1	0.3899	0.0094
344.24	0.4403	0.0107
