Measured thermophysical data. Measurement and Correlation of Liquid-Liquid Equilibria of Two Imidazolium Ionic Liquids with Thiophene and Methylcyclohexane
Source: J. Chem. Eng. Data, 2007, 10.1021/je700362q
Compound 1: methylcyclohexane, C7H14, InChI=1S/C7H14/c1-7-5-3-2-4-6-7/h7H,2-6H2,1H3, purity 99%
Compound 2: thiophene, C4H4S, InChI=1S/C4H4S/c1-2-4-5-3-1/h1-4H, purity 99.5%
Compound 3: 1-octyl-3-methylimidazolium bis[(trifluoromethyl)sulfonyl]imide, C14H23F6N3O4S2, InChI=1S/C12H23N2.C2F6NO4S2/c1-3-4-5-6-7-8-9-14-11-10-13(2)12-14;3-1(4,5)14(10,11)9-15(12,13)2(6,7)8/h10-12H,3-9H2,1-2H3;/q+1;-1
Compound 4: 1-methyl-3-octylimidazolium tetrafluoroborate, C12H23BF4N2, InChI=1S/C12H23N2.BF4/c1-3-4-5-6-7-8-9-14-11-10-13(2)12-14;2-1(3,4)5/h10-12H,3-9H2,1-2H3;/q+1;-1

System: methylcyclohexane; phases: Liquid
Property: Refractive index (Na D-line) (Liquid); method: Standard Abbe refractometry
Temperature, K	Pressure, kPa	Refractive index (Na D-line)	uncertainty
298.15	101.325	1.42048	0.00075

System: methylcyclohexane; phases: Liquid
Property: Mass density, kg/m3 (Liquid); method: Vibrating tube method
Temperature, K	Pressure, kPa	Mass density, kg/m3	uncertainty
298.15	101.325	764.97	0.313

System: thiophene; phases: Liquid
Property: Refractive index (Na D-line) (Liquid); method: Standard Abbe refractometry
Temperature, K	Pressure, kPa	Refractive index (Na D-line)	uncertainty
298.15	101.325	1.52581	0.00073

System: thiophene; phases: Liquid
Property: Mass density, kg/m3 (Liquid); method: Vibrating tube method
Temperature, K	Pressure, kPa	Mass density, kg/m3	uncertainty
298.15	101.325	1058.5	0.15

System: 1-octyl-3-methylimidazolium bis[(trifluoromethyl)sulfonyl]imide; phases: Liquid
Property: Refractive index (Na D-line) (Liquid); method: Standard Abbe refractometry
Temperature, K	Pressure, kPa	Refractive index (Na D-line)	uncertainty
298.15	101.325	1.43331	0.00123

System: 1-octyl-3-methylimidazolium bis[(trifluoromethyl)sulfonyl]imide; phases: Liquid
Property: Mass density, kg/m3 (Liquid); method: Vibrating tube method
Temperature, K	Pressure, kPa	Mass density, kg/m3	uncertainty
298.15	101.325	1320.76	12.29

System: 1-methyl-3-octylimidazolium tetrafluoroborate; phases: Liquid
Property: Refractive index (Na D-line) (Liquid); method: Standard Abbe refractometry
Temperature, K	Pressure, kPa	Refractive index (Na D-line)	uncertainty
298.15	101.325	1.43329	0.00123

System: 1-methyl-3-octylimidazolium tetrafluoroborate; phases: Liquid
Property: Mass density, kg/m3 (Liquid); method: Vibrating tube method
Temperature, K	Pressure, kPa	Mass density, kg/m3	uncertainty
298.15	101.325	1104.42	8.54

System: methylcyclohexane + 1-octyl-3-methylimidazolium bis[(trifluoromethyl)sulfonyl]imide; phases: Liquid mixture 1, Liquid mixture 2
Property: Mole fraction of 1-octyl-3-methylimidazolium bis[(trifluoromethyl)sulfonyl]imide (Liquid mixture 1); method: Chromatography
Pressure, kPa	Temperature, K	Mole fraction of 1-octyl-3-methylimidazolium bis[(trifluoromethyl)sulfonyl]imide	uncertainty
101	298.15	0.686	0.012

System: thiophene + 1-octyl-3-methylimidazolium bis[(trifluoromethyl)sulfonyl]imide; phases: Liquid mixture 1, Liquid mixture 2
Property: Mole fraction of thiophene (Liquid mixture 1); method: Chromatography
Pressure, kPa	Temperature, K	Mole fraction of thiophene	uncertainty
101	298.15	0.946	0.044

System: methylcyclohexane + 1-methyl-3-octylimidazolium tetrafluoroborate; phases: Liquid mixture 1, Liquid mixture 2
Property: Mole fraction of 1-methyl-3-octylimidazolium tetrafluoroborate (Liquid mixture 1); method: Chromatography
Pressure, kPa	Temperature, K	Mole fraction of 1-methyl-3-octylimidazolium tetrafluoroborate	uncertainty
101	298.15	0.808	0.012

System: thiophene + 1-methyl-3-octylimidazolium tetrafluoroborate; phases: Liquid mixture 1, Liquid mixture 2
Property: Mole fraction of thiophene (Liquid mixture 1); method: Chromatography
Pressure, kPa	Temperature, K	Mole fraction of thiophene	uncertainty
101	298.15	0.9	0.044

System: methylcyclohexane + thiophene + 1-octyl-3-methylimidazolium bis[(trifluoromethyl)sulfonyl]imide; phases: Liquid mixture 1, Liquid mixture 2
Fixed: Temperature, K = 298.15
Fixed: Pressure, kPa = 101
Property: Mole fraction of thiophene (Liquid mixture 1); method: Chromatography
Property: Mole fraction of 1-octyl-3-methylimidazolium bis[(trifluoromethyl)sulfonyl]imide (Liquid mixture 2); method: Chromatography
Property: Mole fraction of thiophene (Liquid mixture 2); method: Chromatography
Mole fraction of 1-octyl-3-methylimidazolium bis[(trifluoromethyl)sulfonyl]imide	Mole fraction of thiophene	uncertainty	Mole fraction of 1-octyl-3-methylimidazolium bis[(trifluoromethyl)sulfonyl]imide	uncertainty	Mole fraction of thiophene	uncertainty
0.686	0	0.001	0	0.001	0	
0.563	0.151	0.019	0.002	0.002	0.07	
0.41	0.334	0.019	0.007	0.007	0.209	
0.273	0.511	0.02	0.002	0.002	0.441	
0.217	0.586	0.021	0.005	0.005	0.539	
0.181	0.641	0.023	0.011	0.011	0.625	
0.137	0.715	0.025	0	0.001	0.726	
0.111	0.766	0.029	0.008	0.008	0.787	
0.091	0.815	0.04	0	0.001	0.856	
0.054	0.946	0.044	0	0.001	1	

System: methylcyclohexane + thiophene + 1-methyl-3-octylimidazolium tetrafluoroborate; phases: Liquid mixture 1, Liquid mixture 2
Fixed: Temperature, K = 298.15
Fixed: Pressure, kPa = 101
Property: Mole fraction of thiophene (Liquid mixture 1); method: Chromatography
Property: Mole fraction of 1-methyl-3-octylimidazolium tetrafluoroborate (Liquid mixture 2); method: Chromatography
Property: Mole fraction of thiophene (Liquid mixture 2); method: Chromatography
Mole fraction of 1-methyl-3-octylimidazolium tetrafluoroborate	Mole fraction of thiophene	uncertainty	Mole fraction of 1-methyl-3-octylimidazolium tetrafluoroborate	uncertainty	Mole fraction of thiophene	uncertainty
0.808	0	0.001	0	0.001	0	
0.665	0.147	0.017	0	0.001	0.09	
0.515	0.298	0.017	0.005	0.005	0.223	
0.414	0.408	0.018	0	0.001	0.353	
0.355	0.478	0.019	0.003	0.003	0.471	
0.25	0.605	0.019	0.005	0.005	0.664	
0.188	0.688	0.021	0	0.001	0.754	
0.157	0.738	0.023	0	0.001	0.813	
0.135	0.777	0.037	0	0.001	0.865	
0.1	0.9	0.044	0	0.001	1	
