Measured thermophysical data. Densities, Viscosities, Refractive Indices, and Surface Tensions for the Ternary Mixtures of 2-Propanol + Benzyl Alcohol + 2-Phenylethanol at T = 308.15 K
Source: J. Chem. Eng. Data, 2008, 10.1021/je7007445
Compound 1: propan-2-ol, C3H8O, InChI=1S/C3H8O/c1-3(2)4/h3-4H,1-2H3
Compound 2: 2-phenylethanol, C8H10O, InChI=1S/C8H10O/c9-7-6-8-4-2-1-3-5-8/h1-5,9H,6-7H2
Compound 3: benzenemethanol, C7H8O, InChI=1S/C7H8O/c8-6-7-4-2-1-3-5-7/h1-5,8H,6H2

System: propan-2-ol; phases: Liquid
Property: Refractive index (Na D-line) (Liquid); method: Standard Abbe refractometry
Temperature, K	Pressure, kPa	Refractive index (Na D-line)	uncertainty
308.15	101.325	1.37063	0.00034

System: propan-2-ol; phases: Liquid
Property: Mass density, kg/m3 (Liquid); method: Vibrating tube method
Temperature, K	Pressure, kPa	Mass density, kg/m3	uncertainty
308.15	101.325	772.53	0.16

System: propan-2-ol; phases: Liquid, Air at 1 atmosphere
Property: Surface tension liquid-gas, N/m (Liquid); method: Drop weight
Temperature, K	Surface tension liquid-gas, N/m	uncertainty
308.15	0.02005	0.00015

System: propan-2-ol; phases: Liquid
Property: Viscosity, Pa*s (Liquid); method: Capillary tube (Ostwald; Ubbelohde) method
Temperature, K	Pressure, kPa	Viscosity, Pa*s	uncertainty
308.15	101.325	0.00155	1.8e-05

System: 2-phenylethanol; phases: Liquid
Property: Refractive index (Na D-line) (Liquid); method: Standard Abbe refractometry
Temperature, K	Pressure, kPa	Refractive index (Na D-line)	uncertainty
308.15	101.325	1.52852	0.00034

System: 2-phenylethanol; phases: Liquid
Property: Mass density, kg/m3 (Liquid); method: Vibrating tube method
Temperature, K	Pressure, kPa	Mass density, kg/m3	uncertainty
308.15	101.325	1008.63	0.12

System: 2-phenylethanol; phases: Liquid, Air at 1 atmosphere
Property: Surface tension liquid-gas, N/m (Liquid); method: Drop weight
Temperature, K	Surface tension liquid-gas, N/m	uncertainty
308.15	0.03893	0.0002

System: 2-phenylethanol; phases: Liquid
Property: Viscosity, Pa*s (Liquid); method: Capillary tube (Ostwald; Ubbelohde) method
Temperature, K	Pressure, kPa	Viscosity, Pa*s	uncertainty
308.15	101.325	0.007518	4.2e-05

System: benzenemethanol; phases: Liquid
Property: Refractive index (Na D-line) (Liquid); method: Standard Abbe refractometry
Temperature, K	Pressure, kPa	Refractive index (Na D-line)	uncertainty
308.15	101.325	1.53421	0.00038

System: benzenemethanol; phases: Liquid
Property: Mass density, kg/m3 (Liquid); method: Vibrating tube method
Temperature, K	Pressure, kPa	Mass density, kg/m3	uncertainty
308.15	101.325	1033.6	0.26

System: benzenemethanol; phases: Liquid, Air at 1 atmosphere
Property: Surface tension liquid-gas, N/m (Liquid); method: Drop weight
Temperature, K	Surface tension liquid-gas, N/m	uncertainty
308.15	0.03773	0.00025

System: benzenemethanol; phases: Liquid
Property: Viscosity, Pa*s (Liquid); method: Capillary tube (Ostwald; Ubbelohde) method
Temperature, K	Pressure, kPa	Viscosity, Pa*s	uncertainty
308.15	101.325	0.004093	3e-05

System: 2-phenylethanol + propan-2-ol + benzenemethanol; phases: Liquid, Air at 1 atmosphere
Fixed: Temperature, K = 308.15
Property: Surface tension liquid-gas, N/m (Liquid); method: Drop weight
Mole fraction of propan-2-ol	Mole fraction of benzenemethanol	Surface tension liquid-gas, N/m	uncertainty
0.0499	0.2001	0.03734	0.0002
0.05	0.0501	0.03764	0.0002
0.05	0.1	0.03755	0.0002
0.05	0.3	0.03714	0.00021
0.05	0.4001	0.03698	0.00021
0.05	0.5	0.03688	0.00022
0.05	0.7	0.03675	0.00023
0.05	0.8	0.0367	0.00024
0.05	0.9	0.03666	0.00024
0.0501	0.5999	0.03681	0.00022
0.1	0.05	0.03652	0.00019
0.1	0.15	0.03633	0.0002
0.1	0.25	0.03611	0.0002
0.1	0.35	0.03595	0.00021
0.1	0.45	0.03581	0.00021
0.1	0.55	0.03573	0.00022
0.1	0.75	0.03566	0.00023
0.1	0.85	0.03559	0.00023
0.1001	0.65	0.03571	0.00022
0.1999	0.0501	0.03432	0.00019
0.2	0.25	0.03391	0.00019
0.2	0.45	0.03365	0.0002
0.2	0.55	0.03362	0.00021
0.2	0.65	0.03359	0.00021
0.2	0.75	0.03357	0.00022
0.2001	0.15	0.03408	0.00019
0.2001	0.35	0.03375	0.0002
0.3	0.05	0.03223	0.00018
0.3	0.15	0.03201	0.00018
0.3	0.25	0.03185	0.00019
0.3	0.45	0.0316	0.0002
0.3	0.55	0.03155	0.0002
0.3	0.65	0.03153	0.00021
0.3001	0.35	0.03169	0.00019
0.4	0.1499	0.02995	0.00018
0.4	0.2599	0.02981	0.00018
0.4	0.35	0.02968	0.00019
0.4	0.45	0.02965	0.00019
0.4	0.55	0.02962	0.00019
0.4001	0.0499	0.03012	0.00018
0.4999	0.2501	0.0279	0.00018
0.5	0.0499	0.02815	0.00017
0.5	0.15	0.02801	0.00017
0.5	0.3501	0.02787	0.00018
0.5	0.4501	0.02783	0.00018
0.5999	0.05	0.02625	0.00017
0.6	0.1501	0.02622	0.00017
0.6	0.25	0.02618	0.00017
0.6	0.35	0.02615	0.00017
0.7	0.15	0.02468	0.00016
0.7	0.25	0.02462	0.00017
0.7001	0.05	0.0247	0.00016
0.8	0.05	0.02311	0.00016
0.8	0.15	0.02308	0.00016
0.9	0.05	0.02155	0.00015

System: 2-phenylethanol + propan-2-ol + benzenemethanol; phases: Liquid
Fixed: Temperature, K = 308.15
Fixed: Pressure, kPa = 100.8
Property: Viscosity, Pa*s (Liquid); method: Capillary tube (Ostwald; Ubbelohde) method
Mole fraction of propan-2-ol	Mole fraction of benzenemethanol	Viscosity, Pa*s	uncertainty
0.0499	0.2001	0.006297	7.2e-05
0.05	0.0501	0.006852	7.8e-05
0.05	0.1	0.006644	7.6e-05
0.05	0.3	0.005935	6.9e-05
0.05	0.4001	0.005597	6.5e-05
0.05	0.5	0.005245	6.2e-05
0.05	0.7	0.004616	5.5e-05
0.05	0.8	0.004339	5.2e-05
0.05	0.9	0.004052	4.9e-05
0.0501	0.5999	0.00494	5.9e-05
0.1	0.05	0.006377	7.2e-05
0.1	0.15	0.006034	6.9e-05
0.1	0.25	0.00566	6.5e-05
0.1	0.35	0.00535	6.2e-05
0.1	0.45	0.005005	5.9e-05
0.1	0.55	0.004715	5.6e-05
0.1	0.75	0.004132	5e-05
0.1	0.85	0.003865	4.7e-05
0.1001	0.65	0.004406	5.3e-05
0.1999	0.0501	0.005564	6.4e-05
0.2	0.25	0.004901	5.7e-05
0.2	0.45	0.004301	5.1e-05
0.2	0.55	0.004042	4.8e-05
0.2	0.65	0.003813	4.6e-05
0.2	0.75	0.003543	4.3e-05
0.2001	0.15	0.005214	6e-05
0.2001	0.35	0.004612	5.4e-05
0.3	0.05	0.004808	5.5e-05
0.3	0.15	0.004508	5.2e-05
0.3	0.25	0.004205	4.9e-05
0.3	0.45	0.003679	4.3e-05
0.3	0.55	0.003429	4.1e-05
0.3	0.65	0.0032	3.8e-05
0.3001	0.35	0.003932	4.6e-05
0.4	0.1499	0.003856	4.5e-05
0.4	0.2599	0.003655	4.3e-05
0.4	0.35	0.003348	3.9e-05
0.4	0.45	0.003131	3.7e-05
0.4	0.55	0.002898	3.4e-05
0.4001	0.0499	0.004158	4.8e-05
0.4999	0.2501	0.003048	3.6e-05
0.5	0.0499	0.00354	4.1e-05
0.5	0.15	0.003297	3.8e-05
0.5	0.3501	0.002829	3.3e-05
0.5	0.4501	0.002645	3.1e-05
0.5999	0.05	0.003002	3.5e-05
0.6	0.1501	0.002778	3.2e-05
0.6	0.25	0.002567	3e-05
0.6	0.35	0.002372	2.8e-05
0.7	0.15	0.002328	2.7e-05
0.7	0.25	0.002143	2.5e-05
0.7001	0.05	0.002529	2.9e-05
0.8	0.05	0.002118	2.5e-05
0.8	0.15	0.001945	2.3e-05
0.9	0.05	0.00178	2.1e-05

System: 2-phenylethanol + propan-2-ol + benzenemethanol; phases: Liquid
Fixed: Temperature, K = 308.15
Fixed: Pressure, kPa = 100.8
Property: Refractive index (Na D-line) (Liquid); method: Standard Abbe refractometry
Mole fraction of propan-2-ol	Mole fraction of benzenemethanol	Refractive index (Na D-line)	uncertainty
0.0499	0.2001	1.5255	0.00035
0.05	0.0501	1.52429	0.00035
0.05	0.1	1.5247	0.00035
0.05	0.3	1.52613	0.00036
0.05	0.4001	1.52674	0.00036
0.05	0.5	1.52719	0.00036
0.05	0.7	1.52795	0.00037
0.05	0.8	1.52823	0.00038
0.05	0.9	1.52848	0.00038
0.0501	0.5999	1.52762	0.00037
0.1	0.05	1.51926	0.00035
0.1	0.15	1.51993	0.00035
0.1	0.25	1.52057	0.00035
0.1	0.35	1.52108	0.00036
0.1	0.45	1.52163	0.00036
0.1	0.55	1.52194	0.00037
0.1	0.75	1.52244	0.00037
0.1	0.85	1.5226	0.00038
0.1001	0.65	1.52217	0.00037
0.1999	0.0501	1.50849	0.00035
0.2	0.25	1.50931	0.00035
0.2	0.45	1.50994	0.00036
0.2	0.55	1.51006	0.00037
0.2	0.65	1.5101	0.00037
0.2	0.75	1.51015	0.00037
0.2001	0.15	1.5089	0.00035
0.2001	0.35	1.5097	0.00036
0.3	0.05	1.49638	0.00035
0.3	0.15	1.49682	0.00035
0.3	0.25	1.49699	0.00035
0.3	0.45	1.49709	0.00036
0.3	0.55	1.4971	0.00037
0.3	0.65	1.49716	0.00037
0.3001	0.35	1.49707	0.00036
0.4	0.1499	1.48352	0.00035
0.4	0.2599	1.48358	0.00035
0.4	0.35	1.48333	0.00036
0.4	0.45	1.48302	0.00036
0.4	0.55	1.4825	0.00037
0.4001	0.0499	1.48331	0.00035
0.4999	0.2501	1.46869	0.00035
0.5	0.0499	1.46897	0.00035
0.5	0.15	1.46893	0.00035
0.5	0.3501	1.46791	0.00036
0.5	0.4501	1.46711	0.00036
0.5999	0.05	1.45352	0.00035
0.6	0.1501	1.45291	0.00035
0.6	0.25	1.45208	0.00036
0.6	0.35	1.45108	0.00036
0.7	0.15	1.43486	0.00035
0.7	0.25	1.43349	0.00036
0.7001	0.05	1.43599	0.00035
0.8	0.05	1.41635	0.00035
0.8	0.15	1.41471	0.00035
0.9	0.05	1.394	0.00035

System: 2-phenylethanol + propan-2-ol + benzenemethanol; phases: Liquid
Fixed: Temperature, K = 308.15
Fixed: Pressure, kPa = 100.8
Property: Mass density, kg/m3 (Liquid); method: Vibrating tube method
Mole fraction of propan-2-ol	Mole fraction of benzenemethanol	Mass density, kg/m3	uncertainty
0.0499	0.2001	1009.95	0.13
0.05	0.0501	1003.82	0.12
0.05	0.1	1005.74	0.12
0.05	0.3	1014.03	0.14
0.05	0.4001	1016.99	0.15
0.05	0.5	1019.93	0.17
0.05	0.7	1023.17	0.2
0.05	0.8	1023.75	0.21
0.05	0.9	1024.3	0.23
0.0501	0.5999	1021.83	0.18
0.1	0.05	996.39	0.12
0.1	0.15	1000.26	0.13
0.1	0.25	1004.23	0.14
0.1	0.35	1007.51	0.15
0.1	0.45	1010.48	0.16
0.1	0.55	1012.59	0.17
0.1	0.75	1014.82	0.2
0.1	0.85	1015.21	0.22
0.1001	0.65	1013.89	0.18
0.1999	0.0501	980.23	0.12
0.2	0.25	987.36	0.14
0.2	0.45	992.75	0.15
0.2	0.55	994.53	0.16
0.2	0.65	995.45	0.18
0.2	0.75	995.78	0.19
0.2001	0.15	984.26	0.13
0.2001	0.35	990.52	0.14
0.3	0.05	962.85	0.13
0.3	0.15	966.15	0.13
0.3	0.25	969.66	0.14
0.3	0.45	973.72	0.16
0.3	0.55	974.85	0.17
0.3	0.65	975.14	0.18
0.3001	0.35	971.94	0.15
0.4	0.1499	946.88	0.14
0.4	0.2599	949.62	0.14
0.4	0.35	951.05	0.15
0.4	0.45	952.1	0.16
0.4	0.55	952.6	0.17
0.4001	0.0499	943.73	0.13
0.4999	0.2501	927.03	0.15
0.5	0.0499	922.58	0.14
0.5	0.15	925.2	0.14
0.5	0.3501	928.03	0.16
0.5	0.4501	928.55	0.17
0.5999	0.05	899.08	0.14
0.6	0.1501	900.95	0.15
0.6	0.25	901.9	0.16
0.6	0.35	902.28	0.16
0.7	0.15	873.67	0.16
0.7	0.25	873.95	0.16
0.7001	0.05	872.63	0.15
0.8	0.05	842.73	0.16
0.8	0.15	842.8	0.16
0.9	0.05	809.6	0.17
