Measured thermophysical data. Solubility of Simvastatin and Lovastatin in Mixtures of Dichloromethane and Supercritical Carbon Dioxide
Source: J. Chem. Eng. Data, 2007, 10.1021/je700019h
Compound 1: (+)-Simvastatin, C25H38O5, InChI=1S/C25H38O5/c1-6-25(4,5)24(28)30-21-12-15(2)11-17-8-7-16(3)20(23(17)21)10-9-19-13-18(26)14-22(27)29-19/h7-8,11,15-16,18-21,23,26H,6,9-10,12-14H2,1-5H3/t15-,16-,18+,19+,20-,21-,23-/m0/s1
Compound 2: lovastatin, C24H36O5, InChI=1S/C24H36O5/c1-5-15(3)24(27)29-21-11-14(2)10-17-7-6-16(4)20(23(17)21)9-8-19-12-18(25)13-22(26)28-19/h6-7,10,14-16,18-21,23,25H,5,8-9,11-13H2,1-4H3/t14-,15-,16-,18+,19+,20-,21-,23-/m0/s1
Compound 3: dichloromethane, CH2Cl2, InChI=1S/CH2Cl2/c2-1-3/h1H2, purity 99.99%
Compound 4: carbon dioxide, CO2, InChI=1S/CO2/c2-1-3, purity 99.99%

System: dichloromethane + carbon dioxide + (+)-Simvastatin; phases: Fluid (supercritical or subcritical phases), Crystal
Property: Vapor or sublimation pressure, kPa (Fluid (supercritical or subcritical phases)); method: Gas chromatography
Temperature, K	Mole fraction of (+)-Simvastatin	Mole fraction of dichloromethane	Vapor or sublimation pressure, kPa	uncertainty
303.25	0.000541	0.267	6500	400
303.25	0.000575	0.227	8000	400
303.25	0.000603	0.179	10300	400
303.25	0.000776	0.307	6400	400
303.25	0.000818	0.269	8500	400
303.25	0.000865	0.226	10700	400
303.25	0.00091	0.18	13300	400
303.25	0.000979	0.338	7700	400
303.25	0.001034	0.307	10200	400
303.25	0.001088	0.269	12300	400
303.25	0.001146	0.227	14800	400
303.25	0.001219	0.181	17500	400
303.25	0.001222	0.338	11100	400
303.25	0.00129	0.306	13600	400
303.25	0.001366	0.27	16400	400
303.25	0.001434	0.227	19300	400
303.25	0.001523	0.181	22100	400
313.25	0.000518	0.307	6400	400
313.25	0.000541	0.267	8300	400
313.25	0.000575	0.227	10700	400
313.25	0.000603	0.179	13500	400
313.25	0.000737	0.339	6600	400
313.25	0.000776	0.307	8800	400
313.25	0.000818	0.269	11500	400
313.25	0.000865	0.226	14500	400
313.25	0.00091	0.18	17900	400
313.25	0.000979	0.338	10500	400
313.25	0.001034	0.307	13500	400
313.25	0.001088	0.269	16200	400
313.25	0.001146	0.227	19300	400
313.25	0.001219	0.181	22500	400
313.25	0.001222	0.338	13800	400
313.25	0.00129	0.306	17000	400
313.25	0.001366	0.27	20500	400
313.25	0.001434	0.227	24000	400
313.25	0.001523	0.181	27300	400
323.25	0.00049	0.338	6600	400
323.25	0.000518	0.307	8200	400
323.25	0.000541	0.267	10500	400
323.25	0.000575	0.227	13500	400
323.25	0.000603	0.179	16800	400
323.25	0.000737	0.339	8500	400
323.25	0.000776	0.307	11100	400
323.25	0.000818	0.269	14600	400
323.25	0.000865	0.226	18100	400
323.25	0.00091	0.18	22300	400
323.25	0.000979	0.338	14000	400
323.25	0.001034	0.307	17500	400
323.25	0.001088	0.269	21200	400
323.25	0.001146	0.227	24700	400
323.25	0.001219	0.181	28500	400
323.25	0.001222	0.338	17400	400
323.25	0.00129	0.306	21300	400
323.25	0.001366	0.27	25200	400
323.25	0.001434	0.227	29400	400
323.25	0.001523	0.181	32800	400
333.25	0.00049	0.338	8100	400
333.25	0.000518	0.307	9900	400
333.25	0.000541	0.267	13000	400
333.25	0.000575	0.227	16300	400
333.25	0.000603	0.179	20200	400
333.25	0.000737	0.339	10300	400
333.25	0.000776	0.307	13900	400
333.25	0.000818	0.269	18600	400
333.25	0.000865	0.226	23200	400
333.25	0.00091	0.18	27800	400
333.25	0.000979	0.338	17900	400
333.25	0.001034	0.307	21800	400
333.25	0.001088	0.269	25600	400
333.25	0.001146	0.227	30000	400
333.25	0.001219	0.181	34500	400
333.25	0.001222	0.338	21900	400
333.25	0.00129	0.306	26200	400
333.25	0.001366	0.27	30500	400
333.25	0.001434	0.227	35200	400
333.25	0.001523	0.181	39400	400

System: dichloromethane + carbon dioxide + lovastatin; phases: Fluid (supercritical or subcritical phases), Crystal
Property: Vapor or sublimation pressure, kPa (Fluid (supercritical or subcritical phases)); method: Gas chromatography
Temperature, K	Mole fraction of lovastatin	Mole fraction of dichloromethane	Vapor or sublimation pressure, kPa	uncertainty
303.25	0.000504	0.337	6800	400
303.25	0.000537	0.306	8100	400
303.25	0.000564	0.268	10500	400
303.25	0.00059	0.225	13300	400
303.25	0.000631	0.182	16800	400
303.25	0.000762	0.338	9500	400
303.25	0.000808	0.308	11200	400
303.25	0.000847	0.27	13200	400
303.25	0.000889	0.227	15800	400
303.25	0.000951	0.18	19500	400
303.25	0.001024	0.342	14000	400
303.25	0.00106	0.304	15600	400
303.25	0.00111	0.265	17900	400
303.25	0.001197	0.229	20600	400
303.25	0.001251	0.18	24000	400
303.25	0.001283	0.342	17300	400
303.25	0.00135	0.306	18900	400
303.25	0.001373	0.262	21300	400
303.25	0.001479	0.226	23900	400
303.25	0.001552	0.178	27300	400
313.25	0.000504	0.337	8800	400
313.25	0.000537	0.306	10800	400
313.25	0.000564	0.268	13900	400
313.25	0.00059	0.225	17300	400
313.25	0.000631	0.182	21500	400
313.25	0.000762	0.338	11800	400
313.25	0.000808	0.308	13100	400
313.25	0.000847	0.27	16800	400
313.25	0.000889	0.227	20200	400
313.25	0.000951	0.18	24400	400
313.25	0.001024	0.342	16600	400
313.25	0.00106	0.304	18900	400
313.25	0.00111	0.265	21800	400
313.25	0.001197	0.229	25200	400
313.25	0.001251	0.18	29300	400
313.25	0.001283	0.342	20300	400
313.25	0.00135	0.306	22500	400
313.25	0.001373	0.262	25600	400
313.25	0.001479	0.226	28900	400
313.25	0.001552	0.178	32900	400
323.25	0.000504	0.337	10800	400
323.25	0.000537	0.306	13500	400
323.25	0.000564	0.268	17100	400
323.25	0.00059	0.225	21300	400
323.25	0.000631	0.182	26200	400
323.25	0.000762	0.338	14100	400
323.25	0.000808	0.308	16200	400
323.25	0.000847	0.27	20200	400
323.25	0.000889	0.227	24500	400
323.25	0.000951	0.18	29600	400
323.25	0.001024	0.342	19200	400
323.25	0.00106	0.304	22200	400
323.25	0.00111	0.265	25900	400
323.25	0.001197	0.229	29800	400
323.25	0.001251	0.18	34600	400
323.25	0.001283	0.342	23900	400
323.25	0.00135	0.306	26100	400
323.25	0.001373	0.262	29800	400
323.25	0.001479	0.226	33800	400
323.25	0.001552	0.178	38500	400
333.25	0.000504	0.337	12800	400
333.25	0.000537	0.306	16300	400
333.25	0.000564	0.268	20100	400
333.25	0.00059	0.225	25100	400
333.25	0.000631	0.182	30400	400
333.25	0.000762	0.338	16500	400
333.25	0.000808	0.308	19700	400
333.25	0.000847	0.27	23500	400
333.25	0.000889	0.227	28100	400
333.25	0.000951	0.18	34300	400
333.25	0.001024	0.342	22000	400
333.25	0.00106	0.304	25500	400
333.25	0.00111	0.265	30000	400
333.25	0.001197	0.229	34400	400
333.25	0.001251	0.18	40700	400
333.25	0.001283	0.342	26500	400
333.25	0.00135	0.306	29100	400
333.25	0.001373	0.262	34300	400
333.25	0.001479	0.226	38900	400
333.25	0.001552	0.178	44800	400
