Measured thermophysical data. Isobaric Vapor-Liquid Equilibria of Hexane + 1-Decene and Octane + 1-Decene Mixtures
Source: J. Chem. Eng. Data, 2008, 10.1021/je700445y
Compound 1: 1-decene, C10H20, InChI=1S/C10H20/c1-3-5-7-9-10-8-6-4-2/h3H,1,4-10H2,2H3
Compound 2: octane, C8H18, InChI=1S/C8H18/c1-3-5-7-8-6-4-2/h3-8H2,1-2H3
Compound 3: hexane, C6H14, InChI=1S/C6H14/c1-3-5-6-4-2/h3-6H2,1-2H3

System: 1-decene; phases: Liquid
Property: Refractive index (Na D-line) (Liquid); method: Standard Abbe refractometry
Temperature, K	Pressure, kPa	Refractive index (Na D-line)	uncertainty
293.15	101.325	1.4214	0.00073

System: 1-decene; phases: Liquid
Property: Mass density, kg/m3 (Liquid); method: VIBTUB:UFactor:3
Temperature, K	Pressure, kPa	Mass density, kg/m3	uncertainty
293.15	101.325	741	1

System: 1-decene; phases: Liquid, Gas
Property: Vapor or sublimation pressure, kPa (Liquid); method: Ebulliometric method (Recirculating still)
Temperature, K	Vapor or sublimation pressure, kPa	uncertainty
443.8	101.33	0.52

System: octane; phases: Liquid
Property: Refractive index (Na D-line) (Liquid); method: Standard Abbe refractometry
Temperature, K	Pressure, kPa	Refractive index (Na D-line)	uncertainty
293.15	101.325	1.3965	0.00075

System: octane; phases: Liquid
Property: Mass density, kg/m3 (Liquid); method: VIBTUB:UFactor:6
Temperature, K	Pressure, kPa	Mass density, kg/m3	uncertainty
293.15	101.325	708	1

System: octane; phases: Liquid, Gas
Property: Vapor or sublimation pressure, kPa (Liquid); method: Ebulliometric method (Recirculating still)
Temperature, K	Vapor or sublimation pressure, kPa	uncertainty
398.96	101.33	0.53

System: hexane; phases: Liquid
Property: Refractive index (Na D-line) (Liquid); method: Standard Abbe refractometry
Temperature, K	Pressure, kPa	Refractive index (Na D-line)	uncertainty
293.15	101.325	1.37486	0.00075

System: hexane; phases: Liquid
Property: Mass density, kg/m3 (Liquid); method: VIBTUB:UFactor:6
Temperature, K	Pressure, kPa	Mass density, kg/m3	uncertainty
293.15	101.325	660	2

System: hexane; phases: Liquid, Gas
Property: Vapor or sublimation pressure, kPa (Liquid); method: Ebulliometric method (Recirculating still)
Temperature, K	Vapor or sublimation pressure, kPa	uncertainty
341.8	101.33	0.53

System: hexane + 1-decene; phases: Liquid, Gas
Fixed: Pressure, kPa = 101.33
Property: Boiling temperature at pressure P, K (Liquid); method: Ebulliometric method (Recirculating still)
Mole fraction of hexane	Boiling temperature at pressure P, K	uncertainty
0	443.8	0.09
0.0152	438.51	0.11
0.0417	429.68	0.11
0.0644	423.04	0.1
0.083	418.14	0.1
0.1091	411.95	0.1
0.1476	404.04	0.1
0.1795	398.37	0.09
0.2173	392.5	0.09
0.2676	385.81	0.09
0.3046	381.58	0.09
0.361	375.97	0.09
0.4133	371.53	0.09
0.4553	368.39	0.09
0.5047	365.1	0.09
0.5356	363.22	0.09
0.5919	359.91	0.09
0.67	355.62	0.09
0.7628	351.39	0.09
0.825	348.52	0.09
1	341.8	0.09

System: hexane + 1-decene; phases: Gas, Liquid
Fixed: Pressure, kPa = 101.33
Property: Mole fraction of hexane (Gas); method: Index of refraction calibration data
Mole fraction of hexane	Mole fraction of hexane	uncertainty
0	0	0.0001
0.0152	0.1317	0.0016
0.0417	0.3346	0.0017
0.0644	0.4603	0.0024
0.083	0.5402	0.0029
0.1091	0.6278	0.0029
0.1476	0.7203	0.0026
0.1795	0.7751	0.0024
0.2173	0.823	0.002
0.2676	0.8682	0.0016
0.3046	0.8922	0.0014
0.361	0.9192	0.0011
0.4133	0.9372	0.0009
0.4553	0.9482	0.0007
0.5047	0.9584	0.0006
0.5356	0.9637	0.0005
0.5919	0.9715	0.0004
0.67	0.9796	0.0003
0.7628	0.9864	0.0003
0.825	0.9899	0.0003
1	1	0.0001

System: octane + 1-decene; phases: Liquid, Gas
Fixed: Pressure, kPa = 101.33
Property: Boiling temperature at pressure P, K (Liquid); method: Ebulliometric method (Recirculating still)
Mole fraction of octane	Boiling temperature at pressure P, K	uncertainty
0	443.8	0.09
0.0182	442.37	0.09
0.0402	440.69	0.09
0.0547	439.61	0.09
0.0614	439.12	0.09
0.0899	437.09	0.09
0.1157	435.32	0.09
0.1568	432.64	0.09
0.172	431.69	0.09
0.2129	429.22	0.09
0.2607	426.51	0.09
0.2902	424.92	0.09
0.3288	422.92	0.09
0.3323	422.74	0.09
0.3715	420.82	0.09
0.3997	419.5	0.09
0.4325	418	0.09
0.4517	417.16	0.09
0.4862	415.69	0.09
0.4975	415.22	0.09
0.5013	415.06	0.09
0.5307	413.88	0.09
0.5657	412.51	0.09
0.603	411.11	0.09
0.621	410.45	0.09
0.6691	408.76	0.09
0.6935	407.93	0.09
0.7201	407.06	0.09
0.7555	405.92	0.09
0.781	405.13	0.09
0.7817	405.11	0.09
0.7889	404.89	0.09
0.8398	403.38	0.09
0.8978	401.74	0.09
0.9618	400.03	0.09
1	398.96	0.09

System: octane + 1-decene; phases: Gas, Liquid
Fixed: Pressure, kPa = 101.33
Property: Mole fraction of octane (Gas); method: Index of refraction calibration data
Mole fraction of octane	Mole fraction of octane	uncertainty
0	0	0.0001
0.0182	0.0471	0.0006
0.0402	0.1075	0.0006
0.0547	0.1446	0.0006
0.0614	0.1601	0.0005
0.0899	0.2272	0.0006
0.1157	0.2833	0.0008
0.1568	0.3645	0.0013
0.172	0.3922	0.0016
0.2129	0.461	0.0023
0.2607	0.5321	0.0028
0.2902	0.5714	0.0028
0.3288	0.6184	0.0028
0.3323	0.6225	0.0028
0.3715	0.665	0.0028
0.3997	0.693	0.0027
0.4325	0.7231	0.0026
0.4517	0.7395	0.0025
0.4862	0.7669	0.0024
0.4975	0.7754	0.0023
0.5013	0.7782	0.0023
0.5307	0.799	0.0022
0.5657	0.8218	0.002
0.603	0.8439	0.0019
0.621	0.8539	0.0018
0.6691	0.8785	0.0015
0.6935	0.89	0.0014
0.7201	0.9016	0.0013
0.7555	0.9161	0.0011
0.781	0.9257	0.001
0.7817	0.926	0.001
0.7889	0.9286	0.001
0.8398	0.9459	0.0008
0.8978	0.9665	0.0005
0.9618	0.9891	0.0003
1	1	0.0001
