Measured thermophysical data. Influence of the Temperature on the Liquid Liquid Equilibria of Heptane + Toluene + Sulfolane and Heptane + m-Xylene + Sulfolane
Source: J. Chem. Eng. Data, 2008, 10.1021/je700611f
Compound 1: sulfolane, C4H8O2S, InChI=1S/C4H8O2S/c5-7(6)3-1-2-4-7/h1-4H2
Compound 2: heptane, C7H16, InChI=1S/C7H16/c1-3-5-7-6-4-2/h3-7H2,1-2H3
Compound 3: toluene, C7H8, InChI=1S/C7H8/c1-7-5-3-2-4-6-7/h2-6H,1H3
Compound 4: 1,3-dimethylbenzene, C8H10, InChI=1S/C8H10/c1-7-4-3-5-8(2)6-7/h3-6H,1-2H3

System: sulfolane + heptane; phases: Liquid mixture 1, Liquid mixture 2
Fixed: Pressure, kPa = 101.32
Property: Mole fraction of heptane (Liquid mixture 1); method: Chromatography
Temperature, K	Mole fraction of heptane	uncertainty
298.15	0.9992	0.0008
323.15	0.9958	0.0042
348.15	0.9925	0.0075
373.15	0.9898	0.01

System: sulfolane + heptane; phases: Liquid mixture 2, Liquid mixture 1
Fixed: Pressure, kPa = 101.32
Property: Mole fraction of heptane (Liquid mixture 2); method: Chromatography
Temperature, K	Mole fraction of heptane	uncertainty
298.15	0.0048	0.0048
323.15	0.012	0.01
348.15	0.0203	0.01
373.15	0.0322	0.01

System: toluene + sulfolane + heptane; phases: Liquid mixture 1, Liquid mixture 2
Fixed: Pressure, kPa = 101.32
Property: Mole fraction of toluene (Liquid mixture 1); method: Chromatography
Property: Mole fraction of heptane (Liquid mixture 2); method: Chromatography
Property: Mole fraction of toluene (Liquid mixture 2); method: Chromatography
Temperature, K	Mole fraction of heptane	Mole fraction of toluene	uncertainty	Mole fraction of heptane	uncertainty	Mole fraction of toluene	uncertainty
298.15	0.9992	0	0.0001	0.0048	0.0048	0	
298.15	0.8708	0.1244	0.0139	0.0093	0.0093	0.0383	
298.15	0.7723	0.2188	0.0139	0.0107	0.01	0.0784	
298.15	0.6954	0.2928	0.0139	0.012	0.01	0.117	
298.15	0.5963	0.3842	0.0139	0.0152	0.01	0.1724	
298.15	0.5452	0.4329	0.0135	0.019	0.01	0.2143	
298.15	0.4453	0.5152	0.0126	0.0226	0.0101	0.2679	
298.15	0.282	0.6141	0.0114	0.0414	0.0102	0.4183	
298.15	0.1774	0.6359	0.0105	0.0744	0.0104	0.5334	
323.15	0.9958	0	0.0001	0.012	0.01	0	
323.15	0.8853	0.1091	0.014	0.0192	0.0101	0.0336	
323.15	0.7778	0.214	0.0139	0.0208	0.01	0.0749	
323.15	0.6644	0.3209	0.0138	0.0229	0.01	0.1402	
323.15	0.5712	0.4032	0.0135	0.0262	0.0101	0.1898	
323.15	0.4607	0.4964	0.0131	0.0388	0.0102	0.2506	
323.15	0.3693	0.5564	0.012	0.0545	0.0102	0.3398	
323.15	0.3012	0.5893	0.0108	0.0694	0.0108	0.3986	
323.15	0.2359	0.5955	0.0104	0.116	0.0111	0.4979	
348.15	0.9925	0	0.0001	0.0203	0.01	0	
348.15	0.9004	0.083	0.0138	0.0263	0.0101	0.025	
348.15	0.7869	0.195	0.0139	0.0305	0.01	0.0752	
348.15	0.6936	0.2821	0.0135	0.0324	0.0101	0.121	
348.15	0.5809	0.3786	0.0133	0.0404	0.0101	0.1808	
348.15	0.5008	0.4421	0.0126	0.0477	0.0101	0.2426	
348.15	0.4043	0.5028	0.0121	0.0614	0.0102	0.3267	
348.15	0.3281	0.5429	0.0112	0.0792	0.0105	0.4011	
348.15	0.2457	0.5657	0.0108	0.1112	0.0108	0.48	
373.15	0.9898	0	0.0001	0.0322	0.01	0	
373.15	0.8974	0.0921	0.0139	0.034	0.01	0.0301	
373.15	0.821	0.1614	0.0134	0.0366	0.0101	0.0592	
373.15	0.7271	0.2436	0.0132	0.041	0.0101	0.1021	
373.15	0.6409	0.3129	0.0129	0.0468	0.0101	0.1487	
373.15	0.5676	0.3686	0.0126	0.0537	0.0102	0.1942	
373.15	0.4977	0.4151	0.0121	0.0637	0.0103	0.2417	
373.15	0.4251	0.4568	0.0115	0.0769	0.0105	0.2964	
373.15	0.3356	0.492	0.0113	0.1016	0.0106	0.3686	

System: 1,3-dimethylbenzene + sulfolane + heptane; phases: Liquid mixture 1, Liquid mixture 2
Fixed: Pressure, kPa = 101.32
Property: Mole fraction of 1,3-dimethylbenzene (Liquid mixture 1); method: Chromatography
Property: Mole fraction of heptane (Liquid mixture 2); method: Chromatography
Property: Mole fraction of 1,3-dimethylbenzene (Liquid mixture 2); method: Chromatography
Temperature, K	Mole fraction of heptane	Mole fraction of 1,3-dimethylbenzene	uncertainty	Mole fraction of heptane	uncertainty	Mole fraction of 1,3-dimethylbenzene	uncertainty
298.15	0.9992	0	0.0001	0.0048	0.0048	0	
298.15	0.8753	0.1229	0.0141	0.0156	0.0102	0.0299	
298.15	0.7762	0.22	0.014	0.0159	0.01	0.0574	
298.15	0.6798	0.311	0.0139	0.016	0.01	0.088	
298.15	0.5952	0.391	0.0139	0.0175	0.01	0.1173	
298.15	0.5048	0.4718	0.0137	0.0184	0.01	0.1538	
298.15	0.4155	0.5473	0.0132	0.0196	0.01	0.1961	
298.15	0.3349	0.6074	0.0121	0.021	0.01	0.2402	
298.15	0.2158	0.6741	0.0117	0.0245	0.01	0.3251	
323.15	0.9958	0	0.0001	0.012	0.01	0	
323.15	0.8614	0.1334	0.014	0.0186	0.0101	0.0334	
323.15	0.7724	0.2189	0.014	0.0193	0.01	0.0599	
323.15	0.6872	0.3036	0.0142	0.0202	0.01	0.0893	
323.15	0.5934	0.3953	0.0138	0.0213	0.01	0.1249	
323.15	0.5067	0.4671	0.0134	0.0225	0.01	0.1571	
323.15	0.4321	0.5283	0.013	0.0239	0.01	0.1899	
323.15	0.3471	0.5876	0.0119	0.0244	0.01	0.2339	
323.15	0.2551	0.6288	0.0117	0.0289	0.01	0.2991	
348.15	0.9925	0	0.0001	0.0203	0.01	0	
348.15	0.9038	0.0829	0.0137	0.0238	0.0101	0.0208	
348.15	0.8223	0.1539	0.0137	0.0251	0.01	0.0404	
348.15	0.744	0.2313	0.014	0.0269	0.01	0.0676	
348.15	0.6411	0.3336	0.0141	0.027	0.01	0.1079	
348.15	0.5334	0.4357	0.0138	0.0272	0.01	0.1486	
348.15	0.4452	0.5053	0.0131	0.0283	0.01	0.1757	
348.15	0.3395	0.584	0.0123	0.0322	0.01	0.2411	
348.15	0.2502	0.63	0.0116	0.038	0.01	0.3113	
373.15	0.9898	0	0.0001	0.0322	0.01	0	
373.15	0.8896	0.1001	0.0139	0.0337	0.01	0.0343	
373.15	0.7792	0.2042	0.0139	0.0345	0.01	0.0712	
373.15	0.6832	0.2976	0.0139	0.0362	0.01	0.1097	
373.15	0.5841	0.3879	0.0139	0.0381	0.01	0.1452	
373.15	0.5024	0.4643	0.0136	0.039	0.01	0.1972	
373.15	0.4214	0.5286	0.0128	0.0435	0.0101	0.2279	
373.15	0.3393	0.5821	0.012	0.0512	0.01	0.2723	
373.15	0.2662	0.621	0.0116	0.0516	0.01	0.3334	
