Measured thermophysical data. Experimental Determination, Correlation, and Prediction of Physical Properties of the Ternary Mixtures Ethanol + Water with 1-Octyl-3-methylimidazolium Chloride and 1-Ethyl-3-methylimidazolium Ethylsulfate
Source: J. Chem. Eng. Data, 2007, 10.1021/je700318e
Compound 1: water, H2O, InChI=1S/H2O/h1H2
Compound 2: ethanol, C2H6O, InChI=1S/C2H6O/c1-2-3/h3H,2H2,1H3
Compound 3: 1-methyl-3-octylimidazolium chloride, C12H23ClN2, InChI=1S/C12H23N2.ClH/c1-3-4-5-6-7-8-9-14-11-10-13(2)12-14;/h10-12H,3-9H2,1-2H3;1H/q+1;/p-1
Compound 4: 1-ethyl-3-methylimidazolium ethyl sulfate, C8H16N2O4S, InChI=1S/C6H11N2.C2H6O4S/c1-3-8-5-4-7(2)6-8;1-2-6-7(3,4)5/h4-6H,3H2,1-2H3;2H2,1H3,(H,3,4,5)/q+1;/p-1

System: ethanol; phases: Liquid
Property: Mass density, kg/m3 (Liquid); method: Vibrating tube method
Temperature, K	Pressure, kPa	Mass density, kg/m3	uncertainty
298.15	101.325	785.46	0.16

System: ethanol; phases: Liquid
Property: Viscosity, Pa*s (Liquid); method: Capillary tube (Ostwald; Ubbelohde) method
Temperature, K	Pressure, kPa	Viscosity, Pa*s	uncertainty
298.15	101.325	0.001082	1.4e-05

System: 1-methyl-3-octylimidazolium chloride; phases: Liquid
Property: Mass density, kg/m3 (Liquid); method: Vibrating tube method
Temperature, K	Pressure, kPa	Mass density, kg/m3	uncertainty
298.15	101.325	1008.82	5.49

System: 1-methyl-3-octylimidazolium chloride; phases: Liquid
Property: Viscosity, Pa*s (Liquid); method: Capillary tube (Ostwald; Ubbelohde) method
Temperature, K	Pressure, kPa	Viscosity, Pa*s	uncertainty
298.15	101.325	20.868	9.06

System: 1-methyl-3-octylimidazolium chloride; phases: Liquid
Property: Refractive index (Na D-line) (Liquid); method: Standard Abbe refractometry
Temperature, K	Pressure, kPa	Refractive index (Na D-line)	uncertainty
298.15	101.325	1.51051	0.00121

System: 1-methyl-3-octylimidazolium chloride; phases: Liquid
Property: Speed of sound, m/s (Liquid); method: Sing-around technique in a fixed-path interferometer
Pressure, kPa	Temperature, K	Speed of sound, m/s	uncertainty
101	298.15	1721	5.5

System: 1-ethyl-3-methylimidazolium ethyl sulfate; phases: Liquid
Property: Mass density, kg/m3 (Liquid); method: Vibrating tube method
Temperature, K	Pressure, kPa	Mass density, kg/m3	uncertainty
298.15	101.325	1237.63	10.77

System: 1-ethyl-3-methylimidazolium ethyl sulfate; phases: Liquid
Property: Viscosity, Pa*s (Liquid); method: Capillary tube (Ostwald; Ubbelohde) method
Temperature, K	Pressure, kPa	Viscosity, Pa*s	uncertainty
298.15	101.325	0.09758	0.00399

System: water + 1-methyl-3-octylimidazolium chloride; phases: Liquid
Fixed: Pressure, kPa = 101
Fixed: Temperature, K = 298.15
Property: Refractive index (Na D-line) (Liquid); method: Standard Abbe refractometry
Mole fraction of water	Refractive index (Na D-line)	uncertainty
0	1.51051	0.00121
0.1484	1.5076	0.00109
0.203	1.50625	0.00105
0.4076	1.49957	0.00091
0.5334	1.49329	0.00083
0.6807	1.48143	0.00076
0.8185	1.45934	0.00071
0.8803	1.44036	0.00069
0.9307	1.41432	0.00069
0.9635	1.38658	0.00068
1	1.33251	0.00068

System: water + 1-methyl-3-octylimidazolium chloride; phases: Liquid
Fixed: Pressure, kPa = 101
Fixed: Temperature, K = 298.15
Property: Speed of sound, m/s (Liquid); method: Sing-around technique in a fixed-path interferometer
Mole fraction of water	Speed of sound, m/s	uncertainty
0	1721	5.5
0.1484	1666.7	4.8
0.203	1655.1	4.6
0.4076	1633.8	3.7
0.5334	1632.2	3.3
0.6807	1639.3	2.8
0.8185	1650.7	2.4
0.8803	1651.4	2.3
0.9307	1639.6	2.2
0.9635	1611.3	2.2
1	1497	2.2

System: ethanol + water + 1-methyl-3-octylimidazolium chloride; phases: Liquid
Fixed: Pressure, kPa = 101
Fixed: Temperature, K = 298.15
Property: Viscosity, Pa*s (Liquid); method: Capillary tube (Ostwald; Ubbelohde) method
Mole fraction of ethanol	Mole fraction of water	Viscosity, Pa*s	uncertainty
0.0467	0.9348	0.002514	2e-05
0.0558	0.9143	0.003908	2.6e-05
0.0679	0.8854	0.007008	4.4e-05
0.0766	0.8576	0.0105	6e-05
0.0826	0.91	0.002007	2.3e-05
0.0929	0.8165	0.01364	8e-05
0.0962	0.8862	0.002748	2.9e-05
0.0984	0.1869	2.33	0.16
0.1218	0.7443	0.0189	0.00012
0.1329	0.8601	0.002881	3.1e-05
0.1594	0.6721	0.0219	0.00016
0.1807	0.7375	0.007695	6e-05
0.1867	0.7875	0.003207	2.8e-05
0.1968	0.1665	0.8551	0.0439
0.2008	0.4721	0.06812	0.00112
0.2008	0.7927	0.002822	2.7e-05
0.2235	0.6582	0.01037	0.00011
0.2254	0.7596	0.002603	3.1e-05
0.2604	0.7162	0.003164	2.5e-05
0.2624	0.3089	0.1191	0.0023
0.2733	0.7208	0.002591	2.2e-05
0.2777	0.4267	0.04141	0.00047
0.2833	0.1486	0.402	0.0155
0.2958	0.669	0.00356	3.8e-05
0.3057	0.6808	0.002662	3.4e-05
0.3069	0.6239	0.005009	8.8e-05
0.3218	0.5748	0.007072	5.8e-05
0.3263	0.5386	0.00947	7.3e-05
0.3335	0.6189	0.003791	3.7e-05
0.3386	0.6405	0.002729	2.7e-05
0.3599	0.268	0.05873	0.00064
0.3651	0.6297	0.002282	2.5e-05
0.366	0.5069	0.008153	8e-05
0.3714	0.5658	0.004285	4e-05
0.3806	0.3659	0.02418	0.00022
0.3954	0.5743	0.002873	3.6e-05
0.4166	0.5418	0.003353	3.8e-05
0.4363	0.4778	0.004956	4.2e-05
0.4432	0.2332	0.03375	0.00035
0.4437	0.5387	0.002553	2.7e-05
0.4443	0.5002	0.00363	3.8e-05
0.4617	0.4303	0.005846	9.4e-05
0.5079	0.2907	0.01159	0.00013
0.532	0.3966	0.003823	3.3e-05
0.5377	0.4533	0.001472	3.2e-05
0.544	0.4234	0.002522	3.3e-05
0.5558	0.186	0.01616	0.00046
0.5841	0.3951	0.002156	2.3e-05
0.5878	0.3295	0.003918	3.4e-05
0.6004	0.2361	0.007378	8.5e-05
0.6077	0.3891	0.001864	2.1e-05
0.6374	0.3073	0.002912	3.2e-05
0.6743	0.2932	0.002278	2e-05
0.6985	0.0625	0.01108	9e-05
0.6991	0.1777	0.00471	3.9e-05
0.7005	0.2845	0.001923	1.9e-05
0.7599	0.1919	0.002375	2e-05
0.7937	0.0428	0.005553	4.2e-05
0.7997	0.1184	0.002964	2.2e-05
0.847	0.1454	0.001508	1.5e-05

System: ethanol + water + 1-methyl-3-octylimidazolium chloride; phases: Liquid
Fixed: Pressure, kPa = 101
Fixed: Temperature, K = 298.15
Property: Refractive index (Na D-line) (Liquid); method: Standard Abbe refractometry
Mole fraction of ethanol	Mole fraction of water	Refractive index (Na D-line)	uncertainty
0.0467	0.9348	1.36831	0.00073
0.0558	0.9143	1.3819	0.00073
0.0679	0.8854	1.39833	0.00073
0.0766	0.8576	1.41129	0.00074
0.0826	0.91	1.35765	0.00073
0.0929	0.8165	1.42562	0.00075
0.0962	0.8862	1.37031	0.00073
0.0984	0.1869	1.50191	0.00102
0.1218	0.7443	1.44104	0.00076
0.1329	0.8601	1.36124	0.00074
0.1594	0.6721	1.44928	0.00076
0.1807	0.7375	1.41834	0.00076
0.1867	0.7875	1.38199	0.00076
0.1968	0.1665	1.49589	0.00097
0.2008	0.4721	1.47378	0.00081
0.2008	0.7927	1.36427	0.00076
0.2235	0.6582	1.43225	0.00075
0.2254	0.7596	1.37306	0.00075
0.2604	0.7162	1.38087	0.00079
0.2624	0.3089	1.48118	0.00085
0.2733	0.7208	1.36592	0.0008
0.2777	0.4267	1.46709	0.00079
0.2833	0.1486	1.49005	0.00093
0.2958	0.669	1.39021	0.00076
0.3057	0.6808	1.37294	0.00077
0.3069	0.6239	1.4094	0.00074
0.3218	0.5748	1.42378	0.00076
0.3263	0.5386	1.43391	0.00077
0.3335	0.6189	1.39734	0.00078
0.3386	0.6405	1.37926	0.0008
0.3599	0.268	1.47289	0.00083
0.3651	0.6297	1.36663	0.00082
0.366	0.5069	1.4304	0.00076
0.3714	0.5658	1.4094	0.00079
0.3806	0.3659	1.4575	0.00078
0.3954	0.5743	1.38593	0.00081
0.4166	0.5418	1.3925	0.00079
0.4363	0.4778	1.41372	0.0008
0.4432	0.2332	1.46531	0.00081
0.4437	0.5387	1.37657	0.00083
0.4443	0.5002	1.39964	0.00081
0.4617	0.4303	1.421	0.00076
0.5079	0.2907	1.44384	0.00077
0.532	0.3966	1.40523	0.0008
0.5377	0.4533	1.3699	0.00081
0.544	0.4234	1.38532	0.0008
0.5558	0.186	1.4523	0.00078
0.5841	0.3951	1.3778	0.00079
0.5878	0.3295	1.40841	0.00075
0.6004	0.2361	1.43252	0.00075
0.6077	0.3891	1.36557	0.00079
0.6374	0.3073	1.39554	0.00075
0.6743	0.2932	1.38333	0.00076
0.6985	0.0625	1.44546	0.00077
0.6991	0.1777	1.41902	0.00075
0.7005	0.2845	1.3729	0.00075
0.7599	0.1919	1.38964	0.00074
0.7937	0.0428	1.42733	0.00075
0.7997	0.1184	1.40247	0.00074
0.847	0.1454	1.36639	0.00073

System: ethanol + water + 1-methyl-3-octylimidazolium chloride; phases: Liquid
Fixed: Pressure, kPa = 101
Fixed: Temperature, K = 298.15
Property: Speed of sound, m/s (Liquid); method: Sing-around technique in a fixed-path interferometer
Mole fraction of ethanol	Mole fraction of water	Speed of sound, m/s	uncertainty
0.0467	0.9348	1590.1	2.2
0.0558	0.9143	1593.2	2.2
0.0679	0.8854	1594.6	2.2
0.0766	0.8576	1594.2	2.2
0.0826	0.91	1600.1	2.2
0.0929	0.8165	1586.9	2.3
0.0962	0.8862	1587.6	2.2
0.0984	0.1869	1617.4	4.2
0.1218	0.7443	1572.8	2.3
0.1329	0.8601	1587.3	2.2
0.1594	0.6721	1554.6	2.4
0.1807	0.7375	1537.1	2.3
0.1867	0.7875	1535.3	2.2
0.1968	0.1665	1583.3	3.9
0.2008	0.4721	1553.2	2.8
0.2008	0.7927	1540.2	2.2
0.2235	0.6582	1520.2	2.3
0.2254	0.7596	1514.6	2.2
0.2604	0.7162	1488.1	2.2
0.2624	0.3089	1544.6	3.1
0.2733	0.7208	1482.5	2.2
0.2777	0.4267	1525.8	2.7
0.2833	0.1486	1556.1	3.6
0.2958	0.669	1466.3	2.2
0.3057	0.6808	1458.9	2.2
0.3069	0.6239	1469.9	2.2
0.3218	0.5748	1473.1	2.3
0.3263	0.5386	1478.2	2.3
0.3335	0.6189	1449.6	2.2
0.3386	0.6405	1439.5	2.2
0.3599	0.268	1514	2.9
0.3651	0.6297	1418.2	2.2
0.366	0.5069	1460.8	2.3
0.3714	0.5658	1437.3	2.2
0.3806	0.3659	1489.5	2.6
0.3954	0.5743	1410.6	2.2
0.4166	0.5418	1406.3	2.2
0.4363	0.4778	1419.7	2.3
0.4432	0.2332	1487.6	2.8
0.4437	0.5387	1380.4	2.2
0.4443	0.5002	1401.7	2.3
0.4617	0.4303	1418.9	2.3
0.5079	0.2907	1442	2.5
0.532	0.3966	1375.7	2.3
0.5377	0.4533	1329.3	2.2
0.544	0.4234	1344.9	2.2
0.5558	0.186	1446.8	2.6
0.5841	0.3951	1319.1	2.2
0.5878	0.3295	1361.8	2.3
0.6004	0.2361	1402.5	2.4
0.6077	0.3891	1293	2.2
0.6374	0.3073	1327.4	2.2
0.6743	0.2932	1295.5	2.2
0.6985	0.0625	1408.2	2.6
0.6991	0.1777	1355.3	2.3
0.7005	0.2845	1269.7	2.2
0.7599	0.1919	1278.6	2.2
0.7937	0.0428	1351.9	2.4
0.7997	0.1184	1296.9	2.2
0.847	0.1454	1208.9	2.2

System: ethanol + water + 1-methyl-3-octylimidazolium chloride; phases: Liquid
Fixed: Pressure, kPa = 101
Fixed: Temperature, K = 298.15
Property: Mass density, kg/m3 (Liquid); method: Vibrating tube method
Mole fraction of ethanol	Mole fraction of water	Mass density, kg/m3	uncertainty
0.0467	0.9348	983.7	0.8
0.0558	0.9143	982.4	0.8
0.0679	0.8854	981.6	0.8
0.0766	0.8576	982.3	0.8
0.0826	0.91	970.6	0.8
0.0929	0.8165	982.2	0.8
0.0962	0.8862	968.8	0.8
0.0984	0.1869	1002.9	2.8
0.1218	0.7443	981.8	0.8
0.1329	0.8601	955.5	0.8
0.1594	0.6721	979.1	0.8
0.1807	0.7375	961.5	0.8
0.1867	0.7875	945.5	0.8
0.1968	0.1665	994.3	2.2
0.2008	0.4721	985.2	1
0.2008	0.7927	935.3	0.8
0.2235	0.6582	960.4	0.8
0.2254	0.7596	931.5	0.8
0.2604	0.7162	925.9	0.8
0.2624	0.3089	983.7	1.2
0.2733	0.7208	914.7	0.8
0.2777	0.4267	974.1	0.9
0.2833	0.1486	986	1.8
0.2958	0.669	922.1	0.8
0.3057	0.6808	910.3	0.8
0.3069	0.6239	932.5	0.8
0.3218	0.5748	939.6	0.8
0.3263	0.5386	946.3	0.8
0.3335	0.6189	919.1	0.8
0.3386	0.6405	906.3	0.9
0.3599	0.268	970.9	1.1
0.3651	0.6297	891.3	0.9
0.366	0.5069	938.5	0.8
0.3714	0.5658	917.9	0.9
0.3806	0.3659	957.7	0.9
0.3954	0.5743	898.6	0.9
0.4166	0.5418	900.1	0.9
0.4363	0.4778	915	0.9
0.4432	0.2332	958.6	1
0.4437	0.5387	882.2	0.9
0.4443	0.5002	901.9	0.9
0.4617	0.4303	918.5	0.8
0.5079	0.2907	934.5	0.9
0.532	0.3966	894.2	0.9
0.5377	0.4533	858.8	0.9
0.544	0.4234	872.8	0.9
0.5558	0.186	938.6	0.9
0.5841	0.3951	858.8	0.9
0.5878	0.3295	890.8	0.8
0.6004	0.2361	914.9	0.8
0.6077	0.3891	842.1	0.9
0.6374	0.3073	871.1	0.8
0.6743	0.2932	852.7	0.9
0.6985	0.0625	919.9	0.9
0.6991	0.1777	891.3	0.8
0.7005	0.2845	837	0.9
0.7599	0.1919	850.2	0.8
0.7937	0.0428	892.2	0.8
0.7997	0.1184	862.3	0.8
0.847	0.1454	810.8	0.8

System: ethanol + water + 1-ethyl-3-methylimidazolium ethyl sulfate; phases: Liquid
Fixed: Pressure, kPa = 101
Fixed: Temperature, K = 298.15
Property: Viscosity, Pa*s (Liquid); method: Capillary tube (Ostwald; Ubbelohde) method
Mole fraction of ethanol	Mole fraction of water	Viscosity, Pa*s	uncertainty
0.0425	0.9493	0.001473	1.5e-05
0.0462	0.9365	0.001767	1.6e-05
0.054	0.9172	0.002239	1.7e-05
0.0603	0.8923	0.002787	2e-05
0.0723	0.8613	0.003311	2.3e-05
0.0829	0.8208	0.004237	2.9e-05
0.0885	0.9037	0.002015	1.6e-05
0.0898	0.1724	0.04371	0.00084
0.0906	0.3653	0.0264	0.00039
0.1018	0.8819	0.002162	1.7e-05
0.1162	0.8569	0.002603	1.9e-05
0.1307	0.8254	0.002848	2e-05
0.1473	0.8454	0.002302	1.8e-05
0.1532	0.7862	0.003265	2.2e-05
0.1618	0.823	0.002558	1.9e-05
0.1776	0.736	0.003981	2.7e-05
0.1798	0.7952	0.002666	1.9e-05
0.1867	0.3267	0.01971	0.00027
0.203	0.4762	0.01123	0.00011
0.2036	0.7562	0.003061	2.2e-05
0.213	0.6721	0.004695	3.4e-05
0.2156	0.7777	0.002443	1.8e-05
0.2354	0.7098	0.003148	2.2e-05
0.2358	0.7503	0.002537	1.9e-05
0.2581	0.7192	0.002751	2e-05
0.2884	0.6757	0.002836	2.2e-05
0.2972	0.6968	0.002342	1.9e-05
0.3097	0.4125	0.008578	8e-05
0.3172	0.5831	0.004026	3.1e-05
0.3196	0.668	0.002391	2e-05
0.3235	0.6281	0.003109	2.3e-05
0.3439	0.6361	0.002653	2e-05
0.3528	0.1226	0.01865	0.00027
0.354	0.5781	0.003217	2.4e-05
0.3804	0.5884	0.00255	2.1e-05
0.3862	0.6086	0.002334	1.8e-05
0.4044	0.3559	0.006856	6.1e-05
0.4138	0.5756	0.002347	2e-05
0.4195	0.5389	0.002799	2.3e-05
0.4403	0.5426	0.002299	2.1e-05
0.4582	0.4849	0.002967	2.4e-05
0.4657	0.1012	0.01287	0.00016
0.4793	0.4944	0.002444	2.3e-05
0.4911	0.5046	0.002027	2e-05
0.521	0.4447	0.002385	2e-05
0.5486	0.4376	0.002109	1.8e-05
0.5636	0.3905	0.002443	2.2e-05
0.6042	0.159	0.005533	4.8e-05
0.6339	0.3399	0.001976	1.7e-05
0.6484	0.2101	0.0035	2.7e-05
0.6523	0.3414	0.001735	1.6e-05
0.6548	0.0654	0.006067	5.7e-05
0.6675	0.2976	0.002007	1.7e-05
0.7086	0.2767	0.001737	1.6e-05
0.7178	0.241	0.002045	1.7e-05
0.7723	0.2038	0.001728	1.6e-05
0.8545	0.0276	0.002451	2e-05
0.8653	0.125	0.001406	1.5e-05
0.9072	0.0792	0.001343	1.4e-05
0.9667	0.0134	0.001317	1.4e-05

System: ethanol + water + 1-ethyl-3-methylimidazolium ethyl sulfate; phases: Liquid
Fixed: Pressure, kPa = 101
Fixed: Temperature, K = 298.15
Property: Refractive index (Na D-line) (Liquid); method: Standard Abbe refractometry
Mole fraction of ethanol	Mole fraction of water	Refractive index (Na D-line)	uncertainty
0.0425	0.9493	1.34953	0.00068
0.0462	0.9365	1.36004	0.00068
0.054	0.9172	1.37164	0.00068
0.0603	0.8923	1.38604	0.00069
0.0723	0.8613	1.39785	0.00069
0.0829	0.8208	1.41144	0.00069
0.0885	0.9037	1.35476	0.00068
0.0898	0.1724	1.47286	0.00101
0.0906	0.3653	1.46675	0.00088
0.1018	0.8819	1.3645	0.00068
0.1162	0.8569	1.3743	0.00069
0.1307	0.8254	1.38628	0.00069
0.1473	0.8454	1.35959	0.00069
0.1532	0.7862	1.3959	0.0007
0.1618	0.823	1.36735	0.00069
0.1776	0.736	1.4069	0.00071
0.1798	0.7952	1.37537	0.00069
0.1867	0.3267	1.46136	0.00084
0.203	0.4762	1.44988	0.00076
0.2036	0.7562	1.38518	0.0007
0.213	0.6721	1.41571	0.0007
0.2156	0.7777	1.36274	0.0007
0.2354	0.7098	1.39287	0.00071
0.2358	0.7503	1.36892	0.00071
0.2581	0.7192	1.37524	0.00071
0.2884	0.6757	1.38307	0.00071
0.2972	0.6968	1.36457	0.00072
0.3097	0.4125	1.44198	0.00075
0.3172	0.5831	1.40876	0.0007
0.3196	0.668	1.36932	0.00073
0.3235	0.6281	1.38917	0.00071
0.3439	0.6361	1.37423	0.00073
0.3528	0.1226	1.45898	0.00087
0.354	0.5781	1.39703	0.00073
0.3804	0.5884	1.3803	0.00074
0.3862	0.6086	1.36534	0.00075
0.4044	0.3559	1.43426	0.00073
0.4138	0.5756	1.36892	0.00074
0.4195	0.5389	1.38499	0.00075
0.4403	0.5426	1.37261	0.00075
0.4582	0.4849	1.39078	0.00074
0.4657	0.1012	1.45066	0.00082
0.4793	0.4944	1.37712	0.00074
0.4911	0.5046	1.36541	0.00076
0.521	0.4447	1.38047	0.00075
0.5486	0.4376	1.3705	0.00074
0.5636	0.3905	1.38464	0.0007
0.6042	0.159	1.42761	0.00073
0.6339	0.3399	1.37558	0.00071
0.6484	0.2101	1.41004	0.00071
0.6523	0.3414	1.36615	0.00071
0.6548	0.0654	1.43155	0.00075
0.6675	0.2976	1.37857	0.00071
0.7086	0.2767	1.36966	0.0007
0.7178	0.241	1.38045	0.00069
0.7723	0.2038	1.37282	0.00068
0.8545	0.0276	1.39925	0.00069
0.8653	0.125	1.36553	0.00068
0.9072	0.0792	1.36663	0.00068
0.9667	0.0134	1.36802	0.00068

System: ethanol + water + 1-ethyl-3-methylimidazolium ethyl sulfate; phases: Liquid
Fixed: Pressure, kPa = 101
Fixed: Temperature, K = 298.15
Property: Speed of sound, m/s (Liquid); method: Sing-around technique in a fixed-path interferometer
Mole fraction of ethanol	Mole fraction of water	Speed of sound, m/s	uncertainty
0.0425	0.9493	1602	2.2
0.0462	0.9365	1638.4	2.2
0.054	0.9172	1677.3	2.2
0.0603	0.8923	1706.3	2.2
0.0723	0.8613	1719.8	2.3
0.0829	0.8208	1722.3	2.3
0.0885	0.9037	1631.8	2.2
0.0898	0.1724	1668.3	4.3
0.0906	0.3653	1679.5	3.6
0.1018	0.8819	1647	2.2
0.1162	0.8569	1652.9	2.2
0.1307	0.8254	1658.6	2.2
0.1473	0.8454	1607.7	2.2
0.1532	0.7862	1646.3	2.3
0.1618	0.823	1605.4	2.2
0.1776	0.736	1631.9	2.3
0.1798	0.7952	1593.2	2.2
0.1867	0.3267	1640.8	3.3
0.203	0.4762	1632.9	2.8
0.2036	0.7562	1584.5	2.2
0.213	0.6721	1608.2	2.3
0.2156	0.7777	1543.4	2.2
0.2354	0.7098	1565.2	2.3
0.2358	0.7503	1531.1	2.2
0.2581	0.7192	1518.5	2.2
0.2884	0.6757	1506.7	2.3
0.2972	0.6968	1469.5	2.3
0.3097	0.4125	1570.5	2.7
0.3172	0.5831	1522	2.3
0.3196	0.668	1458.3	2.3
0.3235	0.6281	1487.2	2.3
0.3439	0.6361	1446.8	2.3
0.3528	0.1226	1576.8	3.5
0.354	0.5781	1479.1	2.3
0.3804	0.5884	1434.4	2.3
0.3862	0.6086	1404.8	2.3
0.4044	0.3559	1514	2.6
0.4138	0.5756	1392.7	2.3
0.4195	0.5389	1416.8	2.3
0.4403	0.5426	1382.8	2.3
0.4582	0.4849	1404.8	2.3
0.4657	0.1012	1526.6	3.2
0.4793	0.4944	1371.3	2.3
0.4911	0.5046	1343.9	2.3
0.521	0.4447	1355.4	2.3
0.5486	0.4376	1323.7	2.3
0.5636	0.3905	1342.2	2.2
0.6042	0.159	1424.7	2.6
0.6339	0.3399	1297.9	2.2
0.6484	0.2101	1364.7	2.4
0.6523	0.3414	1273.3	2.2
0.6548	0.0654	1421.4	2.7
0.6675	0.2976	1288.8	2.2
0.7086	0.2767	1260.1	2.2
0.7178	0.241	1275.2	2.2
0.7723	0.2038	1242.6	2.2
0.8545	0.0276	1277.3	2.3
0.8653	0.125	1199.3	2.2
0.9072	0.0792	1187.9	2.2
0.9667	0.0134	1172.7	2.2

System: ethanol + water + 1-ethyl-3-methylimidazolium ethyl sulfate; phases: Liquid
Fixed: Pressure, kPa = 101
Fixed: Temperature, K = 298.15
Property: Mass density, kg/m3 (Liquid); method: Vibrating tube method
Mole fraction of ethanol	Mole fraction of water	Mass density, kg/m3	uncertainty
0.0425	0.9493	1000.2	0.82
0.0462	0.9365	1018.2	0.82
0.054	0.9172	1036.13	0.82
0.0603	0.8923	1059.92	0.83
0.0723	0.8613	1079.12	0.83
0.0829	0.8208	1101.17	0.84
0.0885	0.9037	985.2	0.83
0.0898	0.1724	1218.12	4.46
0.0906	0.3653	1207	2.48
0.1018	0.8819	998.5	0.83
0.1162	0.8569	1012.7	0.85
0.1307	0.8254	1032.07	0.85
0.1473	0.8454	966	0.89
0.1532	0.7862	1044.25	0.9
0.1618	0.823	977.2	0.89
0.1776	0.736	1061.92	0.92
0.1798	0.7952	987.9	0.89
0.1867	0.3267	1185.16	1.95
0.203	0.4762	1155.74	1.17
0.2036	0.7562	1002.16	0.92
0.213	0.6721	1073.37	0.86
0.2156	0.7777	943.5	0.96
0.2354	0.7098	1011.32	0.99
0.2358	0.7503	951	0.99
0.2581	0.7192	959.5	1
0.2884	0.6757	970.39	1.01
0.2972	0.6968	917.9	1.11
0.3097	0.4125	1121.71	1.06
0.3172	0.5831	1032.43	0.89
0.3196	0.668	923.9	1.12
0.3235	0.6281	976.97	1.03
0.3439	0.6361	930.6	1.12
0.3528	0.1226	1162.62	2.14
0.354	0.5781	992.03	1.1
0.3804	0.5884	938.21	1.21
0.3862	0.6086	893.8	1.26
0.4044	0.3559	1088.42	0.97
0.4138	0.5756	897.1	1.23
0.4195	0.5389	942.71	1.28
0.4403	0.5426	902.1	1.27
0.4582	0.4849	952.75	1.26
0.4657	0.1012	1130.17	1.56
0.4793	0.4944	907.35	1.28
0.4911	0.5046	869.1	1.36
0.521	0.4447	909.82	1.33
0.5486	0.4376	874	1.26
0.5636	0.3905	915.67	0.99
0.6042	0.159	1047.41	0.98
0.6339	0.3399	876.6	1.08
0.6484	0.2101	987.06	0.91
0.6523	0.3414	843.3	1.11
0.6548	0.0654	1056.15	1
0.6675	0.2976	881.3	1.04
0.7086	0.2767	847.06	1
0.7178	0.241	882.02	0.9
0.7723	0.2038	850.23	0.87
0.8545	0.0276	933.19	0.83
0.8653	0.125	816.8	0.83
0.9072	0.0792	817.04	0.81
0.9667	0.0134	817.49	0.81
