Measured thermophysical data. High-Pressure Vapor-Liquid Equilibria for the Binary Mixtures of Carbon Dioxide + Isopropanol (IPA)
Source: J. Chem. Eng. Data, 2007, 10.1021/je700360n
Compound 1: carbon dioxide, CO2, InChI=1S/CO2/c2-1-3, purity 99.9%
Compound 2: propan-2-ol, C3H8O, InChI=1S/C3H8O/c1-3(2)4/h3-4H,1-2H3, purity 99.5%

System: propan-2-ol + carbon dioxide; phases: Liquid, Gas
Property: Vapor or sublimation pressure, kPa (Liquid); method: CCELL:UFactor:2
Mole fraction of carbon dioxide	Temperature, K	Vapor or sublimation pressure, kPa	uncertainty
0.0585	323.15	1060	30
0.0807	343.15	1990	50
0.0884	323.15	1570	30
0.1026	333.15	2010	40
0.1098	343.15	2640	50
0.1231	323.15	2170	30
0.1485	343.15	3430	60
0.1529	333.15	2940	50
0.1864	343.15	4180	60
0.1989	333.15	3750	60
0.2226	353.15	5130	50
0.227	323.15	3790	60
0.2365	343.15	5050	60
0.237	333.15	4370	60
0.2582	353.15	5820	50
0.2803	333.15	5070	80
0.3219	353.15	6910	80
0.343	323.15	5440	80
0.3538	333.15	6160	70
0.3584	343.15	6800	70
0.3949	353.15	7950	80
0.4168	333.15	6950	70
0.4933	343.15	8210	90
0.5155	353.15	9330	100
0.5167	323.15	7320	80
0.5297	333.15	8050	70
0.5609	333.15	8270	90
0.5839	323.15	7860	90
0.595	333.15	8560	70
0.6124	353.15	10090	120
0.6364	343.15	9180	100
0.6647	333.15	8910	80
0.6845	323.15	8340	90
0.7209	343.15	9680	120
0.7358	353.15	10770	120
0.7702	343.15	9970	120
0.8631	323.15	8970	80
0.9014	323.15	9080	80

System: propan-2-ol + carbon dioxide; phases: Gas, Liquid
Property: Mole fraction of carbon dioxide (Gas); method: Chromatography
Mole fraction of carbon dioxide	Temperature, K	Mole fraction of carbon dioxide	uncertainty
0.0585	323.15	0.9709	0.0046
0.0807	343.15	0.9574	0.0042
0.0884	323.15	0.9822	0.0042
0.1026	333.15	0.9719	0.0042
0.1098	343.15	0.9643	0.0042
0.1231	323.15	0.9845	0.0042
0.1485	343.15	0.9686	0.0042
0.1529	333.15	0.9791	0.0041
0.1864	343.15	0.9702	0.0042
0.1989	333.15	0.9806	0.0041
0.2226	353.15	0.9589	0.0042
0.227	323.15	0.9876	0.004
0.2365	343.15	0.9711	0.0042
0.237	333.15	0.9818	0.0041
0.2582	353.15	0.9586	0.0042
0.2803	333.15	0.9813	0.0041
0.3219	353.15	0.9571	0.0042
0.343	323.15	0.9873	0.004
0.3538	333.15	0.9826	0.0041
0.3584	343.15	0.9693	0.0042
0.3949	353.15	0.9544	0.0043
0.4168	333.15	0.9805	0.0042
0.4933	343.15	0.9652	0.0044
0.5155	353.15	0.9464	0.0045
0.5167	323.15	0.9859	0.0041
0.5297	333.15	0.9794	0.0041
0.5609	333.15	0.9753	0.0043
0.5839	323.15	0.9851	0.0042
0.595	333.15	0.9724	0.0042
0.6124	353.15	0.9349	0.0049
0.6364	343.15	0.9574	0.0044
0.6647	333.15	0.9691	0.0043
0.6845	323.15	0.984	0.0042
0.7209	343.15	0.9516	0.0052
0.7358	353.15	0.9167	0.0052
0.7702	343.15	0.9451	0.0052
0.8631	323.15	0.9754	0.0045
0.9014	323.15	0.972	0.0045
