Measured thermophysical data. Diffusion Coefficients of Organic Compounds at Infinite Dilution in Mixtures Involving Associating Compounds. Experimental Determination and Modeling by Group Contribution Methods
Source: J. Chem. Eng. Data, 2008, 10.1021/je700539w
Compound 1: benzene, C6H6, InChI=1S/C6H6/c1-2-4-6-5-3-1/h1-6H
Compound 2: hexane, C6H14, InChI=1S/C6H14/c1-3-5-6-4-2/h3-6H2,1-2H3
Compound 3: heptane, C7H16, InChI=1S/C7H16/c1-3-5-7-6-4-2/h3-7H2,1-2H3
Compound 4: cyclohexane, C6H12, InChI=1S/C6H12/c1-2-4-6-5-3-1/h1-6H2
Compound 5: acetone, C3H6O, InChI=1S/C3H6O/c1-3(2)4/h1-2H3
Compound 6: methanol, CH4O, InChI=1S/CH4O/c1-2/h2H,1H3
Compound 7: ethanol, C2H6O, InChI=1S/C2H6O/c1-2-3/h3H,2H2,1H3
Compound 8: trichloromethane, CHCl3, InChI=1S/CHCl3/c2-1(3)4/h1H
Compound 9: tetrachloromethane, CCl4, InChI=1S/CCl4/c2-1(3,4)5
Compound 10: benzaldehyde, C7H6O, InChI=1S/C7H6O/c8-6-7-4-2-1-3-5-7/h1-6H
Compound 11: acetophenone, C8H8O, InChI=1S/C8H8O/c1-7(9)8-5-3-2-4-6-8/h2-6H,1H3
Compound 12: phenol, C6H6O, InChI=1S/C6H6O/c7-6-4-2-1-3-5-6/h1-5,7H

System: benzene + hexane; phases: Liquid
Property: Binary diffusion coefficient, m2/s (Liquid); method: Taylor dispersion method
Mole fraction of benzene	Pressure, kPa	Temperature, K	Binary diffusion coefficient, m2/s	uncertainty
0	101	298.15	4.7e-09	0.29

System: benzene + heptane; phases: Liquid
Property: Binary diffusion coefficient, m2/s (Liquid); method: Taylor dispersion method
Mole fraction of benzene	Pressure, kPa	Temperature, K	Binary diffusion coefficient, m2/s	uncertainty
0	101	298.15	3.75e-09	0.23

System: benzene + cyclohexane; phases: Liquid
Property: Binary diffusion coefficient, m2/s (Liquid); method: Taylor dispersion method
Mole fraction of benzene	Pressure, kPa	Temperature, K	Binary diffusion coefficient, m2/s	uncertainty
0	101	298.15	1.92e-09	0.12

System: acetone + benzene; phases: Liquid
Property: Binary diffusion coefficient, m2/s (Liquid); method: Taylor dispersion method
Mole fraction of benzene	Pressure, kPa	Temperature, K	Binary diffusion coefficient, m2/s	uncertainty
0	101	298.15	4.25e-09	0.26

System: methanol + benzene; phases: Liquid
Property: Binary diffusion coefficient, m2/s (Liquid); method: Taylor dispersion method
Mole fraction of benzene	Pressure, kPa	Temperature, K	Binary diffusion coefficient, m2/s	uncertainty
0	101	298.15	2.66e-09	0.17

System: ethanol + benzene; phases: Liquid
Property: Binary diffusion coefficient, m2/s (Liquid); method: Taylor dispersion method
Mole fraction of benzene	Pressure, kPa	Temperature, K	Binary diffusion coefficient, m2/s	uncertainty
0	101	298.15	1.88e-09	0.12

System: trichloromethane + benzene; phases: Liquid
Property: Binary diffusion coefficient, m2/s (Liquid); method: Taylor dispersion method
Mole fraction of benzene	Pressure, kPa	Temperature, K	Binary diffusion coefficient, m2/s	uncertainty
0	101	298.15	2.89e-09	0.18

System: tetrachloromethane + benzene; phases: Liquid
Property: Binary diffusion coefficient, m2/s (Liquid); method: Taylor dispersion method
Mole fraction of benzene	Pressure, kPa	Temperature, K	Binary diffusion coefficient, m2/s	uncertainty
0	101	298.15	1.45e-09	0.09

System: methanol + benzaldehyde; phases: Liquid
Property: Binary diffusion coefficient, m2/s (Liquid); method: Taylor dispersion method
Mole fraction of benzaldehyde	Pressure, kPa	Temperature, K	Binary diffusion coefficient, m2/s	uncertainty
0	101	298.15	1.84e-09	0.12

System: ethanol + benzaldehyde; phases: Liquid
Property: Binary diffusion coefficient, m2/s (Liquid); method: Taylor dispersion method
Mole fraction of benzaldehyde	Pressure, kPa	Temperature, K	Binary diffusion coefficient, m2/s	uncertainty
0	101	298.15	1.02e-09	0.07

System: methanol + acetophenone; phases: Liquid
Property: Binary diffusion coefficient, m2/s (Liquid); method: Taylor dispersion method
Mole fraction of acetophenone	Pressure, kPa	Temperature, K	Binary diffusion coefficient, m2/s	uncertainty
0	101	298.15	1.64e-09	0.1

System: ethanol + acetophenone; phases: Liquid
Property: Binary diffusion coefficient, m2/s (Liquid); method: Taylor dispersion method
Mole fraction of acetophenone	Pressure, kPa	Temperature, K	Binary diffusion coefficient, m2/s	uncertainty
0	101	298.15	9.1e-10	0.06

System: methanol + phenol; phases: Liquid
Property: Binary diffusion coefficient, m2/s (Liquid); method: Taylor dispersion method
Mole fraction of phenol	Pressure, kPa	Temperature, K	Binary diffusion coefficient, m2/s	uncertainty
0	101	298.15	1.76e-09	0.11

System: ethanol + phenol; phases: Liquid
Property: Binary diffusion coefficient, m2/s (Liquid); method: Taylor dispersion method
Mole fraction of phenol	Pressure, kPa	Temperature, K	Binary diffusion coefficient, m2/s	uncertainty
0	101	298.15	1.01e-09	0.06

System: ethanol + benzene + hexane; phases: Liquid
Fixed: Pressure, kPa = 101
Fixed: Temperature, K = 298.15
Fixed: Mole fraction of benzene = 0
Property: Binary diffusion coefficient, m2/s (Liquid); method: Taylor dispersion method
Solvent: Mole fraction of hexane	Binary diffusion coefficient, m2/s	uncertainty
0	1.88e-09	0.12
0.2024	2.13e-09	0.13
0.2864	2.25e-09	0.14
0.3942	2.45e-09	0.15
0.4739	2.65e-09	0.17
0.6082	3.05e-09	0.19
0.7083	3.43e-09	0.21
0.7796	3.82e-09	0.24
0.8913	4.35e-09	0.27
1	4.7e-09	0.29

System: ethanol + benzene + heptane; phases: Liquid
Fixed: Pressure, kPa = 101
Fixed: Temperature, K = 298.15
Fixed: Mole fraction of benzene = 0
Property: Binary diffusion coefficient, m2/s (Liquid); method: Taylor dispersion method
Solvent: Mole fraction of heptane	Binary diffusion coefficient, m2/s	uncertainty
0	1.88e-09	0.12
0.1	2.11e-09	0.13
0.1835	2.3e-09	0.14
0.3908	2.73e-09	0.17
0.4991	2.99e-09	0.19
0.6068	3.23e-09	0.2
0.8001	3.6e-09	0.22
1	3.75e-09	0.23

System: ethanol + benzene + cyclohexane; phases: Liquid
Fixed: Pressure, kPa = 101
Fixed: Temperature, K = 298.15
Fixed: Mole fraction of benzene = 0
Property: Binary diffusion coefficient, m2/s (Liquid); method: Taylor dispersion method
Solvent: Mole fraction of cyclohexane	Binary diffusion coefficient, m2/s	uncertainty
0	1.88e-09	0.12
0.1894	1.97e-09	0.12
0.3539	1.99e-09	0.12
0.4506	2.01e-09	0.13
0.5626	2.04e-09	0.13
0.6898	2.06e-09	0.13
0.8348	2.06e-09	0.13
1	1.92e-09	0.12

System: methanol + trichloromethane + benzene; phases: Liquid
Fixed: Pressure, kPa = 101
Fixed: Temperature, K = 298.15
Fixed: Mole fraction of benzene = 0
Property: Binary diffusion coefficient, m2/s (Liquid); method: Taylor dispersion method
Solvent: Mole fraction of trichloromethane	Binary diffusion coefficient, m2/s	uncertainty
0	2.66e-09	0.17
0.1962	2.26e-09	0.14
0.334	2.24e-09	0.14
0.4441	2.23e-09	0.14
0.534	2.27e-09	0.14
0.6117	2.4e-09	0.15
0.6609	2.45e-09	0.15
0.7958	2.6e-09	0.16
0.8844	2.83e-09	0.18
1	2.89e-09	0.18

System: tetrachloromethane + ethanol + benzene; phases: Liquid
Fixed: Pressure, kPa = 101
Fixed: Temperature, K = 298.15
Fixed: Mole fraction of benzene = 0
Property: Binary diffusion coefficient, m2/s (Liquid); method: Taylor dispersion method
Solvent: Mole fraction of tetrachloromethane	Binary diffusion coefficient, m2/s	uncertainty
0	1.88e-09	0.12
0.2035	1.72e-09	0.11
0.2998	1.7e-09	0.11
0.4042	1.67e-09	0.1
0.5047	1.64e-09	0.1
0.6052	1.65e-09	0.1
0.7033	1.63e-09	0.1
0.8067	1.59e-09	0.1
0.898	1.56e-09	0.1
1	1.45e-09	0.09

System: methanol + acetone + benzene; phases: Liquid
Fixed: Pressure, kPa = 101
Fixed: Temperature, K = 298.15
Fixed: Mole fraction of benzene = 0
Property: Binary diffusion coefficient, m2/s (Liquid); method: Taylor dispersion method
Solvent: Mole fraction of acetone	Binary diffusion coefficient, m2/s	uncertainty
0	2.66e-09	0.17
0.122	2.95e-09	0.18
0.2099	3.21e-09	0.2
0.3594	3.5e-09	0.22
0.5372	3.71e-09	0.23
0.7061	3.87e-09	0.24
0.79	3.96e-09	0.25
0.8781	4.12e-09	0.26
1	4.25e-09	0.26

System: ethanol + acetone + benzene; phases: Liquid
Fixed: Pressure, kPa = 101
Fixed: Temperature, K = 298.15
Fixed: Mole fraction of benzene = 0
Property: Binary diffusion coefficient, m2/s (Liquid); method: Taylor dispersion method
Solvent: Mole fraction of acetone	Binary diffusion coefficient, m2/s	uncertainty
0	1.88e-09	0.12
0.1163	2.27e-09	0.14
0.203	2.54e-09	0.16
0.3396	2.93e-09	0.18
0.4016	3.12e-09	0.19
0.5058	3.41e-09	0.21
0.5437	3.5e-09	0.22
0.7084	3.9e-09	0.24
0.8097	4.16e-09	0.26
1	4.25e-09	0.26

System: acetone + benzene + hexane; phases: Liquid
Fixed: Pressure, kPa = 101
Fixed: Temperature, K = 298.15
Fixed: Mole fraction of benzene = 0
Property: Binary diffusion coefficient, m2/s (Liquid); method: Taylor dispersion method
Solvent: Mole fraction of acetone	Binary diffusion coefficient, m2/s	uncertainty
0	4.7e-09	0.29
0.1926	4.82e-09	0.3
0.4004	4.75e-09	0.29
0.5055	4.68e-09	0.29
0.7667	4.5e-09	0.28
0.891	4.39e-09	0.27
1	4.25e-09	0.26

System: acetone + benzene + cyclohexane; phases: Liquid
Fixed: Pressure, kPa = 101
Fixed: Temperature, K = 298.15
Fixed: Mole fraction of benzene = 0
Property: Binary diffusion coefficient, m2/s (Liquid); method: Taylor dispersion method
Solvent: Mole fraction of acetone	Binary diffusion coefficient, m2/s	uncertainty
0	1.92e-09	0.12
0.19	2.46e-09	0.15
0.3	2.71e-09	0.17
0.5033	3.21e-09	0.2
0.7449	3.8e-09	0.24
0.8777	4.1e-09	0.25
1	4.25e-09	0.26

System: tetrachloromethane + acetone + benzene; phases: Liquid
Fixed: Pressure, kPa = 101
Fixed: Temperature, K = 298.15
Fixed: Mole fraction of benzene = 0
Property: Binary diffusion coefficient, m2/s (Liquid); method: Taylor dispersion method
Solvent: Mole fraction of acetone	Binary diffusion coefficient, m2/s	uncertainty
0	1.45e-09	0.09
0.2164	1.84e-09	0.12
0.3132	2.06e-09	0.13
0.405	2.28e-09	0.14
0.5146	2.51e-09	0.16
0.5823	2.69e-09	0.17
0.6717	2.95e-09	0.18
0.8005	3.38e-09	0.21
0.9073	3.8e-09	0.24
1	4.25e-09	0.26

System: tetrachloromethane + benzene + cyclohexane; phases: Liquid
Fixed: Pressure, kPa = 101
Fixed: Temperature, K = 298.15
Fixed: Mole fraction of benzene = 0
Property: Binary diffusion coefficient, m2/s (Liquid); method: Taylor dispersion method
Solvent: Mole fraction of tetrachloromethane	Binary diffusion coefficient, m2/s	uncertainty
0	1.92e-09	0.12
0.2047	1.89e-09	0.12
0.3317	1.85e-09	0.12
0.433	1.81e-09	0.11
0.5333	1.75e-09	0.11
0.6298	1.69e-09	0.11
0.7166	1.64e-09	0.1
0.7959	1.59e-09	0.1
1	1.45e-09	0.09

System: ethanol + methanol + benzaldehyde; phases: Liquid
Fixed: Pressure, kPa = 101
Fixed: Temperature, K = 298.15
Fixed: Mole fraction of benzaldehyde = 0
Property: Binary diffusion coefficient, m2/s (Liquid); method: Taylor dispersion method
Solvent: Mole fraction of methanol	Binary diffusion coefficient, m2/s	uncertainty
0	1.02e-09	0.07
0.2269	1.19e-09	0.08
0.3477	1.29e-09	0.08
0.4596	1.38e-09	0.09
0.5484	1.45e-09	0.09
0.6232	1.51e-09	0.1
0.7067	1.58e-09	0.1
0.7959	1.65e-09	0.1
0.8961	1.74e-09	0.11
1	1.84e-09	0.12

System: ethanol + methanol + acetophenone; phases: Liquid
Fixed: Pressure, kPa = 101
Fixed: Temperature, K = 298.15
Fixed: Mole fraction of acetophenone = 0
Property: Binary diffusion coefficient, m2/s (Liquid); method: Taylor dispersion method
Solvent: Mole fraction of methanol	Binary diffusion coefficient, m2/s	uncertainty
0	9.1e-10	0.06
0.2269	1.06e-09	0.07
0.3477	1.15e-09	0.07
0.4596	1.23e-09	0.08
0.5484	1.29e-09	0.08
0.6232	1.35e-09	0.09
0.7067	1.41e-09	0.09
0.7959	1.47e-09	0.09
0.8961	1.55e-09	0.1
1	1.64e-09	0.1

System: ethanol + methanol + phenol; phases: Liquid
Fixed: Pressure, kPa = 101
Fixed: Temperature, K = 298.15
Fixed: Mole fraction of phenol = 0
Property: Binary diffusion coefficient, m2/s (Liquid); method: Taylor dispersion method
Solvent: Mole fraction of methanol	Binary diffusion coefficient, m2/s	uncertainty
0	1.01e-09	0.06
0.2269	1.18e-09	0.07
0.3477	1.26e-09	0.08
0.4596	1.34e-09	0.08
0.5484	1.41e-09	0.09
0.6232	1.46e-09	0.09
0.7067	1.52e-09	0.1
0.7959	1.59e-09	0.1
0.8961	1.67e-09	0.1
1	1.76e-09	0.11
