Measured thermophysical data. Molar Heat Capacities, Thermodynamic Properties, and Thermal Stability of trans-4-(Aminomethyl)cyclohexanecarboxylic Acid
Source: J. Chem. Eng. Data, 2007, 10.1021/je700072a
Compound 1: carbon dioxide, CO2, InChI=1S/CO2/c2-1-3
Compound 2: nitrogen, N2, InChI=1S/N2/c1-2
Compound 3: water, H2O, InChI=1S/H2O/h1H2
Compound 4: oxygen, O2, InChI=1S/O2/c1-2
Compound 5: trans-4-(aminomethyl)cyclohexanecarboxylic acid, C8H15NO2, InChI=1S/C8H15NO2/c9-5-6-1-3-7(4-2-6)8(10)11/h6-7H,1-5,9H2,(H,10,11)/t6-,7-

System: trans-4-(aminomethyl)cyclohexanecarboxylic acid; phases: Crystal, Liquid, Air at 1 atmosphere
Property: Normal melting temperature, K (Crystal); method: VISOBS
Normal melting temperature, K	uncertainty
522.15	4

System: trans-4-(aminomethyl)cyclohexanecarboxylic acid; phases: Crystal
Fixed: Pressure, kPa = 101.325
Property: Molar heat capacity at constant pressure, J/K/mol (Crystal); method: SMALLAD:UFactor:4
Temperature, K	Molar heat capacity at constant pressure, J/K/mol	uncertainty
82.12	74.7	1.47
86.25	76.89	1.5
90.28	79.76	1.61
94.31	82.4	1.64
98.35	85	1.67
102.41	87.81	1.71
106.49	90.49	1.74
110.6	93.05	1.77
114.62	95.54	1.8
118.68	98.24	1.84
122.78	100.67	1.87
126.81	103.29	1.9
130.9	105.64	1.93
135.04	107.88	1.96
139.12	109.84	1.98
143.27	111.62	2
147.47	113.47	2.03
151.62	115.25	2.05
155.73	116.97	2.07
159.91	118.97	2.09
164.15	120.5	2.11
168.36	122.02	2.13
172.53	123.18	2.15
176.78	124.4	2.16
181.09	125.84	2.18
185.38	127.19	2.2
189.63	128.43	2.21
193.83	129.9	2.23
198.09	130.84	2.24
202.43	132.24	2.26
206.76	133.38	2.27
211.06	134.92	2.29
215.33	136.11	2.31
219.57	138	2.33
223.88	139.22	2.35
228.26	141.19	2.37
232.59	143.17	2.39
236.84	145.38	2.42
240.99	147.84	2.45
245.16	149.97	2.48
249.36	153.29	2.52
253.5	156.23	2.56
257.64	159.56	2.6
261.72	162.66	2.64
265.9	166	2.68
270.14	168.94	2.71
274.32	172.81	2.76
278.44	176.02	2.8
282.51	180.3	2.85
286.62	184.12	2.9
290.75	187.46	2.94
294.85	190.4	2.98
298.94	194.15	3.03
303.01	197.05	3.06
307.17	200.02	3.1
311.37	202.88	3.13
315.53	205.54	3.17
319.67	209.32	3.21
323.79	212.66	3.26
327.88	215.68	3.29
331.96	219.46	3.34
336.09	222.93	3.38
340.27	226.39	3.43
344.44	229.61	3.47
348.6	233.13	3.51
352.73	236.69	3.55
356.85	239.65	3.59
360.96	242.26	3.62
365.13	245.3	3.66
369.37	248.57	3.7
373.63	252.41	3.75
377.94	254.98	3.78

Reaction: -1 trans-4-(aminomethyl)cyclohexanecarboxylic acid + 8 carbon dioxide + .5 nitrogen + 7.5 water + -10.75 oxygen
Property: Specific internal energy of reaction at constant volume, J/g
-30445.32
