Measured thermophysical data. Solubility of Rifapentine in Different Organic Solvents
Source: J. Chem. Eng. Data, 2008, 10.1021/je7007457
Compound 1: rifapentine, C47H64N4O12, InChI=1S/C47H64N4O12/c1-24-13-12-14-25(2)46(59)49-37-32(23-48-51-20-18-50(19-21-51)31-15-10-11-16-31)41(56)34-35(42(37)57)40(55)29(6)44-36(34)45(58)47(8,63-44)61-22-17-33(60-9)26(3)43(62-30(7)52)28(5)39(54)27(4)38(24)53/h12-14,17,22-24,26-28,31,33,38-39,43,53-57H,10-11,15-16,18-21H2,1-9H3,(H,49,59)/b13-12+,22-17+,25-14-,48-23+/t24-,26+,27+,28+,33-,38-,39+,43+,47-/m0/s1, purity 99%
Compound 2: methanol, CH4O, InChI=1S/CH4O/c1-2/h2H,1H3, purity 99.5%
Compound 3: ethanol, C2H6O, InChI=1S/C2H6O/c1-2-3/h3H,2H2,1H3, purity 99.5%
Compound 4: acetone, C3H6O, InChI=1S/C3H6O/c1-3(2)4/h1-2H3, purity 99.5%
Compound 5: trichloromethane, CHCl3, InChI=1S/CHCl3/c2-1(3)4/h1H, purity 99.5%
Compound 6: dichloromethane, CH2Cl2, InChI=1S/CH2Cl2/c2-1-3/h1H2, purity 99.5%

System: methanol + rifapentine; phases: Liquid, Crystal
Fixed: Pressure, kPa = 101
Property: Mole fraction of rifapentine (Liquid); method: UV Spectra
Temperature, K	Mole fraction of rifapentine	uncertainty
278.15	0.022	0.0014
283.15	0.0224	0.0015
288.15	0.0229	0.0015
293.15	0.0235	0.0015
297.15	0.0242	0.0016
303.15	0.0249	0.0016
308.15	0.0257	0.0017
313.15	0.0267	0.0017
318.15	0.0278	0.0018
323.15	0.029	0.0019

System: ethanol + rifapentine; phases: Liquid, Crystal
Fixed: Pressure, kPa = 101
Property: Mole fraction of rifapentine (Liquid); method: UV Spectra
Temperature, K	Mole fraction of rifapentine	uncertainty
278.15	0.000515	2.3e-05
283.15	0.000525	2.4e-05
288.15	0.000541	2.4e-05
293.15	0.000562	2.5e-05
297.15	0.000583	2.6e-05
303.15	0.000604	2.7e-05
308.15	0.000625	2.8e-05
313.15	0.000651	2.9e-05
318.15	0.000677	3.1e-05
323.15	0.000703	3.2e-05

System: acetone + rifapentine; phases: Liquid, Crystal
Fixed: Pressure, kPa = 101
Property: Mole fraction of rifapentine (Liquid); method: UV Spectra
Temperature, K	Mole fraction of rifapentine	uncertainty
278.15	0.000523	2e-05
283.15	0.00053	2e-05
288.15	0.000536	2e-05
293.15	0.000549	2.1e-05
297.15	0.000563	2.1e-05
303.15	0.000576	2.2e-05
308.15	0.000609	2.3e-05
313.15	0.000635	2.4e-05
318.15	0.000668	2.5e-05
323.15	0.000701	2.6e-05

System: trichloromethane + rifapentine; phases: Liquid, Crystal
Fixed: Pressure, kPa = 101
Property: Mole fraction of rifapentine (Liquid); method: UV
Temperature, K	Mole fraction of rifapentine	uncertainty
278.15	0.0254	0.0007
283.15	0.0265	0.0007
288.15	0.0281	0.0007
293.15	0.0287	0.0007
297.15	0.0293	0.0008
303.15	0.0299	0.0008
308.15	0.0308	0.0008
313.15	0.0316	0.0008
318.15	0.0326	0.0008
323.15	0.0334	0.0009

System: dichloromethane + rifapentine; phases: Liquid, Crystal
Fixed: Pressure, kPa = 101
Property: Mole fraction of rifapentine (Liquid); method: UV Spectra
Temperature, K	Mole fraction of rifapentine	uncertainty
278.15	0.0159	0.0005
283.15	0.0165	0.0005
288.15	0.0175	0.0005
293.15	0.0184	0.0006
297.15	0.0196	0.0006
303.15	0.0209	0.0006
308.15	0.0224	0.0007
