Measured thermophysical data. Solubility of a-Sitosteryl Maleate and Stigmasteryl Maleate in Acetone and Ethyl Acetate
Source: J. Chem. Eng. Data, 2007, 10.1021/je7000396
Compound 1: beta-sitosteryl maleate, C33H52O3, InChI=1S/C33H52O3/c1-7-24(22(2)3)11-10-23(4)28-14-15-29-27-13-12-25-21-26(36-20-8-9-31(34)35)16-18-32(25,5)30(27)17-19-33(28,29)6/h8-12,22-24,26-30H,7,13-21H2,1-6H3,(H,34,35)/b9-8-,11-10+/t23-,24-,26+,27+,28-,29+,30+,32+,33-/m1/s1, purity 95%
Compound 2: stigmastenyl maleate, C33H52O4, InChI=1S/C33H52O4/c1-7-23(21(2)3)9-8-22(4)27-12-13-28-26-11-10-24-20-25(37-31(36)15-14-30(34)35)16-18-32(24,5)29(26)17-19-33(27,28)6/h14-16,21-24,26-29H,7-13,17-20H2,1-6H3,(H,34,35)/b15-14-/t22-,23-,24?,26?,27-,28?,29?,32+,33-/m1/s1, purity 95%
Compound 3: acetone, C3H6O, InChI=1S/C3H6O/c1-3(2)4/h1-2H3
Compound 4: ethyl acetate, C4H8O2, InChI=1S/C4H8O2/c1-3-6-4(2)5/h3H2,1-2H3

System: acetone + beta-sitosteryl maleate; phases: Liquid, Crystal
Fixed: Pressure, kPa = 101
Property: Solid-liquid equilibrium temperature, K (Liquid); method: VISOBS
Mole fraction of beta-sitosteryl maleate	Solid-liquid equilibrium temperature, K	uncertainty
0.0004899	289.75	9.99
0.0008994	304.15	7.6
0.001275	310.65	3.76
0.001602	313.35	2.64
0.001978	317.15	2.92
0.002343	320.95	1.94
0.003114	325.15	1.56

System: ethyl acetate + beta-sitosteryl maleate; phases: Liquid, Crystal
Fixed: Pressure, kPa = 101
Property: Solid-liquid equilibrium temperature, K (Liquid); method: VISOBS
Mole fraction of beta-sitosteryl maleate	Solid-liquid equilibrium temperature, K	uncertainty
0.003501	288.15	11.8
0.004773	293.15	11.13
0.005864	298.15	9.79
0.007755	303.15	9.62
0.009282	308.15	5.1
0.01218	313.15	4.7
0.018	317.85	2.31
0.02519	322.15	2.01

System: acetone + stigmastenyl maleate; phases: Liquid, Crystal
Fixed: Pressure, kPa = 101
Property: Solid-liquid equilibrium temperature, K (Liquid); method: VISOBS
Mole fraction of stigmastenyl maleate	Solid-liquid equilibrium temperature, K	uncertainty
0.003826	293.15	2.44
0.004312	296.65	2.33
0.005346	303.65	1.94
0.007852	317.15	1.54
0.01021	325.65	1.23

System: ethyl acetate + stigmastenyl maleate; phases: Liquid, Crystal
Fixed: Pressure, kPa = 101
Property: Solid-liquid equilibrium temperature, K (Liquid); method: VISOBS
Mole fraction of stigmastenyl maleate	Solid-liquid equilibrium temperature, K	uncertainty
0.00146	288.15	4.78
0.001789	293.25	3.23
0.002025	298.15	3.25
0.002801	302.65	1.69
0.003951	308.65	1.89
0.004382	312.65	1.93
0.005301	317.35	1.59
