Measured thermophysical data. Critical Temperatures and Pressures of Several Binary and Ternary Mixtures Concerning the Alkylation of 2-Methylpropane with 1-Butene in the Presence of Methane or Carbon Dioxide
Source: J. Chem. Eng. Data, 2007, 10.1021/je700132w
Compound 1: 2-methylpropane, C4H10, InChI=1S/C4H10/c1-4(2)3/h4H,1-3H3, purity 99.9%
Compound 2: 2,2,4-trimethylpentane, C8H18, InChI=1S/C8H18/c1-7(2)6-8(3,4)5/h7H,6H2,1-5H3, purity 99%
Compound 3: carbon dioxide, CO2, InChI=1S/CO2/c2-1-3, purity 99.95%
Compound 4: 1-butene, C4H8, InChI=1S/C4H8/c1-3-4-2/h3H,1,4H2,2H3, purity 99.95%
Compound 5: methane, CH4, InChI=1S/CH4/h1H4, purity 99.9%

System: 2-methylpropane; phases: Liquid, Gas
Property: Critical pressure, kPa (Liquid); method: Direct measurement
Critical pressure, kPa	uncertainty
3620	60

System: 2-methylpropane; phases: Liquid, Gas
Property: Critical temperature, K (Liquid); method: Visual observation in an unstirred cell
Critical temperature, K	uncertainty
409.9	0.6

System: 2-methylpropane; phases: Liquid, Gas
Property: Critical density, kg/m3 (Liquid); method: Rectilinear diameter
Critical density, kg/m3	uncertainty
220	6

System: 2,2,4-trimethylpentane; phases: Liquid, Gas
Property: Critical pressure, kPa (Liquid); method: Direct measurement
Critical pressure, kPa	uncertainty
2570	60

System: 2,2,4-trimethylpentane; phases: Liquid, Gas
Property: Critical temperature, K (Liquid); method: Visual observation in an unstirred cell
Critical temperature, K	uncertainty
544.1	0.6

System: 2,2,4-trimethylpentane; phases: Liquid, Gas
Property: Critical density, kg/m3 (Liquid); method: Rectilinear diameter
Critical density, kg/m3	uncertainty
251	7

System: carbon dioxide; phases: Liquid, Gas
Property: Critical pressure, kPa (Liquid); method: Direct measurement
Critical pressure, kPa	uncertainty
7380	60

System: carbon dioxide; phases: Liquid, Gas
Property: Critical temperature, K (Liquid); method: Visual observation in an unstirred cell
Critical temperature, K	uncertainty
304.8	0.6

System: carbon dioxide; phases: Liquid, Gas
Property: Critical density, kg/m3 (Liquid); method: Rectilinear diameter
Critical density, kg/m3	uncertainty
473	8

System: 1-butene; phases: Liquid, Gas
Property: Critical pressure, kPa (Liquid); method: Direct measurement
Critical pressure, kPa	uncertainty
4000	60

System: 1-butene; phases: Liquid, Gas
Property: Critical temperature, K (Liquid); method: Visual observation in an unstirred cell
Critical temperature, K	uncertainty
421.2	0.6

System: 1-butene; phases: Liquid, Gas
Property: Critical density, kg/m3 (Liquid); method: Rectilinear diameter
Critical density, kg/m3	uncertainty
233	7

System: 2-methylpropane + 1-butene; phases: Liquid, Gas
Property: Critical pressure, kPa (Liquid); method: Direct measurement
Mole fraction of 1-butene	Critical pressure, kPa	uncertainty
0	3620	60
0.158	3670	60
0.259	3710	60
0.417	3770	60
0.6	3850	60
0.831	3930	60
1	4000	60

System: 2-methylpropane + 1-butene; phases: Liquid, Gas
Property: Critical temperature, K (Liquid); method: Visual observation in an unstirred cell
Mole fraction of 1-butene	Critical temperature, K	uncertainty
0	409.9	0.6
0.158	411.3	0.6
0.259	412.2	0.6
0.417	413.9	0.6
0.6	416	0.6
0.831	418.5	0.6
1	421.2	0.6

System: 2-methylpropane + 2,2,4-trimethylpentane; phases: Liquid, Gas
Property: Critical pressure, kPa (Liquid); method: Direct measurement
Mole fraction of 2-methylpropane	Critical pressure, kPa	uncertainty
0	2570	60
0.302	3210	60
0.621	3960	60
0.795	4210	60
0.899	4010	60
0.956	3810	60
1	3620	60

System: 2-methylpropane + 2,2,4-trimethylpentane; phases: Liquid, Gas
Property: Critical temperature, K (Liquid); method: Visual observation in an unstirred cell
Mole fraction of 2-methylpropane	Critical temperature, K	uncertainty
0	544.1	0.6
0.302	523	0.6
0.621	489.2	0.6
0.795	458.1	0.6
0.899	435.8	0.6
0.956	421.2	0.6
1	409.9	0.6

System: methane + 2-methylpropane; phases: Liquid, Gas
Property: Critical pressure, kPa (Liquid); method: Direct measurement
Mole fraction of methane	Critical pressure, kPa	uncertainty
0	3620	60
0.186	5320	60
0.419	7770	60
0.47	8380	60
0.542	9470	60
0.616	10690	60
0.623	10780	60
0.67	11370	60
0.695	11540	60
0.711	11630	60

System: methane + 2-methylpropane; phases: Liquid, Gas
Property: Critical temperature, K (Liquid); method: Visual observation in an unstirred cell
Mole fraction of methane	Critical temperature, K	uncertainty
0	409.9	0.6
0.186	396.2	0.6
0.419	372.8	0.6
0.47	365.8	0.6
0.542	350.9	0.6
0.616	330.3	0.6
0.623	328.5	0.6
0.67	313.1	0.6
0.695	304.7	0.6
0.711	299.2	0.6

System: 2-methylpropane + carbon dioxide; phases: Liquid, Gas
Property: Critical pressure, kPa (Liquid); method: Direct measurement
Mole fraction of carbon dioxide	Critical pressure, kPa	uncertainty
0	3620	60
0.285	5500	60
0.386	6130	60
0.508	6760	60
0.591	7110	60
0.747	7530	60
0.802	7550	60
1	7380	60

System: 2-methylpropane + carbon dioxide; phases: Liquid, Gas
Property: Critical temperature, K (Liquid); method: Visual observation in an unstirred cell
Mole fraction of carbon dioxide	Critical temperature, K	uncertainty
0	409.9	0.6
0.285	388.6	0.6
0.386	380.2	0.6
0.508	369.3	0.6
0.591	358.6	0.6
0.747	335.1	0.6
0.802	326.4	0.6
1	304.8	0.6

System: methane + 2-methylpropane + 1-butene; phases: Liquid, Gas
Property: Critical pressure, kPa (Liquid); method: Direct measurement
Mole fraction of 2-methylpropane	Mole fraction of 1-butene	Critical pressure, kPa	uncertainty
0.374	0.06	9490	60
0.401	0.025	9810	60
0.406	0.015	10010	60
0.411	0.065	8840	60
0.439	0.028	9130	60
0.444	0.016	9340	60
0.5	0.079	7550	60
0.537	0.034	7750	60
0.547	0.02	7880	60
0.58	0.093	6580	60
0.629	0.04	6690	60
0.639	0.023	6820	60

System: methane + 2-methylpropane + 1-butene; phases: Liquid, Gas
Property: Critical temperature, K (Liquid); method: Visual observation in an unstirred cell
Mole fraction of 2-methylpropane	Mole fraction of 1-butene	Critical temperature, K	uncertainty
0.374	0.06	336.1	0.6
0.401	0.025	338.5	0.6
0.406	0.015	338.7	0.6
0.411	0.065	347.5	0.6
0.439	0.028	349.7	0.6
0.444	0.016	349	0.6
0.5	0.079	365	0.6
0.537	0.034	367.6	0.6
0.547	0.02	369.3	0.6
0.58	0.093	376.8	0.6
0.629	0.04	379.7	0.6
0.639	0.023	380.3	0.6

System: methane + 2-methylpropane + 2,2,4-trimethylpentane; phases: Liquid, Gas
Property: Critical pressure, kPa (Liquid); method: Direct measurement
Mole fraction of 2-methylpropane	Mole fraction of 2,2,4-trimethylpentane	Critical pressure, kPa	uncertainty
0.334	0.063	11410	60
0.369	0.07	10510	60
0.385	0.026	10710	60
0.396	0.015	10460	60
0.423	0.029	9930	60
0.435	0.016	9750	60
0.458	0.086	8780	60
0.52	0.036	8320	60
0.535	0.103	7710	60
0.538	0.02	8140	60
0.612	0.042	7230	60
0.629	0.024	7080	60

System: methane + 2-methylpropane + 2,2,4-trimethylpentane; phases: Liquid, Gas
Property: Critical temperature, K (Liquid); method: Visual observation in an unstirred cell
Mole fraction of 2-methylpropane	Mole fraction of 2,2,4-trimethylpentane	Critical temperature, K	uncertainty
0.334	0.063	371.3	0.6
0.369	0.07	383.2	0.6
0.385	0.026	351.9	0.6
0.396	0.015	344.3	0.6
0.423	0.029	363.5	0.6
0.435	0.016	356	0.6
0.458	0.086	405.2	0.6
0.52	0.036	383.7	0.6
0.535	0.103	417.3	0.6
0.538	0.02	376.1	0.6
0.612	0.042	395.4	0.6
0.629	0.024	387.8	0.6

System: 2-methylpropane + 1-butene + carbon dioxide; phases: Liquid, Gas
Property: Critical pressure, kPa (Liquid); method: Direct measurement
Mole fraction of 2-methylpropane	Mole fraction of 1-butene	Critical pressure, kPa	uncertainty
0.273	0.04	7470	60
0.28	0.028	7470	60
0.286	0.011	7480	60
0.346	0.051	7200	60
0.351	0.036	7220	60
0.359	0.013	7250	60
0.387	0.057	7010	60
0.396	0.041	7030	60
0.405	0.015	7070	60
0.483	0.071	6490	60
0.496	0.05	6540	60
0.514	0.019	6590	60

System: 2-methylpropane + 1-butene + carbon dioxide; phases: Liquid, Gas
Property: Critical temperature, K (Liquid); method: Visual observation in an unstirred cell
Mole fraction of 2-methylpropane	Mole fraction of 1-butene	Critical temperature, K	uncertainty
0.273	0.04	345.1	0.6
0.28	0.028	343.6	0.6
0.286	0.011	341.5	0.6
0.346	0.051	357.6	0.6
0.351	0.036	355.8	0.6
0.359	0.013	353.8	0.6
0.387	0.057	364.4	0.6
0.396	0.041	362.8	0.6
0.405	0.015	360.5	0.6
0.483	0.071	376.6	0.6
0.496	0.05	375.4	0.6
0.514	0.019	373.4	0.6

System: 2-methylpropane + carbon dioxide + 2,2,4-trimethylpentane; phases: Liquid, Gas
Property: Critical pressure, kPa (Liquid); method: Direct measurement
Mole fraction of 2-methylpropane	Mole fraction of 2,2,4-trimethylpentane	Critical pressure, kPa	uncertainty
0.244	0.042	8810	60
0.257	0.029	8390	60
0.275	0.011	7670	60
0.311	0.054	8510	60
0.327	0.037	8170	60
0.351	0.061	8200	60
0.352	0.014	7560	60
0.369	0.043	7940	60
0.397	0.015	7390	60
0.445	0.077	7430	60
0.469	0.052	7160	60
0.502	0.019	6860	60

System: 2-methylpropane + carbon dioxide + 2,2,4-trimethylpentane; phases: Liquid, Gas
Property: Critical temperature, K (Liquid); method: Visual observation in an unstirred cell
Mole fraction of 2-methylpropane	Mole fraction of 2,2,4-trimethylpentane	Critical temperature, K	uncertainty
0.244	0.042	354.8	0.6
0.257	0.029	347.5	0.6
0.275	0.011	342.3	0.6
0.311	0.054	373.1	0.6
0.327	0.037	364.8	0.6
0.351	0.061	385.3	0.6
0.352	0.014	356.1	0.6
0.369	0.043	377.3	0.6
0.397	0.015	364.4	0.6
0.445	0.077	405.3	0.6
0.469	0.052	391.8	0.6
0.502	0.019	378	0.6
