Measured thermophysical data. Solubility of Sodium Dodecyl Sulfate near Propane and Carbon Dioxide Hydrate-Forming Conditions
Source: J. Chem. Eng. Data, 2007, 10.1021/je700427t
Compound 1: sodium dodecyl sulfate, C12H25NaO4S, InChI=1S/C12H26O4S.Na/c1-2-3-4-5-6-7-8-9-10-11-12-16-17(13,14)15;/h2-12H2,1H3,(H,13,14,15);/q;+1/p-1, purity 99%
Compound 2: propane, C3H8, InChI=1S/C3H8/c1-3-2/h3H2,1-2H3, purity 99%
Compound 3: carbon dioxide, CO2, InChI=1S/CO2/c2-1-3, purity 99%

System: propane + sodium dodecyl sulfate; phases: Liquid, Crystal
Property: Amount concentration (molarity), mol/dm3 (Liquid); method: SPECTR
Temperature, K	Pressure, kPa	Amount concentration (molarity), mol/dm3	uncertainty
270.5	400	0.0048	0.0002
272.3	420	0.00509	0.00024
274.4	460	0.00499	0.00077
276.3	490	0.00551	0.0002
278.5	510	0.00593	0.0002

System: carbon dioxide + sodium dodecyl sulfate; phases: Liquid, Crystal
Property: Amount concentration (molarity), mol/dm3 (Liquid); method: SPECTR
Temperature, K	Pressure, kPa	Amount concentration (molarity), mol/dm3	uncertainty
270.5	1350	0.00444	0.00019
272.3	1030	0.0048	0.00022
274.3	3470	0.00496	0.00021
276.7	3700	0.00542	0.00023
278.2	4120	0.00589	0.0002
281.3	3140	0.00797	0.00035
