Measured thermophysical data. Solubility of Diisopropoxititanium Bis(acetylacetonate) in Supercritical Carbon Dioxide
Source: J. Chem. Eng. Data, 2008, 10.1021/je700503c
Compound 1: diisopropoxititanium bis(acetylacetonate), C16H28O6Ti, InChI=1S/2C5H7O2.2C3H7O.Ti/c2*1-4(6)3-5(2)7;2*1-3(2)4;/h2*3H,1-2H3;2*3H,1-2H3;/q4*-1;+4
Compound 2: carbon dioxide, CO2, InChI=1S/CO2/c2-1-3, purity 99.9%

System: carbon dioxide + diisopropoxititanium bis(acetylacetonate); phases: Gas, Crystal
Property: Mass fraction of diisopropoxititanium bis(acetylacetonate) (Gas); method: Gravimetric analysis
Pressure, kPa	Temperature, K	Mass fraction of diisopropoxititanium bis(acetylacetonate)	uncertainty
10000	353	0.0036	0.00112
10000	423	0.0017	0.00053
10000	473	0.0005	0.0001
12500	353	0.0106	0.00165
12500	423	0.0051	0.00094
12500	473	0.0011	0.00032
15000	353	0.0242	0.00235
15000	423	0.0135	0.00142
15000	473	0.0045	0.00047
17500	353	0.04	0.00399
17500	423	0.0228	0.00252
17500	473	0.0069	0.00068
20000	353	0.074	0.00544
20000	423	0.045	0.00286
20000	473	0.013	0.00099
