Measured thermophysical data. Refined Flow Microcalorimetric Setup for Measurement of Mixing Enthalpies at High Dilutions: Determination of Infinite Dilution Dissolution Enthalpies of Some Alkanol and Ether Solutes in Water
Source: J. Chem. Eng. Data, 2007, 10.1021/je700130v
Compound 1: propan-1-ol, C3H8O, InChI=1S/C3H8O/c1-2-3-4/h4H,2-3H2,1H3
Compound 2: butan-1-ol, C4H10O, InChI=1S/C4H10O/c1-2-3-4-5/h5H,2-4H2,1H3
Compound 3: pentan-2-ol, C5H12O, InChI=1S/C5H12O/c1-3-4-5(2)6/h5-6H,3-4H2,1-2H3
Compound 4: 3-methylbutan-1-ol, C5H12O, InChI=1S/C5H12O/c1-5(2)3-4-6/h5-6H,3-4H2,1-2H3
Compound 5: 3-methyl-2-butanol, C5H12O, InChI=1S/C5H12O/c1-4(2)5(3)6/h4-6H,1-3H3
Compound 6: 2-hexanol, C6H14O, InChI=1S/C6H14O/c1-3-4-5-6(2)7/h6-7H,3-5H2,1-2H3
Compound 7: 1-methoxy-2-propanol, C4H10O2, InChI=1S/C4H10O2/c1-4(5)3-6-2/h4-5H,3H2,1-2H3
Compound 8: diethyl ether, C4H10O, InChI=1S/C4H10O/c1-3-5-4-2/h3-4H2,1-2H3
Compound 9: dimethoxymethane, C3H8O2, InChI=1S/C3H8O2/c1-4-3-5-2/h3H2,1-2H3
Compound 10: water, H2O, InChI=1S/H2O/h1H2

System: propan-1-ol + water; phases: Liquid
Fixed: Pressure, kPa = 101
Fixed: Mole fraction of propan-1-ol = 0
Property: Molar enthalpy of solution, kJ/mol (Liquid); method: Flow calorimetry
Temperature, K	Molar enthalpy of solution, kJ/mol	uncertainty
283.15	-13.45	0.16
288.15	-12.2	0.15
293.15	-11.11	0.14
298.15	-10.12	0.12
303.15	-9.12	0.11
308.15	-8.12	0.1
313.15	-7.14	0.09
318.15	-6.16	0.08

System: butan-1-ol + water; phases: Liquid
Property: Molar enthalpy of solution, kJ/mol (Liquid); method: Flow calorimetry
Temperature, K	Pressure, kPa	Mole fraction of butan-1-ol	Molar enthalpy of solution, kJ/mol	uncertainty
298.15	101	0	-9.28	0.11

System: pentan-2-ol + water; phases: Liquid
Property: Molar enthalpy of solution, kJ/mol (Liquid); method: Flow calorimetry
Temperature, K	Pressure, kPa	Mole fraction of pentan-2-ol	Molar enthalpy of solution, kJ/mol	uncertainty
298.15	101	0	-12.15	0.15

System: 3-methylbutan-1-ol + water; phases: Liquid
Property: Molar enthalpy of solution, kJ/mol (Liquid); method: Flow calorimetry
Temperature, K	Pressure, kPa	Mole fraction of 3-methylbutan-1-ol	Molar enthalpy of solution, kJ/mol	uncertainty
298.15	101	0	-8.23	0.1

System: 3-methyl-2-butanol + water; phases: Liquid
Property: Molar enthalpy of solution, kJ/mol (Liquid); method: Flow calorimetry
Temperature, K	Pressure, kPa	Mole fraction of 3-methyl-2-butanol	Molar enthalpy of solution, kJ/mol	uncertainty
298.15	101	0	-12.61	0.15

System: 2-hexanol + water; phases: Liquid
Fixed: Pressure, kPa = 101
Fixed: Mole fraction of 2-hexanol = 0
Property: Molar enthalpy of solution, kJ/mol (Liquid); method: Flow calorimetry
Temperature, K	Molar enthalpy of solution, kJ/mol	uncertainty
288.15	-14.78	0.89
298.15	-10.94	0.66
308.15	-7.52	0.45
313.15	-5.53	0.33
318.15	-4.09	0.25

System: 1-methoxy-2-propanol + water; phases: Liquid
Fixed: Pressure, kPa = 101
Fixed: Mole fraction of 1-methoxy-2-propanol = 0
Property: Molar enthalpy of solution, kJ/mol (Liquid); method: Flow calorimetry
Temperature, K	Molar enthalpy of solution, kJ/mol	uncertainty
288.15	-20.67	0.25
298.15	-19.1	0.23
308.15	-17.4	0.21
318.15	-15.71	0.19

System: diethyl ether + water; phases: Liquid
Fixed: Pressure, kPa = 101
Fixed: Mole fraction of diethyl ether = 0
Property: Molar enthalpy of solution, kJ/mol (Liquid); method: Flow calorimetry
Temperature, K	Molar enthalpy of solution, kJ/mol	uncertainty
283.15	-23.1	0.28
288.15	-22	0.27
293.15	-20.83	0.26
298.15	-19.66	0.24
303.15	-18.24	0.22

System: dimethoxymethane + water; phases: Liquid
Fixed: Pressure, kPa = 101
Fixed: Mole fraction of dimethoxymethane = 0
Property: Molar enthalpy of solution, kJ/mol (Liquid); method: Flow calorimetry
Temperature, K	Molar enthalpy of solution, kJ/mol	uncertainty
288.15	-11.81	0.14
293.15	-11.09	0.14
298.15	-10.54	0.13
303.15	-9.78	0.12
308.15	-9.24	0.11
313.15	-8.57	0.11
318.15	-7.91	0.1
