Measured thermophysical data. Vapor Liquid Equilibrium for Butane + Methanol, + Ethanol, + 2-Propanol, + 2-Butanol, and + 2-Methyl-2-Propanol (TBA) at 323 K
Source: J. Chem. Eng. Data, 2008, 10.1021/je7003947
Compound 1: butane, C4H10, InChI=1S/C4H10/c1-3-4-2/h3-4H2,1-2H3, purity 99.95%
Compound 2: methanol, CH4O, InChI=1S/CH4O/c1-2/h2H,1H3, purity 99.8%
Compound 3: ethanol, C2H6O, InChI=1S/C2H6O/c1-2-3/h3H,2H2,1H3, purity 99.5%
Compound 4: propan-2-ol, C3H8O, InChI=1S/C3H8O/c1-3(2)4/h3-4H,1-2H3, purity 99.8%
Compound 5: butan-2-ol, C4H10O, InChI=1S/C4H10O/c1-3-4(2)5/h4-5H,3H2,1-2H3, purity 99.8%
Compound 6: 2-methylpropan-2-ol, C4H10O, InChI=1S/C4H10O/c1-4(2,3)5/h5H,1-3H3, purity 99.7%

System: butane; phases: Liquid, Gas
Property: Vapor or sublimation pressure, kPa (Liquid); method: Closed cell (Static) method
Temperature, K	Vapor or sublimation pressure, kPa	uncertainty
323.12	495	2.2
323.13	495.3	2.2
323.15	495.6	1.8
323.15	495.7	2.2

System: methanol; phases: Liquid, Gas
Property: Vapor or sublimation pressure, kPa (Liquid); method: Closed cell (Static) method
Temperature, K	Vapor or sublimation pressure, kPa	uncertainty
323.13	55.5	1.4

System: ethanol; phases: Liquid, Gas
Property: Vapor or sublimation pressure, kPa (Liquid); method: Closed cell (Static) method
Temperature, K	Vapor or sublimation pressure, kPa	uncertainty
323.14	29.4	1.4

System: propan-2-ol; phases: Liquid, Gas
Property: Vapor or sublimation pressure, kPa (Liquid); method: Closed cell (Static) method
Temperature, K	Vapor or sublimation pressure, kPa	uncertainty
323.19	23.6	0.2

System: butan-2-ol; phases: Liquid, Gas
Property: Vapor or sublimation pressure, kPa (Liquid); method: Closed cell (Static) method
Temperature, K	Vapor or sublimation pressure, kPa	uncertainty
323.17	10.7	1.4

System: 2-methylpropan-2-ol; phases: Liquid, Gas
Property: Vapor or sublimation pressure, kPa (Liquid); method: Closed cell (Static) method
Temperature, K	Vapor or sublimation pressure, kPa	uncertainty
323.2	23.8	1.4

System: methanol + butane; phases: Liquid, Gas
Property: Azeotropic pressure, kPa (Liquid); method: By P(X) extreme
Temperature, K	Azeotropic pressure, kPa	uncertainty
323.13	528.2	3.4

System: methanol + butane; phases: Liquid, Gas
Property: Azeotropic composition: mole fraction of butane (Liquid); method: By T or P extreme
Temperature, K	Azeotropic composition: mole fraction of butane	uncertainty
323.15	0.908	0.002

System: methanol + butane; phases: Liquid, Gas
Property: Vapor or sublimation pressure, kPa (Liquid); method: Closed cell (Static) method
Mole fraction of butane	Temperature, K	Vapor or sublimation pressure, kPa	uncertainty
0	323.13	55.5	1.4
0.027	323.14	190.9	4.6
0.045	323.14	256.5	4.7
0.091	323.14	369.2	4.9
0.14	323.14	434.5	3.9
0.191	323.14	471.4	3.5
0.243	323.13	492	2.4
0.295	323.13	503.7	2.5
0.345	323.14	510.5	2.3
0.346	323.14	510.6	2.3
0.398	323.13	514.9	2.3
0.402	323.15	515	2.3
0.452	323.15	517.7	2.3
0.501	323.15	519.6	2.3
0.551	323.15	520.9	2.3
0.601	323.15	522.1	2.3
0.652	323.14	523.1	2.3
0.701	323.14	524	2.3
0.752	323.13	525	2.3
0.803	323.13	526.1	2.3
0.853	323.13	527.3	2.3
0.904	323.13	528.2	2.3
0.954	323.13	527.6	2.3
0.974	323.13	524.3	2.4
0.987	323.13	517.4	3.4
1	323.13	495.3	2.2

System: ethanol + butane; phases: Liquid, Gas
Property: Azeotropic pressure, kPa (Liquid); method: By P(X) extreme
Temperature, K	Azeotropic pressure, kPa	uncertainty
323.12	501.1	3.2

System: ethanol + butane; phases: Liquid, Gas
Property: Azeotropic composition: mole fraction of butane (Liquid); method: By T or P extreme
Temperature, K	Azeotropic composition: mole fraction of butane	uncertainty
323.12	0.97	0.001

System: ethanol + butane; phases: Liquid, Gas
Property: Vapor or sublimation pressure, kPa (Liquid); method: Closed cell (Static) method
Mole fraction of butane	Temperature, K	Vapor or sublimation pressure, kPa	uncertainty
0	323.14	29.4	1.4
0.029	323.14	110.7	3.9
0.048	323.14	153.8	3.8
0.095	323.14	241.8	4.5
0.141	323.14	304.4	4.4
0.189	323.14	351.8	3.9
0.235	323.14	384.8	3.3
0.29	323.14	413.3	3
0.341	323.14	432.1	2.8
0.392	323.13	445.8	2.4
0.441	323.13	455.9	2.4
0.49	323.12	463.3	2.3
0.499	323.12	464.7	2.3
0.548	323.12	470.4	2.2
0.55	323.12	470.5	2.2
0.599	323.12	475.1	2.2
0.649	323.12	479.2	2.2
0.701	323.12	483	2.2
0.75	323.12	486.4	2.2
0.802	323.12	490	2.2
0.849	323.12	493.3	2.2
0.902	323.12	497	2.2
0.955	323.12	500.6	2.2
0.973	323.12	501.1	2.2
0.992	323.12	499	2.2
1	323.12	495	2.2

System: propan-2-ol + butane; phases: Liquid, Gas
Property: Vapor or sublimation pressure, kPa (Liquid); method: Closed cell (Static) method
Mole fraction of butane	Temperature, K	Vapor or sublimation pressure, kPa	uncertainty
0	323.19	23.6	0.2
0.031	323.19	81.5	2.6
0.048	323.19	111.2	2.8
0.094	323.19	178.4	3.4
0.146	323.19	238.6	3.7
0.192	323.19	281.6	3.5
0.241	323.19	318.3	3.1
0.293	323.19	348.5	3
0.343	323.19	372.3	2.8
0.394	323.18	391.4	2.2
0.445	323.18	407.3	2.2
0.496	323.18	420.3	1.8
0.501	323.17	421	1.8
0.55	323.17	431.4	2
0.6	323.16	440.6	1.9
0.649	323.16	448.8	1.9
0.699	323.16	456.5	1.9
0.748	323.15	463.7	1.8
0.797	323.15	470.6	1.8
0.847	323.15	477.3	1.8
0.897	323.15	483.7	1.8
0.946	323.14	489.9	1.8
0.967	323.15	492.5	1.8
0.986	323.15	494.7	1.8
1	323.15	495.6	1.8

System: butan-2-ol + butane; phases: Liquid, Gas
Property: Vapor or sublimation pressure, kPa (Liquid); method: Closed cell (Static) method
Mole fraction of butane	Temperature, K	Vapor or sublimation pressure, kPa	uncertainty
0	323.17	10.7	1.4
0.027	323.16	52	2.4
0.065	323.16	104.6	3.4
0.102	323.17	148.5	2.2
0.151	323.18	199.2	3.4
0.197	323.18	239.7	3.9
0.25	323.2	278.1	3.3
0.297	323.2	306.8	3.3
0.348	323.2	332.9	3.2
0.393	323.21	352.5	2.7
0.447	323.21	372.5	2.8
0.492	323.22	387	2.7
0.528	323.18	397.3	2.4
0.551	323.18	403.4	2.5
0.6	323.17	415.5	2.3
0.649	323.17	426.5	2.3
0.699	323.17	436.6	2.3
0.748	323.16	446.2	2.2
0.798	323.16	455.2	2.2
0.848	323.15	463.9	2.2
0.898	323.15	472.5	2.2
0.948	323.15	481.6	2.2
0.969	323.15	485.8	2.2
0.99	323.15	491.9	2.2
1	323.15	495.7	2.2

System: 2-methylpropan-2-ol + butane; phases: Liquid, Gas
Property: Vapor or sublimation pressure, kPa (Liquid); method: Closed cell (Static) method
Mole fraction of butane	Temperature, K	Vapor or sublimation pressure, kPa	uncertainty
0	323.2	23.8	1.4
0.033	323.21	67.2	2.4
0.046	323.21	82.6	2.6
0.148	323.21	184.4	3.7
0.196	323.22	222.5	3.2
0.247	323.22	257.6	3.4
0.298	323.22	288.3	3.5
0.349	323.23	315	3.1
0.399	323.23	338.6	3.1
0.451	323.23	359.9	3
0.5	323.2	377.6	2.7
0.502	323.24	378.9	2.8
0.55	323.21	393.9	2.5
0.553	323.25	396.2	2.7
0.599	323.21	408.6	2.5
0.649	323.21	422.1	2.4
0.697	323.19	434	2.3
0.747	323.19	445.3	2.3
0.798	323.19	456.1	2.3
0.849	323.18	466	2.5
0.899	323.17	475.5	2.2
0.949	323.17	484.8	2.2
0.97	323.17	488.8	2.2
0.989	323.15	493	2.2
1	323.15	495.7	2.2
