Measured thermophysical data. Liquid Liquid Equilibria of the Ternary System Water + Acrylic Acid + 4-Methyl-2-pentanone at 298.15 K
Source: J. Chem. Eng. Data, 2008, 10.1021/je700439n
Compound 1: water, H2O, InChI=1S/H2O/h1H2
Compound 2: propenoic acid, C3H4O2, InChI=1S/C3H4O2/c1-2-3(4)5/h2H,1H2,(H,4,5)
Compound 3: 4-methylpentan-2-one, C6H12O, InChI=1S/C6H12O/c1-5(2)4-6(3)7/h5H,4H2,1-3H3

System: propenoic acid + 4-methylpentan-2-one + water; phases: Liquid mixture 1, Liquid mixture 2
Fixed: Temperature, K = 298.15
Fixed: Pressure, kPa = 101.325
Property: Mass fraction of propenoic acid (Liquid mixture 1); method: CHROM:UFactor:16
Property: Mass fraction of water (Liquid mixture 2); method: CHROM:UFactor:16
Property: Mass fraction of propenoic acid (Liquid mixture 2); method: CHROM:UFactor:16
Mass fraction of water	Mass fraction of propenoic acid	uncertainty	Mass fraction of water	uncertainty	Mass fraction of propenoic acid	uncertainty
0.8289	0.1334	0.0165	0.1487	0.0184	0.3351	
0.845	0.1245	0.0154	0.137	0.017	0.3156	
0.9014	0.0807	0.01	0.0931	0.0115	0.2172	
0.7544	0.2005	0.0248	0.2065	0.0256	0.3932	
0.87	0.1036	0.0128	0.1147	0.0142	0.2901	
0.8	0.1606	0.0199	0.1674	0.0208	0.3694	
0.8719	0.1002	0.0124	0.1151	0.0143	0.2958	
0.795	0.1705	0.0211	0.1575	0.0196	0.3706	
0.7159	0.2357	0.0292	0.2218	0.0275	0.4318	
0.97	0.0074	0.0009	0.034	0.0042	0.0572	
