Measured thermophysical data. The Solubility Behavior of Bisphenol A in the Presence of Surfactants
Source: J. Chem. Eng. Data, 2007, 10.1021/je700235x
Compound 1: 2,2-(4',4''-dihydroxy)diphenylpropane, C15H16O2, InChI=1S/C15H16O2/c1-15(2,11-3-7-13(16)8-4-11)12-5-9-14(17)10-6-12/h3-10,16-17H,1-2H3
Compound 2: N,N,N-trimethyl-1-hexadecanaminium bromide, C19H42BrN, InChI=1S/C19H42N.BrH/c1-5-6-7-8-9-10-11-12-13-14-15-16-17-18-19-20(2,3)4;/h5-19H2,1-4H3;1H/q+1;/p-1
Compound 3: sodium dodecylbenzenesulfonate (ILL DEFINED!), C18H29NaO3S, InChI=1S/C18H30O3S.Na/c1-2-3-4-5-6-7-8-9-10-11-14-17-15-12-13-16-18(17)22(19,20)21;/h12-13,15-16H,2-11,14H2,1H3,(H,19,20,21);/q;+1/p-1
Compound 4: sodium dodecyl sulfate, C12H25NaO4S, InChI=1S/C12H26O4S.Na/c1-2-3-4-5-6-7-8-9-10-11-12-16-17(13,14)15;/h2-12H2,1H3,(H,13,14,15);/q;+1/p-1
Compound 5: water, H2O, InChI=1S/H2O/h1H2

System: N,N,N-trimethyl-1-hexadecanaminium bromide + 2,2-(4',4''-dihydroxy)diphenylpropane + water; phases: Liquid, Crystal
Fixed: Pressure, kPa = 101
Property: Mass concentration, kg/m3 of 2,2-(4',4''-dihydroxy)diphenylpropane (Liquid); method: Chromatography
Temperature, K	Solvent: Ratio of component mass to volume of solvent, kg/m3 of N,N,N-trimethyl-1-hexadecanaminium bromide	Mass concentration, kg/m3 of 2,2-(4',4''-dihydroxy)diphenylpropane	uncertainty
298.15	0	0.381	0.1
298.15	0.1	0.445	0.1
298.15	0.2	0.431	0.1
298.15	0.3	0.531	0.1
298.15	0.4	0.591	0.1
298.15	0.8	0.878	0.1
298.15	1.2	1.182	0.1
298.15	2	1.526	0.1
303.15	0	0.466	0.1
303.15	0.1	0.477	0.1
303.15	0.2	0.564	0.1
303.15	0.3	0.651	0.1
303.15	0.4	0.712	0.1
303.15	0.8	1.06	0.1
303.15	1.2	1.321	0.1
303.15	2	1.818	0.1
308.15	0	0.541	0.1
308.15	0.1	0.572	0.1
308.15	0.2	0.645	0.1
308.15	0.3	0.742	0.1
308.15	0.4	0.804	0.1
308.15	0.8	1.128	0.1
308.15	1.2	1.425	0.1
308.15	2	1.958	0.1
313.15	0	0.594	0.1
313.15	0.1	0.638	0.1
313.15	0.2	0.706	0.1
313.15	0.3	0.821	0.1
313.15	0.4	0.987	0.1
313.15	0.8	1.295	0.1
313.15	1.2	1.591	0.1
313.15	2	2.261	0.1

System: 2,2-(4',4''-dihydroxy)diphenylpropane + water + sodium dodecylbenzenesulfonate (ILL DEFINED!); phases: Liquid, Crystal
Fixed: Pressure, kPa = 101
Property: Mass concentration, kg/m3 of 2,2-(4',4''-dihydroxy)diphenylpropane (Liquid); method: Chromatography
Temperature, K	Solvent: Ratio of component mass to volume of solvent, kg/m3 of sodium dodecylbenzenesulfonate (ILL DEFINED!)	Mass concentration, kg/m3 of 2,2-(4',4''-dihydroxy)diphenylpropane	uncertainty
298.15	0	0.381	0.1
298.15	0.1	0.302	0.1
298.15	0.2	0.306	0.1
298.15	0.3	0.319	0.1
298.15	0.4	0.358	0.1
298.15	0.8	0.516	0.1
298.15	1.2	0.64	0.1
298.15	2	0.882	0.1
303.15	0	0.466	0.1
303.15	0.1	0.37	0.1
303.15	0.2	0.372	0.1
303.15	0.3	0.383	0.1
303.15	0.4	0.403	0.1
303.15	0.8	0.602	0.1
303.15	1.2	0.738	0.1
303.15	2	0.998	0.1
308.15	0	0.541	0.1
308.15	0.1	0.426	0.1
308.15	0.2	0.448	0.1
308.15	0.3	0.448	0.1
308.15	0.4	0.484	0.1
308.15	0.8	0.695	0.1
308.15	1.2	0.83	0.1
308.15	2	1.097	0.1
313.15	0	0.594	0.1
313.15	0.1	0.476	0.1
313.15	0.2	0.528	0.1
313.15	0.3	0.616	0.1
313.15	0.4	0.73	0.1
313.15	0.8	0.967	0.1
313.15	1.2	1.195	0.1
313.15	2	1.681	0.101

System: 2,2-(4',4''-dihydroxy)diphenylpropane + sodium dodecyl sulfate + water; phases: Liquid, Crystal
Fixed: Pressure, kPa = 101
Property: Mass concentration, kg/m3 of 2,2-(4',4''-dihydroxy)diphenylpropane (Liquid); method: Chromatography
Temperature, K	Solvent: Ratio of component mass to volume of solvent, kg/m3 of sodium dodecyl sulfate	Mass concentration, kg/m3 of 2,2-(4',4''-dihydroxy)diphenylpropane	uncertainty
298.15	0	0.381	0.1
298.15	0.1	0.319	0.1
298.15	0.2	0.376	0.1
298.15	0.3	0.469	0.1
298.15	0.4	0.603	0.1
298.15	0.8	0.848	0.1
298.15	1.2	1.053	0.1
298.15	2	1.511	0.1
303.15	0	0.466	0.1
303.15	0.1	0.424	0.1
303.15	0.2	0.425	0.1
303.15	0.3	0.56	0.1
303.15	0.4	0.712	0.1
303.15	0.8	0.989	0.1
303.15	1.2	1.303	0.1
303.15	2	1.697	0.1
308.15	0	0.541	0.1
308.15	0.1	0.493	0.1
308.15	0.2	0.506	0.1
308.15	0.3	0.636	0.1
308.15	0.4	0.79	0.1
308.15	0.8	1.105	0.1
308.15	1.2	1.42	0.1
308.15	2	1.814	0.1
313.15	0	0.594	0.1
313.15	0.1	0.571	0.1
313.15	0.2	0.596	0.1
313.15	0.3	0.749	0.1
313.15	0.4	0.928	0.1
313.15	0.8	1.248	0.1
313.15	1.2	1.548	0.1
313.15	2	1.973	0.1
