Measured thermophysical data. Vapor-Liquid Equilibria and Saturated Liquid Densities in Binary Mixtures of Nitrogen, Methane, and Ethane and Their Correlation Using the VTPR and PSRK GCEOS
Source: J. Chem. Eng. Data, 2007, 10.1021/je700210n
Compound 1: methane, CH4, InChI=1S/CH4/h1H4
Compound 2: nitrogen, N2, InChI=1S/N2/c1-2
Compound 3: ethane, C2H6, InChI=1S/C2H6/c1-2/h1-2H3

System: methane + nitrogen; phases: Liquid, Gas
Property: Vapor or sublimation pressure, kPa (Liquid); method: Closed cell (Static) method
Temperature, K	Mole fraction of nitrogen	Vapor or sublimation pressure, kPa	uncertainty
129.982	0.2952	1534.4	34.5
129.987	0.4716	2073.2	37.5
149.928	0.5938	4527.3	65.1
149.958	0.4151	3664.6	65.3
149.967	0.3339	3209.3	68.5
149.972	0.1389	2051.2	63.2
150.001	0.5608	4387.1	66
150.011	0.504	4112.3	65.5
159.361	0.3238	4098.8	76.5
159.962	0.4275	4729.1	88.3
159.982	0.0224	1789.2	80
159.989	0.2659	3682.5	87.5
160	0.4156	4645.8	87.9
169.984	0.2384	4523.5	93.2
169.986	0.263	4718.3	80.9
170.009	0.3013	4933.4	76
170.012	0.2279	4438.5	95.9
179.976	0.1281	4672.2	79.9
179.976	0.1898	5061.5	82.5

System: methane + nitrogen; phases: Liquid, Gas
Property: Vapor or sublimation pressure, kPa (Liquid); method: Closed cell (Static) method
Mole fraction of nitrogen	Temperature, K	Vapor or sublimation pressure, kPa	uncertainty
0.0224	159.972	1789.2	80
0.0425	130.029	583.6	80.8
0.0461	130.079	613.7	80.9
0.17	169.983	3973.9	92.3
0.1898	179.976	5061.5	83.8
0.2351	169.941	4505.8	89.3
0.2659	159.989	3682.5	86.5
0.2774	149.989	2908.4	60.4
0.2845	170.018	4840.6	81.8
0.3013	170.009	4933.4	62.1
0.3248	169.935	4973.5	55.6
0.3553	159.906	4302.7	78.9
0.4156	160	4645.8	87.9
0.4275	159.962	4729.1	88.4
0.5608	150.001	4387.1	64.1
0.5938	149.928	4527.3	64.9

System: methane + nitrogen; phases: Liquid, Gas
Property: Mass density, kg/m3 (Liquid); method: determined from the liquid sample's weight and the volume of sample.
Temperature, K	Mole fraction of nitrogen	Mass density, kg/m3	uncertainty
129.982	0.2952	648.5	3.2
129.987	0.4716	618.7	3.1
149.928	0.5938	413.6	7.2
149.958	0.4151	527.4	5.3
149.967	0.3339	555.8	3.6
149.972	0.1389	602.8	3.5
150.001	0.5608	436	7.2
150.011	0.504	474.9	6.6
159.361	0.3238	492	5.7
159.962	0.4275	427.8	4.7
159.982	0.0224	577	3.6
159.989	0.2659	511	3.7
160	0.4156	432.5	4.7
169.984	0.2384	436.4	6.9
169.986	0.263	420.1	8.7
170.009	0.3013	383.6	9.7
170.012	0.2279	442.9	6.8
179.976	0.1281	390.8	11.8
179.976	0.1898	319	11.8

System: methane + nitrogen; phases: Gas, Liquid
Property: Mole fraction of nitrogen (Gas); method: Chromatography
Mole fraction of nitrogen	Temperature, K	Mole fraction of nitrogen	uncertainty
0.0224	159.972	0.0908	0.0195
0.0425	130.029	0.3299	0.0554
0.0461	130.079	0.3468	0.0555
0.17	169.983	0.3316	0.0145
0.1898	179.976	0.193	0.011
0.2351	169.941	0.3746	0.0154
0.2659	159.989	0.4978	0.0252
0.2774	149.989	0.5981	0.0203
0.2845	170.018	0.3906	0.0154
0.3013	170.009	0.3919	0.0152
0.3248	169.935	0.3866	0.0152
0.3553	159.906	0.539	0.0208
0.4156	160	0.5441	0.0206
0.4275	159.962	0.5465	0.0206
0.5608	150.001	0.699	0.0184
0.5938	149.928	0.6897	0.0186

System: ethane + nitrogen; phases: Liquid, Gas
Property: Vapor or sublimation pressure, kPa (Liquid); method: Closed cell (Static) method
Temperature, K	Mole fraction of nitrogen	Vapor or sublimation pressure, kPa	uncertainty
149.97	0.0702	1578.8	238.1
169.873	0.2041	5002.9	229.3
169.911	0.114	2993.2	239.4
169.998	0.036	1011.6	254.4
209.927	0.0236	1147.1	274.7
210.043	0.3352	10008.2	303.2
249.659	0.0761	3934.9	308.6
249.983	0.0518	3102.5	349.4
250.027	0.1483	6085	303.3
269.907	0.1969	8014.7	268.5
269.938	0.0305	3268.1	312.1
269.967	0.3581	10104.3	152.4
270	0.2503	8922.9	157.5
270.013	0.06	4186.4	313.3

System: ethane + nitrogen; phases: Liquid, Gas
Property: Vapor or sublimation pressure, kPa (Liquid); method: Closed cell (Static) method
Mole fraction of nitrogen	Temperature, K	Vapor or sublimation pressure, kPa	uncertainty
0.0184	170.039	559.7	257.1
0.0236	209.927	1147.1	249.9
0.0246	249.875	2178.9	286.5
0.0305	269.938	3268.1	312
0.036	169.998	1011.6	257.2
0.037	169.948	1053	266
0.0518	249.983	3102.5	353.1
0.0522	209.93	2060.7	316.3
0.06	270.013	4186.4	302.7
0.0702	149.97	1578.8	205
0.0761	249.659	3934.9	299.4
0.081	210.022	3040.1	340.7
0.1133	269.998	5755.7	285.5
0.114	169.911	2993.2	238.2
0.1469	149.973	3146.1	201
0.1483	250.027	6085	303.8
0.1969	269.907	8014.7	283.2
0.2041	169.873	5002.9	221.6
0.2201	149.981	4550.9	197.7
0.2449	210.041	7883.1	292.3
0.3312	210.012	9998.6	266.8
0.3394	169.903	7854.3	226.2

System: ethane + nitrogen; phases: Liquid, Gas
Property: Mass density, kg/m3 (Liquid); method: determined from the liquid sample's weight and the volume of sample.
Temperature, K	Mole fraction of nitrogen	Mass density, kg/m3	uncertainty
149.97	0.0702	558.2	10.2
169.873	0.2041	544.8	9.9
169.911	0.114	537.5	9.8
169.998	0.036	525	9.7
209.927	0.0236	479.7	8.7
210.043	0.3352	482.6	8.8
249.659	0.0761	416.5	7.6
249.983	0.0518	414.7	7.5
250.027	0.1483	407.9	7.5
269.907	0.1969	350.5	6.7
269.938	0.0305	378.2	6.9
269.967	0.3581	284.6	6.8
270	0.2503	332.5	7.3
270.013	0.06	376.3	6.8

System: ethane + nitrogen; phases: Gas, Liquid
Property: Mole fraction of nitrogen (Gas); method: Chromatography
Mole fraction of nitrogen	Temperature, K	Mole fraction of nitrogen	uncertainty
0.0184	170.039	0.9072	0.0265
0.0236	209.927	0.6671	0.0552
0.0246	249.875	0.3257	0.05
0.0305	269.938	0.2308	0.0374
0.036	169.998	0.9494	0.0261
0.037	169.948	0.95	0.025
0.0518	249.983	0.4737	0.0484
0.0522	209.93	0.7866	0.034
0.06	270.013	0.336	0.0268
0.0702	149.97	0.9886	0.01
0.0761	249.659	0.5533	0.0261
0.081	210.022	0.8315	0.0212
0.1133	269.998	0.4299	0.0191
0.114	169.911	0.9724	0.0103
0.1469	149.973	0.9842	0.0101
0.1483	250.027	0.6349	0.0225
0.1969	269.907	0.4669	0.0193
0.2041	169.873	0.9716	0.0102
0.2201	149.981	0.9872	0.01
0.2449	210.041	0.8713	0.0129
0.3312	210.012	0.8567	0.0134
0.3394	169.903	0.9562	0.0105

System: methane + ethane; phases: Liquid, Gas
Property: Vapor or sublimation pressure, kPa (Liquid); method: Closed cell (Static) method
Temperature, K	Mole fraction of methane	Vapor or sublimation pressure, kPa	uncertainty
139.984	0.7327	490.8	7.8
140.016	0.9408	612.9	8.7
140.036	0.7423	500	7.8
149.945	0.33	391.6	8.9
179.832	0.2964	1019	48.3
209.949	0.7653	5006.3	81.8
209.954	0.4597	3091.1	70.6
239.865	0.1336	2207.4	95.4
239.871	0.4763	5373.9	106
239.994	0.059	1523.9	93.8
240	0.621	6566.9	106.8
269.974	0.1596	4109.8	123.2
270.001	0.4253	6626.3	96.7
270.032	0.3143	5881.4	114
270.058	0.0504	2836	120.7

System: methane + ethane; phases: Liquid, Gas
Property: Vapor or sublimation pressure, kPa (Liquid); method: Closed cell (Static) method
Mole fraction of methane	Temperature, K	Vapor or sublimation pressure, kPa	uncertainty
0.0504	270.058	2836	121.1
0.0565	270.038	2907.5	121.2
0.059	239.949	1523.9	95.1
0.1405	179.951	525.3	31.3
0.1717	270.01	4257.4	126.4
0.2176	269.993	4814.5	124
0.2898	209.878	2049.2	58.8
0.3005	179.926	1018.3	32.9
0.3056	209.99	2139.7	59.1
0.3143	270.032	5881.4	106.4
0.33	149.945	391.6	10.9
0.3679	240.001	4422.1	103.6
0.4253	270.001	6626.3	96.7
0.4597	209.954	3091.1	69.8
0.4673	179.927	1518.2	33
0.4731	180.056	1538.4	33.1
0.4763	239.871	5373.9	99.5
0.488	240.041	5482	100.1
0.517	149.96	580.4	10.9
0.621	240	6566.9	107
0.6302	209.944	4129.8	76.6
0.6548	179.865	2038.1	35.8
0.7327	139.984	490.8	7.8
0.7423	140.036	500	7.8
0.7653	209.949	5006.3	83.4
0.7678	179.931	2378.4	37
0.9408	140.016	612.9	8.6
0.945	180.029	3021.6	47.9

System: methane + ethane; phases: Liquid, Gas
Property: Amount density, mol/m3 (Liquid); method: determined from the liquid sample's weight and the volume of sample.
Temperature, K	Mole fraction of methane	Amount density, mol/m3	uncertainty
139.984	0.7327	22837	414.8
140.036	0.7423	22872.9	415.3
140.016	0.9408	23299.8	422.3
149.945	0.33	20983.5	383
179.832	0.2964	19112	347.6
209.954	0.4597	17529.9	323.1
209.949	0.7653	15705.2	289.9
239.994	0.059	15421.6	280.6
239.865	0.1336	15598	283.6
239.871	0.4763	14464.4	268
240	0.621	12433.6	263.8
270.058	0.0504	13582.7	248.6
269.974	0.1596	13192.6	248.8
270.032	0.3143	11767.6	259
270.001	0.4253	9155.5	288

System: methane + ethane; phases: Gas, Liquid
Property: Mole fraction of methane (Gas); method: Chromatography
Mole fraction of methane	Temperature, K	Mole fraction of methane	uncertainty
0.0504	270.058	0.1799	0.0203
0.0565	270.038	0.1994	0.0198
0.059	239.949	0.3476	0.0182
0.1405	179.951	0.8395	0.015
0.1717	270.01	0.3923	0.0214
0.2176	269.993	0.4363	0.0182
0.2898	209.878	0.8292	0.0145
0.3005	179.926	0.9286	0.0116
0.3056	209.99	0.8331	0.0144
0.3143	270.032	0.4833	0.0197
0.33	149.945	0.9865	0.01
0.3679	240.001	0.7244	0.0202
0.4253	270.001	0.4493	0.0181
0.4597	209.954	0.8787	0.0128
0.4673	179.927	0.9546	0.0105
0.4731	180.056	0.9525	0.0106
0.4763	239.871	0.7504	0.0169
0.488	240.041	0.7526	0.0169
0.517	149.96	0.9858	0.01
0.621	240	0.7472	0.0168
0.6302	209.944	0.9073	0.0117
0.6548	179.865	0.9696	0.0103
0.7327	139.984	0.9999	0.0001
0.7423	140.036	0.9999	0.0001
0.7653	209.949	0.9186	0.0114
0.7678	179.931	0.9829	0.0101
0.9408	140.016	0.9999	0.0001
0.945	180.029	0.996	0.004
