Measured thermophysical data. Densities and Viscosities for Binary and Ternary Mixtures of 1, 4-Dioxane + 1-Hexanol + N,N-Dimethylaniline from T ) (283.15 to 343.15) K
Source: J. Chem. Eng. Data, 2008, 10.1021/je700344f
Compound 1: 1,4-dioxane, C4H8O2, InChI=1S/C4H8O2/c1-2-6-4-3-5-1/h1-4H2
Compound 2: hexan-1-ol, C6H14O, InChI=1S/C6H14O/c1-2-3-4-5-6-7/h7H,2-6H2,1H3
Compound 3: N,N-dimethylaniline, C8H11N, InChI=1S/C8H11N/c1-9(2)8-6-4-3-5-7-8/h3-7H,1-2H3

System: 1,4-dioxane; phases: Liquid
Fixed: Pressure, kPa = 101.325
Property: Viscosity, Pa*s (Liquid); method: CAPTUB:UFactor:12
Temperature, K	Viscosity, Pa*s	uncertainty
283.15	0.00159	0.000112
293.15	0.001312	9.4e-05
303.15	0.001102	8.1e-05
313.15	0.000946	7.1e-05
323.15	0.000825	6.3e-05
333.15	0.000721	5.6e-05
343.15	0.00064	5.1e-05

System: 1,4-dioxane; phases: Liquid
Fixed: Pressure, kPa = 101.325
Property: Mass density, kg/m3 (Liquid); method: VIBTUB:UFactor:64
Temperature, K	Mass density, kg/m3	uncertainty
283.15	1046.91	3.4
293.15	1035.03	3.09
303.15	1022.71	2.77
313.15	1011.32	2.47
323.15	999.12	2.2
333.15	987.92	2.49
343.15	976.61	2.78

System: hexan-1-ol; phases: Liquid
Fixed: Pressure, kPa = 101.325
Property: Viscosity, Pa*s (Liquid); method: CAPTUB:UFactor:12
Temperature, K	Viscosity, Pa*s	uncertainty
283.15	0.007459	0.000441
293.15	0.005335	0.000342
303.15	0.003763	0.00025
303.15	0.003917	0.000259
313.15	0.002937	0.000198
323.15	0.002172	0.000149
323.15	0.002276	0.000156
333.15	0.001654	0.000116
343.15	0.001411	0.000101

System: hexan-1-ol; phases: Liquid
Fixed: Pressure, kPa = 101.325
Property: Mass density, kg/m3 (Liquid); method: VIBTUB:UFactor:64
Temperature, K	Mass density, kg/m3	uncertainty
283.15	828.23	6.5
293.15	821.01	6.68
303.15	815.92	6.82
303.15	813.96	6.87
313.15	810.91	6.95
323.15	806.84	7.05
323.15	804.22	7.12
333.15	802.91	7.16
343.15	798.64	7.28

System: N,N-dimethylaniline; phases: Liquid
Fixed: Pressure, kPa = 101.325
Property: Viscosity, Pa*s (Liquid); method: CAPTUB:UFactor:12
Temperature, K	Viscosity, Pa*s	uncertainty
283.15	0.001696	0.000119
293.15	0.001439	0.000102
303.15	0.00117	8.5e-05
313.15	0.000981	7.3e-05
323.15	0.000928	7e-05
333.15	0.000911	6.8e-05
343.15	0.000841	6.4e-05

System: N,N-dimethylaniline; phases: Liquid
Fixed: Pressure, kPa = 101.325
Property: Mass density, kg/m3 (Liquid); method: VIBTUB:UFactor:64
Temperature, K	Mass density, kg/m3	uncertainty
283.15	969.97	2.93
293.15	963.01	3.11
303.15	956.21	3.28
313.15	948.34	3.48
323.15	940.24	3.69
333.15	932.71	3.88
343.15	924.08	4.1

System: hexan-1-ol + N,N-dimethylaniline; phases: Liquid
Fixed: Pressure, kPa = 101
Property: Viscosity, Pa*s (Liquid); method: CAPTUB::UFactor:12
Temperature, K	Mole fraction of hexan-1-ol	Viscosity, Pa*s	uncertainty
283.15	0.1009	0.001749	0.000122
283.15	0.2017	0.001867	0.00013
283.15	0.3022	0.002079	0.000143
283.15	0.4025	0.002306	0.000158
283.15	0.5026	0.002676	0.000181
283.15	0.6025	0.003092	0.000208
283.15	0.7022	0.003708	0.000246
283.15	0.8016	0.004614	0.000303
283.15	0.9009	0.005687	0.000358
293.15	0.1009	0.001448	0.000103
293.15	0.2017	0.001527	0.000108
293.15	0.3022	0.001667	0.000117
293.15	0.4025	0.001837	0.000128
293.15	0.5026	0.002086	0.000144
293.15	0.6025	0.002359	0.000161
293.15	0.7022	0.002821	0.00019
293.15	0.8016	0.003401	0.000227
293.15	0.9009	0.004138	0.000273
303.15	0.1009	0.001221	8.8e-05
303.15	0.2017	0.001276	9.2e-05
303.15	0.3022	0.00138	9.9e-05
303.15	0.4025	0.001496	0.000106
303.15	0.5026	0.001668	0.000117
303.15	0.6025	0.001891	0.000131
303.15	0.7022	0.00216	0.000149
303.15	0.8016	0.002585	0.000175
303.15	0.9009	0.003101	0.000208
313.15	0.1009	0.001051	7.7e-05
313.15	0.2017	0.001086	8e-05
313.15	0.3022	0.00116	8.4e-05
313.15	0.4025	0.001246	9e-05
313.15	0.5026	0.001369	9.8e-05
313.15	0.6025	0.001524	0.000108
313.15	0.7022	0.001732	0.000121
313.15	0.8016	0.002023	0.00014
313.15	0.9009	0.00237	0.000162
323.15	0.1009	0.000917	6.9e-05
323.15	0.2017	0.000939	7e-05
323.15	0.3022	0.000992	7.4e-05
323.15	0.4025	0.001056	7.8e-05
323.15	0.5026	0.001138	8.3e-05
323.15	0.6025	0.001269	9.1e-05
323.15	0.7022	0.001404	0.0001
323.15	0.8016	0.00161	0.000113
323.15	0.9009	0.001869	0.00013
333.15	0.1009	0.000812	6.2e-05
333.15	0.2017	0.000826	6.3e-05
333.15	0.3022	0.000861	6.5e-05
333.15	0.4025	0.000908	6.8e-05
333.15	0.5026	0.000971	7.2e-05
333.15	0.6025	0.001044	7.7e-05
333.15	0.7022	0.001157	8.4e-05
333.15	0.8016	0.00131	9.4e-05
333.15	0.9009	0.001423	0.000101
343.15	0.1009	0.000774	6e-05
343.15	0.2017	0.000731	5.7e-05
343.15	0.3022	0.000737	5.7e-05
343.15	0.4025	0.00079	6.1e-05
343.15	0.5026	0.00083	6.3e-05
343.15	0.6025	0.000902	6.8e-05
343.15	0.7022	0.000973	7.2e-05
343.15	0.8016	0.00108	7.9e-05
343.15	0.9009	0.001218	8.8e-05

System: hexan-1-ol + N,N-dimethylaniline; phases: Liquid
Fixed: Pressure, kPa = 101
Property: Mass density, kg/m3 (Liquid); method: VIBTUB::UFactor:64
Temperature, K	Mole fraction of hexan-1-ol	Mass density, kg/m3	uncertainty
283.15	0.1009	958.16	3.21
283.15	0.2017	944.54	3.55
283.15	0.3022	928.83	3.94
283.15	0.4025	915.52	4.26
283.15	0.5026	904.21	4.54
283.15	0.6025	890.94	4.87
283.15	0.7022	876.26	5.23
283.15	0.8016	861.23	5.6
283.15	0.9009	848.23	5.93
293.15	0.1009	950	3.41
293.15	0.2017	936.43	3.75
293.15	0.3022	920.62	4.14
293.15	0.4025	909.23	4.42
293.15	0.5026	896.74	4.73
293.15	0.6025	882.6	5.08
293.15	0.7022	868.6	5.42
293.15	0.8016	852.26	5.83
293.15	0.9009	841.25	6.1
303.15	0.1009	942.24	3.6
303.15	0.2017	928.31	3.95
303.15	0.3022	912.67	4.33
303.15	0.4025	901.18	4.62
303.15	0.5026	888.09	4.94
303.15	0.6025	875.63	5.25
303.15	0.7022	860.74	5.62
303.15	0.8016	846.02	5.98
303.15	0.9009	832.65	6.31
313.15	0.1009	933.77	3.81
313.15	0.2017	920.41	4.14
313.15	0.3022	904.59	4.53
313.15	0.4025	892.85	4.82
313.15	0.5026	879.8	5.15
313.15	0.6025	867.83	5.44
313.15	0.7022	852.77	5.81
313.15	0.8016	839.15	6.15
313.15	0.9009	824.98	6.5
323.15	0.1009	925.31	4.02
323.15	0.2017	912.27	4.34
323.15	0.3022	896.34	4.74
323.15	0.4025	885.58	5
323.15	0.5026	872.2	5.33
323.15	0.6025	859.03	5.66
323.15	0.7022	843.94	6.03
323.15	0.8016	831.15	6.35
323.15	0.9009	818.33	6.66
333.15	0.1009	916.93	4.23
333.15	0.2017	905.29	4.52
333.15	0.3022	887.96	4.95
333.15	0.4025	876.93	5.22
333.15	0.5026	864.04	5.54
333.15	0.6025	849.87	5.89
333.15	0.7022	837.74	6.19
333.15	0.8016	823.68	6.53
333.15	0.9009	810.66	6.86
343.15	0.1009	909.05	4.43
343.15	0.2017	895.76	4.76
343.15	0.3022	880	5.15
343.15	0.4025	867.83	5.45
343.15	0.5026	854.24	5.78
343.15	0.6025	842.51	6.07
343.15	0.7022	829.06	6.4
343.15	0.8016	813.99	6.78
343.15	0.9009	803.44	7.04

System: hexan-1-ol + 1,4-dioxane; phases: Liquid
Fixed: Pressure, kPa = 101
Property: Viscosity, Pa*s (Liquid); method: CAPTUB::UFactor:12
Temperature, K	Mole fraction of 1,4-dioxane	Viscosity, Pa*s	uncertainty
283.15	0.1835	0.004488	0.000295
283.15	0.2675	0.00352	0.000234
283.15	0.385	0.002785	0.000188
283.15	0.4933	0.002324	0.000159
283.15	0.5935	0.002007	0.000139
283.15	0.6866	0.001815	0.000126
283.15	0.7731	0.001691	0.000119
283.15	0.8795	0.001601	0.000113
293.15	0.1835	0.003221	0.000216
293.15	0.2675	0.002707	0.000183
293.15	0.385	0.002184	0.00015
293.15	0.4933	0.001845	0.000128
293.15	0.5935	0.001626	0.000114
293.15	0.6866	0.001554	0.00011
293.15	0.7731	0.001395	0.0001
293.15	0.8795	0.001311	9.4e-05
303.15	0.1835	0.002632	0.000178
303.15	0.2675	0.002121	0.000146
303.15	0.385	0.001748	0.000122
303.15	0.4933	0.001506	0.000107
303.15	0.5935	0.001339	9.6e-05
303.15	0.6866	0.001238	8.9e-05
303.15	0.7731	0.001173	8.5e-05
303.15	0.8795	0.001027	7.6e-05
313.15	0.1835	0.002285	0.000156
313.15	0.2675	0.001705	0.000119
313.15	0.385	0.001431	0.000102
313.15	0.4933	0.001254	9.1e-05
313.15	0.5935	0.001127	8.2e-05
313.15	0.6866	0.001053	7.8e-05
313.15	0.7731	0.001002	7.4e-05
313.15	0.8795	0.000965	7.2e-05
323.15	0.1835	0.001699	0.000119
323.15	0.2675	0.001403	0.0001
323.15	0.385	0.001196	8.7e-05
323.15	0.4933	0.001056	7.8e-05
323.15	0.5935	0.000964	7.2e-05
323.15	0.6866	0.000907	6.8e-05
323.15	0.7731	0.000869	6.6e-05
323.15	0.8795	0.000843	6.4e-05
333.15	0.1835	0.001289	9.3e-05
333.15	0.2675	0.00116	8.4e-05
333.15	0.385	0.001012	7.5e-05
333.15	0.4933	0.000903	6.8e-05
333.15	0.5935	0.000839	6.4e-05
333.15	0.6866	0.000792	6.1e-05
333.15	0.7731	0.000763	5.9e-05
333.15	0.8795	0.000742	5.7e-05
343.15	0.1835	0.001074	7.9e-05
343.15	0.2675	0.000975	7.3e-05
343.15	0.385	0.000863	6.5e-05
343.15	0.4933	0.000786	6e-05
343.15	0.5935	0.000732	5.7e-05
343.15	0.6866	0.000748	5.8e-05
343.15	0.7731	0.000678	5.3e-05
343.15	0.8795	0.000662	5.2e-05

System: hexan-1-ol + 1,4-dioxane; phases: Liquid
Fixed: Pressure, kPa = 101
Property: Mass density, kg/m3 (Liquid); method: VIBTUB::UFactor:64
Temperature, K	Mole fraction of 1,4-dioxane	Mass density, kg/m3	uncertainty
283.15	0.1835	860.24	5.63
283.15	0.2675	873.31	5.31
283.15	0.385	896.72	4.73
283.15	0.4933	916.23	4.25
283.15	0.5935	938.47	3.7
283.15	0.6866	957.86	3.22
283.15	0.7731	981.11	2.65
283.15	0.8795	1013.54	2.53
293.15	0.1835	853.33	5.8
293.15	0.2675	865.64	5.5
293.15	0.385	889.2	4.91
293.15	0.4933	903.63	4.56
293.15	0.5935	929.82	3.91
293.15	0.6866	951.11	3.39
293.15	0.7731	973.8	2.83
293.15	0.8795	1002.74	2.25
303.15	0.1835	845.02	6
303.15	0.2675	857.53	5.7
303.15	0.385	879.87	5.14
303.15	0.4933	898.36	4.69
303.15	0.5935	920.31	4.15
303.15	0.6866	941.43	3.63
303.15	0.7731	963.84	3.07
303.15	0.8795	990.21	2.42
313.15	0.1835	836.88	6.21
313.15	0.2675	849.44	5.9
313.15	0.385	871.16	5.36
313.15	0.4933	889.72	4.9
313.15	0.5935	909.94	4.4
313.15	0.6866	931.85	3.86
313.15	0.7731	953.63	3.32
313.15	0.8795	980.82	2.65
323.15	0.1835	829.74	6.38
323.15	0.2675	841.13	6.1
323.15	0.385	864.56	5.52
323.15	0.4933	880.42	5.13
323.15	0.5935	900.9	4.63
323.15	0.6866	921.84	4.11
323.15	0.7731	943.38	3.58
323.15	0.8795	971.57	2.88
333.15	0.1835	821.17	6.6
333.15	0.2675	833.54	6.29
333.15	0.385	856.26	5.73
333.15	0.4933	869.91	5.39
333.15	0.5935	890.93	4.87
333.15	0.6866	911.92	4.36
333.15	0.7731	933.31	3.83
333.15	0.8795	958.09	3.22
343.15	0.1835	815.14	6.75
343.15	0.2675	824.52	6.52
343.15	0.385	843.77	6.04
343.15	0.4933	862.93	5.57
343.15	0.5935	881.04	5.12
343.15	0.6866	905.05	4.53
343.15	0.7731	923.91	4.06
343.15	0.8795	947.05	3.49

System: N,N-dimethylaniline + 1,4-dioxane; phases: Liquid
Fixed: Pressure, kPa = 101
Property: Viscosity, Pa*s (Liquid); method: CAPTUB:UFactor:12
Temperature, K	Mole fraction of 1,4-dioxane	Viscosity, Pa*s	uncertainty
283.15	0.3099	0.00168	0.000118
283.15	0.4246	0.00166	0.000117
283.15	0.5302	0.001637	0.000115
283.15	0.6278	0.001629	0.000115
283.15	0.7182	0.001607	0.000113
283.15	0.7749	0.001606	0.000113
283.15	0.8551	0.001602	0.000113
283.15	0.9081	0.001591	0.000112
283.15	0.9538	0.001588	0.000112
293.15	0.3099	0.001424	0.000101
293.15	0.4246	0.001428	0.000102
293.15	0.5302	0.00137	9.8e-05
293.15	0.6278	0.001362	9.7e-05
293.15	0.7182	0.001345	9.6e-05
293.15	0.7749	0.001339	9.6e-05
293.15	0.8551	0.001326	9.5e-05
293.15	0.9081	0.00133	9.5e-05
293.15	0.9538	0.001327	9.5e-05
303.15	0.3099	0.001199	8.7e-05
303.15	0.4246	0.001182	8.6e-05
303.15	0.5302	0.001166	8.5e-05
303.15	0.6278	0.001157	8.4e-05
303.15	0.7182	0.001142	8.3e-05
303.15	0.7749	0.001136	8.3e-05
303.15	0.8551	0.001131	8.3e-05
303.15	0.9081	0.001124	8.2e-05
303.15	0.9538	0.001122	8.2e-05
313.15	0.3099	0.001029	7.6e-05
313.15	0.4246	0.001025	7.6e-05
313.15	0.5302	0.00101	7.5e-05
313.15	0.6278	0.001002	7.4e-05
313.15	0.7182	0.000987	7.3e-05
313.15	0.7749	0.000984	7.3e-05
313.15	0.8551	0.000976	7.3e-05
313.15	0.9081	0.000965	7.2e-05
313.15	0.9538	0.000968	7.2e-05
323.15	0.3099	0.000912	6.8e-05
323.15	0.4246	0.000901	6.8e-05
323.15	0.5302	0.000886	6.7e-05
323.15	0.6278	0.000879	6.6e-05
323.15	0.7182	0.000872	6.6e-05
323.15	0.7749	0.000861	6.5e-05
323.15	0.8551	0.000857	6.5e-05
323.15	0.9081	0.000848	6.4e-05
323.15	0.9538	0.000845	6.4e-05
333.15	0.3099	0.000811	6.2e-05
333.15	0.4246	0.000798	6.1e-05
333.15	0.5302	0.000786	6e-05
333.15	0.6278	0.000779	6e-05
333.15	0.7182	0.000771	5.9e-05
333.15	0.7749	0.000763	5.9e-05
333.15	0.8551	0.000761	5.9e-05
333.15	0.9081	0.00075	5.8e-05
333.15	0.9538	0.000751	5.8e-05
343.15	0.3099	0.000725	5.6e-05
343.15	0.4246	0.000716	5.6e-05
343.15	0.5302	0.00071	5.5e-05
343.15	0.6278	0.000711	5.5e-05
343.15	0.7182	0.000689	5.4e-05
343.15	0.7749	0.000683	5.4e-05
343.15	0.8551	0.000678	5.3e-05
343.15	0.9081	0.000674	5.3e-05
343.15	0.9538	0.00067	5.3e-05

System: N,N-dimethylaniline + 1,4-dioxane; phases: Liquid
Fixed: Pressure, kPa = 101
Property: Mass density, kg/m3 (Liquid); method: VIBTUB::UFactor:64
Temperature, K	Mole fraction of 1,4-dioxane	Mass density, kg/m3	uncertainty
283.15	0.3099	990.33	2.42
283.15	0.4246	998.33	2.22
283.15	0.5302	1005.32	2.32
283.15	0.6278	1013.42	2.52
283.15	0.7182	1019.31	2.67
283.15	0.7749	1025.23	2.82
283.15	0.8551	1034.31	3.05
283.15	0.9081	1040.92	3.22
283.15	0.9538	1043.01	3.27
293.15	0.3099	980.73	2.66
293.15	0.4246	989.12	2.45
293.15	0.5302	995.81	2.28
293.15	0.6278	1003.54	2.27
293.15	0.7182	1011.33	2.47
293.15	0.7749	1016.79	2.61
293.15	0.8551	1023.65	2.78
293.15	0.9081	1031.25	2.98
293.15	0.9538	1035.34	3.08
303.15	0.3099	973.4	2.84
303.15	0.4246	980.12	2.67
303.15	0.5302	986.56	2.51
303.15	0.6278	993.63	2.34
303.15	0.7182	1001.04	2.21
303.15	0.7749	1005.98	2.33
303.15	0.8551	1014.07	2.54
303.15	0.9081	1019.01	2.66
303.15	0.9538	1024.82	2.81
313.15	0.3099	963.88	3.07
313.15	0.4246	970.47	2.91
313.15	0.5302	977.93	2.72
313.15	0.6278	984.4	2.57
313.15	0.7182	991.21	2.4
313.15	0.7749	995.85	2.28
313.15	0.8551	1003.65	2.27
313.15	0.9081	1008.93	2.41
313.15	0.9538	1014.66	2.55
323.15	0.3099	955.01	3.29
323.15	0.4246	961.76	3.12
323.15	0.5302	968.52	2.96
323.15	0.6278	974.24	2.82
323.15	0.7182	981.34	2.64
323.15	0.7749	985.13	2.55
323.15	0.8551	993.17	2.35
323.15	0.9081	997.95	2.23
323.15	0.9538	1002.4	2.24
333.15	0.3099	945.84	3.52
333.15	0.4246	953.15	3.34
333.15	0.5302	958.78	3.2
333.15	0.6278	964.37	3.06
333.15	0.7182	971.52	2.88
333.15	0.7749	974.75	2.81
333.15	0.8551	983.43	2.59
333.15	0.9081	986.57	2.51
333.15	0.9538	991.84	2.38
343.15	0.3099	936.89	3.74
343.15	0.4246	944.04	3.57
343.15	0.5302	948.37	3.46
343.15	0.6278	954.22	3.31
343.15	0.7182	962.15	3.12
343.15	0.7749	964.44	3.06
343.15	0.8551	971.97	2.88
343.15	0.9081	977.83	2.73
343.15	0.9538	980.14	2.68

System: hexan-1-ol + N,N-dimethylaniline + 1,4-dioxane; phases: Liquid
Fixed: Pressure, kPa = 101
Property: Viscosity, Pa*s (Liquid); method: CAPTUB:UFactor:12
Temperature, K	Mole fraction of 1,4-dioxane	Mole fraction of hexan-1-ol	Viscosity, Pa*s	uncertainty
283.15	0	0.1009	0.001749	0.000122
283.15	0	0.2017	0.001867	0.00013
283.15	0	0.3022	0.002079	0.000143
283.15	0	0.4025	0.002306	0.000158
283.15	0	0.5026	0.002676	0.000181
283.15	0	0.6025	0.003092	0.000208
283.15	0	0.7022	0.003708	0.000246
283.15	0	0.8016	0.004614	0.000303
283.15	0	0.9009	0.005687	0.000358
283.15	0.1143	0.8082	0.004339	0.000285
283.15	0.127	0.4256	0.00231	0.000158
283.15	0.1282	0.3215	0.002081	0.000143
283.15	0.1322	0.2109	0.001797	0.000125
283.15	0.1338	0.5186	0.002608	0.000177
283.15	0.14	0.6385	0.003104	0.000208
283.15	0.1445	0.7576	0.003872	0.000256
283.15	0.1835	0.8165	0.004488	0.000295
283.15	0.2496	0.6488	0.002941	0.000198
283.15	0.2499	0.5469	0.002603	0.000177
283.15	0.2501	0.4448	0.002282	0.000156
283.15	0.2503	0.3425	0.002033	0.00014
283.15	0.2506	0.2399	0.00187	0.00013
283.15	0.2508	0.1372	0.001823	0.000127
283.15	0.2675	0.7325	0.00352	0.000234
283.15	0.3081	0.6023	0.002746	0.000186
283.15	0.3087	0.4223	0.002377	0.000162
283.15	0.309	0.3321	0.002031	0.00014
283.15	0.3092	0.2417	0.001768	0.000123
283.15	0.3094	0.1512	0.001758	0.000123
283.15	0.3094	0.5124	0.002625	0.000178
283.15	0.3099	0	0.00168	0.000118
283.15	0.385	0.615	0.002785	0.000188
283.15	0.4246	0	0.00166	0.000117
283.15	0.438	0.1332	0.001702	0.000119
283.15	0.4517	0.4463	0.002199	0.000151
283.15	0.4521	0.3436	0.001942	0.000135
283.15	0.4525	0.2407	0.001804	0.000126
283.15	0.4933	0.5067	0.002324	0.000159
283.15	0.5302	0	0.001637	0.000115
283.15	0.5395	0.369	0.001985	0.000137
283.15	0.54	0.277	0.001812	0.000126
283.15	0.5756	0.1968	0.001754	0.000123
283.15	0.5761	0.0985	0.001648	0.000116
283.15	0.5935	0.4065	0.002007	0.000139
283.15	0.6278	0	0.001629	0.000115
283.15	0.6663	0.2734	0.001758	0.000123
283.15	0.6669	0.1824	0.001665	0.000117
283.15	0.6674	0.0913	0.001651	0.000116
283.15	0.6866	0.3134	0.001815	0.000126
283.15	0.7182	0	0.001607	0.000113
283.15	0.7571	0.1523	0.001704	0.000119
283.15	0.7575	0.0914	0.001648	0.000116
283.15	0.7731	0.2269	0.001691	0.000119
283.15	0.7749	0	0.001606	0.000113
283.15	0.8364	0.088	0.001434	0.000102
283.15	0.8551	0	0.001602	0.000113
283.15	0.8795	0.1205	0.001601	0.000113
283.15	0.9081	0	0.001591	0.000112
283.15	0.9538	0	0.001588	0.000112
293.15	0	0.1009	0.001448	0.000103
293.15	0	0.2017	0.001527	0.000108
293.15	0	0.3022	0.001667	0.000117
293.15	0	0.4025	0.001837	0.000128
293.15	0	0.5026	0.002086	0.000144
293.15	0	0.6025	0.002359	0.000161
293.15	0	0.7022	0.002821	0.00019
293.15	0	0.8016	0.003401	0.000227
293.15	0	0.9009	0.004138	0.000273
293.15	0.1143	0.8082	0.003249	0.000217
293.15	0.127	0.4256	0.001836	0.000128
293.15	0.1282	0.3215	0.001669	0.000117
293.15	0.1322	0.2109	0.001483	0.000105
293.15	0.1338	0.5186	0.002044	0.000141
293.15	0.14	0.6385	0.002406	0.000164
293.15	0.1445	0.7576	0.002928	0.000197
293.15	0.1835	0.8165	0.003221	0.000216
293.15	0.2496	0.6488	0.002297	0.000157
293.15	0.2499	0.5469	0.002051	0.000142
293.15	0.2501	0.4448	0.001828	0.000127
293.15	0.2503	0.3425	0.001637	0.000115
293.15	0.2506	0.2399	0.00154	0.000109
293.15	0.2508	0.1372	0.001499	0.000106
293.15	0.2675	0.7325	0.002707	0.000183
293.15	0.3081	0.6023	0.00215	0.000148
293.15	0.3087	0.4223	0.00189	0.000131
293.15	0.309	0.3321	0.001639	0.000115
293.15	0.3092	0.2417	0.001671	0.000117
293.15	0.3094	0.1512	0.001457	0.000104
293.15	0.3094	0.5124	0.002081	0.000143
293.15	0.3099	0	0.001424	0.000101
293.15	0.385	0.615	0.002184	0.00015
293.15	0.4246	0	0.001428	0.000102
293.15	0.438	0.1332	0.001429	0.000102
293.15	0.4517	0.4463	0.001752	0.000122
293.15	0.4521	0.3436	0.001585	0.000112
293.15	0.4525	0.2407	0.001468	0.000104
293.15	0.4933	0.5067	0.001845	0.000128
293.15	0.5302	0	0.00137	9.8e-05
293.15	0.5395	0.369	0.001634	0.000115
293.15	0.54	0.277	0.001494	0.000106
293.15	0.5756	0.1968	0.001427	0.000102
293.15	0.5761	0.0985	0.001384	9.9e-05
293.15	0.5935	0.4065	0.001626	0.000114
293.15	0.6278	0	0.001362	9.7e-05
293.15	0.6663	0.2734	0.001477	0.000105
293.15	0.6669	0.1824	0.001384	9.9e-05
293.15	0.6674	0.0913	0.001364	9.8e-05
293.15	0.6866	0.3134	0.001554	0.00011
293.15	0.7182	0	0.001345	9.6e-05
293.15	0.7571	0.1523	0.001434	0.000102
293.15	0.7575	0.0914	0.001368	9.8e-05
293.15	0.7731	0.2269	0.001395	0.0001
293.15	0.7749	0	0.001339	9.6e-05
293.15	0.8364	0.088	0.001348	9.7e-05
293.15	0.8551	0	0.001326	9.5e-05
293.15	0.8795	0.1205	0.001311	9.4e-05
293.15	0.9081	0	0.00133	9.5e-05
293.15	0.9538	0	0.001327	9.5e-05
303.15	0	0.1009	0.001221	8.8e-05
303.15	0	0.2017	0.001276	9.2e-05
303.15	0	0.3022	0.00138	9.9e-05
303.15	0	0.4025	0.001496	0.000106
303.15	0	0.5026	0.001668	0.000117
303.15	0	0.6025	0.001891	0.000131
303.15	0	0.7022	0.00216	0.000149
303.15	0	0.8016	0.002585	0.000175
303.15	0	0.9009	0.003101	0.000208
303.15	0	1	0.003917	0.000259
303.15	0.1143	0.8082	0.002497	0.00017
303.15	0.127	0.4256	0.001508	0.000107
303.15	0.1282	0.3215	0.001318	9.5e-05
303.15	0.1322	0.2109	0.001251	9e-05
303.15	0.1338	0.5186	0.001659	0.000117
303.15	0.14	0.6385	0.001907	0.000132
303.15	0.1445	0.7576	0.002266	0.000155
303.15	0.1835	0.8165	0.002632	0.000178
303.15	0.2496	0.6488	0.001826	0.000127
303.15	0.2499	0.5469	0.001649	0.000116
303.15	0.2501	0.4448	0.001502	0.000106
303.15	0.2503	0.3425	0.001361	9.7e-05
303.15	0.2506	0.2399	0.001276	9.2e-05
303.15	0.2508	0.1372	0.001257	9.1e-05
303.15	0.2675	0.7325	0.002121	0.000146
303.15	0.3081	0.6023	0.001729	0.000121
303.15	0.3087	0.4223	0.001545	0.000109
303.15	0.309	0.3321	0.001361	9.7e-05
303.15	0.3092	0.2417	0.001211	8.8e-05
303.15	0.3094	0.1512	0.00125	9e-05
303.15	0.3094	0.5124	0.001661	0.000117
303.15	0.3099	0	0.001199	8.7e-05
303.15	0.385	0.615	0.001748	0.000122
303.15	0.4246	0	0.001182	8.6e-05
303.15	0.438	0.1332	0.001197	8.7e-05
303.15	0.4517	0.4463	0.001445	0.000103
303.15	0.4521	0.3436	0.001308	9.4e-05
303.15	0.4525	0.2407	0.001228	8.9e-05
303.15	0.4933	0.5067	0.001506	0.000107
303.15	0.5302	0	0.001166	8.5e-05
303.15	0.5395	0.369	0.001335	9.6e-05
303.15	0.54	0.277	0.00124	9e-05
303.15	0.5756	0.1968	0.001195	8.7e-05
303.15	0.5761	0.0985	0.001185	8.6e-05
303.15	0.5935	0.4065	0.001339	9.6e-05
303.15	0.6278	0	0.001157	8.4e-05
303.15	0.6663	0.2734	0.001212	8.8e-05
303.15	0.6669	0.1824	0.001181	8.6e-05
303.15	0.6674	0.0913	0.001156	8.4e-05
303.15	0.6866	0.3134	0.001238	8.9e-05
303.15	0.7182	0	0.001142	8.3e-05
303.15	0.7571	0.1523	0.001211	8.8e-05
303.15	0.7575	0.0914	0.001141	8.3e-05
303.15	0.7731	0.2269	0.001173	8.5e-05
303.15	0.7749	0	0.001136	8.3e-05
303.15	0.8364	0.088	0.001156	8.4e-05
303.15	0.8551	0	0.001131	8.3e-05
303.15	0.8795	0.1205	0.001027	7.6e-05
303.15	0.9081	0	0.001124	8.2e-05
303.15	0.9538	0	0.001122	8.2e-05
313.15	0	0.1009	0.001051	7.7e-05
313.15	0	0.2017	0.001086	8e-05
313.15	0	0.3022	0.00116	8.4e-05
313.15	0	0.4025	0.001246	9e-05
313.15	0	0.5026	0.001369	9.8e-05
313.15	0	0.6025	0.001524	0.000108
313.15	0	0.7022	0.001732	0.000121
313.15	0	0.8016	0.002023	0.00014
313.15	0	0.9009	0.00237	0.000162
313.15	0.1143	0.8082	0.001958	0.000136
313.15	0.127	0.4256	0.001264	9.1e-05
313.15	0.1282	0.3215	0.001157	8.4e-05
313.15	0.1322	0.2109	0.001065	7.8e-05
313.15	0.1338	0.5186	0.001363	9.8e-05
313.15	0.14	0.6385	0.001541	0.000109
313.15	0.1445	0.7576	0.001792	0.000125
313.15	0.1835	0.8165	0.002285	0.000156
313.15	0.2496	0.6488	0.001489	0.000106
313.15	0.2499	0.5469	0.001359	9.7e-05
313.15	0.2501	0.4448	0.001243	9e-05
313.15	0.2503	0.3425	0.001142	8.3e-05
313.15	0.2506	0.2399	0.001086	8e-05
313.15	0.2508	0.1372	0.001072	7.9e-05
313.15	0.2675	0.7325	0.001705	0.000119
313.15	0.3081	0.6023	0.001416	0.000101
313.15	0.3087	0.4223	0.001286	9.3e-05
313.15	0.309	0.3321	0.001143	8.3e-05
313.15	0.3092	0.2417	0.00108	7.9e-05
313.15	0.3094	0.1512	0.001043	7.7e-05
313.15	0.3094	0.5124	0.001371	9.8e-05
313.15	0.3099	0	0.001029	7.6e-05
313.15	0.385	0.615	0.001431	0.000102
313.15	0.4246	0	0.001025	7.6e-05
313.15	0.438	0.1332	0.001022	7.6e-05
313.15	0.4517	0.4463	0.001202	8.7e-05
313.15	0.4521	0.3436	0.001105	8.1e-05
313.15	0.4525	0.2407	0.001084	8e-05
313.15	0.4933	0.5067	0.001254	9.1e-05
313.15	0.5302	0	0.00101	7.5e-05
313.15	0.5395	0.369	0.001136	8.3e-05
313.15	0.54	0.277	0.001055	7.8e-05
313.15	0.5756	0.1968	0.00105	7.7e-05
313.15	0.5761	0.0985	0.001003	7.4e-05
313.15	0.5935	0.4065	0.001127	8.2e-05
313.15	0.6278	0	0.001002	7.4e-05
313.15	0.6663	0.2734	0.001031	7.6e-05
313.15	0.6669	0.1824	0.001	7.4e-05
313.15	0.6674	0.0913	0.001002	7.4e-05
313.15	0.6866	0.3134	0.001053	7.8e-05
313.15	0.7182	0	0.000987	7.3e-05
313.15	0.7571	0.1523	0.001008	7.5e-05
313.15	0.7575	0.0914	0.000981	7.3e-05
313.15	0.7731	0.2269	0.001002	7.4e-05
313.15	0.7749	0	0.000984	7.3e-05
313.15	0.8364	0.088	0.000972	7.2e-05
313.15	0.8551	0	0.000976	7.3e-05
313.15	0.8795	0.1205	0.000965	7.2e-05
313.15	0.9081	0	0.000965	7.2e-05
313.15	0.9538	0	0.000968	7.2e-05
323.15	0	0.1009	0.000917	6.9e-05
323.15	0	0.2017	0.000939	7e-05
323.15	0	0.3022	0.000992	7.4e-05
323.15	0	0.4025	0.001056	7.8e-05
323.15	0	0.5026	0.001138	8.3e-05
323.15	0	0.6025	0.001269	9.1e-05
323.15	0	0.7022	0.001404	0.0001
323.15	0	0.8016	0.00161	0.000113
323.15	0	0.9009	0.001869	0.00013
323.15	0	1	0.002276	0.000156
323.15	0.1143	0.8082	0.001584	0.000112
323.15	0.127	0.4256	0.001071	7.9e-05
323.15	0.1282	0.3215	0.000989	7.3e-05
323.15	0.1322	0.2109	0.000922	6.9e-05
323.15	0.1338	0.5186	0.00115	8.4e-05
323.15	0.14	0.6385	0.00129	9.3e-05
323.15	0.1445	0.7576	0.001468	0.000104
323.15	0.1835	0.8165	0.001699	0.000119
323.15	0.2496	0.6488	0.00124	9e-05
323.15	0.2499	0.5469	0.001135	8.3e-05
323.15	0.2501	0.4448	0.001048	7.7e-05
323.15	0.2503	0.3425	0.000985	7.3e-05
323.15	0.2506	0.2399	0.000938	7e-05
323.15	0.2508	0.1372	0.000932	7e-05
323.15	0.2675	0.7325	0.001403	0.0001
323.15	0.3081	0.6023	0.001178	8.6e-05
323.15	0.3087	0.4223	0.001081	7.9e-05
323.15	0.309	0.3321	0.000986	7.3e-05
323.15	0.3092	0.2417	0.000933	7e-05
323.15	0.3094	0.1512	0.000857	6.5e-05
323.15	0.3094	0.5124	0.00117	8.5e-05
323.15	0.3099	0	0.000912	6.8e-05
323.15	0.385	0.615	0.001196	8.7e-05
323.15	0.4246	0	0.000901	6.8e-05
323.15	0.438	0.1332	0.000896	6.7e-05
323.15	0.4517	0.4463	0.001018	7.5e-05
323.15	0.4521	0.3436	0.000949	7.1e-05
323.15	0.4525	0.2407	0.000941	7e-05
323.15	0.4933	0.5067	0.001056	7.8e-05
323.15	0.5302	0	0.000886	6.7e-05
323.15	0.5395	0.369	0.000957	7.1e-05
323.15	0.54	0.277	0.000914	6.9e-05
323.15	0.5756	0.1968	0.000895	6.7e-05
323.15	0.5761	0.0985	0.000891	6.7e-05
323.15	0.5935	0.4065	0.000964	7.2e-05
323.15	0.6278	0	0.000879	6.6e-05
323.15	0.6663	0.2734	0.000902	6.8e-05
323.15	0.6669	0.1824	0.000868	6.6e-05
323.15	0.6674	0.0913	0.000871	6.6e-05
323.15	0.6866	0.3134	0.000907	6.8e-05
323.15	0.7182	0	0.000872	6.6e-05
323.15	0.7571	0.1523	0.000885	6.7e-05
323.15	0.7575	0.0914	0.000892	6.7e-05
323.15	0.7731	0.2269	0.000869	6.6e-05
323.15	0.7749	0	0.000861	6.5e-05
323.15	0.8364	0.088	0.000853	6.5e-05
323.15	0.8551	0	0.000857	6.5e-05
323.15	0.8795	0.1205	0.000843	6.4e-05
323.15	0.9081	0	0.000848	6.4e-05
323.15	0.9538	0	0.000845	6.4e-05
333.15	0	0.1009	0.000812	6.2e-05
333.15	0	0.2017	0.000826	6.3e-05
333.15	0	0.3022	0.000861	6.5e-05
333.15	0	0.4025	0.000908	6.8e-05
333.15	0	0.5026	0.000971	7.2e-05
333.15	0	0.6025	0.001044	7.7e-05
333.15	0	0.7022	0.001157	8.4e-05
333.15	0	0.8016	0.00131	9.4e-05
333.15	0	0.9009	0.001423	0.000101
333.15	0.1143	0.8082	0.001286	9.3e-05
333.15	0.127	0.4256	0.000909	6.8e-05
333.15	0.1282	0.3215	0.000856	6.5e-05
333.15	0.1322	0.2109	0.000812	6.2e-05
333.15	0.1338	0.5186	0.000962	7.2e-05
333.15	0.14	0.6385	0.001089	8e-05
333.15	0.1445	0.7576	0.001213	8.8e-05
333.15	0.1835	0.8165	0.001289	9.3e-05
333.15	0.2496	0.6488	0.001037	7.7e-05
333.15	0.2499	0.5469	0.000964	7.2e-05
333.15	0.2501	0.4448	0.000909	6.8e-05
333.15	0.2503	0.3425	0.000854	6.5e-05
333.15	0.2506	0.2399	0.000823	6.3e-05
333.15	0.2508	0.1372	0.000817	6.2e-05
333.15	0.2675	0.7325	0.00116	8.4e-05
333.15	0.3081	0.6023	0.001007	7.5e-05
333.15	0.3087	0.4223	0.00092	6.9e-05
333.15	0.309	0.3321	0.000869	6.6e-05
333.15	0.3092	0.2417	0.000819	6.2e-05
333.15	0.3094	0.1512	0.0008	6.1e-05
333.15	0.3094	0.5124	0.000967	7.2e-05
333.15	0.3099	0	0.000811	6.2e-05
333.15	0.385	0.615	0.001012	7.5e-05
333.15	0.4246	0	0.000798	6.1e-05
333.15	0.438	0.1332	0.000785	6e-05
333.15	0.4517	0.4463	0.000881	6.6e-05
333.15	0.4521	0.3436	0.000836	6.4e-05
333.15	0.4525	0.2407	0.000841	6.4e-05
333.15	0.4933	0.5067	0.000903	6.8e-05
333.15	0.5302	0	0.000786	6e-05
333.15	0.5395	0.369	0.000835	6.4e-05
333.15	0.54	0.277	0.000882	6.7e-05
333.15	0.5756	0.1968	0.000783	6e-05
333.15	0.5761	0.0985	0.000777	6e-05
333.15	0.5935	0.4065	0.000839	6.4e-05
333.15	0.6278	0	0.000779	6e-05
333.15	0.6663	0.2734	0.000783	6e-05
333.15	0.6669	0.1824	0.000766	5.9e-05
333.15	0.6674	0.0913	0.000771	5.9e-05
333.15	0.6866	0.3134	0.000792	6.1e-05
333.15	0.7182	0	0.000771	5.9e-05
333.15	0.7571	0.1523	0.000765	5.9e-05
333.15	0.7575	0.0914	0.000761	5.9e-05
333.15	0.7731	0.2269	0.000763	5.9e-05
333.15	0.7749	0	0.000763	5.9e-05
333.15	0.8364	0.088	0.000785	6e-05
333.15	0.8551	0	0.000761	5.9e-05
333.15	0.8795	0.1205	0.000742	5.7e-05
333.15	0.9081	0	0.00075	5.8e-05
333.15	0.9538	0	0.000751	5.8e-05
343.15	0	0.1009	0.000774	6e-05
343.15	0	0.2017	0.000731	5.7e-05
343.15	0	0.3022	0.000737	5.7e-05
343.15	0	0.4025	0.00079	6.1e-05
343.15	0	0.5026	0.00083	6.3e-05
343.15	0	0.6025	0.000902	6.8e-05
343.15	0	0.7022	0.000973	7.2e-05
343.15	0	0.8016	0.00108	7.9e-05
343.15	0	0.9009	0.001218	8.8e-05
343.15	0.1143	0.8082	0.001074	7.9e-05
343.15	0.127	0.4256	0.00079	6.1e-05
343.15	0.1282	0.3215	0.000752	5.8e-05
343.15	0.1322	0.2109	0.000723	5.6e-05
343.15	0.1338	0.5186	0.000837	6.4e-05
343.15	0.14	0.6385	0.000906	6.8e-05
343.15	0.1445	0.7576	0.001004	7.4e-05
343.15	0.1835	0.8165	0.001074	7.9e-05
343.15	0.2496	0.6488	0.000932	7e-05
343.15	0.2499	0.5469	0.00083	6.3e-05
343.15	0.2501	0.4448	0.000782	6e-05
343.15	0.2503	0.3425	0.000745	5.8e-05
343.15	0.2506	0.2399	0.000726	5.6e-05
343.15	0.2508	0.1372	0.000722	5.6e-05
343.15	0.2675	0.7325	0.000975	7.3e-05
343.15	0.3081	0.6023	0.000858	6.5e-05
343.15	0.3087	0.4223	0.0008	6.1e-05
343.15	0.309	0.3321	0.000775	6e-05
343.15	0.3092	0.2417	0.000798	6.1e-05
343.15	0.3094	0.1512	0.000712	5.6e-05
343.15	0.3094	0.5124	0.000839	6.4e-05
343.15	0.3099	0	0.000725	5.6e-05
343.15	0.385	0.615	0.000863	6.5e-05
343.15	0.4246	0	0.000716	5.6e-05
343.15	0.438	0.1332	0.000707	5.5e-05
343.15	0.4517	0.4463	0.000772	5.9e-05
343.15	0.4521	0.3436	0.000734	5.7e-05
343.15	0.4525	0.2407	0.000715	5.6e-05
343.15	0.4933	0.5067	0.000786	6e-05
343.15	0.5302	0	0.00071	5.5e-05
343.15	0.5395	0.369	0.00077	5.9e-05
343.15	0.54	0.277	0.000715	5.6e-05
343.15	0.5756	0.1968	0.000693	5.4e-05
343.15	0.5761	0.0985	0.000693	5.4e-05
343.15	0.5935	0.4065	0.000732	5.7e-05
343.15	0.6278	0	0.000711	5.5e-05
343.15	0.6663	0.2734	0.000751	5.8e-05
343.15	0.6669	0.1824	0.00069	5.4e-05
343.15	0.6674	0.0913	0.000688	5.4e-05
343.15	0.6866	0.3134	0.000748	5.8e-05
343.15	0.7182	0	0.000689	5.4e-05
343.15	0.7571	0.1523	0.000684	5.4e-05
343.15	0.7575	0.0914	0.000688	5.4e-05
343.15	0.7731	0.2269	0.000678	5.3e-05
343.15	0.7749	0	0.000683	5.4e-05
343.15	0.8364	0.088	0.000676	5.3e-05
343.15	0.8551	0	0.000678	5.3e-05
343.15	0.8795	0.1205	0.000662	5.2e-05
343.15	0.9081	0	0.000674	5.3e-05
343.15	0.9538	0	0.00067	5.3e-05

System: hexan-1-ol + N,N-dimethylaniline + 1,4-dioxane; phases: Liquid
Fixed: Pressure, kPa = 101
Property: Mass density, kg/m3 (Liquid); method: VIBTUB:UFactor:64
Temperature, K	Mole fraction of 1,4-dioxane	Mole fraction of hexan-1-ol	Mass density, kg/m3	uncertainty
283.15	0	0.1009	958.16	3.21
283.15	0	0.2017	944.54	3.55
283.15	0	0.3022	928.83	3.94
283.15	0	0.4025	915.52	4.26
283.15	0	0.5026	904.21	4.54
283.15	0	0.6025	890.94	4.87
283.15	0	0.7022	876.26	5.23
283.15	0	0.8016	861.23	5.6
283.15	0	0.9009	848.23	5.93
283.15	0.1143	0.8082	862.85	5.56
283.15	0.127	0.4256	919.82	4.16
283.15	0.1282	0.3215	932.82	3.84
283.15	0.1322	0.2109	957.74	3.22
283.15	0.1338	0.5186	906.55	4.49
283.15	0.14	0.6385	889.23	4.91
283.15	0.1445	0.7576	871.21	5.36
283.15	0.1835	0.8165	860.24	5.63
283.15	0.2496	0.6488	891.55	4.86
283.15	0.2499	0.5469	903.74	4.55
283.15	0.2501	0.4448	920.66	4.14
283.15	0.2503	0.3425	935.62	3.77
283.15	0.2506	0.2399	950.74	3.4
283.15	0.2508	0.1372	962.43	3.11
283.15	0.2675	0.7325	873.31	5.31
283.15	0.3081	0.6023	899.96	4.65
283.15	0.3087	0.4223	917.22	4.22
283.15	0.309	0.3321	938.81	3.69
283.15	0.3092	0.2417	954.52	3.3
283.15	0.3094	0.1512	967.53	2.98
283.15	0.3094	0.5124	904.84	4.53
283.15	0.3099	0	990.33	2.42
283.15	0.385	0.615	896.72	4.73
283.15	0.4246	0	998.33	2.22
283.15	0.438	0.1332	978.67	2.71
283.15	0.4517	0.4463	928.13	3.95
283.15	0.4521	0.3436	945.22	3.53
283.15	0.4525	0.2407	962.33	3.11
283.15	0.4933	0.5067	916.23	4.25
283.15	0.5302	0	1005.32	2.32
283.15	0.5395	0.369	945.43	3.53
283.15	0.54	0.277	961.42	3.13
283.15	0.5756	0.1968	977.57	2.73
283.15	0.5761	0.0985	993.55	2.34
283.15	0.5935	0.4065	938.47	3.7
283.15	0.6278	0	1013.42	2.52
283.15	0.6663	0.2734	966.62	3
283.15	0.6669	0.1824	983.81	2.58
283.15	0.6674	0.0913	999.01	2.21
283.15	0.6866	0.3134	957.86	3.22
283.15	0.7182	0	1019.31	2.67
283.15	0.7571	0.1523	981.23	2.65
283.15	0.7575	0.0914	1007.62	2.38
283.15	0.7731	0.2269	981.11	2.65
283.15	0.7749	0	1025.23	2.82
283.15	0.8364	0.088	1011.89	2.49
283.15	0.8551	0	1034.31	3.05
283.15	0.8795	0.1205	1013.54	2.53
283.15	0.9081	0	1040.92	3.22
283.15	0.9538	0	1043.01	3.27
293.15	0	0.1009	950	3.41
293.15	0	0.2017	936.43	3.75
293.15	0	0.3022	920.62	4.14
293.15	0	0.4025	909.23	4.42
293.15	0	0.5026	896.74	4.73
293.15	0	0.6025	882.6	5.08
293.15	0	0.7022	868.6	5.42
293.15	0	0.8016	852.26	5.83
293.15	0	0.9009	841.25	6.1
293.15	0.1143	0.8082	855.45	5.75
293.15	0.127	0.4256	910.94	4.38
293.15	0.1282	0.3215	924.62	4.04
293.15	0.1322	0.2109	949.43	3.43
293.15	0.1338	0.5186	898.23	4.69
293.15	0.14	0.6385	881.11	5.11
293.15	0.1445	0.7576	863.5	5.55
293.15	0.1835	0.8165	853.33	5.8
293.15	0.2496	0.6488	883.44	5.06
293.15	0.2499	0.5469	895.62	4.76
293.15	0.2501	0.4448	912.94	4.33
293.15	0.2503	0.3425	927.63	3.97
293.15	0.2506	0.2399	941.92	3.61
293.15	0.2508	0.1372	954.23	3.31
293.15	0.2675	0.7325	865.64	5.5
293.15	0.3081	0.6023	891.22	4.86
293.15	0.3087	0.4223	908.8	4.43
293.15	0.309	0.3321	930.53	3.89
293.15	0.3092	0.2417	945.03	3.54
293.15	0.3094	0.1512	960.15	3.16
293.15	0.3094	0.5124	896.8	4.73
293.15	0.3099	0	980.73	2.66
293.15	0.385	0.615	889.2	4.91
293.15	0.4246	0	989.12	2.45
293.15	0.438	0.1332	970.01	2.92
293.15	0.4517	0.4463	919.3	4.17
293.15	0.4521	0.3436	936.51	3.75
293.15	0.4525	0.2407	953.61	3.32
293.15	0.4933	0.5067	903.63	4.56
293.15	0.5302	0	995.81	2.28
293.15	0.5395	0.369	936.22	3.75
293.15	0.54	0.277	951.73	3.37
293.15	0.5756	0.1968	968.54	2.96
293.15	0.5761	0.0985	984	2.58
293.15	0.5935	0.4065	929.82	3.91
293.15	0.6278	0	1003.54	2.27
293.15	0.6663	0.2734	961.45	3.13
293.15	0.6669	0.1824	976.51	2.76
293.15	0.6674	0.0913	989.12	2.45
293.15	0.6866	0.3134	951.11	3.39
293.15	0.7182	0	1011.33	2.47
293.15	0.7571	0.1523	970	2.93
293.15	0.7575	0.0914	997.91	2.24
293.15	0.7731	0.2269	973.8	2.83
293.15	0.7749	0	1016.79	2.61
293.15	0.8364	0.088	1002.74	2.25
293.15	0.8551	0	1023.65	2.78
293.15	0.8795	0.1205	1002.74	2.25
293.15	0.9081	0	1031.25	2.98
293.15	0.9538	0	1035.34	3.08
303.15	0	0.1009	942.24	3.6
303.15	0	0.2017	928.31	3.95
303.15	0	0.3022	912.67	4.33
303.15	0	0.4025	901.18	4.62
303.15	0	0.5026	888.09	4.94
303.15	0	0.6025	875.63	5.25
303.15	0	0.7022	860.74	5.62
303.15	0	0.8016	846.02	5.98
303.15	0	0.9009	832.65	6.31
303.15	0	1	813.96	6.77
303.15	0.1143	0.8082	847.78	5.94
303.15	0.127	0.4256	902.93	4.57
303.15	0.1282	0.3215	916.52	4.24
303.15	0.1322	0.2109	940.87	3.64
303.15	0.1338	0.5186	890.34	4.89
303.15	0.14	0.6385	874.15	5.29
303.15	0.1445	0.7576	855.86	5.74
303.15	0.1835	0.8165	845.02	6
303.15	0.2496	0.6488	875.23	5.26
303.15	0.2499	0.5469	887.65	4.95
303.15	0.2501	0.4448	903.86	4.55
303.15	0.2503	0.3425	919.61	4.16
303.15	0.2506	0.2399	934.55	3.79
303.15	0.2508	0.1372	945.73	3.52
303.15	0.2675	0.7325	857.53	5.7
303.15	0.3081	0.6023	882.77	5.07
303.15	0.3087	0.4223	900.22	4.64
303.15	0.309	0.3321	921.83	4.11
303.15	0.3092	0.2417	937	3.73
303.15	0.3094	0.1512	949.71	3.42
303.15	0.3094	0.5124	889.69	4.9
303.15	0.3099	0	973.4	2.84
303.15	0.385	0.615	879.87	5.14
303.15	0.4246	0	980.12	2.67
303.15	0.438	0.1332	961.04	3.14
303.15	0.4517	0.4463	910.3	4.39
303.15	0.4521	0.3436	927.71	3.96
303.15	0.4525	0.2407	944.06	3.56
303.15	0.4933	0.5067	898.36	4.69
303.15	0.5302	0	986.56	2.51
303.15	0.5395	0.369	926.9	3.98
303.15	0.54	0.277	942.41	3.6
303.15	0.5756	0.1968	959.35	3.18
303.15	0.5761	0.0985	974.52	2.81
303.15	0.5935	0.4065	920.31	4.15
303.15	0.6278	0	993.63	2.34
303.15	0.6663	0.2734	950.86	3.39
303.15	0.6669	0.1824	966.24	3.01
303.15	0.6674	0.0913	979.77	2.68
303.15	0.6866	0.3134	941.43	3.63
303.15	0.7182	0	1001.04	2.21
303.15	0.7571	0.1523	961.02	3.15
303.15	0.7575	0.0914	988.03	2.48
303.15	0.7731	0.2269	963.84	3.07
303.15	0.7749	0	1005.98	2.33
303.15	0.8364	0.088	993.57	2.34
303.15	0.8551	0	1014.07	2.54
303.15	0.8795	0.1205	990.21	2.42
303.15	0.9081	0	1019.01	2.66
303.15	0.9538	0	1024.82	2.81
313.15	0	0.1009	933.77	3.81
313.15	0	0.2017	920.41	4.14
313.15	0	0.3022	904.59	4.53
313.15	0	0.4025	892.85	4.82
313.15	0	0.5026	879.8	5.15
313.15	0	0.6025	867.83	5.44
313.15	0	0.7022	852.77	5.81
313.15	0	0.8016	839.15	6.15
313.15	0	0.9009	824.98	6.5
313.15	0.1143	0.8082	839.81	6.13
313.15	0.127	0.4256	895.54	4.76
313.15	0.1282	0.3215	907.95	4.45
313.15	0.1322	0.2109	932.43	3.85
313.15	0.1338	0.5186	881.74	5.1
313.15	0.14	0.6385	865.35	5.5
313.15	0.1445	0.7576	848.02	5.93
313.15	0.1835	0.8165	836.88	6.21
313.15	0.2496	0.6488	867.89	5.44
313.15	0.2499	0.5469	879.67	5.15
313.15	0.2501	0.4448	894.86	4.77
313.15	0.2503	0.3425	910.72	4.38
313.15	0.2506	0.2399	926.13	4
313.15	0.2508	0.1372	937.01	3.73
313.15	0.2675	0.7325	849.44	5.9
313.15	0.3081	0.6023	874.43	5.28
313.15	0.3087	0.4223	892.16	4.84
313.15	0.309	0.3321	912.82	4.33
313.15	0.3092	0.2417	928.05	3.96
313.15	0.3094	0.1512	941.13	3.63
313.15	0.3094	0.5124	879.68	5.15
313.15	0.3099	0	963.88	3.07
313.15	0.385	0.615	871.16	5.36
313.15	0.4246	0	970.47	2.91
313.15	0.438	0.1332	950.35	3.41
313.15	0.4517	0.4463	902.05	4.6
313.15	0.4521	0.3436	918.58	4.19
313.15	0.4525	0.2407	935.32	3.78
313.15	0.4933	0.5067	889.72	4.9
313.15	0.5302	0	977.93	2.72
313.15	0.5395	0.369	918.17	4.2
313.15	0.54	0.277	935.34	3.78
313.15	0.5756	0.1968	949.56	3.42
313.15	0.5761	0.0985	963.19	3.09
313.15	0.5935	0.4065	909.94	4.4
313.15	0.6278	0	984.4	2.57
313.15	0.6663	0.2734	940.85	3.64
313.15	0.6669	0.1824	957.08	3.24
313.15	0.6674	0.0913	970.32	2.91
313.15	0.6866	0.3134	931.85	3.86
313.15	0.7182	0	991.21	2.4
313.15	0.7571	0.1523	951.24	3.39
313.15	0.7575	0.0914	977.53	2.74
313.15	0.7731	0.2269	953.63	3.32
313.15	0.7749	0	995.85	2.28
313.15	0.8364	0.088	982.61	2.61
313.15	0.8551	0	1003.65	2.27
313.15	0.8795	0.1205	980.82	2.65
313.15	0.9081	0	1008.93	2.41
313.15	0.9538	0	1014.66	2.55
323.15	0	0.1009	925.31	4.02
323.15	0	0.2017	912.27	4.34
323.15	0	0.3022	896.34	4.74
323.15	0	0.4025	885.58	5
323.15	0	0.5026	872.2	5.33
323.15	0	0.6025	859.03	5.66
323.15	0	0.7022	843.94	6.03
323.15	0	0.8016	831.15	6.35
323.15	0	0.9009	818.33	6.66
323.15	0	1	804.22	7.01
323.15	0.1143	0.8082	832.15	6.32
323.15	0.127	0.4256	886.83	4.97
323.15	0.1282	0.3215	899.56	4.66
323.15	0.1322	0.2109	924.05	4.05
323.15	0.1338	0.5186	873.54	5.3
323.15	0.14	0.6385	857.33	5.7
323.15	0.1445	0.7576	839.84	6.13
323.15	0.1835	0.8165	829.74	6.38
323.15	0.2496	0.6488	860.02	5.63
323.15	0.2499	0.5469	871.06	5.36
323.15	0.2501	0.4448	886.75	4.97
323.15	0.2503	0.3425	902.13	4.6
323.15	0.2506	0.2399	916.68	4.24
323.15	0.2508	0.1372	928.06	3.96
323.15	0.2675	0.7325	841.13	6.1
323.15	0.3081	0.6023	865.84	5.49
323.15	0.3087	0.4223	883.4	5.06
323.15	0.309	0.3321	904.39	4.54
323.15	0.3092	0.2417	918.84	4.18
323.15	0.3094	0.1512	932.08	3.86
323.15	0.3094	0.5124	872.23	5.33
323.15	0.3099	0	955.01	3.29
323.15	0.385	0.615	864.56	5.52
323.15	0.4246	0	961.76	3.12
323.15	0.438	0.1332	942.45	3.6
323.15	0.4517	0.4463	892.79	4.83
323.15	0.4521	0.3436	910.16	4.4
323.15	0.4525	0.2407	926.25	4
323.15	0.4933	0.5067	880.42	5.13
323.15	0.5302	0	968.52	2.96
323.15	0.5395	0.369	908.15	4.45
323.15	0.54	0.277	923.9	4.06
323.15	0.5756	0.1968	940.48	3.65
323.15	0.5761	0.0985	955.3	3.28
323.15	0.5935	0.4065	900.9	4.63
323.15	0.6278	0	974.24	2.82
323.15	0.6663	0.2734	931.15	3.88
323.15	0.6669	0.1824	947.21	3.48
323.15	0.6674	0.0913	960.22	3.16
323.15	0.6866	0.3134	921.84	4.11
323.15	0.7182	0	981.34	2.64
323.15	0.7571	0.1523	941.25	3.63
323.15	0.7575	0.0914	967.97	2.98
323.15	0.7731	0.2269	943.38	3.58
323.15	0.7749	0	985.13	2.55
323.15	0.8364	0.088	972.53	2.86
323.15	0.8551	0	993.17	2.35
323.15	0.8795	0.1205	971.57	2.88
323.15	0.9081	0	997.95	2.23
323.15	0.9538	0	1002.4	2.24
333.15	0	0.1009	916.93	4.23
333.15	0	0.2017	905.29	4.52
333.15	0	0.3022	887.96	4.95
333.15	0	0.4025	876.93	5.22
333.15	0	0.5026	864.04	5.54
333.15	0	0.6025	849.87	5.89
333.15	0	0.7022	837.74	6.19
333.15	0	0.8016	823.68	6.53
333.15	0	0.9009	810.66	6.86
333.15	0.1143	0.8082	824.26	6.52
333.15	0.127	0.4256	879.69	5.15
333.15	0.1282	0.3215	891.12	4.87
333.15	0.1322	0.2109	915.63	4.26
333.15	0.1338	0.5186	865.1	5.51
333.15	0.14	0.6385	847.84	5.94
333.15	0.1445	0.7576	831.93	6.33
333.15	0.1835	0.8165	821.17	6.6
333.15	0.2496	0.6488	850.18	5.88
333.15	0.2499	0.5469	863.21	5.56
333.15	0.2501	0.4448	878.85	5.17
333.15	0.2503	0.3425	892.97	4.82
333.15	0.2506	0.2399	908.13	4.45
333.15	0.2508	0.1372	919.59	4.17
333.15	0.2675	0.7325	833.54	6.29
333.15	0.3081	0.6023	857.32	5.7
333.15	0.3087	0.4223	874.63	5.28
333.15	0.309	0.3321	895.05	4.77
333.15	0.3092	0.2417	910.33	4.39
333.15	0.3094	0.1512	923.2	4.08
333.15	0.3094	0.5124	863.94	5.54
333.15	0.3099	0	945.84	3.52
333.15	0.385	0.615	856.26	5.73
333.15	0.4246	0	953.15	3.34
333.15	0.438	0.1332	932.68	3.84
333.15	0.4517	0.4463	880.41	5.13
333.15	0.4521	0.3436	900.77	4.63
333.15	0.4525	0.2407	916.95	4.23
333.15	0.4933	0.5067	869.91	5.39
333.15	0.5302	0	958.78	3.2
333.15	0.5395	0.369	899.36	4.67
333.15	0.54	0.277	916.53	4.24
333.15	0.5756	0.1968	930.66	3.89
333.15	0.5761	0.0985	946.8	3.49
333.15	0.5935	0.4065	890.93	4.87
333.15	0.6278	0	964.37	3.06
333.15	0.6663	0.2734	921.41	4.12
333.15	0.6669	0.1824	937.78	3.72
333.15	0.6674	0.0913	950.55	3.4
333.15	0.6866	0.3134	911.92	4.36
333.15	0.7182	0	971.52	2.88
333.15	0.7571	0.1523	931.54	3.88
333.15	0.7575	0.0914	957.69	3.23
333.15	0.7731	0.2269	933.31	3.83
333.15	0.7749	0	974.75	2.81
333.15	0.8364	0.088	962.37	3.11
333.15	0.8551	0	983.43	2.59
333.15	0.8795	0.1205	958.09	3.22
333.15	0.9081	0	986.57	2.51
333.15	0.9538	0	991.84	2.38
343.15	0	0.1009	909.05	4.43
343.15	0	0.2017	895.76	4.76
343.15	0	0.3022	880	5.15
343.15	0	0.4025	867.83	5.45
343.15	0	0.5026	854.24	5.78
343.15	0	0.6025	842.51	6.07
343.15	0	0.7022	829.06	6.4
343.15	0	0.8016	813.99	6.78
343.15	0	0.9009	803.44	7.04
343.15	0.1143	0.8082	816.72	6.71
343.15	0.127	0.4256	870.61	5.38
343.15	0.1282	0.3215	882.53	5.08
343.15	0.1322	0.2109	906.96	4.48
343.15	0.1338	0.5186	856.87	5.72
343.15	0.14	0.6385	841.04	6.11
343.15	0.1445	0.7576	823.85	6.53
343.15	0.1835	0.8165	815.14	6.75
343.15	0.2496	0.6488	842.56	6.07
343.15	0.2499	0.5469	854.62	5.77
343.15	0.2501	0.4448	869.74	5.4
343.15	0.2503	0.3425	884.77	5.03
343.15	0.2506	0.2399	900.68	4.64
343.15	0.2508	0.1372	910.66	4.39
343.15	0.2675	0.7325	824.52	6.52
343.15	0.3081	0.6023	848.54	5.92
343.15	0.3087	0.4223	866.08	5.49
343.15	0.309	0.3321	886.64	4.98
343.15	0.3092	0.2417	901.22	4.62
343.15	0.3094	0.1512	914.54	4.29
343.15	0.3094	0.5124	855.16	5.76
343.15	0.3099	0	936.89	3.74
343.15	0.385	0.615	843.77	6.04
343.15	0.4246	0	944.04	3.57
343.15	0.438	0.1332	924.11	4.06
343.15	0.4517	0.4463	874.98	5.27
343.15	0.4521	0.3436	891.55	4.86
343.15	0.4525	0.2407	906.7	4.49
343.15	0.4933	0.5067	862.93	5.57
343.15	0.5302	0	948.37	3.46
343.15	0.5395	0.369	891.34	4.87
343.15	0.54	0.277	905.1	4.53
343.15	0.5756	0.1968	920.91	4.14
343.15	0.5761	0.0985	936.93	3.74
343.15	0.5935	0.4065	881.04	5.12
343.15	0.6278	0	954.22	3.31
343.15	0.6663	0.2734	911.87	4.36
343.15	0.6669	0.1824	928.42	3.95
343.15	0.6674	0.0913	939.37	3.68
343.15	0.6866	0.3134	905.05	4.53
343.15	0.7182	0	962.15	3.12
343.15	0.7571	0.1523	920.08	4.16
343.15	0.7575	0.0914	946.73	3.5
343.15	0.7731	0.2269	923.91	4.06
343.15	0.7749	0	964.44	3.06
343.15	0.8364	0.088	952.19	3.37
343.15	0.8551	0	971.97	2.88
343.15	0.8795	0.1205	947.05	3.49
343.15	0.9081	0	977.83	2.73
343.15	0.9538	0	980.14	2.68
