Measured thermophysical data. Solubilities of 2,4,8,10-Tetraoxa-3,9-diphosphaspiro[5.5]undecane-3,9-dimethanol, r,r,rcents,rcents-tetramethyl-3,9-dioxide in Selected Solvents
Source: J. Chem. Eng. Data, 2007, 10.1021/je700050r
Compound 1: acetic acid, C2H4O2, InChI=1S/C2H4O2/c1-2(3)4/h1H3,(H,3,4), purity 99%
Compound 2: acetone, C3H6O, InChI=1S/C3H6O/c1-3(2)4/h1-2H3, purity 99.5%
Compound 3: ethanol, C2H6O, InChI=1S/C2H6O/c1-2-3/h3H,2H2,1H3, purity 99.7%
Compound 4: methanol, CH4O, InChI=1S/CH4O/c1-2/h2H,1H3, purity 99.5%
Compound 5: 2,4,8,10-tetraoxa-3,9-diphosphaspiro[5.5]undecane-3,9-dimethanol,alpha,alpha,alpha',alpha'-tetramethyl-3,9-dioxide, C11H22O8P2, InChI=1S/C11H22O8P2/c1-9(2,12)20(14)16-5-11(6-17-20)7-18-21(15,19-8-11)10(3,4)13/h12-13H,5-8H2,1-4H3
Compound 6: water, H2O, InChI=1S/H2O/h1H2

System: 2,4,8,10-tetraoxa-3,9-diphosphaspiro[5.5]undecane-3,9-dimethanol,alpha,alpha,alpha',alpha'-tetramethyl-3,9-dioxide; phases: Crystal, Liquid, Air at 1 atmosphere
Property: Normal melting temperature, K (Crystal); method: DTA
Normal melting temperature, K	uncertainty
485	1.4

System: water + 2,4,8,10-tetraoxa-3,9-diphosphaspiro[5.5]undecane-3,9-dimethanol,alpha,alpha,alpha',alpha'-tetramethyl-3,9-dioxide; phases: Liquid, Crystal
Fixed: Pressure, kPa = 101
Property: Mole fraction of 2,4,8,10-tetraoxa-3,9-diphosphaspiro[5.5]undecane-3,9-dimethanol,alpha,alpha,alpha',alpha'-tetramethyl-3,9-dioxide (Liquid); method: Gravimetric Method
Temperature, K	Mole fraction of 2,4,8,10-tetraoxa-3,9-diphosphaspiro[5.5]undecane-3,9-dimethanol,alpha,alpha,alpha',alpha'-tetramethyl-3,9-dioxide	uncertainty
293.13	0.005639	0.000322
298.01	0.005852	0.000334
303.15	0.00607	0.000347
308.16	0.006312	0.000361
313.05	0.006583	0.000376
317.89	0.006916	0.000395
323.05	0.007226	0.000413
328.13	0.007536	0.000431
332.95	0.007933	0.000454
337.94	0.008256	0.000472
342.86	0.00867	0.000496

System: methanol + 2,4,8,10-tetraoxa-3,9-diphosphaspiro[5.5]undecane-3,9-dimethanol,alpha,alpha,alpha',alpha'-tetramethyl-3,9-dioxide; phases: Liquid, Crystal
Fixed: Pressure, kPa = 101
Property: Mole fraction of 2,4,8,10-tetraoxa-3,9-diphosphaspiro[5.5]undecane-3,9-dimethanol,alpha,alpha,alpha',alpha'-tetramethyl-3,9-dioxide (Liquid); method: Gravimetric Method
Temperature, K	Mole fraction of 2,4,8,10-tetraoxa-3,9-diphosphaspiro[5.5]undecane-3,9-dimethanol,alpha,alpha,alpha',alpha'-tetramethyl-3,9-dioxide	uncertainty
293.13	0.005852	0.00027
298.15	0.006646	0.000307
302.94	0.007514	0.000347
307.75	0.008746	0.000404
312.76	0.009982	0.000462
317.95	0.01171	0.00054
323.05	0.01356	0.00063

System: ethanol + 2,4,8,10-tetraoxa-3,9-diphosphaspiro[5.5]undecane-3,9-dimethanol,alpha,alpha,alpha',alpha'-tetramethyl-3,9-dioxide; phases: Liquid, Crystal
Fixed: Pressure, kPa = 101
Property: Mole fraction of 2,4,8,10-tetraoxa-3,9-diphosphaspiro[5.5]undecane-3,9-dimethanol,alpha,alpha,alpha',alpha'-tetramethyl-3,9-dioxide (Liquid); method: Gravimetric Method
Temperature, K	Mole fraction of 2,4,8,10-tetraoxa-3,9-diphosphaspiro[5.5]undecane-3,9-dimethanol,alpha,alpha,alpha',alpha'-tetramethyl-3,9-dioxide	uncertainty
294.15	0.001525	6.6e-05
297.63	0.001842	8e-05
303.05	0.00231	0.0001
307.95	0.002686	0.000116
313.15	0.003462	0.00015
318.16	0.003905	0.000169
322.95	0.004759	0.000206
327.84	0.005824	0.000252
332.93	0.006662	0.000288
337.94	0.008462	0.000366

System: acetic acid + acetone + 2,4,8,10-tetraoxa-3,9-diphosphaspiro[5.5]undecane-3,9-dimethanol,alpha,alpha,alpha',alpha'-tetramethyl-3,9-dioxide; phases: Liquid, Crystal
Fixed: Pressure, kPa = 101
Property: Mole fraction of 2,4,8,10-tetraoxa-3,9-diphosphaspiro[5.5]undecane-3,9-dimethanol,alpha,alpha,alpha',alpha'-tetramethyl-3,9-dioxide (Liquid); method: Gravimetric Method
Solvent: Mass fraction of acetic acid	Temperature, K	Mole fraction of 2,4,8,10-tetraoxa-3,9-diphosphaspiro[5.5]undecane-3,9-dimethanol,alpha,alpha,alpha',alpha'-tetramethyl-3,9-dioxide	uncertainty
0	293.6	0.000582	2.4e-05
0	298.44	0.000762	3.1e-05
0	303.35	0.00095	3.9e-05
0	308.29	0.001244	5.1e-05
0	313.27	0.001587	6.5e-05
0	318.4	0.001936	7.9e-05
0	323.3	0.002344	9.6e-05
0.2051	293.16	0.001789	7.3e-05
0.2051	298.24	0.002059	8.4e-05
0.2051	303.17	0.002418	9.9e-05
0.2051	308.05	0.00284	0.000116
0.2051	312.95	0.003247	0.000132
0.2051	317.95	0.003758	0.000153
0.2051	323.04	0.00434	0.000177
0.2051	328.05	0.005168	0.000211
0.3986	293.14	0.004451	0.000183
0.3986	298.33	0.005152	0.00021
0.3986	303.16	0.005771	0.000235
0.3986	308.05	0.006566	0.000268
0.3986	313.04	0.007514	0.000306
0.3986	318.03	0.008444	0.000344
0.3986	323.22	0.009383	0.000383
0.3986	328.05	0.01088	0.000443
0.6013	293.38	0.005302	0.000216
0.6013	298.31	0.006106	0.000249
0.6013	303.25	0.007021	0.000286
0.6013	308.15	0.007851	0.00032
0.6013	313.15	0.008966	0.000366
0.6013	317.75	0.01007	0.000411
0.6013	322.85	0.0113	0.000461
0.6013	328.07	0.01331	0.000543
0.7981	293.2	0.005946	0.000242
0.7981	298.15	0.006821	0.000278
0.7981	303.14	0.007775	0.000317
0.7981	308.05	0.008767	0.000358
0.7981	312.97	0.00996	0.000406
0.7981	317.95	0.01097	0.000447
0.7981	323.04	0.01257	0.000513
0.7981	328.16	0.01465	0.000599
1	293.16	0.006914	0.000282
1	298.15	0.007803	0.000318
1	303.14	0.009072	0.00037
1	307.96	0.01044	0.000426
1	312.97	0.01144	0.000467
1	318.05	0.01314	0.000536
1	323.15	0.01501	0.000613
1	328.05	0.01732	0.000707
1	333.04	0.01957	0.0008
1	338.14	0.02305	0.000943
