Measured thermophysical data. Vapor Liquid Equilibrium of N-Formylmorpholine with Toluene and Xylene at 101.33 kPa
Source: J. Chem. Eng. Data, 2008, 10.1021/je7005665
Compound 1: N-formylmorpholine, C5H9NO2, InChI=1S/C5H9NO2/c7-5-6-1-3-8-4-2-6/h5H,1-4H2
Compound 2: toluene, C7H8, InChI=1S/C7H8/c1-7-5-3-2-4-6-7/h2-6H,1H3
Compound 3: benzene, C6H6, InChI=1S/C6H6/c1-2-4-6-5-3-1/h1-6H
Compound 4: 1,2-dimethylbenzene, C8H10, InChI=1S/C8H10/c1-7-5-3-4-6-8(7)2/h3-6H,1-2H3
Compound 5: 1,4-dimethylbenzene, C8H10, InChI=1S/C8H10/c1-7-3-5-8(2)6-4-7/h3-6H,1-2H3
Compound 6: 1,3-dimethylbenzene, C8H10, InChI=1S/C8H10/c1-7-4-3-5-8(2)6-7/h3-6H,1-2H3

System: benzene + toluene; phases: Liquid, Gas
Fixed: Pressure, kPa = 101.3
Property: Boiling temperature at pressure P, K (Liquid); method: EBULLIO:UFactor:4
Mole fraction of benzene	Boiling temperature at pressure P, K	uncertainty
0.0374	382.25	0.38
0.0703	380.85	0.38
0.1061	379.35	0.38
0.1347	378.15	0.38
0.185	376.18	0.38
0.2047	375.45	0.38
0.229	374.55	0.38
0.2935	372.2	0.38
0.3763	369.41	0.38
0.3841	369.16	0.38
0.4553	366.95	0.38
0.5432	364.35	0.37
0.6391	361.75	0.37
0.731	359.45	0.37
0.8149	357.45	0.37
0.9148	355.25	0.37

System: benzene + toluene; phases: Gas, Liquid
Fixed: Pressure, kPa = 101.3
Property: Mole fraction of benzene (Gas); method: Chromatography
Mole fraction of benzene	Mole fraction of benzene	uncertainty
0.0374	0.0821	0.0046
0.0703	0.149	0.0046
0.1061	0.2167	0.0046
0.1347	0.2678	0.0045
0.185	0.3495	0.0049
0.2047	0.3795	0.0049
0.229	0.4148	0.005
0.2935	0.5007	0.0056
0.3763	0.5959	0.0048
0.3841	0.6042	0.0048
0.4553	0.6739	0.0042
0.5432	0.7486	0.0036
0.6391	0.8181	0.0031
0.731	0.8749	0.0027
0.8149	0.9197	0.0024
0.9148	0.9658	0.0022

System: toluene + N-formylmorpholine; phases: Liquid, Gas
Fixed: Pressure, kPa = 101.3
Property: Boiling temperature at pressure P, K (Liquid); method: EBULLIO:UFactor:4
Mole fraction of toluene	Boiling temperature at pressure P, K	uncertainty
0.358	399.65	0.38
0.4071	397.06	0.38
0.4281	395.95	0.38
0.4732	394.75	0.38
0.5074	393.22	0.38
0.5553	391.9	0.37
0.5903	391.05	0.37
0.6448	389.46	0.37
0.7098	388.34	0.37
0.7882	386.9	0.37

System: toluene + N-formylmorpholine; phases: Gas, Liquid
Fixed: Pressure, kPa = 101.3
Property: Mole fraction of toluene (Gas); method: Chromatography
Mole fraction of toluene	Mole fraction of toluene	uncertainty
0.358	0.9668	0.0021
0.4071	0.9733	0.002
0.4281	0.9757	0.002
0.4732	0.9797	0.002
0.5074	0.9819	0.002
0.5553	0.9839	0.002
0.5903	0.9857	0.002
0.6448	0.9873	0.002
0.7098	0.9892	0.002
0.7882	0.9909	0.002

System: 1,2-dimethylbenzene + N-formylmorpholine; phases: Liquid, Gas
Fixed: Pressure, kPa = 101.3
Property: Boiling temperature at pressure P, K (Liquid); method: EBULLIO:UFactor:4
Mole fraction of 1,2-dimethylbenzene	Boiling temperature at pressure P, K	uncertainty
0.5109	435.4	0.4
0.5428	433.15	0.39
0.585	431.05	0.38
0.632	429.35	0.38
0.6712	427.55	0.38
0.69	426.8	0.38
0.7374	424.65	0.38
0.7644	423.6	0.38
0.8203	421.45	0.38
0.9291	417.95	0.38

System: 1,2-dimethylbenzene + N-formylmorpholine; phases: Gas, Liquid
Fixed: Pressure, kPa = 101.3
Property: Mole fraction of 1,2-dimethylbenzene (Gas); method: Chromatography
Mole fraction of 1,2-dimethylbenzene	Mole fraction of 1,2-dimethylbenzene	uncertainty
0.5109	0.9148	0.0051
0.5428	0.9196	0.0051
0.585	0.9306	0.0051
0.632	0.9411	0.0051
0.6712	0.9471	0.005
0.69	0.9491	0.005
0.7374	0.9549	0.005
0.7644	0.9601	0.005
0.8203	0.9705	0.005
0.9291	0.9866	0.005

System: 1,4-dimethylbenzene + N-formylmorpholine; phases: Liquid, Gas
Fixed: Pressure, kPa = 101.3
Property: Boiling temperature at pressure P, K (Liquid); method: EBULLIO:UFactor:4
Mole fraction of 1,4-dimethylbenzene	Boiling temperature at pressure P, K	uncertainty
0.5231	429.5	0.39
0.5602	427.35	0.39
0.5911	425.85	0.38
0.6663	421.85	0.38
0.7441	419.05	0.38
0.7984	417.45	0.37
0.8406	416.05	0.37
0.9361	413.25	0.37

System: 1,4-dimethylbenzene + N-formylmorpholine; phases: Gas, Liquid
Fixed: Pressure, kPa = 101.3
Property: Mole fraction of 1,4-dimethylbenzene (Gas); method: Chromatography
Mole fraction of 1,4-dimethylbenzene	Mole fraction of 1,4-dimethylbenzene	uncertainty
0.5231	0.9367	0.0051
0.5602	0.945	0.005
0.5911	0.9513	0.005
0.6663	0.9624	0.005
0.7441	0.9677	0.005
0.7984	0.9749	0.005
0.8406	0.9799	0.005
0.9361	0.988	0.005

System: 1,3-dimethylbenzene + N-formylmorpholine; phases: Liquid, Gas
Fixed: Pressure, kPa = 101.3
Property: Boiling temperature at pressure P, K (Liquid); method: EBULLIO:UFactor:4
Mole fraction of 1,3-dimethylbenzene	Boiling temperature at pressure P, K	uncertainty
0.4303	436.2	0.4
0.4805	432.62	0.4
0.5336	428.75	0.4
0.5788	425.75	0.39
0.6407	422.35	0.38
0.7062	419.75	0.38
0.7766	417.26	0.38
0.8062	416.05	0.37
0.8811	414.25	0.37

System: 1,3-dimethylbenzene + N-formylmorpholine; phases: Gas, Liquid
Fixed: Pressure, kPa = 101.3
Property: Mole fraction of 1,3-dimethylbenzene (Gas); method: Chromatography
Mole fraction of 1,3-dimethylbenzene	Mole fraction of 1,3-dimethylbenzene	uncertainty
0.4303	0.9248	0.0051
0.4805	0.9377	0.0051
0.5336	0.9434	0.005
0.5788	0.9494	0.005
0.6407	0.9553	0.005
0.7062	0.963	0.005
0.7766	0.9705	0.005
0.8062	0.9722	0.005
0.8811	0.9824	0.005

System: benzene + toluene + N-formylmorpholine; phases: Liquid, Gas
Fixed: Pressure, kPa = 101.3
Property: Mole fraction of toluene (Liquid); method: Chromatography
Property: Mole fraction of toluene (Gas); method: Chromatography
Property: Mole fraction of benzene (Gas); method: Chromatography
Temperature, K	Mole fraction of benzene	Mole fraction of toluene	uncertainty	Mole fraction of toluene	uncertainty	Mole fraction of benzene	uncertainty
364.55	0.5517	0.4483	0.0038	0.2985	0.0033	0.7015	
369.35	0.5032	0.4096	0.0036	0.3206	0.0035	0.6794	
370.55	0.4714	0.3752	0.0034	0.3263	0.0035	0.6737	
372.2	0.4419	0.3617	0.0033	0.3094	0.0034	0.6906	
375.6	0.3911	0.3204	0.003	0.335	0.0036	0.665	
375.73	0.3954	0.3333	0.0031	0.3192	0.0034	0.6806	
379.46	0.3259	0.2878	0.0029	0.3337	0.0036	0.666	
381.75	0.3331	0.2711	0.0028	0.3477	0.0037	0.6507	
383.8	0.3022	0.2678	0.0028	0.3532	0.0037	0.5715	
384.25	0.2909	0.1968	0.0024	0.3104	0.0034	0.6633	
390.15	0.239	0.2086	0.0025	0.3725	0.0039	0.6161	
392.85	0.2352	0.2219	0.0025	0.3842	0.004	0.606	
402	0.1502	0.2228	0.0026	0.4873	0.0049	0.4957	
404.83	0.1596	0.1446	0.0022	0.389	0.004	0.5915	
404.9	0.1297	0.1424	0.0022	0.4178	0.0043	0.5618	
411.2	0.0843	0.1886	0.0024	0.5356	0.0048	0.4234	
418.75	0.1015	0.0745	0.0021	0.3388	0.0036	0.5847	
421.45	0.094	0.0918	0.0021	0.395	0.0041	0.5395	
430.45	0.0781	0.0918	0.0021	0.4207	0.0043	0.505	
440.65	0.0584	0.0633	0.0021	0.3835	0.004	0.4761	
