Measured thermophysical data. Vapor Pressures of 1-Methyl-2-pyrrolidone, 1-Methyl-azepan-2-one, and 1,2-Epoxy-3-chloropropane
Source: J. Chem. Eng. Data, 2007, 10.1021/je700398k
Compound 1: N-methylpyrrolidone, C5H9NO, InChI=1S/C5H9NO/c1-6-4-2-3-5(6)7/h2-4H2,1H3
Compound 2: 1-methylazacycloheptan-2-one, C7H13NO, InChI=1S/C7H13NO/c1-8-6-4-2-3-5-7(8)9/h2-6H2,1H3
Compound 3: 1-chloro-2,3-epoxypropane, C3H5ClO, InChI=1S/C3H5ClO/c4-1-3-2-5-3/h3H,1-2H2

System: N-methylpyrrolidone; phases: Liquid, Gas
Property: Vapor or sublimation pressure, kPa (Liquid); method: EBULLIO:UFactor:2
Temperature, K	Vapor or sublimation pressure, kPa	uncertainty
380.73	4.742	0.02
383.12	5.24	0.02
386.38	5.98	0.02
387.92	6.361	0.02
389.88	6.862	0.02
393.04	7.775	0.021
400.46	10.287	0.021
403.85	11.625	0.021
406.68	12.871	0.021
408.96	13.962	0.022
411.42	15.218	0.022
413.77	16.5	0.022
416.81	18.277	0.022
420.94	20.973	0.023
424.65	23.65	0.023
427.56	25.964	0.024
432.29	30.076	0.025
435.85	33.54	0.025
439.12	36.99	0.026
441.74	39.963	0.027
444.04	42.732	0.027
446.64	46.025	0.028
451.08	52.176	0.029
457.46	62.11	0.033
475.72	99.402	0.037

System: 1-methylazacycloheptan-2-one; phases: Liquid, Gas
Property: Vapor or sublimation pressure, kPa (Liquid); method: EBULLIO:UFactor:2
Temperature, K	Vapor or sublimation pressure, kPa	uncertainty
402.95	4.019	0.02
405.13	4.39	0.02
411.63	5.651	0.02
415.53	6.531	0.02
420.7	7.906	0.021
424.29	8.986	0.021
428.38	10.376	0.021
430.35	11.119	0.021
434.66	12.838	0.021
436.35	13.596	0.021
443.09	16.887	0.022
450.68	21.388	0.023
458.3	26.82	0.024
462.79	30.499	0.024
468.95	36.269	0.026
479.21	47.694	0.03
510.6	101.397	0.036

System: 1-chloro-2,3-epoxypropane; phases: Liquid, Gas
Property: Vapor or sublimation pressure, kPa (Liquid); method: EBULLIO:UFactor:2
Temperature, K	Vapor or sublimation pressure, kPa	uncertainty
315.67	5.916	0.02
316.53	6.183	0.02
318.81	6.915	0.02
321.9	8.015	0.021
324.03	8.859	0.021
327.03	10.175	0.021
330.21	11.745	0.021
334.22	14.006	0.022
334.77	14.324	0.022
337.79	16.305	0.022
339.71	17.663	0.023
343.98	21.048	0.023
345.99	22.818	0.024
347.15	23.904	0.024
350.87	27.615	0.025
352.3	29.158	0.025
354.46	31.661	0.026
357.56	35.494	0.027
359.92	38.699	0.028
363.28	43.68	0.029
367.42	50.425	0.031
371.36	57.634	0.032
375.06	65.197	0.037
388.29	98.816	0.04
