Measured thermophysical data. Solubilities of 2-Methyl-1,4-naphthoquinone in Water + (Methanol, Ethanol, 1-Propanol, 2-Propanol, 1,2-Propanediol, and Glycerin, Respectively) from (293.15 to 337.92) K
Source: J. Chem. Eng. Data, 2007, 10.1021/je7002989
Compound 1: 2-methyl-1,4-naphthalenedione, C11H8O2, InChI=1S/C11H8O2/c1-7-6-10(12)8-4-2-3-5-9(8)11(7)13/h2-6H,1H3
Compound 2: methanol, CH4O, InChI=1S/CH4O/c1-2/h2H,1H3, purity 99.5%
Compound 3: ethanol, C2H6O, InChI=1S/C2H6O/c1-2-3/h3H,2H2,1H3, purity 99.7%
Compound 4: propan-1-ol, C3H8O, InChI=1S/C3H8O/c1-2-3-4/h4H,2-3H2,1H3, purity 99.5%
Compound 5: propan-2-ol, C3H8O, InChI=1S/C3H8O/c1-3(2)4/h3-4H,1-2H3, purity 99.7%
Compound 6: 1,2-propanediol, C3H8O2, InChI=1S/C3H8O2/c1-3(5)2-4/h3-5H,2H2,1H3, purity 99%
Compound 7: glycerol, C3H8O3, InChI=1S/C3H8O3/c4-1-3(6)2-5/h3-6H,1-2H2, purity 99%
Compound 8: water, H2O, InChI=1S/H2O/h1H2

System: 2-methyl-1,4-naphthalenedione + methanol + water; phases: Liquid, Crystal
Fixed: Pressure, kPa = 101
Fixed: Solvent: Mass fraction of methanol = 0.6
Property: Mole fraction of 2-methyl-1,4-naphthalenedione (Liquid); method:  UV spectrophotometry
Temperature, K	Mole fraction of 2-methyl-1,4-naphthalenedione	uncertainty
299.51	0.0008721	4.12e-05
305.28	0.001207	5.7e-05
309.3	0.001453	6.9e-05
312.44	0.00174	8.2e-05
316.94	0.002184	0.000103
320.76	0.002722	0.000129
324.81	0.003395	0.00016
328.45	0.00419	0.000198
332.24	0.005146	0.000243
336.5	0.00655	0.00031

System: 2-methyl-1,4-naphthalenedione + ethanol + water; phases: Liquid, Crystal
Fixed: Pressure, kPa = 101
Fixed: Solvent: Mass fraction of ethanol = 0.6
Property: Mole fraction of 2-methyl-1,4-naphthalenedione (Liquid); method:  UV spectrophotometry
Temperature, K	Mole fraction of 2-methyl-1,4-naphthalenedione	uncertainty
293.15	0.0009017	4.27e-05
298.34	0.001294	6.1e-05
303.15	0.001747	8.3e-05
306.15	0.002143	0.000101
308.01	0.002344	0.000111
313.15	0.003376	0.00016
318.8	0.004747	0.000224
323.25	0.006477	0.000306
328.37	0.009068	0.000429
333.24	0.01249	0.00059

System: 2-methyl-1,4-naphthalenedione + propan-1-ol + water; phases: Liquid, Crystal
Fixed: Pressure, kPa = 101
Fixed: Solvent: Mass fraction of propan-1-ol = 0.6
Property: Mole fraction of 2-methyl-1,4-naphthalenedione (Liquid); method:  UV spectrophotometry
Temperature, K	Mole fraction of 2-methyl-1,4-naphthalenedione	uncertainty
295.76	0.003064	0.000145
300.07	0.003914	0.000185
303.83	0.0049	0.000232
308.64	0.006265	0.000296
312.67	0.00787	0.000372
316.34	0.009825	0.000464
319.73	0.01199	0.00057
323.89	0.01548	0.00073
327.75	0.01921	0.00091
331.44	0.02308	0.00109

System: 2-methyl-1,4-naphthalenedione + propan-2-ol + water; phases: Liquid, Crystal
Fixed: Pressure, kPa = 101
Fixed: Solvent: Mass fraction of propan-2-ol = 0.6
Property: Mole fraction of 2-methyl-1,4-naphthalenedione (Liquid); method:  UV spectrophotometry
Temperature, K	Mole fraction of 2-methyl-1,4-naphthalenedione	uncertainty
296.73	0.002743	0.00013
300.85	0.003435	0.000162
304.66	0.004206	0.000199
308.24	0.005136	0.000243
312.03	0.006381	0.000302
316.44	0.008078	0.000382
320.13	0.01011	0.00048
324.24	0.0126	0.0006
327.65	0.01543	0.00073
331.4	0.01912	0.0009

System: 1,2-propanediol + 2-methyl-1,4-naphthalenedione + water; phases: Liquid, Crystal
Fixed: Pressure, kPa = 101
Fixed: Solvent: Mass fraction of 1,2-propanediol = 0.6
Property: Mole fraction of 2-methyl-1,4-naphthalenedione (Liquid); method:  UV spectrophotometry
Temperature, K	Mole fraction of 2-methyl-1,4-naphthalenedione	uncertainty
296.24	0.0002735	1.29e-05
301.83	0.0003649	1.72e-05
307.16	0.0004709	2.23e-05
311.19	0.0005869	2.77e-05
315.08	0.0007397	3.5e-05
319.01	0.0009493	4.49e-05
323.31	0.001206	5.7e-05
328.75	0.001675	7.9e-05
332.89	0.00216	0.000102
337.11	0.00272	0.000129

System: glycerol + 2-methyl-1,4-naphthalenedione + water; phases: Liquid, Crystal
Fixed: Pressure, kPa = 101
Fixed: Solvent: Mass fraction of glycerol = 0.6
Property: Mole fraction of 2-methyl-1,4-naphthalenedione (Liquid); method:  UV spectrophotometry
Temperature, K	Mole fraction of 2-methyl-1,4-naphthalenedione	uncertainty
297.24	1.398e-05	6.6e-07
304.09	2.515e-05	1.19e-06
309.45	3.893e-05	1.84e-06
314.04	5.594e-05	2.65e-06
318.05	7.524e-05	3.56e-06
322.05	0.0001006	4.8e-06
326.44	0.0001367	6.5e-06
330.03	0.0001728	8.2e-06
334.02	0.000221	1.05e-05
337.92	0.0002915	1.38e-05
