Measured thermophysical data. Salt Effect on the Enthalpy of Mixing of 1,4-Dioxane + Formic Acid at 303.15 K
Source: J. Chem. Eng. Data, 2008, 10.1021/je7007022
Compound 1: 1,4-dioxane, C4H8O2, InChI=1S/C4H8O2/c1-2-6-4-3-5-1/h1-4H2
Compound 2: formic acid, CH2O2, InChI=1S/CH2O2/c2-1-3/h1H,(H,2,3)
Compound 3: sodium chloride, ClNa, InChI=1S/ClH.Na/h1H;/q;+1/p-1
Compound 4: calcium chloride, CaCl2, InChI=1S/Ca.2ClH/h;2*1H/q+2;;/p-2
Compound 5: zinc chloride, Cl2Zn, InChI=1S/2ClH.Zn/h2*1H;/q;;+2/p-2
Compound 6: cadmium chloride, CdCl2, InChI=1S/Cd.2ClH/h;2*1H/q+2;;/p-2
Compound 7: ammonium chloride (NH4Cl), ClH4N, InChI=1S/ClH.H3N/h1H;1H3

System: formic acid + 1,4-dioxane; phases: Liquid
Fixed: Temperature, K = 303.15
Fixed: Pressure, kPa = 101
Property: Excess molar enthalpy (molar enthalpy of mixing), kJ/mol (Liquid); method: Flow calorimetry
Mole fraction of 1,4-dioxane	Excess molar enthalpy (molar enthalpy of mixing), kJ/mol	uncertainty
0.056	-0.211	0.009
0.114	-0.4015	0.0165
0.225	-0.8134	0.0332
0.301	-1.152	0.047
0.383	-1.466	0.06
0.472	-1.677	0.068
0.58	-1.747	0.071
0.705	-1.48	0.06
0.762	-1.148	0.047
0.836	-0.762	0.031
0.917	-0.24	0.01

System: formic acid + 1,4-dioxane + sodium chloride; phases: Liquid
Fixed: Temperature, K = 303.15
Fixed: Pressure, kPa = 101
Property: Excess molar enthalpy (molar enthalpy of mixing), kJ/mol (Liquid); method: Flow calorimetry
Mole fraction of 1,4-dioxane	Mole fraction of sodium chloride	Excess molar enthalpy (molar enthalpy of mixing), kJ/mol	uncertainty
0.056	0	-0.211	0.009
0.059	0.0354	-0.235	0.0097
0.114	0	-0.4015	0.0165
0.115	0.029	-0.4462	0.0183
0.225	0	-0.8134	0.0332
0.225	0.0211	-0.8989	0.0366
0.301	0	-1.152	0.047
0.304	0.016	-1.2751	0.0519
0.381	0.0118	-1.6229	0.0661
0.383	0	-1.466	0.06
0.47	0.00813	-1.8494	0.0753
0.472	0	-1.677	0.068
0.58	0	-1.747	0.071
0.586	0.00508	-1.9295	0.0785
0.701	0.00264	-1.5983	0.0651
0.705	0	-1.48	0.06
0.762	0	-1.148	0.047
0.769	0.00153	-1.2779	0.052
0.831	0.000715	-0.8386	0.0342
0.836	0	-0.762	0.031
0.917	0	-0.24	0.01
0.918	0.000165	-0.2675	0.011

System: formic acid + 1,4-dioxane + calcium chloride; phases: Liquid
Fixed: Temperature, K = 303.15
Fixed: Pressure, kPa = 101
Property: Excess molar enthalpy (molar enthalpy of mixing), kJ/mol (Liquid); method: Flow calorimetry
Mole fraction of 1,4-dioxane	Mole fraction of calcium chloride	Excess molar enthalpy (molar enthalpy of mixing), kJ/mol	uncertainty
0.051	0.06952	-0.2976	0.0122
0.057	0.0355	-0.2162	0.0089
0.117	0.0289	-0.5137	0.021
0.117	0.05632	-0.555	0.023
0.221	0.0212	-1.0659	0.0434
0.221	0.0418	-0.9915	0.0404
0.305	0.0315	-1.342	0.055
0.309	0.016	-1.6118	0.0656
0.38	0.0117	-2.0482	0.0833
0.382	0.02341	-1.707	0.069
0.471	0.01631	-2.052	0.083
0.472	0.00813	-2.3851	0.097
0.581	0.00508	-2.4321	0.0989
0.582	0.0101	-2.319	0.094
0.701	0.005412	-2.119	0.086
0.705	0.00263	-1.9656	0.08
0.76	0.00317	-1.803	0.073
0.769	0.00153	-1.4912	0.0607
0.832	0.000715	-0.9697	0.0395
0.835	0.00139	-1.194	0.049
0.918	0.000165	-0.3145	0.0129
0.919	0.0003304	-0.527	0.022

System: formic acid + 1,4-dioxane + zinc chloride; phases: Liquid
Fixed: Temperature, K = 303.15
Fixed: Pressure, kPa = 101
Property: Excess molar enthalpy (molar enthalpy of mixing), kJ/mol (Liquid); method: Flow calorimetry
Mole fraction of 1,4-dioxane	Mole fraction of zinc chloride	Excess molar enthalpy (molar enthalpy of mixing), kJ/mol	uncertainty
0.057	0.0354	-0.143	0.006
0.117	0.0572	-0.4125	0.0169
0.119	0.029	-0.3326	0.0137
0.225	0.0211	-0.696	0.028
0.226	0.042	-1.007	0.041
0.302	0.016	-0.978	0.04
0.302	0.0308	-1.372	0.056
0.382	0.0221	-1.667	0.068
0.386	0.0117	-1.269	0.052
0.475	0.0081	-1.475	0.06
0.476	0.0148	-1.763	0.072
0.585	0.00914	-1.546	0.063
0.589	0.00507	-1.495	0.061
0.703	0.00263	-1.248	0.051
0.704	0.0057	-1.138	0.046
0.772	0.00152	-0.974	0.04
0.773	0.00248	-0.843	0.034
0.831	0.000715	-0.663	0.027
0.832	0.00132	-0.59	0.024
0.916	0.000137	-0.276	0.011
0.918	0.000165	-0.266	0.011

System: formic acid + 1,4-dioxane + cadmium chloride; phases: Liquid
Fixed: Temperature, K = 303.15
Fixed: Pressure, kPa = 101
Property: Excess molar enthalpy (molar enthalpy of mixing), kJ/mol (Liquid); method: Flow calorimetry
Mole fraction of 1,4-dioxane	Mole fraction of cadmium chloride	Excess molar enthalpy (molar enthalpy of mixing), kJ/mol	uncertainty
0.055	0.0359	-0.206	0.009
0.112	0.029	-0.3359	0.0138
0.226	0.0209	-0.6398	0.0261
0.304	0.0155	-0.8965	0.0365
0.386	0.0112	-1.1569	0.0471
0.471	0.00772	-1.4459	0.0589
0.58	0.00453	-1.6216	0.066
0.701	0.00226	-1.2134	0.0494
0.765	0.00114	-0.8156	0.0333
0.837	0.000381	-0.3856	0.0158

System: formic acid + 1,4-dioxane + ammonium chloride (NH4Cl); phases: Liquid
Fixed: Temperature, K = 303.15
Fixed: Pressure, kPa = 101
Property: Excess molar enthalpy (molar enthalpy of mixing), kJ/mol (Liquid); method: Flow calorimetry
Mole fraction of 1,4-dioxane	Mole fraction of ammonium chloride (NH4Cl)	Excess molar enthalpy (molar enthalpy of mixing), kJ/mol	uncertainty
0.057	0.03512	-0.1639	0.0068
0.119	0.0278	-0.3566	0.0146
0.225	0.0209	-0.6735	0.0275
0.304	0.01322	-0.8761	0.0357
0.385	0.01022	-0.9706	0.0396
0.45	0.00792	-0.9656	0.0394
0.579	0.004326	-0.8524	0.0348
0.703	0.00223	-0.6008	0.0245
0.769	0.001014	-0.4115	0.0169
0.835	0.0003914	-0.2305	0.0095
