Measured thermophysical data. Solubilities of Stearic Acid in Organic Solvents and in Azeotropic Solvent Mixtures
Source: J. Chem. Eng. Data, 2008, 10.1021/je7006567
Compound 1: octadecanoic acid, C18H36O2, InChI=1S/C18H36O2/c1-2-3-4-5-6-7-8-9-10-11-12-13-14-15-16-17-18(19)20/h2-17H2,1H3,(H,19,20), purity 97.9%
Compound 2: acetone, C3H6O, InChI=1S/C3H6O/c1-3(2)4/h1-2H3
Compound 3: ethanol, C2H6O, InChI=1S/C2H6O/c1-2-3/h3H,2H2,1H3
Compound 4: heptane, C7H16, InChI=1S/C7H16/c1-3-5-7-6-4-2/h3-7H2,1-2H3
Compound 5: hexane, C6H14, InChI=1S/C6H14/c1-3-5-6-4-2/h3-6H2,1-2H3
Compound 6: propan-2-ol, C3H8O, InChI=1S/C3H8O/c1-3(2)4/h3-4H,1-2H3
Compound 7: trichloroethene, C2HCl3, InChI=1S/C2HCl3/c3-1-2(4)5/h1H

System: octadecanoic acid + acetone; phases: Liquid, Crystal
Fixed: Pressure, kPa = 101
Property: Solid-liquid equilibrium temperature, K (Liquid); method: VISOBS
Mole fraction of octadecanoic acid	Solid-liquid equilibrium temperature, K	uncertainty
0.0042	291.95	2.17
0.0055	294.75	1.73
0.0077	298.05	1.35
0.0103	301.15	0.92
0.0152	304.85	0.69
0.0204	307.65	0.45
0.0313	311.05	0.35
0.0456	313.95	0.3
0.0638	316.45	0.28
0.0845	319.05	0.26
0.1059	320.35	0.25
0.126	321.55	0.25
0.1475	322.55	0.25

System: octadecanoic acid + ethanol; phases: Liquid, Crystal
Fixed: Pressure, kPa = 101
Property: Solid-liquid equilibrium temperature, K (Liquid); method: VISOBS
Mole fraction of octadecanoic acid	Solid-liquid equilibrium temperature, K	uncertainty
0.0025	291.45	2.64
0.0031	294.95	1.9
0.0057	299.85	1.36
0.0103	304.85	0.8
0.018	309.45	0.48
0.028	312.35	0.34
0.0406	314.75	0.3
0.0498	316.25	0.28
0.056	316.85	0.26
0.0731	318.55	0.26
0.0926	319.95	0.25
0.1241	321.95	0.25
0.1546	323.65	0.25

System: octadecanoic acid + heptane; phases: Liquid, Crystal
Fixed: Pressure, kPa = 101
Property: Solid-liquid equilibrium temperature, K (Liquid); method: VISOBS
Mole fraction of octadecanoic acid	Solid-liquid equilibrium temperature, K	uncertainty
0.0023	293.45	1.32
0.0053	297.35	1.11
0.0089	300.65	0.69
0.0163	304.65	0.55
0.0227	307.35	0.35
0.0366	309.85	0.31
0.0562	313.45	0.29
0.0661	314.55	0.27
0.0779	315.85	0.26
0.1005	317.55	0.25
0.1279	319.35	0.25
0.1786	322.05	0.25
0.2401	324.85	0.25

System: octadecanoic acid + hexane; phases: Liquid, Crystal
Fixed: Pressure, kPa = 101
Property: Solid-liquid equilibrium temperature, K (Liquid); method: VISOBS
Mole fraction of octadecanoic acid	Solid-liquid equilibrium temperature, K	uncertainty
0.0034	293.75	1.12
0.0045	294.95	1.24
0.0073	298.45	1.01
0.0103	300.65	0.62
0.0161	303.55	0.41
0.0295	307.25	0.33
0.046	310.05	0.29
0.071	313.45	0.28
0.0856	315.05	0.26
0.1076	316.75	0.25
0.1423	319.05	0.25
0.1873	321.55	0.25
0.2397	323.55	0.25

System: octadecanoic acid + propan-2-ol; phases: Liquid, Crystal
Fixed: Pressure, kPa = 101
Property: Solid-liquid equilibrium temperature, K (Liquid); method: VISOBS
Mole fraction of octadecanoic acid	Solid-liquid equilibrium temperature, K	uncertainty
0.0099	292.35	1.38
0.0124	295.75	1.01
0.0172	299.65	0.64
0.0231	302.15	0.45
0.0282	303.75	0.37
0.0452	308.35	0.33
0.0625	311.25	0.28
0.0814	313.35	0.27
0.1027	315.45	0.26
0.1223	317.15	0.26
0.1435	318.75	0.25
0.1789	321.05	0.25
0.2101	321.95	0.25

System: octadecanoic acid + trichloroethene; phases: Liquid, Crystal
Fixed: Pressure, kPa = 101
Property: Solid-liquid equilibrium temperature, K (Liquid); method: VISOBS
Mole fraction of octadecanoic acid	Solid-liquid equilibrium temperature, K	uncertainty
0.023	292.75	0.44
0.0299	295.25	0.35
0.0437	298.05	0.32
0.0603	301.65	0.29
0.0908	305.55	0.27
0.1178	308.55	0.27
0.1367	310.65	0.26
0.1644	313.25	0.26
0.1854	314.85	0.26
0.2122	317.05	0.26
0.2643	321.05	0.26
0.2985	323.25	0.25

System: octadecanoic acid + ethanol + heptane; phases: Liquid, Crystal
Fixed: Pressure, kPa = 101
Fixed: Solvent: Mole fraction of ethanol = 0.618
Property: Mole fraction of octadecanoic acid (Liquid); method: visual observation
Temperature, K	Mole fraction of octadecanoic acid	uncertainty
292.35	0.0273	0.0013
295.45	0.0347	0.0014
298.95	0.0485	0.0016
303.05	0.0659	0.0018
306.35	0.0853	0.0021
311.25	0.1178	0.0024
314.65	0.1459	0.003
316.75	0.1678	0.0036
318.85	0.1947	0.0041
320.05	0.2101	0.0042
321.35	0.2261	0.0052
322.45	0.25	0.0065

System: octadecanoic acid + ethanol + hexane; phases: Liquid, Crystal
Fixed: Pressure, kPa = 101
Fixed: Solvent: Mole fraction of hexane = 0.659
Property: Mole fraction of octadecanoic acid (Liquid); method: visual observation
Temperature, K	Mole fraction of octadecanoic acid	uncertainty
295.05	0.0369	0.0015
299.45	0.0539	0.0016
302.95	0.0696	0.0017
305.05	0.0797	0.002
308.15	0.1016	0.0024
311.65	0.1302	0.0027
314.35	0.1576	0.0031
316.55	0.1805	0.0034
318.95	0.2094	0.0041
319.85	0.2275	0.0047
321.55	0.2521	0.005
323.85	0.2938	0.0057

System: octadecanoic acid + ethanol + trichloroethene; phases: Liquid, Crystal
Fixed: Pressure, kPa = 101
Fixed: Solvent: Mole fraction of ethanol = 0.5259
Property: Mole fraction of octadecanoic acid (Liquid); method: visual observation
Temperature, K	Mole fraction of octadecanoic acid	uncertainty
293.45	0.0424	0.0014
296.65	0.0519	0.0015
301.05	0.0717	0.0018
306.65	0.1021	0.002
309.95	0.1236	0.0023
311.25	0.1357	0.0027
313.05	0.1521	0.0028
316.15	0.1809	0.0031
318.05	0.2052	0.0038
320.05	0.2329	0.0039
322.05	0.2575	0.0041
323.55	0.2795	0.0045

System: octadecanoic acid + acetone + heptane; phases: Liquid, Crystal
Fixed: Pressure, kPa = 101
Fixed: Solvent: Mole fraction of acetone = 0.9
Property: Mole fraction of octadecanoic acid (Liquid); method: visual observation
Temperature, K	Mole fraction of octadecanoic acid	uncertainty
293.15	0.0083	0.0012
298.15	0.0145	0.0012
300.75	0.02	0.0013
305.05	0.0289	0.0013
306.65	0.0351	0.0016
311.45	0.0571	0.0018
313.45	0.0715	0.0025
315.55	0.0925	0.0028
317.85	0.115	0.0033
319.75	0.1436	0.0043
320.75	0.1631	0.0047
322.45	0.1913	0.0047

System: octadecanoic acid + propan-2-ol + heptane; phases: Liquid, Crystal
Fixed: Solvent: Mole fraction of heptane = 0.545
Fixed: Pressure, kPa = 101
Property: Mole fraction of octadecanoic acid (Liquid); method: visual observation
Temperature, K	Mole fraction of octadecanoic acid	uncertainty
291.75	0.0306	0.0015
294.55	0.039	0.0014
297.55	0.0487	0.0015
300.35	0.0606	0.0023
303.25	0.0753	0.0018
306.15	0.0905	0.002
307.95	0.1039	0.0024
311.55	0.1329	0.0026
314.85	0.163	0.0031
318.55	0.2074	0.0038
321.85	0.2522	0.0045
323.35	0.2811	0.0055

System: octadecanoic acid + acetone + hexane; phases: Liquid, Crystal
Fixed: Solvent: Mole fraction of acetone = 0.63
Fixed: Pressure, kPa = 101
Property: Mole fraction of octadecanoic acid (Liquid); method: visual observation
Temperature, K	Mole fraction of octadecanoic acid	uncertainty
289.15	0.0107	0.0013
293.25	0.018	0.0013
298.25	0.0267	0.0013
302.15	0.038	0.0015
307.65	0.0584	0.0017
309.95	0.074	0.0022
312.25	0.0919	0.0027
316.35	0.1353	0.0034
318.75	0.1732	0.0043
319.75	0.1887	0.0044
322.05	0.2247	0.0051
323.05	0.2504	0.0069

System: octadecanoic acid + propan-2-ol + hexane; phases: Liquid, Crystal
Fixed: Solvent: Mole fraction of hexane = 0.8429
Fixed: Pressure, kPa = 101
Property: Mole fraction of octadecanoic acid (Liquid); method: visual observation
Temperature, K	Mole fraction of octadecanoic acid	uncertainty
293.25	0.0346	0.0014
295.05	0.04	0.0015
299.35	0.0568	0.0016
302.35	0.0694	0.0016
305.65	0.0827	0.0018
308.95	0.1043	0.0022
310.85	0.1192	0.0026
312.95	0.1392	0.0031
315.35	0.1692	0.0035
317.95	0.2019	0.004
320.25	0.2379	0.0046
322.75	0.2784	0.0049

System: octadecanoic acid + propan-2-ol + trichloroethene; phases: Liquid, Crystal
Fixed: Solvent: Mole fraction of propan-2-ol = 0.4837
Fixed: Pressure, kPa = 101
Property: Mole fraction of octadecanoic acid (Liquid); method: visual observation
Temperature, K	Mole fraction of octadecanoic acid	uncertainty
293.65	0.061	0.0015
295.85	0.0686	0.0016
300.25	0.0891	0.0018
304.35	0.1114	0.002
308.05	0.1376	0.0023
310.55	0.1555	0.0025
312.75	0.1743	0.0028
315.25	0.1991	0.0032
318.25	0.2346	0.0037
320.45	0.2651	0.0043
322.35	0.2959	0.0048
