Measured thermophysical data. Solubility of Chlorpheniramine Maleate in Ethanol, 1-Propanol, 1-Butanol, Benzene, Ethyl Acetate, Ethyl Formate, and Butyl Acetate between 283 K and 333 K
Source: J. Chem. Eng. Data, 2007, 10.1021/je7001682
Compound 1: chlorpheniramine maleate, C20H23ClN2O4, InChI=1S/C16H19ClN2.C4H4O4/c1-19(2)12-10-15(16-5-3-4-11-18-16)13-6-8-14(17)9-7-13;5-3(6)1-2-4(7)8/h3-9,11,15H,10,12H2,1-2H3;1-2H,(H,5,6)(H,7,8)/b;2-1-, purity 99.5%
Compound 2: ethanol, C2H6O, InChI=1S/C2H6O/c1-2-3/h3H,2H2,1H3
Compound 3: propan-1-ol, C3H8O, InChI=1S/C3H8O/c1-2-3-4/h4H,2-3H2,1H3
Compound 4: butan-1-ol, C4H10O, InChI=1S/C4H10O/c1-2-3-4-5/h5H,2-4H2,1H3
Compound 5: ethyl methanoate, C3H6O2, InChI=1S/C3H6O2/c1-2-5-3-4/h3H,2H2,1H3
Compound 6: ethyl acetate, C4H8O2, InChI=1S/C4H8O2/c1-3-6-4(2)5/h3H2,1-2H3
Compound 7: butyl ethanoate, C6H12O2, InChI=1S/C6H12O2/c1-3-4-5-8-6(2)7/h3-5H2,1-2H3
Compound 8: benzene, C6H6, InChI=1S/C6H6/c1-2-4-6-5-3-1/h1-6H

System: ethanol + chlorpheniramine maleate; phases: Liquid, Crystal
Fixed: Pressure, kPa = 101
Property: Mole fraction of chlorpheniramine maleate (Liquid); method: laser technique
Temperature, K	Mole fraction of chlorpheniramine maleate	uncertainty
282.65	0.0026158	0.0001148
289.15	0.0037752	0.0001657
294.05	0.0050769	0.0002229
298.15	0.0065584	0.000288
303.45	0.0091899	0.0004037
308.44	0.012868	0.000566
312.93	0.017794	0.000783
318.33	0.02619	0.001154
323.2	0.037668	0.001663
327.85	0.05318	0.002355
331.07	0.067313	0.002989

System: propan-1-ol + chlorpheniramine maleate; phases: Liquid, Crystal
Fixed: Pressure, kPa = 101
Property: Mole fraction of chlorpheniramine maleate (Liquid); method: laser technique
Temperature, K	Mole fraction of chlorpheniramine maleate	uncertainty
283	0.0016064	6.8e-05
288.27	0.0022839	9.67e-05
293	0.0031438	0.0001331
298.15	0.0043572	0.0001845
303.15	0.00612	0.0002591
308.06	0.008687	0.0003679
313.04	0.012528	0.000531
317.97	0.018473	0.000783
323.15	0.027613	0.001172
328.53	0.042244	0.001796
332.96	0.060167	0.002564

System: butan-1-ol + chlorpheniramine maleate; phases: Liquid, Crystal
Fixed: Pressure, kPa = 101
Property: Mole fraction of chlorpheniramine maleate (Liquid); method: laser technique
Temperature, K	Mole fraction of chlorpheniramine maleate	uncertainty
282.73	0.0010586	4.4e-05
288.22	0.0017418	7.24e-05
293.45	0.0023672	9.83e-05
297.73	0.0031028	0.0001289
303.38	0.0044798	0.0001861
308.65	0.0063824	0.0002652
313.27	0.0091583	0.0003806
318.15	0.013226	0.00055
323.27	0.019205	0.000799
328.15	0.02798	0.001165
333.4	0.041183	0.001716

System: ethyl methanoate + chlorpheniramine maleate; phases: Liquid, Crystal
Fixed: Pressure, kPa = 101
Property: Mole fraction of chlorpheniramine maleate (Liquid); method: laser technique
Temperature, K	Mole fraction of chlorpheniramine maleate	uncertainty
282.9	0.0010428	4.33e-05
288.65	0.0015435	6.41e-05
293.65	0.0022614	9.39e-05
298.65	0.0030746	0.0001277
303.15	0.0040683	0.000169
308.1	0.0053387	0.0002218
313.15	0.0070663	0.0002937
318.15	0.0091291	0.0003794
323.1	0.011798	0.00049
328.1	0.014987	0.000623

System: ethyl acetate + chlorpheniramine maleate; phases: Liquid, Crystal
Fixed: Pressure, kPa = 101
Property: Mole fraction of chlorpheniramine maleate (Liquid); method: laser technique
Temperature, K	Mole fraction of chlorpheniramine maleate	uncertainty
282.86	0.0005947	3.61e-05
289.45	0.0008069	4.9e-05
293.65	0.0009306	5.65e-05
298.6	0.0011364	6.9e-05
302.25	0.0013634	8.28e-05
308.15	0.0017435	0.0001059
313.15	0.0021522	0.0001307
318.15	0.0027072	0.0001644
323.15	0.0034322	0.0002085
328.1	0.0042694	0.0002593
333.15	0.0054172	0.000329

System: butyl ethanoate + chlorpheniramine maleate; phases: Liquid, Crystal
Fixed: Pressure, kPa = 101
Property: Mole fraction of chlorpheniramine maleate (Liquid); method: laser technique
Temperature, K	Mole fraction of chlorpheniramine maleate	uncertainty
283.15	0.000165	1e-05
288.15	0.0002149	1.3e-05
294.95	0.0003681	2.22e-05
298.71	0.0004513	2.73e-05
303.31	0.0005493	3.32e-05
308.1	0.000644	3.89e-05
313.15	0.0008805	5.32e-05
318.15	0.0010234	6.18e-05
323.05	0.001317	7.96e-05
327.65	0.0015496	9.36e-05

System: benzene + chlorpheniramine maleate; phases: Liquid, Crystal
Fixed: Pressure, kPa = 101
Property: Mole fraction of chlorpheniramine maleate (Liquid); method: laser technique
Temperature, K	Mole fraction of chlorpheniramine maleate	uncertainty
283.05	7.67e-05	8.3e-06
288.05	0.0001228	1.04e-05
293.75	0.0001651	1.01e-05
298.78	0.0002011	1.23e-05
303.04	0.0002363	1.44e-05
308.25	0.0002882	1.76e-05
312.95	0.0003661	2.23e-05
318.27	0.0004557	2.78e-05
323.15	0.0006189	3.77e-05
327.53	0.0007808	4.76e-05
333.45	0.0011196	6.82e-05
