Measured thermophysical data. Vapor Liquid Equilibrium for Binary Systems of 2,3-Pentanedione with Diacetyl and Acetone
Source: J. Chem. Eng. Data, 2008, 10.1021/je7005924
Compound 1: acetone, C3H6O, InChI=1S/C3H6O/c1-3(2)4/h1-2H3, purity 99.5%
Compound 2: 2,3-butanedione, C4H6O2, InChI=1S/C4H6O2/c1-3(5)4(2)6/h1-2H3, purity 98.82%
Compound 3: 2,3-pentanedione, C5H8O2, InChI=1S/C5H8O2/c1-3-5(7)4(2)6/h3H2,1-2H3, purity 98.52%

System: acetone; phases: Liquid, Gas
Property: Vapor or sublimation pressure, kPa (Liquid); method: EBULLIO:UFactor:2
Temperature, K	Vapor or sublimation pressure, kPa	uncertainty
297.67	30.23	0.3
301.25	35.22	0.33
307.33	45.21	0.36
310.08	50.4	0.4
312.52	55.29	0.43
314.76	60.29	0.47
316.8	65.08	0.5
318.77	70.07	0.52

System: 2,3-butanedione; phases: Liquid, Gas
Property: Vapor or sublimation pressure, kPa (Liquid); method: EBULLIO:UFactor:2
Temperature, K	Vapor or sublimation pressure, kPa	uncertainty
314.3	19.06	0.19
320.55	24.04	0.2
325.62	29.03	0.24
329.85	33.91	0.27
333.64	39	0.3
336.76	43.59	0.33
339.99	48.97	0.35
342.8	53.85	0.38
345.41	58.83	0.43
347.62	63.83	0.46
349.9	68.81	0.48
351.89	73.793	0.512

System: 2,3-pentanedione; phases: Liquid, Gas
Property: Vapor or sublimation pressure, kPa (Liquid); method: EBULLIO:UFactor:2
Temperature, K	Vapor or sublimation pressure, kPa	uncertainty
331.84	15.37	0.18
338.38	20.36	0.2
343.73	25.35	0.23
348.13	30.35	0.26
352.15	35.34	0.28
355.74	40.33	0.31
358.85	45.32	0.34
361.89	50.21	0.35
364.69	55.21	0.4
367.09	60.2	0.43
369.44	65.19	0.45
371.61	70.18	0.47
373.8	75.27	0.48

System: acetone + 2,3-pentanedione; phases: Liquid, Gas
Fixed: Temperature, K = 323.15
Property: Vapor or sublimation pressure, kPa (Liquid); method: EBULLIO:UFactor:2
Mole fraction of acetone	Vapor or sublimation pressure, kPa	uncertainty
0	10.3	0.2
0.016	11.48	0.26
0.053	13.97	0.28
0.179	22.76	0.37
0.3	31.44	0.47
0.496	44.92	0.63
0.665	57.1	0.79
0.945	77.37	1.04
0.976	80.07	1.07
1	81.9	1.09

System: acetone + 2,3-pentanedione; phases: Gas, Liquid
Fixed: Temperature, K = 323.15
Property: Mole fraction of acetone (Gas); method: Chromatography
Mole fraction of acetone	Mole fraction of acetone	uncertainty
0	0	
0.016	0.108	0.012
0.053	0.322	0.007
0.179	0.614	0.005
0.3	0.768	0.003
0.496	0.88	0.003
0.665	0.944	0.002
0.945	0.993	0.002
0.976	0.997	0.002
1	1	

System: acetone + 2,3-pentanedione; phases: Gas, Liquid
Property: Boiling temperature at pressure P, K (Gas); method: EBULLIO:UFactor:2
Mole fraction of acetone	Pressure, kPa	Boiling temperature at pressure P, K	uncertainty
0	30	347.94	0.31
0	40	355.52	0.35
0.084	40	353.19	0.34
0.139	30	344.58	0.31
0.152	40	351.42	0.34
0.222	30	342.26	0.31
0.251	40	348.83	0.35
0.387	30	338.16	0.31
0.468	30	335.76	0.32
0.523	40	340.3	0.3
0.718	40	331.64	0.34
0.727	30	324.05	0.34
0.842	40	325.15	0.36
0.857	30	315.56	0.38
0.926	40	316.75	0.38
0.931	30	309.47	0.43
0.98	40	308.82	0.54
0.989	40	306.95	0.54
0.994	40	305.89	0.57
1	30	297.53	0.29
1	40	304.37	0.33

System: acetone + 2,3-pentanedione; phases: Liquid, Gas
Property: Mole fraction of acetone (Liquid); method: Chromatography
Mole fraction of acetone	Pressure, kPa	Mole fraction of acetone	uncertainty
0	30	0	0.1
0	40	0	0.1
0.084	40	0.017	0.002
0.139	30	0.028	0.002
0.152	40	0.034	0.002
0.222	30	0.048	0.002
0.251	40	0.057	0.002
0.387	30	0.089	0.002
0.468	30	0.123	0.003
0.523	40	0.153	0.003
0.718	40	0.275	0.003
0.727	30	0.281	0.003
0.842	40	0.396	0.004
0.857	30	0.425	0.005
0.926	40	0.576	0.007
0.931	30	0.577	0.009
0.98	40	0.825	0.017
0.989	40	0.899	0.017
0.994	40	0.943	0.019
1	30	1	0.001
1	40	1	0.001

System: 2,3-butanedione + 2,3-pentanedione; phases: Liquid, Gas
Fixed: Pressure, kPa = 40
Property: Boiling temperature at pressure P, K (Liquid); method: EBULLIO:UFactor:2
Mole fraction of 2,3-butanedione	Boiling temperature at pressure P, K	uncertainty
0	355.52	0.27
0.054	353.97	0.28
0.13	352.18	0.28
0.264	349.41	0.27
0.548	343.94	0.27
0.652	342.06	0.27
0.828	339.21	0.27
0.885	338.27	0.27
0.97	337.22	0.27
1	336.78	0.27

System: 2,3-butanedione + 2,3-pentanedione; phases: Gas, Liquid
Fixed: Pressure, kPa = 40
Property: Mole fraction of 2,3-butanedione (Gas); method: Chromatography
Mole fraction of 2,3-butanedione	Mole fraction of 2,3-butanedione	uncertainty
0	0	
0.054	0.1	0.004
0.13	0.223	0.004
0.264	0.407	0.005
0.548	0.695	0.004
0.652	0.783	0.003
0.828	0.897	0.003
0.885	0.933	0.002
0.97	0.984	0.002
1	1	

System: 2,3-butanedione + 2,3-pentanedione; phases: Liquid, Gas
Property: Vapor or sublimation pressure, kPa (Liquid); method: EBULLIO:UFactor:2
Mole fraction of 2,3-butanedione	Temperature, K	Vapor or sublimation pressure, kPa	uncertainty
0	333.15	16.3	0.27
0	343.15	24.8	0.34
0	353.15	36.6	0.43
0.033	333.15	16.57	0.27
0.034	353.15	37.13	0.44
0.035	343.15	25.25	0.34
0.068	343.15	25.95	0.35
0.071	353.15	38.53	0.46
0.072	333.15	17.17	0.28
0.132	343.15	27.65	0.37
0.132	353.15	40.63	0.48
0.133	333.15	18.36	0.29
0.273	343.15	31.44	0.41
0.276	333.15	21.16	0.32
0.276	353.15	45.62	0.52
0.413	343.15	35.04	0.45
0.418	333.15	23.66	0.35
0.418	353.15	50.91	0.57
0.534	343.15	38.33	0.48
0.538	333.15	25.75	0.38
0.546	353.15	55.8	0.62
0.643	343.15	41.13	0.51
0.647	333.15	27.65	0.4
0.648	353.15	59.3	0.65
0.737	333.15	29.55	0.41
0.916	343.15	48.32	0.62
0.916	353.15	69.18	0.75
0.939	343.15	49.02	0.61
0.94	353.15	70.48	0.76
1	333.15	34.76	0.48
1	343.15	51.2	0.61
1	353.15	73.2	0.78

System: 2,3-butanedione + 2,3-pentanedione; phases: Gas, Liquid
Property: Mole fraction of 2,3-butanedione (Gas); method: Chromatography
Mole fraction of 2,3-butanedione	Temperature, K	Mole fraction of 2,3-butanedione	uncertainty
0	333.15	0	
0	343.15	0	
0	353.15	0	
0.033	333.15	0.066	0.004
0.034	353.15	0.067	0.004
0.035	343.15	0.066	0.004
0.068	343.15	0.126	0.004
0.071	353.15	0.128	0.004
0.072	333.15	0.14	0.004
0.132	343.15	0.233	0.004
0.132	353.15	0.231	0.004
0.133	333.15	0.233	0.004
0.273	343.15	0.41	0.005
0.276	333.15	0.434	0.005
0.276	353.15	0.401	0.005
0.413	343.15	0.568	0.005
0.418	333.15	0.574	0.005
0.418	353.15	0.57	0.005
0.534	343.15	0.684	0.004
0.538	333.15	0.699	0.004
0.546	353.15	0.691	0.004
0.643	343.15	0.771	0.003
0.647	333.15	0.779	0.003
0.648	353.15	0.778	0.003
0.737	333.15	0.844	0.003
0.916	343.15	0.963	0.002
0.916	353.15	0.963	0.002
0.939	343.15	0.973	0.002
0.94	353.15	0.974	0.002
1	333.15	1	
1	343.15	1	
1	353.15	1	
