Measured thermophysical data. Liquid Liquid Equilibria of the Ternary Systems 3-Methyl-1-butanol + Ethanol + Water and 2-Methyl-1-propanol + Ethanol + Water at 293.15 K
Source: J. Chem. Eng. Data, 2008, 10.1021/je700558x
Compound 1: ethanol, C2H6O, InChI=1S/C2H6O/c1-2-3/h3H,2H2,1H3, purity 99.8%
Compound 2: 2-methyl-1-propanol, C4H10O, InChI=1S/C4H10O/c1-4(2)3-5/h4-5H,3H2,1-2H3, purity 99.9%
Compound 3: 3-methylbutan-1-ol, C5H12O, InChI=1S/C5H12O/c1-5(2)3-4-6/h5-6H,3-4H2,1-2H3, purity 99.7%
Compound 4: water, H2O, InChI=1S/H2O/h1H2

System: 3-methylbutan-1-ol + water; phases: Liquid mixture 1, Liquid mixture 2
Property: Mole fraction of 3-methylbutan-1-ol (Liquid mixture 1); method: Chromatography
Pressure, kPa	Temperature, K	Mole fraction of 3-methylbutan-1-ol	uncertainty
101	293.15	0.662	0.005

System: 3-methylbutan-1-ol + water; phases: Liquid mixture 2, Liquid mixture 1
Property: Mole fraction of 3-methylbutan-1-ol (Liquid mixture 2); method: Chromatography
Temperature, K	Pressure, kPa	Mole fraction of 3-methylbutan-1-ol	uncertainty
293.15	101	0.006	0.004

System: 2-methyl-1-propanol + water; phases: Liquid mixture 2, Liquid mixture 1
Property: Mole fraction of 2-methyl-1-propanol (Liquid mixture 2); method: Chromatography
Temperature, K	Pressure, kPa	Mole fraction of 2-methyl-1-propanol	uncertainty
293.15	101	0.022	0.004

System: 2-methyl-1-propanol + water; phases: Liquid mixture 1, Liquid mixture 2
Property: Mole fraction of 2-methyl-1-propanol (Liquid mixture 1); method: Chromatography
Pressure, kPa	Temperature, K	Mole fraction of 2-methyl-1-propanol	uncertainty
101	293.15	0.517	0.005

System: ethanol + 3-methylbutan-1-ol + water; phases: Liquid mixture 1, Liquid mixture 2
Fixed: Temperature, K = 293.15
Fixed: Pressure, kPa = 101
Property: Mole fraction of ethanol (Liquid mixture 1); method: Chromatography
Property: Mole fraction of 3-methylbutan-1-ol (Liquid mixture 2); method: Chromatography
Property: Mole fraction of ethanol (Liquid mixture 2); method: Chromatography
Mole fraction of 3-methylbutan-1-ol	Mole fraction of ethanol	uncertainty	Mole fraction of 3-methylbutan-1-ol	uncertainty	Mole fraction of ethanol	uncertainty
0.662	0	0.001	0.006	0.004	0	
0.606	0.038	0.014	0.006	0.004	0.014	
0.534	0.079	0.014	0.006	0.004	0.027	
0.477	0.121	0.014	0.006	0.004	0.04	
0.393	0.145	0.014	0.006	0.004	0.056	
0.339	0.175	0.014	0.007	0.005	0.071	
0.274	0.207	0.014	0.008	0.005	0.082	
0.199	0.215	0.014	0.015	0.006	0.105	

System: ethanol + 2-methyl-1-propanol + water; phases: Liquid mixture 1, Liquid mixture 2
Fixed: Temperature, K = 293.15
Fixed: Pressure, kPa = 101
Property: Mole fraction of ethanol (Liquid mixture 1); method: Chromatography
Property: Mole fraction of 2-methyl-1-propanol (Liquid mixture 2); method: Chromatography
Property: Mole fraction of ethanol (Liquid mixture 2); method: Chromatography
Mole fraction of 2-methyl-1-propanol	Mole fraction of ethanol	uncertainty	Mole fraction of 2-methyl-1-propanol	uncertainty	Mole fraction of ethanol	uncertainty
0.517	0	0.001	0.022	0.004	0	
0.455	0.027	0.014	0.027	0.004	0.011	
0.43	0.055	0.014	0.022	0.004	0.017	
0.369	0.076	0.014	0.027	0.004	0.025	
0.322	0.088	0.014	0.024	0.004	0.035	
0.249	0.112	0.014	0.033	0.004	0.046	
0.201	0.117	0.014	0.044	0.004	0.063	
