Measured thermophysical data. Liquid-Liquid Equilibria of Water + 2-Butanol + (Methyl Methacrylate or Butyl Methacrylate or Isobutyl Methacrylate) at (288.2 and 318.2) K
Source: J. Chem. Eng. Data, 2007, 10.1021/je7002572
Compound 1: butan-2-ol, C4H10O, InChI=1S/C4H10O/c1-3-4(2)5/h4-5H,3H2,1-2H3
Compound 2: methyl methacrylate, C5H8O2, InChI=1S/C5H8O2/c1-4(2)5(6)7-3/h1H2,2-3H3
Compound 3: butyl 2-methyl-2-propenoate, C8H14O2, InChI=1S/C8H14O2/c1-4-5-6-10-8(9)7(2)3/h2,4-6H2,1,3H3
Compound 4: isobutyl methacrylate, C8H14O2, InChI=1S/C8H14O2/c1-6(2)5-10-8(9)7(3)4/h6H,3,5H2,1-2,4H3
Compound 5: water, H2O, InChI=1S/H2O/h1H2
Compound 6: propan-2-ol, C3H8O, InChI=1S/C3H8O/c1-3(2)4/h3-4H,1-2H3
Compound 7: ethyl acetate, C4H8O2, InChI=1S/C4H8O2/c1-3-6-4(2)5/h3H2,1-2H3

System: butan-2-ol + water; phases: Liquid mixture 1, Liquid mixture 2
Fixed: Pressure, kPa = 101.3
Property: Mole fraction of water (Liquid mixture 1); method: Chromatography
Temperature, K	Mole fraction of water	uncertainty
288.2	0.706	0.01
318.2	0.675	0.01

System: butan-2-ol + water; phases: Liquid mixture 2, Liquid mixture 1
Fixed: Pressure, kPa = 101.3
Property: Mole fraction of water (Liquid mixture 2); method: Chromatography
Temperature, K	Mole fraction of water	uncertainty
288.2	0.941	0.01
318.2	0.958	0.01

System: ethyl acetate + water; phases: Liquid mixture 1, Liquid mixture 2
Fixed: Pressure, kPa = 101.3
Property: Mole fraction of water (Liquid mixture 1); method: Chromatography
Temperature, K	Mole fraction of water	uncertainty
283.2	0.112	0.01
323.2	0.189	0.01

System: ethyl acetate + water; phases: Liquid mixture 2, Liquid mixture 1
Fixed: Pressure, kPa = 101.3
Property: Mole fraction of water (Liquid mixture 2); method: Chromatography
Temperature, K	Mole fraction of water	uncertainty
283.2	0.981	0.01
323.2	0.978	0.01

System: methyl methacrylate + water; phases: Liquid mixture 1, Liquid mixture 2
Fixed: Pressure, kPa = 101.3
Property: Mole fraction of water (Liquid mixture 1); method: Chromatography
Temperature, K	Mole fraction of water	uncertainty
288.2	0.056	0.01
318.2	0.078	0.01

System: methyl methacrylate + water; phases: Liquid mixture 2, Liquid mixture 1
Fixed: Pressure, kPa = 101.3
Property: Mole fraction of water (Liquid mixture 2); method: Chromatography
Temperature, K	Mole fraction of water	uncertainty
288.2	0.997	0.003
318.2	0.997	0.003

System: butyl 2-methyl-2-propenoate + water; phases: Liquid mixture 2, Liquid mixture 1
Fixed: Pressure, kPa = 101
Property: Mole fraction of water (Liquid mixture 2); method: Chromatography
Temperature, K	Mole fraction of water	uncertainty
288.2	1	0.001
318.2	1	0.001

System: butyl 2-methyl-2-propenoate + water; phases: Liquid mixture 1, Liquid mixture 2
Fixed: Pressure, kPa = 101.3
Property: Mole fraction of water (Liquid mixture 1); method: Chromatography
Temperature, K	Mole fraction of water	uncertainty
288.2	0.051	0.01
318.2	0.064	0.01

System: isobutyl methacrylate + water; phases: Liquid mixture 2, Liquid mixture 1
Fixed: Pressure, kPa = 101
Property: Mole fraction of isobutyl methacrylate (Liquid mixture 2); method: Chromatography
Temperature, K	Mole fraction of isobutyl methacrylate	uncertainty
288.2	1	0.001
318.2	1	0.001

System: isobutyl methacrylate + water; phases: Liquid mixture 1, Liquid mixture 2
Fixed: Pressure, kPa = 101.3
Property: Mole fraction of water (Liquid mixture 1); method: Chromatography
Temperature, K	Mole fraction of water	uncertainty
288.2	0.048	0.01
318.2	0.074	0.01

System: propan-2-ol + ethyl acetate + water; phases: Liquid mixture 1, Liquid mixture 2
Fixed: Pressure, kPa = 101.3
Property: Mole fraction of propan-2-ol (Liquid mixture 1); method: Chromatography
Property: Mole fraction of propan-2-ol (Liquid mixture 2); method: Chromatography
Property: Mole fraction of water (Liquid mixture 2); method: Chromatography
Temperature, K	Mole fraction of water	Mole fraction of propan-2-ol	uncertainty	Mole fraction of propan-2-ol	uncertainty	Mole fraction of water	uncertainty
283.2	0.112	0	0.001	0	0.001	0.981	
283.2	0.124	0.032	0.013	0.009	0.009	0.972	
283.2	0.165	0.054	0.011	0.018	0.014	0.963	
283.2	0.203	0.076	0.012	0.027	0.013	0.953	
283.2	0.259	0.108	0.011	0.037	0.013	0.942	
283.2	0.344	0.139	0.012	0.046	0.013	0.931	
323.2	0.189	0	0.001	0	0.001	0.978	
323.2	0.202	0.018	0.015	0.007	0.007	0.977	
323.2	0.231	0.05	0.013	0.012	0.012	0.972	
323.2	0.266	0.076	0.012	0.019	0.013	0.964	
323.2	0.316	0.109	0.011	0.026	0.013	0.956	
323.2	0.384	0.138	0.01	0.037	0.013	0.943	
323.2	0.493	0.16	0.01	0.049	0.013	0.928	

System: butan-2-ol + methyl methacrylate + water; phases: Liquid mixture 1, Liquid mixture 2
Fixed: Pressure, kPa = 101.3
Property: Mole fraction of butan-2-ol (Liquid mixture 1); method: Chromatography
Property: Mole fraction of butan-2-ol (Liquid mixture 2); method: Chromatography
Property: Mole fraction of water (Liquid mixture 2); method: Chromatography
Temperature, K	Mole fraction of water	Mole fraction of butan-2-ol	uncertainty	Mole fraction of butan-2-ol	uncertainty	Mole fraction of water	uncertainty
288.2	0.056	0	0.001	0	0.001	0.997	
288.2	0.085	0.054	0.021	0.006	0.006	0.99	
288.2	0.11	0.099	0.018	0.01	0.01	0.986	
288.2	0.165	0.171	0.016	0.015	0.014	0.981	
288.2	0.211	0.22	0.014	0.018	0.015	0.978	
288.2	0.253	0.257	0.013	0.02	0.015	0.976	
288.2	0.307	0.293	0.012	0.022	0.015	0.974	
288.2	0.356	0.324	0.011	0.024	0.015	0.973	
288.2	0.416	0.347	0.011	0.028	0.015	0.97	
288.2	0.504	0.373	0.011	0.035	0.015	0.963	
288.2	0.706	0.294	0.011	0.059	0.015	0.941	
318.2	0.078	0	0.001	0	0.001	0.997	
318.2	0.109	0.057	0.02	0.003	0.003	0.993	
318.2	0.138	0.102	0.018	0.006	0.006	0.991	
318.2	0.189	0.173	0.016	0.009	0.009	0.988	
318.2	0.231	0.222	0.014	0.011	0.011	0.986	
318.2	0.272	0.257	0.013	0.012	0.012	0.985	
318.2	0.315	0.294	0.012	0.014	0.014	0.983	
318.2	0.364	0.322	0.012	0.016	0.015	0.981	
318.2	0.419	0.348	0.011	0.019	0.015	0.979	
318.2	0.507	0.373	0.01	0.025	0.015	0.974	
318.2	0.675	0.325	0.011	0.042	0.015	0.958	

System: butan-2-ol + butyl 2-methyl-2-propenoate + water; phases: Liquid mixture 1, Liquid mixture 2
Fixed: Pressure, kPa = 101.3
Property: Mole fraction of butan-2-ol (Liquid mixture 1); method: Chromatography
Property: Mole fraction of butan-2-ol (Liquid mixture 2); method: Chromatography
Property: Mole fraction of water (Liquid mixture 2); method: Chromatography
Temperature, K	Mole fraction of water	Mole fraction of butan-2-ol	uncertainty	Mole fraction of butan-2-ol	uncertainty	Mole fraction of water	uncertainty
288.2	0.051	0	0.001	0	0.001	1	
288.2	0.067	0.136	0.059	0.011	0.011	0.989	
288.2	0.086	0.207	0.029	0.016	0.014	0.984	
288.2	0.115	0.268	0.021	0.02	0.014	0.98	
288.2	0.154	0.33	0.017	0.023	0.014	0.977	
288.2	0.204	0.388	0.014	0.026	0.014	0.974	
288.2	0.247	0.421	0.012	0.028	0.014	0.972	
288.2	0.302	0.454	0.011	0.03	0.014	0.97	
288.2	0.364	0.469	0.011	0.033	0.014	0.967	
288.2	0.444	0.463	0.012	0.038	0.014	0.962	
288.2	0.706	0.294	0.012	0.059	0.014	0.941	
318.2	0.064	0	0.001	0	0.001	1	
318.2	0.082	0.13	0.054	0.006	0.006	0.994	
318.2	0.102	0.204	0.029	0.009	0.009	0.991	
318.2	0.132	0.267	0.021	0.012	0.012	0.988	
318.2	0.17	0.327	0.017	0.014	0.014	0.986	
318.2	0.219	0.384	0.015	0.017	0.014	0.983	
318.2	0.26	0.42	0.012	0.018	0.014	0.982	
318.2	0.321	0.453	0.011	0.02	0.014	0.98	
318.2	0.374	0.467	0.011	0.023	0.014	0.977	
318.2	0.455	0.456	0.012	0.027	0.014	0.973	
318.2	0.675	0.325	0.012	0.042	0.014	0.958	

System: butan-2-ol + isobutyl methacrylate + water; phases: Liquid mixture 1, Liquid mixture 2
Fixed: Pressure, kPa = 101.3
Property: Mole fraction of butan-2-ol (Liquid mixture 1); method: Chromatography
Property: Mole fraction of butan-2-ol (Liquid mixture 2); method: Chromatography
Property: Mole fraction of water (Liquid mixture 2); method: Chromatography
Temperature, K	Mole fraction of water	Mole fraction of butan-2-ol	uncertainty	Mole fraction of butan-2-ol	uncertainty	Mole fraction of water	uncertainty
288.2	0.048	0	0.001	0	0.001	1	
288.2	0.066	0.134	0.053	0.011	0.011	0.989	
288.2	0.087	0.206	0.029	0.016	0.014	0.984	
288.2	0.114	0.267	0.021	0.02	0.014	0.98	
288.2	0.155	0.329	0.016	0.023	0.014	0.977	
288.2	0.211	0.386	0.014	0.026	0.014	0.975	
288.2	0.25	0.423	0.012	0.028	0.014	0.972	
288.2	0.312	0.452	0.011	0.03	0.014	0.97	
288.2	0.37	0.467	0.011	0.032	0.014	0.968	
288.2	0.449	0.459	0.012	0.036	0.014	0.964	
288.2	0.706	0.294	0.012	0.059	0.014	0.941	
318.2	0.074	0	0.001	0	0.001	1	
318.2	0.083	0.129	0.036	0.006	0.006	0.994	
318.2	0.104	0.202	0.029	0.009	0.009	0.991	
318.2	0.131	0.262	0.019	0.011	0.011	0.989	
318.2	0.178	0.325	0.016	0.014	0.014	0.986	
318.2	0.228	0.382	0.015	0.016	0.014	0.984	
318.2	0.266	0.417	0.012	0.018	0.014	0.982	
318.2	0.328	0.451	0.011	0.02	0.014	0.98	
318.2	0.387	0.457	0.011	0.022	0.014	0.978	
318.2	0.457	0.454	0.012	0.027	0.014	0.973	
318.2	0.675	0.325	0.012	0.042	0.014	0.958	
