Measured thermophysical data. Solubility of the Single Gases Methane and Xenon in the Ionic Liquid [bmim][CH3SO4]
Source: J. Chem. Eng. Data, 2007, 10.1021/je700319x
Compound 1: methane, CH4, InChI=1S/CH4/h1H4, purity 99.99%
Compound 2: xenon, Xe, InChI=1S/Xe, purity 99.99%
Compound 3: 1-butyl-3-methylimidazolium methyl sulfate, C9H18N2O4S, InChI=1S/C8H15N2.CH4O4S/c1-3-4-5-10-7-6-9(2)8-10;1-5-6(2,3)4/h6-8H,3-5H2,1-2H3;1H3,(H,2,3,4)/q+1;/p-1, purity 98%

System: methane + 1-butyl-3-methylimidazolium methyl sulfate; phases: Liquid, Gas
Property: Molality, mol/kg (Liquid); method: visual detection of phase boundary
Temperature, K	Pressure, kPa	Molality, mol/kg	uncertainty
293.15	1363	0.038	0.00204
293.15	2528	0.06842	0.00197
293.15	4071	0.10276	0.00208
293.15	5579	0.13722	0.0021
293.15	7418	0.17192	0.00219
293.15	8510	0.19286	0.00231
333.15	1604	0.04009	0.00135
333.15	3208	0.07673	0.00148
333.15	4548	0.10435	0.00159
333.15	5996	0.13551	0.00174
333.15	7268	0.15999	0.00182
333.15	8853	0.18827	0.00213
373.15	1603	0.03682	0.00126
373.15	2625	0.05933	0.00137
373.15	3829	0.08444	0.00152
373.15	5210	0.1139	0.00167
373.15	6666	0.14312	0.0018
373.15	8206	0.17255	0.002
413.2	1645	0.03678	0.00126
413.2	3185	0.06986	0.00141
413.2	4795	0.10387	0.00162
413.2	6119	0.1311	0.00177
413.2	7435	0.15781	0.00191
413.2	8814	0.18418	0.00238

System: xenon + 1-butyl-3-methylimidazolium methyl sulfate; phases: Liquid, Gas
Property: Molality, mol/kg (Liquid); method: visual detection of phase boundary
Temperature, K	Pressure, kPa	Molality, mol/kg	uncertainty
293.1	1194	0.1553	0.0064
293.1	1840	0.2327	0.007
293.1	2525	0.3122	0.0076
293.1	3158	0.3855	0.0083
333.15	1417	0.1302	0.0045
333.15	2116	0.1904	0.0049
333.15	2939	0.2589	0.0056
333.15	4534	0.3829	0.0065
333.15	6298	0.501	0.0071
333.15	8030	0.5896	0.0077
333.15	9607	0.652	0.0076
373.2	1588	0.1168	0.004
373.2	3064	0.218	0.0049
373.2	4281	0.2952	0.0052
373.2	5947	0.395	0.0063
373.2	6983	0.4525	0.0063
373.2	8787	0.5383	0.0075
373.2	11295	0.6461	0.0089
413.15	1705	0.1044	0.0024
413.15	3191	0.1921	0.0043
413.15	4763	0.2798	0.005
413.15	6184	0.3555	0.0057
413.15	7708	0.4335	0.0064
413.15	9280	0.5039	0.0076
