Measured thermophysical data. Refractive Indices and Deviations in Refractive Indices for Binary Mixtures of Formamide + 1-Butanol, + 2-Butanol, + 1,3-Butanediol, and + 1,4-Butanediol at Temperatures from (293.15 to 318.15) K
Source: J. Chem. Eng. Data, 2008, 10.1021/je7007632
Compound 1: formamide, CH3NO, InChI=1S/CH3NO/c2-1-3/h1H,(H2,2,3)
Compound 2: butan-1-ol, C4H10O, InChI=1S/C4H10O/c1-2-3-4-5/h5H,2-4H2,1H3
Compound 3: butan-2-ol, C4H10O, InChI=1S/C4H10O/c1-3-4(2)5/h4-5H,3H2,1-2H3
Compound 4: 1,3-butanediol, C4H10O2, InChI=1S/C4H10O2/c1-4(6)2-3-5/h4-6H,2-3H2,1H3
Compound 5: 1,4-butanediol, C4H10O2, InChI=1S/C4H10O2/c5-3-1-2-4-6/h5-6H,1-4H2

System: formamide; phases: Liquid
Fixed: Pressure, kPa = 101.325
Property: Refractive index (Na D-line) (Liquid); method: Standard Abbe refractometry
Temperature, K	Refractive index (Na D-line)	uncertainty
293.15	1.4475	0.0004
298.15	1.4467	0.0004
303.15	1.4459	0.0004
308.15	1.4451	0.0004
313.15	1.4442	0.0004
318.15	1.4433	0.0004

System: butan-1-ol; phases: Liquid
Fixed: Pressure, kPa = 101.325
Property: Refractive index (Na D-line) (Liquid); method: Standard Abbe refractometry
Temperature, K	Refractive index (Na D-line)	uncertainty
293.15	1.3994	0.0004
298.15	1.3974	0.0004
303.15	1.3953	0.0004
308.15	1.3933	0.0004
313.15	1.3913	0.0004
318.15	1.3893	0.0004

System: butan-2-ol; phases: Liquid
Fixed: Pressure, kPa = 101.325
Property: Refractive index (Na D-line) (Liquid); method: Standard Abbe refractometry
Temperature, K	Refractive index (Na D-line)	uncertainty
293.15	1.3972	0.0004
298.15	1.3951	0.0004
303.15	1.3931	0.0004
308.15	1.3911	0.0004
313.15	1.3891	0.0004
318.15	1.3871	0.0004

System: 1,3-butanediol; phases: Liquid
Fixed: Pressure, kPa = 101.325
Property: Refractive index (Na D-line) (Liquid); method: Standard Abbe refractometry
Temperature, K	Refractive index (Na D-line)	uncertainty
293.15	1.4412	0.0004
298.15	1.4391	0.0004
303.15	1.437	0.0004
308.15	1.4349	0.0004
313.15	1.4329	0.0004
318.15	1.4308	0.0004

System: 1,4-butanediol; phases: Liquid
Fixed: Pressure, kPa = 101.325
Property: Refractive index (Na D-line) (Liquid); method: Standard Abbe refractometry
Temperature, K	Refractive index (Na D-line)	uncertainty
293.15	1.4451	0.0004
298.15	1.4431	0.0004
303.15	1.4411	0.0004
308.15	1.4391	0.0004
313.15	1.4372	0.0004
318.15	1.4352	0.0004

System: butan-1-ol + formamide; phases: Liquid
Fixed: Pressure, kPa = 101
Property: Refractive index (Na D-line) (Liquid); method: Standard Abbe refractometry
Temperature, K	Mole fraction of formamide	Refractive index (Na D-line)	uncertainty
293.15	0	1.3994	0.0004
293.15	0.1093	1.4023	0.0004
293.15	0.2057	1.4052	0.0004
293.15	0.3138	1.4086	0.0004
293.15	0.4104	1.4119	0.0004
293.15	0.5115	1.4158	0.0004
293.15	0.6124	1.4203	0.0004
293.15	0.7081	1.4252	0.0004
293.15	0.8123	1.4316	0.0004
293.15	0.9086	1.4389	0.0004
293.15	1	1.4475	0.0004
298.15	0	1.3974	0.0004
298.15	0.1093	1.4003	0.0004
298.15	0.2057	1.4032	0.0004
298.15	0.3138	1.4067	0.0004
298.15	0.4104	1.4101	0.0004
298.15	0.5115	1.4141	0.0004
298.15	0.6124	1.4187	0.0004
298.15	0.7081	1.4238	0.0004
298.15	0.8123	1.4303	0.0004
298.15	0.9086	1.4378	0.0004
298.15	1	1.4467	0.0004
303.15	0	1.3953	0.0004
303.15	0.1093	1.3983	0.0004
303.15	0.2057	1.4012	0.0004
303.15	0.3138	1.4048	0.0004
303.15	0.4104	1.4083	0.0004
303.15	0.5115	1.4124	0.0004
303.15	0.6124	1.4171	0.0004
303.15	0.7081	1.4223	0.0004
303.15	0.8123	1.429	0.0004
303.15	0.9086	1.4367	0.0004
303.15	1	1.4459	0.0004
308.15	0	1.3933	0.0004
308.15	0.1093	1.3963	0.0004
308.15	0.2057	1.3992	0.0004
308.15	0.3138	1.4029	0.0004
308.15	0.4104	1.4065	0.0004
308.15	0.5115	1.4107	0.0004
308.15	0.6124	1.4155	0.0004
308.15	0.7081	1.4208	0.0004
308.15	0.8123	1.4277	0.0004
308.15	0.9086	1.4357	0.0004
308.15	1	1.4451	0.0004
313.15	0	1.3913	0.0004
313.15	0.1093	1.3943	0.0004
313.15	0.2057	1.3973	0.0004
313.15	0.3138	1.4011	0.0004
313.15	0.4104	1.4047	0.0004
313.15	0.5115	1.409	0.0004
313.15	0.6124	1.4139	0.0004
313.15	0.7081	1.4194	0.0004
313.15	0.8123	1.4264	0.0004
313.15	0.9086	1.4345	0.0004
313.15	1	1.4442	0.0004
318.15	0	1.3893	0.0004
318.15	0.1093	1.3923	0.0004
318.15	0.2057	1.3954	0.0004
318.15	0.3138	1.3992	0.0004
318.15	0.4104	1.4029	0.0004
318.15	0.5115	1.4073	0.0004
318.15	0.6124	1.4123	0.0004
318.15	0.7081	1.4179	0.0004
318.15	0.8123	1.4251	0.0004
318.15	0.9086	1.4334	0.0004
318.15	1	1.4433	0.0004

System: formamide + butan-2-ol; phases: Liquid
Fixed: Pressure, kPa = 101
Property: Refractive index (Na D-line) (Liquid); method: Standard Abbe refractometry
Temperature, K	Mole fraction of formamide	Refractive index (Na D-line)	uncertainty
293.15	0	1.3972	0.0004
293.15	0.1043	1.3993	0.0004
293.15	0.2043	1.4017	0.0004
293.15	0.3056	1.4045	0.0004
293.15	0.4083	1.4079	0.0004
293.15	0.5093	1.4119	0.0004
293.15	0.6063	1.4165	0.0004
293.15	0.7068	1.4222	0.0004
293.15	0.8042	1.4289	0.0004
293.15	0.9024	1.4372	0.0004
293.15	1	1.4475	0.0004
298.15	0	1.3951	0.0004
298.15	0.1043	1.3973	0.0004
298.15	0.2043	1.3996	0.0004
298.15	0.3056	1.4025	0.0004
298.15	0.4083	1.4061	0.0004
298.15	0.5093	1.4102	0.0004
298.15	0.6063	1.4149	0.0004
298.15	0.7068	1.4207	0.0004
298.15	0.8042	1.4276	0.0004
298.15	0.9024	1.4361	0.0004
298.15	1	1.4467	0.0004
303.15	0	1.3931	0.0004
303.15	0.1043	1.3953	0.0004
303.15	0.2043	1.3977	0.0004
303.15	0.3056	1.4007	0.0004
303.15	0.4083	1.4043	0.0004
303.15	0.5093	1.4085	0.0004
303.15	0.6063	1.4133	0.0004
303.15	0.7068	1.4193	0.0004
303.15	0.8042	1.4263	0.0004
303.15	0.9024	1.435	0.0004
303.15	1	1.4459	0.0004
308.15	0	1.3911	0.0004
308.15	0.1043	1.3933	0.0004
308.15	0.2043	1.3958	0.0004
308.15	0.3056	1.3989	0.0004
308.15	0.4083	1.4026	0.0004
308.15	0.5093	1.4068	0.0004
308.15	0.6063	1.4118	0.0004
308.15	0.7068	1.4179	0.0004
308.15	0.8042	1.4251	0.0004
308.15	0.9024	1.434	0.0004
308.15	1	1.4451	0.0004
313.15	0	1.3891	0.0004
313.15	0.1043	1.3913	0.0004
313.15	0.2043	1.3939	0.0004
313.15	0.3056	1.397	0.0004
313.15	0.4083	1.4008	0.0004
313.15	0.5093	1.4051	0.0004
313.15	0.6063	1.4102	0.0004
313.15	0.7068	1.4164	0.0004
313.15	0.8042	1.4237	0.0004
313.15	0.9024	1.4328	0.0004
313.15	1	1.4442	0.0004
318.15	0	1.3871	0.0004
318.15	0.1043	1.3893	0.0004
318.15	0.2043	1.3919	0.0004
318.15	0.3056	1.3951	0.0004
318.15	0.4083	1.399	0.0004
318.15	0.5093	1.4034	0.0004
318.15	0.6063	1.4086	0.0004
318.15	0.7068	1.4149	0.0004
318.15	0.8042	1.4224	0.0004
318.15	0.9024	1.4317	0.0004
318.15	1	1.4433	0.0004

System: formamide + 1,3-butanediol; phases: Liquid
Fixed: Pressure, kPa = 101
Property: Refractive index (Na D-line) (Liquid); method: Standard Abbe refractometry
Temperature, K	Mole fraction of formamide	Refractive index (Na D-line)	uncertainty
293.15	0	1.4412	0.0004
293.15	0.1061	1.441	0.0004
293.15	0.2004	1.4409	0.0004
293.15	0.3068	1.4411	0.0004
293.15	0.4026	1.4414	0.0004
293.15	0.5033	1.4419	0.0004
293.15	0.6046	1.4425	0.0004
293.15	0.7013	1.4434	0.0004
293.15	0.8073	1.4445	0.0004
293.15	0.9058	1.4459	0.0004
293.15	1	1.4475	0.0004
298.15	0	1.4391	0.0004
298.15	0.1061	1.4389	0.0004
298.15	0.2004	1.4389	0.0004
298.15	0.3068	1.4391	0.0004
298.15	0.4026	1.4395	0.0004
298.15	0.5033	1.4401	0.0004
298.15	0.6046	1.4409	0.0004
298.15	0.7013	1.4419	0.0004
298.15	0.8073	1.4432	0.0004
298.15	0.9058	1.4448	0.0004
298.15	1	1.4467	0.0004
303.15	0	1.437	0.0004
303.15	0.1061	1.4368	0.0004
303.15	0.2004	1.4369	0.0004
303.15	0.3068	1.4372	0.0004
303.15	0.4026	1.4377	0.0004
303.15	0.5033	1.4384	0.0004
303.15	0.6046	1.4393	0.0004
303.15	0.7013	1.4404	0.0004
303.15	0.8073	1.4419	0.0004
303.15	0.9058	1.4437	0.0004
303.15	1	1.4459	0.0004
308.15	0	1.4349	0.0004
308.15	0.1061	1.4348	0.0004
308.15	0.2004	1.4349	0.0004
308.15	0.3068	1.4352	0.0004
308.15	0.4026	1.4358	0.0004
308.15	0.5033	1.4366	0.0004
308.15	0.6046	1.4377	0.0004
308.15	0.7013	1.4389	0.0004
308.15	0.8073	1.4406	0.0004
308.15	0.9058	1.4427	0.0004
308.15	1	1.4451	0.0004
313.15	0	1.4329	0.0004
313.15	0.1061	1.4328	0.0004
313.15	0.2004	1.4329	0.0004
313.15	0.3068	1.4333	0.0004
313.15	0.4026	1.434	0.0004
313.15	0.5033	1.4349	0.0004
313.15	0.6046	1.436	0.0004
313.15	0.7013	1.4374	0.0004
313.15	0.8073	1.4393	0.0004
313.15	0.9058	1.4415	0.0004
313.15	1	1.4442	0.0004
318.15	0	1.4308	0.0004
318.15	0.1061	1.4307	0.0004
318.15	0.2004	1.4309	0.0004
318.15	0.3068	1.4314	0.0004
318.15	0.4026	1.4321	0.0004
318.15	0.5033	1.4331	0.0004
318.15	0.6046	1.4344	0.0004
318.15	0.7013	1.4359	0.0004
318.15	0.8073	1.4379	0.0004
318.15	0.9058	1.4404	0.0004
318.15	1	1.4433	0.0004

System: formamide + 1,4-butanediol; phases: Liquid
Fixed: Pressure, kPa = 101
Property: Refractive index (Na D-line) (Liquid); method: Standard Abbe refractometry
Temperature, K	Mole fraction of formamide	Refractive index (Na D-line)	uncertainty
293.15	0	1.4451	0.0004
293.15	0.1052	1.4445	0.0004
293.15	0.1988	1.444	0.0004
293.15	0.3041	1.4437	0.0004
293.15	0.4002	1.4436	0.0004
293.15	0.5009	1.4437	0.0004
293.15	0.6022	1.444	0.0004
293.15	0.6992	1.4445	0.0004
293.15	0.8051	1.4452	0.0004
293.15	0.905	1.4463	0.0004
293.15	1	1.4475	0.0004
298.15	0	1.4431	0.0004
298.15	0.1052	1.4425	0.0004
298.15	0.1988	1.442	0.0004
298.15	0.3041	1.4418	0.0004
298.15	0.4002	1.4418	0.0004
298.15	0.5009	1.442	0.0004
298.15	0.6022	1.4424	0.0004
298.15	0.6992	1.4431	0.0004
298.15	0.8051	1.4439	0.0004
298.15	0.905	1.4452	0.0004
298.15	1	1.4467	0.0004
303.15	0	1.4411	0.0004
303.15	0.1052	1.4405	0.0004
303.15	0.1988	1.44	0.0004
303.15	0.3041	1.4399	0.0004
303.15	0.4002	1.44	0.0004
303.15	0.5009	1.4403	0.0004
303.15	0.6022	1.4408	0.0004
303.15	0.6992	1.4416	0.0004
303.15	0.8051	1.4426	0.0004
303.15	0.905	1.4441	0.0004
303.15	1	1.4459	0.0004
308.15	0	1.4391	0.0004
308.15	0.1052	1.4385	0.0004
308.15	0.1988	1.438	0.0004
308.15	0.3041	1.438	0.0004
308.15	0.4002	1.4382	0.0004
308.15	0.5009	1.4386	0.0004
308.15	0.6022	1.4392	0.0004
308.15	0.6992	1.4401	0.0004
308.15	0.8051	1.4413	0.0004
308.15	0.905	1.443	0.0004
308.15	1	1.4451	0.0004
313.15	0	1.4372	0.0004
313.15	0.1052	1.4365	0.0004
313.15	0.1988	1.4361	0.0004
313.15	0.3041	1.4361	0.0004
313.15	0.4002	1.4364	0.0004
313.15	0.5009	1.4369	0.0004
313.15	0.6022	1.4376	0.0004
313.15	0.6992	1.4386	0.0004
313.15	0.8051	1.44	0.0004
313.15	0.905	1.4419	0.0004
313.15	1	1.4442	0.0004
318.15	0	1.4352	0.0004
318.15	0.1052	1.4345	0.0004
318.15	0.1988	1.4341	0.0004
318.15	0.3041	1.4342	0.0004
318.15	0.4002	1.4345	0.0004
318.15	0.5009	1.4351	0.0004
318.15	0.6022	1.4359	0.0004
318.15	0.6992	1.437	0.0004
318.15	0.8051	1.4386	0.0004
318.15	0.905	1.4407	0.0004
318.15	1	1.4433	0.0004
