Measured thermophysical data. Solubility of r-Tocopheryl Succinate in Supercritical Carbon Dioxide Using Offline HPLC-MS/MS Analysis
Source: J. Chem. Eng. Data, 2007, 10.1021/je700095q
Compound 1: D-.alpha.-tocopheryl acid succinate, C33H54O5, InChI=1S/C33H54O5/c1-22(2)12-9-13-23(3)14-10-15-24(4)16-11-20-33(8)21-19-28-27(7)31(25(5)26(6)32(28)38-33)37-30(36)18-17-29(34)35/h22-24H,9-21H2,1-8H3,(H,34,35)/t23-,24-,33-/m1/s1
Compound 2: carbon dioxide, CO2, InChI=1S/CO2/c2-1-3

System: carbon dioxide + D-.alpha.-tocopheryl acid succinate; phases: Liquid, Crystal
Property: Mole fraction of D-.alpha.-tocopheryl acid succinate (Liquid); method: Chromatography
Temperature, K	Pressure, kPa	Mole fraction of D-.alpha.-tocopheryl acid succinate	uncertainty
313.15	15000	3.8e-06	5e-07
313.15	20000	9.1e-06	9e-07
313.15	25000	1.41e-05	8e-07
313.15	30000	2.26e-05	2.5e-06
323.15	15000	2.8e-06	3e-07
323.15	20000	9.3e-06	1.6e-06
323.15	25000	1.67e-05	8e-07
323.15	30000	2.56e-05	2.6e-06
