Measured thermophysical data. Solubility of Trimethoprim (TMP) in Different Organic Solvents from (278 to 333) K
Source: J. Chem. Eng. Data, 2008, 10.1021/je700497h
Compound 1: 5-[(3,4,5-trimethoxyphenyl)methyl]-2,4-pyrimidinediamine, C14H18N4O3, InChI=1S/C14H18N4O3/c1-19-10-5-8(6-11(20-2)12(10)21-3)4-9-7-17-14(16)18-13(9)15/h5-7H,4H2,1-3H3,(H4,15,16,17,18), purity 99.5%
Compound 2: methanol, CH4O, InChI=1S/CH4O/c1-2/h2H,1H3
Compound 3: ethanol, C2H6O, InChI=1S/C2H6O/c1-2-3/h3H,2H2,1H3
Compound 4: propan-1-ol, C3H8O, InChI=1S/C3H8O/c1-2-3-4/h4H,2-3H2,1H3
Compound 5: propan-2-ol, C3H8O, InChI=1S/C3H8O/c1-3(2)4/h3-4H,1-2H3
Compound 6: butan-1-ol, C4H10O, InChI=1S/C4H10O/c1-2-3-4-5/h5H,2-4H2,1H3
Compound 7: butan-2-ol, C4H10O, InChI=1S/C4H10O/c1-3-4(2)5/h4-5H,3H2,1-2H3
Compound 8: acetone, C3H6O, InChI=1S/C3H6O/c1-3(2)4/h1-2H3
Compound 9: tetrahydrofuran, C4H8O, InChI=1S/C4H8O/c1-2-4-5-3-1/h1-4H2

System: methanol + 5-[(3,4,5-trimethoxyphenyl)methyl]-2,4-pyrimidinediamine; phases: Liquid, Crystal
Fixed: Pressure, kPa = 101
Property: Mole fraction of 5-[(3,4,5-trimethoxyphenyl)methyl]-2,4-pyrimidinediamine (Liquid); method: adding known mass of solute until laser intensity is not maximum
Temperature, K	Mole fraction of 5-[(3,4,5-trimethoxyphenyl)methyl]-2,4-pyrimidinediamine	uncertainty
277.02	0.0008282	1.9e-05
282.85	0.001002	2.2e-05
288.09	0.001201	2.6e-05
293.03	0.001432	3.1e-05
298.17	0.001728	3.7e-05
304.24	0.002171	4.7e-05
309.36	0.002649	5.7e-05
314.12	0.003203	6.9e-05
319.06	0.003917	8.4e-05
323.53	0.00471	0.000102
328.15	0.005707	0.000123
333.73	0.007198	0.000155

System: ethanol + 5-[(3,4,5-trimethoxyphenyl)methyl]-2,4-pyrimidinediamine; phases: Liquid, Crystal
Fixed: Pressure, kPa = 101
Property: Mole fraction of 5-[(3,4,5-trimethoxyphenyl)methyl]-2,4-pyrimidinediamine (Liquid); method: adding known mass of solute until laser intensity is not maximum
Temperature, K	Mole fraction of 5-[(3,4,5-trimethoxyphenyl)methyl]-2,4-pyrimidinediamine	uncertainty
281.15	0.0003559	2.85e-05
287.25	0.0004605	2.87e-05
292.64	0.0005455	2.9e-05
297.95	0.0006808	2.96e-05
302.05	0.0008332	3.04e-05
307.85	0.001049	3.2e-05
311.35	0.001238	3.3e-05
315.24	0.001514	3.5e-05
318.85	0.001772	3.8e-05
323.95	0.002226	4.2e-05
326.65	0.002553	4.6e-05
330.66	0.003085	5.2e-05
335.25	0.003877	6.2e-05

System: propan-1-ol + 5-[(3,4,5-trimethoxyphenyl)methyl]-2,4-pyrimidinediamine; phases: Liquid, Crystal
Fixed: Pressure, kPa = 101
Property: Mole fraction of 5-[(3,4,5-trimethoxyphenyl)methyl]-2,4-pyrimidinediamine (Liquid); method: adding known mass of solute until laser intensity is not maximum
Temperature, K	Mole fraction of 5-[(3,4,5-trimethoxyphenyl)methyl]-2,4-pyrimidinediamine	uncertainty
277.35	0.0002776	7.21e-05
283.63	0.0003281	7.21e-05
288.97	0.0004141	7.22e-05
294.05	0.0005306	7.23e-05
298.93	0.0006772	7.24e-05
303.84	0.000866	7.27e-05
308.44	0.00109	7.3e-05
314.54	0.001479	7.4e-05
319.17	0.001865	7.5e-05
323.48	0.002312	7.7e-05
328.57	0.002978	8e-05
334.15	0.003915	8.4e-05

System: propan-2-ol + 5-[(3,4,5-trimethoxyphenyl)methyl]-2,4-pyrimidinediamine; phases: Liquid, Crystal
Fixed: Pressure, kPa = 101
Property: Mole fraction of 5-[(3,4,5-trimethoxyphenyl)methyl]-2,4-pyrimidinediamine (Liquid); method: adding known mass of solute until laser intensity is not maximum
Temperature, K	Mole fraction of 5-[(3,4,5-trimethoxyphenyl)methyl]-2,4-pyrimidinediamine	uncertainty
277.17	0.0001093	5.8e-05
282.82	0.0001563	5.8e-05
288.28	0.0002023	5.8e-05
293.13	0.0002552	5.81e-05
297.57	0.0003223	5.81e-05
304.04	0.0004677	5.83e-05
309.36	0.0006443	5.85e-05
315.13	0.00091	5.9e-05
319.53	0.001174	6e-05
324.04	0.001509	6.1e-05
328.37	0.001899	6.2e-05
333.64	0.002474	6.4e-05

System: butan-1-ol + 5-[(3,4,5-trimethoxyphenyl)methyl]-2,4-pyrimidinediamine; phases: Liquid, Crystal
Fixed: Pressure, kPa = 101
Property: Mole fraction of 5-[(3,4,5-trimethoxyphenyl)methyl]-2,4-pyrimidinediamine (Liquid); method: adding known mass of solute until laser intensity is not maximum
Temperature, K	Mole fraction of 5-[(3,4,5-trimethoxyphenyl)methyl]-2,4-pyrimidinediamine	uncertainty
276.35	0.000157	9.4e-05
282.63	0.0002536	9.4e-05
287.96	0.0003589	9.41e-05
292.84	0.0004727	9.41e-05
298.46	0.0006349	9.42e-05
303.72	0.000844	9.43e-05
308.84	0.001058	9.5e-05
313.36	0.001325	9.5e-05
318.45	0.001753	9.6e-05
323.73	0.002347	9.7e-05
329.21	0.003058	9.9e-05
333.73	0.003862	0.000101

System: butan-2-ol + 5-[(3,4,5-trimethoxyphenyl)methyl]-2,4-pyrimidinediamine; phases: Liquid, Crystal
Fixed: Pressure, kPa = 101
Property: Mole fraction of 5-[(3,4,5-trimethoxyphenyl)methyl]-2,4-pyrimidinediamine (Liquid); method: adding known mass of solute until laser intensity is not maximum
Temperature, K	Mole fraction of 5-[(3,4,5-trimethoxyphenyl)methyl]-2,4-pyrimidinediamine	uncertainty
276.85	0.0001532	9e-05
283.66	0.000179	9e-05
290.08	0.0003002	9.01e-05
294.67	0.000422	9.01e-05
298.45	0.0005623	9.02e-05
303.74	0.0007581	9.03e-05
308.84	0.001006	9.1e-05
313.35	0.001315	9.1e-05
318.46	0.001723	9.2e-05
323.56	0.002309	9.3e-05
328.66	0.002902	9.4e-05
333.74	0.003773	9.7e-05

System: acetone + 5-[(3,4,5-trimethoxyphenyl)methyl]-2,4-pyrimidinediamine; phases: Liquid, Crystal
Fixed: Pressure, kPa = 101
Property: Mole fraction of 5-[(3,4,5-trimethoxyphenyl)methyl]-2,4-pyrimidinediamine (Liquid); method: adding known mass of solute until laser intensity is not maximum
Temperature, K	Mole fraction of 5-[(3,4,5-trimethoxyphenyl)methyl]-2,4-pyrimidinediamine	uncertainty
276.94	0.0004556	5.5e-06
282.12	0.0005405	6.5e-06
288.62	0.0006638	8e-06
292.94	0.0007599	9.2e-06
297.96	0.0008896	1.07e-05
304.17	0.001082	1.3e-05
309.34	0.001275	1.5e-05
314.34	0.001493	1.8e-05
319.07	0.001731	2.1e-05
323.51	0.001987	2.4e-05

System: tetrahydrofuran + 5-[(3,4,5-trimethoxyphenyl)methyl]-2,4-pyrimidinediamine; phases: Liquid, Crystal
Fixed: Pressure, kPa = 101
Property: Mole fraction of 5-[(3,4,5-trimethoxyphenyl)methyl]-2,4-pyrimidinediamine (Liquid); method: adding known mass of solute until laser intensity is not maximum
Temperature, K	Mole fraction of 5-[(3,4,5-trimethoxyphenyl)methyl]-2,4-pyrimidinediamine	uncertainty
276.05	0.0006078	3.25e-05
281.81	0.0007136	3.27e-05
287.31	0.0008572	3.29e-05
292.65	0.0009866	3.32e-05
298.08	0.001171	3.4e-05
303.12	0.001371	3.4e-05
306.95	0.001546	3.5e-05
311.69	0.001785	3.6e-05
316.74	0.002084	3.7e-05
321.34	0.002442	3.9e-05
326.91	0.002958	4.2e-05
333.87	0.003774	4.7e-05
