Measured thermophysical data. Solubility of Imidacloprid in Different Solvents
Source: J. Chem. Eng. Data, 2008, 10.1021/je7004038
Compound 1: benzoic acid, C7H6O2, InChI=1S/C7H6O2/c8-7(9)6-4-2-1-3-5-6/h1-5H,(H,8,9), purity 99.5%
Compound 2: water, H2O, InChI=1S/H2O/h1H2
Compound 3: methanol, CH4O, InChI=1S/CH4O/c1-2/h2H,1H3, purity 99.5%
Compound 4: ethanol, C2H6O, InChI=1S/C2H6O/c1-2-3/h3H,2H2,1H3, purity 99.5%
Compound 5: acetone, C3H6O, InChI=1S/C3H6O/c1-3(2)4/h1-2H3, purity 99.5%
Compound 6: butanone, C4H8O, InChI=1S/C4H8O/c1-3-4(2)5/h3H2,1-2H3, purity 99.5%
Compound 7: dichloromethane, CH2Cl2, InChI=1S/CH2Cl2/c2-1-3/h1H2, purity 99.5%
Compound 8: 1,2-dichloroethane, C2H4Cl2, InChI=1S/C2H4Cl2/c3-1-2-4/h1-2H2, purity 99.5%
Compound 9: trichloromethane, CHCl3, InChI=1S/CHCl3/c2-1(3)4/h1H, purity 99.5%
Compound 10: imidacloprid, C9H10ClN5O2, InChI=1S/C9H10ClN5O2/c10-8-2-1-7(5-12-8)6-14-4-3-11-9(14)13-15(16)17/h1-2,5H,3-4,6H2,(H,11,13), purity 95%

System: imidacloprid; phases: Crystal, Liquid, Air at 1 atmosphere
Property: Normal melting temperature, K (Crystal); method: VISOBS
Normal melting temperature, K	uncertainty
417.15	0.68

System: benzoic acid + water; phases: Liquid, Crystal
Fixed: Pressure, kPa = 101
Property: Mole fraction of benzoic acid (Liquid); method: laser monitoring
Temperature, K	Mole fraction of benzoic acid	uncertainty
295.95	0.000501	2.1e-05
305.55	0.000651	2.8e-05
310.94	0.000752	3.2e-05
317.05	0.000926	3.9e-05
320.71	0.00108	5e-05
323.85	0.00121	5e-05
328.06	0.00142	6e-05
333.27	0.00175	7e-05
338.79	0.00215	9e-05
344.25	0.00272	0.00012
348.88	0.00335	0.00014
354.64	0.00431	0.00018

System: water + imidacloprid; phases: Liquid, Crystal
Fixed: Pressure, kPa = 101
Property: Mole fraction of imidacloprid (Liquid); method: laser monitoring
Temperature, K	Mole fraction of imidacloprid	uncertainty
302.76	2.678e-05	8e-08
308.62	3.938e-05	1.2e-07
314.75	4.87e-05	1.5e-07
324.15	8.348e-05	2.5e-07
329.34	0.0001187	4e-07
330.75	0.000132	4e-07
334.52	0.0001688	5e-07
340.44	0.000231	7e-07
344.57	0.0002874	9e-07
346.87	0.0003228	1e-06
348.94	0.0003626	1.1e-06

System: methanol + imidacloprid; phases: Liquid, Crystal
Fixed: Pressure, kPa = 101
Property: Mole fraction of imidacloprid (Liquid); method: laser monitoring
Temperature, K	Mole fraction of imidacloprid	uncertainty
293.79	0.001021	3e-06
295.38	0.001112	3e-06
299.81	0.001361	4e-06
302.15	0.001557	5e-06
305.86	0.001793	5e-06
309.32	0.002107	6e-06
312.62	0.002467	7e-06
315.38	0.002828	9e-06
320.59	0.003609	1.1e-05
323.37	0.004131	1.2e-05
328.11	0.005296	1.6e-05
330.75	0.005984	1.8e-05
333.34	0.00676	2e-05

System: ethanol + imidacloprid; phases: Liquid, Crystal
Fixed: Pressure, kPa = 101
Property: Mole fraction of imidacloprid (Liquid); method: laser monitoring
Temperature, K	Mole fraction of imidacloprid	uncertainty
298.69	0.0005024	1.5e-06
301.12	0.0005693	1.7e-06
305.66	0.0007937	2.4e-06
308.87	0.001002	3e-06
312.34	0.001176	4e-06
315.96	0.001362	4e-06
318.07	0.001513	5e-06
320.74	0.001703	5e-06
323.96	0.001967	6e-06
327.54	0.002252	7e-06
330.06	0.002514	8e-06
333.57	0.002886	9e-06

System: acetone + imidacloprid; phases: Liquid, Crystal
Fixed: Pressure, kPa = 101
Property: Mole fraction of imidacloprid (Liquid); method: laser monitoring
Temperature, K	Mole fraction of imidacloprid	uncertainty
294.64	0.01198	4e-05
300.05	0.01414	4e-05
301.76	0.01484	4e-05
305.05	0.01617	5e-05
307.77	0.01745	5e-05
310.17	0.01873	6e-05
317.25	0.02323	7e-05
319.14	0.02478	7e-05
321.59	0.02645	8e-05
327.89	0.03253	0.0001
330.2	0.03526	0.00011

System: butanone + imidacloprid; phases: Liquid, Crystal
Fixed: Pressure, kPa = 101
Property: Mole fraction of imidacloprid (Liquid); method: laser monitoring
Temperature, K	Mole fraction of imidacloprid	uncertainty
293.07	0.01588	5e-05
299.44	0.0192	6e-05
302.54	0.02128	6e-05
306.3	0.02378	7e-05
308.85	0.02603	8e-05
311.24	0.02807	8e-05
314.22	0.03076	9e-05
318.19	0.03458	0.0001
320.83	0.03794	0.00011
323.87	0.0419	0.00013
326.73	0.04598	0.00014
329.81	0.05041	0.00015
332.97	0.0573	0.00017
335.21	0.06166	0.00019
337.54	0.06779	0.0002
340.65	0.07488	0.00022
343.2	0.08231	0.00025

System: dichloromethane + imidacloprid; phases: Liquid, Crystal
Fixed: Pressure, kPa = 101
Property: Mole fraction of imidacloprid (Liquid); method: laser monitoring
Temperature, K	Mole fraction of imidacloprid	uncertainty
293.97	0.01318	4e-05
295.96	0.01458	4e-05
298	0.01567	5e-05
300.05	0.01664	5e-05
302.6	0.01768	5e-05
303.99	0.0189	6e-05
305.96	0.01991	6e-05
307.8	0.0211	6e-05
309.6	0.02231	7e-05
311.66	0.02361	7e-05
313.14	0.02475	7e-05
313.93	0.0254	8e-05

System: 1,2-dichloroethane + imidacloprid; phases: Liquid, Crystal
Fixed: Pressure, kPa = 101
Property: Mole fraction of imidacloprid (Liquid); method: laser monitoring
Temperature, K	Mole fraction of imidacloprid	uncertainty
299.96	0.009866	3e-05
302.87	0.01076	3e-05
304.97	0.01163	4e-05
310.08	0.01421	4e-05
314.14	0.01606	5e-05
317.43	0.01832	6e-05
321.31	0.02132	6e-05
325.67	0.02425	7e-05
328.74	0.02709	8e-05
331.34	0.0309	9e-05
333.75	0.03452	0.0001
336.91	0.03924	0.00012
339.95	0.04415	0.00013
342.81	0.04896	0.00015
345.2	0.05463	0.00016
347.1	0.06121	0.00018

System: trichloromethane + imidacloprid; phases: Liquid, Crystal
Fixed: Pressure, kPa = 101
Property: Mole fraction of imidacloprid (Liquid); method: laser monitoring
Temperature, K	Mole fraction of imidacloprid	uncertainty
292.04	0.008485	2.5e-05
294.49	0.009162	2.7e-05
298.22	0.01016	3e-05
303.84	0.01149	3e-05
307.04	0.0123	4e-05
310.05	0.01319	4e-05
314.03	0.01427	4e-05
316.75	0.01526	5e-05
319.07	0.01674	5e-05
321.74	0.01834	6e-05
324.64	0.01984	6e-05
326.71	0.02147	6e-05
330.16	0.02403	7e-05
