Measured thermophysical data. Surface and Bulk Properties of Two Amphiphilic Phenothiazine Drugs in Different Aqueous Media
Source: J. Chem. Eng. Data, 2008, 10.1021/je7003963
Compound 1: water, H2O, InChI=1S/H2O/h1H2
Compound 2: fluphenazine dihydrochloride, C22H28Cl2F3N3OS, InChI=1S/C22H26F3N3OS.2ClH/c23-22(24,25)17-6-7-21-19(16-17)28(18-4-1-2-5-20(18)30-21)9-3-8-26-10-12-27(13-11-26)14-15-29;;/h1-2,4-7,16,29H,3,8-15H2;2*1H
Compound 3: trifluoperazine dihydrochloride, C21H26Cl2F3N3S, InChI=1S/C21H24F3N3S.2ClH/c1-25-11-13-26(14-12-25)9-4-10-27-17-5-2-3-6-19(17)28-20-8-7-16(15-18(20)27)21(22,23)24;;/h2-3,5-8,15H,4,9-14H2,1H3;2*1H

System: fluphenazine dihydrochloride + water; phases: Liquid, Air at 1 atmosphere
Fixed: Temperature, K = 293.15
Property: Surface tension liquid-gas, N/m (Liquid); method: RINGTE:UFactor:2
Molality, mol/kg of fluphenazine dihydrochloride	Surface tension liquid-gas, N/m	uncertainty
0.001	0.0591	0.002
0.002	0.0579	0.002
0.003	0.0545	0.0019
0.004	0.0511	0.0018
0.005	0.049	0.0017
0.006	0.0499	0.0017
0.007	0.0477	0.0016
0.008	0.0459	0.0016
0.025	0.0443	0.0015
0.04	0.0446	0.0016
0.075	0.044	0.0015
0.1	0.0445	0.0016
0.125	0.0441	0.0015
0.15	0.0446	0.0016

System: fluphenazine dihydrochloride + water; phases: Liquid
Fixed: Temperature, K = 293.15
Fixed: Pressure, kPa = 101
Property: Speed of sound, m/s (Liquid); method: Sing-around technique in a fixed-path interferometer
Molality, mol/kg of fluphenazine dihydrochloride	Speed of sound, m/s	uncertainty
0.00605	1484.09	1.25
0.00716	1484.62	1.25
0.00794	1484.81	1.25
0.00898	1485.08	1.25
0.01001	1485.31	1.25
0.01999	1487.53	1.27
0.02935	1489.3	1.29
0.04	1491.48	1.31
0.0506	1492.82	1.32
0.05999	1494.39	1.34
0.0803	1496.89	1.37
0.10002	1499.05	1.4
0.12483	1501.52	1.44
0.149	1503.83	1.48
0.17517	1506.32	1.52

System: fluphenazine dihydrochloride + water; phases: Liquid
Fixed: Temperature, K = 293.15
Fixed: Pressure, kPa = 101
Property: Mass density, kg/m3 (Liquid); method: Vibrating tube method
Molality, mol/kg of fluphenazine dihydrochloride	Mass density, kg/m3	uncertainty
0.00605	999.199	0.285
0.00716	999.381	0.286
0.00794	999.509	0.286
0.00898	999.679	0.287
0.01001	999.848	0.288
0.01999	1001.437	0.293
0.02935	1002.91	0.299
0.04	1004.555	0.307
0.0506	1006.17	0.315
0.05999	1007.589	0.323
0.0803	1010.637	0.34
0.10002	1013.527	0.357
0.12483	1017.051	0.38
0.149	1020.451	0.404
0.17517	1023.979	0.43

System: trifluoperazine dihydrochloride + water; phases: Liquid, Air at 1 atmosphere
Fixed: Temperature, K = 293.15
Property: Surface tension liquid-gas, N/m (Liquid); method: RINGTE:UFactor:2
Molality, mol/kg of trifluoperazine dihydrochloride	Surface tension liquid-gas, N/m	uncertainty
0.003	0.0581	0.002
0.004	0.0551	0.0019
0.005	0.0514	0.0018
0.006	0.0511	0.0018
0.007	0.0496	0.0017
0.008	0.0477	0.0016
0.009	0.0477	0.0016
0.01	0.0465	0.0016
0.025	0.046	0.0016
0.05	0.0465	0.0016
0.075	0.0459	0.0016
0.1	0.0466	0.0016
0.125	0.0465	0.0016
0.15	0.0459	0.0016

System: trifluoperazine dihydrochloride + water; phases: Liquid
Fixed: Temperature, K = 293.15
Fixed: Pressure, kPa = 101
Property: Speed of sound, m/s (Liquid); method: Sing-around technique in a fixed-path interferometer
Molality, mol/kg of trifluoperazine dihydrochloride	Speed of sound, m/s	uncertainty
0.0079	1484.08	1.25
0.00895	1484.27	1.25
0.011	1484.65	1.25
0.01547	1485.45	1.26
0.02109	1486.44	1.27
0.0286	1487.75	1.28
0.03996	1489.76	1.3
0.0492	1491.32	1.31
0.06004	1493.04	1.33
0.07991	1496.16	1.35
0.09979	1498.32	1.38
0.12479	1500.56	1.42
0.14957	1502.94	1.45
0.17372	1505.11	1.48
0.19936	1507.29	1.52
0.22448	1509.52	1.55
0.2494	1511.66	1.58
0.2749	1513.57	1.62
0.2998	1515.78	1.65

System: trifluoperazine dihydrochloride + water; phases: Liquid
Fixed: Temperature, K = 293.15
Fixed: Pressure, kPa = 101
Property: Mass density, kg/m3 (Liquid); method: Vibrating tube method
Molality, mol/kg of trifluoperazine dihydrochloride	Mass density, kg/m3	uncertainty
0.0079	999.369	0.271
0.00895	999.513	0.274
0.011	999.803	0.277
0.01547	1000.449	0.279
0.02109	1001.241	0.283
0.0286	1002.31	0.288
0.03996	1003.909	0.296
0.0492	1005.18	0.302
0.06004	1006.672	0.31
0.07991	1009.393	0.325
0.09979	1012.031	0.34
0.12479	1015.253	0.36
0.14957	1018.448	0.381
0.17372	1021.445	0.402
0.19936	1024.628	0.426
0.22448	1027.651	0.448
0.2494	1030.555	0.472
0.2749	1033.523	0.496
0.2998	1036.298	0.521
