Measured thermophysical data. Aqueous Biphasic Systems of Hydrophilic Ionic Liquids + Sucrose for Separation
Source: J. Chem. Eng. Data, 2008, 10.1021/je700729p
Compound 1: 1-allyl-3-methylimidazolium chloride, C7H11ClN2, InChI=1S/C7H11N2.ClH/c1-3-4-9-6-5-8(2)7-9;/h3,5-7H,1,4H2,2H3;1H/q+1;/p-1
Compound 2: 1-allyl-3-methylimidazolium bromide, C7H11BrN2, InChI=1S/C7H11N2.BrH/c1-3-4-9-6-5-8(2)7-9;/h3,5-7H,1,4H2,2H3;1H/q+1;/p-1
Compound 3: 1-butyl-3-methylimidazolium tetrafluoroborate, C8H15BF4N2, InChI=1S/C8H15N2.BF4/c1-3-4-5-10-7-6-9(2)8-10;2-1(3,4)5/h6-8H,3-5H2,1-2H3;/q+1;-1
Compound 4: D-sucrose, C12H22O11, InChI=1S/C12H22O11/c13-1-4-6(16)8(18)9(19)11(21-4)23-12(3-15)10(20)7(17)5(2-14)22-12/h4-11,13-20H,1-3H2/t4-,5-,6-,7-,8+,9-,10+,11-,12+/m1/s1
Compound 5: water, H2O, InChI=1S/H2O/h1H2, purity 99.9%

System: D-sucrose + water + 1-allyl-3-methylimidazolium chloride; phases: Liquid mixture 1, Liquid mixture 2
Fixed: Temperature, K = 293.15
Fixed: Pressure, kPa = 101
Property: Mass fraction of D-sucrose (Liquid mixture 1); method: UV Spectra
Property: Mass fraction of D-sucrose (Liquid mixture 2); method: UV Spectra
Property: Mass fraction of 1-allyl-3-methylimidazolium chloride (Liquid mixture 2); method: UV Spectra
Mass fraction of 1-allyl-3-methylimidazolium chloride	Mass fraction of D-sucrose	uncertainty	Mass fraction of D-sucrose	uncertainty	Mass fraction of 1-allyl-3-methylimidazolium chloride	uncertainty
0.6663	0.0436	0.0103	0.2506	0.0144	0.1722	
0.7138	0.0314	0.0102	0.2824	0.0149	0.1416	
0.7665	0.0248	0.0101	0.3387	0.0175	0.0926	
0.8056	0.0212	0.01	0.4078	0.0209	0.055	

System: D-sucrose + water + 1-allyl-3-methylimidazolium chloride; phases: Liquid mixture 1, Liquid mixture 2
Fixed: Temperature, K = 293.15
Fixed: Pressure, kPa = 101
Property: Mass fraction of 1-allyl-3-methylimidazolium chloride (Liquid mixture 1); method: Titration method
Mass fraction of D-sucrose	Mass fraction of 1-allyl-3-methylimidazolium chloride	uncertainty
0.0125	0.8726	0.0678
0.0196	0.8314	0.079
0.0234	0.781	0.0669
0.0287	0.7422	0.0593
0.0327	0.7057	0.0507
0.0412	0.6717	0.0417
0.0483	0.6305	0.0391
0.0553	0.5943	0.0416
0.0636	0.5637	0.0303
0.0733	0.5345	0.0319
0.0822	0.4986	0.0299
0.0974	0.4577	0.0279
0.1152	0.4024	0.0274
0.1312	0.3582	0.0214
0.1623	0.2998	0.0179
0.1857	0.2661	0.0163
0.2064	0.2335	0.0158
0.2314	0.1981	0.0132
0.2667	0.1654	0.012
0.2987	0.1333	0.0118
0.3265	0.1071	0.0111
0.3562	0.0822	0.0097
0.3854	0.0701	0.0087
0.4127	0.0622	0.0084
0.4556	0.0518	0.0085
0.4957	0.0363	0.0083
0.5407	0.0293	0.0081
0.6045	0.0233	0.0081
0.6656	0.0198	0.008

System: D-sucrose + water + 1-allyl-3-methylimidazolium bromide; phases: Liquid mixture 1, Liquid mixture 2
Fixed: Temperature, K = 293.15
Fixed: Pressure, kPa = 101
Property: Mass fraction of D-sucrose (Liquid mixture 1); method: UV Spectra
Property: Mass fraction of 1-allyl-3-methylimidazolium bromide (Liquid mixture 2); method: UV Spectra
Property: Mass fraction of D-sucrose (Liquid mixture 2); method: UV Spectra
Mass fraction of 1-allyl-3-methylimidazolium bromide	Mass fraction of D-sucrose	uncertainty	Mass fraction of 1-allyl-3-methylimidazolium bromide	uncertainty	Mass fraction of D-sucrose	uncertainty
0.5672	0.0355	0.0101	0.133	0.013	0.1604	
0.6127	0.0297	0.0101	0.0987	0.0116	0.2016	
0.6668	0.0233	0.0101	0.0715	0.0113	0.2624	
0.6945	0.0208	0.01	0.0537	0.0132	0.2829	

System: D-sucrose + water + 1-allyl-3-methylimidazolium bromide; phases: Liquid mixture 1, Liquid mixture 2
Fixed: Temperature, K = 293.15
Fixed: Pressure, kPa = 101
Property: Mass fraction of 1-allyl-3-methylimidazolium bromide (Liquid mixture 1); method: Titration method
Mass fraction of D-sucrose	Mass fraction of 1-allyl-3-methylimidazolium bromide	uncertainty
0.0358	0.4509	0.0234
0.0528	0.4127	0.0237
0.0692	0.3713	0.0223
0.0783	0.3563	0.0206
0.0904	0.329	0.0224
0.1081	0.2868	0.0187
0.135	0.245	0.015
0.1688	0.2052	0.0129
0.2004	0.1775	0.0113
0.2523	0.1393	0.0107
0.2886	0.1124	0.0102
0.3026	0.1061	0.0089
0.333	0.0975	0.0087
0.3684	0.0905	0.0088
0.3805	0.079	0.0093
0.4023	0.0715	0.0084
0.4446	0.0645	0.0083
0.4853	0.0565	0.0083
0.525	0.0495	0.0082
0.5721	0.041	0.0082
0.6175	0.0375	0.0081
0.6545	0.0325	0.0081
0.7025	0.028	0.0081
0.731	0.026	0.0081
0.755	0.0245	0.0081
0.7784	0.0225	0.0081
0.8086	0.0175	0.008
0.8587	0.015	0.008
0.9008	0.0125	0.008

System: D-sucrose + water + 1-butyl-3-methylimidazolium tetrafluoroborate; phases: Liquid mixture 1, Liquid mixture 2
Fixed: Temperature, K = 293.15
Fixed: Pressure, kPa = 101
Property: Mass fraction of D-sucrose (Liquid mixture 1); method: UV Spectra
Property: Mass fraction of 1-butyl-3-methylimidazolium tetrafluoroborate (Liquid mixture 2); method: UV Spectra
Property: Mass fraction of D-sucrose (Liquid mixture 2); method: UV Spectra
Mass fraction of 1-butyl-3-methylimidazolium tetrafluoroborate	Mass fraction of D-sucrose	uncertainty	Mass fraction of 1-butyl-3-methylimidazolium tetrafluoroborate	uncertainty	Mass fraction of D-sucrose	uncertainty
0.6836	0.0304	0.0101	0.1238	0.0117	0.2654	
0.7328	0.0251	0.0101	0.0957	0.0113	0.3113	
0.7848	0.0194	0.01	0.0735	0.0108	0.3618	
0.8266	0.0162	0.01	0.0586	0.0107	0.4007	

System: D-sucrose + water + 1-butyl-3-methylimidazolium tetrafluoroborate; phases: Liquid mixture 1, Liquid mixture 2
Fixed: Temperature, K = 293.15
Fixed: Pressure, kPa = 101
Property: Mass fraction of 1-butyl-3-methylimidazolium tetrafluoroborate (Liquid mixture 1); method: Titration method
Mass fraction of D-sucrose	Mass fraction of 1-butyl-3-methylimidazolium tetrafluoroborate	uncertainty
0.0123	0.5305	0.0155
0.0176	0.5846	0.1236
0.0208	0.5312	0.0584
0.0245	0.4824	0.0574
0.0275	0.4327	0.0909
0.0321	0.3965	0.0627
0.0381	0.3537	0.0479
0.0496	0.3046	0.0222
0.0705	0.2737	0.0186
0.0814	0.2434	0.022
0.0957	0.2125	0.0201
0.1086	0.184	0.0164
0.1229	0.1668	0.0108
0.1456	0.1571	0.0101
0.1692	0.1418	0.0107
0.1904	0.1244	0.0109
0.2133	0.1055	0.0092
0.2497	0.0979	0.0087
0.2826	0.0888	0.0087
0.3232	0.0762	0.0086
0.3685	0.0651	0.0084
0.4169	0.0559	0.0083
0.4602	0.0494	0.0082
0.5096	0.041	0.0082
0.5462	0.0374	0.0081
0.5855	0.0333	0.0081
0.6224	0.0286	0.0081
0.6791	0.0222	0.0081
0.7244	0.0196	0.008
