Measured thermophysical data. Thermodynamic Phase Behavior of Ionic Liquids
Source: J. Chem. Eng. Data, 2007, 10.1021/je700204d
Compound 1: 1-ethyl-3-methylimidazolium 4-methylbenzenesulfonate, C13H18N2O3S, InChI=1S/C7H8O3S.C6H11N2/c1-6-2-4-7(5-3-6)11(8,9)10;1-3-8-5-4-7(2)6-8/h2-5H,1H3,(H,8,9,10);4-6H,3H2,1-2H3/q;+1/p-1, purity 98%
Compound 2: 1-ethyl-3-methylimidazolium ethyl sulfate, C8H16N2O4S, InChI=1S/C6H11N2.C2H6O4S/c1-3-8-5-4-7(2)6-8;1-2-6-7(3,4)5/h4-6H,3H2,1-2H3;2H2,1H3,(H,3,4,5)/q+1;/p-1, purity 98%
Compound 3: N-(2-hydroxyethyl)-N,N-dimethylhexan-1-aminium bromide, C10H24BrNO, InChI=1S/C10H24NO.BrH/c1-4-5-6-7-8-11(2,3)9-10-12;/h12H,4-10H2,1-3H3;1H/q+1;/p-1
Compound 4: hexyl(2-hydroxyethyl)dimethylammonium tetrafluoroborate, C10H24BF4NO, InChI=1S/C10H24NO.BF4/c1-4-5-6-7-8-11(2,3)9-10-12;2-1(3,4)5/h12H,4-10H2,1-3H3;/q+1;-1
Compound 5: (2-decanoyloxyethyl)dimethylpentyloxymethylammonium trifluoroacetate, C22H42F3NO5, InChI=1S/C20H42NO3.C2HF3O2/c1-5-7-9-10-11-12-13-15-20(22)24-18-16-21(3,4)19-23-17-14-8-6-2;3-2(4,5)1(6)7/h5-19H2,1-4H3;(H,6,7)/q+1;/p-1
Compound 6: (2-methyloyoxyethyl)dimethylpentyloxyammonium acesulfamate, C16H30N2O7S, InChI=1S/C12H26NO3.C4H5NO4S/c1-5-6-7-9-15-11-13(3,4)8-10-16-12(2)14;1-3-2-4(6)5-10(7,8)9-3/h5-11H2,1-4H3;2H,1H3,(H,5,6)/q+1;/p-1
Compound 7: (2-hydroxyethyl)-dimethylundecyloxymethylammonium dicyanamide, C18H36N4O2, InChI=1S/C16H36NO2.C2N3/c1-4-5-6-7-8-9-10-11-12-15-19-16-17(2,3)13-14-18;3-1-5-2-4/h18H,4-16H2,1-3H3;/q+1;-1
Compound 8: hexane, C6H14, InChI=1S/C6H14/c1-3-5-6-4-2/h3-6H2,1-2H3
Compound 9: cycloheptane, C7H14, InChI=1S/C7H14/c1-2-4-6-7-5-3-1/h1-7H2
Compound 10: benzene, C6H6, InChI=1S/C6H6/c1-2-4-6-5-3-1/h1-6H
Compound 11: ethanol, C2H6O, InChI=1S/C2H6O/c1-2-3/h3H,2H2,1H3
Compound 12: octan-1-ol, C8H18O, InChI=1S/C8H18O/c1-2-3-4-5-6-7-8-9/h9H,2-8H2,1H3
Compound 13: dodecan-1-ol, C12H26O, InChI=1S/C12H26O/c1-2-3-4-5-6-7-8-9-10-11-12-13/h13H,2-12H2,1H3

System: 1-ethyl-3-methylimidazolium 4-methylbenzenesulfonate; phases: Crystal, Liquid, Air at 1 atmosphere
Property: Molar enthalpy of transition or fusion, kJ/mol (Crystal); method: DSC
Molar enthalpy of transition or fusion, kJ/mol	uncertainty
27.83	0.8

System: 1-ethyl-3-methylimidazolium 4-methylbenzenesulfonate; phases: Glass, Liquid, Air at 1 atmosphere
Property: Triple point temperature, K (Glass); method: DTA
Triple point temperature, K	uncertainty
214	3

System: 1-ethyl-3-methylimidazolium 4-methylbenzenesulfonate; phases: Crystal, Liquid, Air at 1 atmosphere
Property: Normal melting temperature, K (Crystal); method: DTA
Normal melting temperature, K	uncertainty
322.9	0.5

System: 1-ethyl-3-methylimidazolium ethyl sulfate; phases: Glass, Liquid, Air at 1 atmosphere
Property: Triple point temperature, K (Glass); method: DTA
Triple point temperature, K	uncertainty
187	3

System: N-(2-hydroxyethyl)-N,N-dimethylhexan-1-aminium bromide; phases: Crystal, Liquid, Air at 1 atmosphere
Property: Molar enthalpy of transition or fusion, kJ/mol (Crystal); method: DSC
Molar enthalpy of transition or fusion, kJ/mol	uncertainty
3.78	0.32

System: N-(2-hydroxyethyl)-N,N-dimethylhexan-1-aminium bromide; phases: Glass, Liquid, Air at 1 atmosphere
Property: Triple point temperature, K (Glass); method: DTA
Triple point temperature, K	uncertainty
184	3

System: N-(2-hydroxyethyl)-N,N-dimethylhexan-1-aminium bromide; phases: Crystal, Liquid, Air at 1 atmosphere
Property: Normal melting temperature, K (Crystal); method: DTA
Normal melting temperature, K	uncertainty
355.5	0.5

System: hexyl(2-hydroxyethyl)dimethylammonium tetrafluoroborate; phases: Glass, Liquid, Air at 1 atmosphere
Property: Triple point temperature, K (Glass); method: DTA
Triple point temperature, K	uncertainty
172	3

System: (2-decanoyloxyethyl)dimethylpentyloxymethylammonium trifluoroacetate; phases: Crystal 1, Liquid, Air at 1 atmosphere
Property: Molar enthalpy of transition or fusion, kJ/mol (Crystal 1); method: DSC
Molar enthalpy of transition or fusion, kJ/mol	uncertainty
7.83	0.39

System: (2-decanoyloxyethyl)dimethylpentyloxymethylammonium trifluoroacetate; phases: Crystal 2, Crystal 1, Air at 1 atmosphere
Property: Molar enthalpy of transition or fusion, kJ/mol (Crystal 2); method: DSC
Molar enthalpy of transition or fusion, kJ/mol	uncertainty
2.38	0.3

System: (2-decanoyloxyethyl)dimethylpentyloxymethylammonium trifluoroacetate; phases: Crystal 3, Crystal 2, Air at 1 atmosphere
Property: Molar enthalpy of transition or fusion, kJ/mol (Crystal 3); method: DSC
Molar enthalpy of transition or fusion, kJ/mol	uncertainty
7.16	0.37

System: (2-decanoyloxyethyl)dimethylpentyloxymethylammonium trifluoroacetate; phases: Crystal 4, Crystal 3, Air at 1 atmosphere
Property: Molar enthalpy of transition or fusion, kJ/mol (Crystal 4); method: DSC
Molar enthalpy of transition or fusion, kJ/mol	uncertainty
7.71	0.39

System: (2-decanoyloxyethyl)dimethylpentyloxymethylammonium trifluoroacetate; phases: Crystal 2, Crystal 1, Air at 1 atmosphere
Property: Triple point temperature, K (Crystal 2); method: DTA
Triple point temperature, K	uncertainty
252	1

System: (2-decanoyloxyethyl)dimethylpentyloxymethylammonium trifluoroacetate; phases: Crystal 3, Crystal 2, Air at 1 atmosphere
Property: Triple point temperature, K (Crystal 3); method: DTA
Triple point temperature, K	uncertainty
244	1

System: (2-decanoyloxyethyl)dimethylpentyloxymethylammonium trifluoroacetate; phases: Crystal 4, Crystal 3, Air at 1 atmosphere
Property: Triple point temperature, K (Crystal 4); method: DTA
Triple point temperature, K	uncertainty
236	1

System: (2-decanoyloxyethyl)dimethylpentyloxymethylammonium trifluoroacetate; phases: Glass, Liquid, Air at 1 atmosphere
Property: Triple point temperature, K (Glass); method: DTA
Triple point temperature, K	uncertainty
209	3

System: (2-decanoyloxyethyl)dimethylpentyloxymethylammonium trifluoroacetate; phases: Crystal 1, Liquid, Air at 1 atmosphere
Property: Normal melting temperature, K (Crystal 1); method: DTA
Normal melting temperature, K	uncertainty
279.8	0.5

System: (2-methyloyoxyethyl)dimethylpentyloxyammonium acesulfamate; phases: Glass, Liquid, Air at 1 atmosphere
Property: Triple point temperature, K (Glass); method: DTA
Triple point temperature, K	uncertainty
219	3

System: (2-hydroxyethyl)-dimethylundecyloxymethylammonium dicyanamide; phases: Crystal 1, Liquid, Air at 1 atmosphere
Property: Molar enthalpy of transition or fusion, kJ/mol (Crystal 1); method: DSC
Molar enthalpy of transition or fusion, kJ/mol	uncertainty
7.15	0.37

System: (2-hydroxyethyl)-dimethylundecyloxymethylammonium dicyanamide; phases: Crystal 2, Crystal 1, Air at 1 atmosphere
Property: Molar enthalpy of transition or fusion, kJ/mol (Crystal 2); method: DSC
Molar enthalpy of transition or fusion, kJ/mol	uncertainty
10.028	0.431

System: (2-hydroxyethyl)-dimethylundecyloxymethylammonium dicyanamide; phases: Crystal 2, Crystal 1, Air at 1 atmosphere
Property: Triple point temperature, K (Crystal 2); method: DTA
Triple point temperature, K	uncertainty
258.35	0.5

System: (2-hydroxyethyl)-dimethylundecyloxymethylammonium dicyanamide; phases: Glass, Liquid, Air at 1 atmosphere
Property: Triple point temperature, K (Glass); method: DTA
Triple point temperature, K	uncertainty
195.4	3

System: (2-hydroxyethyl)-dimethylundecyloxymethylammonium dicyanamide; phases: Crystal 1, Liquid, Air at 1 atmosphere
Property: Normal melting temperature, K (Crystal 1); method: DTA
Normal melting temperature, K	uncertainty
283.5	0.5

System: cycloheptane + 1-ethyl-3-methylimidazolium 4-methylbenzenesulfonate; phases: Crystal, Liquid mixture 1, Liquid mixture 2, Air at 1 atmosphere
Property: Quadruple (quintuple) point temperature, K (Crystal); method: Visual observation
Quadruple (quintuple) point temperature, K	uncertainty
318.3	1

System: cycloheptane + 1-ethyl-3-methylimidazolium 4-methylbenzenesulfonate; phases: Liquid mixture 1, Liquid mixture 2
Fixed: Pressure, kPa = 101
Property: Liquid-liquid equilibrium temperature, K (Liquid mixture 1); method: VISOBS:UFactor:16
Mole fraction of 1-ethyl-3-methylimidazolium 4-methylbenzenesulfonate	Liquid-liquid equilibrium temperature, K	uncertainty
0.5854	363.6	2.5
0.6598	360.6	2.5
0.7289	357.7	2.5
0.7879	353.4	2.5
0.8558	348.6	2.5
0.8981	342.6	2.5

System: cycloheptane + 1-ethyl-3-methylimidazolium 4-methylbenzenesulfonate; phases: Liquid, Crystal
Fixed: Pressure, kPa = 101
Property: Solid-liquid equilibrium temperature, K (Liquid); method: VISOBS:UFactor:8
Mole fraction of 1-ethyl-3-methylimidazolium 4-methylbenzenesulfonate	Solid-liquid equilibrium temperature, K	uncertainty
0.0592	318.79	1.24
0.169	319.13	1.24
0.2808	318	1.24
0.4089	317.56	1.24
0.5077	317.42	1.24

System: hexane + 1-ethyl-3-methylimidazolium ethyl sulfate; phases: Liquid mixture 1, Liquid mixture 2
Fixed: Pressure, kPa = 101
Property: Liquid-liquid equilibrium temperature, K (Liquid mixture 1); method: VISOBS:UFactor:16
Mole fraction of 1-ethyl-3-methylimidazolium ethyl sulfate	Liquid-liquid equilibrium temperature, K	uncertainty
0.6772	339.2	2.5
0.7262	324.6	2.5
0.7325	321.8	2.5
0.7678	313.1	2.5
0.8552	301.2	2.5

System: benzene + 1-ethyl-3-methylimidazolium ethyl sulfate; phases: Liquid mixture 1, Liquid mixture 2
Fixed: Pressure, kPa = 101
Property: Liquid-liquid equilibrium temperature, K (Liquid mixture 1); method: VISOBS:UFactor:16
Mole fraction of 1-ethyl-3-methylimidazolium ethyl sulfate	Liquid-liquid equilibrium temperature, K	uncertainty
0.2451	346.3	2.5
0.2652	336.5	2.5
0.2892	328.2	2.5
0.3281	319.6	2.5
0.3581	314.1	2.5
0.3921	311.1	2.5
0.4051	309.1	2.5
0.4212	302.6	2.5
0.4421	294.6	2.5
0.4881	288	2.5

System: benzene + N-(2-hydroxyethyl)-N,N-dimethylhexan-1-aminium bromide; phases: Crystal, Liquid mixture 2, Liquid mixture 1, Air at 1 atmosphere
Property: Quadruple (quintuple) point temperature, K (Crystal); method: Visual observation
Quadruple (quintuple) point temperature, K	uncertainty
350.99	1

System: benzene + N-(2-hydroxyethyl)-N,N-dimethylhexan-1-aminium bromide; phases: Liquid, Crystal
Property: Solid-liquid equilibrium temperature, K (Liquid); method: VISOBS:UFactor:6
Mole fraction of N-(2-hydroxyethyl)-N,N-dimethylhexan-1-aminium bromide	Pressure, kPa	Solid-liquid equilibrium temperature, K	uncertainty
0.9244	101	351.49	0.93

System: benzene + N-(2-hydroxyethyl)-N,N-dimethylhexan-1-aminium bromide; phases: Liquid mixture 1, Liquid mixture 2
Fixed: Pressure, kPa = 101
Property: Liquid-liquid equilibrium temperature, K (Liquid mixture 1); method: VISOBS:UFactor:16
Mole fraction of N-(2-hydroxyethyl)-N,N-dimethylhexan-1-aminium bromide	Liquid-liquid equilibrium temperature, K	uncertainty
0.3378	398	2.5
0.3934	385.1	2.5
0.4464	380.9	2.5
0.5079	378.1	2.5
0.6259	367.9	2.5
0.6678	365.8	2.5
0.6893	364.5	2.5

System: ethanol + N-(2-hydroxyethyl)-N,N-dimethylhexan-1-aminium bromide; phases: Liquid, Crystal
Fixed: Pressure, kPa = 101
Property: Solid-liquid equilibrium temperature, K (Liquid); method: VISOBS:UFactor:36
Mole fraction of N-(2-hydroxyethyl)-N,N-dimethylhexan-1-aminium bromide	Solid-liquid equilibrium temperature, K	uncertainty
0.6053	280.63	5.62
0.6265	294.89	5.6
0.655	303.99	5.59
0.6764	312.81	5.58
0.7068	317.75	5.58
0.7307	323.76	5.58
0.7596	326.72	5.58
0.797	331.16	5.58
0.8171	336.07	5.59
0.8534	348.6	5.59

System: dodecan-1-ol + N-(2-hydroxyethyl)-N,N-dimethylhexan-1-aminium bromide; phases: Crystal, Liquid mixture 2, Liquid mixture 1, Air at 1 atmosphere
Property: Quadruple (quintuple) point temperature, K (Crystal); method: Visual observation
Quadruple (quintuple) point temperature, K	uncertainty
343.55	1

System: dodecan-1-ol + N-(2-hydroxyethyl)-N,N-dimethylhexan-1-aminium bromide; phases: Liquid mixture 1, Crystal
Fixed: Pressure, kPa = 101
Property: Solid-liquid equilibrium temperature, K (Liquid mixture 1); method: VISOBS:UFactor:4
Mole fraction of N-(2-hydroxyethyl)-N,N-dimethylhexan-1-aminium bromide	Solid-liquid equilibrium temperature, K	uncertainty
0	297.3	0.62
0.0298	297.29	0.62
0.0636	297.19	0.62
0.0803	297.23	0.62
0.1107	297.04	0.62
0.1432	296.46	0.62
0.1571	296.17	0.62
0.2074	295.42	0.62
0.2271	295.58	0.62

System: dodecan-1-ol + N-(2-hydroxyethyl)-N,N-dimethylhexan-1-aminium bromide; phases: Liquid mixture 2, Crystal
Fixed: Pressure, kPa = 101
Property: Solid-liquid equilibrium temperature, K (Liquid mixture 2); method: VISOBS:UFactor:8
Mole fraction of N-(2-hydroxyethyl)-N,N-dimethylhexan-1-aminium bromide	Solid-liquid equilibrium temperature, K	uncertainty
0.2629	298.55	1.28
0.2815	304.33	1.27
0.3014	309.97	1.27
0.3208	315.54	1.26
0.3419	319.44	1.26
0.3668	326.16	1.26
0.3957	331.8	1.25
0.4312	338.26	1.25
0.4715	343.55	1.25
0.825	343.55	1.26
0.8374	346.18	1.25
0.8511	348.09	1.24
0.8825	351.39	1.24
0.9553	354.15	1.24
1	355.51	1.24

System: dodecan-1-ol + N-(2-hydroxyethyl)-N,N-dimethylhexan-1-aminium bromide; phases: Liquid mixture 1, Liquid mixture 2
Fixed: Pressure, kPa = 101
Property: Liquid-liquid equilibrium temperature, K (Liquid mixture 1); method: VISOBS:UFactor:8
Mole fraction of N-(2-hydroxyethyl)-N,N-dimethylhexan-1-aminium bromide	Liquid-liquid equilibrium temperature, K	uncertainty
0.504	347.1	1.2
0.5267	348.9	1.2
0.5557	350.3	1.2
0.587	351.8	1.2
0.6335	353.2	1.2
0.6751	353.1	1.2
0.696	352.7	1.2
0.7202	351.2	1.2
0.7461	349.7	1.2
0.7762	347.6	1.2
0.8037	344.9	1.2

System: hexane + hexyl(2-hydroxyethyl)dimethylammonium tetrafluoroborate; phases: Liquid mixture 1, Liquid mixture 2
Fixed: Pressure, kPa = 101
Property: Liquid-liquid equilibrium temperature, K (Liquid mixture 1); method: VISOBS:UFactor:24
Mole fraction of hexyl(2-hydroxyethyl)dimethylammonium tetrafluoroborate	Liquid-liquid equilibrium temperature, K	uncertainty
0.3265	427	3.7
0.3558	420.1	3.7
0.3836	414.8	3.7
0.432	408.9	3.7
0.4673	399.1	3.7
0.5085	389.4	3.7
0.5719	377.8	3.7
0.6418	366.5	3.7
0.7109	360.1	3.7
0.7663	357.1	3.7
0.8229	356.1	3.7
0.8699	354.6	3.7
0.9102	353.5	3.7
0.9392	353.1	3.7
0.978	352	3.7

System: dodecan-1-ol + hexyl(2-hydroxyethyl)dimethylammonium tetrafluoroborate; phases: Crystal, Liquid mixture 2, Liquid mixture 1, Air at 1 atmosphere
Property: Quadruple (quintuple) point temperature, K (Crystal); method: Visual observation
Quadruple (quintuple) point temperature, K	uncertainty
296.96	1

System: dodecan-1-ol + hexyl(2-hydroxyethyl)dimethylammonium tetrafluoroborate; phases: Liquid mixture 1, Liquid mixture 2
Fixed: Pressure, kPa = 101
Property: Liquid-liquid equilibrium temperature, K (Liquid mixture 1); method: VISOBS:UFactor:24
Mole fraction of hexyl(2-hydroxyethyl)dimethylammonium tetrafluoroborate	Liquid-liquid equilibrium temperature, K	uncertainty
0.0179	345.6	3.8
0.0244	339.2	3.9
0.0326	330.4	3.8
0.0406	326.2	3.7
0.0553	321.7	3.8
0.063	313.3	3.8
0.0724	311.4	3.7
0.0836	307.9	3.7
0.0953	306	3.7
0.113	303.4	3.7
0.1218	302.1	3.7
0.1322	301.1	3.7

System: dodecan-1-ol + hexyl(2-hydroxyethyl)dimethylammonium tetrafluoroborate; phases: Liquid, Crystal
Fixed: Pressure, kPa = 101
Property: Solid-liquid equilibrium temperature, K (Liquid); method: VISOBS:UFactor:8
Mole fraction of hexyl(2-hydroxyethyl)dimethylammonium tetrafluoroborate	Solid-liquid equilibrium temperature, K	uncertainty
0.1615	296.92	1.24
0.1902	296.77	1.24
0.2151	296.75	1.24
0.243	296.61	1.24
0.27	296.47	1.24
0.2806	296.4	1.24
0.3167	296.49	1.24
0.3969	296.31	1.24
0.4478	295.99	1.24
0.5022	295.53	1.24
0.5719	295.11	1.24
0.6094	294.95	1.24
0.6666	294.36	1.24
0.7381	293.6	1.24
0.8061	292.9	1.24
0.8122	293.19	1.24
0.8651	291.93	1.24

System: octan-1-ol + (2-decanoyloxyethyl)dimethylpentyloxymethylammonium trifluoroacetate; phases: Crystal, Liquid, Crystal, Air at 1 atmosphere
Property: Eutectic temperature, K (Crystal); method: Derived from phase diagram analysis
Eutectic temperature, K	uncertainty
256.9	1

System: octan-1-ol + (2-decanoyloxyethyl)dimethylpentyloxymethylammonium trifluoroacetate; phases: Crystal, Liquid, Crystal, Air at 1 atmosphere
Property: Eutectic composition: mole fraction of (2-decanoyloxyethyl)dimethylpentyloxymethylammonium trifluoroacetate (Crystal); method: Derived from phase diagram analysis
Eutectic composition: mole fraction of (2-decanoyloxyethyl)dimethylpentyloxymethylammonium trifluoroacetate	uncertainty
0.0606	0.02

System: octan-1-ol + (2-decanoyloxyethyl)dimethylpentyloxymethylammonium trifluoroacetate; phases: Liquid, Crystal 1
Fixed: Pressure, kPa = 101
Property: Solid-liquid equilibrium temperature, K (Liquid); method: VISOBS:UFactor:4
Mole fraction of (2-decanoyloxyethyl)dimethylpentyloxymethylammonium trifluoroacetate	Solid-liquid equilibrium temperature, K	uncertainty
0	258.2	0.62
0.0184	257.8	0.62
0.0381	257.6	0.62

System: octan-1-ol + (2-decanoyloxyethyl)dimethylpentyloxymethylammonium trifluoroacetate; phases: Liquid, Crystal
Fixed: Pressure, kPa = 101
Property: Solid-liquid equilibrium temperature, K (Liquid); method: VISOBS:UFactor:8
Mole fraction of (2-decanoyloxyethyl)dimethylpentyloxymethylammonium trifluoroacetate	Solid-liquid equilibrium temperature, K	uncertainty
0.0955	259.4	1.24
0.1236	261.1	1.24
0.156	262.9	1.24
0.1817	263.6	1.24
0.2119	264.3	1.24
0.2429	264.8	1.24
0.2728	266.1	1.24
0.313	267.5	1.24
0.3445	268.7	1.24
0.3886	270.2	1.24
0.4399	271.7	1.24
0.469	272.2	1.24
0.5028	272.7	1.24
0.5435	273.2	1.24
0.5886	274.2	1.24
0.6552	275.1	1.24
0.7403	276.9	1.24
0.8193	278.1	1.24
0.9239	279.7	1.24
1	279.8	1.24

System: octan-1-ol + (2-methyloyoxyethyl)dimethylpentyloxyammonium acesulfamate; phases: Liquid mixture 1, Liquid mixture 2
Fixed: Pressure, kPa = 101
Property: Liquid-liquid equilibrium temperature, K (Liquid mixture 1); method: VISOBS:UFactor:16
Mole fraction of (2-methyloyoxyethyl)dimethylpentyloxyammonium acesulfamate	Liquid-liquid equilibrium temperature, K	uncertainty
0.0162	295.2	2.6
0.022	299.8	2.5
0.0365	304.4	2.5
0.0572	305.8	2.5
0.0734	304.6	2.5
0.0922	302.9	2.5
0.1131	301.4	2.5
0.136	299.3	2.5
0.157	297.3	2.5
0.1791	295	2.5
0.2072	292.1	2.5
0.2353	289	2.5
0.2564	286.6	2.5
0.282	284.4	2.5
0.3091	281.9	2.5
0.3413	278.9	2.5
0.3722	276.6	2.5
0.4	274.2	2.5
0.4222	272.7	2.5
0.4551	270.2	2.5
0.494	267.2	2.5
0.523	264.6	2.5
0.5521	261.6	2.5

System: octan-1-ol + (2-hydroxyethyl)-dimethylundecyloxymethylammonium dicyanamide; phases: Crystal, Liquid mixture 2, Liquid mixture 1, Air at 1 atmosphere
Property: Quadruple (quintuple) point temperature, K (Crystal); method: Visual observation
Quadruple (quintuple) point temperature, K	uncertainty
282	1

System: octan-1-ol + (2-hydroxyethyl)-dimethylundecyloxymethylammonium dicyanamide; phases: Crystal, Liquid, Crystal, Air at 1 atmosphere
Property: Eutectic temperature, K (Crystal); method: Derived from phase diagram analysis
Eutectic temperature, K	uncertainty
253.4	1

System: octan-1-ol + (2-hydroxyethyl)-dimethylundecyloxymethylammonium dicyanamide; phases: Crystal, Liquid, Crystal, Air at 1 atmosphere
Property: Eutectic composition: mole fraction of (2-hydroxyethyl)-dimethylundecyloxymethylammonium dicyanamide (Crystal); method: Derived from phase diagram analysis
Eutectic composition: mole fraction of (2-hydroxyethyl)-dimethylundecyloxymethylammonium dicyanamide	uncertainty
0.06	0.01

System: octan-1-ol + (2-hydroxyethyl)-dimethylundecyloxymethylammonium dicyanamide; phases: Liquid mixture 1, Liquid mixture 2
Fixed: Pressure, kPa = 101
Property: Liquid-liquid equilibrium temperature, K (Liquid mixture 1); method: VISOBS:UFactor:16
Mole fraction of (2-hydroxyethyl)-dimethylundecyloxymethylammonium dicyanamide	Liquid-liquid equilibrium temperature, K	uncertainty
0.5137	293.7	2.5
0.5669	303.8	2.5
0.6242	310.1	2.5
0.7077	312.9	2.5
0.7508	311	2.5
0.8234	305.4	2.5
0.909	289.5	2.5

System: octan-1-ol + (2-hydroxyethyl)-dimethylundecyloxymethylammonium dicyanamide; phases: Liquid, Crystal
Fixed: Pressure, kPa = 101
Property: Solid-liquid equilibrium temperature, K (Liquid); method: VISOBS:UFactor:8
Mole fraction of (2-hydroxyethyl)-dimethylundecyloxymethylammonium dicyanamide	Solid-liquid equilibrium temperature, K	uncertainty
0	258.2	1.24
0.0378	257.77	1.24
0.0635	257.33	1.24
0.0864	256.61	1.24
0.1221	255.8	1.24
0.1406	254.95	1.24
0.1632	254.47	1.24
0.1981	254.44	1.24
0.2228	253.37	1.24

System: octan-1-ol + (2-hydroxyethyl)-dimethylundecyloxymethylammonium dicyanamide; phases: Liquid, Crystal
Fixed: Pressure, kPa = 101
Property: Solid-liquid equilibrium temperature, K (Liquid); method: VISOBS:UFactor:8
Mole fraction of (2-hydroxyethyl)-dimethylundecyloxymethylammonium dicyanamide	Solid-liquid equilibrium temperature, K	uncertainty
0.3562	259	1.26
0.3814	264.39	1.26
0.4108	271.7	1.26
0.445	279.68	1.26
0.945	282	1.24
1	283.54	1.24

System: hexane + 1-ethyl-3-methylimidazolium 4-methylbenzenesulfonate; phases: Liquid, Crystal
Fixed: Pressure, kPa = 101
Property: Solid-liquid equilibrium temperature, K (Liquid); method: VISOBS:UFactor:8
Mole fraction of 1-ethyl-3-methylimidazolium 4-methylbenzenesulfonate	Solid-liquid equilibrium temperature, K	uncertainty
0.0566	317.72	1.24
0.2221	317.52	1.24
0.3599	317.81	1.24
0.4758	317.47	1.24
0.5928	318.02	1.24
0.6891	317.81	1.24
0.7908	318.84	1.24
0.8913	319.47	1.24
1	322.93	1.24
