Measured thermophysical data. Hypothetical Thermodynamic Properties: Vapor Pressures and Vaporization Enthalpies of the Even n-Alkanes from C40 to C76 at T = 298.15 K by Correlation-Gas Chromatography. Are the Vaporization Enthalpies a Linear Function of Carbon Number?
Source: J. Chem. Eng. Data, 2008, 10.1021/je7005852
Compound 1: octahexacontane, C68H138, InChI=1S/C68H138/c1-3-5-7-9-11-13-15-17-19-21-23-25-27-29-31-33-35-37-39-41-43-45-47-49-51-53-55-57-59-61-63-65-67-68-66-64-62-60-58-56-54-52-50-48-46-44-42-40-38-36-34-32-30-28-26-24-22-20-18-16-14-12-10-8-6-4-2/h3-68H2,1-2H3
Compound 2: heptacontane, C70H142, InChI=1S/C70H142/c1-3-5-7-9-11-13-15-17-19-21-23-25-27-29-31-33-35-37-39-41-43-45-47-49-51-53-55-57-59-61-63-65-67-69-70-68-66-64-62-60-58-56-54-52-50-48-46-44-42-40-38-36-34-32-30-28-26-24-22-20-18-16-14-12-10-8-6-4-2/h3-70H2,1-2H3
Compound 3: doheptacontane, C72H146, InChI=1S/C72H146/c1-3-5-7-9-11-13-15-17-19-21-23-25-27-29-31-33-35-37-39-41-43-45-47-49-51-53-55-57-59-61-63-65-67-69-71-72-70-68-66-64-62-60-58-56-54-52-50-48-46-44-42-40-38-36-34-32-30-28-26-24-22-20-18-16-14-12-10-8-6-4-2/h3-72H2,1-2H3
Compound 4: tetraheptacontane, C74H150, InChI=1S/C74H150/c1-3-5-7-9-11-13-15-17-19-21-23-25-27-29-31-33-35-37-39-41-43-45-47-49-51-53-55-57-59-61-63-65-67-69-71-73-74-72-70-68-66-64-62-60-58-56-54-52-50-48-46-44-42-40-38-36-34-32-30-28-26-24-22-20-18-16-14-12-10-8-6-4-2/h3-74H2,1-2H3
Compound 5: hexaheptacontane, C76H154, InChI=1S/C76H154/c1-3-5-7-9-11-13-15-17-19-21-23-25-27-29-31-33-35-37-39-41-43-45-47-49-51-53-55-57-59-61-63-65-67-69-71-73-75-76-74-72-70-68-66-64-62-60-58-56-54-52-50-48-46-44-42-40-38-36-34-32-30-28-26-24-22-20-18-16-14-12-10-8-6-4-2/h3-76H2,1-2H3
Compound 6: tetracontane, C40H82, InChI=1S/C40H82/c1-3-5-7-9-11-13-15-17-19-21-23-25-27-29-31-33-35-37-39-40-38-36-34-32-30-28-26-24-22-20-18-16-14-12-10-8-6-4-2/h3-40H2,1-2H3
Compound 7: dotetracontane, C42H86, InChI=1S/C42H86/c1-3-5-7-9-11-13-15-17-19-21-23-25-27-29-31-33-35-37-39-41-42-40-38-36-34-32-30-28-26-24-22-20-18-16-14-12-10-8-6-4-2/h3-42H2,1-2H3
Compound 8: tetratetracontane, C44H90, InChI=1S/C44H90/c1-3-5-7-9-11-13-15-17-19-21-23-25-27-29-31-33-35-37-39-41-43-44-42-40-38-36-34-32-30-28-26-24-22-20-18-16-14-12-10-8-6-4-2/h3-44H2,1-2H3
Compound 9: hexatetracontane, C46H94, InChI=1S/C46H94/c1-3-5-7-9-11-13-15-17-19-21-23-25-27-29-31-33-35-37-39-41-43-45-46-44-42-40-38-36-34-32-30-28-26-24-22-20-18-16-14-12-10-8-6-4-2/h3-46H2,1-2H3
Compound 10: octatetracontane, C48H98, InChI=1S/C48H98/c1-3-5-7-9-11-13-15-17-19-21-23-25-27-29-31-33-35-37-39-41-43-45-47-48-46-44-42-40-38-36-34-32-30-28-26-24-22-20-18-16-14-12-10-8-6-4-2/h3-48H2,1-2H3
Compound 11: pentacontane, C50H102, InChI=1S/C50H102/c1-3-5-7-9-11-13-15-17-19-21-23-25-27-29-31-33-35-37-39-41-43-45-47-49-50-48-46-44-42-40-38-36-34-32-30-28-26-24-22-20-18-16-14-12-10-8-6-4-2/h3-50H2,1-2H3
Compound 12: dopentacontane, C52H106, InChI=1S/C52H106/c1-3-5-7-9-11-13-15-17-19-21-23-25-27-29-31-33-35-37-39-41-43-45-47-49-51-52-50-48-46-44-42-40-38-36-34-32-30-28-26-24-22-20-18-16-14-12-10-8-6-4-2/h3-52H2,1-2H3
Compound 13: tetrapentacontane, C54H110, InChI=1S/C54H110/c1-3-5-7-9-11-13-15-17-19-21-23-25-27-29-31-33-35-37-39-41-43-45-47-49-51-53-54-52-50-48-46-44-42-40-38-36-34-32-30-28-26-24-22-20-18-16-14-12-10-8-6-4-2/h3-54H2,1-2H3
Compound 14: hexapentacontane, C56H114, InChI=1S/C56H114/c1-3-5-7-9-11-13-15-17-19-21-23-25-27-29-31-33-35-37-39-41-43-45-47-49-51-53-55-56-54-52-50-48-46-44-42-40-38-36-34-32-30-28-26-24-22-20-18-16-14-12-10-8-6-4-2/h3-56H2,1-2H3
Compound 15: octapentacontane, C58H118, InChI=1S/C58H118/c1-3-5-7-9-11-13-15-17-19-21-23-25-27-29-31-33-35-37-39-41-43-45-47-49-51-53-55-57-58-56-54-52-50-48-46-44-42-40-38-36-34-32-30-28-26-24-22-20-18-16-14-12-10-8-6-4-2/h3-58H2,1-2H3
Compound 16: hexacontane, C60H122, InChI=1S/C60H122/c1-3-5-7-9-11-13-15-17-19-21-23-25-27-29-31-33-35-37-39-41-43-45-47-49-51-53-55-57-59-60-58-56-54-52-50-48-46-44-42-40-38-36-34-32-30-28-26-24-22-20-18-16-14-12-10-8-6-4-2/h3-60H2,1-2H3
Compound 17: dohexacontane, C62H126, InChI=1S/C62H126/c1-3-5-7-9-11-13-15-17-19-21-23-25-27-29-31-33-35-37-39-41-43-45-47-49-51-53-55-57-59-61-62-60-58-56-54-52-50-48-46-44-42-40-38-36-34-32-30-28-26-24-22-20-18-16-14-12-10-8-6-4-2/h3-62H2,1-2H3
Compound 18: tetrahexacontane, C64H130, InChI=1S/C64H130/c1-3-5-7-9-11-13-15-17-19-21-23-25-27-29-31-33-35-37-39-41-43-45-47-49-51-53-55-57-59-61-63-64-62-60-58-56-54-52-50-48-46-44-42-40-38-36-34-32-30-28-26-24-22-20-18-16-14-12-10-8-6-4-2/h3-64H2,1-2H3
Compound 19: hexahexacontane, C66H134, InChI=1S/C66H134/c1-3-5-7-9-11-13-15-17-19-21-23-25-27-29-31-33-35-37-39-41-43-45-47-49-51-53-55-57-59-61-63-65-66-64-62-60-58-56-54-52-50-48-46-44-42-40-38-36-34-32-30-28-26-24-22-20-18-16-14-12-10-8-6-4-2/h3-66H2,1-2H3

System: octahexacontane; phases: Liquid, Gas
Property: Molar enthalpy of vaporization or sublimation, kJ/mol (Liquid); method: Correlation gas chromatography
Temperature, K	Molar enthalpy of vaporization or sublimation, kJ/mol	uncertainty
298.15	331.9	5.7

System: octahexacontane; phases: Liquid, Gas
Property: Vapor or sublimation pressure, kPa (Liquid); method: Correlation Gas Chromatography
Temperature, K	Vapor or sublimation pressure, kPa	uncertainty
298.15	5.81e-28	2.37e-27
318.15	2.37e-24	1.41e-24
338.15	2.77e-21	6.5e-22
358.15	1.17e-18	1.6e-19
378.15	2.15e-16	2.4e-17
398.15	1.98e-14	2.1e-15
418.15	1.02e-12	1e-13
438.15	3.24e-11	3.3e-12
458.15	6.81e-10	6.9e-11
478.15	1.01e-08	1e-09
498.15	1.11e-07	1.1e-08
518.15	9.47e-07	9.5e-08
520	1.14e-06	1.1e-07

System: heptacontane; phases: Liquid, Gas
Property: Molar enthalpy of vaporization or sublimation, kJ/mol (Liquid); method: Correlation gas chromatography
Temperature, K	Molar enthalpy of vaporization or sublimation, kJ/mol	uncertainty
298.15	340.3	5.8

System: heptacontane; phases: Liquid, Gas
Property: Vapor or sublimation pressure, kPa (Liquid); method: Correlation Gas Chromatography
Temperature, K	Vapor or sublimation pressure, kPa	uncertainty
298.15	9.65e-29	4.84e-28
318.15	4.84e-25	3.41e-25
338.15	6.75e-22	1.79e-22
358.15	3.32e-19	4.8e-20
378.15	6.94e-17	7.8e-18
398.15	7.12e-15	7.4e-16
418.15	4.04e-13	4.1e-14
438.15	1.4e-11	1.4e-12
458.15	3.17e-10	3.2e-11
478.15	5.02e-09	5.1e-10
498.15	5.87e-08	5.9e-09
518.15	5.26e-07	5.3e-08
520	6.37e-07	6.4e-08

System: doheptacontane; phases: Liquid, Gas
Property: Molar enthalpy of vaporization or sublimation, kJ/mol (Liquid); method: Correlation gas chromatography
Temperature, K	Molar enthalpy of vaporization or sublimation, kJ/mol	uncertainty
298.15	348.4	5.9

System: doheptacontane; phases: Liquid, Gas
Property: Vapor or sublimation pressure, kPa (Liquid); method: Correlation Gas Chromatography
Temperature, K	Vapor or sublimation pressure, kPa	uncertainty
298.15	1.66e-29	1.02e-28
318.15	1.02e-25	8.5e-26
338.15	1.69e-22	5.1e-23
358.15	9.63e-20	1.5e-20
378.15	2.28e-17	2.6e-18
398.15	2.61e-15	2.7e-16
418.15	1.63e-13	1.7e-14
438.15	6.12e-12	6.2e-13
458.15	1.49e-10	1.5e-11
478.15	2.53e-09	2.5e-10
498.15	3.12e-08	3.1e-09
518.15	2.95e-07	3e-08
520	3.59e-07	3.6e-08

System: tetraheptacontane; phases: Liquid, Gas
Property: Molar enthalpy of vaporization or sublimation, kJ/mol (Liquid); method: Correlation gas chromatography
Temperature, K	Molar enthalpy of vaporization or sublimation, kJ/mol	uncertainty
298.15	356.2	6.1

System: tetraheptacontane; phases: Liquid, Gas
Property: Vapor or sublimation pressure, kPa (Liquid); method: Correlation Gas Chromatography
Temperature, K	Vapor or sublimation pressure, kPa	uncertainty
298.15	2.96e-30	2.22e-29
318.15	2.22e-26	2.19e-26
338.15	4.35e-23	1.5e-23
358.15	2.86e-20	4.8e-21
378.15	7.64e-18	9.1e-19
398.15	9.72e-16	1.03e-16
418.15	6.66e-14	6.8e-15
438.15	2.71e-12	2.7e-13
458.15	7.1e-11	7.2e-12
478.15	1.28e-09	1.3e-10
498.15	1.67e-08	1.7e-09
518.15	1.66e-07	1.7e-08
520	2.03e-07	2e-08

System: hexaheptacontane; phases: Liquid, Gas
Property: Molar enthalpy of vaporization or sublimation, kJ/mol (Liquid); method: Correlation gas chromatography
Temperature, K	Molar enthalpy of vaporization or sublimation, kJ/mol	uncertainty
298.15	364.3	6.2

System: hexaheptacontane; phases: Liquid, Gas
Property: Vapor or sublimation pressure, kPa (Liquid); method: Correlation Gas Chromatography
Temperature, K	Vapor or sublimation pressure, kPa	uncertainty
298.15	5.14e-31	4.72e-30
318.15	4.72e-27	5.52e-27
338.15	1.1e-23	4.3e-24
358.15	8.33e-21	1.52e-21
378.15	2.53e-18	3.1e-19
398.15	3.58e-16	3.8e-17
418.15	2.7e-14	2.8e-15
438.15	1.19e-12	1.2e-13
458.15	3.36e-11	3.4e-12
478.15	6.45e-10	6.5e-11
498.15	8.93e-09	9e-10
518.15	9.34e-08	9.4e-09
520	1.15e-07	1.2e-08

System: tetracontane; phases: Liquid, Gas
Property: Molar enthalpy of vaporization or sublimation, kJ/mol (Liquid); method: Correlation gas chromatography
Temperature, K	Molar enthalpy of vaporization or sublimation, kJ/mol	uncertainty
298.15	203.5	3.7

System: tetracontane; phases: Liquid, Gas
Property: Vapor or sublimation pressure, kPa (Liquid); method: Correlation Gas Chromatography
Temperature, K	Vapor or sublimation pressure, kPa	uncertainty
298.15	5.39e-16	1.02e-16
318.15	8.73e-14	9.4e-15
338.15	6.71e-12	6.9e-13
358.15	2.79e-10	2.8e-11
378.15	6.99e-09	7e-10
398.15	1.15e-07	1.2e-08
418.15	1.32e-06	1.3e-07
438.15	1.12e-05	1.1e-06
458.15	7.39e-05	7.4e-06
478.15	0.000393	4e-05
498.15	0.00173	0.00017
518.15	0.00652	0.00066
520	0.00732	0.00074

System: dotetracontane; phases: Liquid, Gas
Property: Molar enthalpy of vaporization or sublimation, kJ/mol (Liquid); method: Correlation gas chromatography
Temperature, K	Molar enthalpy of vaporization or sublimation, kJ/mol	uncertainty
298.15	213.5	5

System: dotetracontane; phases: Liquid, Gas
Property: Vapor or sublimation pressure, kPa (Liquid); method: Correlation Gas Chromatography
Temperature, K	Vapor or sublimation pressure, kPa	uncertainty
298.15	6.24e-17	1.44e-17
318.15	1.3e-14	1.4e-15
338.15	1.24e-12	1.3e-13
358.15	6.2e-11	6.3e-12
378.15	1.82e-09	1.8e-10
398.15	3.41e-08	3.4e-09
418.15	4.41e-07	4.4e-08
438.15	4.17e-06	4.2e-07
458.15	3.02e-05	3e-06
478.15	0.000174	1.7e-05
498.15	0.000824	8.3e-05
518.15	0.0033	0.00033
520	0.00373	0.00037

System: tetratetracontane; phases: Liquid, Gas
Property: Molar enthalpy of vaporization or sublimation, kJ/mol (Liquid); method: Correlation gas chromatography
Temperature, K	Molar enthalpy of vaporization or sublimation, kJ/mol	uncertainty
298.15	223.7	4.1

System: tetratetracontane; phases: Liquid, Gas
Property: Vapor or sublimation pressure, kPa (Liquid); method: Correlation Gas Chromatography
Temperature, K	Vapor or sublimation pressure, kPa	uncertainty
298.15	7.15e-18	2.04e-18
318.15	1.92e-15	2.2e-16
338.15	2.28e-13	2.4e-14
358.15	1.37e-11	1.4e-12
378.15	4.73e-10	4.8e-11
398.15	1.02e-08	1e-09
418.15	1.49e-07	1.5e-08
438.15	1.57e-06	1.6e-07
458.15	1.24e-05	1.2e-06
478.15	7.78e-05	7.8e-06
498.15	0.000397	4e-05
518.15	0.0017	0.00017
520	0.00193	0.00019

System: hexatetracontane; phases: Liquid, Gas
Property: Molar enthalpy of vaporization or sublimation, kJ/mol (Liquid); method: Correlation gas chromatography
Temperature, K	Molar enthalpy of vaporization or sublimation, kJ/mol	uncertainty
298.15	233.3	5.4

System: hexatetracontane; phases: Liquid, Gas
Property: Vapor or sublimation pressure, kPa (Liquid); method: Correlation Gas Chromatography
Temperature, K	Vapor or sublimation pressure, kPa	uncertainty
298.15	8.86e-19	3.16e-19
318.15	3.04e-16	3.8e-17
338.15	4.42e-14	4.7e-15
358.15	3.17e-12	3.2e-13
378.15	1.27e-10	1.3e-11
398.15	3.12e-09	3.1e-10
418.15	5.11e-08	5.1e-09
438.15	5.93e-07	6e-08
458.15	5.14e-06	5.2e-07
478.15	3.48e-05	3.5e-06
498.15	0.00019	1.9e-05
518.15	0.000864	8.7e-05
520	0.000986	9.9e-05

System: octatetracontane; phases: Liquid, Gas
Property: Molar enthalpy of vaporization or sublimation, kJ/mol (Liquid); method: Correlation gas chromatography
Temperature, K	Molar enthalpy of vaporization or sublimation, kJ/mol	uncertainty
298.15	243	4.3

System: octatetracontane; phases: Liquid, Gas
Property: Vapor or sublimation pressure, kPa (Liquid); method: Correlation Gas Chromatography
Temperature, K	Vapor or sublimation pressure, kPa	uncertainty
298.15	1.1e-19	4.9e-20
318.15	4.82e-17	6.5e-18
338.15	8.63e-15	9.4e-16
358.15	7.4e-13	7.6e-14
378.15	3.46e-11	3.5e-12
398.15	9.71e-10	9.8e-11
418.15	1.78e-08	1.8e-09
438.15	2.29e-07	2.3e-08
458.15	2.17e-06	2.2e-07
478.15	1.59e-05	1.6e-06
498.15	9.3e-05	9.3e-06
518.15	0.00045	4.5e-05
520	0.000516	5.2e-05

System: pentacontane; phases: Liquid, Gas
Property: Molar enthalpy of vaporization or sublimation, kJ/mol (Liquid); method: Correlation gas chromatography
Temperature, K	Molar enthalpy of vaporization or sublimation, kJ/mol	uncertainty
298.15	252.5	4.5

System: pentacontane; phases: Liquid, Gas
Property: Vapor or sublimation pressure, kPa (Liquid); method: Correlation Gas Chromatography
Temperature, K	Vapor or sublimation pressure, kPa	uncertainty
298.15	1.41e-20	8e-21
318.15	7.84e-18	1.17e-18
338.15	1.72e-15	1.9e-16
358.15	1.76e-13	1.8e-14
378.15	9.53e-12	9.7e-13
398.15	3.05e-10	3.1e-11
418.15	6.27e-09	6.3e-10
438.15	8.89e-08	8.9e-09
458.15	9.19e-07	9.2e-08
478.15	7.25e-06	7.3e-07
498.15	4.55e-05	4.6e-06
518.15	0.000234	2.4e-05
520	0.000269	2.7e-05

System: dopentacontane; phases: Liquid, Gas
Property: Molar enthalpy of vaporization or sublimation, kJ/mol (Liquid); method: Correlation gas chromatography
Temperature, K	Molar enthalpy of vaporization or sublimation, kJ/mol	uncertainty
298.15	261.8	5.2

System: dopentacontane; phases: Liquid, Gas
Property: Vapor or sublimation pressure, kPa (Liquid); method: Correlation Gas Chromatography
Temperature, K	Vapor or sublimation pressure, kPa	uncertainty
298.15	2.05e-21	1.46e-21
318.15	1.45e-18	2.4e-19
338.15	3.87e-16	4.5e-17
358.15	4.61e-14	4.8e-15
378.15	2.84e-12	2.9e-13
398.15	1.02e-10	1e-11
418.15	2.3e-09	2.3e-10
438.15	3.56e-08	3.6e-09
458.15	3.98e-07	4e-08
478.15	3.38e-06	3.4e-07
498.15	2.26e-05	2.3e-06
518.15	0.000124	1.2e-05
520	0.000144	1.4e-05

System: tetrapentacontane; phases: Liquid, Gas
Property: Molar enthalpy of vaporization or sublimation, kJ/mol (Liquid); method: Correlation gas chromatography
Temperature, K	Molar enthalpy of vaporization or sublimation, kJ/mol	uncertainty
298.15	271	5.5

System: tetrapentacontane; phases: Liquid, Gas
Property: Vapor or sublimation pressure, kPa (Liquid); method: Correlation Gas Chromatography
Temperature, K	Vapor or sublimation pressure, kPa	uncertainty
298.15	2.85e-22	2.56e-22
318.15	2.55e-19	4.8e-20
338.15	8.23e-17	1.01e-17
358.15	1.16e-14	1.2e-15
378.15	8.24e-13	8.4e-14
398.15	3.33e-11	3.4e-12
418.15	8.41e-10	8.5e-11
438.15	1.43e-08	1.4e-09
458.15	1.73e-07	1.7e-08
478.15	1.58e-06	1.6e-07
498.15	1.13e-05	1.1e-06
518.15	6.57e-05	6.6e-06
520	7.66e-05	7.7e-06

System: hexapentacontane; phases: Liquid, Gas
Property: Molar enthalpy of vaporization or sublimation, kJ/mol (Liquid); method: Correlation gas chromatography
Temperature, K	Molar enthalpy of vaporization or sublimation, kJ/mol	uncertainty
298.15	279.7	5.4

System: hexapentacontane; phases: Liquid, Gas
Property: Vapor or sublimation pressure, kPa (Liquid); method: Correlation Gas Chromatography
Temperature, K	Vapor or sublimation pressure, kPa	uncertainty
298.15	4.36e-23	4.86e-23
318.15	4.84e-20	1.06e-20
338.15	1.88e-17	2.4e-18
358.15	3.09e-15	3.4e-16
378.15	2.52e-13	2.6e-14
398.15	1.15e-11	1.2e-12
418.15	3.21e-10	3.2e-11
438.15	5.96e-09	6e-10
458.15	7.83e-08	7.9e-09
478.15	7.66e-07	7.7e-08
498.15	5.83e-06	5.9e-07
518.15	3.57e-05	3.6e-06
520	4.18e-05	4.2e-06

System: octapentacontane; phases: Liquid, Gas
Property: Molar enthalpy of vaporization or sublimation, kJ/mol (Liquid); method: Correlation gas chromatography
Temperature, K	Molar enthalpy of vaporization or sublimation, kJ/mol	uncertainty
298.15	288.5	5.8

System: octapentacontane; phases: Liquid, Gas
Property: Vapor or sublimation pressure, kPa (Liquid); method: Correlation Gas Chromatography
Temperature, K	Vapor or sublimation pressure, kPa	uncertainty
298.15	6.58e-24	9.08e-24
318.15	9.06e-21	2.3e-21
338.15	4.23e-18	5.9e-19
358.15	8.17e-16	9.1e-17
378.15	7.64e-14	7.9e-15
398.15	3.91e-12	4e-13
418.15	1.21e-10	1.2e-11
438.15	2.46e-09	2.5e-10
458.15	3.5e-08	3.5e-09
478.15	3.67e-07	3.7e-08
498.15	2.97e-06	3e-07
518.15	1.92e-05	1.9e-06
520	2.26e-05	2.3e-06

System: hexacontane; phases: Liquid, Gas
Property: Molar enthalpy of vaporization or sublimation, kJ/mol (Liquid); method: Correlation gas chromatography
Temperature, K	Molar enthalpy of vaporization or sublimation, kJ/mol	uncertainty
298.15	299.9	6.2

System: hexacontane; phases: Liquid, Gas
Property: Vapor or sublimation pressure, kPa (Liquid); method: Correlation Gas Chromatography
Temperature, K	Vapor or sublimation pressure, kPa	uncertainty
298.15	7.08e-25	1.251e-24
318.15	1.25e-21	3.9e-22
338.15	7.34e-19	1.14e-19
358.15	1.74e-16	2e-17
378.15	1.95e-14	2e-15
398.15	1.17e-12	1.2e-13
418.15	4.16e-11	4.2e-12
438.15	9.53e-10	9.6e-11
458.15	1.5e-08	1.5e-09
478.15	1.72e-07	1.7e-08
498.15	1.5e-06	1.5e-07
518.15	1.03e-05	1e-06
520	1.22e-05	1.2e-06

System: dohexacontane; phases: Liquid, Gas
Property: Molar enthalpy of vaporization or sublimation, kJ/mol (Liquid); method: Correlation gas chromatography
Temperature, K	Molar enthalpy of vaporization or sublimation, kJ/mol	uncertainty
298.15	306.8	5.3

System: dohexacontane; phases: Liquid, Gas
Property: Vapor or sublimation pressure, kPa (Liquid); method: Correlation Gas Chromatography
Temperature, K	Vapor or sublimation pressure, kPa	uncertainty
298.15	1.35e-25	2.92e-25
318.15	2.92e-22	1.04e-22
338.15	2e-19	3.4e-20
358.15	5.38e-17	6.4e-18
378.15	6.69e-15	7.1e-16
398.15	4.39e-13	4.5e-14
418.15	1.69e-11	1.7e-12
438.15	4.14e-10	4.2e-11
458.15	6.94e-09	7e-10
478.15	8.42e-08	8.5e-09
498.15	7.75e-07	7.8e-08
518.15	5.62e-06	5.6e-07
520	6.68e-06	6.7e-07

System: tetrahexacontane; phases: Liquid, Gas
Property: Molar enthalpy of vaporization or sublimation, kJ/mol (Liquid); method: Correlation gas chromatography
Temperature, K	Molar enthalpy of vaporization or sublimation, kJ/mol	uncertainty
298.15	315.4	5.4

System: tetrahexacontane; phases: Liquid, Gas
Property: Vapor or sublimation pressure, kPa (Liquid); method: Correlation Gas Chromatography
Temperature, K	Vapor or sublimation pressure, kPa	uncertainty
298.15	2.1e-26	5.65e-26
318.15	5.65e-23	2.39e-23
338.15	4.65e-20	8.7e-21
358.15	1.46e-17	1.8e-18
378.15	2.08e-15	2.2e-16
398.15	1.53e-13	1.6e-14
418.15	6.5e-12	6.6e-13
438.15	1.74e-10	1.8e-11
458.15	3.16e-09	3.2e-10
478.15	4.1e-08	4.1e-09
498.15	4.02e-07	4e-08
518.15	3.08e-06	3.1e-07
520	3.67e-06	3.7e-07

System: hexahexacontane; phases: Liquid, Gas
Property: Molar enthalpy of vaporization or sublimation, kJ/mol (Liquid); method: Correlation gas chromatography
Temperature, K	Molar enthalpy of vaporization or sublimation, kJ/mol	uncertainty
298.15	324	5.6

System: hexahexacontane; phases: Liquid, Gas
Property: Vapor or sublimation pressure, kPa (Liquid); method: Correlation Gas Chromatography
Temperature, K	Vapor or sublimation pressure, kPa	uncertainty
298.15	3.29e-27	1.09e-26
318.15	1.09e-23	5.5e-24
338.15	1.08e-20	2.3e-21
358.15	3.97e-18	5.1e-19
378.15	6.44e-16	7e-17
398.15	5.32e-14	5.5e-15
418.15	2.5e-12	2.5e-13
438.15	7.3e-11	7.4e-12
458.15	1.43e-09	1.4e-10
478.15	1.99e-08	2e-09
498.15	2.07e-07	2.1e-08
518.15	1.68e-06	1.7e-07
520	2.01e-06	2e-07
