Measured thermophysical data. Water Vapor Concentration Enhancement in Compressed Humid Nitrogen, Argon, and Carbon Dioxide Measured by Fourier Transform Infrared Spectroscopy
Source: J. Chem. Eng. Data, 2008, 10.1021/je700386c
Compound 1: water, H2O, InChI=1S/H2O/h1H2
Compound 2: nitrogen, N2, InChI=1S/N2/c1-2
Compound 3: argon, Ar, InChI=1S/Ar
Compound 4: carbon dioxide, CO2, InChI=1S/CO2/c2-1-3

System: nitrogen + water; phases: Gas, Liquid
Property: Amount concentration (molarity), mol/dm3 (Gas); method: SPECTR
Temperature, K	Pressure, kPa	Amount concentration (molarity), mol/dm3	uncertainty
293.15	100	1.0024	0.0281
293.15	1000	1.0405	0.0292
293.15	2000	1.084	0.0304
293.15	3500	1.1725	0.0329
293.15	5000	1.2313	0.0345
293.15	7500	1.3612	0.0382
293.15	10000	1.4941	0.0419
293.15	12500	1.6252	0.0456
293.15	15000	1.7416	0.0488
293.15	17500	1.8677	0.0524
293.15	20000	1.9829	0.0556
293.15	22500	2.0812	0.0583
293.15	25000	2.1958	0.0615
303.15	100	1.0019	0.0205
303.15	1000	1.0375	0.0212
303.15	2000	1.0973	0.0225
303.15	3500	1.1514	0.0236
303.15	5000	1.2426	0.0254
303.15	7500	1.3401	0.0274
303.15	10000	1.4658	0.03
303.15	12500	1.5593	0.0319
303.15	15000	1.6951	0.0347
303.15	17500	1.8053	0.037
303.15	20000	1.9178	0.0393
303.15	22500	2.036	0.0417
303.15	25000	2.1418	0.0438
313.15	100	1.0055	0.0177
313.15	1000	1.0402	0.0183
313.15	2000	1.0807	0.019
313.15	3500	1.1489	0.0202
313.15	5000	1.2031	0.0211
313.15	7500	1.3181	0.0231
313.15	10000	1.4208	0.0249
313.15	12500	1.5306	0.0269
313.15	15000	1.641	0.0288
313.15	17500	1.7421	0.0306
313.15	20000	1.8513	0.0325
313.15	22500	1.9575	0.0344
313.15	25000	2.0544	0.0361
323.15	100	1.0038	0.016
323.15	1000	1.0354	0.0165
323.15	2000	1.0749	0.0172
323.15	3500	1.131	0.0181
323.15	5000	1.1923	0.019
323.15	7500	1.2815	0.0205
323.15	10000	1.3756	0.022
323.15	12500	1.4665	0.0234
323.15	15000	1.5602	0.0249
323.15	17500	1.6549	0.0264
323.15	20000	1.7462	0.0279
323.15	22500	1.8426	0.0294
323.15	25000	1.927	0.0308
333.15	100	1.0046	0.0156
333.15	1000	1.037	0.0161
333.15	2000	1.073	0.0166
333.15	3500	1.1303	0.0175
333.15	5000	1.1801	0.0183
333.15	7500	1.2701	0.0197
333.15	10000	1.3574	0.021
333.15	12500	1.4438	0.0224
333.15	15000	1.5302	0.0237
333.15	17500	1.6098	0.0249
333.15	20000	1.6901	0.0262
333.15	22500	1.7663	0.0274
333.15	25000	1.8406	0.0285
343.15	100	1.0045	0.0156
343.15	1000	1.028	0.0159
343.15	2000	1.0619	0.0165
343.15	3500	1.1073	0.0172
343.15	5000	1.1498	0.0178
343.15	7500	1.2241	0.019
343.15	10000	1.2949	0.0201
343.15	12500	1.3659	0.0212
343.15	15000	1.435	0.0222
343.15	17500	1.5083	0.0234
343.15	20000	1.583	0.0245
343.15	22500	1.6542	0.0256
343.15	25000	1.7139	0.0266
353.15	100	1.0013	0.0155
353.15	1000	1.02	0.0158
353.15	2000	1.0557	0.0164
353.15	3500	1.0933	0.0169
353.15	5000	1.1263	0.0175
353.15	7500	1.1884	0.0184
353.15	10000	1.2536	0.0194
353.15	12500	1.3177	0.0204
353.15	15000	1.378	0.0214
353.15	17500	1.4432	0.0224
353.15	20000	1.507	0.0234
353.15	22500	1.568	0.0243
353.15	25000	1.629	0.0252
363.15	100	1.0038	0.0156
363.15	1000	1.0177	0.0158
363.15	2000	1.0438	0.0162
363.15	3500	1.0743	0.0166
363.15	5000	1.1041	0.0171
363.15	7500	1.1535	0.0179
363.15	10000	1.2081	0.0187
363.15	12500	1.257	0.0195
363.15	15000	1.3086	0.0203
363.15	17500	1.3647	0.0211
363.15	20000	1.4172	0.022
363.15	22500	1.4626	0.0227
363.15	25000	1.5183	0.0235
373.1	1000	1.0146	0.0157
373.1	2000	1.0376	0.0161
373.1	3500	1.0634	0.0165
373.1	5000	1.0888	0.0169
373.1	7500	1.1283	0.0175
373.1	10000	1.1753	0.0182
373.1	12500	1.2192	0.0189
373.1	15000	1.2639	0.0196
373.1	17500	1.3082	0.0203
373.1	20000	1.3518	0.0209
373.1	22500	1.3926	0.0216
373.1	25000	1.4396	0.0223

System: argon + water; phases: Gas, Liquid
Property: Amount concentration (molarity), mol/dm3 (Gas); method: SPECTR
Temperature, K	Pressure, kPa	Amount concentration (molarity), mol/dm3	uncertainty
293.15	100	0.9962	0.0279
293.15	1000	1.0241	0.0287
293.15	2000	1.071	0.03
293.15	3500	1.1198	0.0314
293.15	5000	1.1584	0.0325
293.15	7500	1.2304	0.0345
293.15	10000	1.3145	0.0368
293.15	12500	1.4008	0.0393
293.15	15000	1.4703	0.0412
293.15	17500	1.545	0.0433
293.15	20000	1.6066	0.045
293.15	22500	1.6901	0.0474
293.15	25000	1.7503	0.0491
303.15	100	1.0014	0.0205
303.15	1000	1.0228	0.0209
303.15	2000	1.0497	0.0215
303.15	3500	1.0965	0.0224
303.15	5000	1.1386	0.0233
303.15	7500	1.1973	0.0245
303.15	10000	1.2744	0.0261
303.15	12500	1.3268	0.0272
303.15	15000	1.412	0.0289
303.15	17500	1.4647	0.03
303.15	20000	1.5241	0.0312
303.15	22500	1.588	0.0325
303.15	25000	1.6452	0.0337
313.15	100	1.0037	0.0176
313.15	1000	1.0171	0.0179
313.15	2000	1.0482	0.0184
313.15	3500	1.0813	0.019
313.15	5000	1.1088	0.0195
313.15	7500	1.168	0.0205
313.15	10000	1.2257	0.0215
313.15	12500	1.2821	0.0225
313.15	15000	1.3495	0.0237
313.15	17500	1.4118	0.0248
313.15	20000	1.4576	0.0256
313.15	22500	1.5127	0.0266
313.15	25000	1.5615	0.0274
323.15	100	0.9992	0.0159
323.15	1000	1.015	0.0162
323.15	2000	1.0367	0.0165
323.15	3500	1.0736	0.0171
323.15	5000	1.1028	0.0176
323.15	7500	1.1493	0.0183
323.15	10000	1.1991	0.0191
323.15	12500	1.2542	0.02
323.15	15000	1.3047	0.0208
323.15	17500	1.3446	0.0215
323.15	20000	1.3997	0.0223
323.15	22500	1.4467	0.0231
323.15	25000	1.4935	0.0238
333.15	100	0.9984	0.0155
333.15	1000	1.0125	0.0157
333.15	2000	1.0303	0.016
333.15	3500	1.0585	0.0164
333.15	5000	1.0924	0.0169
333.15	7500	1.1347	0.0176
333.15	10000	1.178	0.0183
333.15	12500	1.2282	0.019
333.15	15000	1.2772	0.0198
333.15	17500	1.3148	0.0204
333.15	20000	1.3567	0.021
333.15	22500	1.3923	0.0216
333.15	25000	1.4343	0.0222
343.15	100	1.0034	0.0155
343.15	1000	1.0114	0.0157
343.15	2000	1.0337	0.016
343.15	3500	1.0581	0.0164
343.15	5000	1.085	0.0168
343.15	7500	1.1195	0.0173
343.15	10000	1.1593	0.018
343.15	12500	1.1986	0.0186
343.15	15000	1.2381	0.0192
343.15	17500	1.2799	0.0198
343.15	20000	1.3208	0.0205
343.15	22500	1.3602	0.0211
343.15	25000	1.3922	0.0216
353.15	100	0.9996	0.0155
353.15	1000	1.0142	0.0157
353.15	2000	1.032	0.016
353.15	3500	1.0521	0.0163
353.15	5000	1.0751	0.0167
353.15	7500	1.1154	0.0173
353.15	10000	1.1497	0.0178
353.15	12500	1.1847	0.0184
353.15	15000	1.2194	0.0189
353.15	17500	1.253	0.0194
353.15	20000	1.287	0.0199
353.15	22500	1.3229	0.0205
353.15	25000	1.3535	0.021
363.15	100	1.0009	0.0155
363.15	1000	1.0145	0.0157
363.15	2000	1.0291	0.0159
363.15	3500	1.0484	0.0162
363.15	5000	1.0708	0.0166
363.15	7500	1.1072	0.0172
363.15	10000	1.1403	0.0177
363.15	12500	1.1702	0.0181
363.15	15000	1.2013	0.0186
363.15	17500	1.2399	0.0192
363.15	20000	1.2707	0.0197
363.15	22500	1.3032	0.0202
363.15	25000	1.3321	0.0206
373.1	1000	1.0031	0.0155
373.1	2000	1.0181	0.0158
373.1	3500	1.0435	0.0162
373.1	5000	1.0662	0.0165
373.1	7500	1.0982	0.017
373.1	10000	1.131	0.0175
373.1	12500	1.1616	0.018
373.1	15000	1.1898	0.0184
373.1	17500	1.2186	0.0189
373.1	20000	1.2515	0.0194
373.1	22500	1.2839	0.0199
373.1	25000	1.3107	0.0203

System: carbon dioxide + water; phases: Gas, Liquid
Property: Amount concentration (molarity), mol/dm3 (Gas); method: SPECTR
Temperature, K	Pressure, kPa	Amount concentration (molarity), mol/dm3	uncertainty
298.15	100	1.0447	0.1055
298.15	500	1.2161	0.1228
298.15	1000	1.4166	0.1431
298.15	1500	1.5617	0.1577
298.15	2000	1.7071	0.1724
298.15	2500	1.8643	0.1883
298.15	3000	1.9679	0.1988
298.15	3500	2.0771	0.2098
298.15	4000	2.147	0.2168
303.15	100	1.04	0.0865
303.15	500	1.2115	0.1007
303.15	1000	1.3719	0.1141
303.15	1500	1.5221	0.1265
303.15	2000	1.6326	0.1357
303.15	2500	1.7225	0.1432
303.15	3000	1.8385	0.1528
303.15	3500	1.9583	0.1628
303.15	4000	2.0718	0.1722
313.15	100	1.046	0.0514
313.15	500	1.1871	0.0583
313.15	1000	1.3088	0.0643
313.15	1500	1.4081	0.0691
313.15	2000	1.4922	0.0732
313.15	2500	1.5757	0.0773
313.15	3000	1.6394	0.0805
313.15	3500	1.7423	0.0855
313.15	4000	1.7924	0.088
313.15	4500	1.8536	0.091
323.15	100	0.9876	0.0346
323.15	500	1.1261	0.0394
323.15	1000	1.2569	0.044
323.15	1500	1.3417	0.047
323.15	2000	1.4325	0.0501
323.15	2500	1.5226	0.0533
323.15	3000	1.5987	0.0559
323.15	3500	1.6577	0.058
323.15	4000	1.7153	0.06
323.15	4500	1.7813	0.0623
323.15	5000	1.8444	0.0645
323.15	5500	1.8848	0.0659
348.15	100	1.0069	0.0201
348.15	500	1.1089	0.0221
348.15	1000	1.2032	0.024
348.15	1500	1.2857	0.0256
348.15	2000	1.3674	0.0272
348.15	2500	1.4357	0.0286
348.15	3000	1.5008	0.0299
348.15	3500	1.5593	0.031
348.15	4000	1.6305	0.0325
348.15	4500	1.7071	0.034
348.15	5000	1.7918	0.0357
348.15	5500	1.8502	0.0368
373.1	500	1.0449	0.0185
373.1	1000	1.1284	0.02
373.1	1500	1.1789	0.0208
373.1	2000	1.2204	0.0216
373.1	2500	1.2585	0.0222
373.1	3000	1.2946	0.0229
373.1	3500	1.3285	0.0235
373.1	4000	1.3446	0.0238
373.1	4500	1.368	0.0242
373.1	5000	1.4079	0.0249
373.1	5500	1.4402	0.0255
