Measured thermophysical data. Solubility of Acenaphthylene in Different Solvents between (278 and 323) K
Source: J. Chem. Eng. Data, 2007, 10.1021/je700347h
Compound 1: acenaphthylene, C12H8, InChI=1S/C12H8/c1-3-9-4-2-6-11-8-7-10(5-1)12(9)11/h1-8H, purity 99.5%
Compound 2: ethanol, C2H6O, InChI=1S/C2H6O/c1-2-3/h3H,2H2,1H3, purity 99.8%
Compound 3: propan-2-ol, C3H8O, InChI=1S/C3H8O/c1-3(2)4/h3-4H,1-2H3, purity 99.8%
Compound 4: butan-1-ol, C4H10O, InChI=1S/C4H10O/c1-2-3-4-5/h5H,2-4H2,1H3, purity 99.8%
Compound 5: toluene, C7H8, InChI=1S/C7H8/c1-7-5-3-2-4-6-7/h2-6H,1H3, purity 99.8%

System: ethanol + acenaphthylene; phases: Liquid, Crystal
Fixed: Pressure, kPa = 101
Property: Mole fraction of acenaphthylene (Liquid); method: laser monitoring observation
Temperature, K	Mole fraction of acenaphthylene	uncertainty
278.1	0.004622	0.000188
283.53	0.005785	0.000235
288.25	0.007093	0.000288
293.25	0.008913	0.000362
298.2	0.010793	0.000438
303.2	0.013276	0.000539
308.2	0.016519	0.000671
313.05	0.0197	0.0008
318.25	0.024486	0.000995
323.15	0.029553	0.001201

System: propan-2-ol + acenaphthylene; phases: Liquid, Crystal
Fixed: Pressure, kPa = 101
Property: Mole fraction of acenaphthylene (Liquid); method: laser monitoring observation
Temperature, K	Mole fraction of acenaphthylene	uncertainty
278.3	0.004687	0.000189
283.07	0.005923	0.000239
288.33	0.007701	0.000311
293.2	0.009671	0.00039
298.07	0.011972	0.000483
303.3	0.015233	0.000615
308.05	0.018871	0.000762
312.95	0.023581	0.000952
318.4	0.030246	0.001221
323.25	0.037196	0.001502

System: butan-1-ol + acenaphthylene; phases: Liquid, Crystal
Fixed: Pressure, kPa = 101
Property: Mole fraction of acenaphthylene (Liquid); method: laser monitoring observation
Temperature, K	Mole fraction of acenaphthylene	uncertainty
278.25	0.010098	0.000406
283.05	0.012221	0.000492
288.05	0.015448	0.000622
293.25	0.018975	0.000764
298.25	0.023672	0.000953
303.15	0.028995	0.001167
308.1	0.034855	0.001403
313.2	0.042705	0.001719
318.05	0.052492	0.002114
323.05	0.063929	0.002574

System: toluene + acenaphthylene; phases: Liquid, Crystal
Fixed: Pressure, kPa = 101
Property: Mole fraction of acenaphthylene (Liquid); method: laser monitoring observation
Temperature, K	Mole fraction of acenaphthylene	uncertainty
278.47	0.10417	0.00419
283.33	0.12178	0.0049
288.1	0.14175	0.0057
293.15	0.16702	0.00672
298.23	0.19355	0.00779
303.15	0.22391	0.00901
307.95	0.2559	0.01031
312.95	0.29854	0.01203
318.3	0.34574	0.01395
323.2	0.39835	0.0161
