Measured thermophysical data. Study of the Temperature Dependence of Surface Tensions of Some Alkanol + Hexane Mixtures
Source: J. Chem. Eng. Data, 2007, 10.1021/je700215z
Compound 1: ethanol, C2H6O, InChI=1S/C2H6O/c1-2-3/h3H,2H2,1H3
Compound 2: butan-1-ol, C4H10O, InChI=1S/C4H10O/c1-2-3-4-5/h5H,2-4H2,1H3
Compound 3: butan-2-ol, C4H10O, InChI=1S/C4H10O/c1-3-4(2)5/h4-5H,3H2,1-2H3
Compound 4: hexane, C6H14, InChI=1S/C6H14/c1-3-5-6-4-2/h3-6H2,1-2H3

System: ethanol; phases: Liquid, Air at 1 atmosphere
Property: Surface tension liquid-gas, N/m (Liquid); method: DROPV:UFactor:2
Temperature, K	Surface tension liquid-gas, N/m	uncertainty
283.15	0.02312	0.00028
288.15	0.02275	0.00028
293.15	0.02228	0.00028
298.15	0.02186	0.00027
303.15	0.02149	0.00027
308.15	0.02115	0.00027
313.15	0.02066	0.00027

System: butan-1-ol; phases: Liquid, Air at 1 atmosphere
Property: Surface tension liquid-gas, N/m (Liquid); method: DROPV:UFactor:2
Temperature, K	Surface tension liquid-gas, N/m	uncertainty
283.15	0.02555	0.00029
288.15	0.02512	0.00029
293.15	0.02478	0.00029
298.15	0.02425	0.00029
303.15	0.02395	0.00029
308.15	0.02355	0.00028
313.15	0.02315	0.00028

System: butan-2-ol; phases: Liquid, Air at 1 atmosphere
Property: Surface tension liquid-gas, N/m (Liquid); method: DROPV:UFactor:2
Temperature, K	Surface tension liquid-gas, N/m	uncertainty
283.15	0.02437	0.00031
288.15	0.02395	0.00031
293.15	0.02356	0.00031
298.15	0.02308	0.0003
303.15	0.02275	0.0003
308.15	0.02239	0.0003
313.15	0.02197	0.0003

System: hexane; phases: Liquid, Air at 1 atmosphere
Property: Surface tension liquid-gas, N/m (Liquid); method: DROPV:UFactor:2
Temperature, K	Surface tension liquid-gas, N/m	uncertainty
283.15	0.01963	0.00028
288.15	0.01904	0.00028
293.15	0.01852	0.00027
298.15	0.01806	0.00027
303.15	0.01753	0.00026
308.15	0.01674	0.00026
313.15	0.01647	0.00026

System: ethanol + hexane; phases: Liquid, Air at 1 atmosphere
Property: Surface tension liquid-gas, N/m (Liquid); method: DROPV:UFactor:2
Temperature, K	Mole fraction of ethanol	Surface tension liquid-gas, N/m	uncertainty
283.15	0.0855	0.0197	0.00028
283.15	0.1006	0.01974	0.00028
283.15	0.2107	0.01973	0.00027
283.15	0.2928	0.01977	0.00027
283.15	0.4128	0.0199	0.00027
283.15	0.5071	0.02008	0.00027
283.15	0.5909	0.02026	0.00027
283.15	0.7036	0.02061	0.00027
283.15	0.8032	0.02105	0.00027
283.15	0.9021	0.02178	0.00027
283.15	0.932	0.02211	0.00028
288.15	0.0855	0.01911	0.00027
288.15	0.1006	0.01911	0.00027
288.15	0.2107	0.0191	0.0003
288.15	0.2928	0.01918	0.00027
288.15	0.4128	0.01929	0.00027
288.15	0.5071	0.01946	0.00027
288.15	0.5909	0.01967	0.00027
288.15	0.7036	0.02002	0.00027
288.15	0.8032	0.02046	0.00027
288.15	0.9021	0.02128	0.00027
288.15	0.932	0.02164	0.00027
293.15	0.0855	0.01857	0.00027
293.15	0.1006	0.01856	0.00027
293.15	0.2107	0.01855	0.00027
293.15	0.2928	0.01857	0.00027
293.15	0.4128	0.01871	0.00026
293.15	0.5071	0.01884	0.00026
293.15	0.5909	0.01902	0.00026
293.15	0.7036	0.01936	0.00026
293.15	0.8032	0.01988	0.00027
293.15	0.9021	0.02073	0.00027
293.15	0.932	0.02111	0.00027
298.15	0.0855	0.01803	0.00027
298.15	0.1006	0.01803	0.00027
298.15	0.2107	0.01801	0.00026
298.15	0.2928	0.01803	0.00026
298.15	0.4128	0.01815	0.00026
298.15	0.5071	0.01829	0.00026
298.15	0.5909	0.01845	0.00026
298.15	0.7036	0.0188	0.00026
298.15	0.8032	0.01932	0.00026
298.15	0.9021	0.02022	0.00027
298.15	0.932	0.02064	0.00027
303.15	0.0855	0.01749	0.00026
303.15	0.1006	0.01748	0.00026
303.15	0.2107	0.01742	0.00026
303.15	0.2928	0.01746	0.00026
303.15	0.4128	0.01757	0.00026
303.15	0.5071	0.01772	0.00026
303.15	0.5909	0.01793	0.00026
303.15	0.7036	0.01826	0.00026
303.15	0.8032	0.01882	0.00026
303.15	0.9021	0.01981	0.00026
303.15	0.932	0.02022	0.00027
308.15	0.0855	0.01667	0.00026
308.15	0.1006	0.01666	0.00026
308.15	0.2107	0.01664	0.00025
308.15	0.2928	0.01668	0.00025
308.15	0.4128	0.01685	0.00025
308.15	0.5071	0.01704	0.00025
308.15	0.5909	0.01726	0.00025
308.15	0.7036	0.0177	0.00025
308.15	0.8032	0.01831	0.00026
308.15	0.9021	0.01938	0.00026
308.15	0.932	0.01982	0.00026
313.15	0.0855	0.0163	0.00025
313.15	0.1006	0.01629	0.00025
313.15	0.2107	0.0162	0.0003
313.15	0.2928	0.01624	0.00025
313.15	0.4128	0.01638	0.00025
313.15	0.5071	0.01656	0.00025
313.15	0.5909	0.01674	0.00025
313.15	0.7036	0.01721	0.00025
313.15	0.8032	0.01785	0.00025
313.15	0.9021	0.01891	0.00026
313.15	0.932	0.01936	0.00026

System: butan-1-ol + hexane; phases: Liquid, Air at 1 atmosphere
Property: Surface tension liquid-gas, N/m (Liquid); method: DROPV:UFactor:2
Temperature, K	Mole fraction of butan-1-ol	Surface tension liquid-gas, N/m	uncertainty
283.15	0.0519	0.01978	0.00028
283.15	0.0875	0.01987	0.00028
283.15	0.1959	0.02017	0.00028
283.15	0.2999	0.02041	0.00028
283.15	0.399	0.02069	0.00028
283.15	0.4914	0.02093	0.00028
283.15	0.5974	0.02144	0.00028
283.15	0.7044	0.02214	0.00028
283.15	0.8027	0.02309	0.00028
283.15	0.9088	0.02437	0.00029
283.15	0.953	0.02493	0.00029
288.15	0.0519	0.01915	0.00027
288.15	0.0875	0.01926	0.00027
288.15	0.1959	0.01958	0.00027
288.15	0.2999	0.01988	0.00027
288.15	0.399	0.02014	0.00027
288.15	0.4914	0.0204	0.00027
288.15	0.5974	0.0209	0.00027
288.15	0.7044	0.02163	0.00028
288.15	0.8027	0.02254	0.00028
288.15	0.9088	0.02385	0.00029
288.15	0.953	0.02447	0.00029
293.15	0.0519	0.0186	0.0003
293.15	0.0875	0.0187	0.0003
293.15	0.1959	0.01903	0.00027
293.15	0.2999	0.01935	0.00027
293.15	0.399	0.01965	0.00027
293.15	0.4914	0.01996	0.00027
293.15	0.5974	0.02044	0.00027
293.15	0.7044	0.02118	0.00027
293.15	0.8027	0.02213	0.00028
293.15	0.9088	0.02344	0.00028
293.15	0.953	0.02407	0.00029
298.15	0.0519	0.01811	0.00027
298.15	0.0875	0.0182	0.0003
298.15	0.1959	0.01852	0.00027
298.15	0.2999	0.01884	0.00027
298.15	0.399	0.0191	0.00027
298.15	0.4914	0.01943	0.00027
298.15	0.5974	0.01991	0.00027
298.15	0.7044	0.0206	0.0003
298.15	0.8027	0.02154	0.00027
298.15	0.9088	0.02287	0.00028
298.15	0.953	0.02353	0.00028
303.15	0.0519	0.01755	0.00026
303.15	0.0875	0.01761	0.00026
303.15	0.1959	0.01792	0.00026
303.15	0.2999	0.01828	0.00026
303.15	0.399	0.01862	0.00026
303.15	0.4914	0.01892	0.00026
303.15	0.5974	0.01943	0.00027
303.15	0.7044	0.02017	0.00027
303.15	0.8027	0.02113	0.00027
303.15	0.9088	0.02251	0.00028
303.15	0.953	0.02318	0.00028
308.15	0.0519	0.01675	0.00026
308.15	0.0875	0.0168	0.00026
308.15	0.1959	0.01713	0.00026
308.15	0.2999	0.01752	0.00026
308.15	0.399	0.01791	0.00026
308.15	0.4914	0.01829	0.00026
308.15	0.5974	0.01882	0.00026
308.15	0.7044	0.01959	0.00026
308.15	0.8027	0.0206	0.00027
308.15	0.9088	0.02206	0.00028
308.15	0.953	0.02276	0.00028
313.15	0.0519	0.0164	0.00026
313.15	0.0875	0.01643	0.00026
313.15	0.1959	0.01674	0.00026
313.15	0.2999	0.01712	0.00026
313.15	0.399	0.01748	0.00026
313.15	0.4914	0.01783	0.00026
313.15	0.5974	0.01839	0.00026
313.15	0.7044	0.01912	0.00026
313.15	0.8027	0.02015	0.00027
313.15	0.9088	0.0216	0.00027
313.15	0.953	0.02237	0.00028

System: butan-2-ol + hexane; phases: Liquid, Air at 1 atmosphere
Property: Surface tension liquid-gas, N/m (Liquid); method: DROPV:UFactor:2
Temperature, K	Mole fraction of butan-2-ol	Surface tension liquid-gas, N/m	uncertainty
283.15	0.0493	0.01975	0.00028
283.15	0.1057	0.01984	0.00028
283.15	0.2083	0.02	0.00028
283.15	0.3004	0.02018	0.00028
283.15	0.4002	0.02043	0.00028
283.15	0.4962	0.02072	0.00029
283.15	0.5948	0.0211	0.00029
283.15	0.6968	0.02164	0.00029
283.15	0.8018	0.02235	0.0003
283.15	0.8964	0.02318	0.0003
283.15	0.9492	0.02373	0.00031
288.15	0.0493	0.01916	0.00028
288.15	0.1057	0.01924	0.00028
288.15	0.2083	0.01936	0.00028
288.15	0.3004	0.01952	0.00028
288.15	0.4002	0.01977	0.00028
288.15	0.4962	0.02013	0.00028
288.15	0.5948	0.02057	0.00029
288.15	0.6968	0.0212	0.00029
288.15	0.8018	0.0219	0.00029
288.15	0.8964	0.02274	0.0003
288.15	0.9492	0.02331	0.0003
293.15	0.0493	0.01862	0.00027
293.15	0.1057	0.0187	0.0003
293.15	0.2083	0.0188	0.0003
293.15	0.3004	0.01895	0.00027
293.15	0.4002	0.01921	0.00028
293.15	0.4962	0.0196	0.00028
293.15	0.5948	0.02013	0.00028
293.15	0.6968	0.02076	0.00029
293.15	0.8018	0.02152	0.00029
293.15	0.8964	0.02234	0.0003
293.15	0.9492	0.0229	0.0003
298.15	0.0493	0.01811	0.00027
298.15	0.1057	0.01814	0.00027
298.15	0.2083	0.01821	0.00027
298.15	0.3004	0.01837	0.00027
298.15	0.4002	0.01867	0.00027
298.15	0.4962	0.01909	0.00028
298.15	0.5948	0.01961	0.00028
298.15	0.6968	0.02026	0.00028
298.15	0.8018	0.02104	0.00029
298.15	0.8964	0.02188	0.00029
298.15	0.9492	0.02243	0.0003
303.15	0.0493	0.01752	0.00026
303.15	0.1057	0.01753	0.00026
303.15	0.2083	0.01762	0.00027
303.15	0.3004	0.01782	0.00027
303.15	0.4002	0.01816	0.00027
303.15	0.4962	0.0186	0.0003
303.15	0.5948	0.01918	0.00028
303.15	0.6968	0.01984	0.00028
303.15	0.8018	0.02067	0.00029
303.15	0.8964	0.02152	0.00029
303.15	0.9492	0.02211	0.0003
308.15	0.0493	0.01669	0.00026
308.15	0.1057	0.01666	0.00026
308.15	0.2083	0.01681	0.00026
308.15	0.3004	0.01708	0.00026
308.15	0.4002	0.0175	0.00026
308.15	0.4962	0.01801	0.00027
308.15	0.5948	0.0186	0.00027
308.15	0.6968	0.01933	0.00028
308.15	0.8018	0.02018	0.00028
308.15	0.8964	0.02112	0.00029
308.15	0.9492	0.02173	0.00029
313.15	0.0493	0.01633	0.00026
313.15	0.1057	0.01626	0.00026
313.15	0.2083	0.01641	0.00026
313.15	0.3004	0.0167	0.00026
313.15	0.4002	0.01713	0.00026
313.15	0.4962	0.01762	0.00027
313.15	0.5948	0.01822	0.00027
313.15	0.6968	0.01892	0.00027
313.15	0.8018	0.01974	0.00028
313.15	0.8964	0.02073	0.00029
313.15	0.9492	0.02133	0.00029
