Measured thermophysical data. Densities and Derived Thermodynamic Properties of Imidazolium-, Pyridinium-, Pyrrolidinium-, and Piperidinium-Based Ionic Liquids
Source: J. Chem. Eng. Data, 2008, 10.1021/je700670k
Compound 1: 1-ethyl-3-methylimidazolium trifluoromethanesulfonate, C7H11F3N2O3S, InChI=1S/C6H11N2.CHF3O3S/c1-3-8-5-4-7(2)6-8;2-1(3,4)8(5,6)7/h4-6H,3H2,1-2H3;(H,5,6,7)/q+1;/p-1, purity 99%
Compound 2: 3-methyl-1-propylpyridinium bis(trifluoromethylsulfonyl)imide, C11H14F6N2O4S2, InChI=1S/C9H14N.C2F6NO4S2/c1-3-6-10-7-4-5-9(2)8-10;3-1(4,5)14(10,11)9-15(12,13)2(6,7)8/h4-5,7-8H,3,6H2,1-2H3;/q+1;-1, purity 99%
Compound 3: 1-methyl-1-propylpyrrolidinium bis[(trifluoromethyl)sulfonyl]imide, C10H18F6N2O4S2, InChI=1S/C8H18N.C2F6NO4S2/c1-3-6-9(2)7-4-5-8-9;3-1(4,5)14(10,11)9-15(12,13)2(6,7)8/h3-8H2,1-2H3;/q+1;-1, purity 99%
Compound 4: 1-butyl-1-methylpyrrolidinium bis[(trifluoromethyl)sulfonyl]imide, C11H20F6N2O4S2, InChI=1S/C9H20N.C2F6NO4S2/c1-3-4-7-10(2)8-5-6-9-10;3-1(4,5)14(10,11)9-15(12,13)2(6,7)8/h3-9H2,1-2H3;/q+1;-1, purity 99%
Compound 5: 1-methyl-1-propylpiperidinium bis(trifluoromethylsulfonyl)imide, C11H20F6N2O4S2, InChI=1S/C9H20N.C2F6NO4S2/c1-3-7-10(2)8-5-4-6-9-10;3-1(4,5)14(10,11)9-15(12,13)2(6,7)8/h3-9H2,1-2H3;/q+1;-1, purity 99%

System: 1-ethyl-3-methylimidazolium trifluoromethanesulfonate; phases: Liquid
Property: Mass density, kg/m3 (Liquid); method: Vibrating tube method
Pressure, kPa	Temperature, K	Mass density, kg/m3	uncertainty
100	293.15	1379.6	12
100	303.15	1370.2	12
100	313.15	1361.1	12
100	323.15	1352	12
100	333.15	1342.8	12
100	353.15	1325.3	12
100	393.15	1291.1	12
1000	293.15	1380	12
1000	303.15	1370.7	12
1000	313.15	1361.6	12
1000	323.15	1352.5	12
1000	333.15	1343.3	12
1000	353.15	1325.9	12
1000	393.15	1291.7	12
2000	293.15	1380.6	12
2000	303.15	1371.5	12
2000	313.15	1362.2	12
2000	323.15	1353.2	12
2000	333.15	1344	12
2000	353.15	1326.6	12
2000	393.15	1292.4	12
3000	293.15	1381.1	12
3000	303.15	1372.1	12
3000	313.15	1362.9	12
3000	323.15	1353.8	12
3000	333.15	1344.6	12
3000	353.15	1327.2	12
3000	393.15	1293.2	12
4000	293.15	1381.8	12
4000	303.15	1372.7	12
4000	313.15	1363.5	12
4000	323.15	1354.4	12
4000	333.15	1345.3	12
4000	353.15	1327.9	12
4000	393.15	1293.9	12
5000	293.15	1382.5	12
5000	303.15	1373.2	12
5000	313.15	1364.1	12
5000	323.15	1355.1	12
5000	333.15	1346	12
5000	353.15	1328.6	12
5000	393.15	1294.5	12
7500	293.15	1383.9	12
7500	303.15	1374.6	12
7500	313.15	1365.7	12
7500	323.15	1356.7	12
7500	333.15	1347.6	12
7500	353.15	1330.3	12
7500	393.15	1296.4	12
10000	293.15	1385.4	12
10000	303.15	1376.1	12
10000	313.15	1367.3	12
10000	323.15	1358.2	12
10000	333.15	1349.2	12
10000	353.15	1332	12
10000	393.15	1298.1	12
15000	293.15	1388.2	12
15000	303.15	1379	12
15000	313.15	1370.2	12
15000	323.15	1361.2	12
15000	333.15	1352.3	12
15000	353.15	1335.3	12
15000	393.15	1302	12
20000	293.15	1391	12
20000	303.15	1381.9	12
20000	313.15	1373.1	12
20000	323.15	1364.2	12
20000	333.15	1355.4	12
20000	353.15	1338.5	12
20000	393.15	1305.2	12
25000	293.15	1393.7	12
25000	303.15	1384.7	12
25000	313.15	1376	12
25000	323.15	1367.2	12
25000	333.15	1358.4	12
25000	353.15	1341.9	12
25000	393.15	1308.7	12
30000	293.15	1396.4	12
30000	303.15	1387.5	12
30000	313.15	1378.8	12
30000	323.15	1370.1	12
30000	333.15	1361.4	12
30000	353.15	1344.8	12
30000	393.15	1312	12
35000	293.15	1399.1	12
35000	303.15	1390.2	12
35000	313.15	1381.6	12
35000	323.15	1372.9	12
35000	333.15	1364.3	12
35000	353.15	1347.8	12
35000	393.15	1315.3	12

System: 3-methyl-1-propylpyridinium bis(trifluoromethylsulfonyl)imide; phases: Liquid
Property: Mass density, kg/m3 (Liquid); method: Vibrating tube method
Pressure, kPa	Temperature, K	Mass density, kg/m3	uncertainty
100	293.15	1454.9	12
100	303.15	1444.4	12
100	313.15	1433.9	12
100	323.15	1423.7	12
100	333.15	1413.6	12
100	353.15	1393.7	12
100	393.15	1354.8	12
1000	293.15	1455.6	12
1000	303.15	1445.3	12
1000	313.15	1434.8	12
1000	323.15	1424.5	12
1000	333.15	1414.4	12
1000	353.15	1394.6	12
1000	393.15	1355.8	12
2000	293.15	1456.4	12
2000	303.15	1446.1	12
2000	313.15	1435.6	12
2000	323.15	1425.3	12
2000	333.15	1415.3	12
2000	353.15	1395.5	12
2000	393.15	1356.9	12
3000	293.15	1457.1	12
3000	303.15	1446.8	12
3000	313.15	1436.4	12
3000	323.15	1426.1	12
3000	333.15	1416.1	12
3000	353.15	1396.4	12
3000	393.15	1357.9	12
4000	293.15	1457.9	12
4000	303.15	1447.6	12
4000	313.15	1437.3	12
4000	323.15	1427	12
4000	333.15	1417	12
4000	353.15	1397.4	12
4000	393.15	1359	12
5000	293.15	1458.7	12
5000	303.15	1448.4	12
5000	313.15	1438	12
5000	323.15	1427.8	12
5000	333.15	1417.8	12
5000	353.15	1398	12
5000	393.15	1360	12
7500	293.15	1460.5	12
7500	303.15	1450.3	12
7500	313.15	1440	12
7500	323.15	1429.9	12
7500	333.15	1419.8	12
7500	353.15	1400.2	12
7500	393.15	1362.5	12
10000	293.15	1462.4	12
10000	303.15	1452.2	12
10000	313.15	1441.9	12
10000	323.15	1431.9	12
10000	333.15	1421.9	12
10000	353.15	1402.5	12
10000	393.15	1365	12
15000	293.15	1466.1	12
15000	303.15	1455.9	12
15000	313.15	1445.7	12
15000	323.15	1435.7	12
15000	333.15	1425.9	12
15000	353.15	1406.8	12
15000	393.15	1369.7	12
20000	293.15	1469.6	12
20000	303.15	1459.6	12
20000	313.15	1449.5	12
20000	323.15	1439.5	12
20000	333.15	1429.9	12
20000	353.15	1411	12
20000	393.15	1374.3	12
25000	293.15	1473.1	12
25000	303.15	1463.1	12
25000	313.15	1453.1	12
25000	323.15	1443.3	12
25000	333.15	1433.7	12
25000	353.15	1415.1	12
25000	393.15	1378.8	12
30000	293.15	1476.5	12.1
30000	303.15	1466.6	12
30000	313.15	1456.7	12
30000	323.15	1446.9	12
30000	333.15	1437.4	12
30000	353.15	1419	12
30000	393.15	1383.2	12
35000	293.15	1479.8	12.1
35000	303.15	1470	12.1
35000	313.15	1460.3	12.1
35000	323.15	1450.5	12.1
35000	333.15	1441.1	12.1
35000	353.15	1422.9	12
35000	393.15	1387.5	12

System: 1-methyl-1-propylpyrrolidinium bis[(trifluoromethyl)sulfonyl]imide; phases: Liquid
Property: Mass density, kg/m3 (Liquid); method: Vibrating tube method
Pressure, kPa	Temperature, K	Mass density, kg/m3	uncertainty
100	293.15	1438.6	12
100	303.15	1428.6	12
100	313.15	1418.6	12
100	323.15	1408.7	12
100	333.15	1399	12
100	353.15	1380	12
100	393.15	1343.2	12
1000	293.15	1439.3	12
1000	303.15	1429.3	12
1000	313.15	1419.3	12
1000	323.15	1409.4	12
1000	333.15	1399.7	12
1000	353.15	1380.8	12
1000	393.15	1344	12
2000	293.15	1440	12
2000	303.15	1430	12
2000	313.15	1420.1	12
2000	323.15	1410.1	12
2000	333.15	1400.5	12
2000	353.15	1381.7	12
2000	393.15	1344.9	12
3000	293.15	1440.7	12
3000	303.15	1430.8	12
3000	313.15	1420.9	12
3000	323.15	1411	12
3000	333.15	1401.4	12
3000	353.15	1382.5	12
3000	393.15	1345.8	12
4000	293.15	1441.4	12
4000	303.15	1431.6	12
4000	313.15	1421.7	12
4000	323.15	1411.8	12
4000	333.15	1402.2	12
4000	353.15	1383.4	12
4000	393.15	1346.8	12
5000	293.15	1442.1	12
5000	303.15	1432.2	12
5000	313.15	1422.5	12
5000	323.15	1412.6	12
5000	333.15	1403	12
5000	353.15	1384.3	12
5000	393.15	1347.8	12
7500	293.15	1444	12
7500	303.15	1434.1	12
7500	313.15	1424.3	12
7500	323.15	1414.4	12
7500	333.15	1405	12
7500	353.15	1386.4	12
7500	393.15	1350.2	12
10000	293.15	1445.8	12
10000	303.15	1435.9	12
10000	313.15	1426.3	12
10000	323.15	1416.3	12
10000	333.15	1407	12
10000	353.15	1388.5	12
10000	393.15	1352.5	12
15000	293.15	1449.2	12
15000	303.15	1439.4	12
15000	313.15	1429.9	12
15000	323.15	1420.1	12
15000	333.15	1410.8	12
15000	353.15	1392.6	12
15000	393.15	1357.1	12
20000	293.15	1452.6	12
20000	303.15	1443	12
20000	313.15	1433.4	12
20000	323.15	1423.8	12
20000	333.15	1414.6	12
20000	353.15	1396.6	12
20000	393.15	1361.5	12
25000	293.15	1456	12
25000	303.15	1446.4	12
25000	313.15	1436.9	12
25000	323.15	1427.4	12
25000	333.15	1418.3	12
25000	353.15	1400.4	12
25000	393.15	1365.8	12
30000	293.15	1459.2	12
30000	303.15	1449.7	12
30000	313.15	1440.3	12
30000	323.15	1431	12
30000	333.15	1421.9	12
30000	353.15	1404.2	12
30000	393.15	1370	12
35000	293.15	1462.3	12.1
35000	303.15	1453	12.1
35000	313.15	1443.6	12.1
35000	323.15	1434.4	12
35000	333.15	1425.4	12
35000	353.15	1407.9	12
35000	393.15	1374	12

System: 1-butyl-1-methylpyrrolidinium bis[(trifluoromethyl)sulfonyl]imide; phases: Liquid
Property: Mass density, kg/m3 (Liquid); method: Vibrating tube method
Pressure, kPa	Temperature, K	Mass density, kg/m3	uncertainty
100	293.15	1409.1	12
100	303.15	1399.3	12
100	313.15	1389.5	12
100	323.15	1379.8	12
100	333.15	1370.2	12
100	353.15	1351.5	12
100	393.15	1315.2	12
1000	293.15	1409.7	12
1000	303.15	1399.9	12
1000	313.15	1390.1	12
1000	323.15	1380.4	12
1000	333.15	1370.9	12
1000	353.15	1352.3	12
1000	393.15	1316.1	12
2000	293.15	1410.5	12
2000	303.15	1400.7	12
2000	313.15	1390.9	12
2000	323.15	1381.2	12
2000	333.15	1371.7	12
2000	353.15	1353.2	12
2000	393.15	1317.1	12
3000	293.15	1411.2	12
3000	303.15	1401.4	12
3000	313.15	1391.7	12
3000	323.15	1382	12
3000	333.15	1372.5	12
3000	353.15	1354.1	12
3000	393.15	1318.1	12
4000	293.15	1411.9	12
4000	303.15	1402.2	12
4000	313.15	1392.5	12
4000	323.15	1382.8	12
4000	333.15	1373.4	12
4000	353.15	1354.9	12
4000	393.15	1319.1	12
5000	293.15	1412.6	12
5000	303.15	1402.9	12
5000	313.15	1393.3	12
5000	323.15	1383.6	12
5000	333.15	1374.2	12
5000	353.15	1355.8	12
5000	393.15	1320	12
7500	293.15	1414.4	12
7500	303.15	1404.8	12
7500	313.15	1395.2	12
7500	323.15	1385.6	12
7500	333.15	1376.1	12
7500	353.15	1357.9	12
7500	393.15	1322.5	12
10000	293.15	1416.1	12
10000	303.15	1406.6	12
10000	313.15	1397	12
10000	323.15	1387.5	12
10000	333.15	1378.1	12
10000	353.15	1360	12
10000	393.15	1324.8	12
15000	293.15	1419.6	12
15000	303.15	1410.1	12
15000	313.15	1400.7	12
15000	323.15	1391.3	12
15000	333.15	1382	12
15000	353.15	1364.1	12
15000	393.15	1329.5	12
20000	293.15	1423	12
20000	303.15	1413.6	12
20000	313.15	1404.3	12
20000	323.15	1394.9	12
20000	333.15	1385.8	12
20000	353.15	1368.1	12
20000	393.15	1333.7	12
25000	293.15	1426.3	12
25000	303.15	1417	12
25000	313.15	1407.7	12
25000	323.15	1398.5	12
25000	333.15	1389.5	12
25000	353.15	1371.9	12
25000	393.15	1338	12
30000	293.15	1429.6	12
30000	303.15	1420.3	12
30000	313.15	1411.1	12
30000	323.15	1402	12
30000	333.15	1393.1	12
30000	353.15	1375.7	12
30000	393.15	1342.2	12
35000	293.15	1432.8	12
35000	303.15	1423.6	12
35000	313.15	1414.4	12
35000	323.15	1405.4	12
35000	333.15	1396.6	12
35000	353.15	1379.4	12
35000	393.15	1346.2	12

System: 1-methyl-1-propylpiperidinium bis(trifluoromethylsulfonyl)imide; phases: Liquid
Property: Mass density, kg/m3 (Liquid); method: Vibrating tube method
Pressure, kPa	Temperature, K	Mass density, kg/m3	uncertainty
100	293.15	1416.9	12
100	303.15	1407.2	12
100	313.15	1397.4	12
100	323.15	1387.6	12
100	333.15	1377	12
100	353.15	1358.5	12
100	393.15	1322.3	12
1000	293.15	1417.6	12
1000	303.15	1407.8	12
1000	313.15	1398.1	12
1000	323.15	1388.3	12
1000	333.15	1377.8	12
1000	353.15	1359.3	12
1000	393.15	1323.2	12
2000	293.15	1418.3	12
2000	303.15	1408.6	12
2000	313.15	1398.9	12
2000	323.15	1389.1	12
2000	333.15	1378.6	12
2000	353.15	1360.2	12
2000	393.15	1324.3	12
3000	293.15	1419	12
3000	303.15	1409.3	12
3000	313.15	1399.5	12
3000	323.15	1389.9	12
3000	333.15	1379.3	12
3000	353.15	1361.1	12
3000	393.15	1325.3	12
4000	293.15	1419.6	12
4000	303.15	1410	12
4000	313.15	1400.2	12
4000	323.15	1390.6	12
4000	333.15	1380.1	12
4000	353.15	1361.9	12
4000	393.15	1326.2	12
5000	293.15	1420.3	12
5000	303.15	1410.7	12
5000	313.15	1401	12
5000	323.15	1391.4	12
5000	333.15	1380.9	12
5000	353.15	1362.8	12
5000	393.15	1327.3	12
7500	293.15	1422	12
7500	303.15	1412.5	12
7500	313.15	1402.8	12
7500	323.15	1393.2	12
7500	333.15	1382.8	12
7500	353.15	1364.7	12
7500	393.15	1329.7	12
10000	293.15	1423.8	12
10000	303.15	1414.3	12
10000	313.15	1404.7	12
10000	323.15	1395.1	12
10000	333.15	1384.8	12
10000	353.15	1366.7	12
10000	393.15	1331.8	12
15000	293.15	1427.1	12
15000	303.15	1417.7	12
15000	313.15	1408.2	12
15000	323.15	1398.7	12
15000	333.15	1388.5	12
15000	353.15	1370.7	12
15000	393.15	1336.3	12
20000	293.15	1430.4	12
20000	303.15	1421.1	12
20000	313.15	1411.7	12
20000	323.15	1401.9	12
20000	333.15	1392.3	12
20000	353.15	1374.7	12
20000	393.15	1340.7	12
25000	293.15	1433.7	12
25000	303.15	1424.4	12
25000	313.15	1415.1	12
25000	323.15	1405	12
25000	333.15	1396	12
25000	353.15	1378.4	12
25000	393.15	1344.8	12
30000	293.15	1436.8	12
30000	303.15	1427.6	12
30000	313.15	1418.4	12
30000	323.15	1408.6	12
30000	333.15	1399.5	12
30000	353.15	1382.1	12
30000	393.15	1348.9	12
35000	293.15	1439.9	12.1
35000	303.15	1430.7	12
35000	313.15	1421.7	12
35000	323.15	1412.1	12
35000	333.15	1403	12
35000	353.15	1385.7	12
35000	393.15	1353	12
