Measured thermophysical data. Isobaric Vapor-Liquid Equilibrium for the Binary Systems 1-Pentanol + Cyclohexane and 1-Pentanol + n-Hexane at Low Alcohol Compositions
Source: J. Chem. Eng. Data, 2007, 10.1021/je700285j
Compound 1: pentan-1-ol, C5H12O, InChI=1S/C5H12O/c1-2-3-4-5-6/h6H,2-5H2,1H3
Compound 2: cyclohexane, C6H12, InChI=1S/C6H12/c1-2-4-6-5-3-1/h1-6H2
Compound 3: hexane, C6H14, InChI=1S/C6H14/c1-3-5-6-4-2/h3-6H2,1-2H3

System: pentan-1-ol + cyclohexane; phases: Liquid, Gas
Fixed: Pressure, kPa = 101.3
Property: Boiling temperature at pressure P, K (Liquid); method: Ebulliometric method (Recirculating still)
Mole fraction of pentan-1-ol	Boiling temperature at pressure P, K	uncertainty
0.0059	353.8	0.3
0.0095	353.9	0.3
0.0106	353.9	0.3
0.0157	354	0.3
0.0222	354.1	0.3
0.0272	354.3	0.3
0.0335	354.4	0.3
0.0436	354.3	0.3
0.0457	354.5	0.3
0.0496	354.4	0.3
0.0554	354.6	0.3
0.0654	354.7	0.3
0.068	354.7	0.3

System: pentan-1-ol + cyclohexane; phases: Gas, Liquid
Fixed: Pressure, kPa = 101.3
Property: Mole fraction of pentan-1-ol (Gas); method: Chromatography
Mole fraction of pentan-1-ol	Mole fraction of pentan-1-ol	uncertainty
0.0059	0.0057	0.0007
0.0095	0.0083	0.0007
0.0106	0.009	0.0007
0.0157	0.0125	0.0007
0.0222	0.0155	0.0007
0.0272	0.0184	0.0007
0.0335	0.0204	0.0007
0.0436	0.0238	0.0006
0.0457	0.0239	0.0006
0.0496	0.025	0.0007
0.0554	0.0268	0.0007
0.0654	0.0284	0.0007
0.068	0.0292	0.0007

System: pentan-1-ol + hexane; phases: Liquid, Gas
Fixed: Pressure, kPa = 101.3
Property: Boiling temperature at pressure P, K (Liquid); method: Ebulliometric method (Recirculating still)
Mole fraction of pentan-1-ol	Boiling temperature at pressure P, K	uncertainty
0.0106	341.9	0.3
0.0207	342	0.3
0.0278	342.4	0.3
0.0288	342.4	0.3
0.0354	342.2	0.3
0.0395	342.4	0.3
0.0467	342.5	0.3
0.0518	342.4	0.3
0.0657	342.6	0.3
0.0694	342.9	0.3
0.0835	342.7	0.3
0.0904	342.7	0.3
0.0958	342.7	0.3

System: pentan-1-ol + hexane; phases: Gas, Liquid
Fixed: Pressure, kPa = 101.3
Property: Mole fraction of pentan-1-ol (Gas); method: Chromatography
Mole fraction of pentan-1-ol	Mole fraction of pentan-1-ol	uncertainty
0.0106	0.0072	0.0006
0.0207	0.0102	0.0006
0.0278	0.013	0.0006
0.0288	0.0131	0.0006
0.0354	0.0142	0.0006
0.0395	0.015	0.0006
0.0467	0.0159	0.0006
0.0518	0.0172	0.0006
0.0657	0.0193	0.0006
0.0694	0.0197	0.0006
0.0835	0.0204	0.0006
0.0904	0.0209	0.0006
0.0958	0.0214	0.0006
