Measured thermophysical data. Density, Viscosity, Refractive Index, Excess Molar Volume, Viscosity, and Refractive Index Deviations and Their Correlations for the (Formamide + Water) System. Isobaric (Vapor + Liquid) Equilibrium at 2.5 kPa
Source: J. Chem. Eng. Data, 2008, 10.1021/je700517f
Compound 1: formamide, CH3NO, InChI=1S/CH3NO/c2-1-3/h1H,(H2,2,3)
Compound 2: water, H2O, InChI=1S/H2O/h1H2

System: formamide; phases: Liquid, Gas
Property: Vapor or sublimation pressure, kPa (Liquid); method: EBULLIO:UFactor:8
Temperature, K	Vapor or sublimation pressure, kPa	uncertainty
348.4	0.28	0.17
359.3	0.65	0.17
371.7	1.3	0.17
384.5	2.5	0.17
386.3	2.67	0.17
401.8	5.33	0.171
411.9	8	0.172
425.3	13.33	0.174
444.5	26.7	0.178

System: formamide; phases: Liquid
Fixed: Pressure, kPa = 101.325
Property: Refractive index (Na D-line) (Liquid); method: ABBE:UFactor:4
Temperature, K	Refractive index (Na D-line)	uncertainty
293.15	1.44805	0.00129
303.15	1.44434	0.0013
313.15	1.4405	0.00129
323.15	1.43715	0.00128

System: formamide; phases: Liquid
Fixed: Pressure, kPa = 101.3
Property: Viscosity, Pa*s (Liquid); method: CAPTUB:UFactor:8
Temperature, K	Viscosity, Pa*s	uncertainty
293.15	0.003792	0.000167
303.15	0.002941	0.000132
313.15	0.002361	0.000107
323.15	0.001966	9.1e-05

System: formamide; phases: Liquid
Fixed: Pressure, kPa = 101.3
Property: Mass density, kg/m3 (Liquid); method: VIBTUB:UFactor:32
Temperature, K	Mass density, kg/m3	uncertainty
293.15	1133	2.7
303.15	1124.6	2.6
313.15	1116.1	2.5
323.15	1108	2.4

System: formamide + water; phases: Liquid, Gas
Fixed: Pressure, kPa = 2.5
Property: Boiling temperature at pressure P, K (Liquid); method: EBULLIO:UFactor:16
Mole fraction of formamide	Boiling temperature at pressure P, K	uncertainty
0	279.4	6.2
0.232	293.55	6.2
0.391	302.05	6.2
0.466	305.97	6.2
0.545	310.05	6.2
0.589	314.82	6.2
0.748	320.45	6.2
0.806	330.75	6.2
0.879	339.05	6.21
0.937	352.75	6.24
1	384.5	6.2

System: formamide + water; phases: Gas, Liquid
Fixed: Pressure, kPa = 2.5
Property: Mole fraction of formamide (Gas); method: Chromatography
Mole fraction of formamide	Mole fraction of formamide	uncertainty
0	0	0.001
0.232	0.004	0.004
0.391	0.004	0.004
0.466	0.005	0.005
0.545	0.002	0.002
0.589	0.002	0.002
0.748	0.004	0.004
0.806	0.025	0.007
0.879	0.076	0.016
0.937	0.364	0.047
1	1	0.001

System: formamide + water; phases: Liquid
Fixed: Pressure, kPa = 101
Property: Viscosity, Pa*s (Liquid); method: CAPTUB:UFactor:8
Temperature, K	Mole fraction of formamide	Viscosity, Pa*s	uncertainty
293.15	0	0.001011	5e-05
293.15	0.0753	0.001098	5.4e-05
293.15	0.1519	0.001195	5.8e-05
293.15	0.2309	0.001318	6.3e-05
293.15	0.2959	0.001446	6.8e-05
293.15	0.3852	0.001603	7.5e-05
293.15	0.4854	0.001814	8.4e-05
293.15	0.5652	0.002035	9.4e-05
293.15	0.6138	0.002162	9.9e-05
293.15	0.6924	0.002401	0.000109
293.15	0.7676	0.002692	0.000121
293.15	0.8175	0.00293	0.000131
293.15	0.9254	0.003418	0.000152
293.15	1	0.003792	0.000167
303.15	0	0.000807	4.1e-05
303.15	0.0753	0.000886	4.4e-05
303.15	0.1519	0.000973	4.8e-05
303.15	0.2309	0.001073	5.3e-05
303.15	0.2959	0.001182	5.7e-05
303.15	0.3852	0.001306	6.2e-05
303.15	0.4854	0.001473	7e-05
303.15	0.5652	0.001631	7.6e-05
303.15	0.6138	0.001743	8.1e-05
303.15	0.6924	0.001932	8.9e-05
303.15	0.7676	0.002145	9.8e-05
303.15	0.8175	0.002313	0.000105
303.15	0.9254	0.002661	0.00012
303.15	1	0.002941	0.000132
313.15	0	0.000662	3.5e-05
313.15	0.0753	0.000734	3.8e-05
313.15	0.1519	0.000811	4.1e-05
313.15	0.2309	0.000898	4.5e-05
313.15	0.2959	0.000988	4.9e-05
313.15	0.3852	0.001089	5.3e-05
313.15	0.4854	0.001227	5.9e-05
313.15	0.5652	0.001353	6.4e-05
313.15	0.6138	0.001441	6.8e-05
313.15	0.6924	0.001586	7.4e-05
313.15	0.7676	0.001757	8.2e-05
313.15	0.8175	0.001891	8.7e-05
313.15	0.9254	0.002155	9.9e-05
313.15	1	0.002361	0.000107
323.15	0	0.000556	3e-05
323.15	0.0753	0.000621	3.3e-05
323.15	0.1519	0.000688	3.6e-05
323.15	0.2309	0.000788	4e-05
323.15	0.2959	0.00084	4.2e-05
323.15	0.3852	0.000924	4.6e-05
323.15	0.4854	0.001042	5.1e-05
323.15	0.5652	0.001144	5.6e-05
323.15	0.6138	0.00122	5.9e-05
323.15	0.6924	0.001343	6.4e-05
323.15	0.7676	0.001477	7e-05
323.15	0.8175	0.001574	7.4e-05
323.15	0.9254	0.001784	8.3e-05
323.15	1	0.001966	9.1e-05

System: formamide + water; phases: Liquid
Fixed: Pressure, kPa = 101
Property: Refractive index (Na D-line) (Liquid); method: ABBE:UFactor:4
Temperature, K	Mole fraction of formamide	Refractive index (Na D-line)	uncertainty
293.15	0	1.33375	0.00125
293.15	0.0753	1.35293	0.00125
293.15	0.1519	1.36831	0.00126
293.15	0.2309	1.38233	0.00126
293.15	0.2959	1.39192	0.00126
293.15	0.3852	1.40215	0.00127
293.15	0.4854	1.4125	0.00127
293.15	0.5652	1.41967	0.00127
293.15	0.6138	1.42395	0.00126
293.15	0.6924	1.42992	0.00126
293.15	0.7676	1.43511	0.00127
293.15	0.8175	1.43806	0.00128
293.15	0.9254	1.4442	0.00128
293.15	1	1.44805	0.00129
303.15	0	1.3325	0.00125
303.15	0.0753	1.35045	0.00126
303.15	0.1519	1.36573	0.00126
303.15	0.2309	1.37948	0.00126
303.15	0.2959	1.38925	0.00127
303.15	0.3852	1.39904	0.00128
303.15	0.4854	1.40943	0.00127
303.15	0.5652	1.41696	0.00127
303.15	0.6138	1.42167	0.00127
303.15	0.6924	1.42755	0.00127
303.15	0.7676	1.43233	0.00128
303.15	0.8175	1.43482	0.00129
303.15	0.9254	1.4407	0.00129
303.15	1	1.44434	0.0013
313.15	0	1.33062	0.00126
313.15	0.0753	1.34864	0.00125
313.15	0.1519	1.36377	0.00125
313.15	0.2309	1.37773	0.00126
313.15	0.2959	1.38711	0.00126
313.15	0.3852	1.3962	0.00127
313.15	0.4854	1.40688	0.00128
313.15	0.5652	1.41414	0.00128
313.15	0.6138	1.41862	0.00129
313.15	0.6924	1.42415	0.0013
313.15	0.7676	1.4286	0.0013
313.15	0.8175	1.43121	0.00129
313.15	0.9254	1.43676	0.00129
313.15	1	1.4405	0.00129
323.15	0	1.32905	0.00125
323.15	0.0753	1.34732	0.00127
323.15	0.1519	1.36233	0.00126
323.15	0.2309	1.37585	0.00127
323.15	0.2959	1.3848	0.00128
323.15	0.3852	1.39411	0.00127
323.15	0.4854	1.40344	0.00129
323.15	0.5652	1.41038	0.0013
323.15	0.6138	1.41455	0.00132
323.15	0.6924	1.42011	0.00131
323.15	0.7676	1.42482	0.0013
323.15	0.8175	1.4275	0.00129
323.15	0.9254	1.43334	0.00129
323.15	1	1.43715	0.00128

System: formamide + water; phases: Liquid
Fixed: Pressure, kPa = 101
Property: Mass density, kg/m3 (Liquid); method: VIBTUB:UFactor:32
Temperature, K	Mole fraction of formamide	Mass density, kg/m3	uncertainty
293.15	0.0753	1024.3	1.3
293.15	0.1519	1043.7	1.6
293.15	0.2309	1061.5	1.8
293.15	0.2959	1072.2	1.9
293.15	0.3852	1083.5	2.1
293.15	0.4854	1095.2	2.2
293.15	0.5652	1103.1	2.3
293.15	0.6138	1107.1	2.4
293.15	0.6924	1114.5	2.4
293.15	0.7676	1119.2	2.5
293.15	0.8175	1122.6	2.5
293.15	0.9254	1129.1	2.6
293.15	1	1133	2.7
303.15	0.0753	1019.9	1.3
303.15	0.1519	1038.1	1.5
303.15	0.2309	1054.5	1.7
303.15	0.2959	1065.4	1.8
303.15	0.3852	1076.5	2
303.15	0.4854	1087.6	2.1
303.15	0.5652	1095.3	2.2
303.15	0.6138	1100.4	2.3
303.15	0.6924	1105.8	2.3
303.15	0.7676	1110.9	2.4
303.15	0.8175	1114.3	2.4
303.15	0.9254	1120.6	2.5
303.15	1	1124.6	2.6
313.15	0.0753	1014.9	1.2
313.15	0.1519	1032.2	1.4
313.15	0.2309	1048.4	1.6
313.15	0.2959	1058.3	1.8
313.15	0.3852	1068.9	1.9
313.15	0.4854	1079.8	2
313.15	0.5652	1087.3	2.1
313.15	0.6138	1091.3	2.2
313.15	0.6924	1097.1	2.2
313.15	0.7676	1102.7	2.3
313.15	0.8175	1105.9	2.3
313.15	0.9254	1112.2	2.4
313.15	1	1116.1	2.5
323.15	0.0753	1009.4	1.2
323.15	0.1519	1026	1.4
323.15	0.2309	1041.7	1.6
323.15	0.2959	1051.3	1.7
323.15	0.3852	1061.6	1.8
323.15	0.4854	1072.2	1.9
323.15	0.5652	1079.7	2
323.15	0.6138	1084	2.1
323.15	0.6924	1090.3	2.1
323.15	0.7676	1094.8	2.2
323.15	0.8175	1097.9	2.2
323.15	0.9254	1104.1	2.3
323.15	1	1108	2.4
