Measured thermophysical data. Thermodynamic Properties of AgCl and AgBr
Source: J. Chem. Eng. Data, 2008, 10.1021/je700668b
Compound 1: silver chloride, AgCl, InChI=1S/Ag.ClH/h;1H/q+1;/p-1, purity 99.9%
Compound 2: silver bromide, AgBr, InChI=1S/Ag.BrH/h;1H/q+1;/p-1, purity 99.9%

System: silver chloride; phases: Crystal, Liquid, Air at 1 atmosphere
Property: Molar enthalpy of transition or fusion, kJ/mol (Crystal); method: DSC
Molar enthalpy of transition or fusion, kJ/mol	uncertainty
13.16	0.81

System: silver chloride; phases: Crystal, Liquid, Air at 1 atmosphere
Property: Normal melting temperature, K (Crystal); method: DTA
Normal melting temperature, K	uncertainty
736	2

System: silver chloride; phases: Crystal
Fixed: Pressure, kPa = 101.325
Property: Molar heat capacity at constant pressure, J/K/mol (Crystal); method: Small sample (50 mg) DSC
Temperature, K	Molar heat capacity at constant pressure, J/K/mol	uncertainty
298.15	60.33	2
300	60.35	2
400	61.24	2.03
500	62.14	2.06
600	63.03	2.09
629	63.29	2.1
629	63.29	2.1

System: silver chloride; phases: Liquid
Fixed: Pressure, kPa = 101.325
Property: Molar heat capacity at constant pressure, J/K/mol (Liquid); method: Small sample (50 mg) DSC
Temperature, K	Molar heat capacity at constant pressure, J/K/mol	uncertainty
736	61.23	2.03
800	61.23	2.03
900	61.23	2.03
1000	61.23	2.03

System: silver bromide; phases: Crystal, Liquid, Air at 1 atmosphere
Property: Molar enthalpy of transition or fusion, kJ/mol (Crystal); method: DSC
Molar enthalpy of transition or fusion, kJ/mol	uncertainty
7.92	0.67

System: silver bromide; phases: Crystal, Liquid, Air at 1 atmosphere
Property: Normal melting temperature, K (Crystal); method: DTA
Normal melting temperature, K	uncertainty
695	2

System: silver bromide; phases: Crystal
Fixed: Pressure, kPa = 101.325
Property: Molar heat capacity at constant pressure, J/K/mol (Crystal); method: Small sample (50 mg) DSC
Temperature, K	Molar heat capacity at constant pressure, J/K/mol	uncertainty
298.15	56.55	1.88
300	56.59	1.88
400	58.75	1.95
500	60.91	2.02
500	60.91	2.02

System: silver bromide; phases: Liquid
Fixed: Pressure, kPa = 101.325
Property: Molar heat capacity at constant pressure, J/K/mol (Liquid); method: Small sample (50 mg) DSC
Temperature, K	Molar heat capacity at constant pressure, J/K/mol	uncertainty
695	59.25	1.97
700	59.25	1.97
800	59.25	1.97
