Measured thermophysical data. Solubility of Anthracene in Binary Propyl Acetate + Alcohol Solvent Mixtures at 298.15 K
Source: J. Chem. Eng. Data, 2008, 10.1021/je700502x
Compound 1: anthracene, C14H10, InChI=1S/C14H10/c1-2-6-12-10-14-8-4-3-7-13(14)9-11(12)5-1/h1-10H
Compound 2: propyl ethanoate, C5H10O2, InChI=1S/C5H10O2/c1-3-4-7-5(2)6/h3-4H2,1-2H3
Compound 3: propan-1-ol, C3H8O, InChI=1S/C3H8O/c1-2-3-4/h4H,2-3H2,1H3
Compound 4: propan-2-ol, C3H8O, InChI=1S/C3H8O/c1-3(2)4/h3-4H,1-2H3
Compound 5: butan-1-ol, C4H10O, InChI=1S/C4H10O/c1-2-3-4-5/h5H,2-4H2,1H3
Compound 6: butan-2-ol, C4H10O, InChI=1S/C4H10O/c1-3-4(2)5/h4-5H,3H2,1-2H3
Compound 7: 2-methyl-1-propanol, C4H10O, InChI=1S/C4H10O/c1-4(2)3-5/h4-5H,3H2,1-2H3
Compound 8: 3-methylbutan-1-ol, C5H12O, InChI=1S/C5H12O/c1-5(2)3-4-6/h5-6H,3-4H2,1-2H3

System: anthracene + 3-methylbutan-1-ol; phases: Liquid, Crystal
Property: Mole fraction of anthracene (Liquid); method: OTHER::sMethod:Beer's Law
Temperature, K	Pressure, kPa	Mole fraction of anthracene	uncertainty
298.15	101	0.000727	2.2e-05

System: propan-1-ol + anthracene; phases: Liquid, Crystal
Property: Mole fraction of anthracene (Liquid); method: Beer's Law
Temperature, K	Pressure, kPa	Mole fraction of anthracene	uncertainty
298.15	101	0.000591	1.8e-05

System: propyl ethanoate + anthracene; phases: Liquid, Crystal
Property: Mole fraction of anthracene (Liquid); method: OTHER::sMethod:Beer's Law
Temperature, K	Pressure, kPa	Mole fraction of anthracene	uncertainty
298.15	101	0.00588	0.00018

System: propan-2-ol + anthracene; phases: Liquid, Crystal
Property: Mole fraction of anthracene (Liquid); method: OTHER::sMethod:Beer's Law
Temperature, K	Pressure, kPa	Mole fraction of anthracene	uncertainty
298.15	101	0.000411	1.3e-05

System: butan-1-ol + anthracene; phases: Liquid, Crystal
Property: Mole fraction of anthracene (Liquid); method: OTHER::sMethod:Beer's Law
Temperature, K	Pressure, kPa	Mole fraction of anthracene	uncertainty
298.15	101	0.000801	2.4e-05

System: butan-2-ol + anthracene; phases: Liquid, Crystal
Property: Mole fraction of anthracene (Liquid); method: OTHER::sMethod:Beer's Law
Temperature, K	Pressure, kPa	Mole fraction of anthracene	uncertainty
298.15	101	0.000585	1.8e-05

System: 2-methyl-1-propanol + anthracene; phases: Liquid, Crystal
Property: Mole fraction of anthracene (Liquid); method: OTHER::sMethod:Beer's Law
Temperature, K	Pressure, kPa	Mole fraction of anthracene	uncertainty
298.15	101	0.00047	1.4e-05

System: propan-1-ol + propyl ethanoate + anthracene; phases: Liquid, Crystal
Fixed: Pressure, kPa = 101
Fixed: Temperature, K = 298.15
Property: Mole fraction of anthracene (Liquid); method: Beer's Law
Solvent: Mole fraction of propyl ethanoate	Mole fraction of anthracene	uncertainty
0	0.000591	1.8e-05
0.0872	0.000917	2.8e-05
0.1634	0.001211	3.7e-05
0.3403	0.00205	6e-05
0.4416	0.00252	8e-05
0.5377	0.00309	9e-05
0.7587	0.00438	0.00013
0.8699	0.00504	0.00015
1	0.00588	0.00018

System: propan-2-ol + propyl ethanoate + anthracene; phases: Liquid, Crystal
Fixed: Pressure, kPa = 101
Fixed: Temperature, K = 298.15
Property: Mole fraction of anthracene (Liquid); method: Beer's Law
Solvent: Mole fraction of propyl ethanoate	Mole fraction of anthracene	uncertainty
0	0.000411	1.3e-05
0.0714	0.000672	2.1e-05
0.1352	0.000931	2.8e-05
0.351	0.001973	6e-05
0.4018	0.00225	7e-05
0.5016	0.0028	9e-05
0.7254	0.0041	0.00012
0.8374	0.00479	0.00015

System: butan-1-ol + propyl ethanoate + anthracene; phases: Liquid, Crystal
Fixed: Pressure, kPa = 101
Fixed: Temperature, K = 298.15
Property: Mole fraction of anthracene (Liquid); method: Beer's Law
Solvent: Mole fraction of propyl ethanoate	Mole fraction of anthracene	uncertainty
0	0.000801	2.4e-05
0.0872	0.001189	3.6e-05
0.1634	0.001548	4.7e-05
0.3403	0.00241	7e-05
0.4416	0.00297	9e-05
0.5377	0.00352	0.00011
0.7587	0.00478	0.00014
0.8699	0.00538	0.00016

System: butan-2-ol + propyl ethanoate + anthracene; phases: Liquid, Crystal
Fixed: Pressure, kPa = 101
Fixed: Temperature, K = 298.15
Property: Mole fraction of anthracene (Liquid); method: Beer's Law
Solvent: Mole fraction of propyl ethanoate	Mole fraction of anthracene	uncertainty
0	0.000585	1.8e-05
0.0842	0.000946	2.9e-05
0.1636	0.001311	4e-05
0.3427	0.00221	7e-05
0.431	0.00269	8e-05
0.5447	0.00335	0.0001
0.7581	0.00464	0.00014
0.8652	0.00523	0.00016

System: 2-methyl-1-propanol + propyl ethanoate + anthracene; phases: Liquid, Crystal
Fixed: Pressure, kPa = 101
Fixed: Temperature, K = 298.15
Property: Mole fraction of anthracene (Liquid); method: Beer's Law
Solvent: Mole fraction of propyl ethanoate	Mole fraction of anthracene	uncertainty
0	0.00047	1.4e-05
0.0853	0.000791	2.4e-05
0.1755	0.001185	3.6e-05
0.3477	0.001987	6e-05
0.4462	0.00248	8e-05
0.5508	0.00309	9e-05
0.7562	0.00441	0.00013
0.865	0.00513	0.00016

System: propyl ethanoate + anthracene + 3-methylbutan-1-ol; phases: Liquid, Crystal
Fixed: Pressure, kPa = 101
Fixed: Temperature, K = 298.15
Property: Mole fraction of anthracene (Liquid); method: Beer's Law
Solvent: Mole fraction of propyl ethanoate	Mole fraction of anthracene	uncertainty
0	0.000727	2.2e-05
0.089	0.001085	3.3e-05
0.1932	0.001552	4.7e-05
0.3811	0.00242	7e-05
0.4848	0.00294	9e-05
0.5842	0.00354	0.00011
0.7905	0.00478	0.00014
0.8877	0.00532	0.00016
