Measured thermophysical data. Thermodynamic and Transport Properties of Some Disaccharides in Aqueous Ammonium Sulfate Solutions at Various Temperatures
Source: J. Chem. Eng. Data, 2008, 10.1021/je700730j
Compound 1: water, H2O, InChI=1S/H2O/h1H2
Compound 2: ammonium sulfate, H8N2O4S, InChI=1S/2H3N.H2O4S/c;;1-5(2,3)4/h2*1H3;(H2,1,2,3,4)
Compound 3: 4-O-.beta.-D-galactopyranosyl-D-glucose hydrate (1:1), C12H24O12, InChI=1S/C12H22O11.H2O/c13-1-4(16)7(18)11(5(17)2-14)23-12-10(21)9(20)8(19)6(3-15)22-12;/h1,4-12,14-21H,2-3H2;1H2/t4-,5+,6+,7+,8-,9-,10+,11+,12-;/m0./s1
Compound 4: D-(+)-maltose monohydrate, C12H24O12, InChI=1S/C12H22O11.H2O/c13-1-3-5(15)6(16)9(19)12(22-3)23-10-4(2-14)21-11(20)8(18)7(10)17;/h3-20H,1-2H2;1H2/t3-,4-,5-,6+,7-,8-,9-,10-,11-,12-;/m1./s1
Compound 5: D-cellobiose, C12H22O11, InChI=1S/C12H22O11/c13-1-3-5(15)6(16)9(19)12(22-3)23-10-4(2-14)21-11(20)8(18)7(10)17/h3-20H,1-2H2/t3-,4-,5-,6+,7-,8-,9-,10-,11-,12+/m1/s1
Compound 6: D-sucrose, C12H22O11, InChI=1S/C12H22O11/c13-1-4-6(16)8(18)9(19)11(21-4)23-12(3-15)10(20)7(17)5(2-14)22-12/h4-11,13-20H,1-3H2/t4-,5-,6-,7-,8+,9-,10+,11-,12+/m1/s1

System: water + ammonium sulfate; phases: Liquid
Fixed: Pressure, kPa = 101
Property: Viscosity, Pa*s (Liquid); method: CAPTUB:UFactor:4
Temperature, K	Molality, mol/kg of ammonium sulfate	Viscosity, Pa*s	uncertainty
288.15	0.4985	0.0012662	3.97e-05
288.15	0.99705	0.002259	6.78e-05
298.15	0.4985	0.0009796	3.16e-05
298.15	0.99705	0.0017094	5.24e-05
308.15	0.4985	0.0008523	2.79e-05
308.15	0.99705	0.0014271	4.42e-05
318.15	0.4985	0.0007339	2.46e-05
318.15	0.99705	0.001231	3.86e-05

System: water + ammonium sulfate; phases: Liquid
Fixed: Pressure, kPa = 101
Property: Refractive index (Na D-line) (Liquid); method: Standard Abbe refractometry
Molality, mol/kg of ammonium sulfate	Temperature, K	Refractive index (Na D-line)	uncertainty
0.4985	288.15	1.344	0.002
0.4985	298.15	1.343	0.002
0.4985	308.15	1.341	0.002
0.4985	318.15	1.339	0.002
0.99705	288.15	1.352	0.002
0.99705	298.15	1.351	0.002
0.99705	308.15	1.349	0.002
0.99705	318.15	1.347	0.002

System: water + ammonium sulfate; phases: Liquid
Fixed: Pressure, kPa = 101
Property: Mass density, kg/m3 (Liquid); method: Vibrating tube method
Molality, mol/kg of ammonium sulfate	Temperature, K	Mass density, kg/m3	uncertainty
0.4985	288.15	1039.149	0.955
0.4985	298.15	1037.15	0.953
0.4985	308.15	1033.063	0.943
0.4985	318.15	1027.668	0.93
0.99705	288.15	1071.086	1.022
0.99705	298.15	1065.091	1.01
0.99705	308.15	1057.658	0.995
0.99705	318.15	1047.031	0.968

System: D-(+)-maltose monohydrate + water + ammonium sulfate; phases: Liquid
Fixed: Pressure, kPa = 101
Property: Viscosity, Pa*s (Liquid); method: CAPTUB:UFactor:2
Solvent: Molality, mol/kg of ammonium sulfate	Temperature, K	Amount concentration (molarity), mol/dm3 of D-(+)-maltose monohydrate	Viscosity, Pa*s	uncertainty
0.4985	288.15	0.05106	1.0862	0.0155
0.4985	288.15	0.07089	1.1199	0.016
0.4985	288.15	0.10203	1.1723	0.0167
0.4985	288.15	0.49116	1.8301	0.0261
0.4985	298.15	0.05096	1.0841	0.0155
0.4985	298.15	0.07074	1.1168	0.0159
0.4985	298.15	0.1018	1.1681	0.0167
0.4985	298.15	0.4896	1.8094	0.0258
0.4985	308.15	0.05075	1.0783	0.0154
0.4985	308.15	0.07045	1.1088	0.0158
0.4985	308.15	0.10139	1.1566	0.0165
0.4985	308.15	0.48734	1.7539	0.025
0.4985	318.15	0.05048	1.068	0.0152
0.4985	318.15	0.07006	1.0945	0.0156
0.4985	318.15	0.10081	1.136	0.0162
0.4985	318.15	0.48363	1.6547	0.0236
0.99705	288.15	0.05461	1.1252	0.016
0.99705	288.15	0.07569	1.1737	0.0167
0.99705	288.15	0.0875	1.2009	0.0171
0.99705	288.15	0.10515	1.2413	0.0177
0.99705	288.15	0.15201	1.3488	0.0192
0.99705	298.15	0.05429	1.1187	0.016
0.99705	298.15	0.07525	1.1644	0.0166
0.99705	298.15	0.08699	1.1902	0.017
0.99705	298.15	0.10453	1.2286	0.0175
0.99705	298.15	0.1511	1.3306	0.019
0.99705	308.15	0.0539	1.1111	0.0158
0.99705	308.15	0.0747	1.1541	0.0165
0.99705	308.15	0.08635	1.1781	0.0168
0.99705	308.15	0.10284	1.2141	0.0173
0.99705	308.15	0.14995	1.3095	0.0187
0.99705	318.15	0.05332	1.0915	0.0156
0.99705	318.15	0.07388	1.1269	0.0161
0.99705	318.15	0.08538	1.1467	0.0164
0.99705	318.15	0.10257	1.1763	0.0168
0.99705	318.15	0.14815	1.2549	0.0179

System: D-(+)-maltose monohydrate + water + ammonium sulfate; phases: Liquid
Fixed: Pressure, kPa = 101
Property: Refractive index (Na D-line) (Liquid); method: Standard Abbe refractometry
Solvent: Molality, mol/kg of ammonium sulfate	Temperature, K	Molality, mol/kg of D-(+)-maltose monohydrate	Refractive index (Na D-line)	uncertainty
0.4985	288.15	0	1.344	0.002
0.4985	288.15	0.04928	1.368	0.002
0.4985	288.15	0.0695	1.369	0.002
0.4985	288.15	0.10055	1.37	0.002
0.4985	288.15	0.5331	1.386	0.002
0.4985	288.15	0.8235	1.397	0.002
0.4985	288.15	1.23154	1.411	0.002
0.4985	298.15	0	1.343	0.002
0.4985	298.15	0.04928	1.366	0.002
0.4985	298.15	0.0695	1.367	0.002
0.4985	298.15	0.10055	1.368	0.002
0.4985	298.15	0.5331	1.385	0.002
0.4985	298.15	0.8235	1.396	0.002
0.4985	298.15	1.23154	1.409	0.002
0.4985	308.15	0	1.341	0.002
0.4985	308.15	0.04928	1.365	0.002
0.4985	308.15	0.0695	1.365	0.002
0.4985	308.15	0.10055	1.366	0.002
0.4985	308.15	0.5331	1.384	0.002
0.4985	308.15	0.8235	1.395	0.002
0.4985	308.15	1.23154	1.408	0.002
0.4985	318.15	0	1.339	0.002
0.4985	318.15	0.04928	1.361	0.002
0.4985	318.15	0.0695	1.362	0.002
0.4985	318.15	0.10055	1.364	0.002
0.4985	318.15	0.5331	1.381	0.002
0.4985	318.15	0.8235	1.393	0.002
0.4985	318.15	1.23154	1.406	0.002
0.99705	288.15	0	1.352	0.002
0.99705	288.15	0.05164	1.378	0.002
0.99705	288.15	0.07194	1.379	0.002
0.99705	288.15	0.0834	1.379	0.002
0.99705	288.15	0.10065	1.38	0.002
0.99705	288.15	0.14717	1.382	0.002
0.99705	298.15	0	1.351	0.002
0.99705	298.15	0.05164	1.376	0.002
0.99705	298.15	0.07194	1.377	0.002
0.99705	298.15	0.0834	1.377	0.002
0.99705	298.15	0.10065	1.379	0.002
0.99705	298.15	0.14717	1.381	0.002
0.99705	308.15	0	1.349	0.002
0.99705	308.15	0.05164	1.374	0.002
0.99705	308.15	0.07194	1.376	0.002
0.99705	308.15	0.0834	1.376	0.002
0.99705	308.15	0.10065	1.377	0.002
0.99705	308.15	0.14717	1.38	0.002
0.99705	318.15	0	1.347	0.002
0.99705	318.15	0.05164	1.372	0.002
0.99705	318.15	0.07194	1.375	0.002
0.99705	318.15	0.0834	1.375	0.002
0.99705	318.15	0.10065	1.375	0.002
0.99705	318.15	0.14717	1.378	0.002

System: D-(+)-maltose monohydrate + water + ammonium sulfate; phases: Liquid
Fixed: Pressure, kPa = 101
Property: Mass density, kg/m3 (Liquid); method: Vibrating tube method
Solvent: Molality, mol/kg of ammonium sulfate	Temperature, K	Molality, mol/kg of D-(+)-maltose monohydrate	Mass density, kg/m3	uncertainty
0.4985	288.15	0	1039.149	0.955
0.4985	288.15	0.04928	1045.257	0.968
0.4985	288.15	0.0695	1047.721	0.973
0.4985	288.15	0.10055	1051.454	0.981
0.4985	288.15	0.5331	1098.301	1.081
0.4985	288.15	0.8235	1125.095	1.14
0.4985	288.15	1.23154	1157.885	1.215
0.4985	298.15	0	1037.15	0.953
0.4985	298.15	0.04928	1043.11	0.963
0.4985	298.15	0.0695	1045.509	0.969
0.4985	298.15	0.10055	1049.152	0.973
0.4985	298.15	0.5331	1094.806	1.073
0.4985	298.15	0.8235	1120.857	1.13
0.4985	298.15	1.23154	1152.573	1.203
0.4985	308.15	0	1033.063	0.943
0.4985	308.15	0.04928	1038.881	0.955
0.4985	308.15	0.0695	1041.218	0.963
0.4985	308.15	0.10055	1044.869	0.964
0.4985	308.15	0.5331	1089.744	1.062
0.4985	308.15	0.8235	1114.651	1.116
0.4985	308.15	1.23154	1145.425	1.186
0.4985	318.15	0	1027.668	0.93
0.4985	318.15	0.04928	1033.243	0.943
0.4985	318.15	0.0695	1035.49	0.948
0.4985	318.15	0.10055	1038.893	0.953
0.4985	318.15	0.5331	1081.459	1.043
0.4985	318.15	0.8235	1105.688	1.095
0.4985	318.15	1.23154	1135.104	1.162
0.99705	288.15	0	1071.086	1.022
0.99705	288.15	0.05164	1077.065	1.035
0.99705	288.15	0.07194	1079.37	1.04
0.99705	288.15	0.0834	1080.657	1.043
0.99705	288.15	0.10065	1082.582	1.047
0.99705	288.15	0.14717	1087.691	1.058
0.99705	298.15	0	1065.091	1.01
0.99705	298.15	0.05164	1070.867	1.065
0.99705	298.15	0.07194	1073.096	1.138
0.99705	298.15	0.0834	1074.34	1.123
0.99705	298.15	0.10065	1076.202	1.033
0.99705	298.15	0.14717	1081.144	1.085
0.99705	308.15	0	1057.658	0.995
0.99705	308.15	0.05164	1063.147	1.029
0.99705	308.15	0.07194	1065.265	1.12
0.99705	308.15	0.0834	1066.447	1.114
0.99705	308.15	0.10065	1068.215	1.016
0.99705	308.15	0.14717	1072.905	1.068
0.99705	318.15	0	1047.031	0.968
0.99705	318.15	0.05164	1051.717	0.978
0.99705	318.15	0.07194	1053.522	0.982
0.99705	318.15	0.0834	1054.53	0.984
0.99705	318.15	0.10065	1056.037	0.987
0.99705	318.15	0.14717	1060.026	0.996

System: water + ammonium sulfate + 4-O-.beta.-D-galactopyranosyl-D-glucose hydrate (1:1); phases: Liquid
Fixed: Pressure, kPa = 101
Property: Viscosity, Pa*s (Liquid); method: CAPTUB:UFactor:2
Solvent: Molality, mol/kg of ammonium sulfate	Temperature, K	Amount concentration (molarity), mol/dm3 of 4-O-.beta.-D-galactopyranosyl-D-glucose hydrate (1:1)	Viscosity, Pa*s	uncertainty
0.4985	288.15	0.05036	1.0749	0.0153
0.4985	288.15	0.07045	1.1047	0.0158
0.4985	288.15	0.09059	1.1346	0.0162
0.4985	288.15	0.12115	1.18	0.0168
0.4985	288.15	0.15098	1.2243	0.0175
0.4985	288.15	0.20105	1.2988	0.0185
0.4985	298.15	0.05025	1.0665	0.0152
0.4985	298.15	0.0703	1.0929	0.0156
0.4985	298.15	0.0904	1.1196	0.016
0.4985	298.15	0.12089	1.1599	0.0165
0.4985	298.15	0.15064	1.1993	0.0171
0.4985	298.15	0.20058	1.2654	0.018
0.4985	308.15	0.05004	1.0594	0.0151
0.4985	308.15	0.07002	1.0831	0.0154
0.4985	308.15	0.09002	1.107	0.0158
0.4985	308.15	0.12038	1.1431	0.0163
0.4985	308.15	0.15	1.1783	0.0168
0.4985	308.15	0.19971	1.2374	0.0176
0.4985	318.15	0.04978	1.0543	0.015
0.4985	318.15	0.06963	1.0759	0.0153
0.4985	318.15	0.08953	1.0979	0.0157
0.4985	318.15	0.1197	1.131	0.0161
0.4985	318.15	0.14913	1.1632	0.0166
0.4985	318.15	0.19852	1.2173	0.0174
0.99705	288.15	0.05297	1.0998	0.0157
0.99705	288.15	0.07107	1.1337	0.0162
0.99705	288.15	0.09721	1.183	0.0169
0.99705	288.15	0.10435	1.1965	0.0171
0.99705	288.15	0.14959	1.2817	0.0183
0.99705	298.15	0.05267	1.0833	0.0154
0.99705	298.15	0.07065	1.1119	0.0159
0.99705	298.15	0.09664	1.1531	0.0164
0.99705	298.15	0.10373	1.1643	0.0166
0.99705	298.15	0.14868	1.2355	0.0176
0.99705	308.15	0.05229	1.0703	0.0153
0.99705	308.15	0.07015	1.0942	0.0156
0.99705	308.15	0.09594	1.1289	0.0161
0.99705	308.15	0.10298	1.1384	0.0162
0.99705	308.15	0.14759	1.1983	0.0171
0.99705	318.15	0.05175	1.0629	0.0152
0.99705	318.15	0.06941	1.0843	0.0155
0.99705	318.15	0.09492	1.1153	0.0159
0.99705	318.15	0.10188	1.1238	0.016
0.99705	318.15	0.14597	1.1773	0.0168

System: water + ammonium sulfate + 4-O-.beta.-D-galactopyranosyl-D-glucose hydrate (1:1); phases: Liquid
Fixed: Pressure, kPa = 101
Property: Refractive index (Na D-line) (Liquid); method: Standard Abbe refractometry
Solvent: Molality, mol/kg of ammonium sulfate	Temperature, K	Molality, mol/kg of 4-O-.beta.-D-galactopyranosyl-D-glucose hydrate (1:1)	Refractive index (Na D-line)	uncertainty
0.4985	288.15	0.04902	1.366	0.002
0.4985	288.15	0.06891	1.367	0.002
0.4985	288.15	0.08902	1.369	0.002
0.4985	288.15	0.11992	1.371	0.002
0.4985	288.15	0.1505	1.373	0.002
0.4985	288.15	0.2028	1.375	0.002
0.4985	298.15	0.04902	1.365	0.002
0.4985	298.15	0.06891	1.365	0.002
0.4985	298.15	0.08902	1.367	0.002
0.4985	298.15	0.11992	1.37	0.002
0.4985	298.15	0.1505	1.372	0.002
0.4985	298.15	0.2028	1.372	0.002
0.4985	308.15	0.04902	1.364	0.002
0.4985	308.15	0.06891	1.364	0.002
0.4985	308.15	0.08902	1.365	0.002
0.4985	308.15	0.11992	1.369	0.002
0.4985	308.15	0.1505	1.37	0.002
0.4985	308.15	0.2028	1.371	0.002
0.4985	318.15	0.04902	1.36	0.002
0.4985	318.15	0.06891	1.362	0.002
0.4985	318.15	0.08902	1.363	0.002
0.4985	318.15	0.11992	1.367	0.002
0.4985	318.15	0.1505	1.367	0.002
0.4985	318.15	0.2028	1.37	0.002
0.99705	288.15	0.05009	1.376	0.002
0.99705	288.15	0.06747	1.377	0.002
0.99705	288.15	0.09286	1.377	0.002
0.99705	288.15	0.09984	1.379	0.002
0.99705	288.15	0.1447	1.38	0.002
0.99705	298.15	0.05009	1.374	0.002
0.99705	298.15	0.06747	1.376	0.002
0.99705	298.15	0.09286	1.376	0.002
0.99705	298.15	0.09984	1.378	0.002
0.99705	298.15	0.1447	1.379	0.002
0.99705	308.15	0.05009	1.372	0.002
0.99705	308.15	0.06747	1.375	0.002
0.99705	308.15	0.09286	1.375	0.002
0.99705	308.15	0.09984	1.376	0.002
0.99705	308.15	0.1447	1.378	0.002
0.99705	318.15	0.05009	1.372	0.002
0.99705	318.15	0.06747	1.372	0.002
0.99705	318.15	0.09286	1.373	0.002
0.99705	318.15	0.09984	1.374	0.002
0.99705	318.15	0.1447	1.376	0.002

System: water + ammonium sulfate + 4-O-.beta.-D-galactopyranosyl-D-glucose hydrate (1:1); phases: Liquid
Fixed: Pressure, kPa = 101
Property: Mass density, kg/m3 (Liquid); method: Vibrating tube method
Solvent: Molality, mol/kg of ammonium sulfate	Temperature, K	Molality, mol/kg of 4-O-.beta.-D-galactopyranosyl-D-glucose hydrate (1:1)	Mass density, kg/m3	uncertainty
0.4985	288.15	0.04902	1045.3	0.968
0.4985	288.15	0.06891	1047.751	0.973
0.4985	288.15	0.08902	1050.204	0.978
0.4985	288.15	0.11992	1053.927	0.986
0.4985	288.15	0.1505	1057.544	0.994
0.4985	288.15	0.2028	1063.634	1.007
0.4985	298.15	0.04902	1043.177	0.968
0.4985	298.15	0.06891	1045.577	0.969
0.4985	298.15	0.08902	1047.979	0.974
0.4985	298.15	0.11992	1051.625	0.982
0.4985	298.15	0.1505	1055.173	0.989
0.4985	298.15	0.2028	1061.128	1.001
0.4985	308.15	0.04902	1038.967	0.96
0.4985	308.15	0.06891	1041.319	0.962
0.4985	308.15	0.08902	1043.669	0.967
0.4985	308.15	0.11992	1047.237	0.974
0.4985	308.15	0.1505	1050.711	0.981
0.4985	308.15	0.2028	1056.541	0.993
0.4985	318.15	0.04902	1033.354	0.938
0.4985	318.15	0.06891	1035.616	0.948
0.4985	318.15	0.08902	1037.879	0.952
0.4985	318.15	0.11992	1041.306	0.96
0.4985	318.15	0.1505	1044.641	0.966
0.4985	318.15	0.2028	1050.25	0.98
0.99705	288.15	0.05009	1076.982	1.035
0.99705	288.15	0.06747	1078.993	1.04
0.99705	288.15	0.09286	1081.895	1.046
0.99705	288.15	0.09984	1082.685	1.047
0.99705	288.15	0.1447	1087.701	1.058
0.99705	298.15	0.05009	1070.778	1.151
0.99705	298.15	0.06747	1072.715	1.109
0.99705	298.15	0.09286	1075.508	1.183
0.99705	298.15	0.09984	1076.27	1.27
0.99705	298.15	0.1447	1081.1	1.107
0.99705	308.15	0.05009	1063.17	1.084
0.99705	308.15	0.06747	1065.048	1.054
0.99705	308.15	0.09286	1067.755	1.124
0.99705	308.15	0.09984	1068.493	1.288
0.99705	308.15	0.1447	1073.173	1.079
0.99705	318.15	0.05009	1052.144	0.98
0.99705	318.15	0.06747	1053.884	0.984
0.99705	318.15	0.09286	1056.398	0.989
0.99705	318.15	0.09984	1057.08	0.991
0.99705	318.15	0.1447	1061.423	1

System: D-sucrose + water + ammonium sulfate; phases: Liquid
Fixed: Pressure, kPa = 101
Property: Viscosity, Pa*s (Liquid); method: CAPTUB:UFactor:2
Solvent: Molality, mol/kg of ammonium sulfate	Temperature, K	Amount concentration (molarity), mol/dm3 of D-sucrose	Viscosity, Pa*s	uncertainty
0.4985	288.15	0.05001	1.0418	0.0149
0.4985	288.15	0.07157	1.0597	0.0151
0.4985	288.15	0.10396	1.0868	0.0155
0.4985	288.15	0.15043	1.1256	0.0161
0.4985	288.15	0.20117	1.168	0.0167
0.4985	298.15	0.04991	1.0398	0.0148
0.4985	298.15	0.07142	1.0567	0.0151
0.4985	298.15	0.10375	1.0826	0.0154
0.4985	298.15	0.15013	1.1195	0.016
0.4985	298.15	0.20074	1.1598	0.0165
0.4985	308.15	0.04971	1.0365	0.0148
0.4985	308.15	0.07113	1.0523	0.015
0.4985	308.15	0.10331	1.0759	0.0153
0.4985	308.15	0.14948	1.11	0.0158
0.4985	308.15	0.19985	1.1471	0.0164
0.4985	318.15	0.04944	1.0313	0.0147
0.4985	318.15	0.07074	1.0449	0.0149
0.4985	318.15	0.10273	1.0653	0.0152
0.4985	318.15	0.14862	1.0945	0.0156
0.4985	318.15	0.19867	1.1263	0.0161
0.99705	288.15	0.05152	1.0737	0.0153
0.99705	288.15	0.07055	1.1011	0.0157
0.99705	288.15	0.10302	1.1476	0.0164
0.99705	288.15	0.15612	1.2125	0.0173
0.99705	288.15	0.20535	1.2795	0.0182
0.99705	298.15	0.05123	1.0697	0.0153
0.99705	298.15	0.07015	1.0956	0.0156
0.99705	298.15	0.10244	1.1394	0.0162
0.99705	298.15	0.15523	1.2006	0.0171
0.99705	298.15	0.20418	1.264	0.018
0.99705	308.15	0.05085	1.0591	0.0151
0.99705	308.15	0.06963	1.0811	0.0154
0.99705	308.15	0.10166	1.1185	0.016
0.99705	308.15	0.15401	1.1706	0.0167
0.99705	308.15	0.20251	1.2242	0.0175
0.99705	318.15	0.05033	1.0505	0.015
0.99705	318.15	0.06891	1.0693	0.0152
0.99705	318.15	0.1006	1.1012	0.0157
0.99705	318.15	0.15237	1.1456	0.0163
0.99705	318.15	0.20031	1.1916	0.017

System: D-sucrose + water + ammonium sulfate; phases: Liquid
Fixed: Pressure, kPa = 101
Property: Refractive index (Na D-line) (Liquid); method: Standard Abbe refractometry
Solvent: Molality, mol/kg of ammonium sulfate	Temperature, K	Molality, mol/kg of D-sucrose	Refractive index (Na D-line)	uncertainty
0.4985	288.15	0.04864	1.364	0.002
0.4985	288.15	0.06994	1.366	0.002
0.4985	288.15	0.10231	1.367	0.002
0.4985	288.15	0.14957	1.368	0.002
0.4985	288.15	0.20226	1.369	0.002
0.4985	298.15	0.04864	1.363	0.002
0.4985	298.15	0.06994	1.365	0.002
0.4985	298.15	0.14957	1.367	0.002
0.4985	298.15	0.20226	1.368	0.002
0.4985	308.15	0.04864	1.361	0.002
0.4985	308.15	0.06994	1.363	0.002
0.4985	308.15	0.10231	1.364	0.002
0.4985	308.15	0.14957	1.365	0.002
0.4985	308.15	0.20226	1.366	0.002
0.4985	318.15	0.04864	1.359	0.002
0.4985	318.15	0.06994	1.36	0.002
0.4985	318.15	0.10231	1.362	0.002
0.4985	318.15	0.14957	1.363	0.002
0.4985	318.15	0.20226	1.363	0.002
0.4985	288.15	0.10231	1.366	0.002
0.99705	288.15	0.04863	1.373	0.002
0.99705	288.15	0.06687	1.374	0.002
0.99705	288.15	0.09835	1.375	0.002
0.99705	288.15	0.1508	1.376	0.002
0.99705	288.15	0.20054	1.376	0.002
0.99705	298.15	0.04863	1.371	0.002
0.99705	298.15	0.06687	1.372	0.002
0.99705	298.15	0.09835	1.373	0.002
0.99705	298.15	0.1508	1.374	0.002
0.99705	298.15	0.20054	1.375	0.002
0.99705	308.15	0.04863	1.369	0.002
0.99705	308.15	0.06687	1.371	0.002
0.99705	308.15	0.09835	1.372	0.002
0.99705	308.15	0.1508	1.373	0.002
0.99705	308.15	0.20054	1.374	0.002
0.99705	318.15	0.04863	1.367	0.002
0.99705	318.15	0.06687	1.369	0.002
0.99705	318.15	0.09835	1.37	0.002
0.99705	318.15	0.1508	1.37	0.002
0.99705	318.15	0.20054	1.372	0.002

System: D-sucrose + water + ammonium sulfate; phases: Liquid
Fixed: Pressure, kPa = 101
Property: Mass density, kg/m3 (Liquid); method: Vibrating tube method
Solvent: Molality, mol/kg of ammonium sulfate	Temperature, K	Molality, mol/kg of D-sucrose	Mass density, kg/m3	uncertainty
0.4985	288.15	0.04864	1045.221	0.968
0.4985	288.15	0.06994	1047.828	0.973
0.4985	288.15	0.10231	1051.743	0.981
0.4985	288.15	0.14957	1057.333	0.993
0.4985	288.15	0.20226	1063.436	1.006
0.4985	298.15	0.04864	1043.152	0.968
0.4985	298.15	0.06994	1045.734	0.97
0.4985	298.15	0.10231	1049.61	0.977
0.4985	298.15	0.14957	1055.158	0.989
0.4985	298.15	0.20226	1061.188	1.002
0.4985	308.15	0.04864	1038.907	0.957
0.4985	308.15	0.06994	1041.42	0.961
0.4985	308.15	0.10231	1045.19	0.969
0.4985	308.15	0.14957	1050.589	0.98
0.4985	308.15	0.20226	1056.478	0.993
0.4985	318.15	0.04864	1033.31	0.942
0.4985	318.15	0.06994	1035.737	0.947
0.4985	318.15	0.10231	1039.357	0.955
0.4985	318.15	0.14957	1044.575	0.966
0.4985	318.15	0.20226	1050.243	0.98
0.99705	288.15	0.04863	1076.924	1.035
0.99705	288.15	0.06687	1079.075	1.04
0.99705	288.15	0.09835	1082.74	1.048
0.99705	288.15	0.1508	1088.728	1.061
0.99705	288.15	0.20054	1094.273	1.073
0.99705	298.15	0.04863	1070.863	1.026
0.99705	298.15	0.06687	1072.991	1.087
0.99705	298.15	0.09835	1076.62	1.073
0.99705	298.15	0.1508	1082.539	1.079
0.99705	298.15	0.20054	1088.025	1.098
0.99705	308.15	0.04863	1063.078	1.012
0.99705	308.15	0.06687	1065.075	1.041
0.99705	308.15	0.09835	1068.473	1.039
0.99705	308.15	0.1508	1074.022	1.051
0.99705	308.15	0.20054	1079.158	1.078
0.99705	318.15	0.04863	1052.185	0.981
0.99705	318.15	0.06687	1054.082	0.985
0.99705	318.15	0.09835	1057.312	0.991
0.99705	318.15	0.1508	1062.575	1.003
0.99705	318.15	0.20054	1067.428	1.013

System: D-cellobiose + water + ammonium sulfate; phases: Liquid
Fixed: Pressure, kPa = 101
Property: Viscosity, Pa*s (Liquid); method: CAPTUB:UFactor:2
Solvent: Molality, mol/kg of ammonium sulfate	Temperature, K	Amount concentration (molarity), mol/dm3 of D-cellobiose	Viscosity, Pa*s	uncertainty
0.4985	288.15	0.05036	1.0186	0.0145
0.4985	288.15	0.07121	1.0263	0.0146
0.4985	288.15	0.09222	1.0341	0.0147
0.4985	288.15	0.15278	1.0565	0.0151
0.4985	298.15	0.05026	1.0159	0.0145
0.4985	298.15	0.07105	1.0225	0.0146
0.4985	298.15	0.09201	1.0291	0.0147
0.4985	298.15	0.15241	1.0482	0.0149
0.4985	308.15	0.05005	1.0081	0.0144
0.4985	308.15	0.07075	1.0115	0.0144
0.4985	308.15	0.09162	1.0148	0.0145
0.4985	308.15	0.15173	1.0246	0.0146
0.4985	318.15	0.04978	1.0006	0.0143
0.4985	318.15	0.07036	1.0009	0.0143
0.4985	318.15	0.09089	1.0012	0.0143
0.4985	318.15	0.15084	1.002	0.0143
0.99705	288.15	0.05019	1.0578	0.0151
0.99705	288.15	0.0713	1.0821	0.0154
0.99705	288.15	0.09196	1.1057	0.0158
0.99705	288.15	0.15501	1.1784	0.0168
0.99705	298.15	0.0499	1.0539	0.015
0.99705	298.15	0.07088	1.0768	0.0154
0.99705	298.15	0.09142	1.099	0.0157
0.99705	298.15	0.15406	1.167	0.0166
0.99705	308.15	0.04955	1.0465	0.0149
0.99705	308.15	0.07038	1.0662	0.0152
0.99705	308.15	0.09076	1.0854	0.0155
0.99705	308.15	0.15293	1.1441	0.0163
0.99705	318.15	0.04903	1.0421	0.0149
0.99705	318.15	0.06963	1.0599	0.0151
0.99705	318.15	0.08977	1.0774	0.0154
0.99705	318.15	0.1512	1.1303	0.0161

System: D-cellobiose + water + ammonium sulfate; phases: Liquid
Fixed: Pressure, kPa = 101
Property: Refractive index (Na D-line) (Liquid); method: Standard Abbe refractometry
Solvent: Molality, mol/kg of ammonium sulfate	Temperature, K	Molality, mol/kg of D-cellobiose	Refractive index (Na D-line)	uncertainty
0.4985	288.15	0.05036	1.0186	0.0021
0.4985	288.15	0.07121	1.0263	0.0021
0.4985	288.15	0.09222	1.0341	0.0021
0.4985	288.15	0.15278	1.0565	0.0021
0.4985	298.15	0.05026	1.0159	0.0021
0.4985	298.15	0.07105	1.0225	0.0021
0.4985	298.15	0.09201	1.0291	0.0021
0.4985	298.15	0.15241	1.0482	0.0021
0.4985	308.15	0.05005	1.0081	0.0021
0.4985	308.15	0.07075	1.0115	0.0021
0.4985	308.15	0.09162	1.0148	0.0021
0.4985	308.15	0.15173	1.0246	0.0021
0.4985	318.15	0.04978	1.0006	0.0021
0.4985	318.15	0.07036	1.0009	0.0021
0.4985	318.15	0.09089	1.0012	0.0021
0.4985	318.15	0.15084	1.002	0.0021
0.99705	288.15	0.05019	1.0578	0.0021
0.99705	288.15	0.0713	1.0821	0.0021
0.99705	288.15	0.09196	1.1057	0.0021
0.99705	288.15	0.15501	1.1784	0.0021
0.99705	298.15	0.0499	1.0539	0.0021
0.99705	298.15	0.07088	1.0768	0.0021
0.99705	298.15	0.09142	1.099	0.0021
0.99705	298.15	0.15406	1.167	0.0021
0.99705	308.15	0.04955	1.0465	0.0021
0.99705	308.15	0.07038	1.0662	0.0021
0.99705	308.15	0.09076	1.0854	0.0021
0.99705	308.15	0.15293	1.1441	0.0021
0.99705	318.15	0.04903	1.0421	0.0021
0.99705	318.15	0.06963	1.0599	0.0021
0.99705	318.15	0.08977	1.0774	0.0021
0.99705	318.15	0.1512	1.1303	0.0021

System: D-cellobiose + water + ammonium sulfate; phases: Liquid
Fixed: Pressure, kPa = 101
Property: Mass density, kg/m3 (Liquid); method: Vibrating tube method
Solvent: Molality, mol/kg of ammonium sulfate	Temperature, K	Molality, mol/kg of D-cellobiose	Mass density, kg/m3	uncertainty
0.4985	288.15	0.04897	1045.781	0.97
0.4985	288.15	0.06963	1048.518	0.976
0.4985	288.15	0.09044	1051.251	0.981
0.4985	288.15	0.15175	1059.08	0.998
0.4985	298.15	0.04897	1043.578	0.97
0.4985	298.15	0.06963	1046.239	0.972
0.4985	298.15	0.09044	1048.896	0.977
0.4985	298.15	0.15175	1056.513	0.992
0.4985	308.15	0.04897	1039.262	0.961
0.4985	308.15	0.06963	1041.833	0.964
0.4985	308.15	0.09044	1044.396	0.968
0.4985	308.15	0.15175	1051.807	0.984
0.4985	318.15	0.04897	1033.629	0.939
0.4985	318.15	0.06963	1036.099	0.95
0.4985	318.15	0.09044	1038.563	0.953
0.4985	318.15	0.15175	1045.669	0.971
0.99705	288.15	0.04368	1076.839	1.037
0.99705	288.15	0.06755	1079.933	1.043
0.99705	288.15	0.0875	1082.49	1.048
0.99705	288.15	0.14525	1089.76	1.064
0.99705	298.15	0.04368	1070.633	1.029
0.99705	298.15	0.06755	1073.612	1.103
0.99705	298.15	0.0875	1076.071	1.073
0.99705	298.15	0.14525	1083.067	1.102
0.99705	308.15	0.04368	1063.05	1.016
0.99705	308.15	0.06755	1065.945	1.051
0.99705	308.15	0.0875	1068.341	1.041
0.99705	308.15	0.14525	1075.136	1.07
0.99705	318.15	0.04368	1051.944	0.981
0.99705	318.15	0.06755	1054.581	0.987
0.99705	318.15	0.0875	1056.762	0.991
0.99705	318.15	0.14525	1062.949	1.004
