Measured thermophysical data. Densities, Excess Molar Volumes, and Isobaric Thermal Expansibilities for 1,2-Ethanediol + 1-Butanol, or 1-Hexanol, or 1-Octanol in the Temperature Range from (293.15 to 313.15) K
Source: J. Chem. Eng. Data, 2008, 10.1021/je700580g
Compound 1: 1,2-ethanediol, C2H6O2, InChI=1S/C2H6O2/c3-1-2-4/h3-4H,1-2H2, purity 99.5%
Compound 2: butan-1-ol, C4H10O, InChI=1S/C4H10O/c1-2-3-4-5/h5H,2-4H2,1H3, purity 99.5%
Compound 3: hexan-1-ol, C6H14O, InChI=1S/C6H14O/c1-2-3-4-5-6-7/h7H,2-6H2,1H3, purity 98%
Compound 4: octan-1-ol, C8H18O, InChI=1S/C8H18O/c1-2-3-4-5-6-7-8-9/h9H,2-8H2,1H3, purity 99%

System: 1,2-ethanediol; phases: Liquid
Fixed: Pressure, kPa = 101.325
Property: Refractive index (Na D-line) (Liquid); method: Standard Abbe refractometry
Temperature, K	Refractive index (Na D-line)	uncertainty
293.15	1.4323	0.0005
298.15	1.4309	0.0005

System: 1,2-ethanediol; phases: Liquid
Fixed: Pressure, kPa = 101.325
Property: Mass density, kg/m3 (Liquid); method: VIBTUB:UFactor:4
Temperature, K	Mass density, kg/m3	uncertainty
293.15	1113.37	0.37
298.15	1109.88	0.36
303.15	1106.4	0.35
308.15	1102.89	0.35
313.15	1099.35	0.34

System: butan-1-ol; phases: Liquid
Fixed: Pressure, kPa = 101.325
Property: Refractive index (Na D-line) (Liquid); method: Standard Abbe refractometry
Temperature, K	Refractive index (Na D-line)	uncertainty
293.15	1.3997	0.0006
298.15	1.3978	0.0006

System: butan-1-ol; phases: Liquid
Fixed: Pressure, kPa = 101.325
Property: Mass density, kg/m3 (Liquid); method: VIBTUB:UFactor:4
Temperature, K	Mass density, kg/m3	uncertainty
293.15	809.6	0.46
298.15	805.84	0.47
303.15	802.04	0.47
308.15	798.2	0.48
313.15	794.31	0.48

System: hexan-1-ol; phases: Liquid
Fixed: Pressure, kPa = 101.325
Property: Refractive index (Na D-line) (Liquid); method: Standard Abbe refractometry
Temperature, K	Refractive index (Na D-line)	uncertainty
293.15	1.4183	0.0007
298.15	1.4161	0.0007

System: hexan-1-ol; phases: Liquid
Fixed: Pressure, kPa = 101.325
Property: Mass density, kg/m3 (Liquid); method: VIBTUB:UFactor:8
Temperature, K	Mass density, kg/m3	uncertainty
293.15	818.74	1.37
298.15	815.28	1.37
303.15	811.71	1.38
308.15	808.13	1.39
313.15	804.53	1.39

System: octan-1-ol; phases: Liquid
Fixed: Pressure, kPa = 101.325
Property: Refractive index (Na D-line) (Liquid); method: Standard Abbe refractometry
Temperature, K	Refractive index (Na D-line)	uncertainty
293.15	1.4298	0.0006
298.15	1.428	0.0006

System: octan-1-ol; phases: Liquid
Fixed: Pressure, kPa = 101.325
Property: Mass density, kg/m3 (Liquid); method: VIBTUB:UFactor:6
Temperature, K	Mass density, kg/m3	uncertainty
293.15	825.12	0.74
298.15	821.75	0.75
303.15	818.31	0.75
308.15	814.8	0.76
313.15	811.41	0.77

System: butan-1-ol + 1,2-ethanediol; phases: Liquid
Fixed: Pressure, kPa = 101
Property: Mass density, kg/m3 (Liquid); method: VIBTUB:UFactor:6
Temperature, K	Mole fraction of 1,2-ethanediol	Mass density, kg/m3	uncertainty
293.15	0.08923	826.85	0.63
293.15	0.24902	861.02	0.55
293.15	0.32059	878.11	0.51
293.15	0.40186	898.74	0.46
293.15	0.53472	936.02	0.38
293.15	0.65712	975.06	0.29
293.15	0.69744	989.14	0.26
293.15	0.7753	1017.69	0.28
293.15	0.81003	1030.76	0.31
293.15	0.91207	1073.19	0.42
298.15	0.08923	823.02	0.64
298.15	0.24902	857.21	0.56
298.15	0.32059	874.25	0.52
298.15	0.40186	894.96	0.47
298.15	0.53472	932.22	0.39
298.15	0.65712	971.34	0.3
298.15	0.69744	985.27	0.27
298.15	0.7753	1013.86	0.27
298.15	0.81003	1027.06	0.3
298.15	0.91207	1069.67	0.41
303.15	0.08923	819.29	0.64
303.15	0.24902	853.42	0.57
303.15	0.32059	870.64	0.53
303.15	0.40186	891.24	0.48
303.15	0.53472	928.63	0.4
303.15	0.65712	967.77	0.31
303.15	0.69744	981.88	0.28
303.15	0.7753	1010.51	0.26
303.15	0.81003	1023.76	0.3
303.15	0.91207	1066.15	0.4
308.15	0.08923	815.49	0.65
308.15	0.24902	849.65	0.57
308.15	0.32059	866.86	0.54
308.15	0.40186	887.45	0.49
308.15	0.53472	924.91	0.41
308.15	0.65712	964.18	0.32
308.15	0.69744	978.14	0.29
308.15	0.7753	1006.95	0.26
308.15	0.81003	1020.29	0.29
308.15	0.91207	1062.56	0.39
313.15	0.08923	811.51	0.66
313.15	0.24902	845.69	0.58
313.15	0.32059	862.94	0.54
313.15	0.40186	883.57	0.5
313.15	0.53472	921.05	0.41
313.15	0.65712	960.49	0.33
313.15	0.69744	974.54	0.29
313.15	0.7753	1003.28	0.25
313.15	0.81003	1016.76	0.28
313.15	0.91207	1059.01	0.38

System: 1,2-ethanediol + hexan-1-ol; phases: Liquid
Fixed: Pressure, kPa = 101
Property: Mass density, kg/m3 (Liquid); method: VIBTUB:UFactor:6
Temperature, K	Mole fraction of 1,2-ethanediol	Mass density, kg/m3	uncertainty
293.15	0.08275	829.72	1.07
293.15	0.15846	840.78	1
293.15	0.23738	853.56	0.92
293.15	0.32651	869.87	0.84
293.15	0.49049	905.8	0.67
293.15	0.54448	919.79	0.61
293.15	0.59646	934.39	0.55
293.15	0.69315	965.41	0.44
293.15	0.7757	996.6	0.33
293.15	0.90534	1057.08	0.41
298.15	0.08275	826.21	1.08
298.15	0.15846	837.17	1.01
298.15	0.23738	849.99	0.93
298.15	0.32651	866.29	0.84
298.15	0.49049	902.2	0.67
298.15	0.54448	916.19	0.62
298.15	0.59646	930.83	0.56
298.15	0.69315	961.84	0.45
298.15	0.7757	993.11	0.34
298.15	0.90534	1053.67	0.4
303.15	0.08275	822.63	1.08
303.15	0.15846	833.58	1.01
303.15	0.23738	846.39	0.93
303.15	0.32651	862.69	0.85
303.15	0.49049	898.58	0.68
303.15	0.54448	912.56	0.62
303.15	0.59646	927.24	0.57
303.15	0.69315	958.23	0.45
303.15	0.7757	989.49	0.35
303.15	0.90534	1050.1	0.4
308.15	0.08275	819.02	1.09
308.15	0.15846	829.96	1.01
308.15	0.23738	842.67	0.94
308.15	0.32651	859.01	0.85
308.15	0.49049	894.88	0.69
308.15	0.54448	908.9	0.63
308.15	0.59646	923.53	0.57
308.15	0.69315	954.54	0.46
308.15	0.7757	985.79	0.36
308.15	0.90534	1046.52	0.39
313.15	0.08275	815.44	1.09
313.15	0.15846	826.33	1.02
313.15	0.23738	839.04	0.94
313.15	0.32651	855.36	0.86
313.15	0.49049	891.27	0.69
313.15	0.54448	905.23	0.64
313.15	0.59646	919.95	0.58
313.15	0.69315	950.95	0.47
313.15	0.7757	982.18	0.36
313.15	0.90534	1042.98	0.38

System: 1,2-ethanediol + octan-1-ol; phases: Liquid
Fixed: Pressure, kPa = 101
Property: Mass density, kg/m3 (Liquid); method: VIBTUB:UFactor:6
Temperature, K	Mole fraction of 1,2-ethanediol	Mass density, kg/m3	uncertainty
293.15	0.07997	833.01	0.7
293.15	0.15901	842	0.68
293.15	0.21593	849.21	0.65
293.15	0.36005	870.86	0.59
293.15	0.48253	894.13	0.53
293.15	0.59121	920.03	0.46
293.15	0.6299	930.8	0.43
293.15	0.74368	968.64	0.33
293.15	0.80631	994.57	0.27
293.15	0.88918	1036.57	0.34
298.15	0.07997	829.64	0.71
298.15	0.15901	838.63	0.68
298.15	0.21593	845.74	0.66
298.15	0.36005	867.38	0.6
298.15	0.48253	890.64	0.53
298.15	0.59121	916.52	0.46
298.15	0.6299	927.19	0.44
298.15	0.74368	965.11	0.34
298.15	0.80631	991.03	0.28
298.15	0.88918	1033.02	0.33
303.15	0.07997	826.15	0.72
303.15	0.15901	835.13	0.69
303.15	0.21593	842.24	0.67
303.15	0.36005	863.92	0.6
303.15	0.48253	887.11	0.54
303.15	0.59121	912.94	0.47
303.15	0.6299	923.7	0.45
303.15	0.74368	961.5	0.35
303.15	0.80631	987.45	0.29
303.15	0.88918	1029.52	0.32
308.15	0.07997	822.68	0.73
308.15	0.15901	831.61	0.7
308.15	0.21593	838.76	0.68
308.15	0.36005	860.33	0.61
308.15	0.48253	883.47	0.55
308.15	0.59121	909.33	0.48
308.15	0.6299	920.08	0.45
308.15	0.74368	957.92	0.36
308.15	0.80631	983.8	0.3
308.15	0.88918	1025.99	0.32
313.15	0.07997	819.15	0.73
313.15	0.15901	828.07	0.7
313.15	0.21593	835.18	0.68
313.15	0.36005	856.83	0.62
313.15	0.48253	879.91	0.56
313.15	0.59121	905.71	0.49
313.15	0.6299	916.5	0.46
313.15	0.74368	954.32	0.37
313.15	0.80631	980.25	0.3
313.15	0.88918	1022.37	0.31
