Measured thermophysical data. Study of a Binary Liquid Mixture of Diethylamine and 1-Decanol and Validation of Theoretical Approaches of Sound Speed at Different Temperatures
Source: J. Chem. Eng. Data, 2008, 10.1021/je700619q
Compound 1: diethylamine, C4H11N, InChI=1S/C4H11N/c1-3-5-4-2/h5H,3-4H2,1-2H3
Compound 2: decan-1-ol, C10H22O, InChI=1S/C10H22O/c1-2-3-4-5-6-7-8-9-10-11/h11H,2-10H2,1H3

System: diethylamine; phases: Liquid, Gas
Property: Boiling temperature at pressure P, K (Liquid); method: Distillation
Pressure, kPa	Boiling temperature at pressure P, K	uncertainty
101	328.45	0.2

System: diethylamine; phases: Liquid
Fixed: Pressure, kPa = 101
Property: Viscosity, Pa*s (Liquid); method: CAPTUB::UFactor:16
Temperature, K	Viscosity, Pa*s	uncertainty
293	0.0003212	4.03e-05
303	0.000275	3.62e-05
313	0.0002577	3.47e-05

System: diethylamine; phases: Liquid
Fixed: Pressure, kPa = 101
Property: Speed of sound, m/s (Liquid); method: FPINT::UFactor:32
Temperature, K	Speed of sound, m/s	uncertainty
293	1140.8	19.1
303	1089.6	18.5
313	1045	18

System: diethylamine; phases: Liquid
Fixed: Pressure, kPa = 101
Property: Mass density, kg/m3 (Liquid); method: PYCNOM::UFactor:32
Temperature, K	Mass density, kg/m3	uncertainty
293	707.6	4.7
303	693.6	5.3
313	678.4	5.8

System: decan-1-ol; phases: Liquid, Gas
Property: Boiling temperature at pressure P, K (Liquid); method: Distillation
Pressure, kPa	Boiling temperature at pressure P, K	uncertainty
101	502.95	0.2

System: decan-1-ol; phases: Liquid
Fixed: Pressure, kPa = 101
Property: Viscosity, Pa*s (Liquid); method: CAPTUB::UFactor:16
Temperature, K	Viscosity, Pa*s	uncertainty
293	0.0134141	0.0009611
303	0.009262	0.0007028
313	0.0065149	0.0005315

System: decan-1-ol; phases: Liquid
Fixed: Pressure, kPa = 101
Property: Speed of sound, m/s (Liquid); method: FPINT::UFactor:32
Temperature, K	Speed of sound, m/s	uncertainty
293	1408	22.4
303	1375.2	22
313	1344.8	21.7

System: decan-1-ol; phases: Liquid
Fixed: Pressure, kPa = 101
Property: Mass density, kg/m3 (Liquid); method: PYCNOM::UFactor:32
Temperature, K	Mass density, kg/m3	uncertainty
293	830.1	5.9
303	822.1	6.6
313	815.7	7.2

System: diethylamine + decan-1-ol; phases: Liquid
Fixed: Pressure, kPa = 101
Property: Viscosity, Pa*s (Liquid); method: CAPTUB:UFactor:16
Temperature, K	Mole fraction of diethylamine	Viscosity, Pa*s	uncertainty
293	0	0.0134141	0.0009611
293	0.0989	0.0110431	0.0008128
293	0.1963	0.0089738	0.0006838
293	0.3062	0.0071047	0.0005669
293	0.4062	0.0054232	0.0004624
293	0.4898	0.0039483	0.0003487
293	0.5973	0.0026089	0.0002362
293	0.6708	0.0019246	0.0001779
293	0.7388	0.0014305	0.0001357
293	0.8012	0.0010665	0.0001045
293	0.8562	0.0007924	8.1e-05
293	0.9031	0.0006052	6.48e-05
293	0.9601	0.0004396	5.05e-05
293	1	0.0003212	4.03e-05
303	0	0.009262	0.0007028
303	0.0989	0.007825	0.0006126
303	0.1963	0.0063523	0.0005205
303	0.3062	0.0049773	0.0004341
303	0.4062	0.0035235	0.0003136
303	0.4898	0.0028574	0.0002572
303	0.5973	0.0020154	0.0001858
303	0.6708	0.0016516	0.0001547
303	0.7388	0.0012533	0.0001206
303	0.8012	0.0009298	9.28e-05
303	0.8562	0.000689	7.21e-05
303	0.9031	0.0005352	5.88e-05
303	0.9601	0.0003609	4.37e-05
303	1	0.000275	3.62e-05
313	0	0.0065149	0.0005315
313	0.0989	0.0055316	0.0004698
313	0.1963	0.0045221	0.0003968
313	0.3062	0.0035576	0.0003165
313	0.4062	0.0027931	0.0002516
313	0.4898	0.0022444	0.0002053
313	0.5973	0.0016307	0.000153
313	0.6708	0.0012575	0.0001211
313	0.7388	0.0009795	9.72e-05
313	0.8012	0.0007247	7.52e-05
313	0.8562	0.0005424	5.94e-05
313	0.9031	0.0004368	5.03e-05
313	0.9601	0.0003265	4.07e-05
313	1	0.0002577	3.47e-05

System: diethylamine + decan-1-ol; phases: Liquid
Fixed: Pressure, kPa = 101
Property: Speed of sound, m/s (Liquid); method: FPINT:UFactor:32
Temperature, K	Mole fraction of diethylamine	Speed of sound, m/s	uncertainty
293	0	1408	22.4
293	0.0989	1383.2	22.1
293	0.1963	1352	21.7
293	0.3062	1347.2	21.7
293	0.4062	1333.6	21.5
293	0.4898	1321.8	21.4
293	0.5973	1310.4	21.2
293	0.6708	1302.4	21.1
293	0.7388	1293.6	21
293	0.8012	1288.8	21
293	0.8562	1247.2	20.4
293	0.9031	1211.2	20
293	0.9601	1173.2	19.5
293	1	1140.8	19.1
303	0	1375.2	22
303	0.0989	1372.4	22
303	0.1963	1350	21.7
303	0.3062	1340	21.6
303	0.4062	1326	21.4
303	0.4898	1314	21.3
303	0.5973	1302.4	21.1
303	0.6708	1295.6	21
303	0.7388	1278.8	20.8
303	0.8012	1266.4	20.7
303	0.8562	1216.8	20.1
303	0.9031	1176	19.6
303	0.9601	1130.4	19
303	1	1089.6	18.5
313	0	1344.8	21.7
313	0.0989	1332.8	21.5
313	0.1963	1326	21.4
313	0.3062	1316	21.3
313	0.4062	1297.2	21.1
313	0.4898	1290.8	21
313	0.5973	1274.8	20.8
313	0.6708	1258.4	20.6
313	0.7388	1238.4	20.3
313	0.8012	1212	20
313	0.8562	1164.8	19.4
313	0.9031	1123.2	18.9
313	0.9601	1082	18.4
313	1	1045	18

System: diethylamine + decan-1-ol; phases: Liquid
Fixed: Pressure, kPa = 101
Property: Mass density, kg/m3 (Liquid); method: PYCNOM:UFactor:32
Temperature, K	Mole fraction of diethylamine	Mass density, kg/m3	uncertainty
293	0	830.1	5.9
293	0.0989	828.2	5.9
293	0.1963	824.8	5.8
293	0.3062	818.1	5.8
293	0.4062	814.4	5.7
293	0.4898	799	5.6
293	0.5973	795.6	5.5
293	0.6708	785.4	5.4
293	0.7388	779.4	5.4
293	0.8012	770.2	5.3
293	0.8562	759.5	5.2
293	0.9031	741.4	5
293	0.9601	720.7	4.8
293	1	707.6	4.7
303	0	822.1	6.6
303	0.0989	820.7	6.5
303	0.1963	814.6	6.5
303	0.3062	810	6.4
303	0.4062	808.4	6.4
303	0.4898	794.2	6.3
303	0.5973	790.7	6.2
303	0.6708	779.9	6.1
303	0.7388	773.3	6.1
303	0.8012	763.6	6
303	0.8562	753.7	5.9
303	0.9031	737.6	5.7
303	0.9601	709.2	5.4
303	1	693.6	5.3
313	0	815.7	7.2
313	0.0989	811.5	7.2
313	0.1963	806.3	7.1
313	0.3062	803.7	7.1
313	0.4062	802.1	7.1
313	0.4898	788.9	7
313	0.5973	782.9	6.9
313	0.6708	773.7	6.8
313	0.7388	769.7	6.8
313	0.8012	755.5	6.6
313	0.8562	745.6	6.5
313	0.9031	728.2	6.3
313	0.9601	694.8	6
313	1	678.4	5.8
