Measured thermophysical data. Low-Temperature Heat Capacities and Standard Molar Enthalpy of Formation of L-3-(3,4-Dihydroxyphenyl) Alanine (C9H11NO4)
Source: J. Chem. Eng. Data, 2008, 10.1021/je700644s
Compound 1: carbon dioxide, CO2, InChI=1S/CO2/c2-1-3
Compound 2: nitrogen, N2, InChI=1S/N2/c1-2
Compound 3: water, H2O, InChI=1S/H2O/h1H2
Compound 4: oxygen, O2, InChI=1S/O2/c1-2
Compound 5: L-3,4-dihydroxyphenylalanine, C9H11NO4, InChI=1S/C9H11NO4/c10-6(9(13)14)3-5-1-2-7(11)8(12)4-5/h1-2,4,6,11-12H,3,10H2,(H,13,14)/t6-/m0/s1

System: L-3,4-dihydroxyphenylalanine; phases: Crystal, Liquid, Air at 1 atmosphere
Property: Normal melting temperature, K (Crystal); method: VISOBS
Normal melting temperature, K	uncertainty
550.15	2

System: L-3,4-dihydroxyphenylalanine; phases: Crystal
Fixed: Pressure, kPa = 101.325
Property: Molar heat capacity at constant pressure, J/K/mol (Crystal); method: VADIAC:UFactor:4
Temperature, K	Molar heat capacity at constant pressure, J/K/mol	uncertainty
78.466	71.34	0.73
79.827	72.35	0.74
81.49	73.75	0.75
83.001	75.18	0.76
84.816	76.68	0.77
86.63	78.19	0.79
88.442	79.6	0.8
89.942	80.73	0.81
91.354	82.27	1.13
93.065	83.62	1.13
94.811	84.79	1.14
97.139	86.2	1.14
98.885	87.89	1.15
100.715	89.28	1.16
102.644	90.78	1.16
104.709	92.24	1.17
106.74	93.97	1.18
108.74	95.89	1.18
110.711	97.8	1.19
112.655	99.36	1.2
114.575	101.07	1.2
116.471	103	1.21
118.496	104.72	1.22
120.648	106.43	1.23
122.772	108.44	1.23
124.855	110.39	1.24
126.956	112.16	1.25
129.011	113.95	1.26
131.018	115.5	1.26
133.026	117.12	1.27
135.033	118.6	1.27
136.994	120.14	1.28
138.955	121.84	1.29
140.869	123.73	1.3
142.783	125.45	1.3
144.698	127.02	1.31
146.705	128.82	1.32
148.666	130.53	1.32
150.674	132.25	1.33
152.728	133.85	1.34
154.829	135.87	1.34
156.876	137.96	1.35
158.937	139.53	1.36
160.945	141.56	1.37
162.952	143.5	1.37
164.955	144.99	1.38
166.921	146.4	1.39
168.928	148.17	1.39
170.889	150.21	1.4
172.803	151.86	1.41
174.764	153.4	1.41
176.679	155.02	1.42
178.59	156.36	1.43
180.489	157.89	1.43
182.374	159.54	1.44
184.402	161.1	1.44
186.394	162.67	1.45
188.35	164.31	1.46
190.449	165.92	1.46
192.512	167.41	1.47
194.575	169.47	1.48
196.603	171.19	1.48
198.737	173.02	1.49
200.729	174.55	1.5
202.721	176.35	1.51
204.749	178.18	1.51
206.741	179.9	1.52
208.733	181.7	1.53
210.725	183.49	1.53
212.574	185.1	1.54
214.566	186.74	1.55
216.487	188.38	1.55
218.408	190.07	1.56
220.365	191.82	1.57
222.25	193.7	1.57
224.064	195.34	1.58
226.732	197.52	1.59
229.578	199.77	1.6
232.559	202.63	1.61
235.594	205.29	1.62
238.768	207.95	1.63
241.756	210.58	1.64
244.744	212.99	1.65
247.732	215.37	1.66
250.767	218.1	1.67
253.755	220.62	1.68
256.743	223	1.69
259.76	225.81	1.7
262.766	228.18	1.71
265.754	230.91	1.72
268.602	233.5	1.73
271.683	236.23	1.75
274.764	239.03	1.76
277.823	242.01	1.77
280.88	244.64	1.78
283.915	247.23	1.79
286.95	249.5	1.8
289.938	252.13	1.81
292.921	255.42	1.82
295.758	258.06	1.83
298.791	261	1.84
301.774	263.53	1.85
304.66	266.35	1.87
307.79	269.29	1.88
310.969	272.35	1.89
313.953	275.23	1.9
317.083	278.06	1.91
320.262	281.06	1.92
323.197	284.12	1.94
325.789	286.4	1.95
328.382	288.56	1.95
331.072	291.45	1.97
333.759	293.85	1.98
336.367	296.31	1.99
338.975	299.04	2
341.736	301.82	2.01
344.651	304.77	2.02
347.412	307.5	2.03
350.173	309.96	2.04
352.935	312.58	2.05
355.849	315.2	2.06
358.457	317.71	2.07
361.218	320.33	2.08
363.98	323.17	2.09
366.587	325.79	2.1
369.349	328.08	2.11
372.11	330.75	2.12
374.871	333.1	2.13
377.49	335.94	2.14
380.087	338.83	2.16
382.848	341.72	2.17
385.609	344.62	2.18
388.831	347.29	2.19
391.438	350.03	2.2
394.353	352.91	2.21
396.807	355.28	2.22
399.262	357.83	2.23

Reaction: -1 L-3,4-dihydroxyphenylalanine + 9 carbon dioxide + .5 nitrogen + 5.5 water + -9.75 oxygen
Property: Specific internal energy of reaction at constant volume, J/g
-21184.1
