Measured thermophysical data. Viscosities of Fatty Mixtures: Experimental Data and Prediction
Source: J. Chem. Eng. Data, 2007, 10.1021/je700293s
Compound 1: (Z)-9-octadecenoic acid, C18H34O2, InChI=1S/C18H34O2/c1-2-3-4-5-6-7-8-9-10-11-12-13-14-15-16-17-18(19)20/h9-10H,2-8,11-17H2,1H3,(H,19,20)/b10-9-
Compound 2: 1,2,3-propanetriol trioctanoate, C27H50O6, InChI=1S/C27H50O6/c1-4-7-10-13-16-19-25(28)31-22-24(33-27(30)21-18-15-12-9-6-3)23-32-26(29)20-17-14-11-8-5-2/h24H,4-23H2,1-3H3
Compound 3: decanoic acid, C10H20O2, InChI=1S/C10H20O2/c1-2-3-4-5-6-7-8-9-10(11)12/h2-9H2,1H3,(H,11,12)
Compound 4: 1,2,3-tri(cis-9-octadecenoyl)glycerol, C57H104O6, InChI=1S/C57H104O6/c1-4-7-10-13-16-19-22-25-28-31-34-37-40-43-46-49-55(58)61-52-54(63-57(60)51-48-45-42-39-36-33-30-27-24-21-18-15-12-9-6-3)53-62-56(59)50-47-44-41-38-35-32-29-26-23-20-17-14-11-8-5-2/h25-30,54H,4-24,31-53H2,1-3H3/b28-25-,29-26-,30-27-
Compound 5: methyl tetradecanoate, C15H30O2, InChI=1S/C15H30O2/c1-3-4-5-6-7-8-9-10-11-12-13-14-15(16)17-2/h3-14H2,1-2H3
Compound 6: methyl hexadecanoate, C17H34O2, InChI=1S/C17H34O2/c1-3-4-5-6-7-8-9-10-11-12-13-14-15-16-17(18)19-2/h3-16H2,1-2H3
Compound 7: methyl cis-9-octadecenoate, C19H36O2, InChI=1S/C19H36O2/c1-3-4-5-6-7-8-9-10-11-12-13-14-15-16-17-18-19(20)21-2/h10-11H,3-9,12-18H2,1-2H3/b11-10-
Compound 8: (Z,Z)-9,12-octadecadienoic acid, C18H32O2, InChI=1S/C18H32O2/c1-2-3-4-5-6-7-8-9-10-11-12-13-14-15-16-17-18(19)20/h6-7,9-10H,2-5,8,11-17H2,1H3,(H,19,20)/b7-6-,10-9-
Compound 9: trilinolein, C57H98O6, InChI=1S/C57H98O6/c1-4-7-10-13-16-19-22-25-28-31-34-37-40-43-46-49-55(58)61-52-54(63-57(60)51-48-45-42-39-36-33-30-27-24-21-18-15-12-9-6-3)53-62-56(59)50-47-44-41-38-35-32-29-26-23-20-17-14-11-8-5-2/h16-21,25-30,54H,4-15,22-24,31-53H2,1-3H3/b19-16-,20-17-,21-18-,28-25-,29-26-,30-27-

System: (Z)-9-octadecenoic acid + 1,2,3-tri(cis-9-octadecenoyl)glycerol; phases: Liquid
Fixed: Mole fraction of (Z)-9-octadecenoic acid = 0.758
Fixed: Pressure, kPa = 101
Property: Kinematic viscosity, m2/s (Liquid); method: Capillary tube (Ostwald; Ubbelohde) method
Temperature, K	Kinematic viscosity, m2/s	uncertainty
20	6.777e-05	2.27e-06
30	4.487e-05	1.51e-06
40	3.13e-05	1.04e-06
50	2.278e-05	7.6e-07
60	1.618e-05	5.4e-07
70	1.261e-05	4.2e-07
80	1.001e-05	3.3e-07
90	8.22e-06	2.7e-07

System: (Z)-9-octadecenoic acid + trilinolein; phases: Liquid
Fixed: Mole fraction of (Z)-9-octadecenoic acid = 0.7564
Fixed: Pressure, kPa = 101
Property: Kinematic viscosity, m2/s (Liquid); method: Capillary tube (Ostwald; Ubbelohde) method
Temperature, K	Kinematic viscosity, m2/s	uncertainty
20	4.139e-05	1.37e-06
30	2.818e-05	9.4e-07
40	2.065e-05	6.9e-07
50	1.478e-05	4.9e-07
60	1.148e-05	3.8e-07
70	9.32e-06	3.1e-07
80	7.62e-06	2.5e-07
90	6.38e-06	2.1e-07

System: (Z)-9-octadecenoic acid + decanoic acid; phases: Liquid
Fixed: Pressure, kPa = 101
Property: Kinematic viscosity, m2/s (Liquid); method: Capillary tube (Ostwald; Ubbelohde) method
Temperature, K	Mole fraction of decanoic acid	Kinematic viscosity, m2/s	uncertainty
30	0.3533	1.99e-05	6.6e-07
30	0.6211	1.451e-05	4.8e-07
40	0.3533	1.446e-05	4.8e-07
40	0.6211	1.075e-05	3.6e-07
50	0.3533	1.094e-05	3.6e-07
50	0.6211	8.25e-06	2.7e-07
60	0.3533	8.52e-06	2.8e-07
60	0.6211	6.39e-06	2.1e-07
70	0.3533	6.83e-06	2.3e-07
70	0.6211	5.17e-06	1.7e-07
80	0.3533	5.63e-06	1.9e-07
80	0.6211	4.27e-06	1.4e-07
90	0.3533	4.69e-06	1.5e-07
90	0.6211	3.36e-06	1.1e-07

System: (Z,Z)-9,12-octadecadienoic acid + 1,2,3-tri(cis-9-octadecenoyl)glycerol; phases: Liquid
Fixed: Mole fraction of (Z,Z)-9,12-octadecadienoic acid = 0.7576
Fixed: Pressure, kPa = 101
Property: Kinematic viscosity, m2/s (Liquid); method: Capillary tube (Ostwald; Ubbelohde) method
Temperature, K	Kinematic viscosity, m2/s	uncertainty
30	2.96e-05	9.8e-07
40	2.125e-05	7.1e-07
50	1.588e-05	5.3e-07
60	1.229e-05	4.1e-07
70	9.76e-06	3.2e-07
80	7.91e-06	2.6e-07
90	6.52e-06	2.2e-07

System: (Z,Z)-9,12-octadecadienoic acid + trilinolein; phases: Liquid
Fixed: Mole fraction of (Z,Z)-9,12-octadecadienoic acid = 0.7536
Fixed: Pressure, kPa = 101
Property: Kinematic viscosity, m2/s (Liquid); method: Capillary tube (Ostwald; Ubbelohde) method
Temperature, K	Kinematic viscosity, m2/s	uncertainty
30	2.552e-05	8.4e-07
40	1.85e-05	6.2e-07
50	1.315e-05	4.4e-07
60	9.96e-06	3.3e-07
70	7.98e-06	2.6e-07
80	6.83e-06	2.2e-07
90	5.69e-06	1.9e-07

System: decanoic acid + 1,2,3-propanetriol trioctanoate; phases: Liquid
Fixed: Pressure, kPa = 101
Property: Kinematic viscosity, m2/s (Liquid); method: Capillary tube (Ostwald; Ubbelohde) method
Temperature, K	Mole fraction of decanoic acid	Kinematic viscosity, m2/s	uncertainty
30	0.4763	1.477e-05	4.9e-07
30	0.7423	1.291e-05	4.2e-07
30	0.8902	8.98e-06	2.9e-07
40	0.4763	1.054e-05	3.5e-07
40	0.7423	9.46e-06	3.1e-07
40	0.8902	7.83e-06	2.6e-07
50	0.4763	7.89e-06	2.6e-07
50	0.7423	7.16e-06	2.4e-07
50	0.8902	6.09e-06	2e-07
60	0.4763	6.15e-06	2e-07
60	0.7423	5.66e-06	1.9e-07
60	0.8902	4.9e-06	1.6e-07
70	0.4763	5.12e-06	1.7e-07
70	0.7423	4.57e-06	1.5e-07
70	0.8902	3.99e-06	1.3e-07
80	0.4763	4.13e-06	1.4e-07
80	0.7423	3.88e-06	1.3e-07
80	0.8902	3.24e-06	1.1e-07
90	0.4763	3.53e-06	1.2e-07
90	0.7423	3.18e-06	1.1e-07
90	0.8902	2.58e-06	9e-08

System: methyl hexadecanoate + methyl cis-9-octadecenoate + methyl tetradecanoate; phases: Liquid
Fixed: Mole fraction of methyl tetradecanoate = 0.3657
Fixed: Mole fraction of methyl hexadecanoate = 0.3324
Fixed: Pressure, kPa = 101
Property: Viscosity, Pa*s (Liquid); method: Capillary tube (Ostwald; Ubbelohde) method
Temperature, K	Viscosity, Pa*s	uncertainty
20	0.00569	0.0088
30	0.00441	0.00015
40	0.00341	0.00011
50	0.00278	9e-05
60	0.00232	8e-05
70	0.00197	0.00016
