Measured thermophysical data. Densities and Excess Molar Volumes of the Binary 1-Propanol + Chloroform and 1-Propanol + Benzene and Ternary 1-Propanol + Chloroform + Benzene Mixtures at (288.15, 293.15, 298.15, 303.15, 308.15, and 313.15) K
Source: J. Chem. Eng. Data, 2007, 10.1021/je700254t
Compound 1: propan-1-ol, C3H8O, InChI=1S/C3H8O/c1-2-3-4/h4H,2-3H2,1H3
Compound 2: benzene, C6H6, InChI=1S/C6H6/c1-2-4-6-5-3-1/h1-6H
Compound 3: trichloromethane, CHCl3, InChI=1S/CHCl3/c2-1(3)4/h1H

System: trichloromethane + propan-1-ol; phases: Liquid
Fixed: Pressure, kPa = 101.3
Property: Mass density, kg/m3 (Liquid); method: VIBTUB:UFactor:2
Temperature, K	Mole fraction of propan-1-ol	Mass density, kg/m3	uncertainty
288.15	0	1498.077	0.476
288.15	0.0493	1465.276	0.471
288.15	0.0992	1432.559	0.448
288.15	0.1499	1399.065	0.425
288.15	0.2002	1365.96	0.402
288.15	0.2496	1333.594	0.38
288.15	0.2999	1300.431	0.357
288.15	0.3493	1267.608	0.335
288.15	0.4004	1233.486	0.312
288.15	0.4502	1200.076	0.29
288.15	0.5001	1166.153	0.269
288.15	0.5497	1132.238	0.248
288.15	0.5999	1097.622	0.227
288.15	0.6497	1062.78	0.208
288.15	0.7001	1027.344	0.19
288.15	0.7499	991.931	0.182
288.15	0.7998	956.019	0.2
288.15	0.8503	919.243	0.22
288.15	0.9002	882.47	0.242
288.15	0.95	845.487	0.265
288.15	1	807.69	0.247
293.15	0	1488.638	0.469
293.15	0.0493	1456.029	0.464
293.15	0.0992	1423.544	0.441
293.15	0.1499	1390.299	0.418
293.15	0.2002	1357.456	0.395
293.15	0.2496	1325.352	0.373
293.15	0.2999	1292.459	0.351
293.15	0.3493	1259.917	0.329
293.15	0.4004	1226.067	0.307
293.15	0.4502	1192.931	0.285
293.15	0.5001	1159.294	0.264
293.15	0.5497	1125.658	0.243
293.15	0.5999	1091.33	0.223
293.15	0.6497	1056.788	0.204
293.15	0.7001	1021.648	0.187
293.15	0.7499	986.531	0.184
293.15	0.7998	950.913	0.202
293.15	0.8503	914.435	0.222
293.15	0.9002	877.949	0.244
293.15	0.95	841.239	0.267
293.15	1	803.703	0.25
298.15	0	1479.148	0.462
298.15	0.0493	1446.744	0.457
298.15	0.0992	1414.474	0.435
298.15	0.1499	1381.481	0.412
298.15	0.2002	1348.896	0.389
298.15	0.2496	1317.054	0.367
298.15	0.2999	1284.429	0.345
298.15	0.3493	1252.163	0.324
298.15	0.4004	1218.593	0.301
298.15	0.4502	1185.736	0.28
298.15	0.5001	1152.383	0.259
298.15	0.5497	1119.033	0.239
298.15	0.5999	1084.995	0.219
298.15	0.6497	1050.746	0.201
298.15	0.7001	1015.906	0.183
298.15	0.7499	981.083	0.185
298.15	0.7998	945.767	0.204
298.15	0.8503	909.588	0.224
298.15	0.9002	873.397	0.246
298.15	0.95	836.96	0.269
298.15	1	799.692	0.252
303.15	0	1469.612	0.454
303.15	0.0493	1437.408	0.45
303.15	0.0992	1405.354	0.428
303.15	0.1499	1372.606	0.405
303.15	0.2002	1340.276	0.382
303.15	0.2496	1308.695	0.361
303.15	0.2999	1276.342	0.339
303.15	0.3493	1244.351	0.318
303.15	0.4004	1211.064	0.296
303.15	0.4502	1178.484	0.275
303.15	0.5001	1145.417	0.254
303.15	0.5497	1112.349	0.234
303.15	0.5999	1078.605	0.215
303.15	0.6497	1044.651	0.197
303.15	0.7001	1010.111	0.18
303.15	0.7499	975.586	0.187
303.15	0.7998	940.572	0.206
303.15	0.8503	904.699	0.226
303.15	0.9002	868.803	0.248
303.15	0.95	832.652	0.271
303.15	1	795.65	0.255
308.15	0	1460.025	0.447
308.15	0.0493	1428.01	0.443
308.15	0.0992	1396.171	0.421
308.15	0.1499	1363.67	0.398
308.15	0.2002	1331.595	0.376
308.15	0.2496	1300.271	0.354
308.15	0.2999	1268.188	0.333
308.15	0.3493	1236.471	0.312
308.15	0.4004	1203.464	0.29
308.15	0.4502	1171.164	0.269
308.15	0.5001	1138.385	0.249
308.15	0.5497	1105.602	0.229
308.15	0.5999	1072.151	0.21
308.15	0.6497	1038.495	0.193
308.15	0.7001	1004.259	0.177
308.15	0.7499	970.031	0.189
308.15	0.7998	935.323	0.208
308.15	0.8503	899.757	0.228
308.15	0.9002	864.163	0.25
308.15	0.95	828.298	0.273
308.15	1	791.576	0.258
313.15	0	1450.413	0.44
313.15	0.0493	1418.578	0.436
313.15	0.0992	1386.95	0.414
313.15	0.1499	1354.698	0.391
313.15	0.2002	1322.858	0.369
313.15	0.2496	1291.797	0.348
313.15	0.2999	1260.011	0.327
313.15	0.3493	1228.548	0.306
313.15	0.4004	1195.826	0.284
313.15	0.4502	1163.793	0.264
313.15	0.5001	1131.315	0.244
313.15	0.5497	1098.81	0.225
313.15	0.5999	1065.649	0.206
313.15	0.6497	1032.308	0.189
313.15	0.7001	998.364	0.175
313.15	0.7499	964.415	0.191
313.15	0.7998	930.03	0.21
313.15	0.8503	894.778	0.231
313.15	0.9002	859.496	0.252
313.15	0.95	823.912	0.276
313.15	1	787.466	0.261

System: propan-1-ol + benzene; phases: Liquid
Fixed: Pressure, kPa = 101.3
Property: Mass density, kg/m3 (Liquid); method: VIBTUB:UFactor:2
Temperature, K	Mole fraction of propan-1-ol	Mass density, kg/m3	uncertainty
288.15	0	884.246	0.161
288.15	0.022	882.511	0.163
288.15	0.0557	880.03	0.165
288.15	0.0984	876.959	0.168
288.15	0.1632	872.435	0.172
288.15	0.2186	868.541	0.176
288.15	0.2385	867.148	0.178
288.15	0.3046	862.546	0.182
288.15	0.3993	855.836	0.19
288.15	0.4505	852.174	0.194
288.15	0.5023	848.393	0.198
288.15	0.6035	840.846	0.207
288.15	0.66	836.494	0.212
288.15	0.7035	833.115	0.216
288.15	0.7453	829.801	0.22
288.15	0.8016	825.211	0.226
288.15	0.8447	821.474	0.231
288.15	0.8981	816.954	0.236
288.15	0.9495	812.375	0.242
288.15	1	807.69	0.247
293.15	0	878.918	0.165
293.15	0.022	877.177	0.167
293.15	0.0557	874.714	0.169
293.15	0.0984	871.673	0.172
293.15	0.1632	867.203	0.176
293.15	0.2186	863.367	0.18
293.15	0.2385	861.999	0.182
293.15	0.3046	857.468	0.186
293.15	0.3993	850.881	0.194
293.15	0.4505	847.288	0.198
293.15	0.5023	843.581	0.202
293.15	0.6035	836.186	0.211
293.15	0.66	831.916	0.216
293.15	0.7035	828.615	0.22
293.15	0.7453	825.366	0.224
293.15	0.8016	820.875	0.229
293.15	0.8447	817.209	0.234
293.15	0.8981	812.786	0.239
293.15	0.9495	808.313	0.245
293.15	1	803.703	0.25
298.15	0	873.582	0.169
298.15	0.022	871.937	0.171
298.15	0.0557	869.383	0.174
298.15	0.0984	866.369	0.176
298.15	0.1632	861.955	0.181
298.15	0.2186	858.172	0.184
298.15	0.2385	856.826	0.186
298.15	0.3046	852.368	0.19
298.15	0.3993	845.896	0.197
298.15	0.4505	842.37	0.201
298.15	0.5023	838.736	0.206
298.15	0.6035	831.492	0.214
298.15	0.66	827.312	0.219
298.15	0.7035	824.081	0.223
298.15	0.7453	820.902	0.227
298.15	0.8016	816.507	0.232
298.15	0.8447	812.998	0.237
298.15	0.8981	808.589	0.242
298.15	0.9495	804.141	0.248
298.15	1	799.692	0.252
303.15	0	868.233	0.173
303.15	0.022	866.489	0.176
303.15	0.0557	864.034	0.178
303.15	0.0984	861.047	0.181
303.15	0.1632	856.682	0.185
303.15	0.2186	852.95	0.188
303.15	0.2385	851.625	0.19
303.15	0.3046	847.234	0.194
303.15	0.3993	840.877	0.201
303.15	0.4505	837.417	0.205
303.15	0.5023	833.856	0.209
303.15	0.6035	826.762	0.218
303.15	0.66	822.69	0.223
303.15	0.7035	819.512	0.227
303.15	0.7453	816.4	0.23
303.15	0.8016	812.105	0.236
303.15	0.8447	808.593	0.24
303.15	0.8981	804.36	0.245
303.15	0.9495	800.008	0.251
303.15	1	795.65	0.255
308.15	0	862.871	0.178
308.15	0.022	861.124	0.18
308.15	0.0557	858.669	0.182
308.15	0.0984	855.699	0.185
308.15	0.1632	851.38	0.189
308.15	0.2186	847.699	0.193
308.15	0.2385	846.396	0.194
308.15	0.3046	842.067	0.198
308.15	0.3993	835.823	0.205
308.15	0.4505	832.428	0.209
308.15	0.5023	828.935	0.213
308.15	0.6035	821.989	0.221
308.15	0.66	817.981	0.226
308.15	0.7035	814.9	0.23
308.15	0.7453	811.856	0.234
308.15	0.8016	807.61	0.239
308.15	0.8447	804.229	0.243
308.15	0.8981	800.093	0.248
308.15	0.9495	795.838	0.254
308.15	1	791.576	0.258
313.15	0	857.498	0.182
313.15	0.022	855.764	0.184
313.15	0.0557	853.296	0.186
313.15	0.0984	850.343	0.189
313.15	0.1632	846.063	0.193
313.15	0.2186	842.427	0.197
313.15	0.2385	841.156	0.198
313.15	0.3046	836.875	0.203
313.15	0.3993	830.744	0.209
313.15	0.4505	827.425	0.213
313.15	0.5023	823.986	0.217
313.15	0.6035	817.183	0.225
313.15	0.66	813.261	0.23
313.15	0.7035	810.256	0.234
313.15	0.7453	807.285	0.237
313.15	0.8016	803.184	0.242
313.15	0.8447	799.833	0.246
313.15	0.8981	795.804	0.252
313.15	0.9495	791.644	0.257
313.15	1	787.466	0.261

System: trichloromethane + propan-1-ol + benzene; phases: Liquid
Fixed: Pressure, kPa = 101.3
Property: Mass density, kg/m3 (Liquid); method: VIBTUB:UFactor:2
Temperature, K	Mole fraction of propan-1-ol	Mole fraction of trichloromethane	Mass density, kg/m3	uncertainty
288.15	0.0206	0.7991	1362.605	0.39
288.15	0.0213	0.8984	1429.089	0.426
288.15	0.0288	0.7001	1297.84	0.369
288.15	0.0386	0.9009	1431.137	0.429
288.15	0.0399	0.6005	1234.259	0.364
288.15	0.0411	0.7994	1363.01	0.391
288.15	0.0489	0.5009	1171.945	0.375
288.15	0.0584	0.4012	1110.82	0.294
288.15	0.0592	0.7003	1297.986	0.371
288.15	0.0595	0.9001	1431.623	0.43
288.15	0.0694	0.3	1049.946	0.215
288.15	0.0796	0.8002	1364.052	0.394
288.15	0.0799	0.2003	991.32	0.148
288.15	0.0803	0.6001	1233.561	0.37
288.15	0.0805	0.8985	1430.432	0.431
288.15	0.0904	0.0999	933.453	0.14
288.15	0.0995	0.5002	1170.497	0.38
288.15	0.1195	0.4002	1108.333	0.297
288.15	0.1195	0.7011	1298.88	0.376
288.15	0.12	0.7995	1364.377	0.396
288.15	0.1406	0.3001	1047.255	0.222
288.15	0.1593	0.6014	1234.025	0.374
288.15	0.1598	0.1999	987.1	0.151
288.15	0.16	0.7987	1364.693	0.4
288.15	0.1788	0.7007	1299.164	0.38
288.15	0.1792	0.8001	1366	0.402
288.15	0.1798	0.1	928.064	0.145
288.15	0.2002	0.4997	1168.705	0.389
288.15	0.2393	0.4008	1105.561	0.302
288.15	0.2397	0.7	1299.56	0.383
288.15	0.24	0.6004	1233.271	0.38
288.15	0.2696	0.6992	1299.546	0.385
288.15	0.2802	0.2999	1041.837	0.224
288.15	0.2994	0.5003	1167.813	0.389
288.15	0.32	0.599	1232.696	0.381
288.15	0.3202	0.2	979.271	0.163
288.15	0.3601	0.1	917.333	0.157
288.15	0.3602	0.5993	1233.025	0.387
288.15	0.3609	0.3993	1101.825	0.312
288.15	0.4005	0.4994	1166.399	0.395
288.15	0.4197	0.3004	1037.33	0.229
288.15	0.4502	0.5009	1166.97	0.403
288.15	0.4795	0.2003	971.803	0.171
288.15	0.48	0.4001	1099.843	0.313
288.15	0.5393	0.3999	1098.574	0.318
288.15	0.5399	0.0996	906.202	0.171
288.15	0.56	0.2998	1032.007	0.23
288.15	0.6294	0.3005	1030.311	0.234
288.15	0.6398	0.2	964.014	0.181
288.15	0.7195	0.1001	895.228	0.186
288.15	0.7203	0.2002	960.162	0.185
288.15	0.8095	0.1003	889.382	0.194
293.15	0.0206	0.7991	1354.179	0.383
293.15	0.0213	0.8984	1420.159	0.419
293.15	0.0288	0.7001	1289.881	0.363
293.15	0.0386	0.9009	1422.174	0.422
293.15	0.0399	0.6005	1226.743	0.359
293.15	0.0411	0.7994	1354.561	0.384
293.15	0.0489	0.5009	1164.851	0.37
293.15	0.0584	0.4012	1104.124	0.29
293.15	0.0592	0.7003	1290.003	0.366
293.15	0.0595	0.9001	1422.637	0.423
293.15	0.0694	0.3	1043.635	0.211
293.15	0.0796	0.8002	1355.569	0.388
293.15	0.0799	0.2003	985.368	0.148
293.15	0.0803	0.6001	1226.036	0.364
293.15	0.0805	0.8985	1421.438	0.424
293.15	0.0904	0.0999	927.843	0.144
293.15	0.0995	0.5002	1163.402	0.375
293.15	0.1195	0.4002	1101.662	0.293
293.15	0.1195	0.7011	1290.878	0.37
293.15	0.12	0.7995	1355.881	0.39
293.15	0.1406	0.3001	1040.983	0.217
293.15	0.1593	0.6014	1226.498	0.369
293.15	0.1598	0.1999	981.211	0.153
293.15	0.16	0.7987	1356.193	0.393
293.15	0.1788	0.7007	1291.165	0.374
293.15	0.1792	0.8001	1357.49	0.395
293.15	0.1798	0.1	922.531	0.149
293.15	0.2002	0.4997	1161.655	0.383
293.15	0.2393	0.4008	1098.961	0.298
293.15	0.2397	0.7	1291.577	0.377
293.15	0.24	0.6004	1225.777	0.375
293.15	0.2696	0.6992	1291.571	0.379
293.15	0.2802	0.2999	1035.68	0.22
293.15	0.2994	0.5003	1160.819	0.383
293.15	0.32	0.599	1225.242	0.376
293.15	0.3202	0.2	973.531	0.163
293.15	0.3601	0.1	911.996	0.161
293.15	0.3602	0.5993	1225.589	0.381
293.15	0.3609	0.3993	1095.327	0.307
293.15	0.4005	0.4994	1159.477	0.39
293.15	0.4197	0.3004	1031.306	0.226
293.15	0.4502	0.5009	1160.075	0.398
293.15	0.4795	0.2003	966.25	0.173
293.15	0.48	0.4001	1093.446	0.308
293.15	0.5393	0.3999	1092.235	0.314
293.15	0.5399	0.0996	901.101	0.175
293.15	0.56	0.2998	1026.141	0.225
293.15	0.6294	0.3005	1024.523	0.231
293.15	0.6398	0.2	958.673	0.183
293.15	0.7195	0.1001	890.397	0.189
293.15	0.7203	0.2002	954.933	0.187
293.15	0.8095	0.1003	884.699	0.197
298.15	0.0206	0.7991	1345.713	0.377
298.15	0.0213	0.8984	1411.186	0.412
298.15	0.0288	0.7001	1281.882	0.357
298.15	0.0386	0.9009	1413.163	0.415
298.15	0.0399	0.6005	1219.191	0.353
298.15	0.0411	0.7994	1346.069	0.378
298.15	0.0489	0.5009	1157.72	0.365
298.15	0.0584	0.4012	1097.397	0.286
298.15	0.0592	0.7003	1281.979	0.36
298.15	0.0595	0.9001	1413.604	0.417
298.15	0.0694	0.3	1037.297	0.208
298.15	0.0796	0.8002	1347.04	0.381
298.15	0.0799	0.2003	979.39	0.151
298.15	0.0803	0.6001	1218.464	0.361
298.15	0.0805	0.8985	1412.398	0.417
298.15	0.0904	0.0999	922.211	0.148
298.15	0.0995	0.5002	1156.268	0.37
298.15	0.1195	0.4002	1094.95	0.289
298.15	0.1195	0.7011	1282.827	0.364
298.15	0.12	0.7995	1347.336	0.383
298.15	0.1406	0.3001	1034.674	0.214
298.15	0.1593	0.6014	1218.926	0.364
298.15	0.1598	0.1999	975.29	0.155
298.15	0.16	0.7987	1347.639	0.387
298.15	0.1788	0.7007	1283.116	0.368
298.15	0.1792	0.8001	1348.928	0.389
298.15	0.1798	0.1	916.97	0.153
298.15	0.2002	0.4997	1154.561	0.379
298.15	0.2393	0.4008	1092.316	0.295
298.15	0.2397	0.7	1283.536	0.371
298.15	0.24	0.6004	1218.232	0.369
298.15	0.2696	0.6992	1283.538	0.373
298.15	0.2802	0.2999	1029.478	0.217
298.15	0.2994	0.5003	1153.774	0.378
298.15	0.32	0.599	1217.736	0.371
298.15	0.3202	0.2	967.756	0.168
298.15	0.3601	0.1	906.623	0.164
298.15	0.3602	0.5993	1218.1	0.376
298.15	0.3609	0.3993	1088.781	0.293
298.15	0.4005	0.4994	1152.499	0.385
298.15	0.4197	0.3004	1025.238	0.222
298.15	0.4502	0.5009	1153.129	0.393
298.15	0.4795	0.2003	960.654	0.175
298.15	0.48	0.4001	1086.998	0.304
298.15	0.5393	0.3999	1085.845	0.31
298.15	0.5399	0.0996	895.964	0.178
298.15	0.56	0.2998	1020.231	0.222
298.15	0.6294	0.3005	1018.688	0.228
298.15	0.6398	0.2	953.286	0.185
298.15	0.7195	0.1001	885.527	0.192
298.15	0.7203	0.2002	949.662	0.189
298.15	0.8095	0.1003	879.981	0.2
303.15	0.0206	0.7991	1337.201	0.37
303.15	0.0213	0.8984	1402.166	0.406
303.15	0.0288	0.7001	1273.842	0.351
303.15	0.0386	0.9009	1404.107	0.408
303.15	0.0399	0.6005	1211.599	0.348
303.15	0.0411	0.7994	1337.532	0.372
303.15	0.0489	0.5009	1150.556	0.361
303.15	0.0584	0.4012	1090.634	0.282
303.15	0.0592	0.7003	1273.91	0.354
303.15	0.0595	0.9001	1404.518	0.41
303.15	0.0694	0.3	1030.928	0.205
303.15	0.0796	0.8002	1338.459	0.375
303.15	0.0799	0.2003	973.386	0.153
303.15	0.0803	0.6001	1210.853	0.354
303.15	0.0805	0.8985	1403.305	0.41
303.15	0.0904	0.0999	916.556	0.152
303.15	0.0995	0.5002	1149.095	0.366
303.15	0.1195	0.4002	1088.202	0.285
303.15	0.1195	0.7011	1274.726	0.358
303.15	0.12	0.7995	1338.736	0.377
303.15	0.1406	0.3001	1028.329	0.211
303.15	0.1593	0.6014	1211.301	0.358
303.15	0.1598	0.1999	969.334	0.158
303.15	0.16	0.7987	1339.031	0.38
303.15	0.1788	0.7007	1275.013	0.362
303.15	0.1792	0.8001	1340.308	0.382
303.15	0.1798	0.1	911.38	0.157
303.15	0.2002	0.4997	1147.416	0.374
303.15	0.2393	0.4008	1085.625	0.291
303.15	0.2397	0.7	1275.437	0.365
303.15	0.24	0.6004	1210.636	0.364
303.15	0.2696	0.6992	1275.448	0.367
303.15	0.2802	0.2999	1023.235	0.214
303.15	0.2994	0.5003	1146.677	0.373
303.15	0.32	0.599	1210.172	0.365
303.15	0.3202	0.2	961.937	0.168
303.15	0.3601	0.1	901.213	0.168
303.15	0.3602	0.5993	1210.552	0.37
303.15	0.3609	0.3993	1082.184	0.3
303.15	0.4005	0.4994	1145.468	0.38
303.15	0.4197	0.3004	1019.115	0.219
303.15	0.4502	0.5009	1146.124	0.388
303.15	0.4795	0.2003	955.012	0.178
303.15	0.48	0.4001	1080.497	0.3
303.15	0.5393	0.3999	1079.395	0.306
303.15	0.5399	0.0996	890.785	0.182
303.15	0.56	0.2998	1014.264	0.219
303.15	0.6294	0.3005	1012.799	0.225
303.15	0.6398	0.2	947.853	0.188
303.15	0.7195	0.1001	880.614	0.196
303.15	0.7203	0.2002	944.341	0.192
303.15	0.8095	0.1003	875.219	0.203
308.15	0.0206	0.7991	1328.641	0.364
308.15	0.0213	0.8984	1393.089	0.399
308.15	0.0288	0.7001	1265.755	0.345
308.15	0.0386	0.9009	1394.996	0.401
308.15	0.0399	0.6005	1203.961	0.343
308.15	0.0411	0.7994	1328.945	0.365
308.15	0.0489	0.5009	1143.352	0.356
308.15	0.0584	0.4012	1083.837	0.278
308.15	0.0592	0.7003	1265.789	0.348
308.15	0.0595	0.9001	1395.381	0.403
308.15	0.0694	0.3	1024.523	0.202
308.15	0.0796	0.8002	1329.827	0.369
308.15	0.0799	0.2003	967.348	0.156
308.15	0.0803	0.6001	1203.196	0.349
308.15	0.0805	0.8985	1394.159	0.403
308.15	0.0904	0.0999	910.87	0.156
308.15	0.0995	0.5002	1141.874	0.361
308.15	0.1195	0.4002	1081.409	0.281
308.15	0.1195	0.7011	1266.572	0.352
308.15	0.12	0.7995	1330.082	0.371
308.15	0.1406	0.3001	1021.942	0.208
308.15	0.1593	0.6014	1203.624	0.353
308.15	0.1598	0.1999	963.342	0.16
308.15	0.16	0.7987	1330.363	0.374
308.15	0.1788	0.7007	1266.847	0.356
308.15	0.1792	0.8001	1331.625	0.376
308.15	0.1798	0.1	905.754	0.161
308.15	0.2002	0.4997	1140.217	0.369
308.15	0.2393	0.4008	1078.883	0.287
308.15	0.2397	0.7	1267.277	0.359
308.15	0.24	0.6004	1202.976	0.358
308.15	0.2696	0.6992	1267.291	0.361
308.15	0.2802	0.2999	1016.94	0.211
308.15	0.2994	0.5003	1139.52	0.369
308.15	0.32	0.599	1202.546	0.36
308.15	0.3202	0.2	956.07	0.171
308.15	0.3601	0.1	895.755	0.172
308.15	0.3602	0.5993	1202.94	0.365
308.15	0.3609	0.3993	1075.53	0.296
308.15	0.4005	0.4994	1138.374	0.376
308.15	0.4197	0.3004	1012.942	0.216
308.15	0.4502	0.5009	1139.058	0.383
308.15	0.4795	0.2003	949.318	0.18
308.15	0.48	0.4001	1073.937	0.296
308.15	0.5393	0.3999	1072.888	0.302
308.15	0.5399	0.0996	885.556	0.185
308.15	0.56	0.2998	1008.242	0.216
308.15	0.6294	0.3005	1006.851	0.222
308.15	0.6398	0.2	942.365	0.19
308.15	0.7195	0.1001	875.655	0.199
308.15	0.7203	0.2002	938.966	0.194
308.15	0.8095	0.1003	870.407	0.207
313.15	0.0206	0.7991	1320.062	0.357
313.15	0.0213	0.8984	1383.982	0.392
313.15	0.0288	0.7001	1257.635	0.339
313.15	0.0386	0.9009	1385.843	0.394
313.15	0.0399	0.6005	1196.308	0.337
313.15	0.0411	0.7994	1320.321	0.358
313.15	0.0489	0.5009	1136.134	0.351
313.15	0.0584	0.4012	1077.023	0.274
313.15	0.0592	0.7003	1257.645	0.342
313.15	0.0595	0.9001	1386.217	0.397
313.15	0.0694	0.3	1018.099	0.198
313.15	0.0796	0.8002	1321.161	0.362
313.15	0.0799	0.2003	961.302	0.157
313.15	0.0803	0.6001	1195.496	0.342
313.15	0.0805	0.8985	1384.988	0.396
313.15	0.0904	0.0999	905.168	0.16
313.15	0.0995	0.5002	1134.622	0.356
313.15	0.1195	0.4002	1074.586	0.277
313.15	0.1195	0.7011	1258.395	0.346
313.15	0.12	0.7995	1321.394	0.364
313.15	0.1406	0.3001	1015.531	0.204
313.15	0.1593	0.6014	1195.921	0.347
313.15	0.1598	0.1999	957.328	0.163
313.15	0.16	0.7987	1321.658	0.367
313.15	0.1788	0.7007	1258.649	0.35
313.15	0.1792	0.8001	1322.906	0.369
313.15	0.1798	0.1	900.114	0.164
313.15	0.2002	0.4997	1132.992	0.364
313.15	0.2393	0.4008	1072.099	0.282
313.15	0.2397	0.7	1259.075	0.353
313.15	0.24	0.6004	1195.278	0.353
313.15	0.2696	0.6992	1259.087	0.355
313.15	0.2802	0.2999	1010.613	0.206
313.15	0.2994	0.5003	1132.314	0.363
313.15	0.32	0.599	1194.875	0.355
313.15	0.3202	0.2	950.176	0.171
313.15	0.3601	0.1	890.271	0.176
313.15	0.3602	0.5993	1195.281	0.36
313.15	0.3609	0.3993	1068.832	0.291
313.15	0.4005	0.4994	1131.243	0.371
313.15	0.4197	0.3004	1006.734	0.213
313.15	0.4502	0.5009	1131.941	0.378
313.15	0.4795	0.2003	943.594	0.182
313.15	0.48	0.4001	1067.345	0.291
313.15	0.5393	0.3999	1066.346	0.298
313.15	0.5399	0.0996	880.301	0.189
313.15	0.56	0.2998	1002.171	0.211
313.15	0.6294	0.3005	1000.851	0.219
313.15	0.6398	0.2	936.834	0.193
313.15	0.7195	0.1001	870.661	0.203
313.15	0.7203	0.2002	933.548	0.197
313.15	0.8095	0.1003	865.566	0.21
