Measured thermophysical data. Apparent Molal Volumes of Lidocaine-HCl and Procaine-HCl in Aqueous Solution as a Function of Temperature
Source: J. Chem. Eng. Data, 2007, 10.1021/je700100a
Compound 1: potassium chloride, ClK, InChI=1S/ClH.K/h1H;/q;+1/p-1
Compound 2: water, H2O, InChI=1S/H2O/h1H2
Compound 3: lidocaine hydrochloride, C14H23ClN2O, InChI=1S/C14H22N2O.ClH/c1-5-16(6-2)10-13(17)15-14-11(3)8-7-9-12(14)4;/h7-9H,5-6,10H2,1-4H3,(H,15,17);1H
Compound 4: 2-diethylaminoethyl p-aminobenzoate hydrochloride, C13H21ClN2O2, InChI=1S/C13H20N2O2.ClH/c1-3-15(4-2)9-10-17-13(16)11-5-7-12(14)8-6-11;/h5-8H,3-4,9-10,14H2,1-2H3;1H

System: potassium chloride + water; phases: Liquid
Fixed: Pressure, kPa = 101
Property: Mass density, kg/m3 (Liquid); method: Buoyancy - hydrostatic balance with magnetic suspension - one sinker
Temperature, K	Molality, mol/kg of potassium chloride	Mass density, kg/m3	uncertainty
298.15	0.030601	998.491	0.412
303.15	0.0105	996.131	0.41
303.15	0.02061	996.605	0.412

System: lidocaine hydrochloride + water; phases: Liquid
Fixed: Pressure, kPa = 101
Property: Mass density, kg/m3 (Liquid); method: Buoyancy - hydrostatic balance with magnetic suspension - one sinker
Temperature, K	Molality, mol/kg of lidocaine hydrochloride	Mass density, kg/m3	uncertainty
298.15	0.01229	0.4101	0.0343
298.15	0.02576	0.8701	0.0341
298.15	0.0353	1.1911	0.0346
298.15	0.04637	1.5801	0.0347
298.15	0.0553	1.8821	0.0341
298.15	0.05999	2.0431	0.0348
298.15	0.06587	2.2481	0.0337
298.15	0.07533	2.5591	0.0334
298.15	0.08682	2.9431	0.0334
298.15	0.09518	3.2191	0.0331
298.15	0.09984	3.3711	0.0328
303.15	0.01045	0.3368	0.0327
303.15	0.02049	0.6648	0.0333
303.15	0.03038	0.9938	0.0324
303.15	0.04052	1.3188	0.0331
303.15	0.05004	1.6488	0.0332
303.15	0.06004	1.9688	0.0337
303.15	0.06931	2.2888	0.0329
303.15	0.07916	2.6058	0.0326
303.15	0.08916	2.9388	0.0337
303.15	0.09984	3.2958	0.0348
310.15	0.01026	0.3183	0.0332
310.15	0.0204	0.6533	0.0341
310.15	0.03014	0.9943	0.0339
310.15	0.04052	1.3333	0.0315
310.15	0.05228	1.6893	0.0326
310.15	0.06294	2.0613	0.034
310.15	0.06918	2.2593	0.0319
310.15	0.08014	2.6073	0.0322
310.15	0.09504	3.0873	0.0322
310.15	0.1011	3.2763	0.0314

System: 2-diethylaminoethyl p-aminobenzoate hydrochloride + water; phases: Liquid
Fixed: Pressure, kPa = 101
Property: Mass density, kg/m3 (Liquid); method: Buoyancy - hydrostatic balance with magnetic suspension - one sinker
Temperature, K	Molality, mol/kg of 2-diethylaminoethyl p-aminobenzoate hydrochloride	Mass density, kg/m3	uncertainty
298.15	0.01006	0.5101	0.0546
298.15	0.01028	0.5221	0.0546
298.15	0.0202	0.9881	0.047
298.15	0.02924	1.4121	0.0473
298.15	0.03864	1.8581	0.0475
298.15	0.045	2.1581	0.0475
298.15	0.05697	2.7271	0.0475
298.15	0.06965	3.3251	0.0466
298.15	0.08017	3.8051	0.0466
298.15	0.0922	4.3711	0.0472
303.15	0.01028	0.4868	0.0445
303.15	0.02051	0.9598	0.0468
303.15	0.03015	1.4158	0.0471
303.15	0.03837	1.8028	0.0459
303.15	0.04622	2.1548	0.0444
303.15	0.05666	2.6128	0.0458
303.15	0.06784	3.1348	0.0462
303.15	0.08065	3.7088	0.0446
303.15	0.08987	4.1058	0.0461
303.15	0.09982	4.5768	0.0487
310.15	0.01015	0.5003	0.048
310.15	0.02012	0.9783	0.0466
310.15	0.02798	1.3283	0.0442
310.15	0.03581	1.6703	0.0451
310.15	0.04996	2.3153	0.0455
310.15	0.06012	2.7733	0.0452
310.15	0.07014	3.2243	0.0451
310.15	0.08065	3.6963	0.0448
310.15	0.09026	4.1223	0.045
310.15	0.10034	4.5793	0.0455
