Measured thermophysical data. Solubility of 3,4-Dinitrotoluene in Pure Water and Seawater
Source: J. Chem. Eng. Data, 2008, 10.1021/je700520k
Compound 1: 3,4-dinitrotoluene, C7H6N2O4, InChI=1S/C7H6N2O4/c1-5-2-3-6(8(10)11)7(4-5)9(12)13/h2-4H,1H3
Compound 2: water, H2O, InChI=1S/H2O/h1H2

System: 3,4-dinitrotoluene + water; phases: Liquid, Crystal
Fixed: Pressure, kPa = 101
Property: Mass concentration, kg/m3 (Liquid); method: static phase equilibration
Temperature, K	Mass concentration, kg/m3	uncertainty
278.2	0.069	0.01
285.1	0.098	0.014
291.7	0.121	0.017
293.1	0.134	0.019
298.3	0.179	0.025
304.2	0.206	0.029
308.3	0.262	0.037
312.6	0.324	0.045
313.2	0.326	0.046
