Measured thermophysical data. Densities, Viscosities, Refractive Indexes, and Surface Tensions for Binary Mixtures of 2-Propanol + Benzyl Alcohol, + 2-Phenylethanol and Benzyl Alcohol + 2-Phenylethanol at T ) (298.15, 308.15, and 318.15) K
Source: J. Chem. Eng. Data, 2007, 10.1021/je700140j
Compound 1: propan-2-ol, C3H8O, InChI=1S/C3H8O/c1-3(2)4/h3-4H,1-2H3, purity 99.5%
Compound 2: benzenemethanol, C7H8O, InChI=1S/C7H8O/c8-6-7-4-2-1-3-5-7/h1-5,8H,6H2, purity 99.5%
Compound 3: 2-phenylethanol, C8H10O, InChI=1S/C8H10O/c9-7-6-8-4-2-1-3-5-8/h1-5,9H,6-7H2, purity 99%

System: propan-2-ol; phases: Liquid, Air at 1 atmosphere
Property: Surface tension liquid-gas, N/m (Liquid); method: Ring tensiometer
Temperature, K	Surface tension liquid-gas, N/m	uncertainty
298.15	0.02085	0.00032
308.15	0.02005	0.00031
318.15	0.01935	0.00031

System: propan-2-ol; phases: Liquid
Fixed: Pressure, kPa = 101.325
Property: Refractive index (Na D-line) (Liquid); method: Standard Abbe refractometry
Temperature, K	Refractive index (Na D-line)	uncertainty
298.15	1.37507	0.00033
308.15	1.37063	0.00033
318.15	1.3661	0.00033

System: propan-2-ol; phases: Liquid
Fixed: Pressure, kPa = 100.8
Property: Viscosity, Pa*s (Liquid); method: CAPTUB::UFactor:2
Temperature, K	Viscosity, Pa*s	uncertainty
298.15	0.002082	2.8e-05
308.15	0.00155	2.1e-05
318.15	0.001181	1.6e-05

System: propan-2-ol; phases: Liquid
Fixed: Pressure, kPa = 100.8
Property: Mass density, kg/m3 (Liquid); method: VIBTUB::UFactor:5
Temperature, K	Mass density, kg/m3	uncertainty
298.15	781.17	0.61
308.15	772.53	0.63
318.15	763.52	0.65

System: benzenemethanol; phases: Liquid, Air at 1 atmosphere
Property: Surface tension liquid-gas, N/m (Liquid); method: Ring tensiometer
Temperature, K	Surface tension liquid-gas, N/m	uncertainty
298.15	0.03863	0.00054
308.15	0.03773	0.00053
318.15	0.03675	0.00052

System: benzenemethanol; phases: Liquid
Fixed: Pressure, kPa = 101.325
Property: Refractive index (Na D-line) (Liquid); method: Standard Abbe refractometry
Temperature, K	Refractive index (Na D-line)	uncertainty
298.15	1.53843	0.00033
308.15	1.53421	0.00033
318.15	1.52994	0.00033

System: benzenemethanol; phases: Liquid
Fixed: Pressure, kPa = 100.8
Property: Viscosity, Pa*s (Liquid); method: CAPTUB::UFactor:2
Temperature, K	Viscosity, Pa*s	uncertainty
298.15	0.005555	7.1e-05
308.15	0.004093	5.4e-05
318.15	0.00312	4.1e-05

System: benzenemethanol; phases: Liquid
Fixed: Pressure, kPa = 100.8
Property: Mass density, kg/m3 (Liquid); method: VIBTUB::UFactor:5
Temperature, K	Mass density, kg/m3	uncertainty
298.15	1041.4	0.29
308.15	1033.6	0.27
318.15	1025.72	0.26

System: 2-phenylethanol; phases: Liquid, Air at 1 atmosphere
Property: Surface tension liquid-gas, N/m (Liquid); method: Ring tensiometer
Temperature, K	Surface tension liquid-gas, N/m	uncertainty
298.15	0.03943	0.00058
308.15	0.03893	0.00057
318.15	0.03835	0.00056

System: 2-phenylethanol; phases: Liquid
Fixed: Pressure, kPa = 101.325
Property: Refractive index (Na D-line) (Liquid); method: Standard Abbe refractometry
Temperature, K	Refractive index (Na D-line)	uncertainty
298.15	1.53269	0.00037
308.15	1.52852	0.00037
318.15	1.52427	0.00037

System: 2-phenylethanol; phases: Liquid
Fixed: Pressure, kPa = 100.8
Property: Viscosity, Pa*s (Liquid); method: CAPTUB::UFactor:2
Temperature, K	Viscosity, Pa*s	uncertainty
298.15	0.011405	0.000144
308.15	0.007518	9.8e-05
318.15	0.005232	7.1e-05

System: 2-phenylethanol; phases: Liquid
Fixed: Pressure, kPa = 100.8
Property: Mass density, kg/m3 (Liquid); method: VIBTUB::UFactor:5
Temperature, K	Mass density, kg/m3	uncertainty
298.15	1016.2	0.39
308.15	1008.63	0.37
318.15	1000.98	0.36

System: propan-2-ol + benzenemethanol; phases: Liquid, Air at 1 atmosphere
Property: Surface tension liquid-gas, N/m (Liquid); method: Ring tensiometer
Mole fraction of propan-2-ol	Temperature, K	Surface tension liquid-gas, N/m	uncertainty
0	298.15	0.03863	0.00054
0	308.15	0.03773	0.00053
0	318.15	0.03675	0.00052
0.05	298.15	0.0375	0.00053
0.05	308.15	0.03666	0.00052
0.05	318.15	0.03575	0.00051
0.1	298.15	0.0364	0.00051
0.1	308.15	0.03563	0.0005
0.1	318.15	0.03476	0.00049
0.15	298.15	0.03535	0.0005
0.15	308.15	0.0346	0.00049
0.15	318.15	0.03377	0.00048
0.2	298.15	0.0343	0.00049
0.2	308.15	0.03359	0.00048
0.2	318.15	0.03278	0.00047
0.25	298.15	0.03327	0.00048
0.25	308.15	0.03258	0.00047
0.25	318.15	0.03181	0.00046
0.3	298.15	0.03227	0.00046
0.3	308.15	0.03158	0.00045
0.3	318.15	0.03083	0.00045
0.35	298.15	0.03127	0.00045
0.35	308.15	0.03058	0.00044
0.35	318.15	0.02985	0.00043
0.4	298.15	0.0303	0.00044
0.4	308.15	0.0296	0.00043
0.4	318.15	0.0289	0.00042
0.45	298.15	0.02936	0.00043
0.45	308.15	0.02866	0.00042
0.45	318.15	0.02795	0.00041
0.5	298.15	0.02845	0.00042
0.5	308.15	0.02775	0.00041
0.5	318.15	0.02705	0.0004
0.55	298.15	0.02763	0.00041
0.55	308.15	0.02693	0.0004
0.55	318.15	0.02625	0.00039
0.6	298.15	0.02683	0.0004
0.6	308.15	0.02615	0.00039
0.6	318.15	0.02548	0.00038
0.65	298.15	0.02605	0.00039
0.65	308.15	0.02538	0.00038
0.65	318.15	0.02473	0.00037
0.7	298.15	0.02528	0.00038
0.7	308.15	0.02461	0.00037
0.7	318.15	0.02398	0.00036
0.75	298.15	0.02453	0.00037
0.75	308.15	0.02385	0.00036
0.75	318.15	0.02323	0.00035
0.8	298.15	0.02378	0.00036
0.8	308.15	0.0231	0.00035
0.8	318.15	0.02248	0.00034
0.85	298.15	0.02305	0.00035
0.85	308.15	0.02235	0.00034
0.85	318.15	0.02173	0.00033
0.9	298.15	0.02233	0.00034
0.9	308.15	0.0216	0.00033
0.9	318.15	0.02096	0.00033
0.95	298.15	0.02161	0.00033
0.95	308.15	0.02085	0.00032
0.95	318.15	0.02019	0.00032
1	298.15	0.02085	0.00032
1	308.15	0.02005	0.00031
1	318.15	0.01935	0.00031

System: propan-2-ol + benzenemethanol; phases: Liquid
Fixed: Pressure, kPa = 100.8
Property: Viscosity, Pa*s (Liquid); method: CAPTUB:UFactor:2
Mole fraction of propan-2-ol	Temperature, K	Viscosity, Pa*s	uncertainty
0	298.15	0.005555	7.1e-05
0	308.15	0.004093	5.4e-05
0	318.15	0.00312	4.1e-05
0.05	298.15	0.005299	6.8e-05
0.05	308.15	0.00391	5.1e-05
0.05	318.15	0.002989	4e-05
0.1	298.15	0.005053	6.6e-05
0.1	308.15	0.00373	4.9e-05
0.1	318.15	0.002864	3.8e-05
0.15	298.15	0.004799	6.2e-05
0.15	308.15	0.003558	4.7e-05
0.15	318.15	0.002745	3.6e-05
0.2	298.15	0.004559	5.9e-05
0.2	308.15	0.003389	4.5e-05
0.2	318.15	0.002628	3.5e-05
0.25	298.15	0.004332	5.7e-05
0.25	308.15	0.00323	4.3e-05
0.25	318.15	0.002513	3.3e-05
0.3	298.15	0.004116	5.4e-05
0.3	308.15	0.003076	4.1e-05
0.3	318.15	0.0024	3.2e-05
0.35	298.15	0.003911	5.1e-05
0.35	308.15	0.002921	3.9e-05
0.35	318.15	0.002285	3.1e-05
0.4	298.15	0.003714	4.9e-05
0.4	308.15	0.002772	3.7e-05
0.4	318.15	0.002172	2.9e-05
0.45	298.15	0.003523	4.6e-05
0.45	308.15	0.002631	3.5e-05
0.45	318.15	0.002059	2.8e-05
0.5	298.15	0.003335	4.4e-05
0.5	308.15	0.00249	3.3e-05
0.5	318.15	0.001953	2.6e-05
0.55	298.15	0.003169	4.2e-05
0.55	308.15	0.00237	3.2e-05
0.55	318.15	0.001858	2.5e-05
0.6	298.15	0.00301	4e-05
0.6	308.15	0.002256	3e-05
0.6	318.15	0.001769	2.4e-05
0.65	298.15	0.002858	3.8e-05
0.65	308.15	0.002145	2.9e-05
0.65	318.15	0.00168	2.3e-05
0.7	298.15	0.002715	3.6e-05
0.7	308.15	0.002042	2.7e-05
0.7	318.15	0.001594	2.2e-05
0.75	298.15	0.00258	3.4e-05
0.75	308.15	0.001946	2.6e-05
0.75	318.15	0.001511	2.1e-05
0.8	298.15	0.00246	3.3e-05
0.8	308.15	0.001851	2.5e-05
0.8	318.15	0.001434	2e-05
0.85	298.15	0.002346	3.1e-05
0.85	308.15	0.001761	2.4e-05
0.85	318.15	0.001359	1.9e-05
0.9	298.15	0.002251	3e-05
0.9	308.15	0.001675	2.3e-05
0.9	318.15	0.001295	1.8e-05
0.95	298.15	0.002148	2.9e-05
0.95	308.15	0.001602	2.2e-05
0.95	318.15	0.001228	1.7e-05
1	298.15	0.002082	2.8e-05
1	308.15	0.00155	2.1e-05
1	318.15	0.001181	1.6e-05

System: propan-2-ol + benzenemethanol; phases: Liquid
Fixed: Pressure, kPa = 100.8
Property: Refractive index (Na D-line) (Liquid); method: Standard Abbe refractometry
Mole fraction of propan-2-ol	Temperature, K	Refractive index (Na D-line)	uncertainty
0	298.15	1.53843	0.00033
0	308.15	1.53421	0.00033
0	318.15	1.52994	0.00033
0.05	298.15	1.53277	0.00033
0.05	308.15	1.52858	0.00033
0.05	318.15	1.52435	0.00033
0.1	298.15	1.52684	0.00033
0.1	308.15	1.52268	0.00033
0.1	318.15	1.51849	0.00033
0.15	298.15	1.5207	0.00033
0.15	308.15	1.51654	0.00033
0.15	318.15	1.51233	0.00033
0.2	298.15	1.5143	0.00033
0.2	308.15	1.51019	0.00033
0.2	318.15	1.50598	0.00033
0.25	298.15	1.50772	0.00033
0.25	308.15	1.50359	0.00033
0.25	318.15	1.49935	0.00033
0.3	298.15	1.50089	0.00033
0.3	308.15	1.49674	0.00033
0.3	318.15	1.4925	0.00033
0.35	298.15	1.49383	0.00033
0.35	308.15	1.48966	0.00033
0.35	318.15	1.48542	0.00033
0.4	298.15	1.48652	0.00033
0.4	308.15	1.48234	0.00033
0.4	318.15	1.47809	0.00033
0.45	298.15	1.47899	0.00033
0.45	308.15	1.4748	0.00033
0.45	318.15	1.47053	0.00033
0.5	298.15	1.47118	0.00033
0.5	308.15	1.46698	0.00034
0.5	318.15	1.46269	0.00034
0.55	298.15	1.4631	0.00033
0.55	308.15	1.45889	0.00033
0.55	318.15	1.45458	0.00033
0.6	298.15	1.45472	0.00033
0.6	308.15	1.4505	0.00033
0.6	318.15	1.44616	0.00033
0.65	298.15	1.44605	0.00033
0.65	308.15	1.44182	0.00033
0.65	318.15	1.43746	0.00033
0.7	298.15	1.43707	0.00033
0.7	308.15	1.43283	0.00033
0.7	318.15	1.42848	0.00033
0.75	298.15	1.42774	0.00033
0.75	308.15	1.4235	0.00033
0.75	318.15	1.41916	0.00033
0.8	298.15	1.41804	0.00033
0.8	308.15	1.4138	0.00033
0.8	318.15	1.40943	0.00033
0.85	298.15	1.40795	0.00033
0.85	308.15	1.40368	0.00033
0.85	318.15	1.39933	0.00033
0.9	298.15	1.39746	0.00033
0.9	308.15	1.39319	0.00033
0.9	318.15	1.38883	0.00033
0.95	298.15	1.38648	0.00033
0.95	308.15	1.38219	0.00033
0.95	318.15	1.3778	0.00033
1	298.15	1.37507	0.00033
1	308.15	1.37063	0.00033
1	318.15	1.3661	0.00033

System: propan-2-ol + benzenemethanol; phases: Liquid
Fixed: Pressure, kPa = 100.8
Property: Mass density, kg/m3 (Liquid); method: VIBTUB:UFactor:5
Mole fraction of propan-2-ol	Temperature, K	Mass density, kg/m3	uncertainty
0	298.15	1041.4	0.29
0	308.15	1033.6	0.27
0	318.15	1025.72	0.26
0.05	298.15	1032.82	0.27
0.05	308.15	1025.02	0.26
0.05	318.15	1017.09	0.24
0.1	298.15	1023.74	0.25
0.1	308.15	1015.91	0.24
0.1	318.15	1007.96	0.22
0.15	298.15	1014.27	0.24
0.15	308.15	1006.4	0.22
0.15	318.15	998.38	0.21
0.2	298.15	1004.39	0.22
0.2	308.15	996.5	0.21
0.2	318.15	988.43	0.23
0.25	298.15	994.22	0.22
0.25	308.15	986.26	0.24
0.25	318.15	978.11	0.25
0.3	298.15	983.63	0.24
0.3	308.15	975.59	0.26
0.3	318.15	967.39	0.27
0.35	298.15	972.64	0.27
0.35	308.15	964.56	0.28
0.35	318.15	956.29	0.29
0.4	298.15	961.2	0.29
0.4	308.15	953.08	0.31
0.4	318.15	944.75	0.32
0.45	298.15	949.36	0.32
0.45	308.15	941.19	0.33
0.45	318.15	932.79	0.35
0.5	298.15	937.02	0.34
0.5	308.15	928.79	0.36
0.5	318.15	920.32	0.38
0.55	298.15	924.21	0.36
0.55	308.15	915.93	0.38
0.55	318.15	907.36	0.4
0.6	298.15	910.83	0.39
0.6	308.15	902.49	0.4
0.6	318.15	893.86	0.41
0.65	298.15	896.91	0.41
0.65	308.15	888.53	0.42
0.65	318.15	879.84	0.44
0.7	298.15	882.44	0.43
0.7	308.15	874.02	0.45
0.7	318.15	865.32	0.46
0.75	298.15	867.32	0.46
0.75	308.15	858.91	0.47
0.75	318.15	850.19	0.49
0.8	298.15	851.54	0.49
0.8	308.15	843.1	0.5
0.8	318.15	834.29	0.52
0.85	298.15	835.11	0.51
0.85	308.15	826.58	0.53
0.85	318.15	817.75	0.55
0.9	298.15	817.95	0.55
0.9	308.15	809.39	0.56
0.9	318.15	800.5	0.58
0.95	298.15	800	0.58
0.95	308.15	791.45	0.59
0.95	318.15	782.46	0.61
1	298.15	781.17	0.61
1	308.15	772.53	0.63
1	318.15	763.52	0.65

System: 2-phenylethanol + propan-2-ol; phases: Liquid, Air at 1 atmosphere
Property: Surface tension liquid-gas, N/m (Liquid); method: Ring tensiometer
Mole fraction of propan-2-ol	Temperature, K	Surface tension liquid-gas, N/m	uncertainty
0	298.15	0.03943	0.00058
0	308.15	0.03893	0.00057
0	318.15	0.03835	0.00056
0.05	298.15	0.0381	0.00056
0.05	308.15	0.0377	0.00055
0.05	318.15	0.0372	0.00055
0.1	298.15	0.0369	0.00054
0.1	308.15	0.03658	0.00054
0.1	318.15	0.03613	0.00053
0.15	298.15	0.0358	0.00053
0.15	308.15	0.03547	0.00052
0.15	318.15	0.03505	0.00052
0.2	298.15	0.0347	0.00051
0.2	308.15	0.03438	0.00051
0.2	318.15	0.03397	0.0005
0.25	298.15	0.03363	0.0005
0.25	308.15	0.03328	0.00049
0.25	318.15	0.03288	0.00049
0.3	298.15	0.03261	0.00048
0.3	308.15	0.03223	0.00048
0.3	318.15	0.0318	0.00047
0.35	298.15	0.0316	0.00047
0.35	308.15	0.03119	0.00046
0.35	318.15	0.03075	0.00046
0.4	298.15	0.0306	0.00045
0.4	308.15	0.03017	0.00045
0.4	318.15	0.0297	0.00044
0.45	298.15	0.0296	0.00044
0.45	308.15	0.02916	0.00043
0.45	318.15	0.02868	0.00043
0.5	298.15	0.02862	0.00043
0.5	308.15	0.02816	0.00042
0.5	318.15	0.02768	0.00041
0.55	298.15	0.02765	0.00041
0.55	308.15	0.02717	0.00041
0.55	318.15	0.02668	0.0004
0.6	298.15	0.0267	0.0004
0.6	308.15	0.0262	0.00039
0.6	318.15	0.0257	0.00039
0.65	298.15	0.0258	0.00039
0.65	308.15	0.0253	0.00038
0.65	318.15	0.02483	0.00038
0.7	298.15	0.02498	0.00038
0.7	308.15	0.02448	0.00037
0.7	318.15	0.024	0.00036
0.75	298.15	0.0242	0.00037
0.75	308.15	0.02368	0.00036
0.75	318.15	0.0232	0.00035
0.8	298.15	0.02345	0.00036
0.8	308.15	0.0229	0.00035
0.8	318.15	0.02245	0.00035
0.85	298.15	0.02275	0.00035
0.85	308.15	0.0222	0.00034
0.85	318.15	0.0217	0.00034
0.9	298.15	0.0221	0.00034
0.9	308.15	0.0215	0.00033
0.9	318.15	0.02097	0.00033
0.95	298.15	0.0215	0.00033
0.95	308.15	0.0208	0.00032
0.95	318.15	0.02018	0.00032
1	298.15	0.02085	0.00032
1	308.15	0.02005	0.00031
1	318.15	0.01935	0.00031

System: 2-phenylethanol + propan-2-ol; phases: Liquid
Fixed: Pressure, kPa = 100.8
Property: Viscosity, Pa*s (Liquid); method: CAPTUB:UFactor:2
Mole fraction of propan-2-ol	Temperature, K	Viscosity, Pa*s	uncertainty
0	298.15	0.011405	0.000144
0	308.15	0.007518	9.8e-05
0	318.15	0.005232	7.1e-05
0.05	298.15	0.010665	0.000134
0.05	308.15	0.00705	9.2e-05
0.05	318.15	0.004953	6.8e-05
0.1	298.15	0.009933	0.000126
0.1	308.15	0.006594	8.7e-05
0.1	318.15	0.004645	6.4e-05
0.15	298.15	0.009256	0.000117
0.15	308.15	0.006148	8.1e-05
0.15	318.15	0.004366	5.9e-05
0.2	298.15	0.008618	0.000109
0.2	308.15	0.005726	7.6e-05
0.2	318.15	0.004103	5.6e-05
0.25	298.15	0.008	0.000102
0.25	308.15	0.005341	7.1e-05
0.25	318.15	0.00385	5.2e-05
0.3	298.15	0.007407	9.5e-05
0.3	308.15	0.004969	6.7e-05
0.3	318.15	0.0036	4.9e-05
0.35	298.15	0.006858	8.8e-05
0.35	308.15	0.004621	6.2e-05
0.35	318.15	0.003362	4.6e-05
0.4	298.15	0.00635	8.2e-05
0.4	308.15	0.004286	5.8e-05
0.4	318.15	0.003132	4.2e-05
0.45	298.15	0.005862	7.6e-05
0.45	308.15	0.003964	5.3e-05
0.45	318.15	0.002912	4e-05
0.5	298.15	0.005412	7.1e-05
0.5	308.15	0.00367	4.9e-05
0.5	318.15	0.002713	3.7e-05
0.55	298.15	0.004978	6.6e-05
0.55	308.15	0.003389	4.6e-05
0.55	318.15	0.002524	3.4e-05
0.6	298.15	0.004571	6.1e-05
0.6	308.15	0.003124	4.2e-05
0.6	318.15	0.002342	3.2e-05
0.65	298.15	0.004173	5.5e-05
0.65	308.15	0.002876	3.9e-05
0.65	318.15	0.002162	2.9e-05
0.7	298.15	0.003793	5e-05
0.7	308.15	0.002634	3.5e-05
0.7	318.15	0.001989	2.7e-05
0.75	298.15	0.003438	4.6e-05
0.75	308.15	0.002407	3.2e-05
0.75	318.15	0.001823	2.5e-05
0.8	298.15	0.003101	4.1e-05
0.8	308.15	0.002201	3e-05
0.8	318.15	0.001665	2.3e-05
0.85	298.15	0.002808	3.7e-05
0.85	308.15	0.002009	2.7e-05
0.85	318.15	0.001526	2.1e-05
0.9	298.15	0.002541	3.4e-05
0.9	308.15	0.001859	2.5e-05
0.9	318.15	0.001415	1.9e-05
0.95	298.15	0.002281	3.1e-05
0.95	308.15	0.001693	2.3e-05
0.95	318.15	0.001298	1.8e-05
1	298.15	0.002082	2.8e-05
1	308.15	0.00155	2.1e-05
1	318.15	0.001181	1.6e-05

System: 2-phenylethanol + propan-2-ol; phases: Liquid
Fixed: Pressure, kPa = 100.8
Property: Refractive index (Na D-line) (Liquid); method: Standard Abbe refractometry
Mole fraction of propan-2-ol	Temperature, K	Refractive index (Na D-line)	uncertainty
0	298.15	1.53269	0.00037
0	308.15	1.52852	0.00037
0	318.15	1.52427	0.00037
0.05	298.15	1.52795	0.00037
0.05	308.15	1.52391	0.00037
0.05	318.15	1.51972	0.00037
0.1	298.15	1.523	0.00036
0.1	308.15	1.51896	0.00036
0.1	318.15	1.51478	0.00036
0.15	298.15	1.5178	0.00036
0.15	308.15	1.51375	0.00036
0.15	318.15	1.50956	0.00036
0.2	298.15	1.51235	0.00036
0.2	308.15	1.50826	0.00036
0.2	318.15	1.50405	0.00036
0.25	298.15	1.50661	0.00036
0.25	308.15	1.50253	0.00036
0.25	318.15	1.49832	0.00036
0.3	298.15	1.50063	0.00036
0.3	308.15	1.49652	0.00036
0.3	318.15	1.49228	0.00036
0.35	298.15	1.49437	0.00035
0.35	308.15	1.49025	0.00035
0.35	318.15	1.48598	0.00035
0.4	298.15	1.4878	0.00035
0.4	308.15	1.48365	0.00035
0.4	318.15	1.47938	0.00035
0.45	298.15	1.48091	0.00035
0.45	308.15	1.47673	0.00035
0.45	318.15	1.47245	0.00035
0.5	298.15	1.47367	0.00035
0.5	308.15	1.4695	0.00035
0.5	318.15	1.46522	0.00035
0.55	298.15	1.46611	0.00035
0.55	308.15	1.46193	0.00035
0.55	318.15	1.45763	0.00035
0.6	298.15	1.45816	0.00035
0.6	308.15	1.45395	0.00035
0.6	318.15	1.44964	0.00035
0.65	298.15	1.44975	0.00034
0.65	308.15	1.44553	0.00034
0.65	318.15	1.4412	0.00034
0.7	298.15	1.44087	0.00034
0.7	308.15	1.43664	0.00034
0.7	318.15	1.4323	0.00034
0.75	298.15	1.43149	0.00034
0.75	308.15	1.42725	0.00034
0.75	318.15	1.4229	0.00034
0.8	298.15	1.42156	0.00033
0.8	308.15	1.41733	0.00033
0.8	318.15	1.41297	0.00034
0.85	298.15	1.411	0.00033
0.85	308.15	1.40678	0.00033
0.85	318.15	1.40239	0.00033
0.9	298.15	1.39973	0.00033
0.9	308.15	1.39547	0.00033
0.9	318.15	1.39112	0.00033
0.95	298.15	1.38776	0.00033
0.95	308.15	1.38342	0.00033
0.95	318.15	1.37903	0.00033
1	298.15	1.37507	0.00033
1	308.15	1.37063	0.00033
1	318.15	1.3661	0.00033

System: 2-phenylethanol + propan-2-ol; phases: Liquid
Fixed: Pressure, kPa = 100.8
Property: Mass density, kg/m3 (Liquid); method: VIBTUB:UFactor:5
Mole fraction of propan-2-ol	Temperature, K	Mass density, kg/m3	uncertainty
0	298.15	1016.2	0.39
0	308.15	1008.63	0.37
0	318.15	1000.98	0.36
0.05	298.15	1009.41	0.36
0.05	308.15	1002.31	0.35
0.05	318.15	994.22	0.35
0.1	298.15	1002.07	0.34
0.1	308.15	994.92	0.34
0.1	318.15	986.78	0.35
0.15	298.15	994.41	0.33
0.15	308.15	986.76	0.35
0.15	318.15	978.99	0.36
0.2	298.15	986.36	0.34
0.2	308.15	978.65	0.35
0.2	318.15	970.82	0.37
0.25	298.15	977.95	0.35
0.25	308.15	970.19	0.36
0.25	318.15	962.28	0.37
0.3	298.15	969.14	0.35
0.3	308.15	961.31	0.37
0.3	318.15	953.36	0.38
0.35	298.15	959.91	0.36
0.35	308.15	952.04	0.38
0.35	318.15	943.99	0.39
0.4	298.15	950.21	0.37
0.4	308.15	942.3	0.39
0.4	318.15	934.2	0.4
0.45	298.15	940.02	0.39
0.45	308.15	932.05	0.4
0.45	318.15	923.92	0.42
0.5	298.15	929.31	0.4
0.5	308.15	921.29	0.42
0.5	318.15	913.06	0.44
0.55	298.15	918.04	0.42
0.55	308.15	909.98	0.43
0.55	318.15	901.7	0.45
0.6	298.15	906.21	0.43
0.6	308.15	898.08	0.44
0.6	318.15	889.7	0.46
0.65	298.15	893.62	0.44
0.65	308.15	885.47	0.46
0.65	318.15	877.03	0.48
0.7	298.15	880.35	0.46
0.7	308.15	872.12	0.48
0.7	318.15	863.6	0.49
0.75	298.15	866.25	0.48
0.75	308.15	857.98	0.49
0.75	318.15	849.39	0.51
0.8	298.15	851.34	0.5
0.8	308.15	842.99	0.52
0.8	318.15	834.3	0.53
0.85	298.15	835.47	0.52
0.85	308.15	827.04	0.54
0.85	318.15	818.29	0.56
0.9	298.15	818.57	0.55
0.9	308.15	810.09	0.57
0.9	318.15	801.28	0.58
0.95	298.15	800.54	0.58
0.95	308.15	792	0.6
0.95	318.15	783.08	0.61
1	298.15	781.17	0.61
1	308.15	772.53	0.63
1	318.15	763.52	0.65

System: 2-phenylethanol + benzenemethanol; phases: Liquid, Air at 1 atmosphere
Property: Surface tension liquid-gas, N/m (Liquid); method: Ring tensiometer
Mole fraction of benzenemethanol	Temperature, K	Surface tension liquid-gas, N/m	uncertainty
0	298.15	0.03943	0.00058
0	308.15	0.03893	0.00057
0	318.15	0.03835	0.00056
0.1	298.15	0.0392	0.00057
0.1	308.15	0.0387	0.00057
0.1	318.15	0.03811	0.00056
0.2	298.15	0.039	0.00057
0.2	308.15	0.03848	0.00056
0.2	318.15	0.03786	0.00055
0.3	298.15	0.03883	0.00056
0.3	308.15	0.03828	0.00055
0.3	318.15	0.03763	0.00055
0.4	298.15	0.0387	0.00056
0.4	308.15	0.0381	0.00055
0.4	318.15	0.03741	0.00054
0.5	298.15	0.0386	0.00055
0.5	308.15	0.03795	0.00054
0.5	318.15	0.03721	0.00053
0.6	298.15	0.0386	0.00055
0.6	308.15	0.0379	0.00054
0.6	318.15	0.03712	0.00053
0.7	298.15	0.0386	0.00055
0.7	308.15	0.03785	0.00054
0.7	318.15	0.03702	0.00053
0.8	298.15	0.0386	0.00055
0.8	308.15	0.0378	0.00054
0.8	318.15	0.03692	0.00052
0.9	298.15	0.0386	0.00054
0.9	308.15	0.03776	0.00053
0.9	318.15	0.03684	0.00052
1	298.15	0.03863	0.00054
1	308.15	0.03773	0.00053
1	318.15	0.03675	0.00052

System: 2-phenylethanol + benzenemethanol; phases: Liquid
Fixed: Pressure, kPa = 100.8
Property: Viscosity, Pa*s (Liquid); method: CAPTUB:UFactor:2
Mole fraction of benzenemethanol	Temperature, K	Viscosity, Pa*s	uncertainty
0	298.15	0.011405	0.000144
0	308.15	0.007518	9.8e-05
0	318.15	0.005232	7.1e-05
0.05	298.15	0.011068	0.000139
0.05	308.15	0.007322	9.5e-05
0.05	318.15	0.005116	7e-05
0.1	298.15	0.010734	0.000135
0.1	308.15	0.007132	9.3e-05
0.1	318.15	0.005	6.8e-05
0.15	298.15	0.010406	0.00013
0.15	308.15	0.00694	9e-05
0.15	318.15	0.004883	6.6e-05
0.2	298.15	0.010082	0.000126
0.2	308.15	0.006752	8.8e-05
0.2	318.15	0.00477	6.5e-05
0.25	298.15	0.009759	0.000122
0.25	308.15	0.006564	8.5e-05
0.25	318.15	0.004655	6.3e-05
0.3	298.15	0.00944	0.000118
0.3	308.15	0.006372	8.3e-05
0.3	318.15	0.004542	6.1e-05
0.35	298.15	0.009125	0.000114
0.35	308.15	0.006186	8e-05
0.35	318.15	0.00443	6e-05
0.4	298.15	0.008816	0.00011
0.4	308.15	0.005999	7.8e-05
0.4	318.15	0.00432	5.8e-05
0.45	298.15	0.008506	0.000106
0.45	308.15	0.005815	7.6e-05
0.45	318.15	0.00421	5.6e-05
0.5	298.15	0.008203	0.000102
0.5	308.15	0.005636	7.4e-05
0.5	318.15	0.004101	5.5e-05
0.55	298.15	0.007913	9.9e-05
0.55	308.15	0.005467	7.1e-05
0.55	318.15	0.003997	5.3e-05
0.6	298.15	0.007628	9.6e-05
0.6	308.15	0.005302	6.9e-05
0.6	318.15	0.003897	5.2e-05
0.65	298.15	0.007351	9.2e-05
0.65	308.15	0.00514	6.7e-05
0.65	318.15	0.003797	5.1e-05
0.7	298.15	0.007081	8.9e-05
0.7	308.15	0.004979	6.6e-05
0.7	318.15	0.003697	4.9e-05
0.75	298.15	0.006813	8.6e-05
0.75	308.15	0.004821	6.3e-05
0.75	318.15	0.003599	4.8e-05
0.8	298.15	0.006554	8.3e-05
0.8	308.15	0.004666	6.1e-05
0.8	318.15	0.0035	4.6e-05
0.85	298.15	0.006296	7.9e-05
0.85	308.15	0.004519	5.9e-05
0.85	318.15	0.003402	4.5e-05
0.9	298.15	0.006036	7.6e-05
0.9	308.15	0.004374	5.7e-05
0.9	318.15	0.003306	4.4e-05
0.95	298.15	0.005787	7.4e-05
0.95	308.15	0.004232	5.5e-05
0.95	318.15	0.003213	4.2e-05
1	298.15	0.005555	7.1e-05
1	308.15	0.004093	5.4e-05
1	318.15	0.00312	4.1e-05

System: 2-phenylethanol + benzenemethanol; phases: Liquid
Fixed: Pressure, kPa = 100.8
Property: Refractive index (Na D-line) (Liquid); method: Standard Abbe refractometry
Mole fraction of benzenemethanol	Temperature, K	Refractive index (Na D-line)	uncertainty
0	298.15	1.53269	0.00037
0	308.15	1.52852	0.00037
0	318.15	1.52427	0.00037
0.05	298.15	1.53322	0.00037
0.05	308.15	1.52911	0.00037
0.05	318.15	1.52495	0.00037
0.1	298.15	1.53367	0.00036
0.1	308.15	1.52961	0.00036
0.1	318.15	1.52549	0.00036
0.15	298.15	1.5341	0.00036
0.15	308.15	1.53006	0.00036
0.15	318.15	1.52594	0.00036
0.2	298.15	1.53454	0.00036
0.2	308.15	1.5305	0.00036
0.2	318.15	1.52636	0.00036
0.25	298.15	1.53495	0.00036
0.25	308.15	1.53089	0.00036
0.25	318.15	1.52674	0.00036
0.3	298.15	1.53532	0.00035
0.3	308.15	1.53125	0.00035
0.3	318.15	1.5271	0.00035
0.35	298.15	1.53568	0.00035
0.35	308.15	1.53159	0.00035
0.35	318.15	1.52745	0.00035
0.4	298.15	1.53601	0.00035
0.4	308.15	1.53193	0.00035
0.4	318.15	1.52777	0.00035
0.45	298.15	1.53633	0.00035
0.45	308.15	1.53225	0.00035
0.45	318.15	1.52809	0.00035
0.5	298.15	1.53663	0.00034
0.5	308.15	1.53255	0.00034
0.5	318.15	1.52839	0.00034
0.55	298.15	1.53689	0.00034
0.55	308.15	1.53281	0.00034
0.55	318.15	1.52864	0.00034
0.6	298.15	1.53712	0.00034
0.6	308.15	1.53304	0.00034
0.6	318.15	1.52888	0.00034
0.65	298.15	1.53733	0.00034
0.65	308.15	1.53325	0.00034
0.65	318.15	1.5291	0.00034
0.7	298.15	1.53752	0.00034
0.7	308.15	1.53344	0.00034
0.7	318.15	1.52929	0.00034
0.75	298.15	1.53772	0.00033
0.75	308.15	1.53362	0.00033
0.75	318.15	1.52947	0.00033
0.8	298.15	1.53789	0.00033
0.8	308.15	1.53377	0.00033
0.8	318.15	1.52961	0.00033
0.85	298.15	1.53804	0.00033
0.85	308.15	1.53391	0.00033
0.85	318.15	1.52973	0.00033
0.9	298.15	1.53819	0.00033
0.9	308.15	1.53403	0.00033
0.9	318.15	1.52984	0.00033
0.95	298.15	1.53833	0.00033
0.95	308.15	1.53414	0.00033
0.95	318.15	1.52993	0.00033
1	298.15	1.53843	0.00033
1	308.15	1.53421	0.00033
1	318.15	1.52994	0.00033

System: 2-phenylethanol + benzenemethanol; phases: Liquid
Fixed: Pressure, kPa = 100.8
Property: Mass density, kg/m3 (Liquid); method: VIBTUB:UFactor:5
Mole fraction of benzenemethanol	Temperature, K	Mass density, kg/m3	uncertainty
0	298.15	1016.2	0.39
0	308.15	1008.63	0.37
0	318.15	1000.98	0.36
0.05	298.15	1018.11	0.39
0.05	308.15	1010.83	0.37
0.05	318.15	1003.42	0.35
0.1	298.15	1020.14	0.38
0.1	308.15	1013.11	0.36
0.1	318.15	1005.98	0.35
0.15	298.15	1022.33	0.38
0.15	308.15	1015.32	0.36
0.15	318.15	1008.23	0.34
0.2	298.15	1024.45	0.37
0.2	308.15	1017.42	0.35
0.2	318.15	1010.36	0.34
0.25	298.15	1026.56	0.37
0.25	308.15	1019.52	0.35
0.25	318.15	1012.41	0.33
0.3	298.15	1028.52	0.36
0.3	308.15	1021.44	0.35
0.3	318.15	1014.25	0.33
0.35	298.15	1030.34	0.36
0.35	308.15	1023.25	0.34
0.35	318.15	1015.99	0.33
0.4	298.15	1032.11	0.35
0.4	308.15	1024.95	0.34
0.4	318.15	1017.65	0.32
0.45	298.15	1033.8	0.35
0.45	308.15	1026.61	0.33
0.45	318.15	1019.28	0.32
0.5	298.15	1035.25	0.34
0.5	308.15	1028.06	0.33
0.5	318.15	1020.74	0.31
0.55	298.15	1036.33	0.34
0.55	308.15	1029.16	0.32
0.55	318.15	1021.87	0.31
0.6	298.15	1037.32	0.33
0.6	308.15	1030.12	0.32
0.6	318.15	1022.84	0.3
0.65	298.15	1038.01	0.33
0.65	308.15	1030.89	0.31
0.65	318.15	1023.63	0.3
0.7	298.15	1038.62	0.32
0.7	308.15	1031.56	0.31
0.7	318.15	1024.26	0.29
0.75	298.15	1039.06	0.31
0.75	308.15	1031.9	0.3
0.75	318.15	1024.63	0.28
0.8	298.15	1039.43	0.31
0.8	308.15	1032.23	0.29
0.8	318.15	1024.86	0.28
0.85	298.15	1039.72	0.3
0.85	308.15	1032.44	0.29
0.85	318.15	1024.99	0.27
0.9	298.15	1040	0.3
0.9	308.15	1032.65	0.28
0.9	318.15	1025.18	0.27
0.95	298.15	1040.59	0.29
0.95	308.15	1033.06	0.28
0.95	318.15	1025.43	0.26
1	298.15	1041.4	0.29
1	308.15	1033.6	0.27
1	318.15	1025.72	0.26
