Measured thermophysical data. Measurement and Prediction of Oxygen Solubility in Toluene at Temperatures from 298.45 K to 393.15 K and Pressures up to 1.0 MPa
Source: J. Chem. Eng. Data, 2007, 10.1021/je700330c
Compound 1: toluene, C7H8, InChI=1S/C7H8/c1-7-5-3-2-4-6-7/h2-6H,1H3
Compound 2: oxygen, O2, InChI=1S/O2/c1-2

System: toluene + oxygen; phases: Liquid, Gas
Property: Mole fraction of oxygen (Liquid); method: Pressure change on phase equilibrium
Temperature, K	Pressure, kPa	Mole fraction of oxygen	uncertainty
283.45	250	0.00197	2e-05
283.45	320	0.00254	2e-05
283.45	357	0.00278	2e-05
283.45	457	0.00353	3e-05
283.45	524	0.00392	3e-05
283.45	630	0.00457	4e-05
283.45	691	0.00525	4e-05
283.45	769	0.00586	5e-05
283.45	941	0.00689	6e-05
313.15	379	0.00358	3e-05
313.15	455	0.00419	3e-05
313.15	514	0.0046	4e-05
313.15	601	0.00528	4e-05
313.15	621	0.00539	4e-05
313.15	738	0.0068	5e-05
313.15	821	0.00751	6e-05
313.15	848	0.00764	6e-05
313.15	852	0.00771	6e-05
333.15	358	0.0038	3e-05
333.15	410	0.00429	3e-05
333.15	488	0.00492	4e-05
333.15	529	0.00542	4e-05
333.15	603	0.00606	5e-05
333.15	669	0.00676	5e-05
333.15	795	0.0079	6e-05
333.15	847	0.00866	7e-05
333.15	908	0.00901	7e-05
353.15	296	0.00358	3e-05
353.15	357	0.00421	3e-05
353.15	448	0.00509	4e-05
353.15	478	0.00548	4e-05
353.15	558	0.0063	5e-05
353.15	578	0.00675	5e-05
353.15	678	0.00727	6e-05
353.15	829	0.00875	7e-05
373.15	181	0.00303	2e-05
373.15	290	0.00375	3e-05
373.15	331	0.00456	4e-05
373.15	379	0.00503	4e-05
373.15	463	0.00593	5e-05
373.15	533	0.00671	5e-05
373.15	670	0.00819	7e-05
373.15	857	0.0105	8e-05
393.15	221	0.00321	3e-05
393.15	309	0.00359	3e-05
393.15	407	0.00541	4e-05
393.15	512	0.00655	5e-05
393.15	601	0.00793	6e-05
393.15	641	0.00846	7e-05
393.15	783	0.0101	8e-05
393.15	823	0.0103	8e-05
