Measured thermophysical data. P-rho-T Measurements of Imidazolium-Based Ionic Liquids
Source: J. Chem. Eng. Data, 2007, 10.1021/je700205n
Compound 1: 1-octyl-3-methylimidazolium bis[(trifluoromethyl)sulfonyl]imide, C14H23F6N3O4S2, InChI=1S/C12H23N2.C2F6NO4S2/c1-3-4-5-6-7-8-9-14-11-10-13(2)12-14;3-1(4,5)14(10,11)9-15(12,13)2(6,7)8/h10-12H,3-9H2,1-2H3;/q+1;-1
Compound 2: 1-ethyl-3-methylimidazolium tetrafluoroborate, C6H11BF4N2, InChI=1S/C6H11N2.BF4/c1-3-8-5-4-7(2)6-8;2-1(3,4)5/h4-6H,3H2,1-2H3;/q+1;-1, purity 99%
Compound 3: 1-butyl-3-methylimidazolium tricyanomethane, C12H15N5, InChI=1S/C8H15N2.C4N3/c1-3-4-5-10-7-6-9(2)8-10;5-1-4(2-6)3-7/h6-8H,3-5H2,1-2H3;/q+1;-1, purity 99%
Compound 4: 1-ethyl-3-methylimidazolium bis((trifluoromethyl)sulfonyl)imide, C8H11F6N3O4S2, InChI=1S/C6H11N2.C2F6NO4S2/c1-3-8-5-4-7(2)6-8;3-1(4,5)14(10,11)9-15(12,13)2(6,7)8/h4-6H,3H2,1-2H3;/q+1;-1
Compound 5: 1-heptyl-3-methylimidazolium bis(trifluoromethylsulfonyl)amide, C13H21F6N3O4S2, InChI=1S/C11H21N2.C2F6NO4S2/c1-3-4-5-6-7-8-13-10-9-12(2)11-13;3-1(4,5)14(10,11)9-15(12,13)2(6,7)8/h9-11H,3-8H2,1-2H3;/q+1;-1

System: 1-octyl-3-methylimidazolium bis[(trifluoromethyl)sulfonyl]imide; phases: Liquid
Property: Mass density, kg/m3 (Liquid); method: VIBTUB:UFactor:8
Temperature, K	Pressure, kPa	Mass density, kg/m3	uncertainty
293.15	100	1328	3
293.15	1000	1328	3
293.15	2000	1329	3
293.15	3000	1330	3
293.15	4000	1330	4
293.15	5000	1331	4
293.15	7500	1333	4
293.15	10000	1334	4
293.15	15000	1338	4
293.15	20000	1341	5
293.15	25000	1345	5
293.15	30000	1348	6
303.15	100	1315	3
303.15	1000	1316	3
303.15	2000	1317	3
303.15	3000	1317	3
303.15	4000	1318	3
303.15	5000	1319	4
303.15	7500	1321	4
303.15	10000	1322	4
303.15	15000	1326	4
303.15	20000	1329	5
303.15	25000	1333	5
303.15	30000	1337	6
313.15	100	1305	3
313.15	1000	1306	3
313.15	2000	1307	3
313.15	3000	1307	3
313.15	4000	1308	3
313.15	5000	1309	3
313.15	7500	1311	4
313.15	10000	1312	4
313.15	15000	1316	4
313.15	20000	1320	5
313.15	25000	1324	5
313.15	30000	1327	6
323.15	100	1296	3
323.15	1000	1296	3
323.15	2000	1297	3
323.15	3000	1298	3
323.15	4000	1299	3
323.15	5000	1299	3
323.15	7500	1301	4
323.15	10000	1303	4
323.15	15000	1307	4
323.15	20000	1311	5
323.15	25000	1315	5
323.15	30000	1319	6
333.15	100	1286	3
333.15	1000	1287	3
333.15	2000	1288	3
333.15	3000	1289	3
333.15	4000	1289	3
333.15	5000	1290	3
333.15	7500	1292	4
333.15	10000	1294	4
333.15	15000	1298	4
333.15	20000	1302	5
333.15	25000	1306	5
333.15	30000	1310	6
343.15	100	1278	3
343.15	1000	1278	3
343.15	2000	1279	3
343.15	3000	1280	3
343.15	4000	1281	3
343.15	5000	1282	3
343.15	7500	1284	4
343.15	10000	1286	4
343.15	15000	1290	4
343.15	20000	1294	4
343.15	25000	1298	5
343.15	30000	1303	5
353.15	100	1269	3
353.15	1000	1270	3
353.15	2000	1270	3
353.15	3000	1271	3
353.15	4000	1272	3
353.15	5000	1273	3
353.15	7500	1275	3
353.15	10000	1277	4
353.15	15000	1282	4
353.15	20000	1286	4
353.15	25000	1290	5
353.15	30000	1294	5
393.15	100	1236	3
393.15	1000	1237	3
393.15	2000	1238	3
393.15	3000	1239	3
393.15	4000	1240	3
393.15	5000	1241	3
393.15	7500	1243	3
393.15	10000	1246	3
393.15	15000	1251	4
393.15	20000	1256	4
393.15	25000	1261	4
393.15	30000	1266	5

System: 1-ethyl-3-methylimidazolium tetrafluoroborate; phases: Liquid
Property: Mass density, kg/m3 (Liquid); method: VIBTUB:UFactor:8
Temperature, K	Pressure, kPa	Mass density, kg/m3	uncertainty
293.15	100	1305	3
293.15	1000	1305	3
293.15	2000	1306	3
293.15	3000	1306	3
293.15	4000	1307	3
293.15	5000	1307	3
293.15	7500	1308	3
293.15	10000	1309	3
293.15	15000	1311	3
293.15	20000	1313	4
293.15	25000	1316	4
293.15	30000	1318	5
303.15	100	1296	2
303.15	1000	1296	3
303.15	2000	1297	3
303.15	3000	1297	3
303.15	4000	1298	3
303.15	5000	1298	3
303.15	7500	1299	3
303.15	10000	1300	3
303.15	15000	1303	3
303.15	20000	1305	4
303.15	25000	1307	4
303.15	30000	1309	5
313.15	100	1288	2
313.15	1000	1288	3
313.15	2000	1289	3
313.15	3000	1289	3
313.15	4000	1290	3
313.15	5000	1290	3
313.15	7500	1291	3
313.15	10000	1292	3
313.15	15000	1295	3
313.15	20000	1297	4
313.15	25000	1299	4
313.15	30000	1301	4
323.15	100	1280	2
323.15	1000	1280	2
323.15	2000	1281	3
323.15	3000	1281	3
323.15	4000	1282	3
323.15	5000	1282	3
323.15	7500	1283	3
323.15	10000	1284	3
323.15	15000	1287	3
323.15	20000	1289	4
323.15	25000	1291	4
323.15	30000	1294	4
333.15	100	1272	2
333.15	1000	1272	2
333.15	2000	1273	3
333.15	3000	1273	3
333.15	4000	1274	3
333.15	5000	1274	3
333.15	7500	1275	3
333.15	10000	1277	3
333.15	15000	1279	3
333.15	20000	1281	4
333.15	25000	1284	4
333.15	30000	1286	4
343.15	100	1264	2
343.15	1000	1265	2
343.15	2000	1265	3
343.15	3000	1266	3
343.15	4000	1266	3
343.15	5000	1267	3
343.15	7500	1268	3
343.15	10000	1269	3
343.15	15000	1272	3
343.15	20000	1274	4
343.15	25000	1277	4
343.15	30000	1279	4
353.15	100	1257	2
353.15	1000	1257	2
353.15	2000	1258	2
353.15	3000	1258	3
353.15	4000	1259	3
353.15	5000	1259	3
353.15	7500	1261	3
353.15	10000	1262	3
353.15	15000	1264	3
353.15	20000	1267	3
353.15	25000	1269	4
353.15	30000	1272	4
393.15	100	1229	2
393.15	1000	1230	2
393.15	2000	1230	2
393.15	3000	1231	2
393.15	4000	1231	3
393.15	5000	1232	3
393.15	7500	1233	3
393.15	10000	1235	3
393.15	15000	1238	3
393.15	20000	1240	3
393.15	25000	1243	4
393.15	30000	1246	4

System: 1-butyl-3-methylimidazolium tricyanomethane; phases: Liquid
Property: Mass density, kg/m3 (Liquid); method: VIBTUB:UFactor:8
Temperature, K	Pressure, kPa	Mass density, kg/m3	uncertainty
293.15	100	1051	2
293.15	1000	1052	2
293.15	2000	1052	2
293.15	3000	1053	2
293.15	4000	1053	2
293.15	5000	1053	2
293.15	7500	1054	2
293.15	10000	1055	2
293.15	15000	1058	2
293.15	20000	1060	2
293.15	25000	1062	2
293.15	30000	1064	2
303.15	100	1043	2
303.15	1000	1044	2
303.15	2000	1044	2
303.15	3000	1045	2
303.15	4000	1045	2
303.15	5000	1045	2
303.15	7500	1046	2
303.15	10000	1048	2
303.15	15000	1050	2
303.15	20000	1052	2
303.15	25000	1054	2
303.15	30000	1056	2
313.15	100	1036	2
313.15	1000	1036	2
313.15	2000	1037	2
313.15	3000	1037	2
313.15	4000	1038	2
313.15	5000	1038	2
313.15	7500	1039	2
313.15	10000	1040	2
313.15	15000	1043	2
313.15	20000	1045	2
313.15	25000	1047	2
313.15	30000	1049	2
323.15	100	1029	2
323.15	1000	1029	2
323.15	2000	1030	2
323.15	3000	1030	2
323.15	4000	1031	2
323.15	5000	1031	2
323.15	7500	1032	2
323.15	10000	1033	2
323.15	15000	1036	2
323.15	20000	1038	2
323.15	25000	1040	2
323.15	30000	1043	2
333.15	100	1022	2
333.15	1000	1022	2
333.15	2000	1023	2
333.15	3000	1023	2
333.15	4000	1024	2
333.15	5000	1024	2
333.15	7500	1026	2
333.15	10000	1027	2
333.15	15000	1029	2
333.15	20000	1031	2
333.15	25000	1034	2
333.15	30000	1036	2
343.15	100	1016	2
343.15	1000	1016	2
343.15	2000	1017	2
343.15	3000	1017	2
343.15	4000	1018	2
343.15	5000	1018	2
343.15	7500	1019	2
343.15	10000	1021	2
343.15	15000	1023	2
343.15	20000	1025	2
343.15	25000	1028	2
343.15	30000	1030	2
353.15	100	1009	2
353.15	1000	1010	2
353.15	2000	1010	2
353.15	3000	1011	2
353.15	4000	1011	2
353.15	5000	1012	2
353.15	7500	1013	2
353.15	10000	1014	2
353.15	15000	1017	2
353.15	20000	1019	2
353.15	25000	1022	2
353.15	30000	1024	2
393.15	100	986	2
393.15	1000	987	2
393.15	2000	987	2
393.15	3000	988	2
393.15	4000	989	2
393.15	5000	989	2
393.15	7500	990	2
393.15	10000	992	2
393.15	15000	995	2
393.15	20000	997	2
393.15	25000	1000	2
393.15	30000	1003	2

System: 1-ethyl-3-methylimidazolium bis((trifluoromethyl)sulfonyl)imide; phases: Liquid
Property: Mass density, kg/m3 (Liquid); method: VIBTUB:UFactor:8
Temperature, K	Pressure, kPa	Mass density, kg/m3	uncertainty
293.15	100	1526	4
293.15	1000	1526	4
293.15	2000	1527	4
293.15	3000	1528	4
293.15	4000	1528	5
293.15	5000	1529	5
293.15	7500	1531	5
293.15	10000	1533	5
293.15	15000	1536	6
293.15	20000	1540	7
293.15	25000	1543	8
293.15	30000	1547	9
303.15	100	1514	4
303.15	1000	1515	4
303.15	2000	1516	4
303.15	3000	1517	4
303.15	4000	1517	4
303.15	5000	1518	5
303.15	7500	1520	5
303.15	10000	1522	5
303.15	15000	1525	6
303.15	20000	1529	7
303.15	25000	1532	8
303.15	30000	1536	9
313.15	100	1503	4
313.15	1000	1504	4
313.15	2000	1505	4
313.15	3000	1506	4
313.15	4000	1506	4
313.15	5000	1507	5
313.15	7500	1509	5
313.15	10000	1511	5
313.15	15000	1515	6
313.15	20000	1518	7
313.15	25000	1522	8
313.15	30000	1526	9
323.15	100	1493	4
323.15	1000	1493	4
323.15	2000	1494	4
323.15	3000	1495	4
323.15	4000	1496	4
323.15	5000	1496	4
323.15	7500	1498	5
323.15	10000	1500	5
323.15	15000	1504	6
323.15	20000	1508	7
323.15	25000	1512	8
323.15	30000	1516	9
333.15	100	1482	4
333.15	1000	1483	4
333.15	2000	1483	4
333.15	3000	1484	4
333.15	4000	1485	4
333.15	5000	1486	4
333.15	7500	1488	5
333.15	10000	1490	5
333.15	15000	1494	6
333.15	20000	1498	7
333.15	25000	1502	8
333.15	30000	1506	8
343.15	100	1472	4
343.15	1000	1472	4
343.15	2000	1473	4
343.15	3000	1474	4
343.15	4000	1475	4
343.15	5000	1476	4
343.15	7500	1478	5
343.15	10000	1480	5
343.15	15000	1484	6
343.15	20000	1488	7
343.15	25000	1492	7
343.15	30000	1496	8
353.15	100	1461	4
353.15	1000	1462	4
353.15	2000	1463	4
353.15	3000	1464	4
353.15	4000	1465	4
353.15	5000	1466	4
353.15	7500	1468	5
353.15	10000	1470	5
353.15	15000	1474	6
353.15	20000	1478	6
353.15	25000	1483	7
353.15	30000	1487	8
393.15	100	1424	4
393.15	1000	1424	4
393.15	2000	1425	4
393.15	3000	1426	4
393.15	4000	1427	4
393.15	5000	1428	4
393.15	7500	1431	4
393.15	10000	1433	5
393.15	15000	1438	5
393.15	20000	1443	6
393.15	25000	1448	7
393.15	30000	1453	8

System: 1-heptyl-3-methylimidazolium bis(trifluoromethylsulfonyl)amide; phases: Liquid
Property: Mass density, kg/m3 (Liquid); method: VIBTUB:UFactor:8
Temperature, K	Pressure, kPa	Mass density, kg/m3	uncertainty
293.15	100	1352	3
293.15	1000	1353	3
293.15	2000	1354	3
293.15	3000	1354	4
293.15	4000	1355	4
293.15	5000	1356	4
293.15	7500	1358	4
293.15	10000	1359	4
293.15	15000	1363	5
293.15	20000	1366	5
293.15	25000	1370	6
293.15	30000	1373	6
303.15	100	1342	3
303.15	1000	1343	3
303.15	2000	1343	3
303.15	3000	1344	4
303.15	4000	1345	4
303.15	5000	1346	4
303.15	7500	1347	4
303.15	10000	1349	4
303.15	15000	1353	5
303.15	20000	1357	5
303.15	25000	1360	6
303.15	30000	1364	6
313.15	100	1332	3
313.15	1000	1333	3
313.15	2000	1333	3
313.15	3000	1334	3
313.15	4000	1335	4
313.15	5000	1336	4
313.15	7500	1338	4
313.15	10000	1339	4
313.15	15000	1343	4
313.15	20000	1347	5
313.15	25000	1351	6
313.15	30000	1355	6
323.15	100	1322	3
323.15	1000	1323	3
323.15	2000	1324	3
323.15	3000	1325	3
323.15	4000	1325	3
323.15	5000	1326	4
323.15	7500	1328	4
323.15	10000	1330	4
323.15	15000	1334	4
323.15	20000	1338	5
323.15	25000	1342	5
323.15	30000	1345	6
333.15	100	1313	3
333.15	1000	1314	3
333.15	2000	1315	3
333.15	3000	1316	3
333.15	4000	1317	3
333.15	5000	1317	4
333.15	7500	1319	4
333.15	10000	1321	4
333.15	15000	1325	4
333.15	20000	1329	5
333.15	25000	1333	5
333.15	30000	1337	6
343.15	100	1304	3
343.15	1000	1304	3
343.15	2000	1305	3
343.15	3000	1306	3
343.15	4000	1307	3
343.15	5000	1308	3
343.15	7500	1310	4
343.15	10000	1312	4
343.15	15000	1316	4
343.15	20000	1320	5
343.15	25000	1324	5
343.15	30000	1328	6
353.15	100	1295	3
353.15	1000	1296	3
353.15	2000	1296	3
353.15	3000	1297	3
353.15	4000	1298	3
353.15	5000	1299	3
353.15	7500	1301	4
353.15	10000	1303	4
353.15	15000	1308	4
353.15	20000	1312	5
353.15	25000	1316	5
353.15	30000	1320	6
393.15	100	1261	3
393.15	1000	1262	3
393.15	2000	1263	3
393.15	3000	1264	3
393.15	4000	1265	3
393.15	5000	1266	3
393.15	7500	1268	3
393.15	10000	1271	4
393.15	15000	1276	4
393.15	20000	1281	4
393.15	25000	1285	5
393.15	30000	1290	5
