Measured thermophysical data. Densities and Viscosities of Binary Mixtures of Vitamin K3 with Benzene, Toluene, Ethylbenzene, o-Xylene, m-Xylene, and p-Xylene from (303.15 to 333.15) K
Source: J. Chem. Eng. Data, 2008, 10.1021/je7006549
Compound 1: 2-methyl-1,4-naphthalenedione, C11H8O2, InChI=1S/C11H8O2/c1-7-6-10(12)8-4-2-3-5-9(8)11(7)13/h2-6H,1H3
Compound 2: benzene, C6H6, InChI=1S/C6H6/c1-2-4-6-5-3-1/h1-6H
Compound 3: toluene, C7H8, InChI=1S/C7H8/c1-7-5-3-2-4-6-7/h2-6H,1H3
Compound 4: ethylbenzene, C8H10, InChI=1S/C8H10/c1-2-8-6-4-3-5-7-8/h3-7H,2H2,1H3
Compound 5: 1,2-dimethylbenzene, C8H10, InChI=1S/C8H10/c1-7-5-3-4-6-8(7)2/h3-6H,1-2H3
Compound 6: 1,4-dimethylbenzene, C8H10, InChI=1S/C8H10/c1-7-3-5-8(2)6-4-7/h3-6H,1-2H3
Compound 7: 1,3-dimethylbenzene, C8H10, InChI=1S/C8H10/c1-7-4-3-5-8(2)6-7/h3-6H,1-2H3

System: benzene; phases: Liquid
Fixed: Pressure, kPa = 101
Property: Viscosity, Pa*s (Liquid); method: CAPTUB::UFactor:2
Temperature, K	Viscosity, Pa*s	uncertainty
303.15	0.000564	9.3e-06
308.15	0.0005232	9e-06
313.15	0.0005001	8.8e-06
318.15	0.0004714	8.6e-06
323.15	0.0004397	8.4e-06
328.15	0.0004145	8.2e-06
333.15	0.0003932	8.1e-06

System: benzene; phases: Liquid
Fixed: Pressure, kPa = 101
Property: Mass density, kg/m3 (Liquid); method: PYCNOM:UFactor:3
Temperature, K	Mass density, kg/m3	uncertainty
303.15	868	0.7
308.15	862.2	0.8
313.15	857	0.8
318.15	851.6	0.8
323.15	846.3	0.8
328.15	840.7	0.9
333.15	835.4	0.9

System: toluene; phases: Liquid
Fixed: Pressure, kPa = 101
Property: Viscosity, Pa*s (Liquid); method: CAPTUB::UFactor:2
Temperature, K	Viscosity, Pa*s	uncertainty
303.15	0.0005253	9e-06
308.15	0.0004933	8.8e-06
313.15	0.0004717	8.6e-06
318.15	0.0004491	8.5e-06
323.15	0.0004244	8.3e-06
328.15	0.0004082	8.2e-06
333.15	0.0003835	8e-06

System: toluene; phases: Liquid
Fixed: Pressure, kPa = 101
Property: Mass density, kg/m3 (Liquid); method: PYCNOM::UFactor:3
Temperature, K	Mass density, kg/m3	uncertainty
303.15	857.5	0.7
308.15	852.9	0.8
313.15	847.9	0.8
318.15	843.5	0.8
323.15	838.7	0.8
328.15	834	0.9
333.15	829.1	0.9

System: ethylbenzene; phases: Liquid
Fixed: Pressure, kPa = 101
Property: Viscosity, Pa*s (Liquid); method: CAPTUB::UFactor:2
Temperature, K	Viscosity, Pa*s	uncertainty
303.15	0.0005986	9.5e-06
308.15	0.0005691	9.3e-06
313.15	0.0005372	9e-06
318.15	0.000506	8.8e-06
323.15	0.0004805	8.6e-06
328.15	0.0004566	8.5e-06
333.15	0.0004371	8.3e-06

System: ethylbenzene; phases: Liquid
Fixed: Pressure, kPa = 101
Property: Mass density, kg/m3 (Liquid); method: PYCNOM::UFactor:3
Temperature, K	Mass density, kg/m3	uncertainty
303.15	858	0.7
308.15	853.5	0.7
313.15	849.5	0.8
318.15	844.7	0.8
323.15	840.5	0.8
328.15	835.9	0.8
333.15	831.6	0.9

System: 1,2-dimethylbenzene; phases: Liquid
Fixed: Pressure, kPa = 101
Property: Viscosity, Pa*s (Liquid); method: CAPTUB::UFactor:2
Temperature, K	Viscosity, Pa*s	uncertainty
303.15	0.0007404	1.06e-05
308.15	0.00069	1.02e-05
313.15	0.0006451	9.9e-06
318.15	0.0006117	9.6e-06
323.15	0.0005711	9.3e-06
328.15	0.0005433	9.1e-06
333.15	0.0005105	8.8e-06

System: 1,2-dimethylbenzene; phases: Liquid
Fixed: Pressure, kPa = 101
Property: Mass density, kg/m3 (Liquid); method: PYCNOM::UFactor:3
Temperature, K	Mass density, kg/m3	uncertainty
303.15	872.1	0.7
308.15	867.7	0.8
313.15	864	0.8
318.15	859.7	0.8
323.15	855.5	0.8
328.15	851.2	0.8
333.15	847.1	0.9

System: 1,4-dimethylbenzene; phases: Liquid
Fixed: Pressure, kPa = 101
Property: Viscosity, Pa*s (Liquid); method: CAPTUB::UFactor:2
Temperature, K	Viscosity, Pa*s	uncertainty
303.15	0.0005726	9.3e-06
308.15	0.0005374	9e-06
313.15	0.0005178	8.9e-06
318.15	0.0004882	8.7e-06
323.15	0.0004595	8.5e-06
328.15	0.0004439	8.4e-06
333.15	0.0004189	8.2e-06

System: 1,4-dimethylbenzene; phases: Liquid
Fixed: Pressure, kPa = 101
Property: Mass density, kg/m3 (Liquid); method: PYCNOM::UFactor:3
Temperature, K	Mass density, kg/m3	uncertainty
303.15	852	0.7
308.15	847.7	0.7
313.15	843.2	0.8
318.15	838.7	0.8
323.15	834.5	0.8
328.15	829.9	0.8
333.15	825.6	0.9

System: 1,3-dimethylbenzene; phases: Liquid
Fixed: Pressure, kPa = 101
Property: Viscosity, Pa*s (Liquid); method: CAPTUB::UFactor:2
Temperature, K	Viscosity, Pa*s	uncertainty
303.15	0.000549	9.2e-06
308.15	0.0005201	9e-06
313.15	0.0004967	8.8e-06
318.15	0.0004817	8.7e-06
323.15	0.000444	8.5e-06
328.15	0.000435	8.4e-06
333.15	0.000413	8.2e-06

System: 1,3-dimethylbenzene; phases: Liquid
Fixed: Pressure, kPa = 101
Property: Mass density, kg/m3 (Liquid); method: PYCNOM::UFactor:3
Temperature, K	Mass density, kg/m3	uncertainty
303.15	855.6	0.7
308.15	851.1	0.8
313.15	846.9	0.8
318.15	842.4	0.8
323.15	838.3	0.8
328.15	833.7	0.9
333.15	829.6	0.9

System: 2-methyl-1,4-naphthalenedione + benzene; phases: Liquid
Fixed: Pressure, kPa = 101
Property: Viscosity, Pa*s (Liquid); method: CAPTUB:UFactor:2
Temperature, K	Molality, mol/kg of 2-methyl-1,4-naphthalenedione	Viscosity, Pa*s	uncertainty
303.15	0	0.000564	9.3e-06
303.15	0.0334	0.0005788	9.4e-06
303.15	0.0889	0.0005842	9.5e-06
303.15	0.1332	0.000588	9.5e-06
303.15	0.1778	0.0005927	9.5e-06
303.15	0.2215	0.0006006	9.6e-06
303.15	0.2681	0.0006063	9.6e-06
308.15	0	0.0005232	9e-06
308.15	0.0334	0.0005408	9.1e-06
308.15	0.0889	0.0005443	9.2e-06
308.15	0.1332	0.0005484	9.2e-06
308.15	0.1778	0.0005519	9.2e-06
308.15	0.2215	0.0005598	9.3e-06
308.15	0.2681	0.0005667	9.3e-06
313.15	0	0.0005001	8.8e-06
313.15	0.0334	0.0005057	8.9e-06
313.15	0.0889	0.0005096	8.9e-06
313.15	0.1332	0.0005142	8.9e-06
313.15	0.1778	0.0005189	9e-06
313.15	0.2215	0.0005242	9e-06
313.15	0.2681	0.0005309	9.1e-06
318.15	0	0.0004714	8.6e-06
318.15	0.0334	0.0004782	8.7e-06
318.15	0.0889	0.0004811	8.7e-06
318.15	0.1332	0.0004847	8.7e-06
318.15	0.1778	0.0004893	8.7e-06
318.15	0.2215	0.0004945	8.8e-06
318.15	0.2681	0.0005	8.8e-06
323.15	0	0.0004397	8.4e-06
323.15	0.0334	0.0004467	8.4e-06
323.15	0.0889	0.0004489	8.5e-06
323.15	0.1332	0.0004528	8.5e-06
323.15	0.1778	0.0004566	8.5e-06
323.15	0.2215	0.000461	8.5e-06
323.15	0.2681	0.0004647	8.6e-06
328.15	0	0.0004145	8.2e-06
328.15	0.0334	0.0004206	8.3e-06
328.15	0.0889	0.0004235	8.3e-06
328.15	0.1332	0.0004266	8.3e-06
328.15	0.1778	0.0004318	8.3e-06
328.15	0.2215	0.0004347	8.4e-06
328.15	0.2681	0.0004388	8.4e-06
333.15	0	0.0003932	8.1e-06
333.15	0.0334	0.0003946	8.1e-06
333.15	0.0889	0.0003967	8.1e-06
333.15	0.1332	0.0004003	8.1e-06
333.15	0.1778	0.0004069	8.2e-06
333.15	0.2215	0.0004084	8.2e-06
333.15	0.2681	0.0004121	8.2e-06

System: 2-methyl-1,4-naphthalenedione + benzene; phases: Liquid
Fixed: Pressure, kPa = 101
Property: Mass density, kg/m3 (Liquid); method: PYCNOM:UFactor:3
Temperature, K	Molality, mol/kg of 2-methyl-1,4-naphthalenedione	Mass density, kg/m3	uncertainty
303.15	0	868	0.7
303.15	0.0334	869.4	0.7
303.15	0.0889	871.8	0.7
303.15	0.1332	873.7	0.7
303.15	0.1778	875.6	0.7
303.15	0.2215	877.5	0.8
303.15	0.2681	879.5	0.8
308.15	0	862.2	0.8
308.15	0.0334	863.6	0.8
308.15	0.0889	866	0.8
308.15	0.1332	867.9	0.8
308.15	0.1778	869.8	0.8
308.15	0.2215	871.7	0.8
308.15	0.2681	873.7	0.8
313.15	0	857	0.8
313.15	0.0334	858.4	0.8
313.15	0.0889	860.8	0.8
313.15	0.1332	862.7	0.8
313.15	0.1778	864.6	0.8
313.15	0.2215	866.5	0.8
313.15	0.2681	868.5	0.8
318.15	0	851.6	0.8
318.15	0.0334	853	0.8
318.15	0.0889	855.4	0.8
318.15	0.1332	857.3	0.8
318.15	0.1778	859.2	0.8
318.15	0.2215	861.1	0.8
318.15	0.2681	863.1	0.8
323.15	0	846.3	0.8
323.15	0.0334	847.7	0.8
323.15	0.0889	850.1	0.8
323.15	0.1332	852	0.8
323.15	0.1778	853.9	0.8
323.15	0.2215	855.8	0.8
323.15	0.2681	857.8	0.8
328.15	0	840.7	0.9
328.15	0.0334	842.1	0.9
328.15	0.0889	844.5	0.9
328.15	0.1332	846.4	0.9
328.15	0.1778	848.3	0.9
328.15	0.2215	850.2	0.9
328.15	0.2681	852.2	0.9
333.15	0	835.4	0.9
333.15	0.0334	836.8	0.9
333.15	0.0889	839.2	0.9
333.15	0.1332	841.1	0.9
333.15	0.1778	843	0.9
333.15	0.2215	844.9	0.9
333.15	0.2681	846.9	0.9

System: 2-methyl-1,4-naphthalenedione + toluene; phases: Liquid
Fixed: Pressure, kPa = 101
Property: Viscosity, Pa*s (Liquid); method: CAPTUB:UFactor:2
Temperature, K	Molality, mol/kg of 2-methyl-1,4-naphthalenedione	Viscosity, Pa*s	uncertainty
303.15	0	0.0005253	9e-06
303.15	0.0454	0.0005365	9.1e-06
303.15	0.0909	0.000544	9.2e-06
303.15	0.1365	0.0005487	9.2e-06
303.15	0.1817	0.0005572	9.3e-06
303.15	0.227	0.0005612	9.3e-06
303.15	0.2728	0.0005683	9.3e-06
308.15	0	0.0004933	8.8e-06
308.15	0.0454	0.0005088	8.9e-06
308.15	0.0909	0.000516	8.9e-06
308.15	0.1365	0.0005185	9e-06
308.15	0.1817	0.0005246	9e-06
308.15	0.227	0.0005277	9e-06
308.15	0.2728	0.0005346	9.1e-06
313.15	0	0.0004717	8.6e-06
313.15	0.0454	0.0004814	8.7e-06
313.15	0.0909	0.000488	8.7e-06
313.15	0.1365	0.0004902	8.8e-06
313.15	0.1817	0.0004955	8.8e-06
313.15	0.227	0.0004987	8.8e-06
313.15	0.2728	0.0005051	8.9e-06
318.15	0	0.0004491	8.5e-06
318.15	0.0454	0.0004535	8.5e-06
318.15	0.0909	0.0004582	8.5e-06
318.15	0.1365	0.000463	8.6e-06
318.15	0.1817	0.0004677	8.6e-06
318.15	0.227	0.0004753	8.6e-06
318.15	0.2728	0.0004775	8.7e-06
323.15	0	0.0004244	8.3e-06
323.15	0.0454	0.0004321	8.3e-06
323.15	0.0909	0.0004362	8.4e-06
323.15	0.1365	0.000439	8.4e-06
323.15	0.1817	0.000443	8.4e-06
323.15	0.227	0.0004459	8.4e-06
323.15	0.2728	0.0004515	8.5e-06
328.15	0	0.0004082	8.2e-06
328.15	0.0454	0.000413	8.2e-06
328.15	0.0909	0.0004147	8.2e-06
328.15	0.1365	0.0004176	8.2e-06
328.15	0.1817	0.0004208	8.3e-06
328.15	0.227	0.0004242	8.3e-06
328.15	0.2728	0.0004303	8.3e-06
333.15	0	0.0003835	8e-06
333.15	0.0454	0.0003872	8e-06
333.15	0.0909	0.0003909	8e-06
333.15	0.1365	0.0003927	8.1e-06
333.15	0.1817	0.000398	8.1e-06
333.15	0.227	0.0004065	8.2e-06
333.15	0.2728	0.0004137	8.2e-06

System: 2-methyl-1,4-naphthalenedione + toluene; phases: Liquid
Fixed: Pressure, kPa = 101
Property: Mass density, kg/m3 (Liquid); method: PYCNOM:UFactor:3
Temperature, K	Molality, mol/kg of 2-methyl-1,4-naphthalenedione	Mass density, kg/m3	uncertainty
303.15	0	857.5	0.7
303.15	0.0454	859.6	0.7
303.15	0.0909	861.7	0.7
303.15	0.1365	863.8	0.7
303.15	0.1817	865.9	0.7
303.15	0.227	868	0.7
303.15	0.2728	870.1	0.7
308.15	0	852.9	0.8
308.15	0.0454	855	0.8
308.15	0.0909	857.1	0.8
308.15	0.1365	859.2	0.8
308.15	0.1817	861.3	0.8
308.15	0.227	863.4	0.8
308.15	0.2728	865.5	0.8
313.15	0	847.9	0.8
313.15	0.0454	850	0.8
313.15	0.0909	852.1	0.8
313.15	0.1365	854.2	0.8
313.15	0.1817	856.3	0.8
313.15	0.227	858.4	0.8
313.15	0.2728	860.5	0.8
318.15	0	843.5	0.8
318.15	0.0454	845.6	0.8
318.15	0.0909	847.7	0.8
318.15	0.1365	849.8	0.8
318.15	0.1817	851.9	0.8
318.15	0.227	854	0.8
318.15	0.2728	856.1	0.8
323.15	0	838.7	0.8
323.15	0.0454	840.8	0.8
323.15	0.0909	842.9	0.8
323.15	0.1365	845	0.8
323.15	0.1817	847.1	0.8
323.15	0.227	849.2	0.8
323.15	0.2728	851.3	0.8
328.15	0	834	0.9
328.15	0.0454	836.1	0.9
328.15	0.0909	838.2	0.9
328.15	0.1365	840.3	0.9
328.15	0.1817	842.4	0.9
328.15	0.227	844.5	0.9
328.15	0.2728	846.6	0.9
333.15	0	829.1	0.9
333.15	0.0454	831.2	0.9
333.15	0.0909	833.3	0.9
333.15	0.1365	835.4	0.9
333.15	0.1817	837.5	0.9
333.15	0.227	839.6	0.9
333.15	0.2728	841.7	0.9

System: 2-methyl-1,4-naphthalenedione + ethylbenzene; phases: Liquid
Fixed: Pressure, kPa = 101
Property: Viscosity, Pa*s (Liquid); method: CAPTUB:UFactor:2
Temperature, K	Molality, mol/kg of 2-methyl-1,4-naphthalenedione	Viscosity, Pa*s	uncertainty
303.15	0	0.0005986	9.5e-06
303.15	0.0451	0.0006083	9.6e-06
303.15	0.0903	0.0006164	9.6e-06
303.15	0.1354	0.0006218	9.7e-06
303.15	0.1805	0.0006317	9.8e-06
303.15	0.2256	0.0006333	9.8e-06
303.15	0.271	0.0006361	9.8e-06
308.15	0	0.0005691	9.3e-06
308.15	0.0451	0.0005735	9.3e-06
308.15	0.0903	0.0005794	9.4e-06
308.15	0.1354	0.0005853	9.4e-06
308.15	0.1805	0.0005893	9.4e-06
308.15	0.2256	0.0005948	9.5e-06
308.15	0.271	0.0005991	9.5e-06
313.15	0	0.0005372	9e-06
313.15	0.0451	0.0005439	9.1e-06
313.15	0.0903	0.0005484	9.1e-06
313.15	0.1354	0.0005543	9.2e-06
313.15	0.1805	0.000557	9.2e-06
313.15	0.2256	0.0005611	9.2e-06
313.15	0.271	0.0005673	9.3e-06
318.15	0	0.000506	8.8e-06
318.15	0.0451	0.0005104	8.8e-06
318.15	0.0903	0.0005148	8.9e-06
318.15	0.1354	0.0005192	8.9e-06
318.15	0.1805	0.0005241	8.9e-06
318.15	0.2256	0.0005283	9e-06
318.15	0.271	0.000533	9e-06
323.15	0	0.0004805	8.6e-06
323.15	0.0451	0.0004832	8.6e-06
323.15	0.0903	0.0004881	8.7e-06
323.15	0.1354	0.0004937	8.7e-06
323.15	0.1805	0.0004969	8.7e-06
323.15	0.2256	0.0005015	8.8e-06
323.15	0.271	0.0005054	8.8e-06
328.15	0	0.0004566	8.5e-06
328.15	0.0451	0.0004615	8.5e-06
328.15	0.0903	0.0004648	8.5e-06
328.15	0.1354	0.0004715	8.6e-06
328.15	0.1805	0.000474	8.6e-06
328.15	0.2256	0.0004758	8.6e-06
328.15	0.271	0.0004806	8.6e-06
333.15	0	0.0004371	8.3e-06
333.15	0.0451	0.0004405	8.3e-06
333.15	0.0903	0.000444	8.4e-06
333.15	0.1354	0.0004475	8.4e-06
333.15	0.1805	0.000451	8.4e-06
333.15	0.2256	0.0004546	8.4e-06
333.15	0.271	0.0004581	8.5e-06

System: 2-methyl-1,4-naphthalenedione + ethylbenzene; phases: Liquid
Fixed: Pressure, kPa = 101
Property: Mass density, kg/m3 (Liquid); method: PYCNOM:UFactor:3
Temperature, K	Molality, mol/kg of 2-methyl-1,4-naphthalenedione	Mass density, kg/m3	uncertainty
303.15	0	858	0.7
303.15	0.0451	859.9	0.7
303.15	0.0903	861.8	0.7
303.15	0.1354	863.7	0.7
303.15	0.1805	865.6	0.7
303.15	0.2256	867.5	0.7
303.15	0.271	869.4	0.7
308.15	0	853.5	0.7
308.15	0.0451	855.4	0.7
308.15	0.0903	857.3	0.7
308.15	0.1354	859.2	0.7
308.15	0.1805	861.1	0.7
308.15	0.2256	863	0.7
308.15	0.271	864.9	0.8
313.15	0	849.5	0.8
313.15	0.0451	851.4	0.8
313.15	0.0903	853.3	0.8
313.15	0.1354	855.2	0.8
313.15	0.1805	857.1	0.8
313.15	0.2256	859	0.8
313.15	0.271	860.9	0.8
318.15	0	844.7	0.8
318.15	0.0451	846.6	0.8
318.15	0.0903	848.5	0.8
318.15	0.1354	850.4	0.8
318.15	0.1805	852.3	0.8
318.15	0.2256	854.2	0.8
318.15	0.271	856.1	0.8
323.15	0	840.5	0.8
323.15	0.0451	842.4	0.8
323.15	0.0903	844.3	0.8
323.15	0.1354	846.2	0.8
323.15	0.1805	848.1	0.8
323.15	0.2256	850	0.8
323.15	0.271	851.9	0.8
328.15	0	835.9	0.8
328.15	0.0451	837.8	0.8
328.15	0.0903	839.7	0.8
328.15	0.1354	841.6	0.8
328.15	0.1805	843.5	0.8
328.15	0.2256	845.4	0.8
328.15	0.271	847.3	0.8
333.15	0	831.6	0.9
333.15	0.0451	833.5	0.9
333.15	0.0903	835.4	0.9
333.15	0.1354	837.3	0.9
333.15	0.1805	839.2	0.9
333.15	0.2256	841.1	0.9
333.15	0.271	843	0.9

System: 2-methyl-1,4-naphthalenedione + 1,2-dimethylbenzene; phases: Liquid
Fixed: Pressure, kPa = 101
Property: Viscosity, Pa*s (Liquid); method: CAPTUB:UFactor:2
Temperature, K	Molality, mol/kg of 2-methyl-1,4-naphthalenedione	Viscosity, Pa*s	uncertainty
303.15	0	0.0007404	1.06e-05
303.15	0.0436	0.0007432	1.07e-05
303.15	0.0884	0.0007496	1.07e-05
303.15	0.1326	0.0007581	1.08e-05
303.15	0.1767	0.0007658	1.08e-05
303.15	0.2215	0.0007765	1.09e-05
303.15	0.2656	0.0007833	1.1e-05
308.15	0	0.00069	1.02e-05
308.15	0.0436	0.0006988	1.03e-05
308.15	0.0884	0.0007021	1.03e-05
308.15	0.1326	0.0007081	1.04e-05
308.15	0.1767	0.0007159	1.04e-05
308.15	0.2215	0.000726	1.05e-05
308.15	0.2656	0.0007348	1.06e-05
313.15	0	0.0006451	9.9e-06
313.15	0.0436	0.0006532	9.9e-06
313.15	0.0884	0.0006592	1e-05
313.15	0.1326	0.0006687	1.01e-05
313.15	0.1767	0.0006742	1.01e-05
313.15	0.2215	0.000681	1.02e-05
313.15	0.2656	0.0006888	1.02e-05
318.15	0	0.0006117	9.6e-06
318.15	0.0436	0.0006212	9.7e-06
318.15	0.0884	0.0006256	9.7e-06
318.15	0.1326	0.0006319	9.8e-06
318.15	0.1767	0.0006407	9.8e-06
318.15	0.2215	0.0006473	9.9e-06
318.15	0.2656	0.0006525	9.9e-06
323.15	0	0.0005711	9.3e-06
323.15	0.0436	0.0005792	9.4e-06
323.15	0.0884	0.0005832	9.4e-06
323.15	0.1326	0.0005905	9.4e-06
323.15	0.1767	0.0005967	9.5e-06
323.15	0.2215	0.0006011	9.5e-06
323.15	0.2656	0.0006087	9.6e-06
328.15	0	0.0005433	9.1e-06
328.15	0.0436	0.0005498	9.1e-06
328.15	0.0884	0.0005531	9.2e-06
328.15	0.1326	0.0005601	9.2e-06
328.15	0.1767	0.0005665	9.3e-06
328.15	0.2215	0.0005706	9.3e-06
328.15	0.2656	0.0005773	9.3e-06
333.15	0	0.0005105	8.8e-06
333.15	0.0436	0.0005177	8.9e-06
333.15	0.0884	0.0005202	8.9e-06
333.15	0.1326	0.0005277	9e-06
333.15	0.1767	0.0005309	9e-06
333.15	0.2215	0.0005358	9e-06
333.15	0.2656	0.0005412	9.1e-06

System: 2-methyl-1,4-naphthalenedione + 1,2-dimethylbenzene; phases: Liquid
Fixed: Pressure, kPa = 101
Property: Mass density, kg/m3 (Liquid); method: PYCNOM:UFactor:3
Temperature, K	Molality, mol/kg of 2-methyl-1,4-naphthalenedione	Mass density, kg/m3	uncertainty
303.15	0	872.1	0.7
303.15	0.0436	873.9	0.7
303.15	0.0884	875.8	0.7
303.15	0.1326	877.7	0.7
303.15	0.1767	879.6	0.7
303.15	0.2215	881.6	0.7
303.15	0.2656	883.5	0.7
308.15	0	867.7	0.8
308.15	0.0436	869.5	0.8
308.15	0.0884	871.4	0.8
308.15	0.1326	873.3	0.8
308.15	0.1767	875.2	0.8
308.15	0.2215	877.2	0.8
308.15	0.2656	879.1	0.8
313.15	0	864	0.8
313.15	0.0436	865.8	0.8
313.15	0.0884	867.7	0.8
313.15	0.1326	869.6	0.8
313.15	0.1767	871.5	0.8
313.15	0.2215	873.5	0.8
313.15	0.2656	875.4	0.8
318.15	0	859.7	0.8
318.15	0.0436	861.5	0.8
318.15	0.0884	863.4	0.8
318.15	0.1326	865.3	0.8
318.15	0.1767	867.2	0.8
318.15	0.2215	869.2	0.8
318.15	0.2656	871.1	0.8
323.15	0	855.5	0.8
323.15	0.0436	857.3	0.8
323.15	0.0884	859.2	0.8
323.15	0.1326	861.1	0.8
323.15	0.1767	863	0.8
323.15	0.2215	865	0.8
323.15	0.2656	866.9	0.8
328.15	0	851.2	0.8
328.15	0.0436	853	0.9
328.15	0.0884	854.9	0.9
328.15	0.1326	856.8	0.9
328.15	0.1767	858.7	0.9
328.15	0.2215	860.7	0.9
328.15	0.2656	862.6	0.9
333.15	0	847.1	0.9
333.15	0.0436	848.9	0.9
333.15	0.0884	850.8	0.9
333.15	0.1326	852.7	0.9
333.15	0.1767	854.6	0.9
333.15	0.2215	856.6	0.9
333.15	0.2656	858.5	0.9

System: 2-methyl-1,4-naphthalenedione + 1,3-dimethylbenzene; phases: Liquid
Fixed: Pressure, kPa = 101
Property: Viscosity, Pa*s (Liquid); method: CAPTUB:UFactor:2
Temperature, K	Molality, mol/kg of 2-methyl-1,4-naphthalenedione	Viscosity, Pa*s	uncertainty
303.15	0	0.000549	9.2e-06
303.15	0.0452	0.0005673	9.4e-06
303.15	0.0902	0.0005771	9.5e-06
303.15	0.1352	0.0005802	9.5e-06
303.15	0.1802	0.0005844	9.5e-06
303.15	0.2254	0.0005902	9.6e-06
303.15	0.272	0.0006031	9.7e-06
308.15	0	0.0005201	9e-06
308.15	0.0452	0.0005351	9.1e-06
308.15	0.0902	0.0005422	9.2e-06
308.15	0.1352	0.0005467	9.2e-06
308.15	0.1802	0.0005523	9.3e-06
308.15	0.2254	0.0005566	9.3e-06
308.15	0.272	0.0005654	9.4e-06
313.15	0	0.0004967	8.8e-06
313.15	0.0452	0.0005098	8.9e-06
313.15	0.0902	0.0005144	9e-06
313.15	0.1352	0.0005188	9e-06
313.15	0.1802	0.0005237	9e-06
313.15	0.2254	0.0005284	9.1e-06
313.15	0.272	0.0005352	9.1e-06
318.15	0	0.0004817	8.7e-06
318.15	0.0452	0.0004864	8.8e-06
318.15	0.0902	0.0004931	8.8e-06
318.15	0.1352	0.0004977	8.8e-06
318.15	0.1802	0.0005013	8.9e-06
318.15	0.2254	0.000505	8.9e-06
318.15	0.272	0.0005117	8.9e-06
323.15	0	0.000444	8.5e-06
323.15	0.0452	0.0004593	8.6e-06
323.15	0.0902	0.0004642	8.6e-06
323.15	0.1352	0.0004669	8.6e-06
323.15	0.1802	0.0004711	8.6e-06
323.15	0.2254	0.0004753	8.7e-06
323.15	0.272	0.0004817	8.7e-06
328.15	0	0.000435	8.4e-06
328.15	0.0452	0.0004381	8.4e-06
328.15	0.0902	0.0004432	8.4e-06
328.15	0.1352	0.0004456	8.5e-06
328.15	0.1802	0.0004497	8.5e-06
328.15	0.2254	0.0004539	8.5e-06
328.15	0.272	0.000463	8.6e-06
333.15	0	0.000413	8.2e-06
333.15	0.0452	0.0004148	8.2e-06
333.15	0.0902	0.0004198	8.3e-06
333.15	0.1352	0.0004242	8.3e-06
333.15	0.1802	0.0004269	8.3e-06
333.15	0.2254	0.000429	8.3e-06
333.15	0.272	0.0004342	8.4e-06

System: 2-methyl-1,4-naphthalenedione + 1,3-dimethylbenzene; phases: Liquid
Fixed: Pressure, kPa = 101
Property: Mass density, kg/m3 (Liquid); method: PYCNOM:UFactor:3
Temperature, K	Molality, mol/kg of 2-methyl-1,4-naphthalenedione	Mass density, kg/m3	uncertainty
303.15	0	855.6	0.7
303.15	0.0452	857.6	0.7
303.15	0.0902	859.6	0.7
303.15	0.1352	861.6	0.8
303.15	0.1802	863.6	0.8
303.15	0.2254	865.6	0.8
303.15	0.272	867.7	0.8
308.15	0	851.1	0.8
308.15	0.0452	853.1	0.8
308.15	0.0902	855.1	0.8
308.15	0.1352	857.1	0.8
308.15	0.1802	859.1	0.8
308.15	0.2254	861.1	0.8
308.15	0.272	863.2	0.8
313.15	0	846.9	0.8
313.15	0.0452	848.9	0.8
313.15	0.0902	850.9	0.8
313.15	0.1352	852.9	0.8
313.15	0.1802	854.9	0.8
313.15	0.2254	856.9	0.8
313.15	0.272	859	0.8
318.15	0	842.4	0.8
318.15	0.0452	844.4	0.8
318.15	0.0902	846.4	0.8
318.15	0.1352	848.4	0.8
318.15	0.1802	850.4	0.8
318.15	0.2254	852.4	0.8
318.15	0.272	854.5	0.8
323.15	0	838.3	0.8
323.15	0.0452	840.3	0.8
323.15	0.0902	842.3	0.8
323.15	0.1352	844.3	0.8
323.15	0.1802	846.3	0.8
323.15	0.2254	848.3	0.8
323.15	0.272	850.4	0.8
328.15	0	833.7	0.9
328.15	0.0452	835.7	0.9
328.15	0.0902	837.7	0.9
328.15	0.1352	839.7	0.9
328.15	0.1802	841.7	0.9
328.15	0.2254	843.7	0.9
328.15	0.272	845.8	0.9
333.15	0	829.6	0.9
333.15	0.0452	831.6	0.9
333.15	0.0902	833.6	0.9
333.15	0.1352	835.6	0.9
333.15	0.1802	837.6	0.9
333.15	0.2254	839.6	0.9
333.15	0.272	841.7	0.9

System: 2-methyl-1,4-naphthalenedione + 1,4-dimethylbenzene; phases: Liquid
Fixed: Pressure, kPa = 101
Property: Viscosity, Pa*s (Liquid); method: CAPTUB:UFactor:2
Temperature, K	Molality, mol/kg of 2-methyl-1,4-naphthalenedione	Viscosity, Pa*s	uncertainty
303.15	0	0.0005726	9.3e-06
303.15	0.0454	0.0005859	9.4e-06
303.15	0.0902	0.0005904	9.4e-06
303.15	0.1361	0.0005958	9.5e-06
303.15	0.1815	0.0006048	9.6e-06
303.15	0.2267	0.0006092	9.6e-06
303.15	0.2724	0.0006161	9.6e-06
308.15	0	0.0005374	9e-06
308.15	0.0454	0.0005528	9.2e-06
308.15	0.0902	0.0005581	9.2e-06
308.15	0.1361	0.0005631	9.2e-06
308.15	0.1815	0.0005716	9.3e-06
308.15	0.2267	0.0005748	9.3e-06
308.15	0.2724	0.000582	9.4e-06
313.15	0	0.0005178	8.9e-06
313.15	0.0454	0.0005222	8.9e-06
313.15	0.0902	0.0005274	9e-06
313.15	0.1361	0.0005349	9e-06
313.15	0.1815	0.0005396	9.1e-06
313.15	0.2267	0.000543	9.1e-06
313.15	0.2724	0.0005477	9.1e-06
318.15	0	0.0004882	8.7e-06
318.15	0.0454	0.0004999	8.8e-06
318.15	0.0902	0.0005047	8.8e-06
318.15	0.1361	0.0005097	8.8e-06
318.15	0.1815	0.0005152	8.9e-06
318.15	0.2267	0.0005183	8.9e-06
318.15	0.2724	0.0005242	8.9e-06
323.15	0	0.0004595	8.5e-06
323.15	0.0454	0.0004686	8.5e-06
323.15	0.0902	0.0004737	8.6e-06
323.15	0.1361	0.000477	8.6e-06
323.15	0.1815	0.0004824	8.6e-06
323.15	0.2267	0.0004864	8.7e-06
323.15	0.2724	0.0004907	8.7e-06
328.15	0	0.0004439	8.4e-06
328.15	0.0454	0.0004467	8.4e-06
328.15	0.0902	0.0004509	8.4e-06
328.15	0.1361	0.000456	8.5e-06
328.15	0.1815	0.0004615	8.5e-06
328.15	0.2267	0.0004633	8.5e-06
328.15	0.2724	0.0004698	8.6e-06
333.15	0	0.0004189	8.2e-06
333.15	0.0454	0.0004225	8.2e-06
333.15	0.0902	0.0004258	8.2e-06
333.15	0.1361	0.0004309	8.3e-06
333.15	0.1815	0.0004364	8.3e-06
333.15	0.2267	0.0004384	8.3e-06
333.15	0.2724	0.0004429	8.4e-06

System: 2-methyl-1,4-naphthalenedione + 1,4-dimethylbenzene; phases: Liquid
Fixed: Pressure, kPa = 101
Property: Mass density, kg/m3 (Liquid); method: PYCNOM:UFactor:3
Temperature, K	Molality, mol/kg of 2-methyl-1,4-naphthalenedione	Mass density, kg/m3	uncertainty
303.15	0	852	0.7
303.15	0.0454	854	0.7
303.15	0.0902	856	0.7
303.15	0.1361	858.1	0.7
303.15	0.1815	860.1	0.7
303.15	0.2267	862.1	0.7
303.15	0.2724	864.1	0.7
308.15	0	847.7	0.7
308.15	0.0454	849.7	0.7
308.15	0.0902	851.7	0.7
308.15	0.1361	853.8	0.7
308.15	0.1815	855.8	0.7
308.15	0.2267	857.8	0.7
308.15	0.2724	859.8	0.7
313.15	0	843.2	0.8
313.15	0.0454	845.2	0.8
313.15	0.0902	847.2	0.8
313.15	0.1361	849.3	0.8
313.15	0.1815	851.3	0.8
313.15	0.2267	853.3	0.8
313.15	0.2724	855.3	0.8
318.15	0	838.7	0.8
318.15	0.0454	840.7	0.8
318.15	0.0902	842.7	0.8
318.15	0.1361	844.8	0.8
318.15	0.1815	846.8	0.8
318.15	0.2267	848.8	0.8
318.15	0.2724	850.8	0.8
323.15	0	834.5	0.8
323.15	0.0454	836.5	0.8
323.15	0.0902	838.5	0.8
323.15	0.1361	840.6	0.8
323.15	0.1815	842.6	0.8
323.15	0.2267	844.6	0.8
323.15	0.2724	846.6	0.8
328.15	0	829.9	0.8
328.15	0.0454	831.9	0.8
328.15	0.0902	833.9	0.8
328.15	0.1361	836	0.8
328.15	0.1815	838	0.8
328.15	0.2267	840	0.8
328.15	0.2724	842	0.8
333.15	0	825.6	0.9
333.15	0.0454	827.6	0.9
333.15	0.0902	829.6	0.9
333.15	0.1361	831.7	0.9
333.15	0.1815	833.7	0.9
333.15	0.2267	835.7	0.9
333.15	0.2724	837.7	0.9
