Measured thermophysical data. Densities of a-Carotene-Supercritical Carbon Dioxide Mixtures
Source: J. Chem. Eng. Data, 2007, 10.1021/je700373r
Compound 1: .beta.-carotene, C40H56, InChI=1S/C40H56/c1-31(19-13-21-33(3)25-27-37-35(5)23-15-29-39(37,7)8)17-11-12-18-32(2)20-14-22-34(4)26-28-38-36(6)24-16-30-40(38,9)10/h11-14,17-22,25-28H,15-16,23-24,29-30H2,1-10H3/b12-11+,19-13+,20-14+,27-25+,28-26+,31-17+,32-18+,33-21+,34-22+
Compound 2: carbon dioxide, CO2, InChI=1S/CO2/c2-1-3

System: carbon dioxide; phases: Fluid (supercritical or subcritical phases)
Property: Mass density, kg/m3 (Fluid (supercritical or subcritical phases)); method: Vibrating tube method
Temperature, K	Pressure, kPa	Mass density, kg/m3	uncertainty
308.15	10000	717.2	2.1
308.15	15000	816.1	1.6
308.15	20000	866.1	1
308.15	30000	929	0.8
308.15	40000	971.7	0.7
313.15	10000	636.6	3.3
313.15	15000	781.3	2.1
313.15	20000	840.2	1
313.15	30000	909.7	0.9
313.15	40000	955.5	0.8
323.15	10000	397.3	5.2
323.15	15000	701.8	3.9
323.15	20000	784.9	1.3
323.15	30000	870.3	0.9
323.15	40000	922.8	0.8
333.15	10000	296.1	6.3
333.15	15000	607	4.4
333.15	20000	724.4	1.6
333.15	30000	829.6	1.1
333.15	40000	889.8	0.9

System: carbon dioxide + .beta.-carotene; phases: Fluid (supercritical or subcritical phases)
Property: Mass density, kg/m3 (Fluid (supercritical or subcritical phases)); method: Vibrating tube method
Mole fraction of .beta.-carotene	Temperature, K	Pressure, kPa	Mass density, kg/m3	uncertainty
0	308.15	10000	717.2	2.1
0	308.15	15000	816.1	1.6
0	308.15	20000	866.1	1
0	308.15	30000	929	0.8
0	308.15	40000	971.7	0.7
0	313.15	10000	636.6	3.3
0	313.15	15000	781.3	2.1
0	313.15	20000	840.2	1
0	313.15	30000	909.7	0.9
0	313.15	40000	955.5	0.8
0	323.15	10000	397.3	5.2
0	323.15	15000	701.8	3.9
0	323.15	20000	784.9	1.3
0	323.15	30000	870.3	0.9
0	323.15	40000	922.8	0.8
0	333.15	10000	296.1	6.3
0	333.15	15000	607	4.4
0	333.15	20000	724.4	1.6
0	333.15	30000	829.6	1.1
0	333.15	40000	889.8	0.9
1.5e-06	308.15	10000	717.5	2.1
1.5e-06	308.15	15000	816.3	1.6
1.5e-06	308.15	20000	866.3	1
1.5e-06	308.15	30000	929.1	0.8
1.5e-06	308.15	40000	971.8	0.7
1.5e-06	313.15	10000	636.7	3.2
1.5e-06	313.15	15000	781.5	2.1
1.5e-06	313.15	20000	840.4	1
1.5e-06	313.15	30000	909.9	0.9
1.5e-06	313.15	40000	955.7	0.8
1.5e-06	323.15	10000	398.3	5.6
1.5e-06	323.15	15000	702	3.9
1.5e-06	323.15	20000	785	1.2
1.5e-06	323.15	30000	870.5	0.9
1.5e-06	323.15	40000	922.9	0.8
1.5e-06	333.15	10000	296.5	6.2
1.5e-06	333.15	15000	607.3	4.3
1.5e-06	333.15	20000	724.5	1.5
1.5e-06	333.15	30000	829.7	1.1
1.5e-06	333.15	40000	889.8	0.9
2.2e-06	308.15	10000	717.7	2.1
2.2e-06	308.15	15000	816.4	1.6
2.2e-06	308.15	20000	866.3	1
2.2e-06	308.15	30000	929.1	0.8
2.2e-06	308.15	40000	971.9	0.7
2.2e-06	313.15	10000	637.3	3.2
2.2e-06	313.15	15000	781.6	2.1
2.2e-06	313.15	20000	840.4	1
2.2e-06	313.15	30000	909.9	0.9
2.2e-06	313.15	40000	955.7	0.8
2.2e-06	323.15	10000	397.9	5.6
2.2e-06	323.15	15000	701.8	3.9
2.2e-06	323.15	20000	784.9	1.2
2.2e-06	323.15	30000	870.5	0.9
2.2e-06	323.15	40000	923	0.8
2.2e-06	333.15	10000	297.2	6.3
2.2e-06	333.15	15000	607.7	4.3
2.2e-06	333.15	20000	724.7	1.5
2.2e-06	333.15	30000	829.7	1.1
2.2e-06	333.15	40000	889.8	0.9
2.9e-06	308.15	10000	717.9	2.1
2.9e-06	308.15	15000	816.5	1.6
2.9e-06	308.15	20000	866.3	1
2.9e-06	308.15	30000	929.1	0.8
2.9e-06	308.15	40000	971.9	0.7
2.9e-06	313.15	10000	637.2	3.2
2.9e-06	313.15	15000	781.6	2.1
2.9e-06	313.15	20000	840.4	1
2.9e-06	313.15	30000	909.9	0.9
2.9e-06	313.15	40000	955.7	0.8
2.9e-06	323.15	10000	398.9	5.6
2.9e-06	323.15	15000	702.1	3.9
2.9e-06	323.15	20000	785.1	1.2
2.9e-06	323.15	30000	870.5	0.9
2.9e-06	323.15	40000	923	0.8
2.9e-06	333.15	10000	296.7	6.3
2.9e-06	333.15	15000	607.7	4.3
2.9e-06	333.15	20000	724.7	1.5
2.9e-06	333.15	30000	829.7	1.1
2.9e-06	333.15	40000	889.9	0.9
4.3e-06	308.15	10000	717.6	2.1
4.3e-06	308.15	15000	816.4	1.6
4.3e-06	308.15	20000	866.4	1
4.3e-06	308.15	30000	929.1	0.8
4.3e-06	308.15	40000	971.9	0.7
4.3e-06	313.15	10000	637.2	3.2
4.3e-06	313.15	15000	781.6	2.1
4.3e-06	313.15	20000	840.4	1
4.3e-06	313.15	30000	909.9	0.9
4.3e-06	313.15	40000	955.7	0.8
4.3e-06	323.15	10000	398.2	5.5
4.3e-06	323.15	15000	702	3.9
4.3e-06	323.15	20000	785	1.2
4.3e-06	323.15	30000	870.5	0.9
4.3e-06	323.15	40000	923	0.8
4.3e-06	333.15	10000	296.6	6.2
4.3e-06	333.15	15000	607.4	4.3
4.3e-06	333.15	20000	724.7	1.5
4.3e-06	333.15	30000	829.7	1.1
4.3e-06	333.15	40000	889.9	0.9
4.8e-06	308.15	10000	717.8	2.1
4.8e-06	308.15	15000	816.4	1.6
4.8e-06	308.15	20000	866.4	1
4.8e-06	308.15	30000	929.3	0.8
4.8e-06	308.15	40000	972	0.7
4.8e-06	313.15	10000	637.7	3.2
4.8e-06	313.15	15000	781.8	2.1
4.8e-06	313.15	20000	840.6	1
4.8e-06	313.15	30000	910	0.9
4.8e-06	313.15	40000	955.8	0.8
4.8e-06	323.15	10000	398.4	5.6
4.8e-06	323.15	15000	702.1	3.9
4.8e-06	323.15	20000	785.2	1.2
4.8e-06	323.15	30000	870.6	0.9
4.8e-06	323.15	40000	923	0.8
4.8e-06	333.15	10000	296.9	6.3
4.8e-06	333.15	15000	607.7	4.3
4.8e-06	333.15	20000	724.7	1.5
4.8e-06	333.15	30000	829.8	1.1
4.8e-06	333.15	40000	890	0.9
5.5e-06	308.15	10000	718.3	2.1
5.5e-06	308.15	15000	816.7	1.6
5.5e-06	308.15	20000	866.5	1
5.5e-06	308.15	30000	929.2	0.8
5.5e-06	308.15	40000	972	0.7
5.5e-06	313.15	10000	637.8	3.2
5.5e-06	313.15	15000	781.9	2.1
5.5e-06	313.15	20000	840.7	1
5.5e-06	313.15	30000	910.1	0.9
5.5e-06	313.15	40000	955.9	0.8
5.5e-06	323.15	10000	398.5	5.6
5.5e-06	323.15	15000	702.2	3.9
5.5e-06	323.15	20000	785.3	1.2
5.5e-06	323.15	30000	870.7	0.9
5.5e-06	323.15	40000	923.1	0.8
5.5e-06	333.15	10000	297	6.3
5.5e-06	333.15	15000	607.8	4.3
5.5e-06	333.15	20000	725	1.5
5.5e-06	333.15	30000	829.9	1.1
5.5e-06	333.15	40000	890	0.9
6.5e-06	308.15	10000	717.8	2.1
6.5e-06	308.15	15000	816.4	1.6
6.5e-06	308.15	20000	866.4	1
6.5e-06	308.15	30000	929.1	0.8
6.5e-06	308.15	40000	971.9	0.7
6.5e-06	313.15	10000	637.3	3.3
6.5e-06	313.15	15000	781.6	2.1
6.5e-06	313.15	20000	840.4	1
6.5e-06	313.15	30000	909.9	0.9
6.5e-06	313.15	40000	955.7	0.8
6.5e-06	323.15	10000	398.2	5.2
6.5e-06	323.15	15000	702	3.9
6.5e-06	323.15	20000	785	1.3
6.5e-06	323.15	30000	870.5	0.9
6.5e-06	323.15	40000	923	0.8
6.5e-06	333.15	10000	296.6	6.3
6.5e-06	333.15	15000	607.4	4.4
6.5e-06	333.15	20000	724.6	1.6
6.5e-06	333.15	30000	829.7	1.1
6.5e-06	333.15	40000	889.9	0.9
