Measured thermophysical data. Densities of NaOH(aq) at Temperatures from (323 to 573) K and 10 MPa Pressure
Source: J. Chem. Eng. Data, 2007, 10.1021/je700265d
Compound 1: sodium hydroxide, HNaO, InChI=1S/Na.H2O/h;1H2/q+1;/p-1
Compound 2: water, H2O, InChI=1S/H2O/h1H2

System: sodium hydroxide + water; phases: Liquid
Property: Mass density, kg/m3 (Liquid); method: Vibrating tube method
Temperature, K	Pressure, kPa	Molality, mol/kg of sodium hydroxide	Mass density, kg/m3	uncertainty
323.15	2000	0.09892	993.042	1.999
323.15	2000	0.1999	997.265	2.007
323.15	2000	0.4998	1009.532	2.033
323.15	2000	1.0064	1029.586	2.077
323.15	2000	2.0058	1067.144	2.161
323.15	2000	2.9939	1102.25	2.241
323.15	2000	4.0003	1135.593	2.32
323.15	2000	4.9272	1164.362	2.39
323.15	2000	5.9632	1194.983	2.468
323.15	2000	6.8866	1219.572	2.532
323.15	2000	8	1248.119	2.61
323.15	10000	0.1004	996.538	2.005
323.15	10000	0.1011	996.561	2.005
323.15	10000	0.2008	1000.684	2.014
323.15	10000	0.4993	1012.82	2.04
323.15	10000	1.0021	1032.587	2.084
323.15	10000	1.9979	1069.815	2.169
323.15	10000	2.9989	1104.904	2.251
323.15	10000	4.0003	1137.82	2.332
323.15	10000	5.0015	1168.707	2.411
323.15	10000	5.9845	1197.209	2.487
323.15	10000	6.9982	1224.731	2.563
323.15	10000	8.1915	1254.929	2.651
323.15	2000	0.09892	993.087	1.999
323.15	2000	0.1999	997.265	2.007
323.15	2000	0.4998	1009.517	2.033
323.15	2000	1.0064	1029.575	2.077
323.15	2000	2.0058	1067.144	2.161
323.15	2000	2.9939	1102.232	2.241
323.15	2000	4.0003	1135.562	2.32
323.15	2000	4.9272	1164.372	2.39
323.15	2000	5.9632	1194.979	2.468
323.15	2000	6.8866	1219.573	2.532
323.15	10000	0.1004	996.527	2.005
323.15	10000	0.1011	996.552	2.005
323.15	10000	0.2008	1000.691	2.014
323.15	2000	0.09892	993.057	1.999
323.15	2000	0.09892	993.08	1.999
373.15	10000	0.1071	967.434	1.95
373.15	10000	0.2063	971.522	1.957
373.15	10000	0.5006	983.362	1.981
373.15	10000	1.0066	1003.097	2.021
373.15	10000	1.9979	1039.602	2.104
373.15	10000	3.0003	1074.352	2.184
373.15	10000	3.9683	1105.877	2.261
373.15	10000	4.9873	1137.017	2.339
373.15	10000	5.9945	1165.762	2.414
373.15	10000	7	1192.662	2.487
373.15	10000	8.1915	1222.532	2.573
373.15	10000	0.1071	967.432	1.95
373.15	10000	7	1192.782	2.488
423.15	10000	0.102	926.887	1.872
423.15	10000	0.2019	931.217	1.88
423.15	10000	0.4993	943.749	1.905
423.15	10000	1.0041	964.154	1.946
423.15	10000	2.0023	1002.152	2.024
423.15	10000	3.0053	1037.713	2.105
423.15	10000	4.0067	1070.869	2.184
423.15	10000	5.0132	1101.939	2.261
423.15	10000	5.9826	1129.994	2.332
423.15	10000	6.9942	1157.329	2.405
423.15	10000	7.9972	1182.779	2.477
423.15	10000	0.102	926.893	1.872
423.15	10000	5.0132	1101.999	2.261
473.15	10000	0.1008	875.988	1.779
473.15	10000	0.1998	880.725	1.786
473.15	10000	0.498	894.456	1.813
473.15	10000	1.0002	916.262	1.857
473.15	10000	1.9957	956.424	1.938
473.15	10000	3.0012	993.727	2.014
473.15	10000	3.9793	1027.361	2.091
473.15	10000	4.9905	1059.697	2.169
473.15	10000	5.9814	1089.057	2.242
473.15	10000	6.9658	1116.247	2.313
473.15	10000	7.9825	1142.397	2.384
473.15	10000	0.1008	876.005	1.779
473.15	10000	0.498	894.426	1.813
473.15	10000	1.9957	956.451	1.938
473.15	10000	6.9658	1116.267	2.313
473.15	10000	0.1008	876.003	1.779
523.15	10000	0.1	811.722	1.673
523.15	10000	0.2004	817.364	1.679
523.15	10000	0.4995	833.124	1.708
523.15	10000	1.0025	857.633	1.754
523.15	10000	2.0054	902.001	1.841
523.15	10000	3.0052	942.171	1.921
523.15	10000	3.999	977.951	1.995
523.15	10000	5.0028	1011.551	2.068
523.15	10000	6.0055	1042.561	2.144
523.15	10000	7.0016	1071.151	2.217
523.15	10000	7.9991	1097.711	2.288
523.15	10000	0.1	811.722	1.673
523.15	10000	0.4995	833.124	1.708
523.15	10000	1.0025	857.68	1.754
523.15	10000	2.0054	902.001	1.841
523.15	10000	6.0055	1042.641	2.145
523.15	10000	7.0016	1071.041	2.217
523.15	10000	7.9991	1097.551	2.288
523.15	10000	0.1	811.711	1.673
523.15	10000	0.4995	833.104	1.708
573.15	10000	0.1122	724.654	1.536
573.15	10000	0.2173	732.398	1.548
573.15	10000	0.5495	754.575	1.585
573.15	10000	1.1053	787.201	1.642
573.15	10000	1.9962	832.976	1.726
573.15	10000	3.0042	878.767	1.815
573.15	10000	3.9984	918.89	1.895
573.15	10000	4.9993	955.585	1.97
573.15	10000	6.004	989.12	2.04
573.15	10000	6.9992	1019.78	2.113
573.15	10000	7.9972	1047.992	2.186
573.15	10000	0.1122	724.632	1.536
573.15	10000	0.2173	732.406	1.548
573.15	10000	0.5495	754.588	1.585
573.15	10000	1.1053	787.19	1.642
573.15	10000	1.9962	833.161	1.727
