Measured thermophysical data. Solution Enthalpies of Ionic Liquid I-Hexyl-3-methylimidazolium Chloride
Source: J. Chem. Eng. Data, 2008, 10.1021/je700187z
Compound 1: water, H2O, InChI=1S/H2O/h1H2
Compound 2: 1-hexyl-3-methylimidazolium chloride, C10H19ClN2, InChI=1S/C10H19N2.ClH/c1-3-4-5-6-7-12-9-8-11(2)10-12;/h8-10H,3-7H2,1-2H3;1H/q+1;/p-1
Compound 3: 2-amino-2-(hydroxymethyl)-1,3-propanediol, C4H11NO3, InChI=1S/C4H11NO3/c5-4(1-6,2-7)3-8/h6-8H,1-3,5H2
Compound 4: hydrogen chloride, ClH, InChI=1S/ClH/h1H

System: water + 1-hexyl-3-methylimidazolium chloride; phases: Liquid
Fixed: Pressure, kPa = 101.325
Fixed: Temperature, K = 298.15
Property: Molar enthalpy of solution, kJ/mol (Liquid); method: ISOPERIBOL:UFactor:8
Molality, mol/kg of 1-hexyl-3-methylimidazolium chloride	Molar enthalpy of solution, kJ/mol	uncertainty
0.003142	-13.08	1.047
0.003639	-12.73	1.019
0.004105	-12.25	0.98
0.004544	-11.74	0.939
0.005569	-11.06	0.885
0.006869	-10.07	0.806
0.01632	-9.541	0.763
0.03048	-7.849	0.628
0.04173	-7.612	0.609
0.05082	-7.417	0.594
0.05507	-7.246	0.58
0.06142	-7.05	0.564
0.06689	-6.833	0.547
0.07011	-6.631	0.531
0.07617	-6.493	0.52
0.08033	-6.272	0.502
0.09049	-6.065	0.485
0.1081	-5.843	0.468

System: 2-amino-2-(hydroxymethyl)-1,3-propanediol + hydrogen chloride + water; phases: Liquid
Property: Molar enthalpy of solution, kJ/mol (Liquid); method: ISOPERIBOL
Mole fraction of 2-amino-2-(hydroxymethyl)-1,3-propanediol	Temperature, K	Pressure, kPa	Amount concentration (molarity), mol/dm3 of hydrogen chloride	Molar enthalpy of solution, kJ/mol	uncertainty
0	298.15	101.325	0.1	17.542	0.136
