Measured thermophysical data. Density, Viscosity, Speed of Sound, and Electrolytic Conductivity for the Ionic Liquid 1-Hexyl-3-methylimidazolium Bis(trifluoromethylsulfonyl)imide and Its Mixtures with Water
Source: J. Chem. Eng. Data, 2007, 10.1021/je700329a
Compound 1: 1-hexyl-3-methylimidazolium bis[(trifluoromethyl)sulfonyl]imide, C12H19F6N3O4S2, InChI=1S/C10H19N2.C2F6NO4S2/c1-3-4-5-6-7-12-9-8-11(2)10-12;3-1(4,5)14(10,11)9-15(12,13)2(6,7)8/h8-10H,3-7H2,1-2H3;/q+1;-1
Compound 2: water, H2O, InChI=1S/H2O/h1H2

System: 1-hexyl-3-methylimidazolium bis[(trifluoromethyl)sulfonyl]imide; phases: Liquid
Fixed: Pressure, kPa = 101.325
Property: Electrical conductivity, S/m (Liquid); method: Alternating current cell with electrodes
Temperature, K	Electrical conductivity, S/m	uncertainty
288.15	0.135	0.006
293.15	0.173	0.007
298.15	0.218	0.009
308.15	0.328	0.013
323.15	0.548	0.022

System: 1-hexyl-3-methylimidazolium bis[(trifluoromethyl)sulfonyl]imide; phases: Liquid
Fixed: Pressure, kPa = 101.325
Property: Viscosity, Pa*s (Liquid); method: Stabinger Viscometer
Temperature, K	Viscosity, Pa*s	uncertainty
258.15	0.9418	0.0191
263.15	0.6127	0.0125
268.15	0.4174	0.0085
273.15	0.2912	0.0059
278.15	0.2076	0.0042
283.15	0.1533	0.0031
288.15	0.1158	0.0023
293.15	0.08954	0.0018
293.15	0.08926	0.0018
298.15	0.07029	0.00141
298.15	0.07009	0.00141
303.15	0.05611	0.00113
313.15	0.03741	0.00075
323.15	0.02625	0.00053
333.15	0.01922	0.00039
343.15	0.01458	0.00029
353.15	0.01138	0.00023
363.15	0.009128	0.000183
373.15	0.007463	0.00015

System: 1-hexyl-3-methylimidazolium bis[(trifluoromethyl)sulfonyl]imide; phases: Liquid
Fixed: Pressure, kPa = 101.325
Property: Speed of sound, m/s (Liquid); method: DSA 5000
Temperature, K	Speed of sound, m/s	uncertainty
283.15	1262	1
283.15	1262.4	1
293.15	1238.4	1
293.15	1238.5	1
298.15	1226.8	1
298.15	1226.9	1
303.15	1215.5	1
303.15	1215.6	1
313.15	1193.3	1
313.15	1193.4	1
323.15	1171.5	1
323.15	1171.6	1
333.15	1149.8	1
333.15	1150.4	1
343.15	1128.4	1
343.15	1129.6	1

System: 1-hexyl-3-methylimidazolium bis[(trifluoromethyl)sulfonyl]imide; phases: Liquid
Fixed: Pressure, kPa = 101.325
Property: Mass density, kg/m3 (Liquid); method: Vibrating tube method
Temperature, K	Mass density, kg/m3	uncertainty
258.15	1407.6	0.2
263.15	1403.1	0.2
268.15	1398.5	0.2
273.15	1394	0.2
278.15	1389.5	0.2
283.15	1385	0.2
288.15	1380.5	0.2
293.15	1376.4	0.2
293.15	1376	0.2
298.15	1371.9	0.2
298.15	1371.6	0.2
303.15	1367.3	0.2
313.15	1358.3	0.2
323.15	1349.3	0.2
333.15	1340.3	0.2
343.15	1331.3	0.2
353.15	1322.5	0.2
363.15	1313.6	0.2
373.15	1304.8	0.2

System: 1-hexyl-3-methylimidazolium bis[(trifluoromethyl)sulfonyl]imide; phases: Liquid
Fixed: Pressure, kPa = 101.325
Property: Mass density, kg/m3 (Liquid); method: Vibrating tube method
Temperature, K	Mass density, kg/m3	uncertainty
283.15	1385.9	0.2
283.15	1386	0.2
293.15	1376.7	0.2
293.15	1376.8	0.2
298.15	1372.1	0.2
298.15	1372.2	0.2
303.15	1367.5	0.2
303.15	1367.6	0.2
313.15	1358.4	0.2
313.15	1358.4	0.2
323.15	1349.4	0.2
323.15	1349.4	0.2
333.15	1340.3	0.2
333.15	1340.4	0.2
343.15	1331.3	0.2
343.15	1331.4	0.2

System: water + 1-hexyl-3-methylimidazolium bis[(trifluoromethyl)sulfonyl]imide; phases: Liquid
Fixed: Temperature, K = 298.15
Fixed: Pressure, kPa = 101
Property: Speed of sound, m/s (Liquid); method: Pulse-echo method
Mass fraction of water	Speed of sound, m/s	uncertainty
3.5e-05	1226.6	1.2
0.00106	1227.4	1.2
0.007315	1230.3	1.2

System: water + 1-hexyl-3-methylimidazolium bis[(trifluoromethyl)sulfonyl]imide; phases: Liquid
Fixed: Temperature, K = 298.15
Fixed: Pressure, kPa = 101
Property: Mass density, kg/m3 (Liquid); method: Vibrating tube method
Mass fraction of water	Mass density, kg/m3	uncertainty
3.5e-05	1372.07	2.01
0.00102	1370.45	2.01
0.00722	1367.04	2.01

System: water + 1-hexyl-3-methylimidazolium bis[(trifluoromethyl)sulfonyl]imide; phases: Liquid mixture 1, Liquid mixture 2
Fixed: Pressure, kPa = 101
Property: Mass fraction of water (Liquid mixture 1); method: Titration method
Temperature, K	Mass fraction of water	uncertainty
293.15	0.0101	0.0008
298.15	0.0111	0.0008
298.15	0.0112	0.0008

System: water + 1-hexyl-3-methylimidazolium bis[(trifluoromethyl)sulfonyl]imide; phases: Liquid
Fixed: Pressure, kPa = 101
Property: Electrical conductivity, S/m (Liquid); method: Alternating current cell with electrodes
Temperature, K	Mass fraction of water	Electrical conductivity, S/m	uncertainty
288.15	1e-05	0.135	0.006
288.15	0.00094	0.142	0.006
293.15	1e-05	0.173	0.007
293.15	0.00094	0.18	0.007
293.15	0.00727	0.232	0.01
293.15	0.00784	0.237	0.01
293.15	0.00898	0.246	0.01
298.15	1e-05	0.218	0.009
298.15	0.00094	0.227	0.009
298.15	0.00727	0.289	0.012
298.15	0.00784	0.295	0.012
298.15	0.00898	0.306	0.012
308.15	1e-05	0.328	0.013
308.15	0.00094	0.34	0.014
323.15	1e-05	0.548	0.022
323.15	0.00094	0.566	0.023

System: water + 1-hexyl-3-methylimidazolium bis[(trifluoromethyl)sulfonyl]imide; phases: Liquid
Fixed: Pressure, kPa = 101
Property: Kinematic viscosity, m2/s (Liquid); method: Capillary tube (Ostwald; Ubbelohde) method
Temperature, K	Mass fraction of water	Kinematic viscosity, m2/s	uncertainty
293.15	2e-05	6.53e-05	1.45e-06
293.15	0.0011	6.157e-05	1.35e-06
293.15	0.0082	4.549e-05	1e-06
298.15	1e-05	5.118e-05	1.17e-06
298.15	2e-05	5.134e-05	1.17e-06
298.15	0.00112	4.852e-05	1.12e-06
298.15	0.00819	3.631e-05	8.3e-07
