Measured thermophysical data. Viscosity Measurements of Compressed Liquid Refrigerant Blend R-507A, Using a Vibrating-Wire Technique
Source: J. Chem. Eng. Data, 2008, 10.1021/je700345b
Compound 1: 1,1,1-trifluoroethane, C2H3F3, InChI=1S/C2H3F3/c1-2(3,4)5/h1H3, purity 99.5%
Compound 2: pentafluoroethane, C2HF5, InChI=1S/C2HF5/c3-1(4)2(5,6)7/h1H, purity 99.5%

System: pentafluoroethane + 1,1,1-trifluoroethane; phases: Liquid
Fixed: Mass fraction of pentafluoroethane = 0.5
Property: Viscosity, Pa*s (Liquid); method: VIBWIR:UFactor:0.5
Temperature, K	Pressure, kPa	Viscosity, Pa*s	uncertainty
253.26	2000	0.000237	5.3e-06
253.26	2010	0.0002374	5.3e-06
253.26	2090	0.0002377	5.3e-06
253.26	2170	0.0002378	5.3e-06
253.26	2180	0.0002371	5.3e-06
253.26	2220	0.0002379	5.3e-06
253.26	3370	0.0002426	5.4e-06
253.26	3380	0.0002427	5.4e-06
253.26	3390	0.0002427	5.4e-06
253.26	3410	0.0002425	5.4e-06
253.26	4930	0.0002479	5.5e-06
253.26	4960	0.0002479	5.5e-06
253.26	4970	0.000248	5.5e-06
253.26	4990	0.0002482	5.5e-06
253.26	5020	0.0002483	5.5e-06
253.26	5070	0.0002487	5.5e-06
253.26	7440	0.0002574	5.7e-06
253.26	7500	0.0002576	5.7e-06
253.26	7620	0.000258	5.7e-06
253.26	7720	0.0002587	5.7e-06
263.23	1990	0.0002076	4.7e-06
263.23	2020	0.0002074	4.7e-06
263.23	2070	0.0002081	4.7e-06
263.23	2120	0.0002077	4.9e-06
263.23	3660	0.0002139	4.8e-06
263.23	3670	0.0002137	4.8e-06
263.23	3680	0.0002138	4.8e-06
263.23	3720	0.000214	4.8e-06
263.23	3780	0.000214	4.8e-06
263.23	4690	0.0002177	4.9e-06
263.23	4990	0.0002192	5e-06
263.23	5010	0.0002195	5e-06
263.23	7000	0.0002258	5e-06
263.23	7050	0.0002257	5.1e-06
263.23	7190	0.0002262	5.2e-06
263.23	7220	0.000227	5.2e-06
263.23	3670	0.0002139	4.8e-06
263.23	3680	0.0002137	4.8e-06
273.24	2150	0.0001827	4.3e-06
273.24	2160	0.0001825	4.2e-06
273.24	2190	0.0001826	4.2e-06
273.24	2230	0.0001829	4.3e-06
273.24	2260	0.0001829	4.2e-06
273.24	2270	0.0001829	4.2e-06
273.24	3450	0.0001878	4.3e-06
273.24	3470	0.0001877	4.3e-06
273.24	3480	0.0001873	4.3e-06
273.24	3500	0.0001878	4.3e-06
273.24	5030	0.0001923	4.4e-06
273.24	5040	0.0001925	4.4e-06
273.24	5060	0.0001925	4.4e-06
273.24	7360	0.0002011	4.6e-06
273.24	7450	0.0002008	4.6e-06
273.24	7520	0.0002015	4.6e-06
273.24	9710	0.0002103	4.8e-06
273.24	9880	0.0002106	4.8e-06
273.24	2190	0.0001823	4.2e-06
273.24	3450	0.0001876	4.3e-06
273.24	7450	0.0002008	4.6e-06
273.24	9880	0.0002104	4.8e-06
283.34	2000	0.0001592	3.8e-06
283.34	2060	0.0001592	3.8e-06
283.34	2120	0.0001591	3.8e-06
283.34	2160	0.0001591	3.8e-06
283.34	2220	0.0001593	3.8e-06
283.34	2230	0.0001592	4e-06
283.34	2250	0.0001596	3.9e-06
283.34	2260	0.0001595	3.9e-06
283.34	2270	0.0001597	3.9e-06
283.34	3720	0.000165	3.9e-06
283.34	3770	0.0001651	3.9e-06
283.34	3820	0.0001654	3.9e-06
283.34	3860	0.0001655	3.9e-06
283.34	3880	0.0001657	4e-06
283.34	4970	0.0001693	4e-06
283.34	5000	0.0001693	4e-06
283.34	5030	0.0001696	4e-06
283.34	5040	0.0001695	4e-06
283.34	7600	0.000178	4.2e-06
283.34	7640	0.0001783	4.2e-06
283.34	7680	0.0001784	4.2e-06
283.34	9750	0.0001851	4.6e-06
283.34	9860	0.0001854	4.7e-06
283.34	9900	0.0001857	4.5e-06
283.34	9920	0.0001857	4.5e-06
283.34	9930	0.0001856	4.4e-06
283.34	2230	0.0001596	3.9e-06
283.34	3770	0.0001654	3.9e-06
293.33	1920	0.0001394	3.5e-06
293.33	1940	0.0001392	3.5e-06
293.33	1970	0.0001396	3.5e-06
293.33	2020	0.0001394	3.5e-06
293.33	3570	0.000145	3.6e-06
293.33	3690	0.0001454	3.6e-06
293.33	3720	0.0001455	3.6e-06
293.33	3750	0.0001457	3.6e-06
293.33	4910	0.00015	3.7e-06
293.33	5000	0.0001506	3.7e-06
293.33	5030	0.0001506	3.7e-06
293.33	7510	0.0001585	3.8e-06
293.33	7540	0.0001584	3.8e-06
293.33	7560	0.0001584	3.8e-06
293.33	9770	0.0001667	3.9e-06
293.33	9810	0.0001669	4e-06
293.33	9850	0.0001666	4e-06
293.33	9880	0.0001669	4e-06
293.33	9930	0.0001672	4e-06
293.33	4910	0.0001503	3.7e-06
