Measured thermophysical data. Solubility of Form r and Form a of Glycine in Aqueous Solutions
Source: J. Chem. Eng. Data, 2008, 10.1021/je7006988
Compound 1: 2-aminoacetic acid, C2H5NO2, InChI=1S/C2H5NO2/c3-1-2(4)5/h1,3H2,(H,4,5), purity 99%
Compound 2: water, H2O, InChI=1S/H2O/h1H2
Compound 3: methanol, CH4O, InChI=1S/CH4O/c1-2/h2H,1H3, purity 99.8%

System: 2-aminoacetic acid + water; phases: Liquid, Metastable crystal
Fixed: Pressure, kPa = 101
Property: Mass ratio of solute to solvent of 2-aminoacetic acid (Liquid); method: gravimetric
Temperature, K	Mass ratio of solute to solvent of 2-aminoacetic acid	uncertainty
278.15	0.1411	0.0057
285.65	0.1667	0.0067
293.15	0.1989	0.008
298.15	0.2268	0.0091
301.65	0.2417	0.0097
306.15	0.2596	0.0104
309.15	0.2831	0.0114
319.15	0.3345	0.0134
323.15	0.3542	0.0142
328.15	0.3848	0.0154

System: 2-aminoacetic acid + water; phases: Liquid, Crystal
Fixed: Pressure, kPa = 101
Property: Mass ratio of solute to solvent of 2-aminoacetic acid (Liquid); method: gravimetric
Temperature, K	Mass ratio of solute to solvent of 2-aminoacetic acid	uncertainty
278.15	0.1272	0.0051
287.15	0.1548	0.0062
293.15	0.177	0.0071
298.15	0.2021	0.0081
303.15	0.2256	0.0091
310.15	0.2607	0.0105
315.15	0.2861	0.0115
323.15	0.3362	0.0135
330.15	0.3756	0.0151
334.15	0.3995	0.016

System: 2-aminoacetic acid + methanol; phases: Liquid, Crystal
Property: Mass ratio of solute to solvent of 2-aminoacetic acid (Liquid); method: OTHER::sMethod:UNKNOWN
Temperature, K	Pressure, kPa	Mass ratio of solute to solvent of 2-aminoacetic acid	uncertainty
293.15	101	0.0011	0.0036

System: 2-aminoacetic acid + methanol; phases: Liquid, Metastable crystal
Property: Mass ratio of solute to solvent of 2-aminoacetic acid (Liquid); method: OTHER::sMethod:UNKNOWN
Temperature, K	Pressure, kPa	Mass ratio of solute to solvent of 2-aminoacetic acid	uncertainty
293.15	101	0.0024	0.0034

System: 2-aminoacetic acid + methanol + water; phases: Liquid, Crystal
Fixed: Temperature, K = 293.15
Fixed: Pressure, kPa = 101
Property: Mass ratio of solute to solvent of 2-aminoacetic acid (Liquid); method: UNKNOWN
Solvent: Mass fraction of methanol	Mass ratio of solute to solvent of 2-aminoacetic acid	uncertainty
0	0.177	0.0071
0.11	0.1195	0.0048
0.147	0.102	0.0041
0.239	0.06276	0.00251
0.35	0.03493	0.00322
0.472	0.01446	0.00282
0.638	0.00402	0.00383
1	0.0011	0.0036

System: 2-aminoacetic acid + methanol + water; phases: Liquid, Metastable crystal
Fixed: Temperature, K = 293.15
Fixed: Pressure, kPa = 101
Property: Mass ratio of solute to solvent of 2-aminoacetic acid (Liquid); method: UNKNOWN
Solvent: Mass fraction of methanol	Mass ratio of solute to solvent of 2-aminoacetic acid	uncertainty
0	0.1989	0.008
0.05	0.1699	0.0068
0.1	0.1421	0.0057
0.152	0.1162	0.0046
0.191	0.0969	0.0039
0.261	0.0665	0.00266
0.317	0.05057	0.00282
0.362	0.04255	0.00262
0.444	0.02802	0.00161
0.519	0.01479	0.00222
0.604	0.00882	0.00262
0.7	0.00661	0.00302
1	0.0024	0.0034
