Measured thermophysical data. Density and Heat Capacity as a Function of Temperature for Binary Mixtures of  1-Butyl-3-methylpyridinium Tetrafluoroborate + Water, + Ethanol, and +  Nitromethane
Source: J. Chem. Eng. Data, 2007, 10.1021/je7002836
Compound 1: 1-butyl-3-methylpyridinium tetrafluoroborate, C10H16BF4N, InChI=1S/C10H16N.BF4/c1-3-4-7-11-8-5-6-10(2)9-11;2-1(3,4)5/h5-6,8-9H,3-4,7H2,1-2H3;/q+1;-1, purity 99%
Compound 2: water, H2O, InChI=1S/H2O/h1H2
Compound 3: ethanol, C2H6O, InChI=1S/C2H6O/c1-2-3/h3H,2H2,1H3, purity 99.5%
Compound 4: nitromethane, CH3NO2, InChI=1S/CH3NO2/c1-2(3)4/h1H3, purity 98.5%

System: 1-butyl-3-methylpyridinium tetrafluoroborate; phases: Liquid
Fixed: Pressure, kPa = 101
Property: Mass density, kg/m3 (Liquid); method: VIBTUB:UFactor:64
Temperature, K	Mass density, kg/m3	uncertainty
293.15	1188.6	7
298.15	1185.2	6.9
303.15	1181.7	6.8
308.15	1178.3	6.7
313.15	1174.9	6.6
318.15	1171.6	6.6

System: 1-butyl-3-methylpyridinium tetrafluoroborate; phases: Liquid
Fixed: Pressure, kPa = 101
Property: Molar heat capacity at constant pressure, J/K/mol (Liquid); method: SDSC:UFactor:2
Temperature, K	Molar heat capacity at constant pressure, J/K/mol	uncertainty
293.15	385.8	12
298.15	387.7	12
303.15	390.1	12.1
308.15	392.8	12.2
313.15	395.9	12.3
318.15	399.3	12.4

System: ethanol; phases: Liquid
Fixed: Pressure, kPa = 101
Property: Mass density, kg/m3 (Liquid); method: VIBTUB:UFactor:32
Temperature, K	Mass density, kg/m3	uncertainty
293.15	789.6	3.7
298.15	785.3	3.7
303.15	781	3.8
308.15	776.7	3.8
313.15	772.3	3.9
318.15	767.8	3.9

System: ethanol; phases: Liquid
Fixed: Pressure, kPa = 101
Property: Molar heat capacity at constant pressure, J/K/mol (Liquid); method: SDSC:UFactor:2
Temperature, K	Molar heat capacity at constant pressure, J/K/mol	uncertainty
293.15	111.3	3.4
298.15	113.3	3.5
303.15	115.3	3.6
308.15	117.5	3.6
313.15	119.7	3.7
318.15	122.1	3.8

System: nitromethane; phases: Liquid
Fixed: Pressure, kPa = 101
Property: Mass density, kg/m3 (Liquid); method: VIBTUB:UFactor:32
Temperature, K	Mass density, kg/m3	uncertainty
293.15	1140.2	3.3
298.15	1133.4	3.2
303.15	1126.6	3.1
308.15	1119.7	3.1
313.15	1112.9	3
318.15	1106	2.9

System: nitromethane; phases: Liquid
Fixed: Pressure, kPa = 101
Property: Molar heat capacity at constant pressure, J/K/mol (Liquid); method: SDSC:UFactor:2
Temperature, K	Molar heat capacity at constant pressure, J/K/mol	uncertainty
293.15	106.6	3.3
298.15	106.9	3.3
303.15	107.3	3.3
308.15	107.7	3.3
313.15	108.2	3.4
318.15	108.6	3.4

System: water + 1-butyl-3-methylpyridinium tetrafluoroborate; phases: Liquid
Fixed: Pressure, kPa = 101
Property: Mass density, kg/m3 (Liquid); method: VIBTUB:UFactor:64
Temperature, K	Mole fraction of 1-butyl-3-methylpyridinium tetrafluoroborate	Mass density, kg/m3	uncertainty
293.15	0	998.2	2.2
293.15	0.0494	1066	3.9
293.15	0.0973	1095.9	4.6
293.15	0.2312	1139.7	5.7
293.15	0.3559	1157.3	6.2
293.15	0.4035	1161.8	6.3
293.15	0.5195	1167.9	6.5
293.15	0.7087	1179.5	6.8
293.15	0.7512	1181.2	6.8
293.15	0.8838	1183.2	6.8
293.15	1	1188.6	7
298.15	0	997.1	2.3
298.15	0.0494	1063.3	3.8
298.15	0.0973	1092.7	4.5
298.15	0.2312	1136	5.6
298.15	0.3559	1153.6	6.1
298.15	0.4035	1158.2	6.2
298.15	0.5195	1164.3	6.4
298.15	0.7087	1176	6.7
298.15	0.7512	1177.8	6.7
298.15	0.8838	1179.8	6.8
298.15	1	1185.2	6.9
303.15	0	995.7	2.3
303.15	0.0494	1060.4	3.7
303.15	0.0973	1089.4	4.5
303.15	0.2312	1132.3	5.5
303.15	0.3559	1150	6
303.15	0.4035	1154.5	6.1
303.15	0.5195	1160.8	6.3
303.15	0.7087	1172.5	6.6
303.15	0.7512	1174.3	6.6
303.15	0.8838	1176.3	6.7
303.15	1	1181.7	6.8
308.15	0	994.1	2.3
308.15	0.0494	1057.5	3.6
308.15	0.0973	1086	4.4
308.15	0.2312	1128.7	5.5
308.15	0.3559	1146.4	5.9
308.15	0.4035	1150.9	6
308.15	0.5195	1157.2	6.2
308.15	0.7087	1169.1	6.5
308.15	0.7512	1170.8	6.5
308.15	0.8838	1172.9	6.6
308.15	1	1178.3	6.7
313.15	0	992.2	2.4
313.15	0.0494	1054.5	3.6
313.15	0.0973	1082.5	4.3
313.15	0.2312	1125	5.4
313.15	0.3559	1142.7	5.8
313.15	0.4035	1147.3	5.9
313.15	0.5195	1153.7	6.1
313.15	0.7087	1165.6	6.4
313.15	0.7512	1167.4	6.4
313.15	0.8838	1169.5	6.5
313.15	1	1174.9	6.6
318.15	0	990.2	2.4
318.15	0.0494	1051.3	3.5
318.15	0.0973	1079	4.2
318.15	0.2312	1121.2	5.3
318.15	0.3559	1139.1	5.7
318.15	0.4035	1143.7	5.8
318.15	0.5195	1150.2	6
318.15	0.7087	1162.2	6.3
318.15	0.7512	1163.9	6.4
318.15	0.8838	1166.1	6.4
318.15	1	1171.6	6.6

System: water + 1-butyl-3-methylpyridinium tetrafluoroborate; phases: Liquid
Fixed: Pressure, kPa = 101
Property: Molar heat capacity at constant pressure, J/K/mol (Liquid); method: SDSC:UFactor:2
Temperature, K	Mole fraction of 1-butyl-3-methylpyridinium tetrafluoroborate	Molar heat capacity at constant pressure, J/K/mol	uncertainty
293.15	0	75.4	2.3
293.15	0.0015	76.7	2.4
293.15	0.002	77.4	2.4
293.15	0.0027	77.7	2.4
293.15	0.0036	78.1	2.4
293.15	0.0102	81	2.5
293.15	0.0938	112.7	3.5
293.15	0.1885	142.4	4.4
293.15	0.2704	167	5.2
293.15	0.362	193.8	6
293.15	0.4454	218.2	6.8
293.15	0.6432	275.2	8.5
293.15	0.8094	325.2	10.1
293.15	0.8791	346	10.7
293.15	0.9468	367.8	11.4
293.15	1	385.8	12
298.15	0	75.3	2.3
298.15	0.0015	76.7	2.4
298.15	0.002	77.4	2.4
298.15	0.0027	77.7	2.4
298.15	0.0036	78.2	2.4
298.15	0.0102	81.1	2.5
298.15	0.0938	113.1	3.5
298.15	0.1885	143.1	4.4
298.15	0.2704	167.8	5.2
298.15	0.362	195	6
298.15	0.4454	219.3	6.8
298.15	0.6432	276.9	8.6
298.15	0.8094	327.3	10.1
298.15	0.8791	348.3	10.8
298.15	0.9468	370.4	11.5
298.15	1	387.7	12
303.15	0	75.3	2.3
303.15	0.0015	76.8	2.4
303.15	0.002	77.5	2.4
303.15	0.0027	77.7	2.4
303.15	0.0036	78.2	2.4
303.15	0.0102	81.2	2.5
303.15	0.0938	113.4	3.5
303.15	0.1885	143.8	4.5
303.15	0.2704	168.6	5.2
303.15	0.362	196.1	6.1
303.15	0.4454	220.5	6.8
303.15	0.6432	278.6	8.6
303.15	0.8094	329.5	10.2
303.15	0.8791	350.8	10.9
303.15	0.9468	373	11.6
303.15	1	390.1	12.1
308.15	0	75.2	2.3
308.15	0.0015	76.9	2.4
308.15	0.002	77.6	2.4
308.15	0.0027	77.8	2.4
308.15	0.0036	78.3	2.4
308.15	0.0102	81.3	2.5
308.15	0.0938	113.8	3.5
308.15	0.1885	144.5	4.5
308.15	0.2704	169.5	5.3
308.15	0.362	197.3	6.1
308.15	0.4454	221.7	6.9
308.15	0.6432	280.3	8.7
308.15	0.8094	331.7	10.3
308.15	0.8791	353.3	10.9
308.15	0.9468	375.7	11.6
308.15	1	392.8	12.2
313.15	0	75.2	2.3
313.15	0.0015	77	2.4
313.15	0.002	77.6	2.4
313.15	0.0027	77.9	2.4
313.15	0.0036	78.4	2.4
313.15	0.0102	81.5	2.5
313.15	0.0938	114.2	3.5
313.15	0.1885	145.2	4.5
313.15	0.2704	170.4	5.3
313.15	0.362	198.4	6.1
313.15	0.4454	222.8	6.9
313.15	0.6432	282.1	8.7
313.15	0.8094	334	10.3
313.15	0.8791	355.8	11
313.15	0.9468	378.4	11.7
313.15	1	395.9	12.3
318.15	0	75.3	2.3
318.15	0.0015	77.1	2.4
318.15	0.002	77.7	2.4
318.15	0.0027	78	2.4
318.15	0.0036	78.4	2.4
318.15	0.0102	81.7	2.5
318.15	0.0938	114.7	3.6
318.15	0.1885	146	4.5
318.15	0.2704	171.4	5.3
318.15	0.362	199.5	6.2
318.15	0.4454	224	6.9
318.15	0.6432	283.8	8.8
318.15	0.8094	336.3	10.4
318.15	0.8791	358.5	11.1
318.15	0.9468	381.3	11.8
318.15	1	399.3	12.4

System: ethanol + 1-butyl-3-methylpyridinium tetrafluoroborate; phases: Liquid
Fixed: Pressure, kPa = 101
Property: Mass density, kg/m3 (Liquid); method: VIBTUB:UFactor:32
Temperature, K	Mole fraction of 1-butyl-3-methylpyridinium tetrafluoroborate	Mass density, kg/m3	uncertainty
293.15	0	789.6	3.7
293.15	0.0073	800.5	3.5
293.15	0.0126	807.8	3.4
293.15	0.0231	821.5	3.3
293.15	0.0512	855.1	2.9
293.15	0.1003	904.1	2.2
293.15	0.2569	1010.3	1.2
293.15	0.3847	1065.4	1.9
293.15	0.4841	1097.1	2.3
293.15	0.5963	1124.9	2.7
293.15	0.7107	1148	3
293.15	0.7966	1162.2	3.2
293.15	0.9514	1183.1	3.5
293.15	1	1188.6	3.6
298.15	0	785.3	3.7
298.15	0.0073	796.3	3.6
298.15	0.0126	803.5	3.5
298.15	0.0231	817.3	3.3
298.15	0.0512	851	2.9
298.15	0.1003	900.1	2.3
298.15	0.2569	1006.4	1.2
298.15	0.3847	1061.6	1.9
298.15	0.4841	1093.4	2.3
298.15	0.5963	1121.3	2.7
298.15	0.7107	1144.5	3
298.15	0.7966	1158.7	3.2
298.15	0.9514	1179.6	3.5
298.15	1	1185.2	3.6
303.15	0	781	3.8
303.15	0.0073	792	3.6
303.15	0.0126	799.3	3.5
303.15	0.0231	813	3.4
303.15	0.0512	846.8	3
303.15	0.1003	896	2.3
303.15	0.2569	1002.6	1.1
303.15	0.3847	1057.9	1.8
303.15	0.4841	1089.7	2.2
303.15	0.5963	1117.7	2.6
303.15	0.7107	1140.9	2.9
303.15	0.7966	1155.2	3.1
303.15	0.9514	1176.2	3.5
303.15	1	1181.7	3.5
308.15	0	776.7	3.8
308.15	0.0073	787.6	3.7
308.15	0.0126	794.9	3.6
308.15	0.0231	808.8	3.4
308.15	0.0512	842.6	3
308.15	0.1003	891.9	2.4
308.15	0.2569	998.7	1.1
308.15	0.3847	1054.2	1.8
308.15	0.4841	1086.1	2.2
308.15	0.5963	1114.2	2.6
308.15	0.7107	1137.4	2.9
308.15	0.7966	1151.7	3.1
308.15	0.9514	1172.8	3.4
308.15	1	1178.3	3.5
313.15	0	772.3	3.9
313.15	0.0073	783.3	3.7
313.15	0.0126	790.6	3.7
313.15	0.0231	804.5	3.5
313.15	0.0512	838.4	3.1
313.15	0.1003	887.8	2.4
313.15	0.2569	994.8	1.1
313.15	0.3847	1050.4	1.7
313.15	0.4841	1082.4	2.2
313.15	0.5963	1110.6	2.5
313.15	0.7107	1133.9	2.9
313.15	0.7966	1148.3	3.1
313.15	0.9514	1169.4	3.4
313.15	1	1174.9	3.5
318.15	0	767.8	3.9
318.15	0.0073	778.9	3.8
318.15	0.0126	786.2	3.7
318.15	0.0231	800.3	3.5
318.15	0.0512	834.1	3.1
318.15	0.1003	883.7	2.5
318.15	0.2569	990.9	1.2
318.15	0.3847	1046.7	1.7
318.15	0.4841	1078.7	2.1
318.15	0.5963	1107.1	2.5
318.15	0.7107	1130.4	2.8
318.15	0.7966	1144.8	3
318.15	0.9514	1166	3.3
318.15	1	1171.6	3.4

System: ethanol + 1-butyl-3-methylpyridinium tetrafluoroborate; phases: Liquid
Fixed: Pressure, kPa = 101
Property: Molar heat capacity at constant pressure, J/K/mol (Liquid); method: SDSC:UFactor:2
Temperature, K	Mole fraction of 1-butyl-3-methylpyridinium tetrafluoroborate	Molar heat capacity at constant pressure, J/K/mol	uncertainty
293.15	0	111.3	3.4
293.15	0.0073	113.6	3.5
293.15	0.0126	115.2	3.6
293.15	0.0231	119.1	3.7
293.15	0.0512	129.4	4
293.15	0.1003	146.4	4.5
293.15	0.2569	190.3	5.9
293.15	0.3847	223.7	6.9
293.15	0.5031	252.6	7.8
293.15	0.5963	276.9	8.6
293.15	0.6919	301.6	9.3
293.15	0.7784	324.5	10.1
293.15	0.8711	350	10.8
293.15	0.8923	355.9	11
293.15	0.9514	372.8	11.6
293.15	1	385.8	12
298.15	0	113.3	3.5
298.15	0.0073	115.4	3.6
298.15	0.0126	117.1	3.6
298.15	0.0231	120.9	3.7
298.15	0.0512	131	4.1
298.15	0.1003	147.5	4.6
298.15	0.2569	191.3	5.9
298.15	0.3847	224.8	7
298.15	0.5031	254.2	7.9
298.15	0.5963	278.5	8.6
298.15	0.6919	303.4	9.4
298.15	0.7784	326.6	10.1
298.15	0.8711	352.1	10.9
298.15	0.8923	358.1	11.1
298.15	0.9514	375.1	11.6
298.15	1	387.7	12
303.15	0	115.3	3.6
303.15	0.0073	117.3	3.6
303.15	0.0126	119.1	3.7
303.15	0.0231	122.7	3.8
303.15	0.0512	132.6	4.1
303.15	0.1003	148.7	4.6
303.15	0.2569	192.4	6
303.15	0.3847	226	7
303.15	0.5031	255.7	7.9
303.15	0.5963	280.1	8.7
303.15	0.6919	305.3	9.5
303.15	0.7784	328.9	10.2
303.15	0.8711	354.4	11
303.15	0.8923	360.5	11.2
303.15	0.9514	377.4	11.7
303.15	1	390.1	12.1
308.15	0	117.5	3.6
308.15	0.0073	119.5	3.7
308.15	0.0126	121.2	3.8
308.15	0.0231	124.7	3.9
308.15	0.0512	134.3	4.2
308.15	0.1003	150.1	4.7
308.15	0.2569	193.6	6
308.15	0.3847	227.2	7
308.15	0.5031	257.3	8
308.15	0.5963	281.8	8.7
308.15	0.6919	307.3	9.5
308.15	0.7784	331.1	10.3
308.15	0.8711	356.9	11.1
308.15	0.8923	363	11.2
308.15	0.9514	379.7	11.8
308.15	1	392.8	12.2
313.15	0	119.7	3.7
313.15	0.0073	121.7	3.8
313.15	0.0126	123.3	3.8
313.15	0.0231	126.7	3.9
313.15	0.0512	136	4.2
313.15	0.1003	151.6	4.7
313.15	0.2569	194.9	6
313.15	0.3847	228.5	7.1
313.15	0.5031	258.9	8
313.15	0.5963	283.5	8.8
313.15	0.6919	309.4	9.6
313.15	0.7784	333.5	10.3
313.15	0.8711	359.5	11.1
313.15	0.8923	365.7	11.3
313.15	0.9514	382	11.8
313.15	1	395.9	12.3
318.15	0	122.1	3.8
318.15	0.0073	124.1	3.8
318.15	0.0126	125.6	3.9
318.15	0.0231	128.8	4
318.15	0.0512	137.9	4.3
318.15	0.1003	153.2	4.7
318.15	0.2569	196.2	6.1
318.15	0.3847	229.8	7.1
318.15	0.5031	260.4	8.1
318.15	0.5963	285.3	8.8
318.15	0.6919	311.5	9.7
318.15	0.7784	335.9	10.4
318.15	0.8711	362.2	11.2
318.15	0.8923	368.5	11.4
318.15	0.9514	384.4	11.9
318.15	1	399.3	12.4

System: nitromethane + 1-butyl-3-methylpyridinium tetrafluoroborate; phases: Liquid
Fixed: Pressure, kPa = 101
Property: Mass density, kg/m3 (Liquid); method: VIBTUB:UFactor:32
Temperature, K	Mole fraction of 1-butyl-3-methylpyridinium tetrafluoroborate	Mass density, kg/m3	uncertainty
293.15	0	1140.2	3.3
293.15	0.0517	1153.4	3.5
293.15	0.1038	1161.5	3.6
293.15	0.1952	1170.3	3.7
293.15	0.3078	1176.7	3.7
293.15	0.3563	1178.7	3.7
293.15	0.3998	1180.1	3.7
293.15	0.5121	1183	3.7
293.15	0.5994	1184.6	3.7
293.15	0.6856	1185.8	3.7
293.15	0.7863	1186.9	3.7
293.15	0.8842	1187.7	3.7
293.15	0.9034	1187.9	3.7
293.15	0.941	1188.2	3.6
293.15	1	1188.6	3.6
298.15	0	1133.4	3.2
298.15	0.0517	1147.4	3.4
298.15	0.1038	1156	3.5
298.15	0.1952	1165.4	3.6
298.15	0.3078	1172.2	3.6
298.15	0.3563	1174.3	3.7
298.15	0.3998	1175.9	3.7
298.15	0.5121	1179	3.7
298.15	0.5994	1180.7	3.7
298.15	0.6856	1182.1	3.6
298.15	0.7863	1183.3	3.6
298.15	0.8842	1184.2	3.6
298.15	0.9034	1184.4	3.6
298.15	0.941	1184.8	3.6
298.15	1	1185.2	3.6
303.15	0	1126.6	3.1
303.15	0.0517	1141.3	3.3
303.15	0.1038	1150.5	3.4
303.15	0.1952	1160.4	3.5
303.15	0.3078	1167.8	3.6
303.15	0.3563	1170	3.6
303.15	0.3998	1171.6	3.6
303.15	0.5121	1175	3.6
303.15	0.5994	1176.9	3.6
303.15	0.6856	1178.3	3.6
303.15	0.7863	1179.7	3.6
303.15	0.8842	1180.7	3.6
303.15	0.9034	1180.9	3.6
303.15	0.941	1181.3	3.6
303.15	1	1181.7	3.5
308.15	0	1119.7	3.1
308.15	0.0517	1135.3	3.2
308.15	0.1038	1144.9	3.4
308.15	0.1952	1155.5	3.5
308.15	0.3078	1163.3	3.5
308.15	0.3563	1165.7	3.5
308.15	0.3998	1167.4	3.5
308.15	0.5121	1171	3.6
308.15	0.5994	1173.1	3.6
308.15	0.6856	1174.6	3.5
308.15	0.7863	1176.1	3.5
308.15	0.8842	1177.2	3.5
308.15	0.9034	1177.4	3.5
308.15	0.941	1177.9	3.5
308.15	1	1178.3	3.5
313.15	0	1112.9	3
313.15	0.0517	1129.2	3.2
313.15	0.1038	1139.4	3.3
313.15	0.1952	1150.6	3.4
313.15	0.3078	1158.8	3.5
313.15	0.3563	1161.4	3.5
313.15	0.3998	1163.2	3.5
313.15	0.5121	1167	3.5
313.15	0.5994	1169.2	3.5
313.15	0.6856	1170.9	3.5
313.15	0.7863	1172.5	3.5
313.15	0.8842	1173.7	3.5
313.15	0.9034	1174	3.5
313.15	0.941	1174.4	3.5
313.15	1	1174.9	3.5
318.15	0	1106	2.9
318.15	0.0517	1123.1	3.1
318.15	0.1038	1133.9	3.2
318.15	0.1952	1145.6	3.3
318.15	0.3078	1154.4	3.4
318.15	0.3563	1157.1	3.4
318.15	0.3998	1159.1	3.4
318.15	0.5121	1163.1	3.4
318.15	0.5994	1165.4	3.5
318.15	0.6856	1167.2	3.4
318.15	0.7863	1169	3.4
318.15	0.8842	1170.3	3.4
318.15	0.9034	1170.5	3.4
318.15	0.941	1171	3.4
318.15	1	1171.6	3.4

System: nitromethane + 1-butyl-3-methylpyridinium tetrafluoroborate; phases: Liquid
Fixed: Pressure, kPa = 101
Property: Molar heat capacity at constant pressure, J/K/mol (Liquid); method: SDSC:UFactor:2
Temperature, K	Mole fraction of 1-butyl-3-methylpyridinium tetrafluoroborate	Molar heat capacity at constant pressure, J/K/mol	uncertainty
293.15	0	106.6	3.3
293.15	0.0517	120.3	3.7
293.15	0.1038	134.2	4.2
293.15	0.1952	159.9	5
293.15	0.3563	205.2	6.4
293.15	0.3998	217.4	6.7
293.15	0.5121	249.2	7.7
293.15	0.5994	273.7	8.5
293.15	0.6856	297.7	9.2
293.15	0.7863	326.4	10.1
293.15	0.8842	353.6	11
293.15	0.9034	359.1	11.1
293.15	0.941	369.8	11.5
293.15	1	385.8	12
298.15	0	106.9	3.3
298.15	0.0517	120.5	3.7
298.15	0.1038	134.7	4.2
298.15	0.1952	160.4	5
298.15	0.3563	206	6.4
298.15	0.3998	218.3	6.8
298.15	0.5121	250.2	7.8
298.15	0.5994	274.8	8.5
298.15	0.6856	299	9.3
298.15	0.7863	327.8	10.2
298.15	0.8842	355.3	11
298.15	0.9034	360.8	11.2
298.15	0.941	371.6	11.5
298.15	1	387.7	12
303.15	0	107.3	3.3
303.15	0.0517	120.9	3.7
303.15	0.1038	135.2	4.2
303.15	0.1952	161	5
303.15	0.3563	206.9	6.4
303.15	0.3998	219.3	6.8
303.15	0.5121	251.4	7.8
303.15	0.5994	276.2	8.6
303.15	0.6856	300.6	9.3
303.15	0.7863	329.6	10.2
303.15	0.8842	357.3	11.1
303.15	0.9034	362.9	11.2
303.15	0.941	373.7	11.6
303.15	1	390.1	12.1
308.15	0	107.7	3.3
308.15	0.0517	121.3	3.8
308.15	0.1038	135.7	4.2
308.15	0.1952	161.8	5
308.15	0.3563	208	6.4
308.15	0.3998	220.5	6.8
308.15	0.5121	252.8	7.8
308.15	0.5994	277.9	8.6
308.15	0.6856	302.5	9.4
308.15	0.7863	331.7	10.3
308.15	0.8842	359.7	11.1
308.15	0.9034	365.3	11.3
308.15	0.941	376.2	11.7
308.15	1	392.8	12.2
313.15	0	108.2	3.4
313.15	0.0517	121.9	3.8
313.15	0.1038	136.4	4.2
313.15	0.1952	162.5	5
313.15	0.3563	209.2	6.5
313.15	0.3998	221.9	6.9
313.15	0.5121	254.4	7.9
313.15	0.5994	279.8	8.7
313.15	0.6856	304.6	9.4
313.15	0.7863	334.1	10.4
313.15	0.8842	362.4	11.2
313.15	0.9034	368.1	11.4
313.15	0.941	379	11.7
313.15	1	395.9	12.3
318.15	0	108.6	3.4
318.15	0.0517	122.4	3.8
318.15	0.1038	137.1	4.2
318.15	0.1952	163.5	5.1
318.15	0.3563	210.6	6.5
318.15	0.3998	223.5	6.9
318.15	0.5121	256.3	7.9
318.15	0.5994	281.9	8.7
318.15	0.6856	307	9.5
318.15	0.7863	336.8	10.4
318.15	0.8842	365.5	11.3
318.15	0.9034	371.1	11.5
318.15	0.941	382.3	11.8
318.15	1	399.3	12.4
