Measured thermophysical data. Excess Enthalpies of (N-Methylformamide or N-Methylacetamide) + Aromatic Compounds at 303.15 K
Source: J. Chem. Eng. Data, 2008, 10.1021/je700414c
Compound 1: N-methylformamide, C2H5NO, InChI=1S/C2H5NO/c1-3-2-4/h2H,1H3,(H,3,4), purity 99%
Compound 2: N-methylacetamide, C3H7NO, InChI=1S/C3H7NO/c1-3(5)4-2/h1-2H3,(H,4,5), purity 99%
Compound 3: benzene, C6H6, InChI=1S/C6H6/c1-2-4-6-5-3-1/h1-6H, purity 99.7%
Compound 4: toluene, C7H8, InChI=1S/C7H8/c1-7-5-3-2-4-6-7/h2-6H,1H3, purity 99.7%
Compound 5: 1,4-dimethylbenzene, C8H10, InChI=1S/C8H10/c1-7-3-5-8(2)6-4-7/h3-6H,1-2H3, purity 99%
Compound 6: 1,3,5-trimethylbenzene, C9H12, InChI=1S/C9H12/c1-7-4-8(2)6-9(3)5-7/h4-6H,1-3H3, purity 98.5%

System: benzene + N-methylformamide; phases: Liquid
Fixed: Temperature, K = 303.15
Fixed: Pressure, kPa = 101
Property: Excess molar enthalpy (molar enthalpy of mixing), kJ/mol (Liquid); method: CALVET:UFactor:4
Mole fraction of N-methylformamide	Excess molar enthalpy (molar enthalpy of mixing), kJ/mol	uncertainty
0.0011	0.011	0.004
0.0019	0.019	0.004
0.1401	0.339	0.018
0.2247	0.384	0.021
0.2851	0.405	0.022
0.3412	0.416	0.022
0.372	0.423	0.022
0.428	0.417	0.022
0.4525	0.409	0.022
0.5333	0.388	0.021
0.6012	0.35	0.019
0.6365	0.333	0.018
0.7237	0.272	0.015
0.8274	0.178	0.011

System: toluene + N-methylformamide; phases: Liquid
Fixed: Temperature, K = 303.15
Fixed: Pressure, kPa = 101
Property: Excess molar enthalpy (molar enthalpy of mixing), kJ/mol (Liquid); method: CALVET:UFactor:4
Mole fraction of N-methylformamide	Excess molar enthalpy (molar enthalpy of mixing), kJ/mol	uncertainty
0.1531	0.408	0.022
0.1852	0.425	0.023
0.2625	0.461	0.024
0.3018	0.467	0.025
0.3404	0.482	0.025
0.3983	0.483	0.025
0.4643	0.484	0.025
0.4821	0.475	0.025
0.5253	0.459	0.024
0.5951	0.432	0.023
0.6171	0.426	0.023
0.645	0.402	0.021
0.7416	0.32	0.017
0.8178	0.24	0.014
0.9166	0.127	0.008

System: 1,4-dimethylbenzene + N-methylformamide; phases: Liquid
Fixed: Temperature, K = 303.15
Fixed: Pressure, kPa = 101
Property: Excess molar enthalpy (molar enthalpy of mixing), kJ/mol (Liquid); method: CALVET:UFactor:4
Mole fraction of N-methylformamide	Excess molar enthalpy (molar enthalpy of mixing), kJ/mol	uncertainty
0.0589	0.291	0.016
0.0809	0.33	0.018
0.1371	0.439	0.023
0.648	0.489	0.026
0.7042	0.44	0.023
0.7619	0.381	0.02
0.8196	0.302	0.017
0.8715	0.223	0.013
0.9536	0.101	0.007

System: benzene + N-methylacetamide; phases: Liquid
Fixed: Temperature, K = 303.15
Fixed: Pressure, kPa = 101
Property: Excess molar enthalpy (molar enthalpy of mixing), kJ/mol (Liquid); method: CALVET:UFactor:8
Mole fraction of N-methylacetamide	Excess molar enthalpy (molar enthalpy of mixing), kJ/mol	uncertainty
0.0848	0.214	0.02
0.1579	0.235	0.021
0.2196	0.241	0.022
0.2809	0.236	0.021
0.3924	0.216	0.02
0.4282	0.194	0.018
0.4628	0.176	0.017
0.495	0.164	0.016
0.5438	0.144	0.015
0.567	0.14	0.015
0.6331	0.123	0.014
0.766	0.072	0.011
0.8432	0.052	0.009
0.8931	0.035	0.008

System: N-methylacetamide + toluene; phases: Liquid
Fixed: Temperature, K = 303.15
Fixed: Pressure, kPa = 101
Property: Excess molar enthalpy (molar enthalpy of mixing), kJ/mol (Liquid); method: CALVET:UFactor:6
Mole fraction of N-methylacetamide	Excess molar enthalpy (molar enthalpy of mixing), kJ/mol	uncertainty
0.1142	0.259	0.018
0.2405	0.259	0.018
0.2954	0.239	0.017
0.377	0.221	0.016
0.4002	0.218	0.016
0.4365	0.2	0.015
0.4708	0.185	0.014
0.5227	0.179	0.014
0.5843	0.163	0.013
0.6502	0.126	0.011
0.7076	0.106	0.01
0.7798	0.075	0.008
0.9016	0.031	0.006

System: N-methylacetamide + 1,4-dimethylbenzene; phases: Liquid
Fixed: Temperature, K = 303.15
Fixed: Pressure, kPa = 101
Property: Excess molar enthalpy (molar enthalpy of mixing), kJ/mol (Liquid); method: CALVET:UFactor:4
Mole fraction of N-methylacetamide	Excess molar enthalpy (molar enthalpy of mixing), kJ/mol	uncertainty
0.1224	0.279	0.015
0.1703	0.291	0.016
0.2407	0.295	0.016
0.3474	0.295	0.016
0.4018	0.284	0.016
0.4704	0.261	0.015
0.6138	0.215	0.012
0.7126	0.168	0.01
0.7529	0.153	0.009
0.8617	0.083	0.006

System: N-methylacetamide + 1,3,5-trimethylbenzene; phases: Liquid
Fixed: Temperature, K = 303.15
Fixed: Pressure, kPa = 101
Property: Excess molar enthalpy (molar enthalpy of mixing), kJ/mol (Liquid); method: CALVET:UFactor:4
Mole fraction of N-methylacetamide	Excess molar enthalpy (molar enthalpy of mixing), kJ/mol	uncertainty
0.1463	0.342	0.019
0.2448	0.388	0.021
0.3271	0.429	0.023
0.4098	0.439	0.023
0.4989	0.437	0.023
0.5612	0.409	0.022
0.6649	0.35	0.019
0.7283	0.317	0.017
0.8071	0.254	0.014
0.884	0.176	0.011
