Measured thermophysical data. Density and Viscosity Experimental Data of the Ternary Mixtures 1-Propanol or 2-Propanol + Water + 1-Ethyl-3-methylimidazolium Ethylsulfate. Correlation and Prediction of Physical Properties of the Ternary Systems
Source: J. Chem. Eng. Data, 2008, 10.1021/je700700f
Compound 1: propan-1-ol, C3H8O, InChI=1S/C3H8O/c1-2-3-4/h4H,2-3H2,1H3
Compound 2: propan-2-ol, C3H8O, InChI=1S/C3H8O/c1-3(2)4/h3-4H,1-2H3
Compound 3: water, H2O, InChI=1S/H2O/h1H2
Compound 4: 1-ethyl-3-methylimidazolium ethyl sulfate, C8H16N2O4S, InChI=1S/C6H11N2.C2H6O4S/c1-3-8-5-4-7(2)6-8;1-2-6-7(3,4)5/h4-6H,3H2,1-2H3;2H2,1H3,(H,3,4,5)/q+1;/p-1

System: propan-1-ol; phases: Liquid
Property: Refractive index (Na D-line) (Liquid); method: Standard Abbe refractometry
Temperature, K	Pressure, kPa	Refractive index (Na D-line)	uncertainty
298.15	101.325	1.38309	0.00068

System: propan-1-ol; phases: Liquid
Property: Viscosity, Pa*s (Liquid); method: Capillary tube (Ostwald; Ubbelohde) method
Temperature, K	Pressure, kPa	Viscosity, Pa*s	uncertainty
298.15	101	0.002017	1.2e-05

System: propan-1-ol; phases: Liquid
Property: Mass density, kg/m3 (Liquid); method: VIBTUB::UFactor:4
Pressure, kPa	Temperature, K	Mass density, kg/m3	uncertainty
101	298.15	799.6	0.4

System: propan-2-ol; phases: Liquid
Property: Refractive index (Na D-line) (Liquid); method: Standard Abbe refractometry
Temperature, K	Pressure, kPa	Refractive index (Na D-line)	uncertainty
298.15	101.325	1.375	0.0007

System: propan-2-ol; phases: Liquid
Property: Viscosity, Pa*s (Liquid); method: Capillary tube (Ostwald; Ubbelohde) method
Temperature, K	Pressure, kPa	Viscosity, Pa*s	uncertainty
298.15	101	0.002082	1.3e-05

System: propan-2-ol; phases: Liquid
Property: Mass density, kg/m3 (Liquid); method: VIBTUB::UFactor:4
Pressure, kPa	Temperature, K	Mass density, kg/m3	uncertainty
101	298.15	780.7	0.5

System: water; phases: Liquid
Fixed: Temperature, K = 298.15
Fixed: Pressure, kPa = 101.325
Property: Refractive index (Na D-line) (Liquid); method: Standard Abbe refractometry
Refractive index (Na D-line)	uncertainty
1.33251	0.00068
1.3325	0.0007

System: water; phases: Liquid
Property: Viscosity, Pa*s (Liquid); method: Capillary tube (Ostwald; Ubbelohde) method
Temperature, K	Pressure, kPa	Viscosity, Pa*s	uncertainty
298.15	101	0.00089	8e-06

System: water; phases: Liquid
Property: Mass density, kg/m3 (Liquid); method: VIBTUB::UFactor:4
Pressure, kPa	Temperature, K	Mass density, kg/m3	uncertainty
101	298.15	997.2	0.2

System: 1-ethyl-3-methylimidazolium ethyl sulfate; phases: Liquid
Property: Mass density, kg/m3 (Liquid); method: VIBTUB:UFactor:8
Temperature, K	Pressure, kPa	Mass density, kg/m3	uncertainty
298.15	101.325	1237.63	1.69

System: 1-ethyl-3-methylimidazolium ethyl sulfate; phases: Liquid
Property: Viscosity, Pa*s (Liquid); method: Capillary tube (Ostwald; Ubbelohde) method
Temperature, K	Pressure, kPa	Viscosity, Pa*s	uncertainty
298.15	101.325	0.09758	0.003199

System: propan-1-ol + water; phases: Liquid
Fixed: Temperature, K = 298.15
Fixed: Pressure, kPa = 101
Property: Viscosity, Pa*s (Liquid); method: Capillary tube (Ostwald; Ubbelohde) method
Mole fraction of propan-1-ol	Viscosity, Pa*s	uncertainty
0	0.00089	8e-06
0.0504	0.001616	1.1e-05
0.0993	0.002121	1.3e-05
0.1986	0.002599	1.5e-05
0.2979	0.002691	1.5e-05
0.3949	0.00261	1.5e-05
0.4955	0.002494	1.4e-05
0.5953	0.002339	1.4e-05
0.6995	0.002221	1.3e-05
0.7969	0.002124	1.3e-05
0.8983	0.002026	1.2e-05
0.9518	0.001998	1.2e-05
1	0.002017	1.2e-05

System: propan-1-ol + water; phases: Liquid
Fixed: Temperature, K = 298.15
Fixed: Pressure, kPa = 101
Property: Refractive index (Na D-line) (Liquid); method: Standard Abbe refractometry
Mole fraction of propan-1-ol	Refractive index (Na D-line)	uncertainty
0	1.33251	0.00068
0.0504	1.34612	0.00068
0.0993	1.35475	0.00068
0.1986	1.36491	0.00068
0.2979	1.37116	0.00068
0.3949	1.37516	0.00068
0.4955	1.37805	0.00068
0.5953	1.38008	0.00068
0.6995	1.38154	0.00068
0.7969	1.38239	0.00068
0.8983	1.38299	0.00068
0.9518	1.38308	0.00068
1	1.38309	0.00068

System: propan-1-ol + water; phases: Liquid
Fixed: Pressure, kPa = 101
Fixed: Temperature, K = 298.15
Property: Mass density, kg/m3 (Liquid); method: VIBTUB:UFactor:4
Mole fraction of propan-1-ol	Mass density, kg/m3	uncertainty
0	997.2	0.2
0.0504	975.1	0.2
0.0993	953.3	0.2
0.1986	914.9	0.3
0.2979	887.2	0.3
0.3949	866.9	0.4
0.4955	850.3	0.4
0.5953	836.9	0.4
0.6995	825.6	0.4
0.7969	816.3	0.4
0.8983	807.7	0.4
0.9518	803.5	0.4
1	799.6	0.4

System: propan-2-ol + water; phases: Liquid
Fixed: Temperature, K = 298.15
Fixed: Pressure, kPa = 101
Property: Viscosity, Pa*s (Liquid); method: Capillary tube (Ostwald; Ubbelohde) method
Mole fraction of propan-2-ol	Viscosity, Pa*s	uncertainty
0	0.00089	8e-06
0.0491	0.001718	1.1e-05
0.1008	0.002495	1.5e-05
0.2011	0.003038	1.7e-05
0.2994	0.003087	1.8e-05
0.3992	0.002924	1.7e-05
0.4981	0.002693	1.6e-05
0.5979	0.002489	1.5e-05
0.6987	0.002274	1.4e-05
0.7993	0.002153	1.3e-05
0.8998	0.002073	1.3e-05
0.9495	0.002063	1.3e-05
1	0.002082	1.3e-05

System: propan-2-ol + water; phases: Liquid
Fixed: Temperature, K = 298.15
Fixed: Pressure, kPa = 101
Property: Refractive index (Na D-line) (Liquid); method: Standard Abbe refractometry
Mole fraction of propan-2-ol	Refractive index (Na D-line)	uncertainty
0	1.3325	0.0007
0.0491	1.3456	0.0007
0.1008	1.3557	0.0007
0.2011	1.365	0.0007
0.2994	1.3697	0.0007
0.3992	1.3724	0.0007
0.4981	1.374	0.0007
0.5979	1.3749	0.0007
0.6987	1.3754	0.0007
0.7993	1.3756	0.0007
0.8998	1.3754	0.0007
0.9495	1.3752	0.0007
1	1.375	0.0007

System: propan-2-ol + water; phases: Liquid
Fixed: Pressure, kPa = 101
Fixed: Temperature, K = 298.15
Property: Mass density, kg/m3 (Liquid); method: VIBTUB:UFactor:4
Mole fraction of propan-2-ol	Mass density, kg/m3	uncertainty
0	997.2	0.2
0.0491	974.6	0.2
0.1008	953.6	0.2
0.2011	912.6	0.3
0.2994	881.6	0.3
0.3992	857.7	0.4
0.4981	838.8	0.4
0.5979	823.5	0.4
0.6987	810.6	0.4
0.7993	799.4	0.5
0.8998	789.8	0.5
0.9495	785.4	0.5
1	780.7	0.5

System: propan-1-ol + water + 1-ethyl-3-methylimidazolium ethyl sulfate; phases: Liquid
Fixed: Pressure, kPa = 101
Fixed: Temperature, K = 298.15
Property: Viscosity, Pa*s (Liquid); method: Capillary tube (Ostwald; Ubbelohde) method
Mole fraction of propan-1-ol	Mole fraction of water	Viscosity, Pa*s	uncertainty
0.0375	0.9551	0.001651	1.1e-05
0.0384	0.946	0.001865	1.2e-05
0.0422	0.929	0.002255	1.4e-05
0.0474	0.9071	0.002604	1.5e-05
0.0559	0.8764	0.003394	2e-05
0.0662	0.8408	0.004244	2.5e-05
0.0813	0.9039	0.002179	1.3e-05
0.0826	0.782	0.005717	3.3e-05
0.0901	0.8825	0.002506	1.5e-05
0.0961	0.1388	0.050905	0.000232
0.0962	0.4557	0.02023	0.000112
0.0981	0.2695	0.034718	0.000198
0.1023	0.8549	0.003042	1.8e-05
0.1139	0.8226	0.003913	2.3e-05
0.1198	0.8735	0.002308	1.4e-05
0.128	0.6147	0.010128	5.4e-05
0.1286	0.8573	0.002642	1.6e-05
0.1383	0.7759	0.004326	2.6e-05
0.1467	0.8276	0.002968	1.8e-05
0.167	0.7932	0.003216	2e-05
0.1695	0.708	0.005451	3.1e-05
0.1845	0.7571	0.003683	2.2e-05
0.1909	0.7961	0.002701	1.7e-05
0.1971	0.1233	0.038682	0.000223
0.2001	0.4034	0.016021	8.8e-05
0.2061	0.2372	0.026738	0.000148
0.2082	0.768	0.002933	1.8e-05
0.2141	0.7076	0.004247	2.6e-05
0.2397	0.724	0.003406	2e-05
0.2412	0.5349	0.008497	4.7e-05
0.2472	0.7471	0.002852	1.7e-05
0.2588	0.6318	0.005009	3.1e-05
0.2591	0.7289	0.002963	1.8e-05
0.2669	0.6805	0.003675	2.2e-05
0.2888	0.6898	0.00314	1.9e-05
0.2998	0.3531	0.012695	6.8e-05
0.2999	0.6304	0.004063	2.6e-05
0.304	0.208	0.02022	0.000109
0.3161	0.6512	0.003146	1.9e-05
0.3408	0.6485	0.002936	1.8e-05
0.3494	0.5546	0.004634	2.9e-05
0.3498	0.4584	0.007028	4e-05
0.3557	0.5981	0.003481	2.3e-05
0.3963	0.5436	0.003873	2.6e-05
0.3994	0.1795	0.01551	8.2e-05
0.4188	0.5534	0.003184	2.2e-05
0.45	0.4688	0.00426	2.8e-05
0.4649	0.3772	0.005826	3.7e-05
0.4746	0.5095	0.002712	2.2e-05
0.4954	0.2544	0.008001	4.5e-05
0.5003	0.1493	0.011477	6.3e-05
0.5062	0.4446	0.003283	2.5e-05
0.5658	0.403	0.002887	2.1e-05
0.5725	0.3013	0.004938	3e-05
0.596	0.2037	0.006313	3.8e-05
0.6001	0.1195	0.008367	4.5e-05
0.6559	0.2933	0.003103	2e-05
0.6642	0.2367	0.003908	2.3e-05
0.6982	0.1522	0.004821	2.8e-05
0.7013	0.0893	0.006086	3.4e-05
0.7206	0.2516	0.003041	1.8e-05
0.801	0.0595	0.004291	2.4e-05
0.8022	0.0997	0.00366	2.1e-05
0.8287	0.159	0.002391	1.4e-05
0.8979	0.0515	0.00277	1.6e-05
0.9011	0.0296	0.003013	1.7e-05

System: propan-1-ol + water + 1-ethyl-3-methylimidazolium ethyl sulfate; phases: Liquid
Fixed: Pressure, kPa = 101
Fixed: Temperature, K = 298.15
Property: Refractive index (Na D-line) (Liquid); method: Standard Abbe refractometry
Mole fraction of propan-1-ol	Mole fraction of water	Refractive index (Na D-line)	uncertainty
0.0375	0.9551	1.35204	0.00068
0.0384	0.946	1.36098	0.00068
0.0422	0.929	1.37367	0.00068
0.0474	0.9071	1.38662	0.00068
0.0559	0.8764	1.40006	0.00068
0.0662	0.8408	1.41152	0.00068
0.0813	0.9039	1.3667	0.00068
0.0826	0.782	1.42504	0.00068
0.0901	0.8825	1.37757	0.00068
0.0961	0.1388	1.47318	0.00069
0.0962	0.4557	1.46221	0.00068
0.0981	0.2695	1.46965	0.00069
0.1023	0.8549	1.38842	0.00068
0.1139	0.8226	1.39969	0.00069
0.1198	0.8735	1.36371	0.00069
0.128	0.6147	1.4456	0.00069
0.1286	0.8573	1.37051	0.00069
0.1383	0.7759	1.4061	0.00068
0.1467	0.8276	1.37995	0.00068
0.167	0.7932	1.38901	0.00069
0.1695	0.708	1.42032	0.00069
0.1845	0.7571	1.39839	0.0007
0.1909	0.7961	1.37393	0.00069
0.1971	0.1233	1.46844	0.00069
0.2001	0.4034	1.45593	0.00068
0.2061	0.2372	1.46404	0.00069
0.2082	0.768	1.38151	0.00069
0.2141	0.7076	1.40625	0.00069
0.2397	0.724	1.38906	0.0007
0.2412	0.5349	1.43789	0.00069
0.2472	0.7471	1.37225	0.0007
0.2588	0.6318	1.41545	0.00069
0.2591	0.7289	1.37668	0.0007
0.2669	0.6805	1.39664	0.0007
0.2888	0.6898	1.38288	0.0007
0.2998	0.3531	1.44926	0.00068
0.2999	0.6304	1.40315	0.00069
0.304	0.208	1.45823	0.00069
0.3161	0.6512	1.38884	0.0007
0.3408	0.6485	1.37895	0.00071
0.3494	0.5546	1.41067	0.00069
0.3498	0.4584	1.43022	0.00069
0.3557	0.5981	1.39485	0.0007
0.3963	0.5436	1.39982	0.0007
0.3994	0.1795	1.45178	0.00068
0.4188	0.5534	1.38834	0.00071
0.45	0.4688	1.4058	0.00069
0.4649	0.3772	1.42206	0.00069
0.4746	0.5095	1.38445	0.0007
0.4954	0.2544	1.43456	0.00068
0.5003	0.1493	1.4441	0.00068
0.5062	0.4446	1.39642	0.00069
0.5658	0.403	1.39098	0.00069
0.5725	0.3013	1.41456	0.00069
0.596	0.2037	1.42611	0.00068
0.6001	0.1195	1.43535	0.00068
0.6559	0.2933	1.39678	0.00068
0.6642	0.2367	1.40804	0.00068
0.6982	0.1522	1.41674	0.00068
0.7013	0.0893	1.42523	0.00068
0.7206	0.2516	1.39049	0.00068
0.801	0.0595	1.41352	0.00068
0.8022	0.0997	1.40633	0.00068
0.8287	0.159	1.38633	0.00068
0.8979	0.0515	1.39585	0.00068
0.9011	0.0296	1.39981	0.00068

System: propan-1-ol + water + 1-ethyl-3-methylimidazolium ethyl sulfate; phases: Liquid
Fixed: Temperature, K = 298.15
Fixed: Pressure, kPa = 101
Property: Mass density, kg/m3 (Liquid); method: VIBTUB:UFactor:6
Mole fraction of propan-1-ol	Mole fraction of water	Mass density, kg/m3	uncertainty
0.0375	0.9551	997.3	0.3
0.0384	0.946	1014	0.3
0.0422	0.929	1036.1	0.3
0.0474	0.9071	1057.7	0.4
0.0559	0.8764	1079.2	0.4
0.0662	0.8408	1097	0.5
0.0813	0.9039	993	0.3
0.0826	0.782	1118	0.5
0.0901	0.8825	1010.8	0.3
0.0961	0.1388	1215.3	0.9
0.0962	0.4557	1192.4	0.7
0.0981	0.2695	1207.8	0.8
0.1023	0.8549	1027.8	0.4
0.1139	0.8226	1047.1	0.5
0.1198	0.8735	959	0.4
0.128	0.6147	1148.6	0.6
0.1286	0.8573	969.7	0.4
0.1383	0.7759	1058.5	0.4
0.1467	0.8276	981.5	0.4
0.167	0.7932	994.9	0.4
0.1695	0.708	1074.5	0.5
0.1845	0.7571	1011.7	0.5
0.1909	0.7961	943.5	0.6
0.1971	0.1233	1192.3	0.8
0.2001	0.4034	1159.2	0.6
0.2061	0.2372	1179.8	0.7
0.2082	0.768	955.5	0.6
0.2141	0.7076	1021.6	0.5
0.2397	0.724	964	0.7
0.2412	0.5349	1102.2	0.6
0.2472	0.7471	911	0.7
0.2588	0.6318	1033.2	0.5
0.2591	0.7289	918.9	0.8
0.2669	0.6805	975.8	0.7
0.2888	0.6898	926.8	0.7
0.2998	0.3531	1124.7	0.6
0.2999	0.6304	984.8	0.6
0.304	0.208	1151.3	0.6
0.3161	0.6512	935.6	0.8
0.3408	0.6485	895.8	0.9
0.3494	0.5546	995.3	0.5
0.3498	0.4584	1057.5	0.6
0.3557	0.5981	942.8	0.7
0.3963	0.5436	948.7	0.8
0.3994	0.1795	1120.1	0.6
0.4188	0.5534	904.4	0.9
0.45	0.4688	957.3	0.6
0.4649	0.3772	1010.8	0.5
0.4746	0.5095	877	0.9
0.4954	0.2544	1050	0.5
0.5003	0.1493	1083	0.5
0.5062	0.4446	913.2	0.8
0.5658	0.403	882	0.8
0.5725	0.3013	967.8	0.6
0.596	0.2037	1007.6	0.3
0.6001	0.1195	1041.4	0.4
0.6559	0.2933	889.9	0.6
0.6642	0.2367	931.4	0.6
0.6982	0.1522	961.2	0.4
0.7013	0.0893	993.7	0.3
0.7206	0.2516	856.9	0.6
0.801	0.0595	938.8	0.4
0.8022	0.0997	910.1	0.4
0.8287	0.159	828.1	0.6
0.8979	0.0515	859.3	0.5
0.9011	0.0296	875.3	0.5

System: propan-2-ol + water + 1-ethyl-3-methylimidazolium ethyl sulfate; phases: Liquid
Fixed: Pressure, kPa = 101
Fixed: Temperature, K = 298.15
Property: Viscosity, Pa*s (Liquid); method: Capillary tube (Ostwald; Ubbelohde) method
Mole fraction of propan-2-ol	Mole fraction of water	Viscosity, Pa*s	uncertainty
0.0353	0.9565	0.001663	1.1e-05
0.0389	0.9432	0.001977	1.2e-05
0.0434	0.9286	0.002306	1.4e-05
0.0505	0.9031	0.002901	1.7e-05
0.0579	0.875	0.003573	2.1e-05
0.0688	0.8355	0.004554	2.6e-05
0.0754	0.9166	0.002321	1.4e-05
0.0834	0.4648	0.021619	0.000118
0.0834	0.8995	0.002578	1.5e-05
0.085	0.7786	0.006055	3.4e-05
0.0907	0.2737	0.036644	0.000211
0.0925	0.881	0.002885	1.7e-05
0.0949	0.1426	0.050594	0.000233
0.1066	0.8498	0.003332	1.9e-05
0.1126	0.6808	0.008626	4.8e-05
0.1209	0.8165	0.003937	2.3e-05
0.1225	0.8699	0.00278	1.6e-05
0.1346	0.8492	0.002994	1.8e-05
0.1434	0.7686	0.00472	2.8e-05
0.1486	0.8265	0.003214	1.9e-05
0.1684	0.791	0.003601	2.2e-05
0.1722	0.7044	0.005791	3.3e-05
0.186	0.4128	0.017075	9.2e-05
0.1902	0.2437	0.028198	0.000159
0.1919	0.7505	0.004048	2.4e-05
0.1967	0.7884	0.003248	1.9e-05
0.2002	0.126	0.038893	0.000229
0.213	0.764	0.003393	2e-05
0.2231	0.6971	0.004649	2.8e-05
0.2236	0.5957	0.007597	4.2e-05
0.24	0.7229	0.00369	2.3e-05
0.2632	0.6269	0.005431	3.2e-05
0.2695	0.6784	0.004008	2.5e-05
0.2845	0.2154	0.022538	0.000124
0.2891	0.6901	0.003412	2.1e-05
0.2964	0.1109	0.029818	0.000171
0.3084	0.6205	0.004418	2.8e-05
0.3223	0.6446	0.003614	2.3e-05
0.331	0.5133	0.006616	3.9e-05
0.3555	0.6325	0.003179	2.1e-05
0.3575	0.5968	0.003843	2.5e-05
0.3595	0.545	0.004964	3.1e-05
0.3755	0.3167	0.0114	6.2e-05
0.4012	0.5373	0.004076	2.7e-05
0.4151	0.5563	0.00338	2.4e-05
0.4354	0.4332	0.005704	3.8e-05
0.4571	0.4619	0.004409	3e-05
0.4723	0.2676	0.009141	5.1e-05
0.4839	0.1553	0.012918	7.3e-05
0.4843	0.0813	0.016603	9.6e-05
0.4888	0.4963	0.002979	2.4e-05
0.5022	0.4466	0.00369	2.6e-05
0.533	0.3583	0.004891	3.4e-05
0.5641	0.4049	0.00316	2.3e-05
0.5715	0.2173	0.007252	4.1e-05
0.5849	0.1249	0.009527	5.3e-05
0.5934	0.399	0.002643	1.9e-05
0.6305	0.2835	0.004158	2.6e-05
0.6619	0.2877	0.00338	2.2e-05
0.6749	0.1649	0.005595	3.3e-05
0.6881	0.0939	0.006871	3.9e-05
0.6918	0.0486	0.00804	4.6e-05
0.7683	0.1972	0.002878	1.8e-05
0.7943	0.0324	0.005437	3.2e-05
0.8792	0.1028	0.002445	1.5e-05
0.8849	0.0584	0.003105	1.8e-05
0.8921	0.0325	0.003401	2e-05

System: propan-2-ol + water + 1-ethyl-3-methylimidazolium ethyl sulfate; phases: Liquid
Fixed: Pressure, kPa = 101
Fixed: Temperature, K = 298.15
Property: Refractive index (Na D-line) (Liquid); method: Standard Abbe refractometry
Mole fraction of propan-2-ol	Mole fraction of water	Refractive index (Na D-line)	uncertainty
0.0353	0.9565	1.35229	0.00068
0.0389	0.9432	1.3633	0.00068
0.0434	0.9286	1.37318	0.00068
0.0505	0.9031	1.38754	0.00068
0.0579	0.875	1.39993	0.00068
0.0688	0.8355	1.41265	0.00068
0.0754	0.9166	1.35984	0.00068
0.0834	0.4648	1.46251	0.00069
0.0834	0.8995	1.36925	0.00068
0.085	0.7786	1.42522	0.00068
0.0907	0.2737	1.46971	0.00069
0.0925	0.881	1.3775	0.00068
0.0949	0.1426	1.47289	0.00069
0.1066	0.8498	1.3893	0.00069
0.1126	0.6808	1.43874	0.00068
0.1209	0.8165	1.39946	0.00069
0.1225	0.8699	1.3652	0.00069
0.1346	0.8492	1.37292	0.00069
0.1434	0.7686	1.4097	0.00069
0.1486	0.8265	1.37965	0.00069
0.1684	0.791	1.38931	0.00069
0.1722	0.7044	1.4199	0.00069
0.186	0.4128	1.45589	0.00069
0.1902	0.2437	1.46423	0.00069
0.1919	0.7505	1.39761	0.0007
0.1967	0.7884	1.37527	0.00069
0.2002	0.126	1.46762	0.00069
0.213	0.764	1.38069	0.00069
0.2231	0.6971	1.40584	0.00069
0.2236	0.5957	1.43083	0.00069
0.24	0.7229	1.38851	0.00069
0.2632	0.6269	1.41416	0.00069
0.2695	0.6784	1.39515	0.0007
0.2845	0.2154	1.45842	0.00069
0.2891	0.6901	1.38109	0.0007
0.2964	0.1109	1.46203	0.00069
0.3084	0.6205	1.4018	0.0007
0.3223	0.6446	1.38722	0.0007
0.331	0.5133	1.42265	0.0007
0.3555	0.6325	1.37773	0.00071
0.3575	0.5968	1.39241	0.00071
0.3595	0.545	1.40819	0.0007
0.3755	0.3167	1.44179	0.00069
0.4012	0.5373	1.39752	0.00071
0.4151	0.5563	1.3856	0.0007
0.4354	0.4332	1.4149	0.00069
0.4571	0.4619	1.40248	0.00069
0.4723	0.2676	1.43361	0.00069
0.4839	0.1553	1.44315	0.00069
0.4843	0.0813	1.44825	0.00069
0.4888	0.4963	1.38037	0.00071
0.5022	0.4466	1.39324	0.00071
0.533	0.3583	1.40784	0.00069
0.5641	0.4049	1.38635	0.0007
0.5715	0.2173	1.42468	0.00069
0.5849	0.1249	1.43349	0.00069
0.5934	0.399	1.37794	0.0007
0.6305	0.2835	1.4009	0.00069
0.6619	0.2877	1.39153	0.00069
0.6749	0.1649	1.41446	0.00068
0.6881	0.0939	1.42243	0.00068
0.6918	0.0486	1.42737	0.00068
0.7683	0.1972	1.38623	0.00068
0.7943	0.0324	1.4136	0.00068
0.8792	0.1028	1.3809	0.00068
0.8849	0.0584	1.39062	0.00068
0.8921	0.0325	1.39461	0.00068

System: propan-2-ol + water + 1-ethyl-3-methylimidazolium ethyl sulfate; phases: Liquid
Fixed: Temperature, K = 298.15
Fixed: Pressure, kPa = 101
Property: Mass density, kg/m3 (Liquid); method: VIBTUB:UFactor:6
Mole fraction of propan-2-ol	Mole fraction of water	Mass density, kg/m3	uncertainty
0.0353	0.9565	999.4	0.2
0.0389	0.9432	1017.9	0.3
0.0434	0.9286	1033.7	0.3
0.0505	0.9031	1057.5	0.4
0.0579	0.875	1077.6	0.4
0.0688	0.8355	1097.7	0.5
0.0754	0.9166	982.3	0.3
0.0834	0.4648	1195	0.7
0.0834	0.8995	996.7	0.3
0.085	0.7786	1116.8	0.5
0.0907	0.2737	1208.6	0.8
0.0925	0.881	1008.7	0.3
0.0949	0.1426	1214.7	0.9
0.1066	0.8498	1027	0.4
0.1126	0.6808	1136.5	0.6
0.1209	0.8165	1042.7	0.5
0.1225	0.8699	960.2	0.4
0.1346	0.8492	971.2	0.4
0.1434	0.7686	1057	0.5
0.1486	0.8265	979.8	0.4
0.1684	0.791	994.3	0.4
0.1722	0.7044	1071.9	0.5
0.186	0.4128	1160.9	0.7
0.1902	0.2437	1181.8	0.7
0.1919	0.7505	1006	0.5
0.1967	0.7884	943.1	0.6
0.2002	0.126	1189.6	0.8
0.213	0.764	950.2	0.6
0.2231	0.6971	1016.5	0.5
0.2236	0.5957	1085.3	0.6
0.24	0.7229	961.2	0.5
0.2632	0.6269	1027.9	0.6
0.2695	0.6784	969.9	0.7
0.2845	0.2154	1153.5	0.7
0.2891	0.6901	920.6	0.7
0.2964	0.1109	1163.3	0.7
0.3084	0.6205	978.1	0.6
0.3223	0.6446	928.9	0.8
0.331	0.5133	1037.2	0.6
0.3555	0.6325	888.4	0.9
0.3575	0.5968	934.9	0.8
0.3595	0.545	985.5	0.7
0.3755	0.3167	1090.7	0.6
0.4012	0.5373	941.1	0.9
0.4151	0.5563	897.9	0.8
0.4354	0.4332	992.6	0.5
0.4571	0.4619	946.7	0.7
0.4723	0.2676	1051.1	0.5
0.4839	0.1553	1082.1	0.5
0.4843	0.0813	1100.5	0.6
0.4888	0.4963	863.2	1
0.5022	0.4466	905.9	1
0.533	0.3583	952.7	0.5
0.5641	0.4049	870.5	0.8
0.5715	0.2173	1008.2	0.5
0.5849	0.1249	1038.8	0.5
0.5934	0.399	835.9	0.9
0.6305	0.2835	914.4	0.6
0.6619	0.2877	875.5	0.7
0.6749	0.1649	959.6	0.5
0.6881	0.0939	988.7	0.4
0.6918	0.0486	1006.9	0.3
0.7683	0.1972	843.2	0.6
0.7943	0.0324	946.7	0.4
0.8792	0.1028	812.4	0.7
0.8849	0.0584	850	0.6
0.8921	0.0325	865.1	0.5
