Measured thermophysical data. Liquid-Liquid Equilibria for Benzene + Cyclohexane + 1-Methyl-3-methylimidazolium Dimethylphosphate or + 1-Ethyl-3-methylimidazolium Diethylphosphate
Source: J. Chem. Eng. Data, 2008, 10.1021/je700759h
Compound 1: 1,3-dimethylimidazolium dimethylphosphate, C7H15N2O4P, InChI=1S/C5H9N2.C2H7O4P/c1-6-3-4-7(2)5-6;1-5-7(3,4)6-2/h3-5H,1-2H3;1-2H3,(H,3,4)/q+1;/p-1, purity 98%
Compound 2: 1-ethyl-3-methylimidazolium diethyl phosphate, C10H21N2O4P, InChI=1S/C6H11N2.C4H11O4P/c1-3-8-5-4-7(2)6-8;1-3-7-9(5,6)8-4-2/h4-6H,3H2,1-2H3;3-4H2,1-2H3,(H,5,6)/q+1;/p-1, purity 98%
Compound 3: benzene, C6H6, InChI=1S/C6H6/c1-2-4-6-5-3-1/h1-6H, purity 99%
Compound 4: cyclohexane, C6H12, InChI=1S/C6H12/c1-2-4-6-5-3-1/h1-6H2, purity 99%

System: benzene + cyclohexane + 1,3-dimethylimidazolium dimethylphosphate; phases: Liquid mixture 1, Liquid mixture 2
Fixed: Pressure, kPa = 101
Property: Mole fraction of cyclohexane (Liquid mixture 1); method: Chromatography
Property: Mole fraction of cyclohexane (Liquid mixture 2); method: Chromatography
Property: Mole fraction of benzene (Liquid mixture 2); method: Chromatography
Temperature, K	Mole fraction of benzene	Mole fraction of cyclohexane	uncertainty	Mole fraction of cyclohexane	uncertainty	Mole fraction of benzene	uncertainty
298.2	0.1663	0.8258	0.0505	0.05394	0.00837	0.03958	
298.2	0.2538	0.7413	0.0468	0.06215	0.00805	0.06683	
298.2	0.3174	0.6826	0.0448	0.05766	0.00805	0.08792	
298.2	0.3463	0.6536	0.0466	0.06028	0.00804	0.1057	
298.2	0.3841	0.6028	0.044	0.05875	0.00844	0.1218	
298.2	0.4597	0.5294	0.0417	0.05157	0.0107	0.1299	
313.2	0.1563	0.8348	0.0508	0.04644	0.00802	0.03812	
313.2	0.2222	0.7778	0.0484	0.0475	0.00804	0.05974	
313.2	0.2932	0.7024	0.0457	0.04494	0.00808	0.08011	
313.2	0.3449	0.6551	0.0441	0.04324	0.00805	0.09497	
313.2	0.4073	0.5927	0.0452	0.04197	0.00805	0.1176	
313.2	0.4592	0.5246	0.042	0.04688	0.00807	0.128	
313.2	0.5078	0.4922	0.0391	0.04441	0.00829	0.1381	
313.2	0.5555	0.4445	0.0428	0.04	0.00837	0.1548	

System: benzene + cyclohexane + 1-ethyl-3-methylimidazolium diethyl phosphate; phases: Liquid mixture 1, Liquid mixture 2
Fixed: Pressure, kPa = 101
Property: Mole fraction of cyclohexane (Liquid mixture 1); method: Chromatography
Property: Mole fraction of cyclohexane (Liquid mixture 2); method: Chromatography
Property: Mole fraction of benzene (Liquid mixture 2); method: Chromatography
Temperature, K	Mole fraction of benzene	Mole fraction of cyclohexane	uncertainty	Mole fraction of cyclohexane	uncertainty	Mole fraction of benzene	uncertainty
298.2	0.2034	0.7965	0.0493	0.1469	0.009	0.1617	
298.2	0.2666	0.7334	0.0469	0.1427	0.0086	0.1943	
298.2	0.2771	0.7229	0.0465	0.1477	0.0091	0.2104	
298.2	0.3321	0.6664	0.0447	0.1378	0.0134	0.223	
298.2	0.4027	0.5973	0.0431	0.1397	0.0085	0.2906	
298.2	0.454	0.546	0.0427	0.1329	0.0112	0.3222	
298.2	0.5234	0.4766	0.0426	0.1174	0.0097	0.3437	
298.2	0.5626	0.4374	0.0429	0.1177	0.008	0.3759	
313.2	0.2472	0.7514	0.0479	0.1438	0.009	0.1749	
313.2	0.2951	0.6998	0.0455	0.137	0.0084	0.2036	
313.2	0.3581	0.6419	0.0437	0.1349	0.0083	0.2556	
313.2	0.4141	0.5859	0.0455	0.127	0.0091	0.2807	
313.2	0.4704	0.5119	0.0419	0.1188	0.0085	0.3197	
313.2	0.5224	0.4776	0.0355	0.1188	0.008	0.3417	
