Measured thermophysical data. High-Pressure Solubility Data of Methane in Aniline and Aqueous Aniline Systems
Source: J. Chem. Eng. Data, 2007, 10.1021/je7000528
Compound 1: methane, CH4, InChI=1S/CH4/h1H4
Compound 2: aniline, C6H7N, InChI=1S/C6H7N/c7-6-4-2-1-3-5-6/h1-5H,7H2
Compound 3: water, H2O, InChI=1S/H2O/h1H2

System: aniline + methane; phases: Liquid, Gas
Property: Vapor or sublimation pressure, kPa (Liquid); method: CCELL:UFactor:24
Temperature, K	Mole fraction of methane	Vapor or sublimation pressure, kPa	uncertainty
302.99	0.034	8270	690
302.99	0.064	19180	1430
302.99	0.092	30040	2230
302.99	0.122	61650	4590
302.99	0.13	66300	4930
312.68	0.034	7970	670
312.68	0.064	18210	1350
312.68	0.092	25720	1910
312.68	0.122	53160	3950
312.68	0.13	59820	4450
312.68	0.167	74420	5530
322.51	0.034	7640	660
322.51	0.064	15620	1160
322.51	0.092	21220	1580
322.51	0.122	44270	3290
322.51	0.13	48030	3570
322.51	0.167	59750	4440
332.19	0.034	7500	650
332.19	0.064	16000	1190
332.19	0.092	21950	1630
332.19	0.122	40660	3020
332.19	0.13	46000	3420
332.19	0.167	57540	4280
341.79	0.034	7350	640
341.79	0.064	14250	1060
341.79	0.092	18630	1390
341.79	0.122	34820	2590
341.79	0.13	37230	2770
341.79	0.167	45580	3390
351.59	0.034	7170	630
351.59	0.064	13390	1000
351.59	0.092	17410	1300
351.59	0.122	31200	2320
351.59	0.13	33660	2500
351.59	0.167	41070	3050
361.16	0.034	6890	620
361.16	0.064	13000	970
361.16	0.092	17020	1270
361.16	0.122	28570	2130
361.16	0.13	30490	2270
361.16	0.167	37580	2800
370.06	0.034	6730	610
370.06	0.064	12690	950
370.06	0.092	16540	1230
370.06	0.122	25200	1870
370.06	0.13	28800	2140
370.06	0.167	36360	2700

System: aniline + methane + water; phases: Liquid, Gas
Fixed: Solvent: Mass ratio of component to other component of binary solvent of water = 0.05
Property: Vapor or sublimation pressure, kPa (Liquid); method: CCELL:UFactor:24
Temperature, K	Mole fraction of methane	Vapor or sublimation pressure, kPa	uncertainty
303.08	0.03	13110	980
303.08	0.061	27730	2060
303.08	0.09	55990	4160
312.68	0.03	12540	940
312.68	0.061	25310	1880
312.68	0.09	48010	3570
322.37	0.03	11910	900
322.37	0.061	22980	1710
322.37	0.09	42620	3170
322.37	0.116	61890	4600
322.37	0.126	73910	5500
332.05	0.03	11080	850
332.05	0.061	22170	1650
332.05	0.09	38580	2870
332.05	0.116	53620	3990
332.05	0.126	61540	4580
341.73	0.03	10610	820
341.73	0.061	20870	1550
341.73	0.09	34950	2600
341.73	0.116	46170	3430
341.73	0.126	55090	4100
351.43	0.03	10090	790
351.43	0.061	20080	1490
351.43	0.09	30440	2260
351.43	0.116	43830	3260
351.43	0.126	49790	3700
361.35	0.03	9500	760
361.35	0.061	19020	1410
361.35	0.09	29370	2180
361.35	0.116	40350	3000
361.35	0.126	43990	3270
369.97	0.03	9140	740
369.97	0.061	18880	1400
369.97	0.09	29180	2170
369.97	0.116	36550	2720
369.97	0.126	41670	3100
