Measured thermophysical data. Polar Mixed-Solid Solute Systems in Supercritical Carbon Dioxide: Entrainer Effect and Its Influence on Solubility and Selectivity
Source: J. Chem. Eng. Data, 2008, 10.1021/je700486g
Compound 1: benzoic acid, C7H6O2, InChI=1S/C7H6O2/c8-7(9)6-4-2-1-3-5-6/h1-5H,(H,8,9)
Compound 2: 2-hydroxybenzoic acid, C7H6O3, InChI=1S/C7H6O3/c8-6-4-2-1-3-5(6)7(9)10/h1-4,8H,(H,9,10)
Compound 3: 2-acetoxybenzoic acid, C9H8O4, InChI=1S/C9H8O4/c1-6(10)13-8-5-3-2-4-7(8)9(11)12/h2-5H,1H3,(H,11,12)
Compound 4: fluoranthene, C16H10, InChI=1S/C16H10/c1-2-8-13-12(7-1)14-9-3-5-11-6-4-10-15(13)16(11)14/h1-10H
Compound 5: carbon dioxide, CO2, InChI=1S/CO2/c2-1-3

System: benzoic acid; phases: Crystal, Liquid, Air at 1 atmosphere
Property: Normal melting temperature, K (Crystal); method: VISOBS
Normal melting temperature, K	uncertainty
395	1

System: 2-hydroxybenzoic acid; phases: Crystal, Liquid, Air at 1 atmosphere
Property: Normal melting temperature, K (Crystal); method: VISOBS
Normal melting temperature, K	uncertainty
432	1

System: 2-acetoxybenzoic acid; phases: Crystal, Liquid, Air at 1 atmosphere
Property: Normal melting temperature, K (Crystal); method: VISOBS
Normal melting temperature, K	uncertainty
408.5	1.1

System: fluoranthene; phases: Crystal, Liquid, Air at 1 atmosphere
Property: Normal melting temperature, K (Crystal); method: VISOBS
Normal melting temperature, K	uncertainty
381.5	3

System: benzoic acid + carbon dioxide; phases: Fluid (supercritical or subcritical phases), Crystal
Property: Mole fraction of benzoic acid (Fluid (supercritical or subcritical phases)); method: Chromatography
Temperature, K	Pressure, kPa	Mole fraction of benzoic acid	uncertainty
308	10100	0.00107	0.00013
308	12000	0.00156	0.00016
308	15100	0.00195	0.00021
308	16000	0.0021	0.00023
308	20000	0.00249	0.0003
308	24000	0.00286	0.00035
308	28000	0.00313	0.00038
318	12000	0.00132	0.00015
318	15100	0.00225	0.00023
318	16000	0.00249	0.00026
318	20000	0.00333	0.00037
318	24000	0.00382	0.00044
318	28000	0.00424	0.00051
328	15100	0.00227	0.00024
328	16000	0.00261	0.00027
328	20000	0.00407	0.00043
328	24000	0.00504	0.00056
328	28000	0.00595	0.00069

System: 2-hydroxybenzoic acid + carbon dioxide; phases: Fluid (supercritical or subcritical phases), Crystal
Property: Mole fraction of 2-hydroxybenzoic acid (Fluid (supercritical or subcritical phases)); method: Chromatography
Temperature, K	Pressure, kPa	Mole fraction of 2-hydroxybenzoic acid	uncertainty
308	10100	0.000165	1.7e-05
308	12000	0.000207	2.1e-05
308	15100	0.000268	2.9e-05
308	16000	0.000287	3.2e-05
308	20000	0.000332	4e-05
308	24000	0.000409	5e-05
308	28000	0.000422	5.7e-05
318	12000	0.000218	2.3e-05
318	15100	0.000319	3.4e-05
318	16000	0.000349	3.7e-05
318	20000	0.00045	5.2e-05
318	24000	0.000533	6.3e-05
318	28000	0.000615	7.7e-05
328	15100	0.00035	3.7e-05
328	16000	0.0004	4.3e-05
328	20000	0.000583	6.4e-05
328	24000	0.000732	8.4e-05
328	28000	0.000875	0.000102

System: 2-acetoxybenzoic acid + carbon dioxide; phases: Fluid (supercritical or subcritical phases), Crystal
Property: Mole fraction of 2-acetoxybenzoic acid (Fluid (supercritical or subcritical phases)); method: Chromatography
Temperature, K	Pressure, kPa	Mole fraction of 2-acetoxybenzoic acid	uncertainty
308	10100	5.72e-05	6e-06
308	12000	7.32e-05	7.5e-06
308	15100	9.98e-05	1.11e-05
308	16000	0.000108	1.2e-05
308	20000	0.000136	1.6e-05
308	24000	0.000169	2.1e-05
308	28000	0.000193	2.4e-05
318	12000	7.35e-05	8e-06
318	15100	0.000122	1.3e-05
318	16000	0.000136	1.4e-05
318	20000	0.000183	2.1e-05
318	24000	0.000226	2.6e-05
318	28000	0.000261	3.2e-05
328	15100	0.000124	1.4e-05
328	16000	0.000151	1.7e-05
328	20000	0.000231	2.5e-05
328	24000	0.000302	3.4e-05
328	28000	0.000375	4.4e-05

System: benzoic acid + 2-hydroxybenzoic acid + carbon dioxide; phases: Fluid (supercritical or subcritical phases), Crystal, Crystal
Property: Mole fraction of benzoic acid (Fluid (supercritical or subcritical phases)); method: Chromatography
Temperature, K	Pressure, kPa	Mole fraction of benzoic acid	uncertainty
308	10100	0.00112	0.00013
308	12000	0.00156	0.00016
308	15100	0.00195	0.0002
308	16000	0.00205	0.00022
308	20000	0.00259	0.0003
308	24000	0.00297	0.00036
308	28000	0.00329	0.0004
318	12000	0.00129	0.00015
318	15100	0.00221	0.00023
318	16000	0.00243	0.00025
318	20000	0.00328	0.00036
318	24000	0.004	0.00045
318	28000	0.00443	0.00052
328	15100	0.00214	0.00023
328	16000	0.00256	0.00027
328	20000	0.00389	0.00041
328	24000	0.00511	0.00055
328	28000	0.00607	0.00069

System: benzoic acid + 2-hydroxybenzoic acid + carbon dioxide; phases: Fluid (supercritical or subcritical phases), Crystal, Crystal
Property: Mole fraction of 2-hydroxybenzoic acid (Fluid (supercritical or subcritical phases)); method: Chromatography
Temperature, K	Pressure, kPa	Mole fraction of 2-hydroxybenzoic acid	uncertainty
308	10100	0.00112	0.00013
308	12000	0.00156	0.00016
308	15100	0.00195	0.0002
308	16000	0.00205	0.00022
308	20000	0.00259	0.0003
308	24000	0.00297	0.00036
308	28000	0.00329	0.0004
318	12000	0.00129	0.00015
318	15100	0.00221	0.00023
318	16000	0.00243	0.00025
318	20000	0.00328	0.00036
318	24000	0.004	0.00045
318	28000	0.00443	0.00052
328	15100	0.00214	0.00023
328	16000	0.00256	0.00027
328	20000	0.00389	0.00041
328	24000	0.00511	0.00055
328	28000	0.00607	0.00069

System: 2-acetoxybenzoic acid + benzoic acid + carbon dioxide; phases: Fluid (supercritical or subcritical phases), Crystal, Crystal
Property: Mole fraction of 2-acetoxybenzoic acid (Fluid (supercritical or subcritical phases)); method: Chromatography
Temperature, K	Pressure, kPa	Mole fraction of 2-acetoxybenzoic acid	uncertainty
308	10100	0.000167	2.1e-05
308	12000	0.000257	2.8e-05
308	15100	0.000366	3.9e-05
308	16000	0.000418	4.6e-05
308	20000	0.000553	6.5e-05
308	24000	0.00068	8.3e-05
308	28000	0.000769	0.000111
318	12000	0.000219	2.7e-05
318	15100	0.000424	4.5e-05
318	16000	0.000487	5.2e-05
318	20000	0.000716	8.2e-05
318	24000	0.000904	0.000113
318	28000	0.00117	0.000167
328	15100	0.000436	4.9e-05
328	16000	0.000535	5.9e-05
328	20000	0.00094	0.000106
328	24000	0.00135	0.000171
328	28000	0.00195	0.000252

System: 2-acetoxybenzoic acid + benzoic acid + carbon dioxide; phases: Fluid (supercritical or subcritical phases), Crystal, Crystal
Property: Mole fraction of benzoic acid (Fluid (supercritical or subcritical phases)); method: Chromatography
Temperature, K	Pressure, kPa	Mole fraction of benzoic acid	uncertainty
308	10100	0.00115	0.00013
308	12000	0.00166	0.00017
308	15100	0.00223	0.00023
308	16000	0.00243	0.00026
308	20000	0.00305	0.00034
308	24000	0.00353	0.00041
308	28000	0.00385	0.0005
318	12000	0.00145	0.00017
318	15100	0.00255	0.00027
318	16000	0.00283	0.0003
318	20000	0.00379	0.00042
318	24000	0.00456	0.00054
318	28000	0.00541	0.00073
328	15100	0.00263	0.00028
328	16000	0.00309	0.00033
328	20000	0.0049	0.00053
328	24000	0.00633	0.00076
328	28000	0.00868	0.00109

System: 2-acetoxybenzoic acid + 2-hydroxybenzoic acid + carbon dioxide; phases: Fluid (supercritical or subcritical phases), Crystal, Crystal
Property: Mole fraction of 2-acetoxybenzoic acid (Fluid (supercritical or subcritical phases)); method: Chromatography
Temperature, K	Pressure, kPa	Mole fraction of 2-acetoxybenzoic acid	uncertainty
308	10100	7.78e-05	8.9e-06
308	12000	0.000117	1.2e-05
308	15100	0.000172	1.9e-05
308	16000	0.000192	2.1e-05
308	20000	0.000246	2.9e-05
308	24000	0.000294	3.7e-05
308	28000	0.000342	4.6e-05
318	12000	0.000112	1.3e-05
318	15100	0.000206	2.2e-05
318	16000	0.000223	2.3e-05
318	20000	0.000318	3.7e-05
318	24000	0.000403	4.8e-05
318	28000	0.000495	5.9e-05
328	15100	0.000207	2.3e-05
328	16000	0.000252	2.8e-05
328	20000	0.000421	4.6e-05
328	24000	0.000552	6.3e-05
328	28000	0.000667	7.5e-05

System: 2-acetoxybenzoic acid + 2-hydroxybenzoic acid + carbon dioxide; phases: Fluid (supercritical or subcritical phases), Crystal, Crystal
Property: Mole fraction of 2-hydroxybenzoic acid (Fluid (supercritical or subcritical phases)); method: Chromatography
Temperature, K	Pressure, kPa	Mole fraction of 2-hydroxybenzoic acid	uncertainty
308	10100	0.0002	2.1e-05
308	12000	0.000255	2.6e-05
308	15100	0.000335	3.6e-05
308	16000	0.000359	3.9e-05
308	20000	0.000449	5.6e-05
308	24000	0.000507	6.5e-05
308	28000	0.000601	7.9e-05
318	12000	0.000248	2.7e-05
318	15100	0.000401	4.2e-05
318	16000	0.00043	4.5e-05
318	20000	0.000606	6.8e-05
318	24000	0.000724	8.8e-05
318	28000	0.000854	0.000104
328	15100	0.00041	4.4e-05
328	16000	0.000486	5.3e-05
328	20000	0.000749	8.1e-05
328	24000	0.000997	0.000113
328	28000	0.00119	0.000137

System: benzoic acid + carbon dioxide + fluoranthene; phases: Fluid (supercritical or subcritical phases), Crystal, Crystal
Fixed: Temperature, K = 318
Property: Mole fraction of benzoic acid (Fluid (supercritical or subcritical phases)); method: Chromatography
Pressure, kPa	Mole fraction of benzoic acid	uncertainty
12000	0.00125	0.00015
15100	0.00244	0.00025
16000	0.0027	0.00028
20000	0.00371	0.00037
24000	0.00461	0.00046
28000	0.00499	0.0005

System: benzoic acid + carbon dioxide + fluoranthene; phases: Fluid (supercritical or subcritical phases), Crystal, Crystal
Fixed: Temperature, K = 318
Property: Mole fraction of fluoranthene (Fluid (supercritical or subcritical phases)); method: Chromatography
Pressure, kPa	Mole fraction of fluoranthene	uncertainty
12000	0.000178	2.1e-05
15100	0.000356	3.7e-05
16000	0.000372	3.7e-05
20000	0.000509	5.1e-05
24000	0.000613	6.2e-05
28000	0.000772	7.8e-05
