Measured thermophysical data. Solubility of Oleanolic Acid in Various Solvents from (288.3 to 328.3) K
Source: J. Chem. Eng. Data, 2007, 10.1021/je700312r
Compound 1: oleanolic acid, C30H48O3, InChI=1S/C30H48O3/c1-25(2)14-16-30(24(32)33)17-15-28(6)19(20(30)18-25)8-9-22-27(5)12-11-23(31)26(3,4)21(27)10-13-29(22,28)7/h8,20-23,31H,9-18H2,1-7H3,(H,32,33)/t20-,21-,22+,23-,27-,28+,29+,30-/m0/s1
Compound 2: ethanol, C2H6O, InChI=1S/C2H6O/c1-2-3/h3H,2H2,1H3
Compound 3: butan-1-ol, C4H10O, InChI=1S/C4H10O/c1-2-3-4-5/h5H,2-4H2,1H3
Compound 4: acetone, C3H6O, InChI=1S/C3H6O/c1-3(2)4/h1-2H3
Compound 5: water, H2O, InChI=1S/H2O/h1H2

System: ethanol + oleanolic acid; phases: Liquid, Crystal
Fixed: Pressure, kPa = 101
Property: Amount concentration (molarity), mol/dm3 (Liquid); method: HPLC
Temperature, K	Amount concentration (molarity), mol/dm3	uncertainty
288.3	0.0089	0.0014
293.3	0.0111	0.0014
298.3	0.0135	0.0014
303.3	0.0149	0.0014
308.3	0.0157	0.0014
313.3	0.0171	0.0014
318.3	0.0211	0.0014
323.3	0.0221	0.0014
328.3	0.0261	0.0014

System: butan-1-ol + oleanolic acid; phases: Liquid, Crystal
Fixed: Pressure, kPa = 101
Property: Amount concentration (molarity), mol/dm3 (Liquid); method: HPLC
Temperature, K	Amount concentration (molarity), mol/dm3	uncertainty
288.3	0.032	0.0028
293.3	0.0333	0.0028
298.3	0.0382	0.0028
303.3	0.0397	0.0028
308.3	0.0441	0.0028
313.3	0.0496	0.0028
318.3	0.059	0.0028
323.3	0.0647	0.0028
328.3	0.0697	0.0028

System: acetone + oleanolic acid; phases: Liquid, Crystal
Fixed: Pressure, kPa = 101
Property: Amount concentration (molarity), mol/dm3 (Liquid); method: HPLC
Temperature, K	Amount concentration (molarity), mol/dm3	uncertainty
288.3	0.0074	0.0014
293.3	0.0112	0.0014
298.3	0.0137	0.0014
303.3	0.0155	0.0014
308.3	0.0175	0.0014
313.3	0.0196	0.0014
318.3	0.022	0.0014
323.3	0.0254	0.0014
328.3	0.0287	0.0014

System: oleanolic acid + water; phases: Liquid, Crystal
Fixed: Pressure, kPa = 101
Property: Amount concentration (molarity), mol/dm3 (Liquid); method: HPLC
Temperature, K	Amount concentration (molarity), mol/dm3	uncertainty
288.3	4.8e-06	1.7e-06
293.3	8.5e-06	1.7e-06
298.3	1.08e-05	1.7e-06
303.3	1.14e-05	1.7e-06
308.3	1.21e-05	1.7e-06
313.3	1.31e-05	1.7e-06
318.3	1.57e-05	1.7e-06
323.3	1.74e-05	1.7e-06
328.3	1.78e-05	1.7e-06
