Measured thermophysical data. Liquid-Liquid Equilibria of Alkane (C10-C14) + Hexylbenzene + Sulfolane
Source: J. Chem. Eng. Data, 2007, 10.1021/je7000123
Compound 1: hexylbenzene, C12H18, InChI=1S/C12H18/c1-2-3-4-6-9-12-10-7-5-8-11-12/h5,7-8,10-11H,2-4,6,9H2,1H3
Compound 2: sulfolane, C4H8O2S, InChI=1S/C4H8O2S/c5-7(6)3-1-2-4-7/h1-4H2
Compound 3: decane, C10H22, InChI=1S/C10H22/c1-3-5-7-9-10-8-6-4-2/h3-10H2,1-2H3
Compound 4: dodecane, C12H26, InChI=1S/C12H26/c1-3-5-7-9-11-12-10-8-6-4-2/h3-12H2,1-2H3
Compound 5: tetradecane, C14H30, InChI=1S/C14H30/c1-3-5-7-9-11-13-14-12-10-8-6-4-2/h3-14H2,1-2H3

System: decane + sulfolane + hexylbenzene; phases: Liquid mixture 2, Liquid mixture 1
Fixed: Pressure, kPa = 101
Property: Mole fraction of decane (Liquid mixture 2); method: Chromatography
Property: Mole fraction of hexylbenzene (Liquid mixture 1); method: Chromatography
Property: Mole fraction of decane (Liquid mixture 1); method: Chromatography
Temperature, K	Mole fraction of hexylbenzene	Mole fraction of decane	uncertainty	Mole fraction of hexylbenzene	uncertainty	Mole fraction of decane	uncertainty
323.15	0	0.004	0.004	0	0.001	0.995	
323.15	0.007	0.004	0.004	0.108	0.014	0.886	
323.15	0.018	0.004	0.004	0.254	0.014	0.735	
323.15	0.03	0.003	0.003	0.389	0.014	0.596	
323.15	0.042	0.003	0.003	0.51	0.014	0.465	
323.15	0.057	0.002	0.002	0.654	0.014	0.304	
323.15	0.068	0.002	0.002	0.748	0.014	0.189	
323.15	0.082	0.001	0.001	0.825	0.012	0.089	
323.15	0.099	0	0.001	0.876	0.01	0	
248.15	0	0.006	0.006	0	0.001	0.991	
248.15	0.008	0.005	0.005	0.1	0.014	0.89	
248.15	0.018	0.005	0.005	0.213	0.014	0.771	
248.15	0.032	0.005	0.005	0.336	0.014	0.64	
248.15	0.046	0.005	0.005	0.481	0.014	0.484	
248.15	0.062	0.004	0.004	0.591	0.013	0.352	
248.15	0.075	0.003	0.003	0.676	0.012	0.24	
248.15	0.09	0.002	0.002	0.752	0.011	0.121	
248.15	0.124	0	0.001	0.797	0.01	0	
373.15	0	0.009	0.009	0	0.001	0.986	
373.15	0.011	0.007	0.007	0.1	0.014	0.885	
373.15	0.027	0.007	0.007	0.235	0.014	0.741	
373.15	0.043	0.006	0.006	0.36	0.013	0.599	
373.15	0.06	0.006	0.006	0.496	0.013	0.435	
373.15	0.071	0.005	0.005	0.569	0.013	0.335	
373.15	0.085	0.005	0.005	0.64	0.011	0.227	
373.15	0.114	0.003	0.003	0.67	0.01	0.081	
373.15	0.161	0	0.001	0.591	0.01	0	

System: dodecane + sulfolane + hexylbenzene; phases: Liquid mixture 2, Liquid mixture 1
Fixed: Pressure, kPa = 101
Property: Mole fraction of dodecane (Liquid mixture 2); method: Chromatography
Property: Mole fraction of hexylbenzene (Liquid mixture 1); method: Chromatography
Property: Mole fraction of dodecane (Liquid mixture 1); method: Chromatography
Temperature, K	Mole fraction of hexylbenzene	Mole fraction of dodecane	uncertainty	Mole fraction of hexylbenzene	uncertainty	Mole fraction of dodecane	uncertainty
323.15	0	0.002	0.002	0	0.001	0.995	
323.15	0.009	0.002	0.002	0.147	0.014	0.847	
323.15	0.021	0.001	0.001	0.298	0.014	0.689	
323.15	0.034	0.001	0.001	0.433	0.014	0.55	
323.15	0.048	0.001	0.001	0.576	0.014	0.396	
323.15	0.065	0.001	0.001	0.709	0.013	0.244	
323.15	0.078	0	0.001	0.789	0.012	0.144	
323.15	0.099	0	0.001	0.876	0.01	0	
348.15	0	0.004	0.004	0	0.001	0.99	
348.15	0.009	0.004	0.004	0.101	0.014	0.888	
348.15	0.022	0.004	0.004	0.245	0.014	0.741	
348.15	0.036	0.004	0.004	0.376	0.014	0.601	
348.15	0.046	0.003	0.003	0.475	0.014	0.491	
348.15	0.057	0.003	0.003	0.573	0.013	0.38	
348.15	0.069	0.003	0.003	0.645	0.013	0.289	
348.15	0.091	0.002	0.002	0.746	0.011	0.142	
348.15	0.124	0	0.001	0.797	0.01	0	
373.15	0	0.005	0.005	0	0.001	0.983	
373.15	0.013	0.005	0.005	0.143	0.014	0.835	
373.15	0.029	0.005	0.005	0.276	0.014	0.691	
373.15	0.04	0.005	0.005	0.382	0.014	0.576	
373.15	0.051	0.005	0.005	0.459	0.013	0.484	
373.15	0.069	0.005	0.005	0.577	0.013	0.334	
373.15	0.082	0.004	0.004	0.642	0.011	0.23	
373.15	0.11	0.003	0.003	0.689	0.01	0.085	
373.15	0.161	0	0.001	0.59	0.01	0	

System: sulfolane + tetradecane + hexylbenzene; phases: Liquid mixture 2, Liquid mixture 1
Fixed: Pressure, kPa = 101
Property: Mole fraction of tetradecane (Liquid mixture 2); method: Chromatography
Property: Mole fraction of hexylbenzene (Liquid mixture 1); method: Chromatography
Property: Mole fraction of tetradecane (Liquid mixture 1); method: Chromatography
Temperature, K	Mole fraction of hexylbenzene	Mole fraction of tetradecane	uncertainty	Mole fraction of hexylbenzene	uncertainty	Mole fraction of tetradecane	uncertainty
323.15	0	0.001	0.001	0	0.001	0.994	
323.15	0.006	0.001	0.001	0.1	0.014	0.894	
323.15	0.016	0.001	0.001	0.229	0.014	0.762	
323.15	0.027	0.001	0.001	0.398	0.014	0.589	
323.15	0.039	0.001	0.001	0.533	0.014	0.445	
323.15	0.055	0.001	0.001	0.667	0.013	0.294	
323.15	0.075	0	0.001	0.799	0.012	0.135	
323.15	0.099	0	0.001	0.876	0.01	0	
348.15	0	0.002	0.002	0	0.001	0.988	
348.15	0.007	0.002	0.002	0.105	0.014	0.882	
348.15	0.017	0.002	0.002	0.242	0.014	0.743	
348.15	0.035	0.002	0.002	0.434	0.014	0.539	
348.15	0.051	0.001	0.001	0.568	0.014	0.392	
348.15	0.063	0.001	0.001	0.653	0.013	0.289	
348.15	0.078	0.001	0.001	0.728	0.012	0.188	
348.15	0.096	0.001	0.001	0.786	0.011	0.09	
348.15	0.124	0	0.001	0.797	0.01	0	
373.15	0	0.004	0.004	0	0.001	0.978	
373.15	0.008	0.004	0.004	0.097	0.014	0.879	
373.15	0.017	0.003	0.003	0.192	0.014	0.783	
373.15	0.036	0.003	0.003	0.369	0.014	0.6	
373.15	0.048	0.003	0.003	0.464	0.013	0.489	
373.15	0.061	0.002	0.002	0.545	0.013	0.391	
373.15	0.092	0.001	0.001	0.679	0.012	0.182	
373.15	0.113	0.001	0.001	0.701	0.011	0.091	
373.15	0.161	0	0.001	0.591	0.01	0	
