Measured thermophysical data. Solubility of CO2 in a Choline Chloride + Urea Eutectic Mixture
Source: J. Chem. Eng. Data, 2008, 10.1021/je700638u
Compound 1: carbon dioxide, CO2, InChI=1S/CO2/c2-1-3
Compound 2: choline chloride, C5H14ClNO, InChI=1S/C5H14NO.ClH/c1-6(2,3)4-5-7;/h7H,4-5H2,1-3H3;1H/q+1;/p-1
Compound 3: urea, CH4N2O, InChI=1S/CH4N2O/c2-1(3)4/h(H4,2,3,4)

System: urea + choline chloride + carbon dioxide; phases: Liquid, Gas
Property: Mole fraction of carbon dioxide (Liquid); method: gravimetric method
Solvent: Amount ratio of component to other component of binary solvent of choline chloride	Temperature, K	Pressure, kPa	Mole fraction of carbon dioxide	uncertainty
0.4	313.15	1150	0.046	0.01
0.4	313.15	2670	0.088	0.01
0.4	313.15	4530	0.125	0.01
0.4	313.15	6670	0.155	0.01
0.4	313.15	8610	0.176	0.01
0.4	313.15	10570	0.188	0.01
0.4	313.15	12450	0.203	0.01
0.4	323.15	1060	0.039	0.01
0.4	323.15	2500	0.078	0.01
0.4	323.15	4120	0.107	0.01
0.4	323.15	6200	0.134	0.01
0.4	323.15	7130	0.147	0.01
0.4	323.15	8250	0.156	0.01
0.4	323.15	10530	0.17	0.01
0.4	323.15	12280	0.186	0.01
0.4	333.15	1080	0.032	0.01
0.4	333.15	2540	0.068	0.01
0.4	333.15	4030	0.09	0.01
0.4	333.15	5980	0.117	0.01
0.4	333.15	8040	0.139	0.01
0.4	333.15	10040	0.152	0.01
0.4	333.15	12550	0.168	0.01
0.5	313.15	1130	0.077	0.01
0.5	313.15	2850	0.15	0.01
0.5	313.15	4370	0.191	0.01
0.5	313.15	6230	0.233	0.01
0.5	313.15	7960	0.253	0.01
0.5	313.15	9120	0.27	0.01
0.5	313.15	10460	0.283	0.01
0.5	313.15	12500	0.309	0.01
0.5	323.15	1010	0.06	0.01
0.5	323.15	2240	0.107	0.01
0.5	323.15	3170	0.132	0.01
0.5	323.15	4740	0.18	0.01
0.5	323.15	6510	0.216	0.01
0.5	323.15	7220	0.229	0.01
0.5	323.15	9290	0.252	0.01
0.5	323.15	11100	0.271	0.01
0.5	333.15	1000	0.051	0.01
0.5	333.15	2360	0.099	0.01
0.5	333.15	4800	0.155	0.01
0.5	333.15	6310	0.198	0.01
0.5	333.15	7920	0.215	0.01
0.5	333.15	9510	0.233	0.01
0.5	333.15	11100	0.248	0.01
0.5	333.15	12730	0.27	0.01
0.6666	313.15	1070	0.051	0.01
0.6666	313.15	2520	0.096	0.01
0.6666	313.15	4210	0.122	0.01
0.6666	313.15	6090	0.159	0.01
0.6666	313.15	8210	0.178	0.01
0.6666	313.15	9860	0.195	0.01
0.6666	313.15	11840	0.201	0.01
0.6666	323.15	850	0.033	0.01
0.6666	323.15	2330	0.079	0.01
0.6666	323.15	3690	0.097	0.01
0.6666	323.15	6130	0.144	0.01
0.6666	323.15	8190	0.164	0.01
0.6666	323.15	10550	0.183	0.01
0.6666	323.15	12520	0.191	0.01
0.6666	333.15	1230	0.038	0.01
0.6666	333.15	2590	0.069	0.01
0.6666	333.15	4780	0.098	0.01
0.6666	333.15	6550	0.122	0.01
0.6666	333.15	8380	0.143	0.01
0.6666	333.15	10520	0.164	0.01
0.6666	333.15	12350	0.169	0.01
0.6666	333.15	12500	0.172	0.01
