Measured thermophysical data. Densities and Excess Volumes of the 1,3-Dimethylimidazolium Methylsulfate + Methanol System at Temperatures from (313.15 to 333.15) K and Pressures from (0.1 to 25) MPa
Source: J. Chem. Eng. Data, 2007, 10.1021/je700188w
Compound 1: 1,3-dimethylimidazolium methylsulfate, C6H12N2O4S, InChI=1S/C5H9N2.CH4O4S/c1-6-3-4-7(2)5-6;1-5-6(2,3)4/h3-5H,1-2H3;1H3,(H,2,3,4)/q+1;/p-1
Compound 2: methanol, CH4O, InChI=1S/CH4O/c1-2/h2H,1H3

System: 1,3-dimethylimidazolium methylsulfate; phases: Liquid
Property: Mass density, kg/m3 (Liquid); method: VIBTUB:UFactor:8
Pressure, kPa	Temperature, K	Mass density, kg/m3	uncertainty
100	318.15	1318.59	4.47
100	323.15	1314.45	4.43
100	328.15	1311.21	4.41
100	333.15	1308.09	4.38
2500	313.15	1322.36	4.74
2500	318.15	1318.99	4.71
2500	323.15	1315.38	4.67
2500	328.15	1311.78	4.64
2500	333.15	1308.74	4.62
5000	313.15	1323.15	4.99
5000	318.15	1320.26	4.97
5000	323.15	1316.9	4.93
5000	328.15	1313.33	4.9
5000	333.15	1309.91	4.87
10000	313.15	1325.84	5.52
10000	318.15	1322.52	5.49
10000	323.15	1319.03	5.45
10000	328.15	1315.53	5.41
10000	333.15	1312.06	5.37
15000	313.15	1327.82	6.05
15000	318.15	1324.34	6.01
15000	323.15	1321.09	5.97
15000	328.15	1317.58	5.92
15000	333.15	1314.05	5.88
20000	313.15	1329.86	6.59
20000	318.15	1326.38	6.54
20000	323.15	1322.91	6.49
20000	328.15	1319.52	6.44
20000	333.15	1316.06	6.39
25000	313.15	1331.73	7.13
25000	318.15	1328.18	7.07
25000	323.15	1324.79	7.02
25000	328.15	1321.46	6.97
25000	333.15	1318.04	6.91

System: methanol; phases: Liquid
Property: Mass density, kg/m3 (Liquid); method: VIBTUB:UFactor:2
Pressure, kPa	Temperature, K	Mass density, kg/m3	uncertainty
100	283.15	800.54	0.45
100	293.15	791.23	0.45
100	298.15	786.51	0.46
100	303.15	781.96	0.46
100	313.15	772.43	0.46
100	318.15	767.47	0.46
100	323.15	762.78	0.46
100	328.15	757.83	0.47
100	333.15	752.96	0.47
2500	283.15	802.75	0.47
2500	293.15	793.52	0.47
2500	298.15	788.81	0.47
2500	303.15	784.36	0.48
2500	313.15	774.99	0.48
2500	318.15	770.09	0.48
2500	323.15	765.48	0.48
2500	328.15	760.61	0.49
2500	333.15	755.84	0.49
5000	283.15	804.88	0.48
5000	293.15	795.8	0.49
5000	298.15	791.18	0.49
5000	303.15	786.78	0.5
5000	313.15	777.53	0.5
5000	318.15	772.74	0.5
5000	323.15	768.2	0.51
5000	328.15	763.41	0.51
5000	333.15	758.73	0.51
10000	283.15	809.06	0.52
10000	293.15	800.17	0.53
10000	298.15	795.7	0.54
10000	303.15	791.48	0.54
10000	313.15	782.45	0.55
10000	318.15	777.79	0.55
10000	323.15	773.39	0.56
10000	328.15	768.75	0.56
10000	333.15	764.21	0.57
15000	283.15	813.06	0.56
15000	293.15	804.36	0.57
15000	298.15	800.02	0.58
15000	303.15	795.84	0.59
15000	313.15	787.08	0.6
15000	318.15	782.57	0.6
15000	323.15	778.3	0.61
15000	328.15	773.73	0.61
15000	333.15	769.39	0.62
20000	283.15	816.88	0.61
20000	293.15	808.39	0.62
20000	298.15	804.15	0.63
20000	303.15	799.97	0.63
20000	313.15	791.5	0.65
20000	318.15	787.09	0.65
20000	323.15	782.93	0.66
20000	328.15	778.49	0.67
20000	333.15	774.25	0.68
25000	283.15	820.6	0.65
25000	293.15	812.25	0.67
25000	298.15	808.1	0.67
25000	303.15	803.95	0.68
25000	313.15	795.74	0.7
25000	318.15	791.43	0.71
25000	323.15	787.34	0.72
25000	328.15	783.03	0.72
25000	333.15	778.87	0.73
30000	283.15	824.14	0.69
30000	293.15	815.94	0.71
30000	298.15	811.88	0.72
30000	303.15	807.83	0.73
30000	313.15	799.72	0.75
30000	323.15	791.56	0.77
30000	333.15	783.33	0.79
35000	283.15	827.58	0.73
35000	293.15	819.55	0.76
35000	298.15	815.52	0.77
35000	303.15	811.51	0.78
35000	313.15	803.62	0.8
35000	323.15	795.6	0.82
35000	333.15	787.53	0.84

System: methanol + 1,3-dimethylimidazolium methylsulfate; phases: Liquid
Property: Mass density, kg/m3 (Liquid); method: VIBTUB:UFactor:6
Temperature, K	Pressure, kPa	Mole fraction of 1,3-dimethylimidazolium methylsulfate	Mass density, kg/m3	uncertainty
313.15	100	0.0595	897.4	0.59
313.15	100	0.1256	995.68	0.5
313.15	100	0.2255	1099.73	0.72
313.15	100	0.3487	1178.03	1.05
313.15	100	0.4358	1214.89	1.34
313.15	100	0.5999	1259.56	1.97
313.15	100	0.678	1272.43	2.31
313.15	100	0.7985	1293.34	2.93
313.15	100	0.8788	1306.67	3.4
313.15	2500	0.0595	899.34	0.62
313.15	2500	0.1256	997.08	0.5
313.15	2500	0.2255	1103.45	0.76
313.15	2500	0.3487	1178.78	1.15
313.15	2500	0.4358	1215.88	1.46
313.15	2500	0.5999	1260.5	2.12
313.15	2500	0.678	1273.27	2.47
313.15	2500	0.7985	1293.66	3.09
313.15	2500	0.8788	1307.6	3.58
313.15	5000	0.0595	901.48	0.66
313.15	5000	0.1256	998.93	0.49
313.15	5000	0.2255	1105.04	0.81
313.15	5000	0.3487	1180.09	1.25
313.15	5000	0.4358	1217.1	1.59
313.15	5000	0.5999	1261.63	2.28
313.15	5000	0.678	1274.4	2.63
313.15	5000	0.7985	1294.78	3.27
313.15	5000	0.8788	1308.84	3.76
313.15	10000	0.0595	905.53	0.73
313.15	10000	0.1256	1002.32	0.5
313.15	10000	0.2255	1107.82	0.92
313.15	10000	0.3487	1182.55	1.47
313.15	10000	0.4358	1219.41	1.86
313.15	10000	0.5999	1263.81	2.6
313.15	10000	0.678	1276.57	2.97
313.15	10000	0.7985	1296.86	3.63
313.15	10000	0.8788	1310.84	4.14
313.15	15000	0.0595	909.28	0.8
313.15	15000	0.1256	1005.47	0.51
313.15	15000	0.2255	1110.58	1.04
313.15	15000	0.3487	1184.88	1.7
313.15	15000	0.4358	1221.54	2.13
313.15	15000	0.5999	1265.86	2.92
313.15	15000	0.678	1278.54	3.3
313.15	15000	0.7985	1298.79	3.99
313.15	15000	0.8788	1312.82	4.52
313.15	20000	0.0595	912.87	0.86
313.15	20000	0.1256	1008.72	0.52
313.15	20000	0.2255	1112.94	1.19
313.15	20000	0.3487	1187.36	1.93
313.15	20000	0.4358	1223.84	2.4
313.15	20000	0.5999	1267.94	3.25
313.15	20000	0.678	1280.59	3.65
313.15	20000	0.7985	1300.72	4.36
313.15	20000	0.8788	1314.73	4.9
313.15	25000	0.0595	916.36	0.92
313.15	25000	0.1256	1011.65	0.54
313.15	25000	0.2255	1115.61	1.34
313.15	25000	0.3487	1189.55	2.17
313.15	25000	0.4358	1225.91	2.68
313.15	25000	0.5999	1269.9	3.58
313.15	25000	0.678	1282.63	3.99
313.15	25000	0.7985	1302.59	4.73
313.15	25000	0.8788	1316.65	5.29
318.15	100	0.0595	892.75	0.59
318.15	100	0.1256	991.27	0.5
318.15	100	0.2255	1098.1	0.71
318.15	100	0.3487	1173.63	1.03
318.15	100	0.4358	1211.01	1.33
318.15	100	0.5999	1256.25	1.96
318.15	100	0.678	1268.88	2.3
318.15	100	0.7985	1289.56	2.91
318.15	100	0.8788	1302.95	3.38
318.15	2500	0.0595	894.76	0.63
318.15	2500	0.1256	992.74	0.5
318.15	2500	0.2255	1099.36	0.75
318.15	2500	0.3487	1175.27	1.13
318.15	2500	0.4358	1212.06	1.45
318.15	2500	0.5999	1256.87	2.11
318.15	2500	0.678	1269.52	2.45
318.15	2500	0.7985	1289.8	3.07
318.15	2500	0.8788	1303.55	3.55
318.15	5000	0.0595	896.93	0.67
318.15	5000	0.1256	994.61	0.5
318.15	5000	0.2255	1101.05	0.8
318.15	5000	0.3487	1176.67	1.24
318.15	5000	0.4358	1213.3	1.58
318.15	5000	0.5999	1258.23	2.26
318.15	5000	0.678	1270.74	2.61
318.15	5000	0.7985	1290.94	3.25
318.15	5000	0.8788	1304.76	3.73
318.15	10000	0.0595	901.12	0.74
318.15	10000	0.1256	997.98	0.5
318.15	10000	0.2255	1103.84	0.9
318.15	10000	0.3487	1179.19	1.46
318.15	10000	0.4358	1215.63	1.84
318.15	10000	0.5999	1260.12	2.57
318.15	10000	0.678	1272.88	2.94
318.15	10000	0.7985	1293.07	3.6
318.15	10000	0.8788	1306.85	4.11
318.15	15000	0.0595	905.02	0.81
318.15	15000	0.1256	1001.35	0.49
318.15	15000	0.2255	1106.4	1.02
318.15	15000	0.3487	1181.55	1.68
318.15	15000	0.4358	1217.87	2.1
318.15	15000	0.5999	1262.34	2.89
318.15	15000	0.678	1274.94	3.28
318.15	15000	0.7985	1295.12	3.96
318.15	15000	0.8788	1308.87	4.48
318.15	20000	0.0595	908.73	0.88
318.15	20000	0.1256	1004.57	0.51
318.15	20000	0.2255	1109.09	1.16
318.15	20000	0.3487	1183.86	1.91
318.15	20000	0.4358	1220.12	2.37
318.15	20000	0.5999	1264.21	3.22
318.15	20000	0.678	1276.82	3.61
318.15	20000	0.7985	1296.98	4.32
318.15	20000	0.8788	1310.76	4.86
318.15	25000	0.0595	912.33	0.95
318.15	25000	0.1256	1007.78	0.52
318.15	25000	0.2255	1111.62	1.31
318.15	25000	0.3487	1186.11	2.14
318.15	25000	0.4358	1222.2	2.65
318.15	25000	0.5999	1266.38	3.54
318.15	25000	0.678	1278.86	3.96
318.15	25000	0.7985	1298.82	4.69
318.15	25000	0.8788	1312.67	5.25
323.15	100	0.0595	888.46	0.6
323.15	100	0.1256	987.09	0.51
323.15	100	0.2255	1094.44	0.71
323.15	100	0.3487	1170.54	1.02
323.15	100	0.4358	1207.3	1.31
323.15	100	0.5999	1253.26	1.95
323.15	100	0.678	1265.81	2.28
323.15	100	0.7985	1286.17	2.89
323.15	100	0.8788	1298.59	3.35
323.15	2500	0.0595	890.23	0.64
323.15	2500	0.1256	989.02	0.51
323.15	2500	0.2255	1095.16	0.74
323.15	2500	0.3487	1171.75	1.12
323.15	2500	0.4358	1208.5	1.43
323.15	2500	0.5999	1253.51	2.09
323.15	2500	0.678	1266.27	2.43
323.15	2500	0.7985	1286.42	3.05
323.15	2500	0.8788	1298.95	3.52
323.15	5000	0.0595	892.75	0.68
323.15	5000	0.1256	990.75	0.51
323.15	5000	0.2255	1097.24	0.79
323.15	5000	0.3487	1173.09	1.23
323.15	5000	0.4358	1209.85	1.56
323.15	5000	0.5999	1254.68	2.24
323.15	5000	0.678	1267.47	2.59
323.15	5000	0.7985	1287.58	3.22
323.15	5000	0.8788	1301.07	3.71
323.15	10000	0.0595	896.85	0.76
323.15	10000	0.1256	994.31	0.5
323.15	10000	0.2255	1100.14	0.89
323.15	10000	0.3487	1175.63	1.44
323.15	10000	0.4358	1211.92	1.81
323.15	10000	0.5999	1256.64	2.55
323.15	10000	0.678	1269.7	2.92
323.15	10000	0.7985	1289.7	3.57
323.15	10000	0.8788	1302.92	4.07
323.15	15000	0.0595	900.92	0.83
323.15	15000	0.1256	997.64	0.5
323.15	15000	0.2255	1102.68	1
323.15	15000	0.3487	1177.98	1.66
323.15	15000	0.4358	1214.35	2.08
323.15	15000	0.5999	1258.78	2.87
323.15	15000	0.678	1271.77	3.25
323.15	15000	0.7985	1291.7	3.93
323.15	15000	0.8788	1305.22	4.45
323.15	20000	0.0595	904.77	0.9
323.15	20000	0.1256	1000.97	0.49
323.15	20000	0.2255	1105.59	1.14
323.15	20000	0.3487	1180.36	1.88
323.15	20000	0.4358	1216.74	2.34
323.15	20000	0.5999	1260.99	3.19
323.15	20000	0.678	1273.77	3.58
323.15	20000	0.7985	1293.67	4.29
323.15	20000	0.8788	1307.19	4.82
323.15	25000	0.0595	908.35	0.97
323.15	25000	0.1256	1004.08	0.51
323.15	25000	0.2255	1107.96	1.28
323.15	25000	0.3487	1182.75	2.11
323.15	25000	0.4358	1218.87	2.62
323.15	25000	0.5999	1262.92	3.51
323.15	25000	0.678	1275.8	3.92
323.15	25000	0.7985	1295.54	4.65
323.15	25000	0.8788	1309.14	5.2
328.15	100	0.0595	883.92	0.61
328.15	100	0.1256	982.93	0.51
328.15	100	0.2255	1090.95	0.7
328.15	100	0.3487	1166.83	1.01
328.15	100	0.4358	1203.7	1.3
328.15	100	0.5999	1249.89	1.93
328.15	100	0.678	1261.59	2.26
328.15	100	0.7985	1282.63	2.87
328.15	100	0.8788	1295.17	3.33
328.15	2500	0.0595	886.03	0.65
328.15	2500	0.1256	984.76	0.51
328.15	2500	0.2255	1091.73	0.74
328.15	2500	0.3487	1167.85	1.11
328.15	2500	0.4358	1204.86	1.42
328.15	2500	0.5999	1250.01	2.07
328.15	2500	0.678	1262.64	2.41
328.15	2500	0.7985	1282.83	3.03
328.15	2500	0.8788	1295.6	3.5
328.15	5000	0.0595	888.29	0.69
328.15	5000	0.1256	986.63	0.51
328.15	5000	0.2255	1093.17	0.78
328.15	5000	0.3487	1169.21	1.21
328.15	5000	0.4358	1206.08	1.54
328.15	5000	0.5999	1251.05	2.22
328.15	5000	0.678	1263.86	2.57
328.15	5000	0.7985	1284.04	3.2
328.15	5000	0.8788	1297.04	3.68
328.15	10000	0.0595	892.59	0.77
328.15	10000	0.1256	990.09	0.51
328.15	10000	0.2255	1096.09	0.87
328.15	10000	0.3487	1171.74	1.42
328.15	10000	0.4358	1208.51	1.8
328.15	10000	0.5999	1253.24	2.53
328.15	10000	0.678	1266.15	2.89
328.15	10000	0.7985	1286.21	3.55
328.15	10000	0.8788	1299.34	4.04
328.15	15000	0.0595	896.65	0.85
328.15	15000	0.1256	993.64	0.51
328.15	15000	0.2255	1098.86	0.98
328.15	15000	0.3487	1174.17	1.63
328.15	15000	0.4358	1210.72	2.05
328.15	15000	0.5999	1255.37	2.84
328.15	15000	0.678	1268.18	3.22
328.15	15000	0.7985	1288.18	3.9
328.15	15000	0.8788	1301.53	4.41
328.15	20000	0.0595	900.42	0.93
328.15	20000	0.1256	996.92	0.5
328.15	20000	0.2255	1101.57	1.11
328.15	20000	0.3487	1176.56	1.85
328.15	20000	0.4358	1212.91	2.31
328.15	20000	0.5999	1257.49	3.16
328.15	20000	0.678	1270.32	3.55
328.15	20000	0.7985	1290.28	4.25
328.15	20000	0.8788	1303.85	4.79
328.15	25000	0.0595	904.13	1
328.15	25000	0.1256	1000.12	0.49
328.15	25000	0.2255	1104.13	1.24
328.15	25000	0.3487	1178.72	2.07
328.15	25000	0.4358	1215.1	2.58
328.15	25000	0.5999	1259.44	3.47
328.15	25000	0.678	1272.25	3.89
328.15	25000	0.7985	1292.24	4.61
328.15	25000	0.8788	1305.86	5.16
333.15	100	0.0595	879.42	0.61
333.15	100	0.1256	978.71	0.52
333.15	100	0.2255	1087.29	0.7
333.15	100	0.3487	1163.08	1
333.15	100	0.4358	1200.14	1.29
333.15	100	0.5999	1244.84	1.91
333.15	100	0.678	1258.96	2.25
333.15	100	0.7985	1279.02	2.85
333.15	100	0.8788	1291.97	3.31
333.15	2500	0.0595	881.45	0.66
333.15	2500	0.1256	980.35	0.52
333.15	2500	0.2255	1087.93	0.73
333.15	2500	0.3487	1163.89	1.09
333.15	2500	0.4358	1201.18	1.4
333.15	2500	0.5999	1245.5	2.05
333.15	2500	0.678	1259.28	2.4
333.15	2500	0.7985	1279.21	3.01
333.15	2500	0.8788	1292	3.47
333.15	5000	0.0595	883.9	0.7
333.15	5000	0.1256	982.47	0.52
333.15	5000	0.2255	1089.62	0.77
333.15	5000	0.3487	1165.49	1.19
333.15	5000	0.4358	1202.46	1.53
333.15	5000	0.5999	1246.55	2.2
333.15	5000	0.678	1260.49	2.55
333.15	5000	0.7985	1280.5	3.18
333.15	5000	0.8788	1293.62	3.65
333.15	10000	0.0595	888.26	0.79
333.15	10000	0.1256	986.2	0.52
333.15	10000	0.2255	1092.34	0.86
333.15	10000	0.3487	1168.15	1.4
333.15	10000	0.4358	1204.81	1.77
333.15	10000	0.5999	1248.07	2.5
333.15	10000	0.678	1262.75	2.87
333.15	10000	0.7985	1282.63	3.52
333.15	10000	0.8788	1295.87	4.01
333.15	15000	0.0595	892.46	0.87
333.15	15000	0.1256	989.32	0.52
333.15	15000	0.2255	1095.34	0.96
333.15	15000	0.3487	1170.47	1.61
333.15	15000	0.4358	1207.22	2.03
333.15	15000	0.5999	1250.67	2.8
333.15	15000	0.678	1264.91	3.19
333.15	15000	0.7985	1284.64	3.87
333.15	15000	0.8788	1297.8	4.38
333.15	20000	0.0595	896.41	0.95
333.15	20000	0.1256	992.83	0.51
333.15	20000	0.2255	1098.06	1.08
333.15	20000	0.3487	1173.01	1.82
333.15	20000	0.4358	1209.38	2.29
333.15	20000	0.5999	1252.91	3.12
333.15	20000	0.678	1267	3.52
333.15	20000	0.7985	1286.71	4.22
333.15	20000	0.8788	1300.22	4.75
333.15	25000	0.0595	900.18	1.04
333.15	25000	0.1256	996.24	0.51
333.15	25000	0.2255	1100.6	1.22
333.15	25000	0.3487	1175.34	2.04
333.15	25000	0.4358	1211.69	2.55
333.15	25000	0.5999	1255.04	3.43
333.15	25000	0.678	1269.05	3.85
333.15	25000	0.7985	1288.75	4.57
333.15	25000	0.8788	1302.69	5.13
