Measured thermophysical data. Experimental Liquid-Liquid Equilibria of 1-Alkyl-3-methylimidazolium Hexafluorophosphate with 1-Alcohols
Source: J. Chem. Eng. Data, 2007, 10.1021/je700099w
Compound 1: propan-1-ol, C3H8O, InChI=1S/C3H8O/c1-2-3-4/h4H,2-3H2,1H3, purity 99%
Compound 2: butan-1-ol, C4H10O, InChI=1S/C4H10O/c1-2-3-4-5/h5H,2-4H2,1H3, purity 99.8%
Compound 3: pentan-1-ol, C5H12O, InChI=1S/C5H12O/c1-2-3-4-5-6/h6H,2-5H2,1H3, purity 99%
Compound 4: 1-butyl-3-methylimidazolium hexafluorophosphate, C8H15F6N2P, InChI=1S/C8H15N2.F6P/c1-3-4-5-10-7-6-9(2)8-10;1-7(2,3,4,5)6/h6-8H,3-5H2,1-2H3;/q+1;-1, purity 98%
Compound 5: 1-hexyl-3-methylimidazolium hexafluorophosphate, C10H19F6N2P, InChI=1S/C10H19N2.F6P/c1-3-4-5-6-7-12-9-8-11(2)10-12;1-7(2,3,4,5)6/h8-10H,3-7H2,1-2H3;/q+1;-1, purity 98%
Compound 6: 1-octyl-3-methylimidazolium hexafluorophosphate, C12H23F6N2P, InChI=1S/C12H23N2.F6P/c1-3-4-5-6-7-8-9-14-11-10-13(2)12-14;1-7(2,3,4,5)6/h10-12H,3-9H2,1-2H3;/q+1;-1, purity 98%

System: propan-1-ol; phases: Liquid
Property: Refractive index (Na D-line) (Liquid); method: Standard Abbe refractometry
Temperature, K	Pressure, kPa	Refractive index (Na D-line)	uncertainty
298.15	101.325	1.38305	0.00075

System: propan-1-ol; phases: Liquid
Property: Mass density, kg/m3 (Liquid); method: VIBTUB:UFactor:6
Temperature, K	Pressure, kPa	Mass density, kg/m3	uncertainty
298.15	101.325	799.6	0.8

System: butan-1-ol; phases: Liquid
Property: Refractive index (Na D-line) (Liquid); method: Standard Abbe refractometry
Temperature, K	Pressure, kPa	Refractive index (Na D-line)	uncertainty
298.15	101.325	1.39726	0.00072

System: butan-1-ol; phases: Liquid
Property: Mass density, kg/m3 (Liquid); method: VIBTUB:UFactor:2
Temperature, K	Pressure, kPa	Mass density, kg/m3	uncertainty
298.15	101.325	805.6	0.5

System: pentan-1-ol; phases: Liquid
Property: Refractive index (Na D-line) (Liquid); method: Standard Abbe refractometry
Temperature, K	Pressure, kPa	Refractive index (Na D-line)	uncertainty
298.15	101.325	1.40797	0.00075

System: pentan-1-ol; phases: Liquid
Property: Mass density, kg/m3 (Liquid); method: VIBTUB:UFactor:6
Temperature, K	Pressure, kPa	Mass density, kg/m3	uncertainty
298.15	101.325	810.8	0.8

System: 1-butyl-3-methylimidazolium hexafluorophosphate; phases: Liquid
Property: Refractive index (Na D-line) (Liquid); method: ABBE:UFactor:2
Temperature, K	Pressure, kPa	Refractive index (Na D-line)	uncertainty
298.15	101.325	1.40937	0.00108

System: 1-butyl-3-methylimidazolium hexafluorophosphate; phases: Liquid
Property: Mass density, kg/m3 (Liquid); method: VIBTUB:UFactor:8
Temperature, K	Pressure, kPa	Mass density, kg/m3	uncertainty
298.15	101.325	1367.3	2.9

System: 1-hexyl-3-methylimidazolium hexafluorophosphate; phases: Liquid
Property: Refractive index (Na D-line) (Liquid); method: ABBE:UFactor:2
Temperature, K	Pressure, kPa	Refractive index (Na D-line)	uncertainty
298.15	101.325	1.41787	0.00108

System: 1-hexyl-3-methylimidazolium hexafluorophosphate; phases: Liquid
Property: Mass density, kg/m3 (Liquid); method: VIBTUB:UFactor:8
Temperature, K	Pressure, kPa	Mass density, kg/m3	uncertainty
298.15	101.325	1293.7	2.5

System: 1-octyl-3-methylimidazolium hexafluorophosphate; phases: Liquid
Property: Refractive index (Na D-line) (Liquid); method: ABBE:UFactor:2
Temperature, K	Pressure, kPa	Refractive index (Na D-line)	uncertainty
298.15	101.325	1.42302	0.00108

System: 1-octyl-3-methylimidazolium hexafluorophosphate; phases: Liquid
Property: Mass density, kg/m3 (Liquid); method: VIBTUB:UFactor:8
Temperature, K	Pressure, kPa	Mass density, kg/m3	uncertainty
298.15	101.325	1235.7	2.2

System: propan-1-ol + 1-butyl-3-methylimidazolium hexafluorophosphate; phases: Liquid mixture 2, Liquid mixture 1
Fixed: Pressure, kPa = 101
Property: Mole fraction of 1-butyl-3-methylimidazolium hexafluorophosphate (Liquid mixture 2); method: CHROM:UFactor:2
Temperature, K	Mole fraction of 1-butyl-3-methylimidazolium hexafluorophosphate	uncertainty
278.15	0.7864	0.0033
283.15	0.7667	0.0036
288.15	0.7437	0.004
293.15	0.7198	0.0044
298.15	0.6946	0.0048
303.15	0.6664	0.0052
308.15	0.638	0.0056
313.15	0.6033	0.0062
318.15	0.576	0.0066
323.15	0.5497	0.007
328.15	0.5303	0.0073
333.15	0.5085	0.0076
338.15	0.4842	0.0075
343.15	0.4706	0.0073

System: propan-1-ol + 1-butyl-3-methylimidazolium hexafluorophosphate; phases: Liquid mixture 1, Liquid mixture 2
Fixed: Pressure, kPa = 101
Property: Mole fraction of 1-butyl-3-methylimidazolium hexafluorophosphate (Liquid mixture 1); method: CHROM:UFactor:2
Temperature, K	Mole fraction of 1-butyl-3-methylimidazolium hexafluorophosphate	uncertainty
278.15	0.0004	0.0004
283.15	0.0005	0.0005
288.15	0.0006	0.0006
293.15	0.0007	0.0007
298.15	0.0008	0.0008
303.15	0.001	0.001
308.15	0.0012	0.001
313.15	0.0015	0.001
318.15	0.0018	0.001
323.15	0.0024	0.001
328.15	0.0032	0.001
333.15	0.0049	0.001
338.15	0.009	0.001
343.15	0.0101	0.001

System: butan-1-ol + 1-butyl-3-methylimidazolium hexafluorophosphate; phases: Liquid mixture 1, Liquid mixture 2
Fixed: Pressure, kPa = 101
Property: Mole fraction of 1-butyl-3-methylimidazolium hexafluorophosphate (Liquid mixture 1); method: CHROM:UFactor:2
Temperature, K	Mole fraction of 1-butyl-3-methylimidazolium hexafluorophosphate	uncertainty
278.15	0.0003	0.0003
283.15	0.0004	0.0004
288.15	0.0004	0.0004
293.15	0.0005	0.0005
298.15	0.0007	0.0007
303.15	0.0008	0.0008
308.15	0.0009	0.0009
313.15	0.001	0.001
318.15	0.0013	0.001
323.15	0.0016	0.001
328.15	0.002	0.001
333.15	0.0025	0.001
338.15	0.0032	0.001
343.15	0.004	0.001

System: butan-1-ol + 1-butyl-3-methylimidazolium hexafluorophosphate; phases: Liquid mixture 2, Liquid mixture 1
Fixed: Pressure, kPa = 101
Property: Mole fraction of 1-butyl-3-methylimidazolium hexafluorophosphate (Liquid mixture 2); method: CHROM:UFactor:4
Temperature, K	Mole fraction of 1-butyl-3-methylimidazolium hexafluorophosphate	uncertainty
278.15	0.873	0.0039
283.15	0.861	0.0043
288.15	0.8465	0.0048
293.15	0.8299	0.0053
298.15	0.8124	0.0058
303.15	0.7932	0.0064
308.15	0.7718	0.0071
313.15	0.7597	0.0075
318.15	0.7387	0.0081
323.15	0.7164	0.0088
328.15	0.7069	0.0091
333.15	0.698	0.0094
338.15	0.6893	0.0096
343.15	0.6785	0.01

System: pentan-1-ol + 1-butyl-3-methylimidazolium hexafluorophosphate; phases: Liquid mixture 1, Liquid mixture 2
Fixed: Pressure, kPa = 101
Property: Mole fraction of 1-butyl-3-methylimidazolium hexafluorophosphate (Liquid mixture 1); method: CHROM:UFactor:2
Temperature, K	Mole fraction of 1-butyl-3-methylimidazolium hexafluorophosphate	uncertainty
278.15	0.0007	0.0007
283.15	0.0007	0.0007
288.15	0.0007	0.0007
293.15	0.0007	0.0007
298.15	0.0008	0.0008
303.15	0.0009	0.0009
308.15	0.001	0.001
313.15	0.0013	0.001
318.15	0.0015	0.001
323.15	0.0018	0.001
328.15	0.0021	0.001
333.15	0.0025	0.001
338.15	0.003	0.001
343.15	0.0035	0.001

System: pentan-1-ol + 1-butyl-3-methylimidazolium hexafluorophosphate; phases: Liquid mixture 2, Liquid mixture 1
Fixed: Pressure, kPa = 101
Property: Mole fraction of 1-butyl-3-methylimidazolium hexafluorophosphate (Liquid mixture 2); method: CHROM:UFactor:4
Temperature, K	Mole fraction of 1-butyl-3-methylimidazolium hexafluorophosphate	uncertainty
278.15	0.9193	0.0025
283.15	0.9157	0.0026
288.15	0.9066	0.0029
293.15	0.896	0.0032
298.15	0.8832	0.0036
303.15	0.8714	0.004
308.15	0.8568	0.0044
313.15	0.8379	0.005
318.15	0.8212	0.0056
323.15	0.8044	0.0061
328.15	0.7872	0.0066
333.15	0.7695	0.0071
338.15	0.7584	0.0075
343.15	0.747	0.0078

System: propan-1-ol + 1-hexyl-3-methylimidazolium hexafluorophosphate; phases: Liquid mixture 1, Liquid mixture 2
Fixed: Pressure, kPa = 101
Property: Mole fraction of 1-hexyl-3-methylimidazolium hexafluorophosphate (Liquid mixture 1); method: CHROM:UFactor:2
Temperature, K	Mole fraction of 1-hexyl-3-methylimidazolium hexafluorophosphate	uncertainty
278.15	0.0018	0.001
283.15	0.0022	0.001
288.15	0.0027	0.001
293.15	0.0035	0.001
298.15	0.0044	0.001
303.15	0.0057	0.001
308.15	0.0078	0.001
313.15	0.0106	0.001
318.15	0.0175	0.0011
323.15	0.0482	0.0014
328.15	0.0785	0.0016

System: propan-1-ol + 1-hexyl-3-methylimidazolium hexafluorophosphate; phases: Liquid mixture 2, Liquid mixture 1
Fixed: Pressure, kPa = 101
Property: Mole fraction of 1-hexyl-3-methylimidazolium hexafluorophosphate (Liquid mixture 2); method: CHROM:UFactor:4
Temperature, K	Mole fraction of 1-hexyl-3-methylimidazolium hexafluorophosphate	uncertainty
278.15	0.6973	0.0094
283.15	0.6674	0.0103
288.15	0.6365	0.0113
293.15	0.6023	0.0123
298.15	0.5691	0.0134
303.15	0.5331	0.0145
308.15	0.5072	0.0153
313.15	0.4646	0.0144
318.15	0.4346	0.0135
323.15	0.412	0.0128
328.15	0.3819	0.0118

System: butan-1-ol + 1-hexyl-3-methylimidazolium hexafluorophosphate; phases: Liquid mixture 1, Liquid mixture 2
Fixed: Pressure, kPa = 101
Property: Mole fraction of 1-hexyl-3-methylimidazolium hexafluorophosphate (Liquid mixture 1); method: CHROM:UFactor:2
Temperature, K	Mole fraction of 1-hexyl-3-methylimidazolium hexafluorophosphate	uncertainty
278.15	0.0009	0.0009
283.15	0.0012	0.001
288.15	0.0015	0.001
293.15	0.0018	0.001
298.15	0.0021	0.001
303.15	0.0026	0.001
308.15	0.0034	0.001
313.15	0.0043	0.001
318.15	0.0056	0.001
323.15	0.0073	0.001
328.15	0.0101	0.001
333.15	0.0169	0.001
338.15	0.0275	0.0011
343.15	0.0407	0.0012

System: butan-1-ol + 1-hexyl-3-methylimidazolium hexafluorophosphate; phases: Liquid mixture 2, Liquid mixture 1
Fixed: Pressure, kPa = 101
Property: Mole fraction of 1-hexyl-3-methylimidazolium hexafluorophosphate (Liquid mixture 2); method: CHROM:UFactor:3
Temperature, K	Mole fraction of 1-hexyl-3-methylimidazolium hexafluorophosphate	uncertainty
278.15	0.7691	0.0054
283.15	0.7501	0.0058
288.15	0.7255	0.0064
293.15	0.6991	0.007
298.15	0.6706	0.0077
303.15	0.6401	0.0084
308.15	0.6128	0.009
313.15	0.5864	0.0096
318.15	0.5576	0.0103
323.15	0.5314	0.0109
328.15	0.5017	0.0116
333.15	0.4824	0.0112
338.15	0.4581	0.0107
343.15	0.4298	0.01

System: pentan-1-ol + 1-hexyl-3-methylimidazolium hexafluorophosphate; phases: Liquid mixture 1, Liquid mixture 2
Fixed: Pressure, kPa = 101
Property: Mole fraction of 1-hexyl-3-methylimidazolium hexafluorophosphate (Liquid mixture 1); method: CHROM:UFactor:2
Temperature, K	Mole fraction of 1-hexyl-3-methylimidazolium hexafluorophosphate	uncertainty
278.15	0.001	0.001
283.15	0.001	0.001
288.15	0.001	0.001
293.15	0.001	0.001
298.15	0.0013	0.001
303.15	0.0014	0.001
308.15	0.0016	0.001
313.15	0.0019	0.001
318.15	0.0026	0.001
323.15	0.0029	0.001
328.15	0.0036	0.001
333.15	0.0046	0.001
338.15	0.0057	0.001
343.15	0.0091	0.001

System: pentan-1-ol + 1-hexyl-3-methylimidazolium hexafluorophosphate; phases: Liquid mixture 2, Liquid mixture 1
Fixed: Pressure, kPa = 101
Property: Mole fraction of 1-hexyl-3-methylimidazolium hexafluorophosphate (Liquid mixture 2); method: CHROM:UFactor:3
Temperature, K	Mole fraction of 1-hexyl-3-methylimidazolium hexafluorophosphate	uncertainty
278.15	0.8402	0.0037
283.15	0.8261	0.0041
288.15	0.813	0.0044
293.15	0.7931	0.0048
298.15	0.7708	0.0053
303.15	0.7474	0.0059
308.15	0.7233	0.0065
313.15	0.6963	0.0071
318.15	0.6779	0.0075
323.15	0.6555	0.008
328.15	0.6326	0.0086
333.15	0.6079	0.0091
338.15	0.5858	0.0096
343.15	0.5654	0.0101

System: propan-1-ol + 1-octyl-3-methylimidazolium hexafluorophosphate; phases: Liquid mixture 1, Liquid mixture 2
Fixed: Pressure, kPa = 101
Property: Mole fraction of 1-octyl-3-methylimidazolium hexafluorophosphate (Liquid mixture 1); method: CHROM:UFactor:2
Temperature, K	Mole fraction of 1-octyl-3-methylimidazolium hexafluorophosphate	uncertainty
278.15	0.0024	0.001
283.15	0.003	0.001
288.15	0.004	0.001
293.15	0.0058	0.001
298.15	0.0088	0.001
303.15	0.0151	0.001
305.15	0.0171	0.0011
307.15	0.0269	0.0012

System: propan-1-ol + 1-octyl-3-methylimidazolium hexafluorophosphate; phases: Liquid mixture 2, Liquid mixture 1
Fixed: Pressure, kPa = 101
Property: Mole fraction of 1-octyl-3-methylimidazolium hexafluorophosphate (Liquid mixture 2); method: CHROM:UFactor:3
Temperature, K	Mole fraction of 1-octyl-3-methylimidazolium hexafluorophosphate	uncertainty
278.15	0.4646	0.0108
283.15	0.4278	0.01
288.15	0.387	0.009
293.15	0.3422	0.008
298.15	0.291	0.0068
303.15	0.2335	0.0056
305.15	0.2026	0.0051
307.15	0.1566	0.0043

System: butan-1-ol + 1-octyl-3-methylimidazolium hexafluorophosphate; phases: Liquid mixture 1, Liquid mixture 2
Fixed: Pressure, kPa = 101
Property: Mole fraction of 1-octyl-3-methylimidazolium hexafluorophosphate (Liquid mixture 1); method: CHROM:UFactor:2
Temperature, K	Mole fraction of 1-octyl-3-methylimidazolium hexafluorophosphate	uncertainty
278.15	0.0013	0.001
283.15	0.0014	0.001
288.15	0.0018	0.001
293.15	0.0022	0.001
298.15	0.003	0.001
303.15	0.004	0.001
308.15	0.0055	0.001
313.15	0.0082	0.001
318.15	0.0138	0.001
323.15	0.0284	0.0011

System: butan-1-ol + 1-octyl-3-methylimidazolium hexafluorophosphate; phases: Liquid mixture 2, Liquid mixture 1
Fixed: Pressure, kPa = 101
Property: Mole fraction of 1-octyl-3-methylimidazolium hexafluorophosphate (Liquid mixture 2); method: CHROM:UFactor:3
Temperature, K	Mole fraction of 1-octyl-3-methylimidazolium hexafluorophosphate	uncertainty
278.15	0.6184	0.0089
283.15	0.5903	0.0095
288.15	0.5549	0.0104
293.15	0.5202	0.0112
298.15	0.482	0.0112
303.15	0.4395	0.0102
308.15	0.3963	0.0093
313.15	0.339	0.0079
318.15	0.2924	0.0069
323.15	0.2341	0.0056

System: pentan-1-ol + 1-octyl-3-methylimidazolium hexafluorophosphate; phases: Liquid mixture 1, Liquid mixture 2
Fixed: Pressure, kPa = 101
Property: Mole fraction of 1-octyl-3-methylimidazolium hexafluorophosphate (Liquid mixture 1); method: CHROM:UFactor:2
Temperature, K	Mole fraction of 1-octyl-3-methylimidazolium hexafluorophosphate	uncertainty
278.15	0.0004	0.0004
283.15	0.0006	0.0006
288.15	0.0008	0.0008
293.15	0.0012	0.001
298.15	0.0016	0.001
303.15	0.0022	0.001
308.15	0.0027	0.001
313.15	0.0034	0.001
318.15	0.0048	0.001
323.15	0.0068	0.001
328.15	0.0106	0.001
333.15	0.029	0.0011

System: pentan-1-ol + 1-octyl-3-methylimidazolium hexafluorophosphate; phases: Liquid mixture 2, Liquid mixture 1
Fixed: Pressure, kPa = 101
Property: Mole fraction of 1-octyl-3-methylimidazolium hexafluorophosphate (Liquid mixture 2); method: CHROM:UFactor:3
Temperature, K	Mole fraction of 1-octyl-3-methylimidazolium hexafluorophosphate	uncertainty
278.15	0.7551	0.0057
283.15	0.7158	0.0066
288.15	0.6787	0.0075
293.15	0.6384	0.0084
298.15	0.6068	0.0092
303.15	0.573	0.0099
308.15	0.537	0.0108
313.15	0.5001	0.0116
318.15	0.4523	0.0105
323.15	0.4175	0.0097
328.15	0.3807	0.0089
333.15	0.3482	0.0081
