Measured thermophysical data. Solid Vapor Pressure and Enthalpy of Sublimation for Perfluorooctanoic Acid
Source: J. Chem. Eng. Data, 2008, 10.1021/je700593d
Compound 1: pentadecafluorooctanoic acid, C8HF15O2, InChI=1S/C8HF15O2/c9-2(10,1(24)25)3(11,12)4(13,14)5(15,16)6(17,18)7(19,20)8(21,22)23/h(H,24,25)

System: pentadecafluorooctanoic acid; phases: Crystal, Gas
Property: Vapor or sublimation pressure, kPa (Crystal); method: Transpiration method
Temperature, K	Vapor or sublimation pressure, kPa	uncertainty
294.85	0.0052	0.01
308.55	0.018	0.0102
318.85	0.0407	0.0108
