Measured thermophysical data. Study of the Acoustic and Thermodynamic Properties of 1,2- and 1,3-Propanediol by Means of High-Pressure Speed of Sound Measurements at Temperatures from (293 to 318) K and Pressures up to 101 MPa
Source: J. Chem. Eng. Data, 2008, 10.1021/je7004374
Compound 1: 1,2-propanediol, C3H8O2, InChI=1S/C3H8O2/c1-3(5)2-4/h3-5H,2H2,1H3, purity 99.5%
Compound 2: propan-1,3-diol, C3H8O2, InChI=1S/C3H8O2/c4-2-1-3-5/h4-5H,1-3H2, purity 99%

System: 1,2-propanediol; phases: Liquid
Property: Refractive index (Na D-line) (Liquid); method: Standard Abbe refractometry
Temperature, K	Pressure, kPa	Refractive index (Na D-line)	uncertainty
298.15	101.325	1.431	0.0008

System: 1,2-propanediol; phases: Liquid
Fixed: Pressure, kPa = 101.325
Property: Speed of sound, m/s (Liquid); method: Pulse-echo method
Temperature, K	Speed of sound, m/s	uncertainty
293.15	1522.42	1.51
298.15	1508.41	1.5
303.15	1494.33	1.49
308.15	1480.19	1.47
313.15	1465.98	1.46

System: 1,2-propanediol; phases: Liquid
Fixed: Pressure, kPa = 101.325
Property: Mass density, kg/m3 (Liquid); method: VIBTUB:UFactor:4
Temperature, K	Mass density, kg/m3	uncertainty
283.156	1043.426	0.257
288.155	1039.844	0.252
293.159	1036.214	0.247
298.156	1032.544	0.242
303.156	1028.834	0.238
308.155	1025.088	0.233
313.155	1021.3	0.228
318.156	1017.476	0.224
323.155	1013.61	0.219
328.156	1009.708	0.215
333.155	1005.758	0.21
338.156	1001.772	0.206
343.155	997.745	0.206
348.152	993.675	0.211
353.155	989.56	0.216
358.151	985.405	0.221
363.149	981.219	0.226

System: 1,2-propanediol; phases: Liquid
Property: Speed of sound, m/s (Liquid); method: Sing-around technique in a fixed-path interferometer
Temperature, K	Pressure, kPa	Speed of sound, m/s	uncertainty
292.87	45590	1674.42	2.24
292.87	60790	1717.76	2.26
292.87	101320	1821.92	2.34
292.88	15200	1578.73	2.2
292.88	30390	1628.53	2.21
292.88	75990	1758.52	2.29
292.88	91180	1797.27	2.32
292.92	100	1523.06	1.51
298.15	45590	1661.61	2.24
298.15	60790	1705.21	2.26
298.15	75990	1746.52	2.29
298.16	15200	1564.23	2.2
298.16	30390	1615.07	2.22
298.16	91180	1785.61	2.32
298.16	101320	1810.54	2.34
298.2	100	1508.28	1.5
303.13	60790	1693.5	2.26
303.13	101320	1799.9	2.34
303.14	15200	1551.04	2.2
303.14	30390	1602.4	2.21
303.14	45590	1649.62	2.24
303.14	75990	1735.39	2.29
303.14	91180	1774.8	2.32
303.18	100	1494.24	1.49
308.12	60790	1681.97	2.26
308.12	75990	1724.11	2.29
308.12	91180	1763.99	2.32
308.12	101320	1789.33	2.34
308.13	15200	1537.72	2.19
308.13	30390	1589.54	2.21
308.13	45590	1637.57	2.24
308.17	100	1480.13	1.47
313.31	15200	1524.19	2.2
313.31	30390	1576.37	2.22
313.31	45590	1624.98	2.24
313.31	60790	1669.92	2.26
313.31	75990	1712.59	2.29
313.31	91180	1752.77	2.32
313.31	101320	1778.45	2.34
313.35	100	1465.43	1.46

System: 1,2-propanediol; phases: Liquid
Property: Mass density, kg/m3 (Liquid); method: VIBTUB:UFactor:4
Pressure, kPa	Temperature, K	Mass density, kg/m3	uncertainty
100	293.15	1036.22	0.25
100	298.15	1032.55	0.24
100	303.15	1028.84	0.24
100	308.15	1025.1	0.2
100	313.15	1021.31	0.23
100	318.15	1017.48	0.22
10000	293.15	1040.95	0.31
10000	298.15	1037.38	0.3
10000	303.15	1033.77	0.29
10000	308.15	1030.12	0.28
10000	313.15	1026.44	0.27
20000	293.15	1045.52	0.4
20000	298.15	1042.03	0.38
20000	303.15	1038.51	0.36
20000	308.15	1034.95	0.35
20000	313.15	1031.36	0.33
30000	293.15	1049.89	0.49
30000	298.15	1046.08	0.47
30000	303.15	1043.04	0.45
30000	308.15	1039.56	0.43
30000	313.15	1036.06	0.41
40000	293.15	1054.08	0.6
40000	298.15	1050.75	0.58
40000	303.15	1047.38	0.55
40000	308.15	1043.98	0.52
40000	313.15	1040.55	0.5
50000	293.15	1058.13	0.72
50000	298.15	1054.86	0.69
50000	303.15	1051.56	0.66
50000	308.15	1048.23	0.63
50000	313.15	1044.87	0.6
60000	293.15	1062.03	0.86
60000	298.15	1058.82	0.82
60000	303.15	1055.59	0.79
60000	308.15	1052.32	0.75
60000	313.15	1049.03	0.72
70000	293.15	1065.8	1
70000	298.15	1062.66	0.96
70000	303.15	1059.48	0.92
70000	308.15	1056.27	0.88
70000	313.15	1053.04	0.84
80000	293.15	1069.46	1.15
80000	298.15	1066.37	1.11
80000	303.15	1063.24	1.07
80000	308.15	1060.1	1
80000	313.15	1056.92	0.98
90000	293.15	1073.01	1.32
90000	298.15	1069.96	1.27
90000	303.15	1066.89	1.22
90000	308.15	1063.8	1.2
90000	313.15	1060.68	1.13
100000	293.15	1076.45	1.49
100000	298.15	1073.46	1.44
100000	303.15	1070.44	1.39
100000	308.15	1067.39	1.33
100000	313.15	1064.32	1.28

System: propan-1,3-diol; phases: Liquid
Property: Refractive index (Na D-line) (Liquid); method: Standard Abbe refractometry
Temperature, K	Pressure, kPa	Refractive index (Na D-line)	uncertainty
298.15	101.325	1.438	0.0008

System: propan-1,3-diol; phases: Liquid
Fixed: Pressure, kPa = 101.325
Property: Speed of sound, m/s (Liquid); method: Sing-around technique in a fixed-path interferometer
Temperature, K	Speed of sound, m/s	uncertainty
293.15	1635.99	1.81
298.15	1624.55	1.8
303.15	1613.16	1.8
308.15	1601.8	1.79
313.15	1590.48	1.78
318.15	1579.2	1.77

System: propan-1,3-diol; phases: Liquid
Fixed: Pressure, kPa = 101.325
Property: Mass density, kg/m3 (Liquid); method: VIBTUB:UFactor:8
Temperature, K	Mass density, kg/m3	uncertainty
283.156	1059.093	0.661
288.154	1056.002	0.65
293.156	1052.891	0.639
298.155	1049.779	0.628
303.156	1046.65	0.616
308.156	1043.516	0.605
313.155	1040.362	0.594
318.155	1037.193	0.583
323.155	1034.003	0.572
328.156	1030.793	0.56
333.152	1027.556	0.549
338.154	1024.298	0.537
343.155	1021.012	0.526
348.151	1017.691	0.515
353.155	1014.34	0.503
358.152	1010.955	0.492
363.147	1007.539	0.48

System: propan-1,3-diol; phases: Liquid
Property: Speed of sound, m/s (Liquid); method: Sing-around technique in a fixed-path interferometer
Temperature, K	Pressure, kPa	Speed of sound, m/s	uncertainty
292.88	30390	1721.74	2.38
292.89	15200	1681.16	2.37
292.89	45590	1760.33	2.4
292.89	60790	1796.98	2.41
292.89	75990	1832.24	2.43
292.89	91180	1865.89	2.46
292.89	101320	1887.83	2.48
292.91	100	1636.55	1.81
298.16	75990	1821.36	2.43
298.16	91180	1855.4	2.46
298.16	101320	1877.23	2.47
298.17	100	1624.49	1.8
298.17	15200	1668.66	2.37
298.17	30390	1709.92	2.38
298.17	45590	1748.79	2.4
298.17	60790	1786.04	2.41
303.14	101320	1868.05	2.47
303.15	100	1613.15	1.8
303.15	45590	1738.57	2.39
303.15	60790	1775.99	2.41
303.15	75990	1811.65	2.43
303.15	91180	1845.84	2.46
303.16	15200	1657.61	2.37
303.16	30390	1698.95	2.38
308.13	100	1601.87	1.79
308.15	15200	1646.58	2.36
308.15	30390	1688.42	2.38
308.15	45590	1728.41	2.39
308.15	60790	1766.02	2.41
308.15	75990	1801.97	2.43
308.15	91180	1836.57	2.46
308.15	101320	1858.78	2.47
313.12	100	1590.54	1.78
313.12	91180	1827.41	2.46
313.12	101320	1849.73	2.47
313.13	30390	1678.01	2.38
313.13	45590	1718.16	2.39
313.13	60790	1756.39	2.41
313.13	75990	1792.63	2.43
313.14	15200	1635.79	2.36
318.3	100	1578.87	1.77
318.31	30390	1667.26	2.38
318.31	45590	1707.96	2.39
318.31	60790	1746.29	2.41
318.31	75990	1783.06	2.43
318.31	91180	1818.05	2.46
318.31	101320	1840.61	2.47
318.32	15200	1624.63	2.36

System: propan-1,3-diol; phases: Liquid
Property: Mass density, kg/m3 (Liquid); method: VIBTUB:UFactor:8
Pressure, kPa	Temperature, K	Mass density, kg/m3	uncertainty
100	293.15	1052.91	0.64
100	298.15	1049.81	0.62
100	303.15	1046.7	0.61
100	308.15	1043.56	0.6
100	313.15	1040.39	0.59
100	318.15	1037.21	0.58
10000	293.15	1057	0.82
10000	298.15	1053.95	0.8
10000	303.15	1050.89	0.78
10000	308.15	1047.8	0.76
10000	313.15	1044.7	0.74
10000	318.15	1041.57	0.72
20000	293.15	1060.96	1.04
20000	298.15	1057.97	1.01
20000	303.15	1054.96	0.98
20000	308.15	1051.94	0.95
20000	313.15	1048.89	0.92
20000	318.15	1045.83	0.89
30000	293.15	1064.8	1.28
30000	298.15	1061.86	1.24
30000	303.15	1058.9	1.2
30000	308.15	1055.93	1.16
30000	313.15	1052.94	1.13
30000	318.15	1049.93	1.09
40000	293.15	1068.51	1.54
40000	298.15	1065.62	1.49
40000	303.15	1062.72	1.44
40000	308.15	1059.79	1.4
40000	313.15	1056.85	1.35
40000	318.15	1053.9	1.3
50000	293.15	1072.11	1.82
50000	298.15	1069.27	1.76
50000	303.15	1066.41	1.71
50000	308.15	1063.54	1.65
50000	313.15	1060.65	1.6
50000	318.15	1057.74	1.54
60000	293.15	1075.61	2.12
60000	298.15	1072.82	2.06
60000	303.15	1070	1.99
60000	308.15	1067.17	1.93
60000	313.15	1064.33	1.87
60000	318.15	1061.47	1.81
70000	293.15	1079.02	2.44
70000	298.15	1076.26	2.37
70000	303.15	1073.49	2.3
70000	308.15	1070.71	2.23
70000	313.15	1067.9	2.16
70000	318.15	1065.09	2.09
80000	293.15	1082.34	2.78
80000	298.15	1079.62	2.7
80000	303.15	1076.89	2.62
80000	308.15	1074.14	2.55
80000	313.15	1071.38	2.47
80000	318.15	1068.61	2.39
90000	293.15	1085.57	3.13
90000	298.15	1082.89	3.05
90000	303.15	1080.2	2.97
90000	308.15	1077.49	2.88
90000	313.15	1074.77	2.79
90000	318.15	1072.03	2.71
100000	293.15	1088.73	3.51
100000	298.15	1086.09	3.42
100000	303.15	1083.43	3.33
100000	308.15	1080.76	3.23
100000	313.15	1078.07	3.14
100000	318.15	1075.37	3.05
