Measured thermophysical data. Densities and Viscosities of Chromium Trioxide + Potassium Chromate +  Potassium Dichromate + Water from (298.15 to 333.15) K
Source: J. Chem. Eng. Data, 2008, 10.1021/je700363m
Compound 1: potassium chromate(VI), CrK2O4, InChI=1S/Cr.2K.4O/q;2*+1;;;2*-1, purity 99.5%
Compound 2: potassium dichromate, Cr2K2O7, InChI=1S/2Cr.2K.7O/q;;2*+1;;;;;;2*-1, purity 99.8%
Compound 3: water, H2O, InChI=1S/H2O/h1H2

System: water + potassium chromate(VI); phases: Liquid
Fixed: Temperature, K = 298.15
Fixed: Pressure, kPa = 101
Property: Mass density, kg/m3 (Liquid); method: PYCNOM:UFactor:4
Mass fraction of potassium chromate(VI)	Mass density, kg/m3	uncertainty
0.049	1034.6	1
0.0538	1038.3	1
0.0653	1046.8	1

System: water + potassium chromate(VI); phases: Liquid
Fixed: Mass fraction of potassium chromate(VI) = 0.0931
Fixed: Pressure, kPa = 101
Property: Viscosity, Pa*s (Liquid); method: Capillary tube (Ostwald; Ubbelohde) method
Temperature, K	Viscosity, Pa*s	uncertainty
298.15	0.0009285	7.7e-06
313.15	0.0007309	6.2e-06

System: water + potassium dichromate; phases: Liquid
Fixed: Pressure, kPa = 101
Property: Mass density, kg/m3 (Liquid); method: PYCNOM:UFactor:4
Mass fraction of potassium dichromate	Temperature, K	Mass density, kg/m3	uncertainty
0.02	313.15	1006.5	1.1
0.02	333.15	997	1.3
0.05	313.155	1026.8	1.2
0.05	333.15	1016.4	1.3
0.155	319.15	1166.5	1.4
0.172	323.25	1184.2	1.5
0.214	333.32	1232.1	1.6

System: water + potassium dichromate; phases: Liquid
Fixed: Pressure, kPa = 101
Property: Viscosity, Pa*s (Liquid); method: Capillary tube (Ostwald; Ubbelohde) method
Mass fraction of potassium dichromate	Temperature, K	Viscosity, Pa*s	uncertainty
0.0478	313.15	0.0006465	5.5e-06
0.0906	313.15	0.0006805	5.8e-06
0.155	319.15	0.0006914	5.9e-06
0.172	323.25	0.0006658	5.7e-06
0.214	333.35	0.0006307	5.4e-06

System: water + potassium dichromate + potassium chromate(VI); phases: Liquid
Fixed: Pressure, kPa = 101
Fixed: Solvent: Molality, mol/kg of potassium chromate(VI) = 0.1667
Property: Mass density, kg/m3 (Liquid); method: PYCNOM:UFactor:4
Molality, mol/kg of potassium dichromate	Temperature, K	Mass density, kg/m3	uncertainty
0.0258	298.15	1026.9	1
0.0516	298.15	1032	1.1
0.0773	298.15	1037.2	1.1
0.1031	298.15	1043	1.1
0.1289	298.15	1047.9	1.1
0.1547	298.15	1053	1.1
0.1805	298.15	1057.1	1.1
0.2066	298.15	1062	1.1
0.0258	303.15	1025.6	1.1
0.0516	303.15	1030.6	1.1
0.0773	303.15	1035.8	1.1
0.1031	303.15	1041.4	1.1
0.1289	303.15	1046.3	1.1
0.1547	303.15	1051.2	1.1
0.1805	303.15	1055.9	1.1
0.2066	303.15	1060.6	1.1
0.0258	313.15	1022	1.2
0.0516	313.15	1027.3	1.2
0.0773	313.15	1031.9	1.2
0.1031	313.15	1037.4	1.2
0.1289	313.15	1042.1	1.2
0.1547	313.15	1047	1.2
0.1805	313.15	1051.9	1.2
0.2066	313.15	1057.1	1.2
0.0258	323.15	1017.8	1.3
0.0516	323.15	1022.9	1.3
0.0773	323.15	1027.5	1.3
0.1031	323.15	1033	1.3
0.1289	323.15	1037.4	1.3
0.1547	323.15	1042.2	1.3
0.1805	323.15	1047.5	1.3
0.2066	323.15	1052.4	1.3
0.0258	333.15	1013.1	1.3
0.0516	333.15	1017.9	1.4
0.0773	333.15	1023	1.4
0.1031	333.15	1028.1	1.4
0.1289	333.15	1032.5	1.4
0.1547	333.15	1037.4	1.4
0.1805	333.15	1042.3	1.4
0.2066	333.15	1048	1.4

System: water + potassium dichromate + potassium chromate(VI); phases: Liquid
Fixed: Pressure, kPa = 101
Fixed: Solvent: Molality, mol/kg of potassium chromate(VI) = 0.1667
Property: Viscosity, Pa*s (Liquid); method: Capillary tube (Ostwald; Ubbelohde) method
Temperature, K	Molality, mol/kg of potassium dichromate	Viscosity, Pa*s	uncertainty
298.15	0.0258	0.0008925	7.5e-06
298.15	0.0516	0.0008962	7.6e-06
298.15	0.0773	0.0008994	7.6e-06
298.15	0.1031	0.0009002	7.6e-06
298.15	0.1289	0.0009032	7.6e-06
298.15	0.1547	0.0009069	7.6e-06
298.15	0.1805	0.0009173	7.7e-06
298.15	0.2066	0.0009214	7.8e-06
303.15	0.0258	0.0008111	6.9e-06
303.15	0.0516	0.0008125	6.9e-06
303.15	0.0773	0.0008127	6.9e-06
303.15	0.1031	0.0008135	6.9e-06
303.15	0.1289	0.0008163	6.9e-06
303.15	0.1547	0.0008229	7e-06
303.15	0.1805	0.0008261	7e-06
303.15	0.2066	0.0008282	7e-06
313.15	0.0258	0.0006691	5.8e-06
313.15	0.0516	0.0006703	5.8e-06
313.15	0.0773	0.0006703	5.8e-06
313.15	0.1031	0.0006732	5.8e-06
313.15	0.1289	0.0006756	5.8e-06
313.15	0.1547	0.0006778	5.8e-06
313.15	0.1805	0.0006796	5.8e-06
313.15	0.2066	0.00068	5.8e-06
323.15	0.0258	0.0005657	4.9e-06
323.15	0.0516	0.0005665	5e-06
323.15	0.0773	0.0005685	5e-06
323.15	0.1031	0.0005701	5e-06
323.15	0.1289	0.0005715	5e-06
323.15	0.1547	0.0005755	5e-06
323.15	0.1805	0.0005769	5e-06
323.15	0.2066	0.000579	5e-06
333.15	0.0258	0.0004879	4.3e-06
333.15	0.0516	0.0004892	4.3e-06
333.15	0.0773	0.0004903	4.4e-06
333.15	0.1031	0.0004922	4.4e-06
333.15	0.1289	0.0004924	4.4e-06
333.15	0.1547	0.0004976	4.4e-06
333.15	0.1805	0.0004994	4.4e-06
333.15	0.2066	0.0005008	4.4e-06
