Measured thermophysical data. High-Pressure Volumetric Properties of Imidazolium-Based Ionic Liquids: Effect of the Anion
Source: J. Chem. Eng. Data, 2007, 10.1021/je700224j
Compound 1: 1-butyl-3-methylimidazolium tetrafluoroborate, C8H15BF4N2, InChI=1S/C8H15N2.BF4/c1-3-4-5-10-7-6-9(2)8-10;2-1(3,4)5/h6-8H,3-5H2,1-2H3;/q+1;-1, purity 98%
Compound 2: 1-butyl-3-methylimidazolium hexafluorophosphate, C8H15F6N2P, InChI=1S/C8H15N2.F6P/c1-3-4-5-10-7-6-9(2)8-10;1-7(2,3,4,5)6/h6-8H,3-5H2,1-2H3;/q+1;-1, purity 99.9%
Compound 3: 1-ethyl-3-methylimidazolium ethyl sulfate, C8H16N2O4S, InChI=1S/C6H11N2.C2H6O4S/c1-3-8-5-4-7(2)6-8;1-2-6-7(3,4)5/h4-6H,3H2,1-2H3;2H2,1H3,(H,3,4,5)/q+1;/p-1, purity 99%
Compound 4: 1-ethyl-3-methylimidazolium bis((trifluoromethyl)sulfonyl)imide, C8H11F6N3O4S2, InChI=1S/C6H11N2.C2F6NO4S2/c1-3-8-5-4-7(2)6-8;3-1(4,5)14(10,11)9-15(12,13)2(6,7)8/h4-6H,3H2,1-2H3;/q+1;-1, purity 99%
Compound 5: 1-butyl-3-methylimidazolium bis(trifluoromethylsulfonyl)imide, C10H15F6N3O4S2, InChI=1S/C8H15N2.C2F6NO4S2/c1-3-4-5-10-7-6-9(2)8-10;3-1(4,5)14(10,11)9-15(12,13)2(6,7)8/h6-8H,3-5H2,1-2H3;/q+1;-1, purity 99%

System: 1-butyl-3-methylimidazolium tetrafluoroborate; phases: Liquid
Fixed: Pressure, kPa = 101.325
Property: Mass density, kg/m3 (Liquid); method: VIBTUB:UFactor:8
Temperature, K	Mass density, kg/m3	uncertainty
292.94	1204.8	2.7
302.8	1197.5	2.6
312.79	1190.2	2.6
322.83	1182.9	2.5
332.53	1175.8	2.5
342.72	1168.6	2.4
352.32	1161.7	2.4
373.32	1146.9	2.3
391.29	1134.5	2.2
414.92	1116.5	2.1

System: 1-butyl-3-methylimidazolium tetrafluoroborate; phases: Liquid
Property: Mass density, kg/m3 (Liquid); method: VIBTUB:UFactor:8
Pressure, kPa	Temperature, K	Mass density, kg/m3	uncertainty
1000	293.5	1204.7	2.1
1000	322.31	1183.6	2
1000	352.33	1162.1	1.9
1000	373.34	1147.3	1.8
1000	391.27	1135	1.8
1000	414.93	1117.1	1.7
5000	293.51	1206.5	2.4
5000	322.33	1185.4	2.2
5000	352.32	1164.1	2.1
5000	373.31	1149.4	2
5000	391.31	1137.1	1.9
5000	414.92	1119.4	1.8
10000	293.49	1208.5	2.7
10000	322.3	1187.7	2.6
10000	352.31	1166.5	2.4
10000	373.32	1152	2.3
10000	391.29	1139.7	2.2
10000	414.93	1122.1	2.1
20000	293.5	1212.6	3.4
20000	322.31	1192	3.2
20000	352.32	1171.1	2.9
20000	373.31	1156.8	2.8
20000	391.29	1144.8	2.7
20000	414.92	1127.4	2.5
30000	293.49	1216.5	4.1
30000	322.31	1196.2	3.8
30000	352.32	1175.7	3.5
30000	373.33	1161.6	3.3
30000	391.29	1149.7	3.2
30000	414.93	1132.5	3
40000	293.49	1220.4	4.9
40000	322.3	1200.4	4.5
40000	352.33	1180.01	4.16
40000	373.33	1166.1	3.9
40000	391.29	1154.4	3.7
40000	414.92	1137.4	3.4

System: 1-butyl-3-methylimidazolium hexafluorophosphate; phases: Liquid
Fixed: Pressure, kPa = 101.325
Property: Mass density, kg/m3 (Liquid); method: VIBTUB:UFactor:4
Temperature, K	Mass density, kg/m3	uncertainty
293.49	1369.8	0.9
302.73	1362	0.9
312.86	1353.5	0.9
322.28	1345.5	0.9
332.73	1337	0.9
342.5	1328.7	0.8
352.29	1320.9	0.8
373.33	1303.9	0.8
391.3	1289.1	0.8
414.93	1269.7	0.7

System: 1-butyl-3-methylimidazolium hexafluorophosphate; phases: Liquid
Property: Mass density, kg/m3 (Liquid); method: VIBTUB:UFactor:4
Pressure, kPa	Temperature, K	Mass density, kg/m3	uncertainty
1000	293.48	1369.9	0.8
1000	322.31	1346.2	0.7
1000	352.31	1321.6	0.7
1000	373.33	1304.4	0.7
1000	391.32	1289.5	0.6
1000	414.94	1270.2	0.6
5000	293.51	1371.7	1
5000	322.33	1348.2	0.9
5000	352.32	1323.7	0.9
5000	373.3	1306.6	0.8
5000	391.3	1292	0.8
5000	414.93	1272.6	0.8
10000	293.5	1374	1.3
10000	322.3	1350.6	1.2
10000	352.31	1326.3	1.1
10000	373.31	1309.4	1.1
10000	391.27	1294.7	1.1
10000	414.91	1275.6	1
20000	293.49	1378.3	1.9
20000	322.3	1355.2	1.8
20000	352.31	1331.2	1.7
20000	373.34	1314.3	1.6
20000	391.31	1300	1.5
20000	414.92	1281	1.5
30000	293.51	1382.2	2.5
30000	322.33	1359.3	2.4
30000	352.34	1335.6	2.2
30000	373.32	1319	2.1
30000	391.28	1304.7	2
30000	414.93	1285.9	1.91
40000	293.5	1385.9	3.1
40000	322.31	1363.3	2.9
40000	352.3	1339.8	2.8
40000	373.33	1323.3	2.6
40000	391.31	1309.1	2.5
40000	414.92	1290.5	2.4

System: 1-ethyl-3-methylimidazolium ethyl sulfate; phases: Liquid
Fixed: Pressure, kPa = 101.325
Property: Mass density, kg/m3 (Liquid); method: VIBTUB:UFactor:6
Temperature, K	Mass density, kg/m3	uncertainty
292.49	1242.1	24.9
302.61	1236.7	24.8
312.47	1230.7	24.6
322.3	1224.4	24.5
332.74	1218.4	24.4
342.42	1212.6	24.3
352.32	1206.3	24.1
373.36	1194.1	23.9
391.39	1183.2	23.7
414.95	1169.1	23.4

System: 1-ethyl-3-methylimidazolium ethyl sulfate; phases: Liquid
Property: Mass density, kg/m3 (Liquid); method: VIBTUB:UFactor:6
Pressure, kPa	Temperature, K	Mass density, kg/m3	uncertainty
1000	293.47	1242.9	24.9
1000	322.31	1225.6	24.5
1000	352.33	1207.6	24.2
1000	373.36	1195	23.9
1000	391.39	1184.2	23.7
1000	414.95	1170.2	23.42
5000	293.47	1246.5	25
5000	322.31	1229.5	24.6
5000	352.33	1211.8	24.3
5000	373.36	1199.4	24
5000	391.39	1188.8	23.8
5000	414.95	1174.9	23.5
10000	293.46	1250.9	25.1
10000	322.32	1234.2	24.7
10000	352.33	1216.9	24.4
10000	373.36	1204.8	24.1
10000	391.39	1194.6	23.9
10000	414.94	1180.8	23.6
20000	293.46	1259.3	25.3
20000	322.31	1243.3	24.9
20000	352.34	1226.7	24.6
20000	373.37	1215	24.4
20000	391.41	1205.1	24.2
20000	414.94	1192.1	23.9
30000	293.47	1267.5	25.5
30000	322.33	1252.1	25.2
30000	352.34	1236	24.8
30000	373.36	1225	24.6
30000	391.39	1215.4	24.4
30000	414.94	1202.9	24.2
40000	293.48	1275.4	25.7
40000	322.31	1260.6	25.4
40000	352.34	1245.2	25.1
40000	373.36	1234.4	24.9
40000	391.39	1225.2	24.7
40000	414.95	1213.2	24.4

System: 1-ethyl-3-methylimidazolium bis((trifluoromethyl)sulfonyl)imide; phases: Liquid
Fixed: Pressure, kPa = 101.325
Property: Mass density, kg/m3 (Liquid); method: VIBTUB:UFactor:6
Temperature, K	Mass density, kg/m3	uncertainty
293.49	1522.3	2.4
302.68	1513.2	2.4
312.64	1503.2	2.4
322.3	1493.2	2.3
332.58	1483.2	2.3
342.49	1473.6	2.3
352.32	1463.6	2.2
373.32	1443.2	2.2
391.29	1425.6	2.1
414.92	1402.4	2

System: 1-ethyl-3-methylimidazolium bis((trifluoromethyl)sulfonyl)imide; phases: Liquid
Property: Mass density, kg/m3 (Liquid); method: VIBTUB:UFactor:6
Pressure, kPa	Temperature, K	Mass density, kg/m3	uncertainty
1000	293.5	1522.9	2
1000	322.32	1494	1.9
1000	352.34	1464.4	1.8
1000	373.31	1443.9	1.7
1000	391.25	1426.3	1.7
1000	414.93	1403.1	1.6
5000	293.5	1525	2.5
5000	322.31	1496.5	2.4
5000	352.32	1467	2.2
5000	373.3	1446.5	2.2
5000	391.29	1429	2.1
5000	414.92	1406	2
10000	293.49	1527.8	3.1
10000	322.3	1499.5	3
10000	352.31	1470.2	2.8
10000	373.32	1449.9	2.7
10000	391.28	1432.6	2.6
10000	414.92	1409.8	2.5
20000	293.49	1533.3	4.4
20000	322.3	1505.3	4.2
20000	352.3	1476.5	3.9
20000	373.33	1456.5	3.8
20000	391.31	1439.4	3.7
20000	414.92	1417.2	3.5
30000	293.49	1538.6	5.7
30000	322.31	1510.9	5.4
30000	352.32	1482.5	5.1
30000	373.3	1462.8	4.9
30000	391.28	1446	4.8
30000	414.92	1424.2	4.6
40000	293.49	1543.6	7
40000	322.3	1516.3	6.6
40000	352.3	1488.2	6.3
40000	373.33	1468.7	6.1
40000	391.31	1452.3	5.9
40000	414.92	1430.9	5.6

System: 1-butyl-3-methylimidazolium bis(trifluoromethylsulfonyl)imide; phases: Liquid
Fixed: Pressure, kPa = 101.325
Property: Mass density, kg/m3 (Liquid); method: VIBTUB:UFactor:6
Temperature, K	Mass density, kg/m3	uncertainty
293.49	1442.2	2.1
303.15	1433	2.1
312.84	1423.9	2.1
322.31	1414.9	2
332.78	1405.1	2
342.98	1395.5	2
352.33	1386.6	1.9
373.32	1367.1	1.9
391.28	1350.4	1.8
414.92	1328.5	1.7

System: 1-butyl-3-methylimidazolium bis(trifluoromethylsulfonyl)imide; phases: Liquid
Property: Mass density, kg/m3 (Liquid); method: VIBTUB:UFactor:6
Pressure, kPa	Temperature, K	Mass density, kg/m3	uncertainty
1000	293.49	1442.8	1.7
1000	322.31	1415.6	1.6
1000	352.33	1387.5	1.6
1000	373.32	1368	1.5
1000	391.27	1351.3	1.5
1000	414.92	1329.5	1.4
5000	293.5	1445.6	2.2
5000	322.32	1418.7	2
5000	352.31	1390.9	1.9
5000	373.31	1371.6	1.9
5000	391.3	1355.1	1.8
5000	414.92	1333.6	1.7
10000	293.49	1449	2.7
10000	322.3	1422.5	2.6
10000	352.31	1395.1	2.4
10000	373.32	1376	2.3
10000	391.28	1359.8	2.2
10000	414.92	1338.6	2.1
20000	293.5	1455.7	3.8
20000	322.31	1429.8	3.6
20000	352.32	1403	3.4
20000	373.31	1384.5	3.3
20000	391.28	1368.8	3.1
20000	414.91	1348.1	3
30000	293.49	1462.1	4.9
30000	322.31	1436.8	4.7
30000	352.32	1410.7	4.4
30000	373.3	1392.7	4.2
30000	391.28	1377.3	4.1
30000	414.92	1357.2	3.9
40000	293.49	1468.4	6.1
40000	322.3	1443.6	5.8
40000	352.32	1418	5.4
40000	373.33	1400.4	5.2
40000	391.28	1385.4	5.1
40000	414.91	1365.8	4.8
