Measured thermophysical data. Some Transport Properties of a-Cyclodextrin Aqueous Solutions at (298.15 and 310.15) K
Source: J. Chem. Eng. Data, 2008, 10.1021/je700598v
Compound 1: .gamma.-cyclodextrin, C48H80O40, InChI=1S/C48H80O40/c49-1-9-33-17(57)25(65)41(73-9)82-34-10(2-50)75-43(27(67)19(34)59)84-36-12(4-52)77-45(29(69)21(36)61)86-38-14(6-54)79-47(31(71)23(38)63)88-40-16(8-56)80-48(32(72)24(40)64)87-39-15(7-55)78-46(30(70)22(39)62)85-37-13(5-53)76-44(28(68)20(37)60)83-35-11(3-51)74-42(81-33)26(66)18(35)58/h9-72H,1-8H2/t9-,10-,11-,12-,13-,14-,15-,16-,17-,18-,19-,20-,21-,22-,23-,24-,25-,26-,27-,28-,29-,30-,31-,32-,33-,34-,35-,36-,37-,38-,39-,40-,41-,42-,43-,44-,45-,46-,47-,48-/m1/s1
Compound 2: water, H2O, InChI=1S/H2O/h1H2

System: water + .gamma.-cyclodextrin; phases: Liquid
Fixed: Pressure, kPa = 101
Property: Binary diffusion coefficient, m2/s (Liquid); method: Taylor dispersion method
Temperature, K	Amount concentration (molarity), mol/dm3 of .gamma.-cyclodextrin	Binary diffusion coefficient, m2/s	uncertainty
298.15	0.002	3.57e-10	0.017
298.15	0.005	3.55e-10	0.016
298.15	0.008	3.53e-10	0.016
298.15	0.01	3.52e-10	0.016
310.15	0.002	4.8e-10	0.018
310.15	0.005	4.7e-10	0.018
310.15	0.008	4.61e-10	0.017
310.15	0.01	4.53e-10	0.017

System: water + .gamma.-cyclodextrin; phases: Liquid
Fixed: Pressure, kPa = 101
Property: Viscosity, Pa*s (Liquid); method: Capillary tube (Ostwald; Ubbelohde) method
Temperature, K	Amount concentration (molarity), mol/dm3 of .gamma.-cyclodextrin	Viscosity, Pa*s	uncertainty
298.15	0.00186	0.00099748	7.92e-06
298.15	0.004979	0.00099897	7.94e-06
298.15	0.007923	0.00100059	7.96e-06
298.15	0.009981	0.00100248	7.98e-06
310.15	0.00186	0.0009938	7.9e-06
310.15	0.004979	0.00099491	7.91e-06
310.15	0.007923	0.00099698	7.93e-06
310.15	0.009981	0.00099837	7.95e-06

System: water + .gamma.-cyclodextrin; phases: Liquid
Fixed: Pressure, kPa = 101
Property: Mass density, kg/m3 (Liquid); method: Pycnometric method
Temperature, K	Amount concentration (molarity), mol/dm3 of .gamma.-cyclodextrin	Mass density, kg/m3	uncertainty
298.15	0.00186	896.2	0.6
298.15	0.004979	906.1	0.6
298.15	0.007923	919.2	0.61
298.15	0.009981	927	0.62
310.15	0.00186	697	0.54
310.15	0.004979	708.2	0.55
310.15	0.007923	717.2	0.57
310.15	0.009981	723.4	0.56
