Measured thermophysical data. Thermodynamics of Mixing Tetrahydrofuran with 1-Alkanols and Excess Enthalpies of Homomorphy-Related Systems
Source: J. Chem. Eng. Data, 2007, 10.1021/je700308j
Compound 1: tetrahydrofuran, C4H8O, InChI=1S/C4H8O/c1-2-4-5-3-1/h1-4H2
Compound 2: nonane, C9H20, InChI=1S/C9H20/c1-3-5-7-9-8-6-4-2/h3-9H2,1-2H3
Compound 3: cyclopentane, C5H10, InChI=1S/C5H10/c1-2-4-5-3-1/h1-5H2
Compound 4: butan-1-ol, C4H10O, InChI=1S/C4H10O/c1-2-3-4-5/h5H,2-4H2,1H3
Compound 5: pentan-1-ol, C5H12O, InChI=1S/C5H12O/c1-2-3-4-5-6/h6H,2-5H2,1H3
Compound 6: hexan-1-ol, C6H14O, InChI=1S/C6H14O/c1-2-3-4-5-6-7/h7H,2-6H2,1H3
Compound 7: heptan-1-ol, C7H16O, InChI=1S/C7H16O/c1-2-3-4-5-6-7-8/h8H,2-7H2,1H3
Compound 8: octan-1-ol, C8H18O, InChI=1S/C8H18O/c1-2-3-4-5-6-7-8-9/h9H,2-8H2,1H3
Compound 9: nonan-1-ol, C9H20O, InChI=1S/C9H20O/c1-2-3-4-5-6-7-8-9-10/h10H,2-9H2,1H3
Compound 10: decan-1-ol, C10H22O, InChI=1S/C10H22O/c1-2-3-4-5-6-7-8-9-10-11/h11H,2-10H2,1H3
Compound 11: methanol, CH4O, InChI=1S/CH4O/c1-2/h2H,1H3
Compound 12: ethanol, C2H6O, InChI=1S/C2H6O/c1-2-3/h3H,2H2,1H3
Compound 13: propan-1-ol, C3H8O, InChI=1S/C3H8O/c1-2-3-4/h4H,2-3H2,1H3

System: tetrahydrofuran + nonane; phases: Liquid
Fixed: Pressure, kPa = 101
Fixed: Temperature, K = 298.15
Property: Excess molar enthalpy (molar enthalpy of mixing), kJ/mol (Liquid); method: Flow calorimetry
Mole fraction of tetrahydrofuran	Excess molar enthalpy (molar enthalpy of mixing), kJ/mol	uncertainty
0.104	0.2986	0.0048
0.197	0.517	0.008
0.355	0.79	0.011
0.485	0.8919	0.0115
0.595	0.8887	0.0115
0.688	0.8179	0.0127
0.768	0.7061	0.0159
0.837	0.5623	0.0205
0.898	0.4074	0.0276
0.952	0.2148	0.0341
0.952	0.2149	0.0341

System: butan-1-ol + cyclopentane; phases: Liquid
Fixed: Pressure, kPa = 101
Fixed: Temperature, K = 298.15
Property: Excess molar enthalpy (molar enthalpy of mixing), kJ/mol (Liquid); method: Flow calorimetry
Mole fraction of cyclopentane	Excess molar enthalpy (molar enthalpy of mixing), kJ/mol	uncertainty
0.098	0.092	0.002
0.196	0.1788	0.0032
0.294	0.2667	0.0046
0.393	0.3587	0.0059
0.393	0.3541	0.0058
0.493	0.4356	0.0067
0.593	0.4956	0.0069
0.694	0.5183	0.0068
0.796	0.4873	0.0081
0.897	0.3937	0.0114
0.949	0.3094	0.016

System: pentan-1-ol + cyclopentane; phases: Liquid
Fixed: Pressure, kPa = 101
Fixed: Temperature, K = 298.15
Property: Excess molar enthalpy (molar enthalpy of mixing), kJ/mol (Liquid); method: Flow calorimetry
Mole fraction of cyclopentane	Excess molar enthalpy (molar enthalpy of mixing), kJ/mol	uncertainty
0.113	0.096	0.002
0.223	0.1885	0.0034
0.33	0.2819	0.0048
0.434	0.3689	0.006
0.535	0.4381	0.0065
0.633	0.4809	0.0065
0.728	0.4827	0.0065
0.821	0.4405	0.0081
0.912	0.3552	0.0114
0.956	0.2819	0.0164

System: hexan-1-ol + cyclopentane; phases: Liquid
Fixed: Pressure, kPa = 101
Fixed: Temperature, K = 298.15
Property: Excess molar enthalpy (molar enthalpy of mixing), kJ/mol (Liquid); method: Flow calorimetry
Mole fraction of cyclopentane	Excess molar enthalpy (molar enthalpy of mixing), kJ/mol	uncertainty
0.128	0.116	0.002
0.249	0.2025	0.0035
0.362	0.2956	0.005
0.469	0.3739	0.0059
0.469	0.3752	0.0059
0.57	0.4285	0.0061
0.665	0.4502	0.006
0.756	0.4379	0.0062
0.841	0.399	0.0078
0.923	0.3255	0.0112
0.962	0.259	0.0168

System: heptan-1-ol + cyclopentane; phases: Liquid
Fixed: Pressure, kPa = 101
Fixed: Temperature, K = 298.15
Property: Excess molar enthalpy (molar enthalpy of mixing), kJ/mol (Liquid); method: Flow calorimetry
Mole fraction of cyclopentane	Excess molar enthalpy (molar enthalpy of mixing), kJ/mol	uncertainty
0.143	0.124	0.002
0.273	0.2316	0.004
0.392	0.3287	0.0053
0.5	0.392	0.0058
0.6	0.4341	0.006
0.692	0.4449	0.0059
0.778	0.4261	0.0063
0.857	0.3855	0.0081
0.857	0.3862	0.0081
0.931	0.314	0.0118
0.966	0.2524	0.0174

System: octan-1-ol + cyclopentane; phases: Liquid
Fixed: Pressure, kPa = 101
Fixed: Temperature, K = 298.15
Property: Excess molar enthalpy (molar enthalpy of mixing), kJ/mol (Liquid); method: Flow calorimetry
Mole fraction of cyclopentane	Excess molar enthalpy (molar enthalpy of mixing), kJ/mol	uncertainty
0.157	0.146	0.003
0.295	0.2645	0.0044
0.418	0.3533	0.0054
0.528	0.4064	0.0058
0.626	0.4331	0.0058
0.715	0.4374	0.0059
0.796	0.4128	0.0064
0.87	0.3718	0.0083
0.938	0.3033	0.0125
0.97	0.2411	0.0192

System: nonan-1-ol + cyclopentane; phases: Liquid
Fixed: Pressure, kPa = 101
Fixed: Temperature, K = 298.15
Property: Excess molar enthalpy (molar enthalpy of mixing), kJ/mol (Liquid); method: Flow calorimetry
Mole fraction of cyclopentane	Excess molar enthalpy (molar enthalpy of mixing), kJ/mol	uncertainty
0.171	0.1748	0.003
0.316	0.2978	0.0048
0.442	0.3808	0.0056
0.552	0.421	0.0058
0.649	0.4337	0.0058
0.735	0.4262	0.0058
0.812	0.4027	0.0065
0.881	0.3606	0.0088
0.943	0.293	0.0137
0.972	0.2291	0.0217

System: decan-1-ol + cyclopentane; phases: Liquid
Fixed: Pressure, kPa = 101
Property: Excess molar enthalpy (molar enthalpy of mixing), kJ/mol (Liquid); method: Flow calorimetry
Temperature, K	Mole fraction of cyclopentane	Excess molar enthalpy (molar enthalpy of mixing), kJ/mol	uncertainty
298.15	0.336	0.329	0.005
298.15	0.465	0.4038	0.0058
298.15	0.575	0.4369	0.0061
298.15	0.67	0.4404	0.0061
298.15	0.752	0.4244	0.0057
298.15	0.89	0.356	0.0049
298.15	0.336	0.3256	0.0049
298.65	0.975	0.2073	0.003

System: methanol + tetrahydrofuran; phases: Liquid
Fixed: Pressure, kPa = 101
Fixed: Temperature, K = 298.15
Property: Heat capacity at constant pressure per volume, J/K/m3 (Liquid); method: Flow calorimetry
Mole fraction of tetrahydrofuran	Heat capacity at constant pressure per volume, J/K/m3	uncertainty
0.0989	1907000	4000
0.195	1850000	4000
0.2967	1797000	4000
0.4006	1747000	4000
0.4848	1714000	3000
0.5999	1667000	3000
0.6968	1631000	3000
0.7926	1594000	3000
0.8946	1555000	3000

System: methanol + tetrahydrofuran; phases: Liquid
Fixed: Pressure, kPa = 101
Fixed: Temperature, K = 298.15
Property: Mass density, kg/m3 (Liquid); method: VIBTUB:UFactor:2
Mole fraction of tetrahydrofuran	Mass density, kg/m3	uncertainty
0.0989	804.78	0.42
0.195	819.46	0.38
0.2967	832.35	0.35
0.4006	843.35	0.32
0.4848	851	0.29
0.5999	859.93	0.27
0.6968	866.37	0.25
0.7926	871.94	0.23
0.8946	877.17	0.22

System: ethanol + tetrahydrofuran; phases: Liquid
Fixed: Pressure, kPa = 101
Fixed: Temperature, K = 298.15
Property: Heat capacity at constant pressure per volume, J/K/m3 (Liquid); method: Flow calorimetry
Mole fraction of tetrahydrofuran	Heat capacity at constant pressure per volume, J/K/m3	uncertainty
0.0532	1907000	4000
0.0989	1889000	4000
0.2018	1849000	4000
0.3084	1808000	4000
0.4	1772000	4000
0.5015	1731000	4000
0.6074	1688000	3000
0.711	1643000	3000
0.8104	1599000	3000
0.9048	1556000	3000
0.9426	1540000	3000

System: ethanol + tetrahydrofuran; phases: Liquid
Fixed: Pressure, kPa = 101
Fixed: Temperature, K = 298.15
Property: Mass density, kg/m3 (Liquid); method: VIBTUB:UFactor:2
Mole fraction of tetrahydrofuran	Mass density, kg/m3	uncertainty
0.0532	792.12	17.47
0.0989	798.14	15.94
0.2018	810.67	12.7
0.3084	822.54	9.69
0.4	832.02	7.4
0.5015	841.8	5.22
0.6074	851.3	3.35
0.711	860.02	1.94
0.8104	867.85	0.98
0.9048	875.03	0.42
0.9426	877.76	0.29

System: propan-1-ol + tetrahydrofuran; phases: Liquid
Fixed: Pressure, kPa = 101
Fixed: Temperature, K = 298.15
Property: Heat capacity at constant pressure per volume, J/K/m3 (Liquid); method: Flow calorimetry
Mole fraction of tetrahydrofuran	Heat capacity at constant pressure per volume, J/K/m3	uncertainty
0.0482	1911000	4000
0.103	1891000	4000
0.1944	1858000	4000
0.3022	1819000	4000
0.3994	1782000	4000
0.499	1742000	4000
0.5994	1699000	3000
0.7016	1654000	3000
0.795	1610000	3000
0.9017	1560000	3000
0.9435	1541000	3000

System: propan-1-ol + tetrahydrofuran; phases: Liquid
Fixed: Pressure, kPa = 101
Fixed: Temperature, K = 298.15
Property: Mass density, kg/m3 (Liquid); method: VIBTUB:UFactor:2
Mole fraction of tetrahydrofuran	Mass density, kg/m3	uncertainty
0.0482	804.27	0.32
0.103	809.19	0.31
0.1944	817.24	0.3
0.3022	826.44	0.28
0.3994	834.52	0.27
0.499	842.64	0.26
0.5994	850.66	0.25
0.7016	858.7	0.24
0.795	866.01	0.23
0.9017	874.29	0.22
0.9435	877.53	0.21

System: butan-1-ol + tetrahydrofuran; phases: Liquid
Fixed: Pressure, kPa = 101
Fixed: Temperature, K = 298.15
Property: Heat capacity at constant pressure per volume, J/K/m3 (Liquid); method: Flow calorimetry
Mole fraction of tetrahydrofuran	Heat capacity at constant pressure per volume, J/K/m3	uncertainty
0.0456	1918000	4000
0.0951	1901000	4000
0.1935	1867000	4000
0.2997	1830000	4000
0.3963	1794000	4000
0.5009	1753000	4000
0.5988	1711000	3000
0.6962	1667000	3000
0.8012	1615000	3000
0.9017	1564000	3000
0.9472	1541000	3000

System: butan-1-ol + tetrahydrofuran; phases: Liquid
Fixed: Pressure, kPa = 101
Fixed: Temperature, K = 298.15
Property: Mass density, kg/m3 (Liquid); method: VIBTUB:UFactor:2
Mole fraction of tetrahydrofuran	Mass density, kg/m3	uncertainty
0.0456	808.89	0.28
0.0951	812.34	0.28
0.1935	819.24	0.27
0.2997	826.84	0.26
0.3963	833.86	0.26
0.5009	841.67	0.25
0.5988	849.16	0.24
0.6962	856.68	0.23
0.8012	865.12	0.22
0.9017	873.45	0.22
0.9472	877.34	0.21

System: tetrahydrofuran + hexan-1-ol; phases: Liquid
Fixed: Pressure, kPa = 101
Fixed: Temperature, K = 298.15
Property: Heat capacity at constant pressure per volume, J/K/m3 (Liquid); method: Flow calorimetry
Mole fraction of tetrahydrofuran	Heat capacity at constant pressure per volume, J/K/m3	uncertainty
0.1191	1886000	4000
0.1994	1862000	4000
0.3032	1829000	4000
0.3931	1800000	4000
0.505	1759000	4000
0.6028	1719000	3000
0.6944	1678000	3000
0.7937	1628000	3000
0.8961	1574000	3000

System: tetrahydrofuran + hexan-1-ol; phases: Liquid
Fixed: Pressure, kPa = 101
Fixed: Temperature, K = 298.15
Property: Mass density, kg/m3 (Liquid); method: VIBTUB:UFactor:2
Mole fraction of tetrahydrofuran	Mass density, kg/m3	uncertainty
0.1191	820.48	0.4
0.1994	824.38	0.38
0.3032	829.77	0.35
0.3931	834.74	0.32
0.505	841.56	0.3
0.6028	848.03	0.28
0.6944	854.68	0.26
0.7937	862.57	0.24
0.8961	871.63	0.22

System: tetrahydrofuran + heptan-1-ol; phases: Liquid
Fixed: Pressure, kPa = 101
Fixed: Temperature, K = 298.15
Property: Heat capacity at constant pressure per volume, J/K/m3 (Liquid); method: Flow calorimetry
Mole fraction of tetrahydrofuran	Heat capacity at constant pressure per volume, J/K/m3	uncertainty
0.1103	1888000	4000
0.2085	1859000	4000
0.3123	1827000	4000
0.4046	1797000	4000
0.496	1765000	4000
0.5973	1725000	3000
0.6977	1680000	3000
0.8031	1627000	3000
0.9021	1572000	3000

System: tetrahydrofuran + heptan-1-ol; phases: Liquid
Fixed: Pressure, kPa = 101
Fixed: Temperature, K = 298.15
Property: Mass density, kg/m3 (Liquid); method: VIBTUB:UFactor:2
Mole fraction of tetrahydrofuran	Mass density, kg/m3	uncertainty
0.1103	822.54	0.82
0.2085	826.55	0.71
0.3123	831.18	0.6
0.4046	835.76	0.52
0.496	840.88	0.45
0.5973	847.05	0.37
0.6977	854.06	0.32
0.8031	862.49	0.27
0.9021	871.51	0.23

System: tetrahydrofuran + octan-1-ol; phases: Liquid
Fixed: Pressure, kPa = 101
Fixed: Temperature, K = 298.15
Property: Heat capacity at constant pressure per volume, J/K/m3 (Liquid); method: Flow calorimetry
Mole fraction of tetrahydrofuran	Heat capacity at constant pressure per volume, J/K/m3	uncertainty
0.0608	1927000	4000
0.088	1918000	4000
0.1954	1884000	4000
0.3048	1850000	4000
0.4026	1817000	4000
0.5009	1781000	4000
0.6069	1737000	4000
0.7044	1691000	3000
0.7994	1640000	3000
0.9	1580000	3000
0.9523	1546000	3000

System: tetrahydrofuran + octan-1-ol; phases: Liquid
Fixed: Pressure, kPa = 101
Fixed: Temperature, K = 298.15
Property: Mass density, kg/m3 (Liquid); method: VIBTUB:UFactor:2
Mole fraction of tetrahydrofuran	Mass density, kg/m3	uncertainty
0.0608	823.33	0.42
0.088	824.18	0.41
0.1954	827.86	0.37
0.3048	832.05	0.35
0.4026	836.34	0.32
0.5009	841.27	0.3
0.6069	847.37	0.28
0.7044	853.86	0.26
0.7994	861.36	0.24
0.9	870.65	0.22
0.9523	876.26	0.22

System: tetrahydrofuran + nonan-1-ol; phases: Liquid
Fixed: Pressure, kPa = 101
Fixed: Temperature, K = 298.15
Property: Heat capacity at constant pressure per volume, J/K/m3 (Liquid); method: Flow calorimetry
Mole fraction of tetrahydrofuran	Heat capacity at constant pressure per volume, J/K/m3	uncertainty
0.1048	1897000	4000
0.1889	1873000	4000
0.3131	1836000	4000
0.4067	1807000	4000
0.504	1773000	4000
0.6004	1735000	4000
0.7009	1690000	3000
0.7999	1639000	3000
0.9015	1579000	3000

System: tetrahydrofuran + nonan-1-ol; phases: Liquid
Fixed: Pressure, kPa = 101
Fixed: Temperature, K = 298.15
Property: Mass density, kg/m3 (Liquid); method: VIBTUB:UFactor:2
Mole fraction of tetrahydrofuran	Mass density, kg/m3	uncertainty
0.1048	827.19	0.83
0.1889	829.58	0.73
0.3131	833.79	0.6
0.4067	837.47	0.52
0.504	841.9	0.44
0.6004	847.05	0.37
0.7009	853.33	0.31
0.7999	860.89	0.27
0.9015	870.34	0.23

System: tetrahydrofuran + decan-1-ol; phases: Liquid
Fixed: Pressure, kPa = 101
Fixed: Temperature, K = 298.15
Property: Heat capacity at constant pressure per volume, J/K/m3 (Liquid); method: Flow calorimetry
Mole fraction of tetrahydrofuran	Heat capacity at constant pressure per volume, J/K/m3	uncertainty
0.0904	1904000	4000
0.2067	1869000	4000
0.3967	1810000	4000
0.5985	1734000	4000
0.7992	1635000	3000
0.8981	1573000	3000

System: tetrahydrofuran + decan-1-ol; phases: Liquid
Fixed: Pressure, kPa = 101
Fixed: Temperature, K = 298.15
Property: Mass density, kg/m3 (Liquid); method: VIBTUB:UFactor:2
Mole fraction of tetrahydrofuran	Mass density, kg/m3	uncertainty
0.0904	828.17	0.4
0.2067	831.12	0.37
0.3967	837.35	0.32
0.5985	846.59	0.28
0.7992	860.14	0.24
0.8981	869.46	0.22
