Measured thermophysical data. Thermodynamic Study of Warfarin Sodium Salt: Surface Tension, Conductivity, and Density Measurements
Source: J. Chem. Eng. Data, 2007, 10.1021/je7003116
Compound 1: water, H2O, InChI=1S/H2O/h1H2
Compound 2: warfarin sodium, C19H15NaO4, InChI=1S/C19H16O4.Na/c1-12(20)11-15(13-7-3-2-4-8-13)17-18(21)14-9-5-6-10-16(14)23-19(17)22;/h2-10,15,21H,11H2,1H3;/q;+1/p-1

System: warfarin sodium + water; phases: Liquid, Air at 1 atmosphere
Fixed: Temperature, K = 293.15
Property: Surface tension liquid-gas, N/m (Liquid); method: RINGTE:UFactor:4
Molality, mol/kg of warfarin sodium	Surface tension liquid-gas, N/m	uncertainty
0.006	0.06646	0.0034
0.007	0.06561	0.00336
0.008	0.06492	0.00333
0.009	0.06406	0.00329
0.01	0.06277	0.00323
0.018	0.05807	0.00301
0.027	0.05297	0.00277
0.04	0.05048	0.00266
0.054	0.04847	0.00256
0.067	0.04558	0.00243
0.078	0.04398	0.00235
0.089	0.04168	0.00225
0.107	0.04158	0.00224
0.125	0.04094	0.00221
0.15	0.04038	0.00219
0.175	0.04023	0.00218
0.2	0.04072	0.0022
0.225	0.04023	0.00218
0.25	0.03964	0.00215
0.279	0.04009	0.00218

System: warfarin sodium + water; phases: Liquid
Fixed: Pressure, kPa = 101
Property: Electrical conductivity, S/m (Liquid); method: Alternating current cell with electrodes
Temperature, K	Molality, mol/kg of warfarin sodium	Electrical conductivity, S/m	uncertainty
293.15	0.005	0.0273	0.001
293.15	0.006	0.0326	0.001
293.15	0.007	0.0379	0.001
293.15	0.008	0.0434	0.001
293.15	0.009	0.0485	0.001
293.15	0.01	0.0535	0.001
293.15	0.02	0.1042	0.001
293.15	0.04	0.1978	0.006
293.15	0.06	0.283	0.006
293.15	0.08	0.381	0.006
293.15	0.1	0.464	0.006
293.15	0.125	0.56	0.006
293.15	0.15	0.651	0.006
293.15	0.175	0.737	0.006
293.15	0.2	0.822	0.006
293.15	0.225	0.901	0.006
293.15	0.25	0.974	0.006
293.15	0.275	1.041	0.006
293.15	0.3	1.102	0.006
303.15	0.005	0.0288	0.001
303.15	0.006	0.0344	0.001
303.15	0.007	0.04	0.001
303.15	0.008	0.0455	0.001
303.15	0.009	0.051	0.001
303.15	0.01	0.0565	0.001
303.15	0.02	0.1087	0.001
303.15	0.04	0.209	0.006
303.15	0.06	0.302	0.006
303.15	0.08	0.39	0.006
303.15	0.1	0.473	0.006
303.15	0.125	0.575	0.006
303.15	0.15	0.67	0.006
303.15	0.175	0.761	0.006
303.15	0.2	0.847	0.006
303.15	0.225	0.928	0.006
303.15	0.25	1.008	0.006
303.15	0.275	1.081	0.006
303.15	0.3	1.154	0.006
313.15	0.005	0.0299	0.001
313.15	0.006	0.0358	0.001
313.15	0.007	0.0416	0.001
313.15	0.008	0.0474	0.001
313.15	0.009	0.0532	0.001
313.15	0.01	0.059	0.001
313.15	0.02	0.1131	0.001
313.15	0.04	0.216	0.006
313.15	0.06	0.314	0.006
313.15	0.08	0.401	0.006
313.15	0.1	0.489	0.006
313.15	0.125	0.595	0.006
313.15	0.15	0.694	0.006
313.15	0.175	0.79	0.006
313.15	0.2	0.88	0.006
313.15	0.225	0.963	0.006
313.15	0.25	1.046	0.006
313.15	0.275	1.13	0.01
313.15	0.3	1.206	0.006
323.15	0.005	0.0327	0.001
323.15	0.006	0.039	0.001
323.15	0.007	0.0454	0.001
323.15	0.008	0.0516	0.001
323.15	0.009	0.0576	0.001
323.15	0.01	0.0638	0.001
323.15	0.02	0.1211	0.001
323.15	0.04	0.233	0.006
323.15	0.06	0.338	0.006
323.15	0.08	0.429	0.006
323.15	0.1	0.523	0.006
323.15	0.125	0.634	0.006
323.15	0.15	0.734	0.006
323.15	0.175	0.83	0.006
323.15	0.2	0.921	0.006
323.15	0.225	1.008	0.006
323.15	0.25	1.091	0.006
323.15	0.275	1.171	0.006
323.15	0.3	1.245	0.006

System: warfarin sodium + water; phases: Liquid
Fixed: Pressure, kPa = 101
Property: Mass density, kg/m3 (Liquid); method: VIBTUB:UFactor:16
Temperature, K	Molality, mol/kg of warfarin sodium	Mass density, kg/m3	uncertainty
293.15	0.00573	998.701	0.659
293.15	0.00689	998.801	0.658
293.15	0.00749	998.852	0.658
293.15	0.00851	998.94	0.657
293.15	0.00983	999.054	0.657
293.15	0.02401	1000.273	0.653
293.15	0.0466	1002.19	0.671
293.15	0.0718	1004.265	0.691
293.15	0.0984	1006.413	0.713
293.15	0.1251	1008.51	0.735
293.15	0.15	1010.431	0.757
293.15	0.176	1012.589	0.781
293.15	0.2	1014.559	0.805
293.15	0.225	1016.714	0.83
293.15	0.25	1018.889	0.856
293.15	0.275	1020.991	0.882
293.15	0.3	1023.146	0.909
293.15	0.325	1025.237	0.936
293.15	0.35	1027.328	0.963
293.15	0.375	1029.294	0.99
293.15	0.401	1031.33	1.019
303.15	0.00579	996.134	0.755
303.15	0.00695	996.231	0.682
303.15	0.00754	996.281	0.675
303.15	0.00857	996.367	0.681
303.15	0.00987	996.476	0.686
303.15	0.024	997.658	0.669
303.15	0.0465	999.515	0.657
303.15	0.0715	1001.522	0.668
303.15	0.0983	1003.585	0.69
303.15	0.125	1005.624	0.712
303.15	0.15	1007.483	0.733
303.15	0.176	1009.569	0.757
303.15	0.2	1011.472	0.779
303.15	0.225	1013.557	0.804
303.15	0.25	1015.651	0.829
303.15	0.275	1017.688	0.855
303.15	0.3	1019.774	0.881
303.15	0.325	1021.792	0.907
303.15	0.35	1023.813	0.934
303.15	0.375	1025.712	0.961
303.15	0.3999	1027.675	0.987
313.15	0.00576	992.687	0.757
313.15	0.00695	992.784	0.708
313.15	0.00759	992.836	0.703
313.15	0.00857	992.916	0.706
313.15	0.00988	993.022	0.709
313.15	0.0241	994.171	0.697
313.15	0.047	995.977	0.685
313.15	0.0719	997.928	0.673
313.15	0.0984	999.945	0.661
313.15	0.125	1001.912	0.681
313.15	0.15	1003.715	0.702
313.15	0.176	1005.743	0.725
313.15	0.2	1007.59	0.747
313.15	0.225	1009.611	0.772
313.15	0.25	1011.637	0.796
313.15	0.275	1013.62	0.821
313.15	0.3	1015.641	0.847
313.15	0.325	1017.603	0.873
313.15	0.35	1019.563	0.899
313.15	0.375	1021.403	0.925
313.15	0.4009	1023.307	0.951
323.15	0.00585	988.498	0.74
323.15	0.00702	988.591	0.74
323.15	0.00767	988.642	0.739
323.15	0.0087	988.722	0.739
323.15	0.01001	988.824	0.738
323.15	0.0243	989.947	0.73
323.15	0.0469	991.708	0.719
323.15	0.072	993.609	0.707
323.15	0.0985	995.582	0.696
323.15	0.125	997.493	0.686
323.15	0.15	999.248	0.678
323.15	0.1765	1001.22	0.689
323.15	0.2	1003.022	0.71
323.15	0.225	1004.99	0.734
323.15	0.25	1006.96	0.758
323.15	0.275	1008.89	0.783
323.15	0.3	1010.859	0.808
323.15	0.325	1012.769	0.833
323.15	0.35	1014.678	0.859
323.15	0.375	1016.469	0.884
323.15	0.4021	1018.322	0.911
