Measured thermophysical data. Diffusion Coefficients of N2O in Aqueous Piperazine Solutions Using the Taylor Dispersion Technique from (293 to 333) K and (0.3 to 1.4) mol *dm-3
Source: J. Chem. Eng. Data, 2008, 10.1021/je700717w
Compound 1: nitrous oxide, N2O, InChI=1S/N2O/c1-2-3
Compound 2: water, H2O, InChI=1S/H2O/h1H2
Compound 3: piperazine, C4H10N2, InChI=1S/C4H10N2/c1-2-6-4-3-5-1/h5-6H,1-4H2

System: water; phases: Liquid
Fixed: Pressure, kPa = 101
Property: Self diffusion coefficient, m2/s (Liquid); method: Taylor dispersion method
Temperature, K	Self diffusion coefficient, m2/s	uncertainty
293.15	1.7e-09	0.35
298.15	2.05e-09	0.42
303.15	2.3e-09	0.47
313.15	2.99e-09	0.61
323.15	4.02e-09	0.81
333.15	4.9e-09	0.99
343.15	5.79e-09	1.17
353.15	7.09e-09	1.43
363.15	8.23e-09	1.65
368.15	8.87e-09	1.78

System: water + nitrous oxide; phases: Liquid
Fixed: Pressure, kPa = 101
Fixed: Mole fraction of nitrous oxide = 0
Property: Binary diffusion coefficient, m2/s (Liquid); method: Taylor dispersion method
Temperature, K	Binary diffusion coefficient, m2/s	uncertainty
293.15	1.7e-09	0.35
298.15	2.05e-09	0.42
303.15	2.3e-09	0.47
313.15	2.99e-09	0.61
323.15	4.02e-09	0.81
333.15	4.9e-09	0.99
343.15	5.79e-09	1.17
353.15	7.09e-09	1.43
363.15	8.23e-09	1.65
368.15	8.87e-09	1.78

System: piperazine + water + nitrous oxide; phases: Liquid
Fixed: Pressure, kPa = 101
Fixed: Mole fraction of nitrous oxide = 0
Property: Binary diffusion coefficient, m2/s (Liquid); method: Taylor dispersion method
Molality, mol/kg of piperazine	Temperature, K	Binary diffusion coefficient, m2/s	uncertainty
0.295	293.15	1.44e-09	0.29
0.295	298.15	1.6e-09	0.32
0.295	303.15	1.83e-09	0.37
0.295	313.15	2.41e-09	0.49
0.295	323.15	2.99e-09	0.6
0.295	333.15	3.61e-09	0.73
0.629	293.15	1.24e-09	0.25
0.629	298.15	1.46e-09	0.3
0.629	303.15	1.7e-09	0.34
0.629	313.15	2.1e-09	0.42
0.629	323.15	2.69e-09	0.54
0.629	333.15	3.31e-09	0.67
1.067	293.15	1.13e-09	0.23
1.067	298.15	1.32e-09	0.27
1.067	303.15	1.54e-09	0.31
1.067	313.15	2e-09	0.4
1.067	323.15	2.47e-09	0.5
1.067	333.15	3e-09	0.6
1.368	293.15	1.02e-09	0.21
1.368	298.15	1.24e-09	0.25
1.368	303.15	1.37e-09	0.28
1.368	313.15	1.76e-09	0.36
1.368	323.15	2.19e-09	0.44
1.368	333.15	2.85e-09	0.58
