Measured thermophysical data. Phase Equilibrium for the Esterification Reaction of Acetic Acid + Butan-1-ol at 101.3 kPa
Source: J. Chem. Eng. Data, 2008, 10.1021/je700411p
Compound 1: butyl ethanoate, C6H12O2, InChI=1S/C6H12O2/c1-3-4-5-8-6(2)7/h3-5H2,1-2H3, purity 99%
Compound 2: acetic acid, C2H4O2, InChI=1S/C2H4O2/c1-2(3)4/h1H3,(H,3,4), purity 99.8%
Compound 3: water, H2O, InChI=1S/H2O/h1H2
Compound 4: butan-1-ol, C4H10O, InChI=1S/C4H10O/c1-2-3-4-5/h5H,2-4H2,1H3, purity 99.8%

System: butyl ethanoate; phases: Liquid
Property: Refractive index (Na D-line) (Liquid); method: Standard Abbe refractometry
Temperature, K	Pressure, kPa	Refractive index (Na D-line)	uncertainty
298.15	101.325	1.3916	0.0008

System: butyl ethanoate; phases: Liquid
Property: Mass density, kg/m3 (Liquid); method: VIBTUB:UFactor:2
Temperature, K	Pressure, kPa	Mass density, kg/m3	uncertainty
298.15	101.325	876.02	0.41

System: butyl ethanoate; phases: Liquid, Gas
Property: Vapor or sublimation pressure, kPa (Liquid); method: Ebulliometric method (Recirculating still)
Temperature, K	Vapor or sublimation pressure, kPa	uncertainty
334.36	9.99	0.2
336.53	10.98	0.2
338.56	11.99	0.2
342.2	13.97	0.2
345.47	15.99	0.2
348.37	17.97	0.2
351.02	19.98	0.2
353.45	21.97	0.2
355.72	23.97	0.2
357.84	25.98	0.2
359.79	27.92	0.2
362.58	30.98	0.2
365.1	33.92	0.2
367.5	36.96	0.21
369.74	39.97	0.21
373.18	44.92	0.21
376.31	49.9	0.21
379.18	54.92	0.21
381.89	59.93	0.21
384.4	64.95	0.21
386.74	69.92	0.22
388.96	74.95	0.22
391.05	79.91	0.22
393.02	84.83	0.22
394.94	89.87	0.23
396.72	94.73	0.23
399.05	101.3	0.23

System: acetic acid; phases: Liquid
Property: Refractive index (Na D-line) (Liquid); method: Standard Abbe refractometry
Temperature, K	Pressure, kPa	Refractive index (Na D-line)	uncertainty
298.15	101.325	1.3696	0.0007

System: acetic acid; phases: Liquid
Property: Mass density, kg/m3 (Liquid); method: VIBTUB:UFactor:2
Temperature, K	Pressure, kPa	Mass density, kg/m3	uncertainty
298.15	101.325	1043.9	0.15

System: acetic acid; phases: Liquid, Gas
Property: Vapor or sublimation pressure, kPa (Liquid); method: Ebulliometric method (Recirculating still)
Temperature, K	Vapor or sublimation pressure, kPa	uncertainty
328.56	9.98	0.2
330.65	10.97	0.2
332.65	11.98	0.2
336.23	13.97	0.2
339.41	15.97	0.2
342.25	17.98	0.2
344.81	19.98	0.2
347.19	21.98	0.2
349.4	23.98	0.2
352.43	26.97	0.2
355.18	29.96	0.2
357.72	32.98	0.2
360.09	35.94	0.2
362.26	38.96	0.2
365	42.93	0.2
366.3	44.95	0.2
369.3	49.94	0.2
372.09	54.93	0.2
374.63	59.83	0.2
377.03	64.87	0.21
379.25	69.84	0.21
381.39	74.82	0.21
383.35	79.71	0.21
385.23	84.52	0.21
387.1	89.81	0.21
388.77	94.52	0.21
390.91	101.3	0.21

System: butan-1-ol; phases: Liquid
Property: Refractive index (Na D-line) (Liquid); method: Standard Abbe refractometry
Temperature, K	Pressure, kPa	Refractive index (Na D-line)	uncertainty
298.15	101.325	1.396	0.0007

System: butan-1-ol; phases: Liquid
Property: Mass density, kg/m3 (Liquid); method: VIBTUB:UFactor:2
Temperature, K	Pressure, kPa	Mass density, kg/m3	uncertainty
298.15	101.325	805.6	0.29

System: butan-1-ol; phases: Liquid, Gas
Property: Vapor or sublimation pressure, kPa (Liquid); method: EBULLIO::UFactor:2
Temperature, K	Vapor or sublimation pressure, kPa	uncertainty
390.46	101.3	

System: butan-1-ol + butyl ethanoate; phases: Liquid, Gas
Fixed: Pressure, kPa = 101.3
Property: Boiling temperature at pressure P, K (Liquid); method: EBULLIO:UFactor:2
Mole fraction of butan-1-ol	Boiling temperature at pressure P, K	uncertainty
0	399.05	0.17
0.058	397.48	0.17
0.116	396.08	0.17
0.166	395.02	0.17
0.22	393.98	0.17
0.275	393.07	0.17
0.325	392.34	0.17
0.38	391.78	0.17
0.43	391.23	0.17
0.485	390.72	0.17
0.541	390.44	0.17
0.596	390.17	0.17
0.651	389.93	0.17
0.708	389.74	0.17
0.756	389.54	0.17
0.802	389.55	0.17
0.847	389.56	0.17
0.891	389.68	0.17
0.933	389.83	0.17
0.97	390.13	0.17
1	390.46	0.17

System: butan-1-ol + butyl ethanoate; phases: Gas, Liquid
Fixed: Pressure, kPa = 101.3
Property: Mole fraction of butan-1-ol (Gas); method: Chromatography
Mole fraction of butan-1-ol	Mole fraction of butan-1-ol	uncertainty
0	0	0.001
0.058	0.103	0.008
0.116	0.191	0.007
0.166	0.256	0.007
0.22	0.321	0.007
0.275	0.379	0.007
0.325	0.425	0.007
0.38	0.473	0.007
0.43	0.517	0.007
0.485	0.559	0.007
0.541	0.601	0.006
0.596	0.64	0.006
0.651	0.681	0.006
0.708	0.723	0.006
0.756	0.759	0.006
0.802	0.797	0.006
0.847	0.836	0.006
0.891	0.878	0.006
0.933	0.921	0.006
0.97	0.963	0.006
1	1	0.001

System: butan-1-ol + water; phases: Liquid, Gas
Fixed: Pressure, kPa = 101.3
Property: Boiling temperature at pressure P, K (Liquid); method: EBULLIO:UFactor:2
Mole fraction of butan-1-ol	Boiling temperature at pressure P, K	uncertainty
0	373.15	0.17
0.005	369.71	0.17
0.006	368.88	0.17
0.009	367.53	0.17
0.558	365.65	0.17
0.592	365.87	0.17
0.63	366.66	0.17
0.687	368.2	0.17
0.735	369.92	0.17
0.76	370.97	0.17
0.803	373.1	0.17
0.845	375.61	0.17
0.881	378.17	0.17
0.918	381.37	0.17
0.955	385.2	0.17
0.989	389.44	0.17
1	390.46	0.17

System: butan-1-ol + water; phases: Gas, Liquid
Fixed: Pressure, kPa = 101.3
Property: Mole fraction of butan-1-ol (Gas); method: Chromatography
Mole fraction of butan-1-ol	Mole fraction of butan-1-ol	uncertainty
0	0	0.001
0.005	0.12	0.096
0.006	0.148	0.099
0.009	0.191	0.085
0.558	0.248	0.005
0.592	0.253	0.005
0.63	0.271	0.005
0.687	0.304	0.005
0.735	0.342	0.006
0.76	0.366	0.007
0.803	0.416	0.008
0.845	0.48	0.009
0.881	0.55	0.011
0.918	0.645	0.013
0.955	0.773	0.017
0.989	0.933	0.02
1	1	0.001

System: butan-1-ol + water; phases: Liquid mixture 1, Liquid mixture 2
Fixed: Pressure, kPa = 101
Property: Mole fraction of butan-1-ol (Liquid mixture 1); method: Titration method
Temperature, K	Mole fraction of butan-1-ol	uncertainty
323.15	0.4574	0.0092
333.15	0.4387	0.0088
343.15	0.4189	0.0084
353.15	0.3965	0.0079
362.45	0.3673	0.0074

System: butan-1-ol + water; phases: Liquid mixture 2, Liquid mixture 1
Fixed: Pressure, kPa = 101
Property: Mole fraction of butan-1-ol (Liquid mixture 2); method: Titration method
Temperature, K	Mole fraction of butan-1-ol	uncertainty
323.15	0.0167	0.002
333.15	0.0162	0.002
343.15	0.0172	0.002
353.15	0.0181	0.002
362.45	0.0187	0.002

System: acetic acid + butyl ethanoate; phases: Liquid, Gas
Fixed: Pressure, kPa = 101.3
Property: Boiling temperature at pressure P, K (Liquid); method: EBULLIO:UFactor:4
Mole fraction of acetic acid	Boiling temperature at pressure P, K	uncertainty
0	399.05	0.34
0.059	398.42	0.34
0.113	397.92	0.34
0.167	397.46	0.34
0.222	396.8	0.34
0.275	396.41	0.34
0.328	396.04	0.34
0.39	395.48	0.34
0.443	394.98	0.34
0.498	394.62	0.34
0.557	394.16	0.34
0.607	393.72	0.34
0.66	393.21	0.34
0.71	392.57	0.34
0.756	392.23	0.34
0.801	392	0.34
0.848	391.68	0.34
0.895	391.37	0.34
0.936	391.18	0.34
0.972	391.01	0.34
1	390.91	0.34

System: acetic acid + butyl ethanoate; phases: Gas, Liquid
Fixed: Pressure, kPa = 101.3
Property: Mole fraction of acetic acid (Gas); method: Chromatography
Mole fraction of acetic acid	Mole fraction of acetic acid	uncertainty
0	0	0.001
0.059	0.076	0.007
0.113	0.146	0.006
0.167	0.208	0.006
0.222	0.273	0.007
0.275	0.336	0.007
0.328	0.396	0.007
0.39	0.462	0.007
0.443	0.515	0.007
0.498	0.568	0.007
0.557	0.622	0.007
0.607	0.67	0.006
0.66	0.716	0.006
0.71	0.759	0.006
0.756	0.8	0.006
0.801	0.837	0.005
0.848	0.876	0.005
0.895	0.914	0.005
0.936	0.947	0.005
0.972	0.976	0.005
1	1	0.001
