Measured thermophysical data. Isothermal Phase Equilibria and Excess Molar Enthalpies for Binary Systems with Dimethyl Ether at 323.15 K
Source: J. Chem. Eng. Data, 2007, 10.1021/je700174h
Compound 1: 1-decene, C10H20, InChI=1S/C10H20/c1-3-5-7-9-10-8-6-4-2/h3H,1,4-10H2,2H3, purity 99.8%
Compound 2: dimethyl ether, C2H6O, InChI=1S/C2H6O/c1-3-2/h1-2H3, purity 99.5%
Compound 3: decane, C10H22, InChI=1S/C10H22/c1-3-5-7-9-10-8-6-4-2/h3-10H2,1-2H3, purity 99.8%
Compound 4: dodecane, C12H26, InChI=1S/C12H26/c1-3-5-7-9-11-12-10-8-6-4-2/h3-12H2,1-2H3, purity 99.8%
Compound 5: oct-1-ene, C8H16, InChI=1S/C8H16/c1-3-5-7-8-6-4-2/h3H,1,4-8H2,2H3, purity 99.8%
Compound 6: benzene, C6H6, InChI=1S/C6H6/c1-2-4-6-5-3-1/h1-6H, purity 99.8%
Compound 7: toluene, C7H8, InChI=1S/C7H8/c1-7-5-3-2-4-6-7/h2-6H,1H3, purity 99.8%
Compound 8: water, H2O, InChI=1S/H2O/h1H2

System: dimethyl ether; phases: Liquid, Gas
Fixed: Temperature, K = 323.15
Property: Vapor or sublimation pressure, kPa (Liquid); method: mass and volume balance equations
Vapor or sublimation pressure, kPa	uncertainty
1143.39	3.49
1142.31	3.48
1144.36	3.49
1144.4	3.49
1144.23	3.49
1142.97	3.48

System: decane; phases: Liquid, Gas
Property: Vapor or sublimation pressure, kPa (Liquid); method: mass and volume balance equations
Temperature, K	Vapor or sublimation pressure, kPa	uncertainty
323.15	1.18	0.04

System: dodecane; phases: Liquid, Gas
Property: Vapor or sublimation pressure, kPa (Liquid); method: mass and volume balance equations
Temperature, K	Vapor or sublimation pressure, kPa	uncertainty
323.15	0.2	0.04

System: oct-1-ene; phases: Liquid, Gas
Property: Vapor or sublimation pressure, kPa (Liquid); method: mass and volume balance equations
Temperature, K	Vapor or sublimation pressure, kPa	uncertainty
323.15	8.3	0.05

System: benzene; phases: Liquid, Gas
Property: Vapor or sublimation pressure, kPa (Liquid); method: mass and volume balance equations
Temperature, K	Vapor or sublimation pressure, kPa	uncertainty
323.15	35.47	0.11

System: toluene; phases: Liquid, Gas
Property: Vapor or sublimation pressure, kPa (Liquid); method: mass and volume balance equations
Temperature, K	Vapor or sublimation pressure, kPa	uncertainty
323.15	12.22	0.05

System: water; phases: Liquid, Gas
Property: Vapor or sublimation pressure, kPa (Liquid); method: mass and volume balance equations
Temperature, K	Vapor or sublimation pressure, kPa	uncertainty
323.15	12.29	0.05

System: dodecane + dimethyl ether; phases: Liquid, Gas
Fixed: Temperature, K = 323.15
Property: Excess molar enthalpy (molar enthalpy of mixing), kJ/mol (Liquid); method: Flow calorimetry
Mole fraction of dimethyl ether	Excess molar enthalpy (molar enthalpy of mixing), kJ/mol	uncertainty
0.1484	0.280311	0.006218
0.269	0.466353	0.010151
0.3688	0.584831	0.012659
0.4529	0.658181	0.014214
0.5247	0.687748	0.01484
0.5866	0.696872	0.015033
0.6407	0.686963	0.014823
0.6882	0.660325	0.014259
0.7304	0.62477	0.013506
0.7681	0.583237	0.012626
0.8019	0.532099	0.011543
0.8324	0.480324	0.010446
0.8601	0.423704	0.009248
0.8854	0.365341	0.008014
0.9085	0.306214	0.006765
0.9298	0.246887	0.005514
0.9494	0.1846	0.004478
0.9675	0.123527	0.004301
0.9844	0.060713	0.004158

System: dodecane + dimethyl ether; phases: Liquid, Gas
Fixed: Temperature, K = 323.15
Property: Mole fraction of dimethyl ether (Liquid); method: mass and volume balance equations
Pressure, kPa	Mole fraction of dimethyl ether	uncertainty
0.2	0	0.0001
145.15	0.1428	0.001
189.14	0.1843	0.001
246.81	0.2371	0.001
305.36	0.2889	0.001
340.4	0.3191	0.001
372.26	0.3461	0.001
421.66	0.3873	0.0011
518.33	0.4666	0.0011
595.76	0.5296	0.0012
634.84	0.5616	0.0012
669.18	0.59	0.0012
697.09	0.6133	0.0012
721.75	0.6342	0.0012
747.22	0.6559	0.0012
775.24	0.6801	0.0012
803.24	0.7046	0.0012
830.81	0.729	0.0012
857.44	0.753	0.0012
871.67	0.7659	0.0012
903.62	0.795	0.0011
934.56	0.8234	0.0011
963.44	0.8498	0.0011
990.6	0.8744	0.0011
1015.92	0.897	0.0011
1039.51	0.9175	0.001
1061.01	0.9357	0.001
1080.83	0.952	0.001
1096.75	0.9648	0.001
1110.92	0.9758	0.001
1122.96	0.985	0.001
1132.65	0.9922	0.001
1137.67	0.9959	0.001
1140.36	0.9978	0.001
1142.39	0.9993	0.0007
1143.39	1	0.0001

System: dimethyl ether + decane; phases: Liquid, Gas
Fixed: Temperature, K = 323.15
Property: Excess molar enthalpy (molar enthalpy of mixing), kJ/mol (Liquid); method: Flow calorimetry
Mole fraction of dimethyl ether	Excess molar enthalpy (molar enthalpy of mixing), kJ/mol	uncertainty
0.1299	0.237248	0.005311
0.2396	0.408717	0.008931
0.3336	0.525592	0.011405
0.4149	0.597104	0.012919
0.486	0.637332	0.013772
0.5487	0.653719	0.014119
0.6043	0.650944	0.01406
0.6541	0.633618	0.013693
0.6989	0.606761	0.013124
0.7393	0.571385	0.012375
0.7761	0.526305	0.01142
0.8097	0.478921	0.010417
0.8405	0.425156	0.009279
0.8687	0.371203	0.008138
0.8948	0.31251	0.006897
0.919	0.252422	0.00563
0.9414	0.18982	0.004495
0.9623	0.127427	0.004311
0.9818	0.062789	0.004162

System: dimethyl ether + decane; phases: Liquid, Gas
Fixed: Temperature, K = 323.15
Property: Mole fraction of dimethyl ether (Liquid); method: mass and volume balance equations
Pressure, kPa	Mole fraction of dimethyl ether	uncertainty
1.18	0	0.0001
42.14	0.0361	0.001
102.84	0.0923	0.001
183.17	0.1674	0.001
255.37	0.2328	0.001
292.52	0.2655	0.001
320.81	0.29	0.001
357.84	0.3215	0.001
467.48	0.4133	0.0011
549.53	0.482	0.0012
596.5	0.5219	0.0012
637.43	0.5573	0.0012
666.77	0.5831	0.0012
693.02	0.6065	0.0012
717.49	0.6285	0.0012
744.78	0.6535	0.0012
772.11	0.6787	0.0012
791.77	0.697	0.0012
799.59	0.7043	0.0012
826.6	0.7296	0.0012
860.44	0.7614	0.0012
893.13	0.7919	0.0011
924.24	0.8206	0.0011
954	0.8476	0.0011
982.15	0.8725	0.0011
1008.53	0.8952	0.0011
1054.42	0.9331	0.001
1072.61	0.9476	0.001
1088.67	0.9601	0.001
1088.67	0.9601	0.001
1101.95	0.9702	0.001
1112.74	0.9783	0.001
1121.47	0.9848	0.001
1127.49	0.9892	0.001
1131.75	0.9923	0.001
1134.52	0.9944	0.001
1137.61	0.9966	0.001
1140.52	0.9987	0.001
1142.31	1	0.0001

System: oct-1-ene + dimethyl ether; phases: Liquid, Gas
Fixed: Temperature, K = 323.15
Property: Excess molar enthalpy (molar enthalpy of mixing), kJ/mol (Liquid); method: Flow calorimetry
Mole fraction of dimethyl ether	Excess molar enthalpy (molar enthalpy of mixing), kJ/mol	uncertainty
0.1071	0.104072	0.004252
0.2021	0.186857	0.004485
0.2868	0.248119	0.005539
0.363	0.290775	0.006439
0.4317	0.317356	0.007
0.4941	0.331335	0.007295
0.551	0.334998	0.007372
0.6031	0.331823	0.007305
0.6509	0.321974	0.007097
0.695	0.306937	0.00678
0.7358	0.283868	0.006293
0.7737	0.260057	0.005791
0.8089	0.232657	0.005214
0.8417	0.203478	0.004601
0.8724	0.1741	0.00444
0.9011	0.13977	0.00434
0.9281	0.10605	0.00426
0.9535	0.07104	0.00418
0.9774	0.03524	0.00411

System: oct-1-ene + dimethyl ether; phases: Liquid, Gas
Fixed: Temperature, K = 323.15
Property: Mole fraction of dimethyl ether (Liquid); method: mass and volume balance equations
Pressure, kPa	Mole fraction of dimethyl ether	uncertainty
8.3	0	0.0001
43.95	0.0327	0.001
96.08	0.0842	0.001
135.64	0.1243	0.001
158.77	0.1476	0.001
183	0.1716	0.001
306.27	0.2877	0.001
416.31	0.3845	0.0011
416.31	0.3845	0.0011
506.29	0.4624	0.0011
578.09	0.5254	0.0012
634.29	0.5756	0.0012
658.88	0.5979	0.0012
680.05	0.6171	0.0012
704.14	0.6391	0.0012
713.33	0.6475	0.0012
728.98	0.6618	0.0012
752.82	0.6836	0.0012
791.95	0.7192	0.0012
830.88	0.754	0.0012
868.84	0.7871	0.0011
905.31	0.8181	0.0011
940.23	0.8468	0.0011
973.36	0.8733	0.0011
1003.88	0.8969	0.0011
1031.86	0.9181	0.001
1054.7	0.9351	0.001
1074.79	0.9498	0.001
1091.7	0.9621	0.001
1105.58	0.9721	0.001
1116.41	0.9799	0.001
1124.16	0.9855	0.001
1129.61	0.9894	0.001
1133.45	0.9922	0.001
1137.53	0.9951	0.001
1139.71	0.9967	0.001
1141.77	0.9981	0.001
1144.36	1	0.0001

System: benzene + dimethyl ether; phases: Liquid, Gas
Fixed: Temperature, K = 323.15
Property: Excess molar enthalpy (molar enthalpy of mixing), kJ/mol (Liquid); method: Flow calorimetry
Mole fraction of dimethyl ether	Excess molar enthalpy (molar enthalpy of mixing), kJ/mol	uncertainty
0.0637	-0.0334	0.0041
0.1256	-0.064	0.0042
0.1857	-0.0945	0.0042
0.2442	-0.12	0.004
0.3011	-0.141	0.004
0.3565	-0.16	0.004
0.4104	-0.176	0.004
0.4628	-0.188	0.005
0.514	-0.196	0.005
0.5638	-0.2	0.005
0.6124	-0.2	0.005
0.6597	-0.197	0.005
0.7059	-0.189	0.005
0.751	-0.179	0.004
0.795	-0.161	0.004
0.8379	-0.141	0.004
0.8799	-0.115	0.004
0.9208	-0.0818	0.0042
0.9609	-0.0435	0.0041

System: benzene + dimethyl ether; phases: Liquid, Gas
Fixed: Temperature, K = 323.15
Property: Mole fraction of dimethyl ether (Liquid); method: mass and volume balance equations
Pressure, kPa	Mole fraction of dimethyl ether	uncertainty
35.47	0	0.0001
89.84	0.0528	0.001
127.73	0.0907	0.001
155.03	0.1182	0.001
192.04	0.1551	0.001
233.89	0.1962	0.001
256.43	0.218	0.001
293.28	0.2531	0.001
360.33	0.3157	0.001
423.21	0.3735	0.0011
479.24	0.4248	0.0011
529.14	0.4708	0.0011
573.71	0.5122	0.0012
576.98	0.5152	0.0012
614.1	0.55	0.0012
620.11	0.5556	0.0012
664.53	0.5975	0.0012
710.47	0.6408	0.0012
757	0.6842	0.0012
803.47	0.7268	0.0012
849.57	0.768	0.0011
894.5	0.8067	0.0011
937.2	0.8422	0.0011
977.55	0.8745	0.0011
1011	0.9006	0.0011
1040.75	0.9232	0.001
1066.21	0.9423	0.001
1087.07	0.9578	0.001
1103.74	0.9701	0.001
1115.01	0.9784	0.001
1122.89	0.9842	0.001
1130.01	0.9894	0.001
1134.77	0.9929	0.001
1139.56	0.9964	0.001
1141.87	0.9981	0.001
1144.4	1	0.0001

System: toluene + dimethyl ether; phases: Liquid, Gas
Fixed: Temperature, K = 323.15
Property: Excess molar enthalpy (molar enthalpy of mixing), kJ/mol (Liquid); method: Flow calorimetry
Mole fraction of dimethyl ether	Excess molar enthalpy (molar enthalpy of mixing), kJ/mol	uncertainty
0.0753	-0.0488	0.0041
0.1467	-0.0906	0.0042
0.2145	-0.128	0.004
0.279	-0.158	0.004
0.3403	-0.18	0.004
0.3988	-0.199	0.005
0.4545	-0.213	0.005
0.5078	-0.223	0.005
0.5587	-0.226	0.005
0.6075	-0.228	0.005
0.6541	-0.224	0.005
0.6989	-0.216	0.005
0.7419	-0.206	0.005
0.7831	-0.19	0.005
0.8228	-0.17	0.004
0.8609	-0.147	0.004
0.8976	-0.118	0.004
0.933	-0.0831	0.0042
0.9671	-0.0443	0.0041

System: toluene + dimethyl ether; phases: Liquid, Gas
Fixed: Temperature, K = 323.15
Property: Mole fraction of dimethyl ether (Liquid); method: mass and volume balance equations
Pressure, kPa	Mole fraction of dimethyl ether	uncertainty
12.22	0	0.0001
51.06	0.0366	0.001
87.32	0.0719	0.001
117.69	0.1016	0.001
157.19	0.1401	0.001
194.34	0.1758	0.001
223.13	0.203	0.001
248.71	0.2268	0.001
331.39	0.3019	0.001
405.71	0.3681	0.001
473.8	0.4286	0.0011
531.81	0.4806	0.0012
550.71	0.4978	0.0012
579.55	0.524	0.0012
605.48	0.5478	0.0012
615.75	0.5573	0.0012
632.17	0.5724	0.0012
659.15	0.5975	0.0012
703.05	0.6384	0.0012
747.97	0.68	0.0012
792.48	0.7206	0.0012
836.45	0.7599	0.0012
879.23	0.7968	0.0011
920.6	0.8314	0.0011
959.47	0.8627	0.0011
995.82	0.891	0.0011
1052.62	0.9337	0.001
1075.16	0.9502	0.001
1093.36	0.9634	0.001
1108.1	0.974	0.001
1118.2	0.9813	0.001
1125.19	0.9863	0.001
1131.44	0.9908	0.001
1135.57	0.9938	0.001
1139.8	0.9968	0.001
1142	0.9984	0.001
1144.23	1	0.0001

System: dimethyl ether + water; phases: Liquid, Gas
Fixed: Temperature, K = 323.15
Property: Excess molar enthalpy (molar enthalpy of mixing), kJ/mol (Liquid); method: Flow calorimetry
Mole fraction of dimethyl ether	Excess molar enthalpy (molar enthalpy of mixing), kJ/mol	uncertainty
0.0137	-0.132	0.004
0.0363	-0.317	0.007
0.0808	-0.543	0.012
0.1366	-0.646	0.014
0.2087	-0.547	0.012
0.3054	-0.399	0.009
0.4418	-0.188	0.005
0.5543	-0.0147	0.0041
0.6487	0.132	0.004
0.7036	0.216	0.005
0.7649	0.308	0.007
0.8337	0.413	0.009
0.8713	0.4	0.009
0.9114	0.348	0.008
0.9542	0.243	0.005

System: dimethyl ether + water; phases: Liquid, Gas
Fixed: Temperature, K = 323.15
Property: Mole fraction of dimethyl ether (Liquid); method: mass and volume balance equations
Pressure, kPa	Mole fraction of dimethyl ether	uncertainty
12.29	0	0.0001
62.4	0.004	0.001
99.72	0.0071	0.001
145.84	0.0111	0.001
189.5	0.0149	0.001
325.55	0.0277	0.001
355.58	0.0307	0.001
385.07	0.0337	0.001
535.17	0.0503	0.001
579.77	0.0557	0.001
645.59	0.0642	0.001
693	0.0708	0.001
743.26	0.0784	0.001
796.59	0.0872	0.001
851.37	0.0973	0.001
909.31	0.1101	0.001
962.25	0.1248	0.001
1009.74	0.1418	0.001
1033.34	0.1612	0.042
1034.02	0.183	0.052
1034.86	0.2066	0.0207
1035.38	0.2632	0.0205
1035.47	0.3492	0.0199
1035.51	0.3032	0.0202
1035.67	0.4017	0.0196
1035.67	0.4612	0.0193
1035.77	0.2321	0.0207
1035.85	0.5263	0.0191
1036.11	0.5968	0.019
1036.14	0.6628	0.0188
1036.35	0.728	0.0189
1036.43	0.789	0.0189
1040.49	0.8421	0.0015
1053.42	0.8873	0.0012
1068.77	0.9183	0.0011
1082.82	0.9399	0.0011
1094.91	0.9546	0.001
1108.22	0.9692	0.001
1119.11	0.9793	0.001
1124.71	0.9844	0.001
1131.07	0.9893	0.001
1137.09	0.9945	0.001
1142.97	1	0.0001

System: dimethyl ether + water; phases: Liquid mixture 1, Liquid mixture 2
Property: Mole fraction of dimethyl ether (Liquid mixture 1); method: Derived from Hex measurements
Temperature, K	Pressure, kPa	Mole fraction of dimethyl ether	uncertainty
323.15	101	0.16	0.01

System: dimethyl ether + water; phases: Liquid mixture 2, Liquid mixture 1
Property: Mole fraction of dimethyl ether (Liquid mixture 2); method: Derived from Hex measurements
Temperature, K	Pressure, kPa	Mole fraction of dimethyl ether	uncertainty
323.15	101	0.83	0.01

System: dimethyl ether + 1-decene; phases: Liquid, Gas
Fixed: Temperature, K = 323.15
Property: Excess molar enthalpy (molar enthalpy of mixing), kJ/mol (Liquid); method: Flow calorimetry
Mole fraction of dimethyl ether	Excess molar enthalpy (molar enthalpy of mixing), kJ/mol	uncertainty
0.1265	0.130133	0.004318
0.2342	0.232274	0.005206
0.3269	0.299693	0.006627
0.4076	0.344914	0.007582
0.4784	0.36693	0.00805
0.5411	0.378218	0.008286
0.5971	0.377521	0.008271
0.6472	0.366862	0.008046
0.6924	0.350701	0.007704
0.7335	0.329154	0.007249
0.7708	0.301404	0.006663
0.805	0.27181	0.00604
0.8363	0.241011	0.00539
0.8652	0.207156	0.004678
0.892	0.173725	0.004444
0.9167	0.138865	0.004342
0.9397	0.103389	0.004251
0.9612	0.068193	0.004173
0.9812	0.033734	0.00411
