Measured thermophysical data. Limiting Binary Diffusivities of Aniline, Styrene, and Mesitylene in Supercritical Carbon Dioxide
Source: J. Chem. Eng. Data, 2007, 10.1021/je7000254
Compound 1: aniline, C6H7N, InChI=1S/C6H7N/c7-6-4-2-1-3-5-6/h1-5H,7H2
Compound 2: styrene, C8H8, InChI=1S/C8H8/c1-2-8-6-4-3-5-7-8/h2-7H,1H2
Compound 3: 1,3,5-trimethylbenzene, C9H12, InChI=1S/C9H12/c1-7-4-8(2)6-9(3)5-7/h4-6H,1-3H3
Compound 4: carbon dioxide, CO2, InChI=1S/CO2/c2-1-3

System: aniline + carbon dioxide; phases: Fluid (supercritical or subcritical phases)
Fixed: Mole fraction of aniline = 0
Property: Binary diffusion coefficient, m2/s (Fluid (supercritical or subcritical phases)); method: Taylor-Aris chromatographic method
Temperature, K	Pressure, kPa	Binary diffusion coefficient, m2/s	uncertainty
313.16	15000	1.023e-08	0.63
313.16	20000	9.75e-09	0.6
313.16	25000	9.06e-09	0.55
313.16	30000	8.43e-09	0.51
313.16	35000	7.76e-09	0.48
323.16	15000	1.178e-08	0.72
323.16	20000	1.081e-08	0.66
323.16	25000	9.66e-09	0.59
323.16	30000	9.1e-09	0.6
323.16	35000	8.7e-09	0.5
333.16	15000	1.333e-08	0.81
333.16	20000	1.189e-08	0.72
333.16	25000	1.097e-08	0.67
333.16	30000	1.017e-08	0.62
333.16	35000	9.47e-09	0.57

System: styrene + carbon dioxide; phases: Fluid (supercritical or subcritical phases)
Fixed: Mole fraction of styrene = 0
Property: Binary diffusion coefficient, m2/s (Fluid (supercritical or subcritical phases)); method: Taylor-Aris chromatographic method
Temperature, K	Pressure, kPa	Binary diffusion coefficient, m2/s	uncertainty
313.16	15000	1.195e-08	0.73
313.16	20000	1.075e-08	0.65
313.16	25000	9.58e-09	0.58
313.16	30000	8.74e-09	0.53
313.16	35000	8.27e-09	0.5
323.16	15000	1.317e-08	0.81
323.16	20000	1.118e-08	0.69
323.16	25000	1.055e-08	0.65
323.16	30000	9.2e-09	0.6
323.16	35000	8.77e-09	0.54
333.16	15000	1.55e-08	1
333.16	20000	1.409e-08	0.89
333.16	25000	1.22e-08	0.8
333.16	30000	1.09e-08	0.7
333.16	35000	1.023e-08	0.63

System: 1,3,5-trimethylbenzene + carbon dioxide; phases: Fluid (supercritical or subcritical phases)
Fixed: Mole fraction of 1,3,5-trimethylbenzene = 0
Property: Binary diffusion coefficient, m2/s (Fluid (supercritical or subcritical phases)); method: Taylor-Aris chromatographic method
Temperature, K	Pressure, kPa	Binary diffusion coefficient, m2/s	uncertainty
313.16	15000	1.038e-08	0.64
313.16	20000	9.15e-09	0.58
313.16	25000	8.21e-09	0.5
313.16	30000	7.78e-09	0.49
313.16	35000	7.46e-09	0.46
323.16	15000	1.195e-08	0.74
323.16	20000	1.106e-08	0.68
323.16	25000	9.33e-09	0.58
323.16	30000	9.23e-09	0.57
323.16	35000	8.6e-09	0.5
333.16	15000	1.421e-08	0.88
333.16	20000	1.228e-08	0.75
333.16	25000	1.148e-08	0.72
333.16	30000	1.044e-08	0.64
333.16	35000	9.89e-09	0.61
