Measured thermophysical data. Vapor-Liquid Equilibrium Behaviors of 3-Ethoxy-4-hydroxybenzaldehyde in Alcohol
Source: J. Chem. Eng. Data, 2007, 10.1021/je700316s
Compound 1: 3-ethoxy-4-hydroxybenzaldehyde, C9H10O3, InChI=1S/C9H10O3/c1-2-12-9-5-7(6-10)3-4-8(9)11/h3-6,11H,2H2,1H3, purity 98%
Compound 2: ethanol, C2H6O, InChI=1S/C2H6O/c1-2-3/h3H,2H2,1H3, purity 99.9%
Compound 3: propan-1-ol, C3H8O, InChI=1S/C3H8O/c1-2-3-4/h4H,2-3H2,1H3, purity 99.9%
Compound 4: propan-2-ol, C3H8O, InChI=1S/C3H8O/c1-3(2)4/h3-4H,1-2H3, purity 99.9%
Compound 5: butan-1-ol, C4H10O, InChI=1S/C4H10O/c1-2-3-4-5/h5H,2-4H2,1H3, purity 99.9%

System: ethanol; phases: Liquid, Gas
Property: Normal boiling temperature, K (Liquid); method: EBULLIO:UFactor:2
Normal boiling temperature, K	uncertainty
351.44	0.2

System: ethanol; phases: Liquid
Property: Mass density, kg/m3 (Liquid); method: Pycnometric method
Temperature, K	Pressure, kPa	Mass density, kg/m3	uncertainty
298.15	101.325	785.2	0.7

System: propan-1-ol; phases: Liquid, Gas
Property: Normal boiling temperature, K (Liquid); method: Ebulliometric method (Recirculating still)
Normal boiling temperature, K	uncertainty
370.21	0.2

System: propan-1-ol; phases: Liquid
Property: Mass density, kg/m3 (Liquid); method: Pycnometric method
Temperature, K	Pressure, kPa	Mass density, kg/m3	uncertainty
298.15	101.325	799.6	0.7

System: propan-2-ol; phases: Liquid, Gas
Property: Normal boiling temperature, K (Liquid); method: Ebulliometric method (Recirculating still)
Normal boiling temperature, K	uncertainty
355.4	0.2

System: propan-2-ol; phases: Liquid
Property: Mass density, kg/m3 (Liquid); method: Pycnometric method
Temperature, K	Pressure, kPa	Mass density, kg/m3	uncertainty
298.15	101.325	780.8	0.7

System: butan-1-ol; phases: Liquid, Gas
Property: Normal boiling temperature, K (Liquid); method: Ebulliometric method (Recirculating still)
Normal boiling temperature, K	uncertainty
390.85	0.2

System: butan-1-ol; phases: Liquid
Property: Mass density, kg/m3 (Liquid); method: Pycnometric method
Temperature, K	Pressure, kPa	Mass density, kg/m3	uncertainty
298.15	101.325	805.8	0.7

System: ethanol + 3-ethoxy-4-hydroxybenzaldehyde; phases: Liquid, Gas
Property: Vapor or sublimation pressure, kPa (Liquid); method: EBULLIO:UFactor:2
Mole fraction of 3-ethoxy-4-hydroxybenzaldehyde	Temperature, K	Vapor or sublimation pressure, kPa	uncertainty
0.0053	351.02	98.52	0.85
0.0123	351.23	98.58	0.84
0.0194	351.51	98.73	0.85
0.0274	351.91	99.31	0.85

System: ethanol + 3-ethoxy-4-hydroxybenzaldehyde; phases: Gas, Liquid
Property: Mole fraction of 3-ethoxy-4-hydroxybenzaldehyde (Gas); method: UV Spectraphotometry
Mole fraction of 3-ethoxy-4-hydroxybenzaldehyde	Temperature, K	Mole fraction of 3-ethoxy-4-hydroxybenzaldehyde	uncertainty
0.0053	351.02	8.5e-06	1e-06
0.0123	351.23	1.9e-05	1.1e-06
0.0194	351.51	2.92e-05	1.1e-06
0.0274	351.91	4.24e-05	1.1e-06

System: propan-1-ol + 3-ethoxy-4-hydroxybenzaldehyde; phases: Liquid, Gas
Property: Vapor or sublimation pressure, kPa (Liquid); method: EBULLIO:UFactor:2
Mole fraction of 3-ethoxy-4-hydroxybenzaldehyde	Temperature, K	Vapor or sublimation pressure, kPa	uncertainty
0.0087	369.9	98.75	0.85
0.0105	370.18	99.6	0.85
0.0147	370.15	98.97	0.85
0.0194	370.24	98.78	0.85

System: propan-1-ol + 3-ethoxy-4-hydroxybenzaldehyde; phases: Gas, Liquid
Property: Mole fraction of propan-1-ol (Gas); method: UV Spectraphotometry
Mole fraction of 3-ethoxy-4-hydroxybenzaldehyde	Temperature, K	Mole fraction of propan-1-ol	uncertainty
0.0087	369.9	1.85e-05	1.1e-06
0.0105	370.18	2.25e-05	1.1e-06
0.0147	370.15	3.1e-05	1.1e-06
0.0194	370.24	4.2e-05	1.1e-06

System: propan-2-ol + 3-ethoxy-4-hydroxybenzaldehyde; phases: Liquid, Gas
Property: Vapor or sublimation pressure, kPa (Liquid); method: EBULLIO:UFactor:2
Mole fraction of 3-ethoxy-4-hydroxybenzaldehyde	Temperature, K	Vapor or sublimation pressure, kPa	uncertainty
0.0056	354.99	98.83	0.85
0.0112	355.59	100.5	0.86
0.0165	355.5	99.53	0.85
0.022	355.82	100.25	0.86

System: propan-2-ol + 3-ethoxy-4-hydroxybenzaldehyde; phases: Gas, Liquid
Property: Mole fraction of 3-ethoxy-4-hydroxybenzaldehyde (Gas); method: UV Spectraphotometry
Mole fraction of 3-ethoxy-4-hydroxybenzaldehyde	Temperature, K	Mole fraction of 3-ethoxy-4-hydroxybenzaldehyde	uncertainty
0.0056	354.99	9.6e-06	1e-06
0.0112	355.59	1.75e-05	1.1e-06
0.0165	355.5	2.69e-05	1.1e-06
0.022	355.82	3.56e-05	1.1e-06

System: butan-1-ol + 3-ethoxy-4-hydroxybenzaldehyde; phases: Liquid, Gas
Property: Vapor or sublimation pressure, kPa (Liquid); method: EBULLIO:UFactor:2
Mole fraction of 3-ethoxy-4-hydroxybenzaldehyde	Temperature, K	Vapor or sublimation pressure, kPa	uncertainty
0.0047	390.51	99.55	0.85
0.0088	390.36	98.52	0.84
0.0129	390.6	98.82	0.85
0.0178	390.78	99.04	0.85

System: butan-1-ol + 3-ethoxy-4-hydroxybenzaldehyde; phases: Gas, Liquid
Property: Mole fraction of 3-ethoxy-4-hydroxybenzaldehyde (Gas); method: UV Spectraphotometry
Mole fraction of 3-ethoxy-4-hydroxybenzaldehyde	Temperature, K	Mole fraction of 3-ethoxy-4-hydroxybenzaldehyde	uncertainty
0.0047	390.51	2.03e-05	1.4e-06
0.0088	390.36	3.98e-05	1.4e-06
0.0129	390.6	6.15e-05	1.4e-06
0.0178	390.78	8.01e-05	1.3e-06
