Measured thermophysical data. Measurement and Correlation of Solubility of Xylitol in Binary Ethanol + Acetone Solvent Mixtures with the Combined Nearly Ideal Binary Solvent/ Redlich-Kister Equation
Source: J. Chem. Eng. Data, 2007, 10.1021/je700131z
Compound 1: xylitol, C5H12O5, InChI=1S/C5H12O5/c6-1-3(8)5(10)4(9)2-7/h3-10H,1-2H2/t3-,4+,5+
Compound 2: ethanol, C2H6O, InChI=1S/C2H6O/c1-2-3/h3H,2H2,1H3
Compound 3: acetone, C3H6O, InChI=1S/C3H6O/c1-3(2)4/h1-2H3

System: xylitol; phases: Crystal, Liquid, Air at 1 atmosphere
Property: Normal melting temperature, K (Crystal); method: VISOBS
Normal melting temperature, K	uncertainty
367.65	1.1

System: ethanol + xylitol; phases: Liquid, Crystal
Fixed: Pressure, kPa = 101
Property: Mole fraction of xylitol (Liquid); method: Laser intensity changes
Temperature, K	Mole fraction of xylitol	uncertainty
293.15	0.001716	0.000104
298.15	0.002402	0.000145
303.15	0.003088	0.000187
308.15	0.003961	0.000239
313.15	0.005212	0.000315
318.15	0.007029	0.000425
323.15	0.009602	0.00058

System: acetone + xylitol; phases: Liquid, Crystal
Fixed: Pressure, kPa = 101
Property: Mole fraction of xylitol (Liquid); method: Laser intensity changes
Temperature, K	Mole fraction of xylitol	uncertainty
293.15	0.000202	1.2e-05
298.15	0.0002398	1.44e-05
303.15	0.0003023	1.82e-05
308.15	0.0003994	2.41e-05
313.15	0.0005416	3.26e-05
318.15	0.0007391	4.45e-05
323.15	0.001002	6e-05

System: ethanol + acetone + xylitol; phases: Liquid, Crystal
Fixed: Pressure, kPa = 101
Property: Mole fraction of xylitol (Liquid); method: Laser intensity changes
Temperature, K	Solvent: Mole fraction of ethanol	Mole fraction of xylitol	uncertainty
293.15	0	0.000202	1.2e-05
293.15	0.1229	0.000329	2e-05
293.15	0.2396	0.000488	2.9e-05
293.15	0.3508	0.000675	4.1e-05
293.15	0.4567	0.000882	5.3e-05
293.15	0.5577	0.001081	6.5e-05
293.15	0.6541	0.001405	8.5e-05
293.15	0.7463	0.001584	9.6e-05
293.15	0.8345	0.001698	0.000103
293.15	0.919	0.001707	0.000103
293.15	1	0.001716	0.000104
298.15	0	0.0002398	1.44e-05
298.15	0.1229	0.0004403	2.65e-05
298.15	0.2396	0.0006476	3.9e-05
298.15	0.3508	0.0009185	5.54e-05
298.15	0.4567	0.00122	7.4e-05
298.15	0.5577	0.0015392	9.29e-05
298.15	0.6541	0.00191	0.000115
298.15	0.7463	0.002179	0.000132
298.15	0.8345	0.0023	0.000139
298.15	0.919	0.002383	0.000144
298.15	1	0.002402	0.000145
303.15	0	0.0003023	1.82e-05
303.15	0.1229	0.0006106	3.68e-05
303.15	0.2396	0.0008643	5.21e-05
303.15	0.3508	0.001259	7.6e-05
303.15	0.4567	0.001649	9.9e-05
303.15	0.5577	0.002089	0.000126
303.15	0.6541	0.002405	0.000145
303.15	0.7463	0.002771	0.000167
303.15	0.8345	0.002924	0.000177
303.15	0.919	0.002987	0.00018
303.15	1	0.003088	0.000187
308.15	0	0.0003994	2.41e-05
308.15	0.1229	0.0008375	5.05e-05
308.15	0.2396	0.001178	7.1e-05
308.15	0.3508	0.00162	9.8e-05
308.15	0.4567	0.002212	0.000133
308.15	0.5577	0.002795	0.000169
308.15	0.6541	0.003301	0.000199
308.15	0.7463	0.003711	0.000224
308.15	0.8345	0.003773	0.000228
308.15	0.919	0.003905	0.000236
308.15	1	0.003961	0.000239
313.15	0	0.0005416	3.26e-05
313.15	0.1229	0.001109	6.7e-05
313.15	0.2396	0.001588	9.6e-05
313.15	0.3508	0.002138	0.000129
313.15	0.4567	0.002776	0.000167
313.15	0.5577	0.003678	0.000222
313.15	0.6541	0.004329	0.000261
313.15	0.7463	0.004793	0.000289
313.15	0.8345	0.005111	0.000309
313.15	0.919	0.005181	0.000313
313.15	1	0.005212	0.000315
318.15	0	0.0007391	4.45e-05
318.15	0.1229	0.001509	9.1e-05
318.15	0.2396	0.002096	0.000126
318.15	0.3508	0.002808	0.000169
318.15	0.4567	0.003683	0.000222
318.15	0.5577	0.004718	0.000285
318.15	0.6541	0.005577	0.000337
318.15	0.7463	0.006303	0.00038
318.15	0.8345	0.006777	0.000409
318.15	0.919	0.007055	0.000426
318.15	1	0.007029	0.000425
323.15	0	0.001002	6e-05
323.15	0.1229	0.002013	0.000121
323.15	0.2396	0.0027	0.000163
323.15	0.3508	0.003609	0.000218
323.15	0.4567	0.004792	0.000289
323.15	0.5577	0.005914	0.000357
323.15	0.6541	0.007046	0.000425
323.15	0.7463	0.008365	0.000505
323.15	0.8345	0.00895	0.00054
323.15	0.919	0.00942	0.000569
323.15	1	0.009602	0.00058
