Measured thermophysical data. Solubility of Nonanoic (Pelargonic) Acid in Supercritical Carbon Dioxide
Source: J. Chem. Eng. Data, 2008, 10.1021/je700465u
Compound 1: nonanoic acid, C9H18O2, InChI=1S/C9H18O2/c1-2-3-4-5-6-7-8-9(10)11/h2-8H2,1H3,(H,10,11)
Compound 2: carbon dioxide, CO2, InChI=1S/CO2/c2-1-3

System: nonanoic acid + carbon dioxide; phases: Fluid (supercritical or subcritical phases), Crystal
Property: Mole fraction of nonanoic acid (Fluid (supercritical or subcritical phases)); method: Density calibration data
Temperature, K	Pressure, kPa	Mole fraction of nonanoic acid	uncertainty
313.15	10000	0.00707	0.00083
313.15	13300	0.00782	0.00077
313.15	16700	0.0075	0.00095
313.15	20000	0.00763	0.00085
313.15	23300	0.00764	0.0005
313.15	26700	0.00764	0.00071
313.15	30000	0.0077	0.00043
333.15	10000	0.00013	0.00013
333.15	13300	0.00247	0.00109
333.15	16700	0.00675	0.00233
333.15	20000	0.00752	0.00062
333.15	23300	0.00765	0.00099
333.15	26700	0.00724	0.00083
333.15	30000	0.00709	0.00144
