Measured thermophysical data. Mixed Solubilities of 5-Sulfosalicylic Acid and p-Aminobenzoic Acid in Supercritical Carbon Dioxide
Source: J. Chem. Eng. Data, 2007, 10.1021/je700159k
Compound 1: 5-sulfosalicylic acid, C7H6O6S, InChI=1S/C7H6O6S/c8-6-2-1-4(14(11,12)13)3-5(6)7(9)10/h1-3,8H,(H,9,10)(H,11,12,13)
Compound 2: 4-aminobenzoic acid, C7H7NO2, InChI=1S/C7H7NO2/c8-6-3-1-5(2-4-6)7(9)10/h1-4H,8H2,(H,9,10)
Compound 3: carbon dioxide, CO2, InChI=1S/CO2/c2-1-3

System: 5-sulfosalicylic acid + carbon dioxide; phases: Fluid (supercritical or subcritical phases), Crystal
Property: Mole fraction of 5-sulfosalicylic acid (Fluid (supercritical or subcritical phases)); method: Spectrophotometer calibration data
Temperature, K	Pressure, kPa	Mole fraction of 5-sulfosalicylic acid	uncertainty
308	8000	8e-07	8.3e-08
308	11000	1.366e-06	1.38e-07
308	13000	1.532e-06	1.54e-07
308	17000	1.619e-06	1.63e-07
308	21000	1.728e-06	1.74e-07
318	8000	5.75e-07	6.1e-08
318	11000	1.228e-06	1.25e-07
318	13000	1.588e-06	1.6e-07
318	17000	1.903e-06	1.91e-07
318	21000	1.995e-06	2.01e-07
328	8000	5.65e-07	6e-08
328	11000	1.177e-06	1.2e-07
328	13000	1.652e-06	1.67e-07
328	17000	1.915e-06	1.93e-07
328	21000	2.03e-06	2.04e-07

System: 5-sulfosalicylic acid + carbon dioxide + 4-aminobenzoic acid; phases: Fluid (supercritical or subcritical phases), Crystal, Crystal
Property: Mole fraction of 5-sulfosalicylic acid (Fluid (supercritical or subcritical phases)); method: Spectrophotometer calibration data
Temperature, K	Pressure, kPa	Mole fraction of 5-sulfosalicylic acid	uncertainty
308	8000	1.086e-06	5.4e-08
308	11000	1.445e-06	7.1e-08
308	13000	1.714e-06	8.3e-08
308	17000	1.767e-06	8.5e-08
308	21000	1.785e-06	8.6e-08
318	8000	7.97e-07	4.2e-08
318	11000	1.352e-06	6.8e-08
318	13000	1.744e-06	8.5e-08
318	17000	1.941e-06	9.4e-08
318	21000	2.016e-06	9.7e-08
328	8000	7.67e-07	4e-08
328	11000	1.191e-06	6.1e-08
328	13000	1.766e-06	8.7e-08
328	17000	2.215e-06	1.07e-07
328	21000	2.289e-06	1.11e-07

System: 5-sulfosalicylic acid + carbon dioxide + 4-aminobenzoic acid; phases: Fluid (supercritical or subcritical phases), Crystal, Crystal
Property: Mole fraction of 4-aminobenzoic acid (Fluid (supercritical or subcritical phases)); method: Spectrophotometer calibration data
Temperature, K	Pressure, kPa	Mole fraction of 4-aminobenzoic acid	uncertainty
308	8000	2.781e-06	1.4e-07
308	11000	3.909e-06	1.9e-07
308	13000	4.023e-06	1.94e-07
308	17000	4.44e-06	2.14e-07
308	21000	4.501e-06	2.17e-07
318	8000	2.015e-06	1.06e-07
318	11000	3.488e-06	1.73e-07
318	13000	4.066e-06	1.97e-07
318	17000	4.858e-06	2.34e-07
318	21000	5.288e-06	2.55e-07
328	8000	1.848e-06	9.8e-08
328	11000	3.051e-06	1.54e-07
328	13000	4.247e-06	2.08e-07
328	17000	5.316e-06	2.57e-07
328	21000	5.703e-06	2.75e-07
