Measured thermophysical data. Solubility of Methane in an Aqueous Methyldiethanolamine Solution (Mass Fraction 50 %)
Source: J. Chem. Eng. Data, 2008, 10.1021/je700734p
Compound 1: methane, CH4, InChI=1S/CH4/h1H4
Compound 2: N-methyldiethanolamine, C5H13NO2, InChI=1S/C5H13NO2/c1-6(2-4-7)3-5-8/h7-8H,2-5H2,1H3
Compound 3: water, H2O, InChI=1S/H2O/h1H2

System: methane + N-methyldiethanolamine + water; phases: Liquid, Gas
Fixed: Solvent: Mass fraction of N-methyldiethanolamine = 0.5
Property: Mole fraction of methane (Liquid); method: Chromatography
Temperature, K	Pressure, kPa	Mole fraction of methane	uncertainty
298.15	104.3	3.77e-05	2.3e-06
298.15	300	0.000108	7e-06
313.15	117	4.43e-05	2.7e-06
313.15	170	6.64e-05	4e-06
313.15	300	0.000115	7e-06
343.15	126	3.94e-05	2.4e-06
343.15	300	0.000104	6e-06
373.15	189.3	4.48e-05	2.7e-06
373.15	400	0.000137	8e-06
423.15	522	7.2e-05	4e-06
423.15	700	0.000191	1.2e-05

System: methane + N-methyldiethanolamine + water; phases: Liquid, Gas
Fixed: Solvent: Mass fraction of N-methyldiethanolamine = 0.5
Property: Mole fraction of methane (Liquid); method: Chromatography
Temperature, K	Pressure, kPa	Mole fraction of methane	uncertainty
298.15	1000	0.000383	2.3e-05
298.15	3000	0.00109	7e-05
298.15	6000	0.00194	0.00012
298.15	10000	0.00297	0.00018
298.15	15000	0.00388	0.00023
298.15	20000	0.00462	0.00028
313.15	1000	0.000398	2.4e-05
313.15	3000	0.0011	7e-05
313.15	6000	0.00196	0.00012
313.15	10000	0.003	0.00018
313.15	15000	0.00415	0.00025
313.15	20000	0.0051	0.00031
343.15	1000	0.00042	3e-05
343.15	3000	0.00116	7e-05
343.15	6000	0.00211	0.00013
343.15	10000	0.00321	0.00019
343.15	15000	0.00462	0.00028
343.15	19000	0.00529	0.00032
373.15	1000	0.000443	2.7e-05
373.15	3000	0.00132	8e-05
373.15	6000	0.00252	0.00015
373.15	10000	0.00389	0.00024
373.15	15000	0.00548	0.00033
373.15	19000	0.00654	0.0004
423.15	1300	0.000598	3.6e-05
423.15	3000	0.00169	0.0001
423.15	6890	0.00391	0.00024
423.15	10320	0.00581	0.00035
423.15	14000	0.00718	0.00043
423.15	18000	0.00862	0.00052
