Measured thermophysical data. Solubility of 2-(4-Ethylbenzoyl)benzoic Acid in Eleven Organic Solvents between 279.55 K and 343.15 K
Source: J. Chem. Eng. Data, 2007, 10.1021/je700426k
Compound 1: 2-(4-ethylbenzoyl)benzoic acid, C16H14O3, InChI=1S/C16H14O3/c1-2-11-7-9-12(10-8-11)15(17)13-5-3-4-6-14(13)16(18)19/h3-10H,2H2,1H3,(H,18,19)
Compound 2: dimethylformamide, C3H7NO, InChI=1S/C3H7NO/c1-4(2)3-5/h3H,1-2H3
Compound 3: N-methylpyrrolidone, C5H9NO, InChI=1S/C5H9NO/c1-6-4-2-3-5(6)7/h2-4H2,1H3
Compound 4: methanol, CH4O, InChI=1S/CH4O/c1-2/h2H,1H3
Compound 5: ethanol, C2H6O, InChI=1S/C2H6O/c1-2-3/h3H,2H2,1H3
Compound 6: propan-1-ol, C3H8O, InChI=1S/C3H8O/c1-2-3-4/h4H,2-3H2,1H3
Compound 7: propan-2-ol, C3H8O, InChI=1S/C3H8O/c1-3(2)4/h3-4H,1-2H3
Compound 8: tetrahydrofuran, C4H8O, InChI=1S/C4H8O/c1-2-4-5-3-1/h1-4H2
Compound 9: benzene, C6H6, InChI=1S/C6H6/c1-2-4-6-5-3-1/h1-6H
Compound 10: 1,4-dioxane, C4H8O2, InChI=1S/C4H8O2/c1-2-6-4-3-5-1/h1-4H2
Compound 11: acetone, C3H6O, InChI=1S/C3H6O/c1-3(2)4/h1-2H3
Compound 12: ethyl methanoate, C3H6O2, InChI=1S/C3H6O2/c1-2-5-3-4/h3H,2H2,1H3

System: dimethylformamide + 2-(4-ethylbenzoyl)benzoic acid; phases: Liquid, Crystal
Fixed: Pressure, kPa = 101
Property: Mole fraction of 2-(4-ethylbenzoyl)benzoic acid (Liquid); method: laser monitoring
Temperature, K	Mole fraction of 2-(4-ethylbenzoyl)benzoic acid	uncertainty
281.2	0.3433	0.0143
286.49	0.3674	0.0153
290.63	0.3822	0.016
296.42	0.42	0.0176
305.65	0.4513	0.019
314.34	0.4704	0.0199
325.55	0.5073	0.0215
335.75	0.5318	0.0222

System: N-methylpyrrolidone + 2-(4-ethylbenzoyl)benzoic acid; phases: Liquid, Crystal
Fixed: Pressure, kPa = 101
Property: Mole fraction of 2-(4-ethylbenzoyl)benzoic acid (Liquid); method: laser monitoring
Temperature, K	Mole fraction of 2-(4-ethylbenzoyl)benzoic acid	uncertainty
280.1	0.1626	0.0066
284.15	0.1755	0.0071
293.44	0.2095	0.0085
303.76	0.2604	0.0106
313.15	0.3147	0.0129
322.85	0.3958	0.0162
334.3	0.4843	0.02

System: methanol + 2-(4-ethylbenzoyl)benzoic acid; phases: Liquid, Crystal
Fixed: Pressure, kPa = 101
Property: Mole fraction of 2-(4-ethylbenzoyl)benzoic acid (Liquid); method: laser monitoring
Temperature, K	Mole fraction of 2-(4-ethylbenzoyl)benzoic acid	uncertainty
279.9	0.0627	0.0028
285.6	0.0827	0.0037
290.81	0.1014	0.0045
295.45	0.1184	0.0053
305.56	0.1644	0.0074
314.4	0.2016	0.0091
323.8	0.2482	0.0114
328.69	0.2727	0.0126
333.53	0.3005	0.014

System: ethanol + 2-(4-ethylbenzoyl)benzoic acid; phases: Liquid, Crystal
Fixed: Pressure, kPa = 101
Property: Mole fraction of 2-(4-ethylbenzoyl)benzoic acid (Liquid); method: laser monitoring
Temperature, K	Mole fraction of 2-(4-ethylbenzoyl)benzoic acid	uncertainty
282.29	0.0733	0.0031
289.68	0.1001	0.0042
294.91	0.1227	0.0052
304.6	0.1644	0.007
314.3	0.2141	0.0092
322.91	0.2556	0.011
328.65	0.2895	0.0125
338.19	0.3539	0.0156
342.82	0.3876	0.0172

System: propan-1-ol + 2-(4-ethylbenzoyl)benzoic acid; phases: Liquid, Crystal
Fixed: Pressure, kPa = 101
Property: Mole fraction of 2-(4-ethylbenzoyl)benzoic acid (Liquid); method: laser monitoring
Temperature, K	Mole fraction of 2-(4-ethylbenzoyl)benzoic acid	uncertainty
279.55	0.0499	0.0021
288.67	0.0777	0.0032
299.23	0.1208	0.005
308.86	0.1677	0.007
318.93	0.223	0.0093
328.62	0.2791	0.0117
338.45	0.3443	0.0146
343.15	0.3867	0.0165

System: propan-2-ol + 2-(4-ethylbenzoyl)benzoic acid; phases: Liquid, Crystal
Fixed: Pressure, kPa = 101
Property: Mole fraction of 2-(4-ethylbenzoyl)benzoic acid (Liquid); method: laser monitoring
Temperature, K	Mole fraction of 2-(4-ethylbenzoyl)benzoic acid	uncertainty
279.79	0.0023	0.0001
284.74	0.0037	0.0002
294.05	0.0085	0.0004
303.99	0.0174	0.0007
313.25	0.0305	0.0013
323.37	0.0464	0.0019
334.05	0.0631	0.0026

System: tetrahydrofuran + 2-(4-ethylbenzoyl)benzoic acid; phases: Liquid, Crystal
Fixed: Pressure, kPa = 101
Property: Mole fraction of 2-(4-ethylbenzoyl)benzoic acid (Liquid); method: laser monitoring
Temperature, K	Mole fraction of 2-(4-ethylbenzoyl)benzoic acid	uncertainty
281.2	0.0064	0.0003
286.49	0.0085	0.0004
296.42	0.0125	0.0005
305.65	0.0178	0.0007
314.34	0.0246	0.001
325.55	0.0377	0.0015
330.34	0.0442	0.0018
335.75	0.0541	0.0022

System: benzene + 2-(4-ethylbenzoyl)benzoic acid; phases: Liquid, Crystal
Fixed: Pressure, kPa = 101
Property: Mole fraction of 2-(4-ethylbenzoyl)benzoic acid (Liquid); method: laser monitoring
Temperature, K	Mole fraction of 2-(4-ethylbenzoyl)benzoic acid	uncertainty
283.05	0.0023	0.0001
288.68	0.0037	0.0002
293.52	0.0052	0.0002
302.78	0.0109	0.0005
313.15	0.0228	0.0009
322.65	0.0408	0.0017
328.38	0.0598	0.0025
332.7	0.0793	0.0033

System: 1,4-dioxane + 2-(4-ethylbenzoyl)benzoic acid; phases: Liquid, Crystal
Fixed: Pressure, kPa = 101
Property: Mole fraction of 2-(4-ethylbenzoyl)benzoic acid (Liquid); method: laser monitoring
Temperature, K	Mole fraction of 2-(4-ethylbenzoyl)benzoic acid	uncertainty
288.88	0.0042	0.0002
293.97	0.0066	0.0003
298.46	0.0091	0.0004
303.53	0.0121	0.0005
308.09	0.0153	0.0006
313.4	0.0195	0.0008
319.15	0.024	0.001
322.54	0.0278	0.0011
333.97	0.0353	0.0014

System: acetone + 2-(4-ethylbenzoyl)benzoic acid; phases: Liquid, Crystal
Fixed: Pressure, kPa = 101
Property: Mole fraction of 2-(4-ethylbenzoyl)benzoic acid (Liquid); method: laser monitoring
Temperature, K	Mole fraction of 2-(4-ethylbenzoyl)benzoic acid	uncertainty
280.25	0.0015	0.0001
284.85	0.0022	0.0001
290.87	0.0032	0.0001
299.83	0.0054	0.0002
310.39	0.0087	0.0004
314.89	0.0107	0.0004
319.6	0.0132	0.0005
324.16	0.0156	0.0006

System: ethyl methanoate + 2-(4-ethylbenzoyl)benzoic acid; phases: Liquid, Crystal
Fixed: Pressure, kPa = 101
Property: Mole fraction of 2-(4-ethylbenzoyl)benzoic acid (Liquid); method: laser monitoring
Temperature, K	Mole fraction of 2-(4-ethylbenzoyl)benzoic acid	uncertainty
280.6	0.0014	0.0001
289.68	0.0027	0.0001
294.91	0.0038	0.0002
299.65	0.005	0.0002
304.6	0.006	0.0003
309.59	0.0075	0.0003
314.3	0.0087	0.0004
318.67	0.01	0.0004
322.91	0.0113	0.0005
