Measured thermophysical data. Density of Some 1-Bromoalkanes within the Temperature Range from (243.15 to 423.15) K
Source: J. Chem. Eng. Data, 2007, 10.1021/je700015t
Compound 1: 1-bromopropane, C3H7Br, InChI=1S/C3H7Br/c1-2-3-4/h2-3H2,1H3, purity 99.9%
Compound 2: 1-bromobutane, C4H9Br, InChI=1S/C4H9Br/c1-2-3-4-5/h2-4H2,1H3, purity 99.7%
Compound 3: 1-bromopentane, C5H11Br, InChI=1S/C5H11Br/c1-2-3-4-5-6/h2-5H2,1H3, purity 98.9%
Compound 4: 1-bromohexane, C6H13Br, InChI=1S/C6H13Br/c1-2-3-4-5-6-7/h2-6H2,1H3, purity 99.4%
Compound 5: 1-bromoheptane, C7H15Br, InChI=1S/C7H15Br/c1-2-3-4-5-6-7-8/h2-7H2,1H3, purity 99.3%
Compound 6: 1-bromooctane, C8H17Br, InChI=1S/C8H17Br/c1-2-3-4-5-6-7-8-9/h2-8H2,1H3, purity 99.2%
Compound 7: 1-bromododecane, C12H25Br, InChI=1S/C12H25Br/c1-2-3-4-5-6-7-8-9-10-11-12-13/h2-12H2,1H3, purity 99.2%

System: 1-bromopropane; phases: Liquid
Fixed: Pressure, kPa = 101.325
Property: Mass density, kg/m3 (Liquid); method: PYCNOM:UFactor:4
Temperature, K	Mass density, kg/m3	uncertainty
243.15	1431.1	1.9
253.15	1415.4	1.8
263.15	1400.3	1.7
273.15	1385.3	1.6
283.15	1369.4	1.5
298.15	1344.5	1.4

System: 1-bromobutane; phases: Liquid
Fixed: Pressure, kPa = 101.325
Property: Mass density, kg/m3 (Liquid); method: PYCNOM:UFactor:4
Temperature, K	Mass density, kg/m3	uncertainty
253.15	1326.5	1.7
263.15	1313.8	1.6
273.15	1300.5	1.5
283.15	1286.4	1.4
298.15	1265.7	1.3
323.15	1229.5	1.5

System: 1-bromopentane; phases: Liquid
Fixed: Pressure, kPa = 101.325
Property: Mass density, kg/m3 (Liquid); method: PYCNOM:UFactor:4
Temperature, K	Mass density, kg/m3	uncertainty
253.15	1260.3	2
263.15	1249.9	1.9
273.15	1239.6	1.8
293.15	1214.9	1.6
298.15	1208.5	1.6
323.15	1177.1	1.8
343.15	1151	1.9
363.15	1124.7	2
383.15	1097.4	2.2
393.15	1083.4	2.2

System: 1-bromohexane; phases: Liquid
Fixed: Pressure, kPa = 101.325
Property: Mass density, kg/m3 (Liquid); method: PYCNOM:UFactor:4
Temperature, K	Mass density, kg/m3	uncertainty
253.15	1218	1.7
273.15	1195.3	1.5
283.15	1183.8	1.3
298.15	1166.8	1.3
323.15	1137.3	1.5
343.15	1113.7	1.6
363.15	1090.8	1.8
383.15	1066.1	1.9
403.15	1040.9	2.1

System: 1-bromoheptane; phases: Liquid
Fixed: Pressure, kPa = 101.325
Property: Mass density, kg/m3 (Liquid); method: PYCNOM:UFactor:4
Temperature, K	Mass density, kg/m3	uncertainty
243.15	1191	1.8
263.15	1169.6	1.6
273.15	1159.2	1.4
283.15	1148.7	1.3
298.15	1132.9	1.3
323.15	1106	1.5
343.15	1084.5	1.6
393.15	1026.6	2

System: 1-bromooctane; phases: Liquid
Fixed: Pressure, kPa = 101.325
Property: Mass density, kg/m3 (Liquid); method: PYCNOM:UFactor:4
Temperature, K	Mass density, kg/m3	uncertainty
253.15	1151.1	1.7
263.15	1140.9	1.5
273.15	1131.2	1.4
283.15	1121.2	1.3
293.15	1111	1.2
298.15	1106	1.3
323.15	1080.6	1.5
343.15	1060.5	1.6
363.15	1039.5	1.8
393.15	1008.4	2

System: 1-bromododecane; phases: Liquid
Fixed: Pressure, kPa = 101.325
Property: Mass density, kg/m3 (Liquid); method: PYCNOM:UFactor:4
Temperature, K	Mass density, kg/m3	uncertainty
273.15	1056.5	1.3
283.15	1048.5	1.2
293.15	1039.8	1.1
298.15	1035.6	1.2
323.15	1014	1.4
343.15	996.2	1.5
363.15	979	1.7
393.15	952.4	1.9
423.15	923.7	2.2
