Measured thermophysical data. Liquid-Liquid Equilibria for the Acetic Acid + Water + Amyl Acetate and Acetic Acid + Water + 2-Methyl Ethyl Acetate Ternary Systems
Source: J. Chem. Eng. Data, 2007, 10.1021/je700181d
Compound 1: acetic acid, C2H4O2, InChI=1S/C2H4O2/c1-2(3)4/h1H3,(H,3,4)
Compound 2: pentyl ethanoate, C7H14O2, InChI=1S/C7H14O2/c1-3-4-5-6-9-7(2)8/h3-6H2,1-2H3
Compound 3: water, H2O, InChI=1S/H2O/h1H2
Compound 4: 1,1-dimethylethyl ethanoate, C6H12O2, InChI=1S/C6H12O2/c1-5(7)8-6(2,3)4/h1-4H3

System: acetic acid + pentyl ethanoate + water; phases: Liquid mixture 1, Liquid mixture 2
Fixed: Pressure, kPa = 101.3
Property: Mole fraction of water (Liquid mixture 1); method: Chromatography
Property: Mole fraction of water (Liquid mixture 2); method: Chromatography
Property: Mole fraction of acetic acid (Liquid mixture 2); method: Chromatography
Temperature, K	Mole fraction of acetic acid	Mole fraction of water	uncertainty	Mole fraction of water	uncertainty	Mole fraction of acetic acid	uncertainty
304.15	0	0.9995	0.0005	0.075	0.03	0	
304.15	0.0167	0.9821	0.0086	0.1207	0.0302	0.0475	
304.15	0.0332	0.9652	0.0086	0.1351	0.0301	0.0969	
304.15	0.0483	0.9498	0.0086	0.1655	0.0303	0.1457	
304.15	0.067	0.9307	0.0087	0.1941	0.0304	0.1875	
304.15	0.0844	0.9122	0.0088	0.2289	0.0307	0.2314	
304.15	0.1043	0.8911	0.0089	0.269	0.0318	0.2599	
304.15	0.1233	0.8702	0.009	0.3246	0.0317	0.2875	
304.15	0.1353	0.8568	0.0091	0.3795	0.0314	0.3251	
332.15	0	0.9992	0.0008	0.1055	0.03	0	
332.15	0.0164	0.9822	0.0086	0.1453	0.0301	0.0522	
332.15	0.0325	0.9661	0.0086	0.1416	0.0301	0.1039	
332.15	0.0509	0.9472	0.0088	0.1896	0.0305	0.1411	
332.15	0.069	0.927	0.0089	0.2298	0.0306	0.1984	
332.15	0.098	0.8959	0.0089	0.278	0.0307	0.2398	
332.15	0.1253	0.8663	0.0092	0.3215	0.0313	0.2912	
332.15	0.1779	0.8046	0.0094	0.3857	0.0353	0.3106	
366.15	0	0.9991	0.0009	0.1126	0.03	0	
366.15	0.0163	0.9822	0.0087	0.1419	0.0302	0.0463	
366.15	0.0322	0.9656	0.0088	0.1885	0.0302	0.1276	
366.15	0.0523	0.9438	0.0087	0.214	0.0303	0.1839	
366.15	0.0893	0.9058	0.0086	0.2539	0.0315	0.2146	
366.15	0.1098	0.8848	0.0089	0.2902	0.0313	0.2309	
366.15	0.1333	0.8577	0.01	0.3386	0.0317	0.2701	
366.15	0.172	0.8027	0.0105	0.4081	0.0329	0.3017	

System: acetic acid + 1,1-dimethylethyl ethanoate + water; phases: Liquid mixture 2, Liquid mixture 1
Fixed: Pressure, kPa = 101.3
Property: Mole fraction of acetic acid (Liquid mixture 2); method: Chromatography
Property: Mole fraction of acetic acid (Liquid mixture 1); method: Chromatography
Property: Mole fraction of water (Liquid mixture 1); method: Chromatography
Temperature, K	Mole fraction of water	Mole fraction of acetic acid	uncertainty	Mole fraction of acetic acid	uncertainty	Mole fraction of water	uncertainty
304.15	0.145	0	0.0001	0	0.0001	0.9963	
304.15	0.2199	0.0476	0.0205	0.0142	0.0082	0.9813	
304.15	0.2643	0.0862	0.0204	0.0265	0.0082	0.968	
304.15	0.324	0.1168	0.0202	0.039	0.0082	0.9546	
304.15	0.3841	0.1435	0.0203	0.0541	0.0079	0.9381	
304.15	0.4149	0.1652	0.0201	0.0644	0.0076	0.9251	
304.15	0.4858	0.1803	0.0201	0.0804	0.0076	0.9047	
304.15	0.5882	0.1948	0.0201	0.0989	0.0076	0.8803	
332.15	0.1878	0	0.0001	0	0.0001	0.9966	
332.15	0.2588	0.0474	0.0205	0.0134	0.0082	0.9823	
332.15	0.298	0.0833	0.0204	0.0258	0.0082	0.9688	
332.15	0.3525	0.1123	0.0202	0.0396	0.008	0.9538	
332.15	0.4194	0.1384	0.0213	0.0533	0.008	0.9378	
332.15	0.4324	0.1518	0.0201	0.0611	0.0079	0.9291	
332.15	0.4625	0.161	0.0202	0.0686	0.0073	0.9198	
332.15	0.5125	0.1831	0.0202	0.0852	0.0073	0.8951	
366.15	0.2129	0	0.0001	0	0.0001	0.9966	
366.15	0.2939	0.0381	0.0202	0.0109	0.0081	0.9852	
366.15	0.3482	0.0701	0.021	0.023	0.0079	0.9714	
366.15	0.3854	0.1015	0.0268	0.0362	0.008	0.9559	
366.15	0.3747	0.1332	0.0212	0.0552	0.008	0.9346	
366.15	0.443	0.1448	0.0201	0.0702	0.0072	0.9176	
366.15	0.5818	0.1702	0.0201	0.1037	0.0071	0.8634	

System: pentyl ethanoate + water; phases: Liquid mixture 1, Liquid mixture 2
Fixed: Pressure, kPa = 101.3
Property: Mole fraction of water (Liquid mixture 1); method: Chromatography
Temperature, K	Mole fraction of water	uncertainty
304.15	0.9995	0.0005
332.15	0.9992	0.0008
366.15	0.9991	0.0009

System: pentyl ethanoate + water; phases: Liquid mixture 2, Liquid mixture 1
Fixed: Pressure, kPa = 101.3
Property: Mole fraction of water (Liquid mixture 2); method: Chromatography
Temperature, K	Mole fraction of water	uncertainty
304.15	0.075	0.03
332.15	0.1055	0.03
366.15	0.1126	0.03

System: 1,1-dimethylethyl ethanoate + water; phases: Liquid mixture 2, Liquid mixture 1
Fixed: Pressure, kPa = 101.3
Property: Mole fraction of water (Liquid mixture 2); method: Chromatography
Temperature, K	Mole fraction of water	uncertainty
304.15	0.145	
366.15	0.2129	
332.15	0.1878	

System: 1,1-dimethylethyl ethanoate + water; phases: Liquid mixture 1, Liquid mixture 2
Fixed: Pressure, kPa = 101.3
Property: Mole fraction of water (Liquid mixture 1); method: Chromatography
Temperature, K	Mole fraction of water	uncertainty
304.15	0.9963	
366.15	0.9966	
332.15	0.9966	
