Measured thermophysical data. Densities and Excess Molar Volumes of N-Methylmorpholine + 1-Alkanol Systems at 298.15 K
Source: J. Chem. Eng. Data, 2008, 10.1021/je7005055
Compound 1: N-methylmorpholine, C5H11NO, InChI=1S/C5H11NO/c1-6-2-4-7-5-3-6/h2-5H2,1H3, purity 98%
Compound 2: ethanol, C2H6O, InChI=1S/C2H6O/c1-2-3/h3H,2H2,1H3, purity 99.8%
Compound 3: propan-1-ol, C3H8O, InChI=1S/C3H8O/c1-2-3-4/h4H,2-3H2,1H3, purity 99%
Compound 4: butan-1-ol, C4H10O, InChI=1S/C4H10O/c1-2-3-4-5/h5H,2-4H2,1H3, purity 99%
Compound 5: pentan-1-ol, C5H12O, InChI=1S/C5H12O/c1-2-3-4-5-6/h6H,2-5H2,1H3, purity 99.5%
Compound 6: hexan-1-ol, C6H14O, InChI=1S/C6H14O/c1-2-3-4-5-6-7/h7H,2-6H2,1H3, purity 99.5%
Compound 7: octan-1-ol, C8H18O, InChI=1S/C8H18O/c1-2-3-4-5-6-7-8-9/h9H,2-8H2,1H3, purity 99.5%

System: N-methylmorpholine; phases: Liquid
Property: Mass density, kg/m3 (Liquid); method: VIBTUB:UFactor:8
Temperature, K	Pressure, kPa	Mass density, kg/m3	uncertainty
298.15	101.325	914.06	1.54

System: ethanol; phases: Liquid
Property: Mass density, kg/m3 (Liquid); method: VIBTUB:UFactor:2
Temperature, K	Pressure, kPa	Mass density, kg/m3	uncertainty
298.15	101.325	784.94	0.31

System: propan-1-ol; phases: Liquid
Property: Mass density, kg/m3 (Liquid); method: VIBTUB:UFactor:6
Temperature, K	Pressure, kPa	Mass density, kg/m3	uncertainty
298.15	101.325	799.52	1.02

System: butan-1-ol; phases: Liquid
Property: Mass density, kg/m3 (Liquid); method: VIBTUB:UFactor:6
Temperature, K	Pressure, kPa	Mass density, kg/m3	uncertainty
298.15	101.325	805.92	1.01

System: pentan-1-ol; phases: Liquid
Property: Mass density, kg/m3 (Liquid); method: VIBTUB:UFactor:4
Temperature, K	Pressure, kPa	Mass density, kg/m3	uncertainty
298.15	101.325	810.83	0.59

System: hexan-1-ol; phases: Liquid
Property: Mass density, kg/m3 (Liquid); method: VIBTUB:UFactor:4
Temperature, K	Pressure, kPa	Mass density, kg/m3	uncertainty
298.15	101.325	814.95	0.58

System: octan-1-ol; phases: Liquid
Property: Mass density, kg/m3 (Liquid); method: VIBTUB:UFactor:4
Temperature, K	Pressure, kPa	Mass density, kg/m3	uncertainty
298.15	101.325	821.65	0.57

System: ethanol + N-methylmorpholine; phases: Liquid
Fixed: Temperature, K = 298.15
Fixed: Pressure, kPa = 101
Property: Mass density, kg/m3 (Liquid); method: VIBTUB:UFactor:6
Mole fraction of N-methylmorpholine	Mass density, kg/m3	uncertainty
0.0511	797.55	0.67
0.1166	812.41	0.65
0.1795	825.38	0.63
0.2438	837.23	0.63
0.2795	843.43	0.62
0.3532	854.69	0.63
0.4021	861.24	0.64
0.4573	867.56	0.65
0.4982	871.73	0.67
0.5342	875.35	0.68
0.5832	879.41	0.71
0.6432	884.36	0.74
0.7234	890.96	0.8
0.7786	895.53	0.84
0.8216	899.13	0.88
0.8794	904.05	0.93
0.9432	909.42	1
0.9832	912.63	1.04

System: propan-1-ol + N-methylmorpholine; phases: Liquid
Fixed: Temperature, K = 298.15
Fixed: Pressure, kPa = 101
Property: Mass density, kg/m3 (Liquid); method: VIBTUB:UFactor:6
Mole fraction of N-methylmorpholine	Mass density, kg/m3	uncertainty
0.0237	803.87	0.78
0.1003	816.55	0.78
0.1657	826.67	0.78
0.2336	836.52	0.78
0.2812	843.01	0.79
0.3458	851.12	0.8
0.3988	857.14	0.81
0.4476	861.99	0.82
0.5784	874.68	0.86
0.6347	879.93	0.88
0.7195	888.06	0.92
0.7684	892.76	0.94
0.8327	898.56	0.97
0.8674	901.93	0.99
0.9443	908.83	1.03
0.9878	912.75	1.05

System: butan-1-ol + N-methylmorpholine; phases: Liquid
Fixed: Temperature, K = 298.15
Fixed: Pressure, kPa = 101
Property: Mass density, kg/m3 (Liquid); method: VIBTUB:UFactor:6
Mole fraction of N-methylmorpholine	Mass density, kg/m3	uncertainty
0.0455	811.49	0.77
0.1089	818.95	0.77
0.1675	825.55	0.78
0.2399	833.8	0.79
0.2811	838.33	0.8
0.3494	845.7	0.81
0.3985	850.99	0.82
0.4533	856.71	0.83
0.5285	864.54	0.85
0.6444	876.67	0.89
0.7198	885.45	0.92
0.7865	891.47	0.95
0.8237	895.31	0.97
0.8843	901.73	1
0.9411	907.87	1.03
0.9801	912	1.05

System: pentan-1-ol + N-methylmorpholine; phases: Liquid
Fixed: Temperature, K = 298.15
Fixed: Pressure, kPa = 101
Property: Mass density, kg/m3 (Liquid); method: VIBTUB:UFactor:6
Mole fraction of N-methylmorpholine	Mass density, kg/m3	uncertainty
0.0487	813.72	0.67
0.1129	820.02	0.67
0.1766	826.08	0.67
0.2412	832.41	0.68
0.2801	836.23	0.69
0.3998	847.87	0.72
0.4612	854.03	0.73
0.5826	866.38	0.78
0.6444	872.93	0.81
0.7267	881.91	0.86
0.7801	887.89	0.89
0.8226	892.69	0.92
0.8811	899.57	0.96
0.9428	907.1	1.01
0.9854	912.11	1.05

System: N-methylmorpholine + hexan-1-ol; phases: Liquid
Fixed: Temperature, K = 298.15
Fixed: Pressure, kPa = 101
Property: Mass density, kg/m3 (Liquid); method: VIBTUB:UFactor:6
Mole fraction of N-methylmorpholine	Mass density, kg/m3	uncertainty
0.0459	818.34	0.66
0.1098	823.37	0.66
0.1852	829.49	0.67
0.2377	833.69	0.68
0.2855	837.76	0.69
0.3495	843.34	0.7
0.4034	848.09	0.72
0.4887	855.97	0.75
0.5129	858.26	0.75
0.5998	866.75	0.79
0.6583	872.76	0.82
0.7174	879.14	0.85
0.7844	886.51	0.9
0.8341	892.31	0.93
0.8964	899.75	0.98
0.9538	907.13	1.02
0.9784	910.69	1.04

System: N-methylmorpholine + octan-1-ol; phases: Liquid
Fixed: Temperature, K = 298.15
Fixed: Pressure, kPa = 101
Property: Mass density, kg/m3 (Liquid); method: VIBTUB:UFactor:6
Mole fraction of N-methylmorpholine	Mass density, kg/m3	uncertainty
0.0461	823.88	0.64
0.1101	827.55	0.65
0.1862	832.09	0.66
0.2381	835.33	0.67
0.2848	838.58	0.68
0.3484	843.06	0.7
0.4029	846.99	0.72
0.4899	853.86	0.75
0.5121	855.92	0.76
0.6012	863.81	0.8
0.6547	869.5	0.82
0.7213	875.97	0.86
0.7831	883.26	0.9
0.8353	889.72	0.93
0.8958	897.82	0.98
0.9541	905.92	1.02
0.9792	909.72	1.04
