Measured thermophysical data. Apparent Molar Volumes and Viscosity B-Coefficients of Some Amino Acids in Aqueous Tetramethylammonium Iodide Solutions at 298.15 K
Source: J. Chem. Eng. Data, 2007, 10.1021/je7001418
Compound 1: tetramethylammonium iodide, C4H12IN, InChI=1S/C4H12N.HI/c1-5(2,3)4;/h1-4H3;1H/q+1;/p-1
Compound 2: 2-aminoacetic acid, C2H5NO2, InChI=1S/C2H5NO2/c3-1-2(4)5/h1,3H2,(H,4,5)
Compound 3: (S)-2-aminopropanoic acid, C3H7NO2, InChI=1S/C3H7NO2/c1-2(4)3(5)6/h2H,4H2,1H3,(H,5,6)/t2-/m0/s1
Compound 4: L-valine, C5H11NO2, InChI=1S/C5H11NO2/c1-3(2)4(6)5(7)8/h3-4H,6H2,1-2H3,(H,7,8)/t4-/m0/s1
Compound 5: water, H2O, InChI=1S/H2O/h1H2

System: tetramethylammonium iodide + water; phases: Liquid
Fixed: Pressure, kPa = 101.3
Fixed: Temperature, K = 298.15
Property: Viscosity, Pa*s (Liquid); method: Capillary tube (Ostwald; Ubbelohde) method
Amount concentration (molarity), mol/dm3 of tetramethylammonium iodide	Viscosity, Pa*s	uncertainty
0.05	0.000805	8e-06
0.1	0.000812	8e-06
0.15	0.000819	8e-06

System: tetramethylammonium iodide + water; phases: Liquid
Fixed: Pressure, kPa = 101.3
Fixed: Temperature, K = 298.15
Property: Mass density, kg/m3 (Liquid); method: Pycnometric method
Amount concentration (molarity), mol/dm3 of tetramethylammonium iodide	Mass density, kg/m3	uncertainty
0.05	1001	1
0.1	1003	1
0.15	1009	1

System: 2-aminoacetic acid + tetramethylammonium iodide + water; phases: Liquid
Fixed: Pressure, kPa = 101.3
Fixed: Temperature, K = 298.15
Property: Viscosity, Pa*s (Liquid); method: Capillary tube (Ostwald; Ubbelohde) method
Solvent: Amount concentration (molarity), mol/dm3 of tetramethylammonium iodide	Amount concentration (molarity), mol/dm3 of 2-aminoacetic acid	Viscosity, Pa*s	uncertainty
0.05	0.0364	0.000814	8e-06
0.05	0.0485	0.000816	8e-06
0.05	0.0849	0.000822	9e-06
0.05	0.1092	0.000825	9e-06
0.05	0.1334	0.000829	9e-06
0.05	0.1516	0.000832	9e-06
0.1	0.0356	0.000819	9e-06
0.1	0.0474	0.000821	9e-06
0.1	0.0829	0.000826	9e-06
0.1	0.1066	0.000829	9e-06
0.1	0.1304	0.000832	9e-06
0.1	0.1481	0.000835	9e-06
0.15	0.0361	0.000825	9e-06
0.15	0.0481	0.000826	9e-06
0.15	0.0841	0.000831	9e-06
0.15	0.1082	0.000835	9e-06
0.15	0.1323	0.000838	9e-06
0.15	0.1503	0.00084	9e-06

System: 2-aminoacetic acid + tetramethylammonium iodide + water; phases: Liquid
Fixed: Pressure, kPa = 101.3
Fixed: Temperature, K = 298.15
Property: Mass density, kg/m3 (Liquid); method: Pycnometric method
Solvent: Amount concentration (molarity), mol/dm3 of tetramethylammonium iodide	Amount concentration (molarity), mol/dm3 of 2-aminoacetic acid	Mass density, kg/m3	uncertainty
0.05	0.0364	1002.1	1.1
0.05	0.0485	1002.5	1.1
0.05	0.0849	1003.7	1.1
0.05	0.1092	1004.4	1.1
0.05	0.1334	1005.2	1.1
0.05	0.1516	1005.7	1.1
0.1	0.0356	1004.1	1.1
0.1	0.0474	1004.5	1.1
0.1	0.0829	1005.6	1.1
0.1	0.1066	1006.3	1.1
0.1	0.1304	1007.1	1.1
0.1	0.1481	1007.6	1.1
0.15	0.0361	1009.8	1.1
0.15	0.0481	1010.2	1.1
0.15	0.0841	1011.3	1.1
0.15	0.1082	1012	1.1
0.15	0.1323	1012.8	1.1
0.15	0.1503	1013.3	1.1

System: (S)-2-aminopropanoic acid + tetramethylammonium iodide + water; phases: Liquid
Fixed: Pressure, kPa = 101.3
Fixed: Temperature, K = 298.15
Property: Viscosity, Pa*s (Liquid); method: Capillary tube (Ostwald; Ubbelohde) method
Solvent: Amount concentration (molarity), mol/dm3 of tetramethylammonium iodide	Amount concentration (molarity), mol/dm3 of (S)-2-aminopropanoic acid	Viscosity, Pa*s	uncertainty
0.05	0.0297	0.000814	9e-06
0.05	0.0396	0.000816	9e-06
0.05	0.0693	0.000823	9e-06
0.05	0.0892	0.000828	9e-06
0.05	0.109	0.000833	9e-06
0.05	0.1238	0.000837	9e-06
0.1	0.0311	0.000821	9e-06
0.1	0.0415	0.000823	9e-06
0.1	0.0727	0.000831	9e-06
0.1	0.0935	0.000836	9e-06
0.1	0.1142	0.000841	9e-06
0.1	0.1297	0.000845	9e-06
0.15	0.0296	0.000827	9e-06
0.15	0.0395	0.000829	9e-06
0.15	0.0691	0.000836	9e-06
0.15	0.0889	0.000841	9e-06
0.15	0.1087	0.000845	9e-06
0.15	0.1235	0.000849	9e-06

System: (S)-2-aminopropanoic acid + tetramethylammonium iodide + water; phases: Liquid
Fixed: Pressure, kPa = 101.3
Fixed: Temperature, K = 298.15
Property: Mass density, kg/m3 (Liquid); method: Pycnometric method
Solvent: Amount concentration (molarity), mol/dm3 of tetramethylammonium iodide	Amount concentration (molarity), mol/dm3 of (S)-2-aminopropanoic acid	Mass density, kg/m3	uncertainty
0.05	0.0297	1001.9	1.1
0.05	0.0396	1002.1	1.1
0.05	0.0693	1003	1.1
0.05	0.0892	1003.6	1.1
0.05	0.109	1004.1	1.1
0.05	0.1238	1004.5	1.1
0.1	0.0311	1003.9	1.1
0.1	0.0415	1004.2	1.1
0.1	0.0727	1005.1	1.1
0.1	0.0935	1005.6	1.1
0.1	0.1142	1006.2	1.1
0.1	0.1297	1006.7	1.1
0.15	0.0296	1009.5	1.1
0.15	0.0395	1009.8	1.1
0.15	0.0691	1010.6	1.1
0.15	0.0889	1011.2	1.1
0.15	0.1087	1011.7	1.1
0.15	0.1235	1012.2	1.1

System: L-valine + tetramethylammonium iodide + water; phases: Liquid
Fixed: Pressure, kPa = 101.3
Fixed: Temperature, K = 298.15
Property: Viscosity, Pa*s (Liquid); method: Capillary tube (Ostwald; Ubbelohde) method
Solvent: Amount concentration (molarity), mol/dm3 of tetramethylammonium iodide	Amount concentration (molarity), mol/dm3 of L-valine	Viscosity, Pa*s	uncertainty
0.05	0.0235	0.000811	8e-06
0.05	0.0312	0.000814	8e-06
0.05	0.0547	0.000821	9e-06
0.05	0.0704	0.000827	9e-06
0.05	0.086	0.000832	9e-06
0.05	0.0977	0.000836	9e-06
0.1	0.0243	0.00082	9e-06
0.1	0.0323	0.000823	9e-06
0.1	0.0566	0.000832	9e-06
0.1	0.0728	0.000837	9e-06
0.1	0.0889	0.000843	9e-06
0.1	0.1011	0.000848	9e-06
0.15	0.0214	0.000825	9e-06
0.15	0.0285	0.000828	9e-06
0.15	0.05	0.000835	9e-06
0.15	0.0642	0.00084	9e-06
0.15	0.0785	0.000846	9e-06
0.15	0.0892	0.00085	9e-06

System: L-valine + tetramethylammonium iodide + water; phases: Liquid
Fixed: Pressure, kPa = 101.3
Fixed: Temperature, K = 298.15
Property: Mass density, kg/m3 (Liquid); method: Pycnometric method
Solvent: Amount concentration (molarity), mol/dm3 of tetramethylammonium iodide	Amount concentration (molarity), mol/dm3 of L-valine	Mass density, kg/m3	uncertainty
0.05	0.0235	1001.6	1.1
0.05	0.0312	1001.8	1.1
0.05	0.0547	1002.5	1.1
0.05	0.0704	1002.9	1.1
0.05	0.086	1003.3	1.1
0.05	0.0977	1003.6	1.1
0.1	0.0243	1003.7	1.1
0.1	0.0323	1003.9	1.1
0.1	0.0566	1004.5	1.1
0.1	0.0728	1005	1.1
0.1	0.0889	1005.4	1.1
0.1	0.1011	1005.8	1.1
0.15	0.0214	1009.3	1.1
0.15	0.0285	1009.5	1.1
0.15	0.05	1010	1.1
0.15	0.0642	1010.4	1.1
0.15	0.0785	1010.8	1.1
0.15	0.0892	1011.1	1.1
