Measured thermophysical data. Liquid Liquid Equilibrium for Ternary Systems of Propyl Vinyl Ether + C3 or C4 Alcohols + Water at 298.15 K and Excess Molar Enthalpies for Ternary and Constituent Binary Systems of Propyl Vinyl Ether + Ethanol + Isooctane at 303.15 K
Source: J. Chem. Eng. Data, 2008, 10.1021/je7005743
Compound 1: propyl vinyl ether, C5H10O, InChI=1S/C5H10O/c1-3-5-6-4-2/h4H,2-3,5H2,1H3
Compound 2: ethanol, C2H6O, InChI=1S/C2H6O/c1-2-3/h3H,2H2,1H3
Compound 3: propan-1-ol, C3H8O, InChI=1S/C3H8O/c1-2-3-4/h4H,2-3H2,1H3
Compound 4: propan-2-ol, C3H8O, InChI=1S/C3H8O/c1-3(2)4/h3-4H,1-2H3
Compound 5: butan-1-ol, C4H10O, InChI=1S/C4H10O/c1-2-3-4-5/h5H,2-4H2,1H3
Compound 6: butan-2-ol, C4H10O, InChI=1S/C4H10O/c1-3-4(2)5/h4-5H,3H2,1-2H3
Compound 7: water, H2O, InChI=1S/H2O/h1H2
Compound 8: 2,2,4-trimethylpentane, C8H18, InChI=1S/C8H18/c1-7(2)6-8(3,4)5/h7H,6H2,1-5H3

System: propyl vinyl ether; phases: Liquid
Property: Mass density, kg/m3 (Liquid); method: Pycnometric method
Temperature, K	Pressure, kPa	Mass density, kg/m3	uncertainty
298.15	101.325	762.96	0.69

System: ethanol; phases: Liquid
Property: Mass density, kg/m3 (Liquid); method: Pycnometric method
Temperature, K	Pressure, kPa	Mass density, kg/m3	uncertainty
298.15	101.325	785.32	0.71

System: propan-1-ol; phases: Liquid
Property: Mass density, kg/m3 (Liquid); method: Pycnometric method
Temperature, K	Pressure, kPa	Mass density, kg/m3	uncertainty
298.15	101.325	799.94	0.72

System: propan-2-ol; phases: Liquid
Property: Mass density, kg/m3 (Liquid); method: Pycnometric method
Temperature, K	Pressure, kPa	Mass density, kg/m3	uncertainty
298.15	101.325	781.32	0.7

System: butan-1-ol; phases: Liquid
Property: Mass density, kg/m3 (Liquid); method: Pycnometric method
Temperature, K	Pressure, kPa	Mass density, kg/m3	uncertainty
298.15	101.325	805.76	0.72

System: butan-2-ol; phases: Liquid
Property: Mass density, kg/m3 (Liquid); method: Pycnometric method
Temperature, K	Pressure, kPa	Mass density, kg/m3	uncertainty
298.15	101.325	802.57	0.72

System: water; phases: Liquid
Property: Mass density, kg/m3 (Liquid); method: Pycnometric method
Temperature, K	Pressure, kPa	Mass density, kg/m3	uncertainty
298.15	101.325	997.02	0.9

System: 2,2,4-trimethylpentane; phases: Liquid
Property: Mass density, kg/m3 (Liquid); method: Pycnometric method
Temperature, K	Pressure, kPa	Mass density, kg/m3	uncertainty
298.15	101.325	687.91	0.61

System: ethanol + propyl vinyl ether; phases: Liquid
Fixed: Pressure, kPa = 101
Fixed: Temperature, K = 303.15
Property: Excess molar enthalpy (molar enthalpy of mixing), kJ/mol (Liquid); method: Flow calorimetry
Mole fraction of propyl vinyl ether	Excess molar enthalpy (molar enthalpy of mixing), kJ/mol	uncertainty
0.0265	0.05851	0.00162
0.0543	0.118902	0.002837
0.0836	0.184505	0.004203
0.1145	0.251842	0.005618
0.147	0.320349	0.007063
0.1814	0.391441	0.008565
0.2178	0.46481	0.010118
0.2564	0.539035	0.011689
0.2973	0.612308	0.013242
0.3409	0.685667	0.014796
0.3873	0.7481	0.016119
0.4368	0.814524	0.017527
0.4899	0.874179	0.018792
0.5468	0.924501	0.019859
0.608	0.96022	0.020616
0.6741	0.97453	0.020919
0.7456	0.950529	0.02041
0.8231	0.867258	0.018645
0.9076	0.655557	0.014158

System: ethanol + 2,2,4-trimethylpentane; phases: Liquid
Fixed: Pressure, kPa = 101
Fixed: Temperature, K = 303.15
Property: Excess molar enthalpy (molar enthalpy of mixing), kJ/mol (Liquid); method: Flow calorimetry
Mole fraction of ethanol	Excess molar enthalpy (molar enthalpy of mixing), kJ/mol	uncertainty
0.1291	0.542853	0.01177
0.2383	0.634022	0.013702
0.332	0.661968	0.014294
0.4132	0.658971	0.01423
0.4842	0.638973	0.013806
0.5469	0.61139	0.013222
0.6026	0.577327	0.0125
0.6525	0.541007	0.011731
0.6974	0.500502	0.010873
0.738	0.46121	0.010042
0.7749	0.418262	0.009133
0.8086	0.375681	0.008232
0.8395	0.333464	0.00734
0.8679	0.288602	0.006393
0.8942	0.243575	0.005444
0.9185	0.197762	0.004481
0.941	0.149361	0.003469
0.962	0.100528	0.00246
0.9817	0.050063	0.001459

System: 2,2,4-trimethylpentane + propyl vinyl ether; phases: Liquid
Fixed: Pressure, kPa = 101
Fixed: Temperature, K = 303.15
Property: Excess molar enthalpy (molar enthalpy of mixing), kJ/mol (Liquid); method: Flow calorimetry
Mole fraction of propyl vinyl ether	Excess molar enthalpy (molar enthalpy of mixing), kJ/mol	uncertainty
0.0715	0.106042	0.002573
0.1398	0.194323	0.004409
0.2052	0.265596	0.005908
0.2678	0.324338	0.007147
0.3278	0.367386	0.008057
0.3853	0.399311	0.008732
0.4406	0.419654	0.009162
0.4937	0.429241	0.009365
0.5448	0.430495	0.009392
0.5939	0.423797	0.00925
0.6413	0.405787	0.008869
0.6869	0.383483	0.008397
0.7309	0.353793	0.007769
0.7734	0.317181	0.006996
0.8144	0.275209	0.00611
0.854	0.228773	0.005132
0.8923	0.175073	0.004005
0.9294	0.116087	0.002779
0.9653	0.057682	0.001605

System: propan-1-ol + propyl vinyl ether + water; phases: Liquid mixture 2, Liquid mixture 1
Fixed: Temperature, K = 298.15
Fixed: Pressure, kPa = 101.32
Property: Mole fraction of propyl vinyl ether (Liquid mixture 2); method: Chromatography
Property: Mole fraction of propan-1-ol (Liquid mixture 1); method: Chromatography
Property: Mole fraction of propyl vinyl ether (Liquid mixture 1); method: Chromatography
Mole fraction of propan-1-ol	Mole fraction of propyl vinyl ether	uncertainty	Mole fraction of propan-1-ol	uncertainty	Mole fraction of propyl vinyl ether	uncertainty
0	0.0012	0.0002	0		0.9941	
0.0739	0.0038	0.0002	0.3884	0.003	0.1096	
0.0177	0.0015	0.0002	0.0512	0.0004	0.9276	
0.033	0.002	0.0002	0.1118	0.0009	0.852	
0.042	0.0022	0.0002	0.2188	0.0017	0.7093	
0.048	0.0024	0.0002	0.2998	0.0023	0.5697	
0.0512	0.0025	0.0002	0.3542	0.0027	0.4589	
0.0547	0.0026	0.0002	0.3983	0.0031	0.3613	
0.0611	0.0032	0.0002	0.4244	0.0033	0.221	
0.0673	0.0034	0.0002	0.4107	0.0032	0.1559	

System: propan-2-ol + propyl vinyl ether + water; phases: Liquid mixture 1, Liquid mixture 2
Fixed: Temperature, K = 298.15
Fixed: Pressure, kPa = 101.32
Property: Mole fraction of propan-2-ol (Liquid mixture 1); method: Chromatography
Property: Mole fraction of propyl vinyl ether (Liquid mixture 2); method: Chromatography
Property: Mole fraction of propan-2-ol (Liquid mixture 2); method: Chromatography
Mole fraction of propyl vinyl ether	Mole fraction of propan-2-ol	uncertainty	Mole fraction of propyl vinyl ether	uncertainty	Mole fraction of propan-2-ol	uncertainty
0.9941	0		0.0012	0.0002	0	
0.8964	0.0673	0.0005	0.0111	0.0002	0.0338	
0.7956	0.1416	0.0011	0.0114	0.0002	0.0668	
0.6899	0.2111	0.0016	0.012	0.0002	0.0895	
0.5299	0.2985	0.0023	0.0125	0.0002	0.1032	
0.3913	0.3496	0.0027	0.0129	0.0002	0.1184	
0.2635	0.3666	0.0028	0.0133	0.0002	0.1304	
0.1585	0.3463	0.0027	0.0137	0.0002	0.1444	

System: butan-1-ol + propyl vinyl ether + water; phases: Liquid mixture 2, Liquid mixture 1
Fixed: Temperature, K = 298.15
Fixed: Pressure, kPa = 101.32
Property: Mole fraction of propyl vinyl ether (Liquid mixture 2); method: Chromatography
Property: Mole fraction of butan-1-ol (Liquid mixture 1); method: Chromatography
Property: Mole fraction of propyl vinyl ether (Liquid mixture 1); method: Chromatography
Mole fraction of butan-1-ol	Mole fraction of propyl vinyl ether	uncertainty	Mole fraction of butan-1-ol	uncertainty	Mole fraction of propyl vinyl ether	uncertainty
0	0.0012	0.0002	0		0.9941	
0.0163	0.0029	0.0002	0.5123	0.0038	0.1016	
0.018	0.003	0.0003	0.5168	0.0037	0.0831	
0.0178	0.0032	0.0003	0.5206	0.0037	0.0595	
0.0067	0.0014	0.0002	0.1062	0.0008	0.8622	
0.0093	0.0016	0.0002	0.2273	0.0018	0.6885	
0.0106	0.0017	0.0002	0.3227	0.0025	0.5455	
0.0115	0.002	0.0002	0.3878	0.003	0.4276	
0.0126	0.0021	0.0002	0.4311	0.0033	0.3445	
0.0133	0.0024	0.0002	0.457	0.0035	0.2802	
0.0148	0.0025	0.0002	0.4953	0.0038	0.172	
0.0157	0.0028	0.0002	0.5092	0.0038	0.1254	

System: butan-2-ol + propyl vinyl ether + water; phases: Liquid mixture 2, Liquid mixture 1
Fixed: Temperature, K = 298.15
Fixed: Pressure, kPa = 101.32
Property: Mole fraction of propyl vinyl ether (Liquid mixture 2); method: CHROM:UFactor:4
Property: Mole fraction of butan-2-ol (Liquid mixture 1); method: CHROM:UFactor:4
Property: Mole fraction of propyl vinyl ether (Liquid mixture 1); method: CHROM:UFactor:4
Mole fraction of butan-2-ol	Mole fraction of propyl vinyl ether	uncertainty	Mole fraction of butan-2-ol	uncertainty	Mole fraction of propyl vinyl ether	uncertainty
0	0.0012	0.0006	0		0.9941	
0.0311	0.0048	0.0006	0.4203	0.013	0.1353	
0.0388	0.0049	0.0006	0.3999	0.0124	0.0556	
0.0105	0.002	0.0006	0.0591	0.0019	0.9149	
0.0127	0.0028	0.0006	0.1191	0.0037	0.8229	
0.0147	0.0034	0.0006	0.204	0.0063	0.6869	
0.0177	0.0036	0.0006	0.264	0.0082	0.5879	
0.021	0.0038	0.0006	0.3301	0.0102	0.4537	
0.0255	0.004	0.0006	0.3873	0.012	0.3303	
0.0265	0.0041	0.0006	0.4168	0.0129	0.2534	
0.0288	0.0044	0.0006	0.433	0.0134	0.1907	
