Measured thermophysical data. Static Dielectric Constants of Acetonitrile/Water Mixtures at Different Temperatures and Debye-Hu1ckel A and a0B Parameters for Activity Coefficients
Source: J. Chem. Eng. Data, 2007, 10.1021/je700055p
Compound 1: acetonitrile, C2H3N, InChI=1S/C2H3N/c1-2-3/h1H3
Compound 2: water, H2O, InChI=1S/H2O/h1H2

System: acetonitrile; phases: Liquid
Fixed: Pressure, kPa = 101.3
Fixed: Frequency, MHz = 1
Property: Relative permittivity at various frequencies (Liquid); method: Coaxial cylinder capacitor
Temperature, K	Relative permittivity at various frequencies	uncertainty
288.15	37.52	0.17
293.15	36.62	0.16
298.15	35.88	0.16
303.15	35.15	0.15
308.15	34.45	0.15
313.15	33.75	0.15
318.15	33.01	0.14
323.15	32.36	0.14
328.15	31.62	0.14
333.15	31.05	0.13

System: acetonitrile + water; phases: Liquid
Fixed: Pressure, kPa = 101.3
Fixed: Frequency, MHz = 1
Property: Relative permittivity at various frequencies (Liquid); method: Coaxial cylinder capacitor
Temperature, K	Mole fraction of acetonitrile	Relative permittivity at various frequencies	uncertainty
288.15	0.0465	78.61	0.35
288.15	0.0988	73.85	0.33
288.15	0.158	68.68	0.31
288.15	0.226	63.44	0.29
288.15	0.305	58.11	0.26
288.15	0.397	53.1	0.24
288.15	0.506	48.72	0.22
288.15	0.637	44.82	0.2
288.15	0.798	41.05	0.18
288.15	1	37.52	0.17
293.15	0.0465	76.8	0.34
293.15	0.0988	72.05	0.32
293.15	0.158	67.21	0.3
293.15	0.226	62	0.27
293.15	0.305	56.92	0.25
293.15	0.397	52.2	0.22
293.15	0.506	47.77	0.21
293.15	0.637	43.92	0.19
293.15	0.798	40.39	0.17
293.15	1	36.62	0.16
298.15	0.0465	74.92	0.33
298.15	0.0988	70.49	0.31
298.15	0.158	65.57	0.29
298.15	0.226	60.61	0.27
298.15	0.305	55.69	0.24
298.15	0.397	51.05	0.22
298.15	0.506	46.83	0.2
298.15	0.637	43.1	0.19
298.15	0.798	39.41	0.17
298.15	1	35.88	0.16
303.15	0.0465	73.36	0.32
303.15	0.0988	68.85	0.3
303.15	0.158	64.22	0.28
303.15	0.226	59.3	0.26
303.15	0.305	54.58	0.24
303.15	0.397	50.07	0.22
303.15	0.506	45.89	0.2
303.15	0.637	42.2	0.18
303.15	0.798	38.67	0.17
303.15	1	35.15	0.15
308.15	0.0465	71.55	0.32
308.15	0.0988	67.33	0.29
308.15	0.158	62.78	0.28
308.15	0.226	58.07	0.25
308.15	0.305	53.43	0.23
308.15	0.397	48.88	0.21
308.15	0.506	44.99	0.19
308.15	0.637	41.38	0.18
308.15	0.798	37.85	0.16
308.15	1	34.45	0.15
313.15	0.0465	70.04	0.31
313.15	0.0988	65.9	0.29
313.15	0.158	61.26	0.27
313.15	0.226	56.79	0.25
313.15	0.305	52.28	0.23
313.15	0.397	47.98	0.21
313.15	0.506	44.12	0.19
313.15	0.637	40.64	0.18
313.15	0.798	37.11	0.16
313.15	1	33.75	0.15
318.15	0.0465	68.44	0.3
318.15	0.0988	64.34	0.28
318.15	0.158	59.91	0.26
318.15	0.226	55.44	0.25
318.15	0.305	51.18	0.22
318.15	0.397	46.87	0.21
318.15	0.506	43.18	0.19
318.15	0.637	39.74	0.17
318.15	0.798	36.29	0.16
318.15	1	33.01	0.14
323.15	0.0465	66.84	0.29
323.15	0.0988	62.99	0.28
323.15	0.158	58.6	0.26
323.15	0.226	54.13	0.24
323.15	0.305	49.99	0.22
323.15	0.397	45.89	0.2
323.15	0.506	42.28	0.18
323.15	0.637	38.84	0.17
323.15	0.798	35.39	0.15
323.15	1	32.36	0.14
328.15	0.0465	65.36	0.29
328.15	0.0988	61.47	0.27
328.15	0.158	57.29	0.25
328.15	0.226	53.02	0.23
328.15	0.305	48.92	0.21
328.15	0.397	44.9	0.2
328.15	0.506	41.38	0.18
328.15	0.637	37.97	0.17
328.15	0.798	34.82	0.15
328.15	1	31.62	0.14
333.15	0.0465	63.85	0.28
333.15	0.0988	60.07	0.26
333.15	0.158	55.97	0.24
333.15	0.226	51.79	0.22
333.15	0.305	47.94	0.2
333.15	0.397	43.92	0.18
333.15	0.506	40.52	0.17
333.15	0.637	37.15	0.15
333.15	0.798	34.08	0.14
333.15	1	31.05	0.13
