Measured thermophysical data. Isobaric Vapor Liquid Equilibrium for Dimethylsulfoxide with Chloroethanes and Chloroethenes
Source: J. Chem. Eng. Data, 2008, 10.1021/je700408x
Compound 1: dimethyl sulfoxide, C2H6OS, InChI=1S/C2H6OS/c1-4(2)3/h1-2H3
Compound 2: 1,2-dichloroethane, C2H4Cl2, InChI=1S/C2H4Cl2/c3-1-2-4/h1-2H2
Compound 3: 1,1,1-trichloroethane, C2H3Cl3, InChI=1S/C2H3Cl3/c1-2(3,4)5/h1H3
Compound 4: 1,1,2,2-tetrachloroethane, C2H2Cl4, InChI=1S/C2H2Cl4/c3-1(4)2(5)6/h1-2H
Compound 5: trichloroethene, C2HCl3, InChI=1S/C2HCl3/c3-1-2(4)5/h1H
Compound 6: tetrachloroethene, C2Cl4, InChI=1S/C2Cl4/c3-1(4)2(5)6

System: dimethyl sulfoxide; phases: Liquid, Gas
Property: Normal boiling temperature, K (Liquid); method: Ebulliometric method (Recirculating still)
Normal boiling temperature, K	uncertainty
462.19	0.41

System: dimethyl sulfoxide; phases: Liquid
Property: Mass density, kg/m3 (Liquid); method: Pycnometric method
Temperature, K	Pressure, kPa	Mass density, kg/m3	uncertainty
303.15	101.325	1090.4	6.73

System: dimethyl sulfoxide; phases: Liquid, Gas
Property: Vapor or sublimation pressure, kPa (Liquid); method: Ebulliometric method (Recirculating still)
Temperature, K	Vapor or sublimation pressure, kPa	uncertainty
460.95	95.3	2

System: 1,2-dichloroethane; phases: Liquid, Gas
Property: Normal boiling temperature, K (Liquid); method: Ebulliometric method (Recirculating still)
Normal boiling temperature, K	uncertainty
356.95	0.41

System: 1,2-dichloroethane; phases: Liquid
Property: Mass density, kg/m3 (Liquid); method: Pycnometric method
Temperature, K	Pressure, kPa	Mass density, kg/m3	uncertainty
303.15	101.325	1238.41	8.62

System: 1,2-dichloroethane; phases: Liquid, Gas
Property: Vapor or sublimation pressure, kPa (Liquid); method: Ebulliometric method (Recirculating still)
Temperature, K	Vapor or sublimation pressure, kPa	uncertainty
355.05	95.3	2

System: 1,1,1-trichloroethane; phases: Liquid, Gas
Property: Normal boiling temperature, K (Liquid); method: Ebulliometric method (Recirculating still)
Normal boiling temperature, K	uncertainty
347.35	0.41

System: 1,1,1-trichloroethane; phases: Liquid
Property: Mass density, kg/m3 (Liquid); method: Pycnometric method
Temperature, K	Pressure, kPa	Mass density, kg/m3	uncertainty
303.15	101.325	1320.97	9.78

System: 1,1,1-trichloroethane; phases: Liquid, Gas
Property: Vapor or sublimation pressure, kPa (Liquid); method: Ebulliometric method (Recirculating still)
Temperature, K	Vapor or sublimation pressure, kPa	uncertainty
345.45	95.3	2

System: 1,1,2,2-tetrachloroethane; phases: Liquid, Gas
Property: Normal boiling temperature, K (Liquid); method: Ebulliometric method (Recirculating still)
Normal boiling temperature, K	uncertainty
418.35	0.41

System: 1,1,2,2-tetrachloroethane; phases: Liquid
Property: Mass density, kg/m3 (Liquid); method: Pycnometric method
Temperature, K	Pressure, kPa	Mass density, kg/m3	uncertainty
303.15	101.325	1578.59	13.87

System: 1,1,2,2-tetrachloroethane; phases: Liquid, Gas
Property: Vapor or sublimation pressure, kPa (Liquid); method: Ebulliometric method (Recirculating still)
Temperature, K	Vapor or sublimation pressure, kPa	uncertainty
417.05	95.3	2

System: trichloroethene; phases: Liquid, Gas
Property: Normal boiling temperature, K (Liquid); method: Ebulliometric method (Recirculating still)
Normal boiling temperature, K	uncertainty
360.25	0.41

System: trichloroethene; phases: Liquid
Property: Mass density, kg/m3 (Liquid); method: Pycnometric method
Temperature, K	Pressure, kPa	Mass density, kg/m3	uncertainty
303.15	101.325	1451.42	11.76

System: trichloroethene; phases: Liquid, Gas
Property: Vapor or sublimation pressure, kPa (Liquid); method: Ebulliometric method (Recirculating still)
Temperature, K	Vapor or sublimation pressure, kPa	uncertainty
357.75	95.3	2

System: tetrachloroethene; phases: Liquid, Gas
Property: Normal boiling temperature, K (Liquid); method: Ebulliometric method (Recirculating still)
Normal boiling temperature, K	uncertainty
394.15	0.41

System: tetrachloroethene; phases: Liquid
Property: Mass density, kg/m3 (Liquid); method: Pycnometric method
Temperature, K	Pressure, kPa	Mass density, kg/m3	uncertainty
303.15	101.325	1606.39	14.35

System: tetrachloroethene; phases: Liquid, Gas
Property: Vapor or sublimation pressure, kPa (Liquid); method: Ebulliometric method (Recirculating still)
Temperature, K	Vapor or sublimation pressure, kPa	uncertainty
391.95	95.3	2

System: dimethyl sulfoxide + 1,2-dichloroethane; phases: Liquid, Gas
Fixed: Pressure, kPa = 95.3
Property: Boiling temperature at pressure P, K (Liquid); method: Ebulliometric method (Recirculating still)
Mole fraction of 1,2-dichloroethane	Boiling temperature at pressure P, K	uncertainty
0	460.95	0.45
0.0748	436.85	0.45
0.1307	423.25	0.45
0.3107	395.25	0.45
0.4286	383.85	0.45
0.5197	376.95	0.45
0.6433	369.55	0.45
0.844	360.45	0.45
0.9253	357.45	0.45
1	355.05	0.45

System: dimethyl sulfoxide + 1,1,1-trichloroethane; phases: Liquid, Gas
Fixed: Pressure, kPa = 95.3
Property: Boiling temperature at pressure P, K (Liquid); method: Ebulliometric method (Recirculating still)
Mole fraction of 1,1,1-trichloroethane	Boiling temperature at pressure P, K	uncertainty
0	460.95	0.45
0.0728	428.15	0.45
0.1741	402.05	0.45
0.3598	376.55	0.45
0.4574	367.95	0.45
0.588	359.25	0.45
0.7405	351.85	0.45
0.8771	347.45	0.45
0.9235	346.45	0.45
1	345.45	0.45

System: dimethyl sulfoxide + 1,1,2,2-tetrachloroethane; phases: Liquid, Gas
Fixed: Pressure, kPa = 95.3
Property: Boiling temperature at pressure P, K (Liquid); method: Ebulliometric method (Recirculating still)
Mole fraction of 1,1,2,2-tetrachloroethane	Boiling temperature at pressure P, K	uncertainty
0	460.95	0.45
0.0728	454.55	0.45
0.1447	449.35	0.45
0.288	441.35	0.45
0.3829	437.05	0.45
0.4774	433.25	0.45
0.619	428.15	0.45
0.8025	422.45	0.45
0.9125	419.35	0.45
1	417.05	0.45

System: dimethyl sulfoxide + trichloroethene; phases: Liquid, Gas
Fixed: Pressure, kPa = 95.3
Property: Boiling temperature at pressure P, K (Liquid); method: Ebulliometric method (Recirculating still)
Mole fraction of trichloroethene	Boiling temperature at pressure P, K	uncertainty
0	460.95	0.45
0.0918	445.85	0.45
0.1653	432.15	0.45
0.3036	408.75	0.45
0.348	402.45	0.45
0.6132	376.15	0.45
0.7255	369.35	0.45
0.8409	363.75	0.45
0.9275	360.25	0.45
1	357.75	0.45

System: dimethyl sulfoxide + tetrachloroethene; phases: Liquid, Gas
Fixed: Pressure, kPa = 95.3
Property: Boiling temperature at pressure P, K (Liquid); method: Ebulliometric method (Recirculating still)
Mole fraction of tetrachloroethene	Boiling temperature at pressure P, K	uncertainty
0	460.95	0.45
0.0512	444.95	0.45
0.0948	435.35	0.45
0.2189	418.95	0.45
0.3133	411.85	0.45
0.4814	404.35	0.45
0.6256	400.25	0.45
0.8069	396.25	0.45
0.9123	393.95	0.45
1	391.95	0.45
