Measured thermophysical data. Aqueous Solubilities for Ofloxacin, Norfloxacin, Lomefloxacin, Ciprofloxacin, Pefloxacin, and Pipemidic Acid from (293.15 to 323.15) K
Source: J. Chem. Eng. Data, 2008, 10.1021/je7007044
Compound 1: ofloxacin, C18H20FN3O4, InChI=1S/C18H20FN3O4/c1-10-9-26-17-14-11(16(23)12(18(24)25)8-22(10)14)7-13(19)15(17)21-5-3-20(2)4-6-21/h7-8,10H,3-6,9H2,1-2H3,(H,24,25)
Compound 2: norfloxacin, C16H18FN3O3, InChI=1S/C16H18FN3O3/c1-2-19-9-11(16(22)23)15(21)10-7-12(17)14(8-13(10)19)20-5-3-18-4-6-20/h7-9,18H,2-6H2,1H3,(H,22,23)
Compound 3: lomefloxacin, C17H19F2N3O3, InChI=1S/C17H19F2N3O3/c1-3-21-8-11(17(24)25)16(23)10-6-12(18)15(13(19)14(10)21)22-5-4-20-9(2)7-22/h6,8-9,20H,3-5,7H2,1-2H3,(H,24,25)
Compound 4: ciprofloxacin, C17H18FN3O3, InChI=1S/C17H18FN3O3/c18-13-7-11-14(8-15(13)20-5-3-19-4-6-20)21(10-1-2-10)9-12(16(11)22)17(23)24/h7-10,19H,1-6H2,(H,23,24)
Compound 5: pefloxacin, C17H20FN3O3, InChI=1S/C17H20FN3O3/c1-3-20-10-12(17(23)24)16(22)11-8-13(18)15(9-14(11)20)21-6-4-19(2)5-7-21/h8-10H,3-7H2,1-2H3,(H,23,24)
Compound 6: 8-ethyl-5,8-dihydro-5-oxo-2-(1-piperazinyl)pyrido[2,3-d]pyrimidine-6-carboxylic acid, C14H17N5O3, InChI=1S/C14H17N5O3/c1-2-18-8-10(13(21)22)11(20)9-7-16-14(17-12(9)18)19-5-3-15-4-6-19/h7-8,15H,2-6H2,1H3,(H,21,22)
Compound 7: water, H2O, InChI=1S/H2O/h1H2

System: water + ofloxacin; phases: Liquid, Crystal
Fixed: Pressure, kPa = 101
Property: Mole fraction of ofloxacin (Liquid); method: UV absorbances
Temperature, K	Mole fraction of ofloxacin	uncertainty
293.15	0.0001432	6.7e-06
298.15	0.0001504	7.1e-06
303.15	0.0001592	7.5e-06
308.15	0.0001698	8e-06
313.15	0.0001832	8.6e-06
318.15	0.000196	9.2e-06
323.15	0.0002096	9.9e-06

System: water + norfloxacin; phases: Liquid, Crystal
Fixed: Pressure, kPa = 101
Property: Mole fraction of norfloxacin (Liquid); method: UV absorbances
Temperature, K	Mole fraction of norfloxacin	uncertainty
293.15	2.022e-05	8.6e-07
298.15	2.27e-05	9.7e-07
303.15	2.541e-05	1.08e-06
308.15	2.915e-05	1.24e-06
313.15	3.377e-05	1.44e-06
318.15	3.928e-05	1.68e-06
323.15	4.69e-05	2e-06

System: water + lomefloxacin; phases: Liquid, Crystal
Fixed: Pressure, kPa = 101
Property: Mole fraction of lomefloxacin (Liquid); method: UV absorbances
Temperature, K	Mole fraction of lomefloxacin	uncertainty
293.15	3.483e-05	1.6e-06
298.15	3.769e-05	1.73e-06
303.15	4.33e-05	1.99e-06
308.15	4.901e-05	2.26e-06
313.15	5.631e-05	2.59e-06
318.15	6.541e-05	3.01e-06
323.15	7.571e-05	3.49e-06

System: water + ciprofloxacin; phases: Liquid, Crystal
Fixed: Pressure, kPa = 101
Property: Mole fraction of ciprofloxacin (Liquid); method: UV absorbances
Temperature, K	Mole fraction of ciprofloxacin	uncertainty
293.15	3.584e-06	1.59e-07
298.15	4.66e-06	2.06e-07
303.15	5.805e-06	2.56e-07
308.15	7.444e-06	3.28e-07
313.15	9.254e-06	4.08e-07
318.15	1.174e-05	5.2e-07
323.15	1.428e-05	6.3e-07

System: water + pefloxacin; phases: Liquid, Crystal
Fixed: Pressure, kPa = 101
Property: Mole fraction of pefloxacin (Liquid); method: UV absorbances
Temperature, K	Mole fraction of pefloxacin	uncertainty
293.15	5.056e-06	2.24e-07
298.15	6.148e-06	2.72e-07
303.15	7.631e-06	3.38e-07
308.15	9.518e-06	4.22e-07
313.15	1.226e-05	5.4e-07
318.15	1.572e-05	7e-07
323.15	2.094e-05	9.3e-07

System: water + 8-ethyl-5,8-dihydro-5-oxo-2-(1-piperazinyl)pyrido[2,3-d]pyrimidine-6-carboxylic acid; phases: Liquid, Crystal
Fixed: Pressure, kPa = 101
Property: Mole fraction of 8-ethyl-5,8-dihydro-5-oxo-2-(1-piperazinyl)pyrido[2,3-d]pyrimidine-6-carboxylic acid (Liquid); method: UV absorbances
Temperature, K	Mole fraction of 8-ethyl-5,8-dihydro-5-oxo-2-(1-piperazinyl)pyrido[2,3-d]pyrimidine-6-carboxylic acid	uncertainty
293.15	1.845e-05	7.6e-07
298.15	2.045e-05	8.4e-07
303.15	2.296e-05	9.4e-07
308.15	2.625e-05	1.08e-06
313.15	3.023e-05	1.24e-06
318.15	3.396e-05	1.39e-06
323.15	3.832e-05	1.57e-06
