Measured thermophysical data. Vapor-Liquid Equilibria for Propane (R-290) + 1,1,1,2,3,3,3-Heptafluoropropane (HFC-227ea) at Various Temperatures
Source: J. Chem. Eng. Data, 2007, 10.1021/je700271n
Compound 1: propane, C3H8, InChI=1S/C3H8/c1-3-2/h3H2,1-2H3, purity 99.5%
Compound 2: 1,1,1,2,3,3,3-heptafluoropropane, C3HF7, InChI=1S/C3HF7/c4-1(2(5,6)7)3(8,9)10/h1H, purity 99.8%

System: propane; phases: Liquid, Gas
Property: Vapor or sublimation pressure, kPa (Liquid); method: CCELL:UFactor:4
Temperature, K	Vapor or sublimation pressure, kPa	uncertainty
273.15	476	6
283.15	632	8
293.15	833	10
303.15	1079	13
313.15	1366	17
323.15	1709	21

System: 1,1,1,2,3,3,3-heptafluoropropane; phases: Liquid, Gas
Property: Vapor or sublimation pressure, kPa (Liquid); method: CCELL:UFactor:4
Temperature, K	Vapor or sublimation pressure, kPa	uncertainty
273.15	195	3
283.15	280	4
293.15	389	5
303.15	527	7
313.15	704	9
323.15	920	11

System: propane + 1,1,1,2,3,3,3-heptafluoropropane; phases: Liquid, Gas
Property: Vapor or sublimation pressure, kPa (Liquid); method: CCELL:UFactor:4
Mole fraction of propane	Temperature, K	Vapor or sublimation pressure, kPa	uncertainty
0	273.15	195	3
0	283.15	280	4
0	293.15	389	5
0	303.15	527	7
0	313.15	704	9
0	323.15	920	11
0.046	313.15	823	10
0.081	283.15	396	5
0.081	303.15	696	9
0.086	313.15	908	11
0.109	293.15	564	7
0.109	323.15	1197	15
0.115	273.15	320	4
0.142	313.15	1004	13
0.187	323.15	1351	17
0.195	303.15	855	11
0.199	283.15	504	6
0.202	313.15	1105	14
0.205	273.15	384	5
0.225	293.15	689	9
0.276	323.15	1495	19
0.305	283.15	572	7
0.306	273.15	428	5
0.315	313.15	1240	15
0.327	303.15	983	12
0.344	293.15	776	10
0.368	323.15	1607	20
0.406	273.15	459	6
0.423	283.15	622	8
0.449	323.15	1687	21
0.469	293.15	835	10
0.477	313.15	1364	17
0.479	303.15	1074	13
0.498	273.15	479	6
0.512	283.15	648	8
0.532	313.15	1412	18
0.562	293.15	862	11
0.579	313.15	1446	18
0.591	303.15	1117	14
0.598	273.15	496	6
0.608	283.15	664	8
0.611	323.15	1785	22
0.629	323.15	1800	22
0.662	283.15	673	8
0.664	273.15	505	6
0.665	293.15	885	11
0.706	313.15	1478	18
0.725	303.15	1145	14
0.731	273.15	511	6
0.733	283.15	684	9
0.752	293.15	892	11
0.757	323.15	1830	23
0.763	283.15	687	9
0.776	293.15	895	11
0.796	313.15	1481	18
0.797	303.15	1150	14
0.8	323.15	1837	23
0.805	283.15	689	9
0.807	323.15	1826	23
0.813	273.15	514	6
0.815	293.15	893	11
0.841	303.15	1151	14
0.851	283.15	688	9
0.858	293.15	892	11
0.866	273.15	510	6
0.899	313.15	1459	18
0.9	303.15	1136	14
0.907	273.15	509	6
0.913	323.15	1816	23
0.929	293.15	875	11
0.942	283.15	673	8
0.966	273.15	496	6
0.97	313.15	1424	18
1	273.15	476	6
1	283.15	632	8
1	293.15	833	10
1	303.15	1079	13
1	313.15	1366	17
1	323.15	1709	21

System: propane + 1,1,1,2,3,3,3-heptafluoropropane; phases: Gas, Liquid
Property: Mole fraction of propane (Gas); method: Chromatography
Mole fraction of propane	Temperature, K	Mole fraction of propane	uncertainty
0	273.15	0	0.001
0	283.15	0	0.001
0	293.15	0	0.001
0	303.15	0	0.001
0	313.15	0	0.001
0	323.15	0	0.001
0.046	313.15	0.14	0.02
0.081	283.15	0.315	0.02
0.081	303.15	0.244	0.02
0.086	313.15	0.231	0.02
0.109	293.15	0.332	0.02
0.109	323.15	0.249	0.02
0.115	273.15	0.406	0.02
0.142	313.15	0.324	0.02
0.187	323.15	0.366	0.02
0.195	303.15	0.423	0.02
0.199	283.15	0.46	0.02
0.202	313.15	0.399	0.02
0.205	273.15	0.523	0.02
0.225	293.15	0.488	0.02
0.276	323.15	0.44	0.02
0.305	283.15	0.552	0.02
0.306	273.15	0.599	0.02
0.315	313.15	0.501	0.02
0.327	303.15	0.541	0.02
0.344	293.15	0.579	0.02
0.368	323.15	0.504	0.02
0.406	273.15	0.644	0.02
0.423	283.15	0.611	0.02
0.449	323.15	0.572	0.02
0.469	293.15	0.646	0.02
0.477	313.15	0.607	0.02
0.479	303.15	0.631	0.02
0.498	273.15	0.698	0.02
0.512	283.15	0.662	0.02
0.532	313.15	0.637	0.02
0.562	293.15	0.688	0.02
0.579	313.15	0.663	0.02
0.591	303.15	0.687	0.02
0.598	273.15	0.731	0.02
0.608	283.15	0.703	0.02
0.611	323.15	0.654	0.02
0.629	323.15	0.68	0.02
0.662	283.15	0.727	0.02
0.664	273.15	0.752	0.02
0.665	293.15	0.731	0.02
0.706	313.15	0.761	0.02
0.725	303.15	0.754	0.02
0.731	273.15	0.779	0.02
0.733	283.15	0.766	0.02
0.752	293.15	0.775	0.02
0.757	323.15	0.762	0.02
0.763	283.15	0.782	0.02
0.776	293.15	0.789	0.02
0.796	313.15	0.801	0.02
0.797	303.15	0.791	0.02
0.8	323.15	0.773	0.02
0.805	283.15	0.806	0.02
0.807	323.15	0.807	0.02
0.813	273.15	0.82	0.02
0.815	293.15	0.812	0.02
0.841	303.15	0.828	0.02
0.851	283.15	0.836	0.02
0.858	293.15	0.841	0.02
0.866	273.15	0.846	0.02
0.899	313.15	0.872	0.02
0.9	303.15	0.877	0.02
0.907	273.15	0.877	0.02
0.913	323.15	0.884	0.02
0.929	293.15	0.904	0.02
0.942	283.15	0.916	0.02
0.966	273.15	0.943	0.02
0.97	313.15	0.954	0.02
1	273.15	1	0.001
1	283.15	1	0.001
1	293.15	1	0.001
1	303.15	1	0.001
1	313.15	1	0.001
1	323.15	1	0.001
