Measured thermophysical data. Study of Vapor-Liquid Equilibrium for Binary Mixtures (Chloroform + 2,2,2-Trifluoroethanol) and (r,r,r-Trifluorotoluene + 2,2,2-Trifluoroethanol) at Pressure 102 kPa
Source: J. Chem. Eng. Data, 2007, 10.1021/je700103k
Compound 1: trichloromethane, CHCl3, InChI=1S/CHCl3/c2-1(3)4/h1H, purity 99.5%
Compound 2: 2,2,2-trifluoroethanol, C2H3F3O, InChI=1S/C2H3F3O/c3-2(4,5)1-6/h6H,1H2, purity 99.7%
Compound 3: (trifluoromethyl)benzene, C7H5F3, InChI=1S/C7H5F3/c8-7(9,10)6-4-2-1-3-5-6/h1-5H, purity 99.7%

System: trichloromethane; phases: Liquid
Property: Refractive index (Na D-line) (Liquid); method: Standard Abbe refractometry
Temperature, K	Pressure, kPa	Refractive index (Na D-line)	uncertainty
298.15	101.325	1.4429	0.0004

System: trichloromethane; phases: Liquid, Gas
Property: Boiling temperature at pressure P, K (Liquid); method: Ebulliometric method (Recirculating still)
Pressure, kPa	Boiling temperature at pressure P, K	uncertainty
102	334.1	0.2

System: trichloromethane; phases: Liquid
Property: Mass density, kg/m3 (Liquid); method: Pycnometric method
Temperature, K	Pressure, kPa	Mass density, kg/m3	uncertainty
298.15	101.325	1477.3	0.8

System: 2,2,2-trifluoroethanol; phases: Liquid, Gas
Property: Boiling temperature at pressure P, K (Liquid); method: Ebulliometric method (Recirculating still)
Pressure, kPa	Boiling temperature at pressure P, K	uncertainty
102	347.4	0.2

System: 2,2,2-trifluoroethanol; phases: Liquid
Property: Mass density, kg/m3 (Liquid); method: Pycnometric method
Temperature, K	Pressure, kPa	Mass density, kg/m3	uncertainty
298.15	101.325	1382.4	0.7

System: (trifluoromethyl)benzene; phases: Liquid
Property: Refractive index (Na D-line) (Liquid); method: Standard Abbe refractometry
Temperature, K	Pressure, kPa	Refractive index (Na D-line)	uncertainty
298.15	101.325	1.4132	0.0004

System: (trifluoromethyl)benzene; phases: Liquid, Gas
Property: Boiling temperature at pressure P, K (Liquid); method: Ebulliometric method (Recirculating still)
Pressure, kPa	Boiling temperature at pressure P, K	uncertainty
102	375.7	0.2

System: (trifluoromethyl)benzene; phases: Liquid
Property: Mass density, kg/m3 (Liquid); method: Pycnometric method
Temperature, K	Pressure, kPa	Mass density, kg/m3	uncertainty
298.15	101.325	1182.2	0.6

System: trichloromethane + 2,2,2-trifluoroethanol; phases: Liquid, Gas
Fixed: Pressure, kPa = 102
Property: Boiling temperature at pressure P, K (Liquid); method: EBULLIO:UFactor:2
Mole fraction of trichloromethane	Boiling temperature at pressure P, K	uncertainty
0.1692	332.1	0.3
0.2374	330.5	0.3
0.3409	329	0.3
0.461	327.7	0.3
0.5769	327.5	0.3
0.6396	327.5	0.3
0.6828	327.6	0.3
0.7207	327.6	0.3
0.7768	327.3	0.3
0.8155	327.5	0.3
0.8508	327.8	0.3
0.8713	328	0.3
0.8859	328.1	0.3
0.9033	328.5	0.3

System: trichloromethane + 2,2,2-trifluoroethanol; phases: Gas, Liquid
Fixed: Pressure, kPa = 102
Property: Mole fraction of trichloromethane (Gas); method: Index of refraction calibration data
Mole fraction of trichloromethane	Mole fraction of trichloromethane	uncertainty
0.1692	0.5015	0.0107
0.2374	0.563	0.0104
0.3409	0.6112	0.0103
0.461	0.6629	0.0102
0.5769	0.7062	0.0101
0.6396	0.71	0.0101
0.6828	0.7142	0.0101
0.7207	0.7134	0.0101
0.7768	0.7207	0.0101
0.8155	0.7316	0.0102
0.8508	0.7467	0.0102
0.8713	0.7498	0.0102
0.8859	0.7618	0.0107
0.9033	0.7798	0.0109

System: 2,2,2-trifluoroethanol + (trifluoromethyl)benzene; phases: Liquid, Gas
Fixed: Pressure, kPa = 102
Property: Boiling temperature at pressure P, K (Liquid); method: EBULLIO:UFactor:2
Mole fraction of (trifluoromethyl)benzene	Boiling temperature at pressure P, K	uncertainty
0.054	345.3	0.3
0.109	345	0.3
0.289	344.7	0.3
0.423	345.1	0.3
0.563	345.6	0.3
0.655	346.2	0.3
0.704	346.7	0.3
0.757	347.4	0.3
0.791	348.4	0.4
0.89	354.8	0.8
0.904	357.5	0.6
0.943	362	0.6
0.962	365.1	0.8
0.972	367.5	1

System: 2,2,2-trifluoroethanol + (trifluoromethyl)benzene; phases: Gas, Liquid
Fixed: Pressure, kPa = 102
Property: Mole fraction of (trifluoromethyl)benzene (Gas); method: Index of refraction calibration data
Mole fraction of (trifluoromethyl)benzene	Mole fraction of (trifluoromethyl)benzene	uncertainty
0.054	0.115	0.011
0.109	0.166	0.01
0.289	0.247	0.01
0.423	0.271	0.01
0.563	0.284	0.01
0.655	0.308	0.01
0.704	0.329	0.01
0.757	0.351	0.01
0.791	0.376	0.011
0.89	0.472	0.015
0.904	0.509	0.014
0.943	0.605	0.015
0.962	0.675	0.02
0.972	0.734	0.026
