Measured thermophysical data. Vapor-Liquid Equilibrium Behaviors of Vanillin in 1-Butanol, 2-Butanol, and 2-Methyl-1-propanol
Source: J. Chem. Eng. Data, 2007, 10.1021/je700063c
Compound 1: vanillin, C8H8O3, InChI=1S/C8H8O3/c1-11-8-4-6(5-9)2-3-7(8)10/h2-5,10H,1H3, purity 98%
Compound 2: butan-1-ol, C4H10O, InChI=1S/C4H10O/c1-2-3-4-5/h5H,2-4H2,1H3, purity 99.9%
Compound 3: butan-2-ol, C4H10O, InChI=1S/C4H10O/c1-3-4(2)5/h4-5H,3H2,1-2H3, purity 99.9%
Compound 4: 2-methyl-1-propanol, C4H10O, InChI=1S/C4H10O/c1-4(2)3-5/h4-5H,3H2,1-2H3, purity 99.9%

System: butan-1-ol; phases: Liquid, Gas
Property: Normal boiling temperature, K (Liquid); method: Distillation
Normal boiling temperature, K	uncertainty
390.846	0.1

System: butan-1-ol; phases: Liquid
Property: Mass density, kg/m3 (Liquid); method: Pycnometric method
Temperature, K	Pressure, kPa	Mass density, kg/m3	uncertainty
298.15	101.325	805.8	0.7

System: butan-2-ol; phases: Liquid, Gas
Property: Normal boiling temperature, K (Liquid); method: Distillation
Normal boiling temperature, K	uncertainty
372.614	0.1

System: butan-2-ol; phases: Liquid
Property: Mass density, kg/m3 (Liquid); method: Pycnometric method
Temperature, K	Pressure, kPa	Mass density, kg/m3	uncertainty
298.15	101.325	802.4	0.7

System: 2-methyl-1-propanol; phases: Liquid, Gas
Property: Normal boiling temperature, K (Liquid); method: Distillation
Normal boiling temperature, K	uncertainty
380.922	0.1

System: 2-methyl-1-propanol; phases: Liquid
Property: Mass density, kg/m3 (Liquid); method: Pycnometric method
Temperature, K	Pressure, kPa	Mass density, kg/m3	uncertainty
298.15	101.325	797.8	0.7

System: butan-1-ol + vanillin; phases: Gas, Liquid
Property: Vapor or sublimation pressure, kPa (Gas); method: Ebulliometric method (Recirculating still)
Mole fraction of vanillin	Temperature, K	Vapor or sublimation pressure, kPa	uncertainty
0.0055	390.1	98.47	0.48
0.0106	390.55	99.21	0.47
0.0174	390.45	98.39	0.47
0.0198	390.53	98.32	0.47

System: butan-1-ol + vanillin; phases: Gas, Liquid
Property: Mole fraction of vanillin (Gas); method: UV Spectra
Mole fraction of vanillin	Temperature, K	Mole fraction of vanillin	uncertainty
0.0055	390.1	3.3e-05	2e-06
0.0106	390.55	5.9e-05	2e-06
0.0174	390.45	8.5e-05	2e-06
0.0198	390.53	0.0001	2e-06

System: butan-2-ol + vanillin; phases: Gas, Liquid
Property: Vapor or sublimation pressure, kPa (Gas); method: Ebulliometric method (Recirculating still)
Mole fraction of vanillin	Temperature, K	Vapor or sublimation pressure, kPa	uncertainty
0.0057	372.3	99.28	0.48
0.0084	372.39	99.3	0.48
0.0117	372.41	99.06	0.47
0.0169	372.27	97.97	0.48

System: butan-2-ol + vanillin; phases: Gas, Liquid
Property: Mole fraction of vanillin (Gas); method: UV Spectra
Mole fraction of vanillin	Temperature, K	Mole fraction of vanillin	uncertainty
0.0057	372.3	2e-05	2e-06
0.0084	372.39	2.9e-05	2e-06
0.0117	372.41	3.9e-05	2e-06
0.0169	372.27	5.6e-05	2e-06

System: 2-methyl-1-propanol + vanillin; phases: Gas, Liquid
Property: Vapor or sublimation pressure, kPa (Gas); method: Ebulliometric method (Recirculating still)
Mole fraction of vanillin	Temperature, K	Vapor or sublimation pressure, kPa	uncertainty
0.0078	380.31	97.91	0.48
0.0105	380.36	97.88	0.47
0.0162	380.7	98.27	0.47
0.0218	380.75	97.97	0.47

System: 2-methyl-1-propanol + vanillin; phases: Gas, Liquid
Property: Mole fraction of vanillin (Gas); method: UV Spectra
Mole fraction of vanillin	Temperature, K	Mole fraction of vanillin	uncertainty
0.0078	380.31	2.9e-05	2e-06
0.0105	380.36	4.1e-05	2e-06
0.0162	380.7	6.3e-05	2e-06
0.0218	380.75	8.7e-05	2e-06
