Measured thermophysical data. Phase Equilibria of (1-Ethyl-3-methylimidazolium Ethylsulfate + Hydrocarbon, + Ketone, and + Ether) Binary Systems
Source: J. Chem. Eng. Data, 2008, 10.1021/je700591h
Compound 1: hexane, C6H14, InChI=1S/C6H14/c1-3-5-6-4-2/h3-6H2,1-2H3
Compound 2: 1-ethyl-3-methylimidazolium ethyl sulfate, C8H16N2O4S, InChI=1S/C6H11N2.C2H6O4S/c1-3-8-5-4-7(2)6-8;1-2-6-7(3,4)5/h4-6H,3H2,1-2H3;2H2,1H3,(H,3,4,5)/q+1;/p-1
Compound 3: octane, C8H18, InChI=1S/C8H18/c1-3-5-7-8-6-4-2/h3-8H2,1-2H3
Compound 4: benzene, C6H6, InChI=1S/C6H6/c1-2-4-6-5-3-1/h1-6H
Compound 5: toluene, C7H8, InChI=1S/C7H8/c1-7-5-3-2-4-6-7/h2-6H,1H3
Compound 6: ethylbenzene, C8H10, InChI=1S/C8H10/c1-2-8-6-4-3-5-7-8/h3-7H,2H2,1H3
Compound 7: pentan-2-one, C5H10O, InChI=1S/C5H10O/c1-3-4-5(2)6/h3-4H2,1-2H3
Compound 8: pentan-3-one, C5H10O, InChI=1S/C5H10O/c1-3-5(6)4-2/h3-4H2,1-2H3
Compound 9: 2-hexanone, C6H12O, InChI=1S/C6H12O/c1-3-4-5-6(2)7/h3-5H2,1-2H3
Compound 10: 4-heptanone, C7H14O, InChI=1S/C7H14O/c1-3-5-7(8)6-4-2/h3-6H2,1-2H3
Compound 11: dibutyl ether, C8H18O, InChI=1S/C8H18O/c1-3-5-7-9-8-6-4-2/h3-8H2,1-2H3
Compound 12: 2-methoxy-2-methylpropane, C5H12O, InChI=1S/C5H12O/c1-5(2,3)6-4/h1-4H3
Compound 13: 2-ethoxy-2-methylpropane, C6H14O, InChI=1S/C6H14O/c1-5-7-6(2,3)4/h5H2,1-4H3
Compound 14: tetrahydrofuran, C4H8O, InChI=1S/C4H8O/c1-2-4-5-3-1/h1-4H2
Compound 15: dimethyl sulfoxide, C2H6OS, InChI=1S/C2H6OS/c1-4(2)3/h1-2H3

System: dimethyl sulfoxide; phases: Crystal, Liquid, Air at 1 atmosphere
Property: Normal melting temperature, K (Crystal); method: VISOBS:UFactor:12
Normal melting temperature, K	uncertainty
291.66	6

System: hexane + 1-ethyl-3-methylimidazolium ethyl sulfate; phases: Liquid mixture 1, Liquid mixture 2
Fixed: Pressure, kPa = 101
Property: Liquid-liquid equilibrium temperature, K (Liquid mixture 1); method: VISOBS:UFactor:32
Mole fraction of 1-ethyl-3-methylimidazolium ethyl sulfate	Liquid-liquid equilibrium temperature, K	uncertainty
0.6772	339.18	6.4
0.7262	324.55	6.4
0.7325	321.82	6.4
0.7678	313.09	6.4
0.8552	301.24	6.4

System: octane + 1-ethyl-3-methylimidazolium ethyl sulfate; phases: Liquid mixture 1, Liquid mixture 2
Fixed: Pressure, kPa = 101
Property: Liquid-liquid equilibrium temperature, K (Liquid mixture 1); method: VISOBS:UFactor:32
Mole fraction of 1-ethyl-3-methylimidazolium ethyl sulfate	Liquid-liquid equilibrium temperature, K	uncertainty
0.8184	368.97	6.4
0.8546	365.04	6.4
0.8842	360.68	6.4
0.8986	358.15	6.4
0.9184	351.45	6.4
0.9253	346.65	6.4
0.9352	345.1	6.4
0.9463	340.23	6.4
0.9633	334.75	6.4
0.9684	331.15	6.4
0.977	326.15	6.4
0.9871	317.15	6.4

System: benzene + 1-ethyl-3-methylimidazolium ethyl sulfate; phases: Liquid mixture 1, Liquid mixture 2
Fixed: Pressure, kPa = 101
Property: Liquid-liquid equilibrium temperature, K (Liquid mixture 1); method: VISOBS:UFactor:32
Mole fraction of 1-ethyl-3-methylimidazolium ethyl sulfate	Liquid-liquid equilibrium temperature, K	uncertainty
0.2445	346.31	6.4
0.2648	336.51	6.4
0.2893	328.22	6.4
0.3277	319.64	6.4
0.3576	314.12	6.4
0.3915	311.11	6.4
0.4048	309.09	6.4
0.4205	302.56	6.4
0.4418	294.6	6.4
0.4883	288	6.4

System: toluene + 1-ethyl-3-methylimidazolium ethyl sulfate; phases: Liquid mixture 1, Liquid mixture 2
Fixed: Pressure, kPa = 101
Property: Liquid-liquid equilibrium temperature, K (Liquid mixture 1); method: VISOBS:UFactor:32
Mole fraction of 1-ethyl-3-methylimidazolium ethyl sulfate	Liquid-liquid equilibrium temperature, K	uncertainty
0.6351	359.15	6.4
0.6823	333.44	6.4
0.7012	325.78	6.4
0.708	324.78	6.4
0.7153	319.55	6.4
0.7246	311.75	6.4

System: ethylbenzene + 1-ethyl-3-methylimidazolium ethyl sulfate; phases: Liquid mixture 1, Liquid mixture 2
Fixed: Pressure, kPa = 101
Property: Liquid-liquid equilibrium temperature, K (Liquid mixture 1); method: VISOBS:UFactor:32
Mole fraction of 1-ethyl-3-methylimidazolium ethyl sulfate	Liquid-liquid equilibrium temperature, K	uncertainty
0.75	375.15	6.4
0.8206	342.75	6.4
0.8318	340.52	6.4
0.8411	336.66	6.4
0.8487	334.14	6.4
0.8598	324.87	6.4
0.8666	322.6	6.4
0.8697	313.2	6.4
0.8806	304.87	6.4
0.889	297.12	6.4

System: pentan-2-one + 1-ethyl-3-methylimidazolium ethyl sulfate; phases: Liquid mixture 1, Liquid mixture 2
Fixed: Pressure, kPa = 101
Property: Liquid-liquid equilibrium temperature, K (Liquid mixture 1); method: VISOBS:UFactor:32
Mole fraction of 1-ethyl-3-methylimidazolium ethyl sulfate	Liquid-liquid equilibrium temperature, K	uncertainty
0.5089	358.95	6.4
0.5277	349.27	6.4
0.5441	338.48	6.4
0.5549	332.57	6.4
0.5751	321.66	6.4
0.5819	316.97	6.4
0.5881	311.26	6.4
0.5977	302.91	6.4
0.6012	297.78	6.4
0.6064	293.59	6.4
0.6122	281.9	6.4

System: pentan-3-one + 1-ethyl-3-methylimidazolium ethyl sulfate; phases: Liquid mixture 1, Liquid mixture 2
Fixed: Pressure, kPa = 101
Property: Liquid-liquid equilibrium temperature, K (Liquid mixture 1); method: VISOBS:UFactor:32
Mole fraction of 1-ethyl-3-methylimidazolium ethyl sulfate	Liquid-liquid equilibrium temperature, K	uncertainty
0.4858	365.15	6.4
0.5024	360.23	6.4
0.5256	354.01	6.4
0.5351	350.5	6.4
0.5528	343.08	6.4
0.5599	340.66	6.4
0.5679	336.15	6.4
0.576	331.37	6.4
0.5836	327.65	6.4
0.6054	319.05	6.4
0.6107	314.89	6.4
0.618	307.6	6.4
0.6244	299	6.4
0.6305	288.15	6.4

System: 2-hexanone + 1-ethyl-3-methylimidazolium ethyl sulfate; phases: Liquid mixture 1, Liquid mixture 2
Fixed: Pressure, kPa = 101
Property: Liquid-liquid equilibrium temperature, K (Liquid mixture 1); method: VISOBS:UFactor:32
Mole fraction of 1-ethyl-3-methylimidazolium ethyl sulfate	Liquid-liquid equilibrium temperature, K	uncertainty
0.5653	399.55	6.4
0.5988	393.45	6.4
0.6273	383.71	6.4
0.6487	379.93	6.4
0.6646	371.97	6.4
0.6773	367.68	6.4
0.6874	363.41	6.4
0.6957	360.55	6.4
0.7032	354.77	6.4
0.7141	349.05	6.4
0.7212	342.3	6.4
0.7347	334.08	6.4
0.743	328.02	6.4
0.7492	323.11	6.4
0.7545	320.05	6.4
0.7627	314.63	6.4
0.7666	306.66	6.4
0.7818	273.62	6.4

System: 4-heptanone + 1-ethyl-3-methylimidazolium ethyl sulfate; phases: Liquid mixture 1, Liquid mixture 2
Fixed: Pressure, kPa = 101
Property: Liquid-liquid equilibrium temperature, K (Liquid mixture 1); method: VISOBS:UFactor:32
Mole fraction of 1-ethyl-3-methylimidazolium ethyl sulfate	Liquid-liquid equilibrium temperature, K	uncertainty
0.7491	407.38	6.4
0.7961	399.49	6.4
0.8234	392.78	6.4
0.85	383.15	6.4
0.8731	375.15	6.4
0.896	367.71	6.4
0.9082	361.47	6.4
0.9201	353.1	6.4
0.9327	347.2	6.4
0.9423	341.65	6.4
0.9471	331.2	6.4
0.9508	325.36	6.4
0.9605	312.75	6.4
0.9674	306.7	6.4
0.9783	302.15	6.4

System: dibutyl ether + 1-ethyl-3-methylimidazolium ethyl sulfate; phases: Liquid mixture 1, Liquid mixture 2
Fixed: Pressure, kPa = 101
Property: Liquid-liquid equilibrium temperature, K (Liquid mixture 1); method: VISOBS:UFactor:32
Mole fraction of 1-ethyl-3-methylimidazolium ethyl sulfate	Liquid-liquid equilibrium temperature, K	uncertainty
0.9067	408.95	6.4
0.9199	398.66	6.4
0.93	385.58	6.4
0.9427	371.9	6.4
0.948	353.09	6.4
0.9556	344.12	6.4
0.966	334.32	6.4
0.974	327.1	6.4
0.9824	322.77	6.4
0.9865	321.13	6.4
0.9931	316.1	6.4

System: dibutyl ether + 1-ethyl-3-methylimidazolium ethyl sulfate; phases: Liquid mixture 2, Liquid mixture 1
Fixed: Pressure, kPa = 101
Property: Liquid-liquid equilibrium temperature, K (Liquid mixture 2); method: VISOBS:UFactor:32
Mole fraction of 1-ethyl-3-methylimidazolium ethyl sulfate	Liquid-liquid equilibrium temperature, K	uncertainty
0.0029	336.24	6.4
0.004	338.97	6.4

System: 2-methoxy-2-methylpropane + 1-ethyl-3-methylimidazolium ethyl sulfate; phases: Liquid mixture 1, Liquid mixture 2
Fixed: Pressure, kPa = 101
Property: Liquid-liquid equilibrium temperature, K (Liquid mixture 1); method: VISOBS:UFactor:32
Mole fraction of 1-ethyl-3-methylimidazolium ethyl sulfate	Liquid-liquid equilibrium temperature, K	uncertainty
0.793	368.06	6.4
0.8352	345.08	6.4
0.8566	335.33	6.4
0.874	325.47	6.4
0.8795	320.15	6.4
0.8966	308.15	6.4

System: 2-ethoxy-2-methylpropane + 1-ethyl-3-methylimidazolium ethyl sulfate; phases: Liquid mixture 1, Liquid mixture 2
Fixed: Pressure, kPa = 101
Property: Liquid-liquid equilibrium temperature, K (Liquid mixture 1); method: VISOBS:UFactor:32
Mole fraction of 1-ethyl-3-methylimidazolium ethyl sulfate	Liquid-liquid equilibrium temperature, K	uncertainty
0.8095	371.85	6.4
0.8485	357.78	6.4
0.8731	349.34	6.4
0.8916	342.06	6.4
0.9109	331.86	6.4
0.9341	324.01	6.4
0.9451	316.01	6.4
0.9701	305.69	6.4

System: tetrahydrofuran + 1-ethyl-3-methylimidazolium ethyl sulfate; phases: Liquid mixture 1, Liquid mixture 2
Fixed: Pressure, kPa = 101
Property: Liquid-liquid equilibrium temperature, K (Liquid mixture 1); method: VISOBS:UFactor:32
Mole fraction of 1-ethyl-3-methylimidazolium ethyl sulfate	Liquid-liquid equilibrium temperature, K	uncertainty
0.3905	419.29	6.4
0.4211	406.23	6.4
0.4562	385.56	6.4
0.4953	358	6.4
0.5278	347.5	6.4
0.5403	346	6.4
0.5498	341.6	6.4
0.5548	338.4	6.4
0.5587	335.04	6.4
0.5626	330.53	6.4
0.5679	317.78	6.4
0.573	313.75	6.4

System: tetrahydrofuran + 1-ethyl-3-methylimidazolium ethyl sulfate; phases: Liquid mixture 2, Liquid mixture 1
Property: Liquid-liquid equilibrium temperature, K (Liquid mixture 2); method: VISOBS:UFactor:32
Mole fraction of 1-ethyl-3-methylimidazolium ethyl sulfate	Pressure, kPa	Liquid-liquid equilibrium temperature, K	uncertainty
0.0014	101	433.15	6.4

System: dimethyl sulfoxide + 1-ethyl-3-methylimidazolium ethyl sulfate; phases: Liquid, Crystal
Fixed: Pressure, kPa = 101
Property: Solid-liquid equilibrium temperature, K (Liquid); method: VISOBS:UFactor:12
Mole fraction of 1-ethyl-3-methylimidazolium ethyl sulfate	Solid-liquid equilibrium temperature, K	uncertainty
0	291.66	2.4
0.0025	291.4	2.4
0.0107	290.57	2.4
0.0225	289.48	2.4
0.0384	288.14	2.4
0.057	286.89	2.4
0.0771	285.06	2.4
0.094	283.84	2.4
0.1188	281.89	2.4
0.1447	279.96	2.4
0.168	277.93	2.4
0.1931	275.87	2.4
0.222	273.5	2.4
0.2428	271.95	2.4
0.2689	269.98	2.4
0.3057	266.57	2.4
0.3298	264.86	2.4
0.3477	262.92	2.4
0.3589	261.49	2.4
0.3821	258.95	2.4
0.4077	255.85	2.4
0.4283	254.3	2.4
0.4481	252.2	2.4
0.4596	250.52	2.4
