Measured thermophysical data. Excess Enthalpies of Chloroalkylbenzene + Alkylbenzene Mixtures
Source: J. Chem. Eng. Data, 2007, 10.1021/je7002447
Compound 1: benzene, C6H6, InChI=1S/C6H6/c1-2-4-6-5-3-1/h1-6H
Compound 2: toluene, C7H8, InChI=1S/C7H8/c1-7-5-3-2-4-6-7/h2-6H,1H3
Compound 3: ethylbenzene, C8H10, InChI=1S/C8H10/c1-2-8-6-4-3-5-7-8/h3-7H,2H2,1H3
Compound 4: propylbenzene, C9H12, InChI=1S/C9H12/c1-2-6-9-7-4-3-5-8-9/h3-5,7-8H,2,6H2,1H3
Compound 5: butylbenzene, C10H14, InChI=1S/C10H14/c1-2-3-7-10-8-5-4-6-9-10/h4-6,8-9H,2-3,7H2,1H3
Compound 6: chlorobenzene, C6H5Cl, InChI=1S/C6H5Cl/c7-6-4-2-1-3-5-6/h1-5H
Compound 7: (chloromethyl)benzene, C7H7Cl, InChI=1S/C7H7Cl/c8-6-7-4-2-1-3-5-7/h1-5H,6H2
Compound 8: (2-chloroethyl)benzene, C8H9Cl, InChI=1S/C8H9Cl/c9-7-6-8-4-2-1-3-5-8/h1-5H,6-7H2
Compound 9: (3-chloropropyl)benzene, C9H11Cl, InChI=1S/C9H11Cl/c10-8-4-7-9-5-2-1-3-6-9/h1-3,5-6H,4,7-8H2

System: benzene; phases: Liquid
Property: Mass density, kg/m3 (Liquid); method: VIBTUB:UFactor:2
Temperature, K	Pressure, kPa	Mass density, kg/m3	uncertainty
298.15	101.325	873.58	0.17

System: toluene; phases: Liquid
Property: Mass density, kg/m3 (Liquid); method: VIBTUB:UFactor:2
Temperature, K	Pressure, kPa	Mass density, kg/m3	uncertainty
298.15	101.325	862.19	0.18

System: ethylbenzene; phases: Liquid
Property: Mass density, kg/m3 (Liquid); method: VIBTUB:UFactor:6
Temperature, K	Pressure, kPa	Mass density, kg/m3	uncertainty
298.15	101.325	862.55	0.66

System: propylbenzene; phases: Liquid
Property: Mass density, kg/m3 (Liquid); method: VIBTUB:UFactor:8
Temperature, K	Pressure, kPa	Mass density, kg/m3	uncertainty
298.15	101.325	857.62	1.3

System: butylbenzene; phases: Liquid
Property: Mass density, kg/m3 (Liquid); method: VIBTUB:UFactor:6
Temperature, K	Pressure, kPa	Mass density, kg/m3	uncertainty
298.15	101.325	856.29	0.68

System: chlorobenzene; phases: Liquid
Property: Mass density, kg/m3 (Liquid); method: VIBTUB:UFactor:2
Temperature, K	Pressure, kPa	Mass density, kg/m3	uncertainty
298.15	101.325	1101.17	0.16

System: (chloromethyl)benzene; phases: Liquid
Property: Mass density, kg/m3 (Liquid); method: VIBTUB:UFactor:6
Temperature, K	Pressure, kPa	Mass density, kg/m3	uncertainty
298.15	101.325	1094.82	0.65

System: (2-chloroethyl)benzene; phases: Liquid
Property: Mass density, kg/m3 (Liquid); method: VIBTUB:UFactor:6
Temperature, K	Pressure, kPa	Mass density, kg/m3	uncertainty
298.15	101.325	1066.91	0.57

System: (3-chloropropyl)benzene; phases: Liquid
Property: Mass density, kg/m3 (Liquid); method: VIBTUB:UFactor:6
Temperature, K	Pressure, kPa	Mass density, kg/m3	uncertainty
298.15	101.325	1041.84	0.5

System: benzene + chlorobenzene; phases: Liquid
Fixed: Pressure, kPa = 101.3
Fixed: Temperature, K = 298.15
Property: Excess molar enthalpy (molar enthalpy of mixing), kJ/mol (Liquid); method: Flow calorimetry
Mole fraction of chlorobenzene	Excess molar enthalpy (molar enthalpy of mixing), kJ/mol	uncertainty
0.0804	-0.0021	0.0008
0.1272	-0.0028	0.0008
0.1794	-0.0039	0.0008
0.2258	-0.0046	0.0008
0.3043	-0.0051	0.0008
0.3684	-0.0055	0.0008
0.3962	-0.0058	0.0008
0.4666	-0.0057	0.0008
0.5384	-0.0054	0.0008
0.5675	-0.0055	0.0008
0.6363	-0.0049	0.0008
0.6999	-0.0042	0.0008
0.7777	-0.0036	0.0008
0.8235	-0.0031	0.0008
0.8974	-0.0017	0.0008

System: toluene + chlorobenzene; phases: Liquid
Fixed: Pressure, kPa = 101.3
Fixed: Temperature, K = 298.15
Property: Excess molar enthalpy (molar enthalpy of mixing), kJ/mol (Liquid); method: Flow calorimetry
Mole fraction of chlorobenzene	Excess molar enthalpy (molar enthalpy of mixing), kJ/mol	uncertainty
0.1156	-0.0528	0.0024
0.2072	-0.0828	0.0036
0.2584	-0.0944	0.004
0.3433	-0.1094	0.0046
0.4107	-0.114	0.0048
0.5111	-0.1148	0.0048
0.6106	-0.107	0.0045
0.6765	-0.0963	0.0041
0.807	-0.0675	0.0029
0.9127	-0.0334	0.0016

System: ethylbenzene + chlorobenzene; phases: Liquid
Fixed: Pressure, kPa = 101.3
Fixed: Temperature, K = 298.15
Property: Excess molar enthalpy (molar enthalpy of mixing), kJ/mol (Liquid); method: Flow calorimetry
Mole fraction of chlorobenzene	Excess molar enthalpy (molar enthalpy of mixing), kJ/mol	uncertainty
0.1075	-0.0549	0.0025
0.1308	-0.0655	0.0029
0.1671	-0.078	0.0034
0.2864	-0.1153	0.0049
0.3111	-0.1213	0.0051
0.4453	-0.1402	0.0059
0.4745	-0.1449	0.006
0.5463	-0.1426	0.006
0.6436	-0.1261	0.0053
0.7625	-0.1093	0.0046
0.8784	-0.0627	0.0028
0.9233	-0.04	0.0019

System: propylbenzene + chlorobenzene; phases: Liquid
Fixed: Pressure, kPa = 101.3
Fixed: Temperature, K = 298.15
Property: Excess molar enthalpy (molar enthalpy of mixing), kJ/mol (Liquid); method: Flow calorimetry
Mole fraction of chlorobenzene	Excess molar enthalpy (molar enthalpy of mixing), kJ/mol	uncertainty
0.1205	-0.0505	0.0023
0.1859	-0.0678	0.003
0.2551	-0.0883	0.0038
0.3394	-0.102	0.0043
0.4066	-0.1094	0.0046
0.4774	-0.1158	0.0049
0.5781	-0.1093	0.0046
0.6727	-0.1008	0.0043
0.7851	-0.079	0.0034
0.8796	-0.0495	0.0022
0.9164	-0.0327	0.0016

System: butylbenzene + chlorobenzene; phases: Liquid
Fixed: Pressure, kPa = 101.3
Fixed: Temperature, K = 298.15
Property: Excess molar enthalpy (molar enthalpy of mixing), kJ/mol (Liquid); method: Flow calorimetry
Mole fraction of chlorobenzene	Excess molar enthalpy (molar enthalpy of mixing), kJ/mol	uncertainty
0.133	-0.0407	0.0019
0.1609	-0.0482	0.0022
0.2036	-0.0581	0.0026
0.2772	-0.0742	0.0032
0.3383	-0.0834	0.0036
0.4341	-0.0917	0.0039
0.535	-0.0874	0.0037
0.6054	-0.081	0.0035
0.6971	-0.0687	0.003
0.8036	-0.0555	0.0025
0.902	-0.0344	0.0017

System: (chloromethyl)benzene + chlorobenzene; phases: Liquid
Fixed: Pressure, kPa = 101.3
Fixed: Temperature, K = 298.15
Property: Excess molar enthalpy (molar enthalpy of mixing), kJ/mol (Liquid); method: Flow calorimetry
Mole fraction of chlorobenzene	Excess molar enthalpy (molar enthalpy of mixing), kJ/mol	uncertainty
0.1118	0.0601	0.0027
0.2012	0.0901	0.0038
0.2742	0.1025	0.0043
0.335	0.1134	0.0048
0.4304	0.1201	0.0051
0.5312	0.1136	0.0048
0.6018	0.1057	0.0045
0.6939	0.0922	0.0039
0.7514	0.0783	0.0034
0.8193	0.0626	0.0028
0.858	0.0515	0.0023

System: (chloromethyl)benzene + toluene; phases: Liquid
Fixed: Pressure, kPa = 101.3
Fixed: Temperature, K = 298.15
Property: Excess molar enthalpy (molar enthalpy of mixing), kJ/mol (Liquid); method: Flow calorimetry
Mole fraction of (chloromethyl)benzene	Excess molar enthalpy (molar enthalpy of mixing), kJ/mol	uncertainty
0.1036	0.0241	0.0013
0.1877	0.0387	0.0018
0.2574	0.0471	0.0022
0.3161	0.0535	0.0024
0.3813	0.0585	0.0026
0.4803	0.06	0.0027
0.581	0.0555	0.0025
0.649	0.0519	0.0023
0.735	0.0454	0.0021
0.7871	0.0395	0.0019
0.8809	0.0239	0.0013
0.9024	0.0214	0.0012

System: ethylbenzene + (chloromethyl)benzene; phases: Liquid
Fixed: Pressure, kPa = 101.3
Fixed: Temperature, K = 298.15
Property: Excess molar enthalpy (molar enthalpy of mixing), kJ/mol (Liquid); method: Flow calorimetry
Mole fraction of (chloromethyl)benzene	Excess molar enthalpy (molar enthalpy of mixing), kJ/mol	uncertainty
0.0962	0.0523	0.0024
0.1664	0.0757	0.0033
0.2102	0.0874	0.0037
0.2853	0.1013	0.0043
0.4151	0.1176	0.005
0.5156	0.1188	0.005
0.5866	0.1163	0.0049
0.6804	0.1045	0.0044
0.7395	0.0922	0.0039
0.8098	0.0755	0.0033
0.8646	0.0571	0.0025
0.8949	0.0418	0.002

System: (chloromethyl)benzene + propylbenzene; phases: Liquid
Fixed: Pressure, kPa = 101.3
Fixed: Temperature, K = 298.15
Property: Excess molar enthalpy (molar enthalpy of mixing), kJ/mol (Liquid); method: Flow calorimetry
Mole fraction of (chloromethyl)benzene	Excess molar enthalpy (molar enthalpy of mixing), kJ/mol	uncertainty
0.1315	0.1112	0.0047
0.2325	0.1588	0.0066
0.3124	0.1958	0.0081
0.3772	0.2089	0.0086
0.4468	0.2205	0.0091
0.5478	0.2265	0.0094
0.645	0.2027	0.0084
0.7079	0.1852	0.0077
0.7842	0.1438	0.006
0.8289	0.1025	0.0043
0.8791	0.0855	0.0037
0.9065	0.0643	0.0028

System: (chloromethyl)benzene + butylbenzene; phases: Liquid
Fixed: Pressure, kPa = 101.3
Fixed: Temperature, K = 298.15
Property: Excess molar enthalpy (molar enthalpy of mixing), kJ/mol (Liquid); method: Flow calorimetry
Mole fraction of (chloromethyl)benzene	Excess molar enthalpy (molar enthalpy of mixing), kJ/mol	uncertainty
0.1194	0.138	0.0058
0.145	0.1683	0.007
0.2028	0.2012	0.0083
0.2532	0.2493	0.0103
0.3114	0.2774	0.0114
0.4041	0.3055	0.0126
0.5043	0.3189	0.0131
0.5756	0.3147	0.0129
0.6439	0.2979	0.0122
0.7307	0.2589	0.0107
0.7834	0.2186	0.009
0.8444	0.173	0.0072
0.8906	0.1231	0.0052
0.9313	0.0852	0.0037

System: benzene + (2-chloroethyl)benzene; phases: Liquid
Fixed: Pressure, kPa = 101.3
Fixed: Temperature, K = 298.15
Property: Excess molar enthalpy (molar enthalpy of mixing), kJ/mol (Liquid); method: Flow calorimetry
Mole fraction of (2-chloroethyl)benzene	Excess molar enthalpy (molar enthalpy of mixing), kJ/mol	uncertainty
0.1016	0.0309	0.0015
0.145	0.0375	0.0018
0.2028	0.044	0.002
0.3115	0.0479	0.0022
0.4042	0.0469	0.0021
0.5044	0.0418	0.002
0.5757	0.0358	0.0017
0.6706	0.0287	0.0015
0.7308	0.0243	0.0013
0.8028	0.0197	0.0012
0.8444	0.0148	0.001

System: toluene + (2-chloroethyl)benzene; phases: Liquid
Fixed: Pressure, kPa = 101.3
Fixed: Temperature, K = 298.15
Property: Excess molar enthalpy (molar enthalpy of mixing), kJ/mol (Liquid); method: Flow calorimetry
Mole fraction of (2-chloroethyl)benzene	Excess molar enthalpy (molar enthalpy of mixing), kJ/mol	uncertainty
0.075	-0.0003	0.0008
0.092	0	0.001
0.1686	0.0008	0.0008
0.2332	0.0021	0.0008
0.2885	0.0027	0.0008
0.3782	0.0046	0.0008
0.4478	0.0055	0.0008
0.5195	0.007	0.0008
0.5488	0.0074	0.0008
0.6186	0.0079	0.0008
0.6838	0.0077	0.0008
0.7643	0.0073	0.0008
0.8122	0.0068	0.0008
0.8439	0.0061	0.0008
0.8902	0.0048	0.0008
0.9068	0.0041	0.0008

System: ethylbenzene + (2-chloroethyl)benzene; phases: Liquid
Fixed: Pressure, kPa = 101.3
Fixed: Temperature, K = 298.15
Property: Excess molar enthalpy (molar enthalpy of mixing), kJ/mol (Liquid); method: Flow calorimetry
Mole fraction of (2-chloroethyl)benzene	Excess molar enthalpy (molar enthalpy of mixing), kJ/mol	uncertainty
0.105	0.0334	0.0016
0.19	0.0502	0.0023
0.2603	0.062	0.0027
0.3194	0.0757	0.0033
0.3849	0.0799	0.0034
0.4841	0.0847	0.0036
0.5847	0.0809	0.0035
0.6524	0.0771	0.0033
0.7379	0.0665	0.0029
0.7897	0.0601	0.0027
0.8825	0.0348	0.0017
0.9037	0.0268	0.0014

System: propylbenzene + (2-chloroethyl)benzene; phases: Liquid
Fixed: Pressure, kPa = 101.3
Fixed: Temperature, K = 298.15
Property: Excess molar enthalpy (molar enthalpy of mixing), kJ/mol (Liquid); method: Flow calorimetry
Mole fraction of (2-chloroethyl)benzene	Excess molar enthalpy (molar enthalpy of mixing), kJ/mol	uncertainty
0.1173	0.0724	0.0031
0.1375	0.0783	0.0034
0.1662	0.0925	0.0039
0.2099	0.1112	0.0047
0.285	0.138	0.0058
0.347	0.1522	0.0063
0.4147	0.1646	0.0068
0.4436	0.1693	0.007
0.5152	0.1718	0.0071
0.5863	0.1692	0.007
0.6145	0.1624	0.0068
0.6801	0.1544	0.0064
0.7392	0.1334	0.0056
0.8096	0.1104	0.0047
0.85	0.093	0.004
0.914	0.0577	0.0026

System: butylbenzene + (2-chloroethyl)benzene; phases: Liquid
Fixed: Pressure, kPa = 101.3
Fixed: Temperature, K = 298.15
Property: Excess molar enthalpy (molar enthalpy of mixing), kJ/mol (Liquid); method: Flow calorimetry
Mole fraction of (2-chloroethyl)benzene	Excess molar enthalpy (molar enthalpy of mixing), kJ/mol	uncertainty
0.1063	0.0994	0.0042
0.1295	0.117	0.0049
0.1655	0.1435	0.006
0.2293	0.1853	0.0077
0.3085	0.2174	0.009
0.373	0.2359	0.0097
0.4424	0.2528	0.0104
0.4716	0.2541	0.0105
0.5434	0.2551	0.0105
0.6134	0.2479	0.0102
0.7041	0.2258	0.0093
0.7604	0.1994	0.0083
0.8264	0.1599	0.0067
0.8639	0.1317	0.0055
0.9225	0.0817	0.0035

System: benzene + (3-chloropropyl)benzene; phases: Liquid
Fixed: Pressure, kPa = 101.3
Fixed: Temperature, K = 298.15
Property: Excess molar enthalpy (molar enthalpy of mixing), kJ/mol (Liquid); method: Flow calorimetry
Mole fraction of (3-chloropropyl)benzene	Excess molar enthalpy (molar enthalpy of mixing), kJ/mol	uncertainty
0.0913	-0.0096	0.0009
0.1843	-0.02	0.0012
0.2316	-0.0229	0.0013
0.3113	-0.03	0.0015
0.376	-0.0344	0.0017
0.4455	-0.0363	0.0017
0.5466	-0.0363	0.0017
0.6164	-0.0343	0.0017
0.7068	-0.0295	0.0015
0.7834	-0.0238	0.0013
0.8282	-0.0199	0.0012
0.8577	-0.0174	0.0011

System: (3-chloropropyl)benzene + toluene; phases: Liquid
Fixed: Pressure, kPa = 101.3
Fixed: Temperature, K = 298.15
Property: Excess molar enthalpy (molar enthalpy of mixing), kJ/mol (Liquid); method: Flow calorimetry
Mole fraction of (3-chloropropyl)benzene	Excess molar enthalpy (molar enthalpy of mixing), kJ/mol	uncertainty
0.1072	-0.0523	0.0024
0.1526	-0.069	0.003
0.1936	-0.0816	0.0035
0.2648	-0.0969	0.0041
0.3244	-0.1058	0.0045
0.3507	-0.1058	0.0045
0.4187	-0.1136	0.0048
0.4899	-0.1083	0.0046
0.5193	-0.1069	0.0045
0.5903	-0.1016	0.0043
0.6576	-0.0911	0.0039
0.6836	-0.0857	0.0037
0.7423	-0.0752	0.0033
0.8121	-0.0571	0.0025
0.8781	-0.0369	0.0018

System: ethylbenzene + (3-chloropropyl)benzene; phases: Liquid
Fixed: Pressure, kPa = 101.3
Fixed: Temperature, K = 298.15
Property: Excess molar enthalpy (molar enthalpy of mixing), kJ/mol (Liquid); method: Flow calorimetry
Mole fraction of (3-chloropropyl)benzene	Excess molar enthalpy (molar enthalpy of mixing), kJ/mol	uncertainty
0.0766	-0.0197	0.0012
0.1214	-0.0289	0.0015
0.1717	-0.0373	0.0018
0.2372	-0.0432	0.002
0.2931	-0.0464	0.0021
0.3835	-0.0504	0.0023
0.4534	-0.0504	0.0023
0.5251	-0.0491	0.0022
0.5544	-0.0476	0.0022
0.6239	-0.0431	0.002
0.7133	-0.0348	0.0017
0.7684	-0.0301	0.0015
0.8327	-0.0217	0.0012
0.8924	-0.014	0.001

System: propylbenzene + (3-chloropropyl)benzene; phases: Liquid
Fixed: Pressure, kPa = 101.3
Fixed: Temperature, K = 298.15
Property: Excess molar enthalpy (molar enthalpy of mixing), kJ/mol (Liquid); method: Flow calorimetry
Mole fraction of (3-chloropropyl)benzene	Excess molar enthalpy (molar enthalpy of mixing), kJ/mol	uncertainty
0.0863	0.0037	0.0008
0.136	0.0066	0.0008
0.191	0.0092	0.0009
0.2394	0.0116	0.0009
0.3207	0.0137	0.001
0.3863	0.0164	0.0011
0.4145	0.0172	0.0011
0.4856	0.0186	0.0011
0.5573	0.0195	0.0012
0.5861	0.0194	0.0012
0.6538	0.0194	0.0012
0.7157	0.0177	0.0011
0.7391	0.0179	0.0011
0.7906	0.0158	0.001
0.8343	0.013	0.001
0.9042	0.009	0.0009
0.9189	0.008	0.0008

System: butylbenzene + (3-chloropropyl)benzene; phases: Liquid
Fixed: Pressure, kPa = 101.3
Fixed: Temperature, K = 298.15
Property: Excess molar enthalpy (molar enthalpy of mixing), kJ/mol (Liquid); method: Flow calorimetry
Mole fraction of (3-chloropropyl)benzene	Excess molar enthalpy (molar enthalpy of mixing), kJ/mol	uncertainty
0.1167	0.0307	0.0015
0.209	0.0593	0.0026
0.2605	0.0699	0.003
0.3458	0.0824	0.0035
0.4134	0.0902	0.0039
0.5138	0.0948	0.004
0.5849	0.0932	0.004
0.6132	0.0896	0.0038
0.6789	0.0809	0.0035
0.7381	0.0718	0.0031
0.8087	0.0573	0.0026
0.9136	0.0314	0.0016
