Measured thermophysical data. Excess Enthalpy, Density, and Speed of Sound for the Mixtures a-Pinene + 2-Methyl-1-propanol or 2-Methyl-2-propanol at Several Temperatures
Source: J. Chem. Eng. Data, 2007, 10.1021/je700193w
Compound 1: .beta.-pinene, C10H16, InChI=1S/C10H16/c1-7-4-5-8-6-9(7)10(8,2)3/h8-9H,1,4-6H2,2-3H3
Compound 2: 2-methyl-1-propanol, C4H10O, InChI=1S/C4H10O/c1-4(2)3-5/h4-5H,3H2,1-2H3
Compound 3: 2-methylpropan-2-ol, C4H10O, InChI=1S/C4H10O/c1-4(2,3)5/h5H,1-3H3

System: .beta.-pinene; phases: Liquid
Fixed: Pressure, kPa = 101.325
Property: Speed of sound, m/s (Liquid); method: FPINT:UFactor:6
Temperature, K	Speed of sound, m/s	uncertainty
283.15	1354.7	5.4
298.15	1295.1	5.2
303.15	1278.6	5.1
313.15	1236.3	5
323.15	1200.7	4.9

System: .beta.-pinene; phases: Liquid
Fixed: Pressure, kPa = 101.325
Property: Mass density, kg/m3 (Liquid); method: VIBTUB:UFactor:4
Temperature, K	Mass density, kg/m3	uncertainty
283.15	879.07	0.61
298.15	867.11	0.63
303.15	863.17	0.63
313.15	854.87	0.65
323.15	846.75	0.66

System: 2-methyl-1-propanol; phases: Liquid
Fixed: Pressure, kPa = 101.325
Property: Speed of sound, m/s (Liquid); method: FPINT:UFactor:6
Temperature, K	Speed of sound, m/s	uncertainty
283.15	1238.7	5
298.15	1188	4.9
303.15	1174.3	4.8
313.15	1138	4.7
323.15	1108.2	4.6

System: 2-methyl-1-propanol; phases: Liquid
Fixed: Pressure, kPa = 101.325
Property: Mass density, kg/m3 (Liquid); method: VIBTUB:UFactor:4
Temperature, K	Mass density, kg/m3	uncertainty
283.15	809.36	0.72
298.15	798.03	0.74
303.15	794.17	0.75
313.15	786.1	0.76
323.15	777.85	0.77

System: 2-methylpropan-2-ol; phases: Liquid
Fixed: Pressure, kPa = 101.325
Property: Speed of sound, m/s (Liquid); method: FPINT:UFactor:6
Temperature, K	Speed of sound, m/s	uncertainty
303.15	1101.9	4.6
313.15	1056.4	4.5
323.15	1015.9	4.4

System: 2-methylpropan-2-ol; phases: Liquid
Fixed: Pressure, kPa = 101.325
Property: Mass density, kg/m3 (Liquid); method: VIBTUB:UFactor:4
Temperature, K	Mass density, kg/m3	uncertainty
303.15	775.75	0.78
313.15	765.05	0.8
323.15	754.12	0.81

System: 2-methyl-1-propanol + .beta.-pinene; phases: Liquid
Fixed: Pressure, kPa = 101
Property: Excess molar enthalpy (molar enthalpy of mixing), kJ/mol (Liquid); method: FLOW:UFactor:4
Temperature, K	Mole fraction of .beta.-pinene	Excess molar enthalpy (molar enthalpy of mixing), kJ/mol	uncertainty
283.15	0.0529	0.066	0.007
283.15	0.109	0.128	0.008
283.15	0.2159	0.253	0.011
283.15	0.3175	0.356	0.014
283.15	0.4299	0.45	0.017
283.15	0.5331	0.517	0.019
283.15	0.6229	0.543	0.02
283.15	0.7198	0.53	0.02
283.15	0.8249	0.464	0.018
283.15	0.9096	0.352	0.014
283.15	0.9686	0.281	0.012
298.15	0.0529	0.091	0.007
298.15	0.109	0.184	0.01
298.15	0.2159	0.352	0.014
298.15	0.3175	0.481	0.018
298.15	0.4299	0.588	0.021
298.15	0.5331	0.653	0.023
298.15	0.6229	0.675	0.024
298.15	0.7198	0.637	0.023
298.15	0.8249	0.549	0.02
298.15	0.9096	0.422	0.016
298.15	0.9686	0.36	0.014
303.15	0.0529	0.115	0.009
303.15	0.109	0.237	0.011
303.15	0.2159	0.484	0.019
303.15	0.3175	0.643	0.023
303.15	0.4299	0.772	0.027
303.15	0.5331	0.835	0.029
303.15	0.6229	0.853	0.03
303.15	0.7198	0.798	0.028
303.15	0.8249	0.677	0.024
303.15	0.9096	0.518	0.019
303.15	0.9686	0.429	0.017
313.15	0.0529	0.149	0.01
313.15	0.109	0.311	0.014
313.15	0.2159	0.59	0.022
313.15	0.3175	0.781	0.027
313.15	0.4299	0.926	0.032
313.15	0.5331	0.999	0.034
313.15	0.6229	1.011	0.034
313.15	0.7198	0.943	0.032
313.15	0.8249	0.804	0.028
313.15	0.9096	0.615	0.023
313.15	0.9686	0.515	0.019
323.15	0.0529	0.184	0.011
323.15	0.109	0.351	0.015
323.15	0.2159	0.68	0.025
323.15	0.3175	0.899	0.031
323.15	0.4299	1.039	0.035
323.15	0.5331	1.143	0.039
323.15	0.6229	1.147	0.039
323.15	0.7198	1.067	0.036
323.15	0.8249	0.919	0.032
323.15	0.9096	0.707	0.025
323.15	0.9686	0.588	0.022

System: 2-methyl-1-propanol + .beta.-pinene; phases: Liquid
Fixed: Pressure, kPa = 101
Property: Speed of sound, m/s (Liquid); method: FPINT:UFactor:6
Temperature, K	Mole fraction of .beta.-pinene	Speed of sound, m/s	uncertainty
283.15	0.0566	1248.3	5.1
283.15	0.1066	1257.1	5.1
283.15	0.2011	1270.2	5.1
283.15	0.2931	1281.1	5.2
283.15	0.395	1292.2	5.2
283.15	0.4928	1302	5.2
283.15	0.6112	1313.9	5.3
283.15	0.6906	1321.1	5.3
283.15	0.7939	1330.7	5.3
283.15	0.8682	1337.7	5.3
283.15	0.9393	1346.2	5.3
298.15	0.0481	1195.7	4.9
298.15	0.1107	1203.9	4.9
298.15	0.201	1214.9	5
298.15	0.2969	1225.1	5
298.15	0.4002	1235.2	5
298.15	0.4896	1243.9	5
298.15	0.5856	1252.2	5.1
298.15	0.6785	1260.4	5.1
298.15	0.7841	1270.1	5.1
298.15	0.8875	1280.4	5.2
298.15	0.933	1285.2	5.2
303.15	0.0505	1181.7	4.9
303.15	0.1044	1188.4	4.9
303.15	0.2023	1200.2	4.9
303.15	0.2999	1210.6	4.9
303.15	0.3929	1219.2	5
303.15	0.4877	1227.7	5
303.15	0.6108	1238.3	5
303.15	0.6829	1244.6	5.1
303.15	0.7908	1254.4	5.1
303.15	0.8846	1263.9	5.1
303.15	0.9299	1268.9	5.1
313.15	0.0401	1143.3	4.7
313.15	0.1042	1150.9	4.8
313.15	0.2004	1160.9	4.8
313.15	0.3012	1170.6	4.8
313.15	0.3902	1178.2	4.9
313.15	0.51	1187.7	4.9
313.15	0.6202	1196.8	4.9
313.15	0.6847	1202.2	4.9
313.15	0.7768	1210.2	4.9
313.15	0.8969	1222.1	5
313.15	0.9601	1230.5	5
323.15	0.0547	1114.2	4.7
323.15	0.1021	1119.3	4.7
323.15	0.207	1129.4	4.7
323.15	0.2989	1136.8	4.7
323.15	0.4024	1144.6	4.8
323.15	0.5041	1152.7	4.8
323.15	0.6074	1160.6	4.8
323.15	0.6965	1167.7	4.8
323.15	0.8063	1177.1	4.8
323.15	0.8887	1184.7	4.9
323.15	0.9618	1192.6	4.9

System: 2-methyl-1-propanol + .beta.-pinene; phases: Liquid
Fixed: Pressure, kPa = 101
Property: Mass density, kg/m3 (Liquid); method: VIBTUB:UFactor:4
Temperature, K	Mole fraction of .beta.-pinene	Mass density, kg/m3	uncertainty
283.15	0.0566	815.77	0.7
283.15	0.1066	820.99	0.69
283.15	0.2011	829.88	0.68
283.15	0.2931	837.56	0.67
283.15	0.395	845.26	0.66
283.15	0.4928	851.82	0.65
283.15	0.6112	859.03	0.63
283.15	0.6906	863.45	0.63
283.15	0.7939	868.88	0.62
283.15	0.8682	872.61	0.61
283.15	0.9393	876.05	0.61
298.15	0.0481	803.39	0.72
298.15	0.1107	809.85	0.71
298.15	0.201	818.16	0.7
298.15	0.2969	826.03	0.69
298.15	0.4002	833.57	0.67
298.15	0.4896	839.51	0.67
298.15	0.5856	845.33	0.66
298.15	0.6785	850.56	0.65
298.15	0.7841	856.21	0.64
298.15	0.8875	861.41	0.63
298.15	0.933	863.62	0.63
303.15	0.0505	799.78	0.73
303.15	0.1044	805.23	0.72
303.15	0.2023	814.23	0.71
303.15	0.2999	822.12	0.69
303.15	0.3929	828.94	0.68
303.15	0.4877	835.22	0.67
303.15	0.6108	842.66	0.66
303.15	0.6829	846.72	0.65
303.15	0.7908	852.45	0.64
303.15	0.8846	857.17	0.64
303.15	0.9299	859.39	0.63
313.15	0.0401	790.45	0.74
313.15	0.1042	796.91	0.73
313.15	0.2004	805.6	0.7
313.15	0.3012	813.68	0.71
313.15	0.3902	820.11	0.7
313.15	0.51	827.98	0.68
313.15	0.6202	834.55	0.67
313.15	0.6847	838.19	0.67
313.15	0.7768	843.06	0.66
313.15	0.8969	849.21	0.65
313.15	0.9601	852.46	0.64
323.15	0.0547	783.66	0.76
323.15	0.1021	788.33	0.75
323.15	0.207	797.66	0.73
323.15	0.2989	804.85	0.72
323.15	0.4024	812.32	0.71
323.15	0.5041	818.98	0.7
323.15	0.6074	825.2	0.69
323.15	0.6965	830.27	0.68
323.15	0.8063	836.02	0.67
323.15	0.8887	840.5	0.66
323.15	0.9618	844.41	0.66

System: 2-methylpropan-2-ol + .beta.-pinene; phases: Liquid
Fixed: Pressure, kPa = 101
Property: Excess molar enthalpy (molar enthalpy of mixing), kJ/mol (Liquid); method: FLOW:UFactor:4
Temperature, K	Mole fraction of .beta.-pinene	Excess molar enthalpy (molar enthalpy of mixing), kJ/mol	uncertainty
303.15	0.0529	0.234	0.012
303.15	0.109	0.426	0.017
303.15	0.2159	0.679	0.024
303.15	0.3175	0.805	0.028
303.15	0.4299	0.827	0.029
303.15	0.5331	0.84	0.029
303.15	0.6229	0.812	0.028
303.15	0.7198	0.732	0.026
303.15	0.8249	0.626	0.023
303.15	0.9096	0.476	0.019
303.15	0.9686	0.237	0.013
313.15	0.0529	0.225	0.011
313.15	0.109	0.434	0.018
313.15	0.2159	0.747	0.027
313.15	0.3175	0.906	0.031
313.15	0.4299	0.957	0.033
313.15	0.5331	0.995	0.034
313.15	0.6229	0.982	0.034
313.15	0.7198	0.921	0.032
313.15	0.8249	0.768	0.027
313.15	0.9096	0.58	0.022
313.15	0.9686	0.26	0.016
323.15	0.0529	0.426	0.017
323.15	0.109	0.591	0.022
323.15	0.2159	0.842	0.029
323.15	0.3175	0.987	0.034
323.15	0.4299	1.052	0.036
323.15	0.5331	1.101	0.037
323.15	0.6229	1.095	0.037
323.15	0.7198	1.038	0.035
323.15	0.8249	0.832	0.029
323.15	0.9096	0.616	0.024
323.15	0.9686	0.221	0.017

System: 2-methylpropan-2-ol + .beta.-pinene; phases: Liquid
Fixed: Pressure, kPa = 101
Property: Speed of sound, m/s (Liquid); method: FPINT:UFactor:6
Temperature, K	Mole fraction of .beta.-pinene	Speed of sound, m/s	uncertainty
303.15	0.0534	1110	4.7
303.15	0.1048	1118.6	4.7
303.15	0.2017	1135.6	4.7
303.15	0.2814	1150.6	4.8
303.15	0.4041	1173.7	4.8
303.15	0.5042	1192.6	4.9
303.15	0.6025	1210.5	5
303.15	0.7042	1228.3	5
303.15	0.8048	1244.8	5.1
303.15	0.9007	1260.2	5.1
303.15	0.9495	1268.7	5.1
313.15	0.0561	1066.4	4.5
313.15	0.108	1076	4.6
313.15	0.2041	1094.3	4.6
313.15	0.2996	1112.7	4.7
313.15	0.4028	1132.3	4.7
313.15	0.5039	1151	4.8
313.15	0.5964	1167.1	4.8
313.15	0.6957	1183.8	4.9
313.15	0.7979	1201.1	4.9
313.15	0.893	1216.7	5
313.15	0.9475	1226.2	5
323.15	0.0554	1027.2	4.4
323.15	0.1025	1036.7	4.4
323.15	0.2016	1056.6	4.5
323.15	0.3022	1076.4	4.6
323.15	0.3988	1095.2	4.6
323.15	0.5053	1115.2	4.7
323.15	0.5996	1132.3	4.7
323.15	0.7001	1149.5	4.8
323.15	0.799	1165.8	4.8
323.15	0.8861	1180.1	4.9
323.15	0.9367	1188.6	4.9

System: 2-methylpropan-2-ol + .beta.-pinene; phases: Liquid
Fixed: Pressure, kPa = 101
Property: Mass density, kg/m3 (Liquid); method: VIBTUB:UFactor:4
Temperature, K	Mole fraction of .beta.-pinene	Mass density, kg/m3	uncertainty
303.15	0.0534	782.04	0.76
303.15	0.1048	787.79	0.75
303.15	0.2017	798.21	0.73
303.15	0.2814	806.31	0.72
303.15	0.4041	817.92	0.7
303.15	0.5042	826.75	0.69
303.15	0.6025	834.76	0.67
303.15	0.7042	842.46	0.66
303.15	0.8048	849.62	0.65
303.15	0.9007	856.11	0.64
303.15	0.9495	859.38	0.63
313.15	0.0561	771.94	0.77
313.15	0.108	777.84	0.76
313.15	0.2041	788.5	0.75
313.15	0.2996	798.32	0.73
313.15	0.4028	808.25	0.72
313.15	0.5039	817.37	0.7
313.15	0.5964	825.06	0.69
313.15	0.6957	832.77	0.68
313.15	0.7979	840.16	0.66
313.15	0.893	846.86	0.65
313.15	0.9475	850.67	0.65
323.15	0.0554	761.34	0.79
323.15	0.1025	766.94	0.78
323.15	0.2032	778.49	0.76
323.15	0.3022	788.82	0.75
323.15	0.3988	798.4	0.73
323.15	0.5053	808.25	0.72
323.15	0.5996	816.33	0.7
323.15	0.7001	824.27	0.69
323.15	0.7941	831.23	0.68
323.15	0.8905	838.16	0.67
323.15	0.9453	842.1	0.66
