Measured thermophysical data. Solubility of KCl and MgCl2 in Binary Solvents Formed by Acetone and Water in the Temperature Range between (293.15 and 323.15) K
Source: J. Chem. Eng. Data, 2007, 10.1021/je700017b
Compound 1: potassium chloride, ClK, InChI=1S/ClH.K/h1H;/q;+1/p-1
Compound 2: water, H2O, InChI=1S/H2O/h1H2
Compound 3: magnesium chloride, Cl2Mg, InChI=1S/2ClH.Mg/h2*1H;/q;;+2/p-2
Compound 4: acetone, C3H6O, InChI=1S/C3H6O/c1-3(2)4/h1-2H3

System: potassium chloride + water; phases: Liquid, Crystal
Fixed: Pressure, kPa = 101
Property: Mass fraction of potassium chloride (Liquid); method: isothermal method
Temperature, K	Mass fraction of potassium chloride	uncertainty
293.15	0.25603	0.00127
298.15	0.26375	0.00131
303.15	0.27196	0.00136
308.15	0.27957	0.0014
313.15	0.28735	0.00144
318.15	0.29398	0.00148
323.15	0.30149	0.00152

System: water + magnesium chloride; phases: Liquid, Crystal
Fixed: Pressure, kPa = 101
Property: Mass fraction of magnesium chloride (Liquid); method: isothermal method
Temperature, K	Mass fraction of magnesium chloride	uncertainty
293.15	0.35428	0.00183
298.15	0.35632	0.00185
303.15	0.35924	0.00187
308.15	0.36237	0.00189
313.15	0.36546	0.00191
318.15	0.36912	0.00193
323.15	0.37251	0.00195

System: acetone + potassium chloride + water; phases: Liquid, Crystal
Fixed: Pressure, kPa = 101
Property: Mass fraction of potassium chloride (Liquid); method: isothermal method
Temperature, K	Mass fraction of acetone	Mass fraction of potassium chloride	uncertainty
293.15	0	0.25603	0.00127
293.15	0.03772	0.23512	0.00115
293.15	0.07551	0.21589	0.00105
293.15	0.15945	0.17591	0.00085
293.15	0.2513	0.1368	0.00066
313.15	0	0.28735	0.00144
313.15	0.03622	0.26684	0.00133
313.15	0.07259	0.24811	0.00122
313.15	0.1538	0.20814	0.00101
313.15	0.25524	0.1609	0.00077

System: acetone + water + magnesium chloride; phases: Liquid, Crystal
Fixed: Pressure, kPa = 101
Property: Mass fraction of magnesium chloride (Liquid); method: isothermal method
Temperature, K	Mass fraction of acetone	Mass fraction of magnesium chloride	uncertainty
293.15	0	0.35428	0.00183
293.15	0.03645	0.34738	0.00179
293.15	0.05244	0.34413	0.00177
293.15	0.07485	0.34043	0.00175
293.15	0.09952	0.33513	0.00172
293.15	0.12087	0.33189	0.0017
293.15	0.14268	0.327	0.00167
293.15	0.1691	0.32172	0.00163
293.15	0.20154	0.31605	0.0016
293.15	0.24387	0.3083	0.00155
303.15	0	0.35924	0.00187
303.15	0.03499	0.35249	0.00182
303.15	0.04942	0.35023	0.00181
303.15	0.07168	0.34538	0.00178
303.15	0.09503	0.34469	0.005
303.15	0.11772	0.3374	0.00173
303.15	0.13925	0.33312	0.0017
303.15	0.1615	0.32937	0.00168
303.15	0.19253	0.32338	0.00164
303.15	0.23379	0.31544	0.0016
313.15	0	0.3654	0.00191
313.15	0.03337	0.35916	0.00187
313.15	0.04689	0.35634	0.00185
313.15	0.0684	0.35223	0.00182
313.15	0.09126	0.34814	0.0018
313.15	0.11294	0.34456	0.00177
313.15	0.13563	0.34044	0.00175
313.15	0.15345	0.338	0.00173
313.15	0.18404	0.33039	0.00169
313.15	0.2247	0.32345	0.00165
318.15	0	0.36912	0.00193
318.15	0.03216	0.36293	0.00189
318.15	0.04426	0.36076	0.00188
318.15	0.06678	0.35664	0.00185
318.15	0.09014	0.35208	0.00182
318.15	0.1082	0.34897	0.0018
318.15	0.1329	0.34427	0.00177
318.15	0.14743	0.34207	0.00176
318.15	0.18145	0.33533	0.00172
318.15	0.21682	0.32931	0.00168
323.15	0	0.37251	0.00195
323.15	0.03153	0.36598	0.00191
323.15	0.04251	0.36476	0.0019
323.15	0.06501	0.36027	0.00187
323.15	0.08742	0.35666	0.00185
323.15	0.10472	0.3532	0.00183
323.15	0.13006	0.34903	0.0018
323.15	0.14	0.34603	0.00178
323.15	0.17857	0.33972	0.00174
323.15	0.21003	0.33427	0.00171
