Measured thermophysical data. Volumetric Properties and Viscosities of Binary Mixtures of N,N-Dimethylformamide with Methanol and Ethanol in the Temperature Range (293.15 to 333.15) K
Source: J. Chem. Eng. Data, 2008, 10.1021/je700430g
Compound 1: methanol, CH4O, InChI=1S/CH4O/c1-2/h2H,1H3
Compound 2: ethanol, C2H6O, InChI=1S/C2H6O/c1-2-3/h3H,2H2,1H3
Compound 3: dimethylformamide, C3H7NO, InChI=1S/C3H7NO/c1-4(2)3-5/h3H,1-2H3

System: methanol; phases: Liquid
Fixed: Pressure, kPa = 101
Property: Viscosity, Pa*s (Liquid); method: CAPTUB::UFactor:2
Temperature, K	Viscosity, Pa*s	uncertainty
293.15	0.000587	1e-05
298.15	0.000547	9e-06
303.15	0.00051	9e-06
313.15	0.000447	9e-06
323.15	0.000394	8e-06

System: methanol; phases: Liquid
Fixed: Pressure, kPa = 101
Property: Mass density, kg/m3 (Liquid); method: VIBTUB::UFactor:4
Temperature, K	Mass density, kg/m3	uncertainty
293.15	791.51	0.49
298.15	786.82	0.5
303.15	782.06	0.51
313.15	772.72	0.52
323.15	763.22	0.54

System: ethanol; phases: Liquid
Fixed: Pressure, kPa = 101
Property: Viscosity, Pa*s (Liquid); method: CAPTUB::UFactor:2
Temperature, K	Viscosity, Pa*s	uncertainty
293.15	0.001222	1.6e-05
298.15	0.001109	1.5e-05
303.15	0.001009	1.4e-05
313.15	0.00084	1.2e-05
323.15	0.000705	1.1e-05
333.15	0.000597	1e-05

System: ethanol; phases: Liquid
Fixed: Pressure, kPa = 101
Property: Mass density, kg/m3 (Liquid); method: VIBTUB::UFactor:4
Temperature, K	Mass density, kg/m3	uncertainty
293.15	789.85	0.48
298.15	785.62	0.49
303.15	781.31	0.5
313.15	772.56	0.51
323.15	763.67	0.52
333.15	754.53	0.54

System: dimethylformamide; phases: Liquid
Fixed: Pressure, kPa = 101
Property: Viscosity, Pa*s (Liquid); method: CAPTUB:UFactor:2
Temperature, K	Viscosity, Pa*s	uncertainty
293.15	0.000863	1.2e-05
298.15	0.000808	1.1e-05
303.15	0.00076	1.1e-05
313.15	0.000675	1e-05
323.15	0.000608	1e-05
333.15	0.000549	9e-06

System: dimethylformamide; phases: Liquid
Fixed: Pressure, kPa = 101
Property: Mass density, kg/m3 (Liquid); method: VIBTUB:UFactor:4
Temperature, K	Mass density, kg/m3	uncertainty
293.15	948.95	0.22
298.15	944.21	0.22
303.15	939.45	0.23
313.15	929.86	0.24
323.15	920.92	0.25
333.15	910.64	0.27

System: methanol + dimethylformamide; phases: Liquid
Fixed: Pressure, kPa = 101
Property: Viscosity, Pa*s (Liquid); method: CAPTUB:UFactor:2
Temperature, K	Mole fraction of methanol	Viscosity, Pa*s	uncertainty
293.15	0	0.000863	1.2e-05
293.15	0.0998	0.000835	1.2e-05
293.15	0.2	0.000809	1.1e-05
293.15	0.3	0.000782	1.1e-05
293.15	0.4002	0.000754	1.1e-05
293.15	0.5	0.000723	1.1e-05
293.15	0.6	0.000693	1e-05
293.15	0.6997	0.000665	1e-05
293.15	0.8	0.00064	1e-05
293.15	0.8998	0.000613	1e-05
293.15	1	0.000587	1e-05
298.15	0	0.000808	1.1e-05
298.15	0.0998	0.000782	1.1e-05
298.15	0.2	0.000758	1.1e-05
298.15	0.3	0.000734	1.1e-05
298.15	0.4002	0.000705	1.1e-05
298.15	0.5	0.000678	1e-05
298.15	0.6	0.000649	1e-05
298.15	0.6997	0.000622	1e-05
298.15	0.8	0.000596	1e-05
298.15	0.8998	0.000572	1e-05
298.15	1	0.000547	9e-06
303.15	0	0.00076	1.1e-05
303.15	0.0998	0.000736	1.1e-05
303.15	0.2	0.000713	1.1e-05
303.15	0.3	0.000688	1e-05
303.15	0.4002	0.000663	1e-05
303.15	0.5	0.000636	1e-05
303.15	0.6	0.000608	1e-05
303.15	0.6997	0.000584	1e-05
303.15	0.8	0.000559	9e-06
303.15	0.8998	0.000534	9e-06
303.15	1	0.00051	9e-06
313.15	0	0.000675	1e-05
313.15	0.0998	0.000655	1e-05
313.15	0.2	0.000635	1e-05
313.15	0.3	0.000612	1e-05
313.15	0.4002	0.000589	1e-05
313.15	0.5	0.000565	9e-06
313.15	0.6	0.00054	9e-06
313.15	0.6997	0.000517	9e-06
313.15	0.8	0.000493	9e-06
313.15	0.8998	0.00047	9e-06
313.15	1	0.000447	9e-06
323.15	0	0.000608	1e-05
323.15	0.0998	0.000588	1e-05
323.15	0.2	0.000569	9e-06
323.15	0.3	0.000549	9e-06
323.15	0.4002	0.000528	9e-06
323.15	0.5	0.000506	9e-06
323.15	0.6	0.000483	9e-06
323.15	0.6997	0.00046	9e-06
323.15	0.8	0.000438	8e-06
323.15	0.8998	0.000415	8e-06
323.15	1	0.000394	8e-06

System: methanol + dimethylformamide; phases: Liquid
Fixed: Pressure, kPa = 101
Property: Mass density, kg/m3 (Liquid); method: VIBTUB:UFactor:4
Temperature, K	Mole fraction of methanol	Mass density, kg/m3	uncertainty
293.15	0	948.95	0.22
293.15	0.0998	941.81	0.23
293.15	0.2	933.68	0.24
293.15	0.3	924.38	0.26
293.15	0.4002	913.69	0.28
293.15	0.5	901.23	0.31
293.15	0.6	886.58	0.33
293.15	0.6997	869.36	0.36
293.15	0.8	848.69	0.4
293.15	0.8998	823.22	0.45
293.15	1	791.51	0.49
298.15	0	944.21	0.22
298.15	0.0998	937.03	0.24
298.15	0.2	928.89	0.25
298.15	0.3	919.58	0.27
298.15	0.4002	908.89	0.29
298.15	0.5	896.4	0.31
298.15	0.6	881.75	0.34
298.15	0.6997	864.56	0.37
298.15	0.8	843.91	0.41
298.15	0.8998	818.49	0.45
298.15	1	786.82	0.5
303.15	0	939.45	0.23
303.15	0.0998	932.15	0.24
303.15	0.2	924.01	0.26
303.15	0.3	914.7	0.28
303.15	0.4002	904.02	0.3
303.15	0.5	891.48	0.32
303.15	0.6	876.84	0.35
303.15	0.6997	859.66	0.38
303.15	0.8	839.02	0.42
303.15	0.8998	813.64	0.46
303.15	1	782.06	0.51
313.15	0	929.86	0.24
313.15	0.0998	922.72	0.26
313.15	0.2	914.56	0.27
313.15	0.3	905.21	0.29
313.15	0.4002	894.53	0.31
313.15	0.5	881.96	0.33
313.15	0.6	867.29	0.36
313.15	0.6997	850.11	0.39
313.15	0.8	829.51	0.43
313.15	0.8998	804.2	0.47
313.15	1	772.72	0.52
323.15	0	920.92	0.25
323.15	0.0998	913.2	0.27
323.15	0.2	905.01	0.29
323.15	0.3	895.61	0.3
323.15	0.4002	884.91	0.33
323.15	0.5	872.28	0.35
323.15	0.6	857.57	0.38
323.15	0.6997	840.42	0.41
323.15	0.8	819.82	0.44
323.15	0.8998	794.57	0.49
323.15	1	763.22	0.54

System: ethanol + dimethylformamide; phases: Liquid
Fixed: Pressure, kPa = 101
Property: Viscosity, Pa*s (Liquid); method: CAPTUB:UFactor:2
Temperature, K	Mole fraction of ethanol	Viscosity, Pa*s	uncertainty
293.15	0	0.000863	1.2e-05
293.15	0.0999	0.000871	1.2e-05
293.15	0.2	0.000876	1.2e-05
293.15	0.3	0.000882	1.2e-05
293.15	0.4	0.000881	1.2e-05
293.15	0.5001	0.000872	1.2e-05
293.15	0.6	0.000886	1.2e-05
293.15	0.7	0.000919	1.3e-05
293.15	0.8	0.00097	1.3e-05
293.15	0.9001	0.001067	1.4e-05
293.15	1	0.001222	1.6e-05
298.15	0	0.000808	1.1e-05
298.15	0.0999	0.000819	1.1e-05
298.15	0.2	0.000818	1.1e-05
298.15	0.3	0.000822	1.2e-05
298.15	0.4	0.000821	1.2e-05
298.15	0.5001	0.000813	1.2e-05
298.15	0.6	0.000825	1.2e-05
298.15	0.7	0.000852	1.2e-05
298.15	0.8	0.000897	1.2e-05
298.15	0.9001	0.000977	1.3e-05
298.15	1	0.001109	1.5e-05
303.15	0	0.00076	1.1e-05
303.15	0.0999	0.00077	1.1e-05
303.15	0.2	0.000767	1.1e-05
303.15	0.3	0.00077	1.1e-05
303.15	0.4	0.000767	1.1e-05
303.15	0.5001	0.000759	1.1e-05
303.15	0.6	0.000769	1.1e-05
303.15	0.7	0.000791	1.1e-05
303.15	0.8	0.000828	1.2e-05
303.15	0.9001	0.000897	1.2e-05
303.15	1	0.001009	1.4e-05
313.15	0	0.000675	1e-05
313.15	0.0999	0.000682	1e-05
313.15	0.2	0.00068	1e-05
313.15	0.3	0.000681	1e-05
313.15	0.4	0.000674	1e-05
313.15	0.5001	0.000668	1e-05
313.15	0.6	0.00067	1e-05
313.15	0.7	0.000685	1e-05
313.15	0.8	0.000712	1.1e-05
313.15	0.9001	0.000762	1.1e-05
313.15	1	0.00084	1.2e-05
323.15	0	0.000608	1e-05
323.15	0.0999	0.00061	1e-05
323.15	0.2	0.000604	1e-05
323.15	0.3	0.000603	1e-05
323.15	0.4	0.000596	1e-05
323.15	0.5001	0.000592	1e-05
323.15	0.6	0.00059	1e-05
323.15	0.7	0.000598	1e-05
323.15	0.8	0.000616	1e-05
323.15	0.9001	0.000651	1e-05
323.15	1	0.000705	1.1e-05
333.15	0	0.000549	9e-06
333.15	0.0999	0.000547	9e-06
333.15	0.2	0.000543	9e-06
333.15	0.3	0.00054	9e-06
333.15	0.4	0.000533	9e-06
333.15	0.5001	0.000524	9e-06
333.15	0.6	0.000522	9e-06
333.15	0.7	0.000527	9e-06
333.15	0.8	0.000537	9e-06
333.15	0.9001	0.000559	9e-06
333.15	1	0.000597	1e-05

System: ethanol + dimethylformamide; phases: Liquid
Fixed: Pressure, kPa = 101
Property: Mass density, kg/m3 (Liquid); method: VIBTUB:UFactor:4
Temperature, K	Mole fraction of ethanol	Mass density, kg/m3	uncertainty
293.15	0	948.95	0.22
293.15	0.0999	938.12	0.23
293.15	0.2	925.78	0.25
293.15	0.3	912.89	0.28
293.15	0.4	898.61	0.3
293.15	0.5001	883.09	0.33
293.15	0.6	867.07	0.36
293.15	0.7	850.04	0.38
293.15	0.8	831.44	0.42
293.15	0.9001	811.42	0.45
293.15	1	789.85	0.48
298.15	0	944.21	0.22
298.15	0.0999	933.4	0.24
298.15	0.2	921.06	0.26
298.15	0.3	908.23	0.28
298.15	0.4	893.96	0.31
298.15	0.5001	878.46	0.33
298.15	0.6	862.49	0.36
298.15	0.7	845.49	0.39
298.15	0.8	826.96	0.42
298.15	0.9001	807.05	0.46
298.15	1	785.62	0.49
303.15	0	939.45	0.23
303.15	0.0999	928.64	0.25
303.15	0.2	916.32	0.27
303.15	0.3	903.51	0.29
303.15	0.4	889.23	0.32
303.15	0.5001	873.76	0.34
303.15	0.6	857.82	0.37
303.15	0.7	840.91	0.4
303.15	0.8	822.44	0.43
303.15	0.9001	802.6	0.46
303.15	1	781.31	0.5
313.15	0	929.86	0.24
313.15	0.0999	919.06	0.26
313.15	0.2	906.76	0.28
313.15	0.3	893.95	0.3
313.15	0.4	879.71	0.33
313.15	0.5001	864.29	0.36
313.15	0.6	848.42	0.38
313.15	0.7	831.6	0.41
313.15	0.8	813.28	0.44
313.15	0.9001	793.64	0.48
313.15	1	772.56	0.51
323.15	0	920.92	0.26
323.15	0.0999	909.48	0.28
323.15	0.2	897.18	0.3
323.15	0.3	884.39	0.32
323.15	0.4	870.17	0.34
323.15	0.5001	854.81	0.37
323.15	0.6	838.98	0.4
323.15	0.7	822.26	0.43
323.15	0.8	804.04	0.46
323.15	0.9001	784.5	0.49
323.15	1	763.67	0.52
333.15	0	910.64	0.27
333.15	0.0999	899.8	0.29
333.15	0.2	887.49	0.31
333.15	0.3	874.73	0.33
333.15	0.4	860.51	0.36
333.15	0.5001	845.16	0.39
333.15	0.6	829.38	0.41
333.15	0.7	812.71	0.44
333.15	0.8	794.55	0.47
333.15	0.9001	775.2	0.5
333.15	1	754.53	0.54
