Measured thermophysical data. Measurement of High-Pressure Phase Behavior for the Benzyl (Meth)Acrylate in Supercritical Carbon Dioxide from (313.2 to 393.2) K and Pressures from (6 to 24) MPa
Source: J. Chem. Eng. Data, 2008, 10.1021/je7004616
Compound 1: benzyl methacrylate, C11H12O2, InChI=1S/C11H12O2/c1-9(2)11(12)13-8-10-6-4-3-5-7-10/h3-7H,1,8H2,2H3
Compound 2: acrylic acid, benzyl ester, C10H10O2, InChI=1S/C10H10O2/c1-2-10(11)12-8-9-6-4-3-5-7-9/h2-7H,1,8H2
Compound 3: carbon dioxide, CO2, InChI=1S/CO2/c2-1-3

System: carbon dioxide + benzyl methacrylate; phases: Liquid, Gas
Property: Critical pressure, kPa (Liquid); method: Direct measurement
Mole fraction of benzyl methacrylate	Critical pressure, kPa	uncertainty
0.101	18140	1040
0.151	24430	1320

System: carbon dioxide + benzyl methacrylate; phases: Liquid, Gas
Property: Critical temperature, K (Liquid); method: Visual observation in an unstirred cell
Mole fraction of benzyl methacrylate	Critical temperature, K	uncertainty
0.101	353.2	1
0.151	393.2	1

System: carbon dioxide + benzyl methacrylate; phases: Liquid, Gas
Property: Vapor or sublimation pressure, kPa (Liquid); method: CCELL:UFactor:16
Temperature, K	Mole fraction of benzyl methacrylate	Vapor or sublimation pressure, kPa	uncertainty
313.2	0.05	9000	470
313.2	0.101	8860	460
313.2	0.151	8760	450
313.2	0.199	8650	450
313.2	0.301	8430	430
313.2	0.39	8220	410
313.2	0.486	7480	370
313.2	0.593	6930	350
313.2	0.696	5760	290
333.2	0.101	13620	690
333.2	0.151	13280	670
333.2	0.199	13160	670
333.2	0.301	11850	600
333.2	0.39	9910	500
333.2	0.486	8720	440
333.2	0.593	7140	360
333.2	0.696	6260	310
353.2	0.151	18030	900
353.2	0.199	17400	870
353.2	0.301	15120	760
353.2	0.39	12100	610
353.2	0.486	10300	520
353.2	0.593	8100	410
353.2	0.696	6720	340
373.2	0.151	21720	1080
373.2	0.199	21070	1050
373.2	0.301	17970	910
373.2	0.39	14310	730
373.2	0.486	11690	590
373.2	0.593	9210	470
373.2	0.696	7350	370
393.2	0.199	23810	1190
393.2	0.301	20400	1030
393.2	0.39	16280	830
393.2	0.486	13290	670
393.2	0.593	10000	510
393.2	0.696	7880	400

System: carbon dioxide + benzyl methacrylate; phases: Gas, Liquid
Property: Vapor or sublimation pressure, kPa (Gas); method: CCELL:UFactor:16
Temperature, K	Mole fraction of benzyl methacrylate	Vapor or sublimation pressure, kPa	uncertainty
313.2	0.024	7860	450
333.2	0.024	12090	650
333.2	0.05	13280	690
353.2	0.024	15620	860
353.2	0.05	17520	910
373.2	0.024	17900	1010
373.2	0.05	20810	1050
373.2	0.101	21480	1070
393.2	0.024	19520	1130
393.2	0.05	23350	1180
393.2	0.101	24170	1200

System: carbon dioxide + acrylic acid, benzyl ester; phases: Liquid, Gas
Property: Critical pressure, kPa (Liquid); method: Direct measurement
Mole fraction of acrylic acid, benzyl ester	Critical pressure, kPa	uncertainty
0.102	13410	1120
0.102	21560	1100
0.151	24400	1510

System: carbon dioxide + acrylic acid, benzyl ester; phases: Liquid, Gas
Property: Critical temperature, K (Liquid); method: Visual observation in an unstirred cell
Mole fraction of acrylic acid, benzyl ester	Critical temperature, K	uncertainty
0.102	333.2	1
0.102	373.2	1
0.151	393.2	1

System: carbon dioxide + acrylic acid, benzyl ester; phases: Liquid, Gas
Property: Vapor or sublimation pressure, kPa (Liquid); method: CCELL:UFactor:16
Temperature, K	Mole fraction of acrylic acid, benzyl ester	Vapor or sublimation pressure, kPa	uncertainty
313.2	0.052	8720	460
313.2	0.102	8640	450
313.2	0.151	8600	450
313.2	0.174	8580	450
313.2	0.2	8550	440
313.2	0.278	8480	430
313.2	0.389	8160	410
313.2	0.503	7490	380
313.2	0.609	6670	340
313.2	0.676	5900	300
333.2	0.151	13380	690
333.2	0.174	13480	690
333.2	0.2	12530	630
333.2	0.278	12100	610
333.2	0.389	11000	550
333.2	0.503	9450	480
333.2	0.609	7830	400
333.2	0.676	6470	330
353.2	0.151	19790	990
353.2	0.174	17670	920
353.2	0.2	16660	840
353.2	0.278	15410	770
353.2	0.389	13280	670
353.2	0.503	11000	550
353.2	0.609	8740	440
353.2	0.676	7240	370
373.2	0.151	21560	1070
373.2	0.174	21410	1070
373.2	0.2	20380	1020
373.2	0.278	18660	930
373.2	0.389	15600	780
373.2	0.503	12530	630
373.2	0.609	9620	490
373.2	0.676	8090	410
393.2	0.174	24030	1200
393.2	0.2	23070	1150
393.2	0.278	21140	1060
393.2	0.389	18030	910
393.2	0.503	14100	710
393.2	0.609	10590	540
393.2	0.676	8740	450

System: carbon dioxide + acrylic acid, benzyl ester; phases: Gas, Liquid
Property: Vapor or sublimation pressure, kPa (Gas); method: CCELL:UFactor:16
Temperature, K	Mole fraction of acrylic acid, benzyl ester	Vapor or sublimation pressure, kPa	uncertainty
313.2	0.02	8280	460
333.2	0.02	11780	620
333.2	0.052	13140	680
353.2	0.02	15210	820
353.2	0.052	17350	880
353.2	0.102	18210	910
373.2	0.02	17690	970
373.2	0.052	20860	1100
393.2	0.02	19900	1090
393.2	0.052	23620	1190
393.2	0.102	24190	1200
