Measured thermophysical data. Relative Permittivity Measurements of Trifluoromethyl Methyl Ether and Pentafluoroethyl Methyl Ether
Source: J. Chem. Eng. Data, 2007, 10.1021/je7000446
Compound 1: 1,1,1-trifluoroethane, C2H3F3, InChI=1S/C2H3F3/c1-2(3,4)5/h1H3
Compound 2: methyl pentafluoroethyl ether, C3H3F5O, InChI=1S/C3H3F5O/c1-9-3(7,8)2(4,5)6/h1H3

System: 1,1,1-trifluoroethane; phases: Fluid (supercritical or subcritical phases)
Fixed: Frequency, MHz = 0.06
Property: Relative permittivity at various frequencies (Fluid (supercritical or subcritical phases)); method: Parallel plate capacitor
Temperature, K	Pressure, kPa	Relative permittivity at various frequencies	uncertainty
302.8	1600	9.28	0.69
302.8	4000	9.44	0.7
302.8	6200	9.56	0.71
302.8	8200	9.67	0.72
302.8	10200	9.77	0.72
302.8	12300	9.86	0.73
302.8	16200	10.02	0.74
302.8	18500	10.1	0.75
302.8	20100	10.16	0.75
302.8	22000	10.24	0.76
302.8	24200	10.31	0.76
302.8	26300	10.38	0.77
302.8	28300	10.44	0.77
302.8	30700	10.51	0.78
313.2	1700	8.61	0.64
313.2	2700	8.69	0.64
313.2	4200	8.82	0.65
313.2	6300	8.96	0.66
313.2	8000	9.05	0.67
313.2	8800	9.12	0.68
313.2	14200	9.39	0.7
313.2	16300	9.49	0.7
313.2	18400	9.58	0.71
313.2	20400	9.67	0.72
313.2	21800	9.73	0.72
313.2	24200	9.81	0.73
313.2	26100	9.87	0.73
313.2	28400	9.9	0.73
313.2	30300	9.95	0.74
313.2	31600	9.98	0.74
322.8	2400	8.08	0.6
322.8	4500	8.27	0.61
322.8	6500	8.43	0.62
322.8	8400	8.56	0.63
322.8	10300	8.68	0.64
322.8	12100	8.79	0.65
322.8	14300	8.89	0.66
322.8	16300	8.98	0.67
322.8	18300	9.07	0.67
322.8	20200	9.16	0.68
322.8	22300	9.24	0.68
322.8	24400	9.32	0.69
322.8	26200	9.38	0.69
322.8	27900	9.43	0.7
322.8	28800	9.46	0.7
322.8	31000	9.49	0.7
333	1500	7.35	0.55
333	2600	7.45	0.55
333	4400	7.66	0.57
333	6300	7.84	0.58
333	8400	8.01	0.59
333	10300	8.14	0.6
333	12400	8.26	0.61
333	14400	8.38	0.62
333	16300	8.48	0.63
333	18300	8.58	0.64
333	20100	8.66	0.64
333	21100	8.7	0.64
333	22400	8.73	0.65
333	24100	8.8	0.65
333	26000	8.87	0.66
333	27400	8.93	0.66
333	29300	8.99	0.67
343.4	2200	6.66	0.5
343.4	3000	6.79	0.5
343.4	4000	6.95	0.52
343.4	5000	7.06	0.52
343.4	6200	7.2	0.53
343.4	8100	7.4	0.55
343.4	9200	7.47	0.55
343.4	10400	7.58	0.56
343.4	12300	7.71	0.57
343.4	14200	7.83	0.58
343.4	16200	7.94	0.59
343.4	18200	8.04	0.6
343.4	20300	8.14	0.6
343.4	22200	8.22	0.61
343.4	24200	8.31	0.62
343.4	26000	8.37	0.62
343.4	28000	8.45	0.63
343.4	29500	8.5	0.63
353.4	2600	6.05	0.45
353.4	4600	6.39	0.47
353.4	6400	6.65	0.49
353.4	8100	6.84	0.51
353.4	10000	6.99	0.52
353.4	12200	7.15	0.53
353.4	14400	7.29	0.54
353.4	16400	7.41	0.55
353.4	18300	7.52	0.56
353.4	20200	7.6	0.56
353.4	22200	7.7	0.57
353.4	24400	7.78	0.58
353.4	26400	7.86	0.58
353.4	28600	7.95	0.59
363.8	3600	5.46	0.41
363.8	4300	5.73	0.43
363.8	6100	6.09	0.45
363.8	8200	6.37	0.47
363.8	10200	6.57	0.49
363.8	12200	6.74	0.5
363.8	14200	6.88	0.51
363.8	16200	7.01	0.52
363.8	18200	7.12	0.53
363.8	20300	7.22	0.53
363.8	22200	7.31	0.54
363.8	24300	7.41	0.55
363.8	26000	7.48	0.55
363.8	28200	7.56	0.56
363.8	30000	7.63	0.57
363.8	31200	7.66	0.57
372.9	4000	4.66	0.36
372.9	6300	5.55	0.42
372.9	8200	5.86	0.44
372.9	10100	6.08	0.45
372.9	12200	6.27	0.46
372.9	14200	6.42	0.48
372.9	16000	6.53	0.48
372.9	18000	6.65	0.49
372.9	20200	6.75	0.5
372.9	22200	6.85	0.51
372.9	24200	6.94	0.51
372.9	26200	7.02	0.52
372.9	28100	7.09	0.53
372.9	29800	7.15	0.53
372.9	30700	7.18	0.53
383.1	4800	3.97	0.33
383.1	5800	4.7	0.37
383.1	6800	5.06	0.38
383.1	8200	5.35	0.4
383.1	10400	5.65	0.42
383.1	12000	5.8	0.43
383.1	14200	6.09	0.45
383.1	16200	6.24	0.46
383.1	18400	6.38	0.47
383.1	20000	6.48	0.48

System: methyl pentafluoroethyl ether; phases: Fluid (supercritical or subcritical phases)
Fixed: Frequency, MHz = 0.06
Property: Relative permittivity at various frequencies (Fluid (supercritical or subcritical phases)); method: Parallel plate capacitor
Temperature, K	Pressure, kPa	Relative permittivity at various frequencies	uncertainty
312.9	1500	6.94	0.51
312.9	3200	7	0.52
312.9	6100	7.08	0.52
312.9	8300	7.14	0.53
312.9	10400	7.2	0.53
312.9	12500	7.25	0.54
312.9	14400	7.29	0.54
312.9	16500	7.34	0.54
312.9	18300	7.37	0.55
312.9	26200	7.51	0.56
312.9	27800	7.53	0.56
318	1500	6.78	0.5
318	3200	6.85	0.51
318	6300	6.95	0.51
318	8300	7.01	0.52
318	10400	7.06	0.52
318	12400	7.11	0.53
318	14100	7.15	0.53
318	16400	7.19	0.53
318	18300	7.22	0.53
318	20400	7.27	0.54
318	22200	7.29	0.54
318	23800	7.31	0.54
323.4	2000	6.65	0.49
323.4	3200	6.69	0.5
323.4	4400	6.73	0.5
323.4	6600	6.79	0.5
323.4	8300	6.84	0.51
323.4	10100	6.89	0.51
323.4	12200	6.94	0.51
323.4	14000	7	0.52
323.4	16000	7.05	0.52
323.4	18000	7.09	0.52
323.4	20000	7.12	0.53
323.4	22200	7.16	0.53
323.4	24400	7.2	0.53
323.4	26300	7.24	0.54
323.4	28400	7.27	0.54
