Measured thermophysical data. Determination of the Relative Permittivity and Density within the Gas Phase and Liquid Volume Fraction Formed within the Two-Phase Region for (0.4026 CH4 + 0.5974 C3H8) with a Radio Frequency Re-entrant Cavity
Source: J. Chem. Eng. Data, 2007, 10.1021/je700053u
Compound 1: methane, CH4, InChI=1S/CH4/h1H4
Compound 2: propane, C3H8, InChI=1S/C3H8/c1-3-2/h3H2,1-2H3

System: methane + propane; phases: Gas
Fixed: Mole fraction of methane = 0.4026
Property: Relative permittivity at zero frequency (Gas); method: Reentrant cavity resonator
Temperature, K	Pressure, kPa	Relative permittivity at zero frequency	uncertainty
311.21	2734.5	1.05016	0.0003
312.07	2764.5	1.04962	0.0003
313.04	2798.5	1.04982	0.0003
316.46	3176.1	1.05854	0.0003
317.19	3204.6	1.05967	0.0003
318.15	3242.6	1.06031	0.0003
318.4	2924.9	1.053563	0.0003
320.95	3530.4	1.06625	0.0003
320.95	3656.3	1.06835	0.0003
322.02	3575.3	1.06743	0.0003
322.02	3702.5	1.06959	0.0003
323.01	3609.4	1.06961	0.0003
323.01	3745	1.07195	0.0003
323.9	3398.6	1.063308	0.0003
324.03	3794.5	1.07286	0.0003
324.03	4001.3	1.07656	0.0003
324.16	3794.6	1.07256	0.0003
324.16	4007.4	1.07639	0.0003
325.07	3829.5	1.07437	0.0003
325.07	4048.9	1.07838	0.0003
325.96	3686.3	1.070319	0.0003
325.99	4090.7	1.07957	0.0003
325.99	4282.5	1.08291	0.0003
326.59	4118.3	1.08052	0.0003
326.59	4311.3	1.08423	0.0003
329.11	3936.5	1.075498	0.0003
329.11	4432	1.08837	0.0003
329.11	4672.8	1.09345	0.0003
330.06	4474.6	1.09025	0.0003
330.06	4719.6	1.09544	0.0003
331.38	4788.1	1.09772	0.0003
331.38	5055.7	1.10387	0.0003
331.38	5274.4	1.1089	0.0003
332.18	4303.4	1.084491	0.0003
332.5	4840.3	1.10042	0.0003
332.5	5115	1.10716	0.0003
332.5	5336	1.11251	0.0003
333.83	5184.8	1.111	0.0003
333.83	5409.5	1.11693	0.0003
334.27	4613.5	1.092567	0.0003
334.5	5216.8	1.11365	0.0003
334.5	5446.4	1.11973	0.0003
335.69	5509.4	1.12172	0.0003
336.73	4995.2	1.103135	0.0003
337.84	6668.1	1.16986	0.0003
338.64	5386.4	1.114861	0.0003
340.07	5706.3	1.125448	0.0003
343.48	7025.2	1.176192	0.0003
