Measured thermophysical data. Solid-Liquid Equilibrium and Activity Coefficients for Caprolactam + 1-Hexyl-3-methylimidazolium Bis(trifluoromethylsulfonyl)imide and Cyclohexanone Oxime + 1-Hexyl-3-methylimidazolium Bis(trifluoromethylsulfonyl)imide
Source: J. Chem. Eng. Data, 2007, 10.1021/je7000683
Compound 1: 1-aza-2-cycloheptanone, C6H11NO, InChI=1S/C6H11NO/c8-6-4-2-1-3-5-7-6/h1-5H2,(H,7,8), purity 99.5%
Compound 2: 1-hexyl-3-methylimidazolium bis[(trifluoromethyl)sulfonyl]imide, C12H19F6N3O4S2, InChI=1S/C10H19N2.C2F6NO4S2/c1-3-4-5-6-7-12-9-8-11(2)10-12;3-1(4,5)14(10,11)9-15(12,13)2(6,7)8/h8-10H,3-7H2,1-2H3;/q+1;-1
Compound 3: cyclohexanone oxime, C6H11NO, InChI=1S/C6H11NO/c8-7-6-4-2-1-3-5-6/h8H,1-5H2, purity 95%
Compound 4: water, H2O, InChI=1S/H2O/h1H2
Compound 5: cyclohexanone, C6H10O, InChI=1S/C6H10O/c7-6-4-2-1-3-5-6/h1-5H2

System: 1-aza-2-cycloheptanone; phases: Crystal, Liquid, Gas
Property: Molar enthalpy of transition or fusion, kJ/mol (Crystal); method: Adiabatic calorimetry
Molar enthalpy of transition or fusion, kJ/mol	uncertainty
16.16	0.04

System: 1-aza-2-cycloheptanone; phases: Crystal, Liquid, Gas
Property: Triple point temperature, K (Crystal); method: Adiabatic calorimetry
Triple point temperature, K	uncertainty
342.22	0.04

System: 1-aza-2-cycloheptanone; phases: Crystal
Fixed: Pressure, kPa = 101.325
Property: Molar heat capacity at constant pressure, J/K/mol (Crystal); method: Small (less than 1 g) adiabatic calorimetry
Temperature, K	Molar heat capacity at constant pressure, J/K/mol	uncertainty
316	168	1.5
319	169.4	1.5
322	171.1	1.5
325	173	1.5
328	175.1	1.5
331	177.5	1.6
334	180.1	1.6
335	181	1.6

System: 1-aza-2-cycloheptanone; phases: Liquid
Fixed: Pressure, kPa = 101.325
Property: Molar heat capacity at constant pressure, J/K/mol (Liquid); method: Small (less than 1 g) adiabatic calorimetry
Temperature, K	Molar heat capacity at constant pressure, J/K/mol	uncertainty
323	232.3	2
326	233.8	2
329	235.3	2
332	236.7	2.1
335	238.2	2.1
338	239.7	2.1
341	241.2	2.1
344	242.7	2.1
347	244.2	2.1
350	245.7	2.1
353	247.1	2.1
356	248.6	2.2
359	250.1	2.2
362	251.6	2.2
365	253.1	2.2
368	254.6	2.2

System: 1-aza-2-cycloheptanone; phases: Liquid, Gas
Property: Vapor or sublimation pressure, kPa (Liquid); method: Calculated from knudsen effusion weight loss
Temperature, K	Vapor or sublimation pressure, kPa	uncertainty
315.3	0.00286	0.00035
320.3	0.00442	0.00058
331.9	0.01144	0.00175

System: 1-hexyl-3-methylimidazolium bis[(trifluoromethyl)sulfonyl]imide; phases: Crystal, Liquid, Air at 1 atmosphere
Property: Normal melting temperature, K (Crystal); method: VISOBS
Normal melting temperature, K	uncertainty
272	0.4

System: 1-aza-2-cycloheptanone + 1-hexyl-3-methylimidazolium bis[(trifluoromethyl)sulfonyl]imide; phases: Liquid, Gas
Property: Activity coefficient of 1-aza-2-cycloheptanone (Liquid); method: Chromatography
Temperature, K	Mole fraction of 1-aza-2-cycloheptanone	Activity coefficient of 1-aza-2-cycloheptanone	uncertainty
427.5	0	0.49	0.04

System: 1-aza-2-cycloheptanone + 1-hexyl-3-methylimidazolium bis[(trifluoromethyl)sulfonyl]imide; phases: Liquid, Crystal
Fixed: Pressure, kPa = 101
Property: Solid-liquid equilibrium temperature, K (Liquid); method: VISOBS
Mole fraction of 1-aza-2-cycloheptanone	Solid-liquid equilibrium temperature, K	uncertainty
0.4389	281.4	2
0.5911	298.4	2
0.6457	303.8	2
0.652	305.9	2
0.7117	311.9	2
0.7475	315.4	2
0.7756	320.4	2
0.8867	331.9	2
1	342.2	2

System: 1-aza-2-cycloheptanone + 1-hexyl-3-methylimidazolium bis[(trifluoromethyl)sulfonyl]imide; phases: Liquid, Crystal
Fixed: Pressure, kPa = 101
Property: Solid-liquid equilibrium temperature, K (Liquid); method: VISOBS
Mole fraction of 1-aza-2-cycloheptanone	Solid-liquid equilibrium temperature, K	uncertainty
0	272	0.3
0.1034	269.3	0.3
0.1934	267.2	0.3
0.2692	265.6	0.3

System: 1-aza-2-cycloheptanone + 1-hexyl-3-methylimidazolium bis[(trifluoromethyl)sulfonyl]imide; phases: Liquid, Gas
Property: Vapor or sublimation pressure, kPa (Liquid); method: Calculated from knudsen effusion weight loss
Temperature, K	Mole fraction of 1-aza-2-cycloheptanone	Vapor or sublimation pressure, kPa	uncertainty
315.3	0.121	0.00015	8e-05
315.3	0.193	0.0003	8e-05
315.3	0.223	0.00036	8e-05
315.3	0.349	0.00061	8e-05
315.3	0.397	0.00081	8e-05
315.3	0.458	0.00094	8e-05
315.3	0.548	0.00123	0.00013
315.3	0.569	0.00127	0.00013
315.3	0.623	0.00136	0.00015
315.3	0.682	0.00152	0.00017
315.3	1	0.00286	0.00035
320.3	0.061	0.0001	8e-05
320.3	0.081	0.00017	8e-05
320.3	0.139	0.00029	8e-05
320.3	0.154	0.00038	8e-05
320.3	0.193	0.00049	8e-05
320.3	0.228	0.0006	8e-05
320.3	0.262	0.0007	8e-05
320.3	0.488	0.00171	0.00019
320.3	0.652	0.00248	0.0003
320.3	0.718	0.00272	0.00033
320.3	1	0.00442	0.00058
331.9	0.038	0.00022	8e-05
331.9	0.066	0.0004	8e-05
331.9	0.124	0.00082	8e-05
331.9	0.171	0.00117	0.00012
331.9	0.421	0.00441	0.00058
331.9	0.453	0.00494	0.00067
331.9	0.595	0.00646	0.00091
331.9	0.723	0.00774	0.00112
331.9	0.796	0.00919	0.00136
331.9	0.853	0.00925	0.00137
331.9	1	0.01144	0.00175

System: cyclohexanone oxime + 1-hexyl-3-methylimidazolium bis[(trifluoromethyl)sulfonyl]imide; phases: Liquid, Gas
Fixed: Mole fraction of cyclohexanone oxime = 0
Property: Activity coefficient of cyclohexanone oxime (Liquid); method: Chromatography
Temperature, K	Activity coefficient of cyclohexanone oxime	uncertainty
375.4	2.41	0.16
386	2.22	0.15
396.5	2.03	0.14
407	1.84	0.12
417.1	1.67	0.11
417.6	1.61	0.11
427.5	1.51	0.1
438	1.28	0.08

System: cyclohexanone oxime + 1-hexyl-3-methylimidazolium bis[(trifluoromethyl)sulfonyl]imide; phases: Liquid, Crystal
Fixed: Pressure, kPa = 101
Property: Solid-liquid equilibrium temperature, K (Liquid); method: VISOBS
Mole fraction of cyclohexanone oxime	Solid-liquid equilibrium temperature, K	uncertainty
0.2127	310	0.3
0.4087	338.2	0.3
1	362.5	0.3

System: cyclohexanone + water; phases: Liquid mixture 1, Liquid mixture 2
Fixed: Pressure, kPa = 101
Property: Liquid-liquid equilibrium temperature, K (Liquid mixture 1); method: VISOBS
Mass fraction of water	Liquid-liquid equilibrium temperature, K	uncertainty
0.06	303.2	4
0.066	313.2	5.2
0.07	323.2	4.2
0.085	343.2	4.5
