Measured thermophysical data. Measuring Surface Tension of Liquids at High Temperature and Elevated Pressure
Source: J. Chem. Eng. Data, 2008, 10.1021/je700578f
Compound 1: methanol, CH4O, InChI=1S/CH4O/c1-2/h2H,1H3
Compound 2: benzyl benzoate, C14H12O2, InChI=1S/C14H12O2/c15-14(13-9-5-2-6-10-13)16-11-12-7-3-1-4-8-12/h1-10H,11H2
Compound 3: benzene, C6H6, InChI=1S/C6H6/c1-2-4-6-5-3-1/h1-6H
Compound 4: toluene, C7H8, InChI=1S/C7H8/c1-7-5-3-2-4-6-7/h2-6H,1H3
Compound 5: 1,4-dimethylbenzene, C8H10, InChI=1S/C8H10/c1-7-3-5-8(2)6-4-7/h3-6H,1-2H3
Compound 6: 1,2-dimethylbenzene, C8H10, InChI=1S/C8H10/c1-7-5-3-4-6-8(7)2/h3-6H,1-2H3
Compound 7: 1,3-dimethylbenzene, C8H10, InChI=1S/C8H10/c1-7-4-3-5-8(2)6-7/h3-6H,1-2H3
Compound 8: nitrogen, N2, InChI=1S/N2/c1-2

System: methanol; phases: Liquid, Air at 1 atmosphere
Property: Surface tension liquid-gas, N/m (Liquid); method: Maximal bubble pressure
Temperature, K	Surface tension liquid-gas, N/m	uncertainty
303.15	0.02175	0.00089
313.15	0.0209	0.00086
323.15	0.02004	0.00082
333.15	0.01918	0.00079
343.15	0.01832	0.00075

System: benzyl benzoate; phases: Liquid, Air at 1 atmosphere
Property: Surface tension liquid-gas, N/m (Liquid); method: Maximal bubble pressure
Temperature, K	Surface tension liquid-gas, N/m	uncertainty
353.15	0.0396	0.00161
373.15	0.03753	0.00153
393.15	0.03533	0.00144
413.15	0.0333	0.00136
433.15	0.0311	0.00127
453.15	0.02895	0.00118
473.15	0.0268	0.0011

System: methanol + nitrogen; phases: Liquid, Gas
Fixed: Temperature, K = 296.15
Property: Surface tension liquid-gas, N/m (Liquid); method: Maximal bubble pressure
Pressure, kPa	Surface tension liquid-gas, N/m	uncertainty
100	0.02236	0.00097
500	0.02183	0.00095
1000	0.02155	0.00093
1450	0.02125	0.00092

System: benzene + nitrogen; phases: Liquid, Gas
Fixed: Pressure, kPa = 1600
Property: Surface tension liquid-gas, N/m (Liquid); method: Maximal bubble pressure
Temperature, K	Surface tension liquid-gas, N/m	uncertainty
353.15	0.01884	0.00082
373.15	0.01709	0.00074
393.15	0.01534	0.00067
413.15	0.0136	0.0006
433.15	0.01185	0.00052
453.15	0.0101	0.00045
473.15	0.00835	0.00037

System: toluene + nitrogen; phases: Liquid, Gas
Fixed: Pressure, kPa = 1600
Property: Surface tension liquid-gas, N/m (Liquid); method: Maximal bubble pressure
Temperature, K	Surface tension liquid-gas, N/m	uncertainty
353.15	0.01949	0.00085
373.15	0.01798	0.00078
393.15	0.01648	0.00072
413.15	0.01497	0.00065
433.15	0.01347	0.00059
453.15	0.01196	0.00053
473.15	0.01046	0.00046

System: 1,4-dimethylbenzene + nitrogen; phases: Liquid, Gas
Fixed: Pressure, kPa = 1600
Property: Surface tension liquid-gas, N/m (Liquid); method: Maximal bubble pressure
Temperature, K	Surface tension liquid-gas, N/m	uncertainty
353.15	0.02026	0.00088
373.15	0.01883	0.00082
393.15	0.0174	0.00076
413.15	0.01596	0.0007
433.15	0.01452	0.00063
453.15	0.01309	0.00057
473.15	0.01166	0.00051

System: 1,2-dimethylbenzene + nitrogen; phases: Liquid, Gas
Fixed: Pressure, kPa = 1600
Property: Surface tension liquid-gas, N/m (Liquid); method: Maximal bubble pressure
Temperature, K	Surface tension liquid-gas, N/m	uncertainty
353.15	0.02192	0.00095
373.15	0.02034	0.00088
393.15	0.01876	0.00082
413.15	0.01718	0.00075
433.15	0.0156	0.00068
453.15	0.01402	0.00061
473.15	0.01244	0.00055

System: 1,3-dimethylbenzene + nitrogen; phases: Liquid, Gas
Fixed: Pressure, kPa = 1600
Property: Surface tension liquid-gas, N/m (Liquid); method: Maximal bubble pressure
Temperature, K	Surface tension liquid-gas, N/m	uncertainty
353.15	0.0208	0.0009
373.15	0.01913	0.00083
393.15	0.01727	0.00075
413.15	0.01574	0.00069
433.15	0.01425	0.00062
453.15	0.0129	0.00057
473.15	0.01111	0.00049

System: benzene + 1,4-dimethylbenzene + nitrogen; phases: Liquid, Gas
Fixed: Pressure, kPa = 1600
Property: Surface tension liquid-gas, N/m (Liquid); method: Maximal bubble pressure
Temperature, K	Solvent: Mole fraction of 1,4-dimethylbenzene	Surface tension liquid-gas, N/m	uncertainty
353.15	0	0.01884	0.0008
353.15	0.2	0.0183	0.0008
353.15	0.4	0.01741	0.00074
353.15	0.6	0.01736	0.00074
353.15	0.8	0.0181	0.00077
353.15	1	0.02026	0.00086
373.15	0	0.01709	0.00073
373.15	0.2	0.01682	0.00072
373.15	0.4	0.01609	0.00068
373.15	0.6	0.01608	0.00068
373.15	0.8	0.01672	0.00071
373.15	1	0.01883	0.0008
393.15	0	0.01534	0.00065
393.15	0.2	0.01534	0.00065
393.15	0.4	0.01478	0.00063
393.15	0.6	0.01479	0.00063
393.15	0.8	0.01534	0.00065
393.15	1	0.01739	0.00074
413.15	0	0.0136	0.0006
413.15	0.2	0.01386	0.00059
413.15	0.4	0.01346	0.00058
413.15	0.6	0.01351	0.00058
413.15	0.8	0.01396	0.0006
413.15	1	0.01596	0.00068
433.15	0	0.01185	0.00051
433.15	0.2	0.01239	0.00053
433.15	0.4	0.01215	0.00052
433.15	0.6	0.01223	0.00052
433.15	0.8	0.01258	0.00054
433.15	1	0.01452	0.00062
453.15	0	0.0101	0.0004
453.15	0.2	0.01091	0.00047
453.15	0.4	0.01083	0.00047
453.15	0.6	0.01095	0.00047
453.15	0.8	0.0112	0.00048
453.15	1	0.01309	0.00056
473.15	0	0.00835	0.00036
473.15	0.2	0.00943	0.00041
473.15	0.4	0.00952	0.00041
473.15	0.6	0.00966	0.00042
473.15	0.8	0.00982	0.00042
473.15	1	0.01166	0.0005
