Measured thermophysical data. Experimental Study of Solubility of Natural Gas Components in Aqueous Solutions of Ethylene Glycol at Low-Temperature and High-Pressure Conditions
Source: J. Chem. Eng. Data, 2007, 10.1021/je700134r
Compound 1: methane, CH4, InChI=1S/CH4/h1H4
Compound 2: nitrogen, N2, InChI=1S/N2/c1-2
Compound 3: 1,2-ethanediol, C2H6O2, InChI=1S/C2H6O2/c3-1-2-4/h3-4H,1-2H2
Compound 4: water, H2O, InChI=1S/H2O/h1H2
Compound 5: carbon dioxide, CO2, InChI=1S/CO2/c2-1-3

System: methane + water; phases: Liquid, Gas
Fixed: Temperature, K = 324.15
Property: Mole fraction of methane (Liquid); method: Released gas volume using PVT equipment
Pressure, kPa	Mole fraction of methane	uncertainty
10000	0.001441	0.0002
20000	0.002298	0.0002
30000	0.002985	0.0002
40000	0.003412	0.0002

System: methane + 1,2-ethanediol; phases: Liquid, Gas
Fixed: Temperature, K = 298.15
Property: Mole fraction of methane (Liquid); method: Released gas volume using PVT equipment
Pressure, kPa	Mole fraction of methane	uncertainty
5940	0.0065	0.0002
10740	0.011	0.0002
15530	0.0145	0.0002
20350	0.0173	0.0002

System: 1,2-ethanediol + nitrogen + water; phases: Liquid, Gas
Property: Mole fraction of nitrogen (Liquid); method: Released gas volume using PVT equipment
Temperature, K	Pressure, kPa	Solvent: Mass fraction of 1,2-ethanediol	Mole fraction of nitrogen	uncertainty
263.15	15000	0.4	0.00226	0.0002
263.15	15000	0.6	0.00242	0.0002
263.15	20000	0.4	0.00237	0.0002
263.15	20000	0.6	0.00272	0.0002
273.15	15000	0.4	0.00183	0.0002
273.15	15000	0.6	0.00205	0.0002
273.15	20000	0.4	0.00191	0.0002
273.15	20000	0.6	0.00242	0.0002
283.15	15000	0.4	0.00169	0.0002
283.15	15000	0.6	0.00202	0.0002
283.15	20000	0.4	0.00187	0.0002
283.15	20000	0.6	0.00224	0.0002

System: methane + 1,2-ethanediol + water; phases: Liquid, Gas
Property: Mole fraction of methane (Liquid); method: Released gas volume using PVT equipment
Temperature, K	Pressure, kPa	Solvent: Mass fraction of 1,2-ethanediol	Mole fraction of methane	uncertainty
263.15	15000	0.6	0.00351	0.0002
263.15	20000	0.6	0.00426	0.0002
273.15	15000	0.6	0.00317	0.0002
273.15	20000	0.6	0.00377	0.0002
283.15	15000	0.4	0.00388	0.0002
283.15	15000	0.6	0.00343	0.0002
283.15	20000	0.4	0.00451	0.0002
283.15	20000	0.6	0.00366	0.0002
283.15	30000	0.4	0.00445	0.0002

System: 1,2-ethanediol + carbon dioxide + water; phases: Liquid, Gas
Property: Mole fraction of carbon dioxide (Liquid); method: Released gas volume using PVT equipment
Temperature, K	Pressure, kPa	Solvent: Mass fraction of 1,2-ethanediol	Mole fraction of carbon dioxide	uncertainty
273.15	1034	0.4	0.0005	0.0002
273.15	1034	0.6	0.0005	0.0002
273.15	2068	0.4	0.0013	0.0002
273.15	2068	0.6	0.0013	0.0002
273.15	3446	0.4	0.0017	0.0002
273.15	3446	0.6	0.0017	0.0002
303.15	1034	0.4	0.0004	0.0002
303.15	1034	0.6	0.0004	0.0002
303.15	2068	0.4	0.0017	0.0002
303.15	2068	0.6	0.0017	0.0002
303.15	3446	0.4	0.0022	0.0002
303.15	3446	0.6	0.0022	0.0002
