Measured thermophysical data. Isobaric Vapor Liquid Equilibria of the Ternary System 1-Pentanol + Nonane Anisole
Source: J. Chem. Eng. Data, 2008, 10.1021/je700594n
Compound 1: pentan-1-ol, C5H12O, InChI=1S/C5H12O/c1-2-3-4-5-6/h6H,2-5H2,1H3
Compound 2: nonane, C9H20, InChI=1S/C9H20/c1-3-5-7-9-8-6-4-2/h3-9H2,1-2H3
Compound 3: anisole, C7H8O, InChI=1S/C7H8O/c1-8-7-5-3-2-4-6-7/h2-6H,1H3

System: pentan-1-ol; phases: Liquid
Property: Refractive index (Na D-line) (Liquid); method: Standard Abbe refractometry
Temperature, K	Pressure, kPa	Refractive index (Na D-line)	uncertainty
293.15	101.325	1.4098	0.0007

System: pentan-1-ol; phases: Liquid
Property: Mass density, kg/m3 (Liquid); method: PYCNOM:UFactor:3
Temperature, K	Pressure, kPa	Mass density, kg/m3	uncertainty
293.15	101.325	814.5	1

System: pentan-1-ol; phases: Liquid, Gas
Property: Vapor or sublimation pressure, kPa (Liquid); method: Ebulliometric method (Recirculating still)
Temperature, K	Vapor or sublimation pressure, kPa	uncertainty
375.63	26.66	0.31
392.7	53.33	0.37
403.8	79.99	0.53
410.86	101.32	0.61

System: nonane; phases: Liquid
Property: Refractive index (Na D-line) (Liquid); method: Standard Abbe refractometry
Temperature, K	Pressure, kPa	Refractive index (Na D-line)	uncertainty
293.15	101.325	1.4055	0.0007

System: nonane; phases: Liquid
Property: Mass density, kg/m3 (Liquid); method: PYCNOM:UFactor:2
Temperature, K	Pressure, kPa	Mass density, kg/m3	uncertainty
293.15	101.325	717.6	0.7

System: nonane; phases: Liquid, Gas
Property: Vapor or sublimation pressure, kPa (Liquid); method: Ebulliometric method (Recirculating still)
Temperature, K	Vapor or sublimation pressure, kPa	uncertainty
379.88	26.66	0.25
401.28	53.33	0.3
415.26	79.99	0.42
423.97	101.32	0.49

System: anisole; phases: Liquid
Property: Refractive index (Na D-line) (Liquid); method: Standard Abbe refractometry
Temperature, K	Pressure, kPa	Refractive index (Na D-line)	uncertainty
293.15	101.325	1.5171	0.0007

System: anisole; phases: Liquid
Property: Mass density, kg/m3 (Liquid); method: PYCNOM:UFactor:3
Temperature, K	Pressure, kPa	Mass density, kg/m3	uncertainty
293.15	101.325	994.1	1.2

System: anisole; phases: Liquid, Gas
Property: Vapor or sublimation pressure, kPa (Liquid); method: Ebulliometric method (Recirculating still)
Temperature, K	Vapor or sublimation pressure, kPa	uncertainty
383.1	26.66	0.25
404.24	53.33	0.3
417.99	79.99	0.43
426.54	101.32	0.5

System: anisole + nonane; phases: Liquid, Gas
Property: Azeotropic temperature, K (Liquid); method: By T(X) extreme
Pressure, kPa	Azeotropic temperature, K	uncertainty
26.66	375.9	0.2
53.33	397.1	0.2
79.99	410.8	0.2
101.32	419.4	0.2

System: anisole + nonane; phases: Liquid, Gas
Property: Azeotropic composition: mole fraction of nonane (Liquid); method: By T or P extreme
Pressure, kPa	Azeotropic composition: mole fraction of nonane	uncertainty
26.66	0.54	0.007
53.33	0.529	0.007
79.99	0.521	0.007
101.32	0.515	0.007

System: anisole + nonane; phases: Liquid, Gas
Property: Boiling temperature at pressure P, K (Liquid); method: Ebulliometric method (Recirculating still)
Pressure, kPa	Mole fraction of nonane	Boiling temperature at pressure P, K	uncertainty
26.66	0	383.1	0.15
26.66	0.106	379.56	0.15
26.66	0.215	377.6	0.15
26.66	0.299	376.71	0.15
26.66	0.407	376.19	0.15
26.66	0.501	375.94	0.15
26.66	0.513	375.88	0.15
26.66	0.602	376.07	0.15
26.66	0.701	376.52	0.15
26.66	0.8	377.12	0.15
26.66	0.891	378.09	0.15
26.66	1	379.88	0.15
53.33	0	404.24	0.18
53.33	0.106	400.83	0.18
53.33	0.215	398.8	0.18
53.33	0.299	397.96	0.18
53.33	0.407	397.41	0.18
53.33	0.501	397.09	0.27
53.33	0.513	397.08	0.27
53.33	0.602	397.3	0.18
53.33	0.701	397.77	0.18
53.33	0.8	398.47	0.18
53.33	0.891	399.49	0.18
53.33	1	401.28	0.18
79.99	0	417.99	0.18
79.99	0.106	414.61	0.18
79.99	0.215	412.54	0.2
79.99	0.299	411.79	0.18
79.99	0.407	411.18	0.18
79.99	0.501	410.88	0.2
79.99	0.513	410.85	0.2
79.99	0.602	411.08	0.18
79.99	0.701	411.61	0.18
79.99	0.8	412.38	0.18
79.99	0.891	413.41	0.18
79.99	1	415.26	0.18
101.32	0	426.54	0.19
101.32	0.106	423.19	0.2
101.32	0.299	420.35	0.2
101.32	0.407	419.77	0.19
101.32	0.501	419.46	0.19
101.32	0.513	419.45	0.19
101.32	0.602	419.65	0.19
101.32	0.701	420.31	0.19
101.32	0.8	420.99	0.19
101.32	0.891	422.06	0.19
101.32	1	423.97	0.19

System: pentan-1-ol + anisole; phases: Liquid, Gas
Property: Azeotropic temperature, K (Liquid); method: By T(X) extreme
Pressure, kPa	Azeotropic temperature, K	uncertainty
26.66	372.6	0.2
53.33	391.1	0.2
79.99	402.9	0.2
101.32	410.2	0.2

System: pentan-1-ol + anisole; phases: Liquid, Gas
Property: Azeotropic composition: mole fraction of pentan-1-ol (Liquid); method: By T or P extreme
Pressure, kPa	Azeotropic composition: mole fraction of pentan-1-ol	uncertainty
26.66	0.642	0.005
53.33	0.739	0.004
79.99	0.801	0.003
101.32	0.836	0.003

System: pentan-1-ol + anisole; phases: Liquid, Gas
Property: Boiling temperature at pressure P, K (Liquid); method: Ebulliometric method (Recirculating still)
Pressure, kPa	Mole fraction of pentan-1-ol	Boiling temperature at pressure P, K	uncertainty
26.66	0	383.1	0.15
26.66	0.127	377.47	0.15
26.66	0.206	375.58	0.14
26.66	0.298	374.18	0.14
26.66	0.386	373.47	0.14
26.66	0.48	373	0.14
26.66	0.586	372.65	0.14
26.66	0.691	372.68	0.14
26.66	0.702	372.7	0.14
26.66	0.79	372.97	0.14
26.66	0.9	373.85	0.13
26.66	1	375.63	0.13
53.33	0	404.24	0.18
53.33	0.127	397.92	0.18
53.33	0.206	395.86	0.18
53.33	0.298	393.92	0.17
53.33	0.386	392.88	0.17
53.33	0.48	392.09	0.17
53.33	0.586	391.36	0.17
53.33	0.691	391.17	0.25
53.33	0.702	391.07	0.26
53.33	0.79	391.13	0.16
53.33	0.9	391.65	0.16
53.33	1	392.7	0.16
79.99	0	417.99	0.18
79.99	0.127	411.46	0.19
79.99	0.206	409.12	0.18
79.99	0.298	406.83	0.18
79.99	0.386	405.48	0.17
79.99	0.48	404.42	0.17
79.99	0.586	403.48	0.17
79.99	0.691	403.13	0.18
79.99	0.702	403.01	0.18
79.99	0.79	402.92	0.16
79.99	0.9	403.1	0.16
79.99	1	403.8	0.16
101.32	0	426.54	0.19
101.32	0.127	419.85	0.2
101.32	0.206	417.38	0.19
101.32	0.298	414.89	0.19
101.32	0.386	413.41	0.18
101.32	0.48	412.15	0.18
101.32	0.586	411.06	0.18
101.32	0.691	410.56	0.17
101.32	0.702	410.4	0.17
101.32	0.79	410.2	0.17
101.32	0.9	410.24	0.17
101.32	1	410.86	0.17

System: pentan-1-ol + anisole + nonane; phases: Liquid, Gas
Property: Boiling temperature at pressure P, K (Liquid); method: Ebulliometric method (Recirculating still)
Pressure, kPa	Mole fraction of pentan-1-ol	Mole fraction of nonane	Boiling temperature at pressure P, K	uncertainty
26.66	0.105	0.597	371.37	0.15
26.66	0.117	0.117	374.58	0.15
26.66	0.118	0.236	372.81	0.15
26.66	0.124	0.752	370.48	0.14
26.66	0.179	0.462	369.85	0.14
26.66	0.22	0.11	372.41	0.15
26.66	0.225	0.549	369.1	0.14
26.66	0.241	0.278	370.07	0.14
26.66	0.297	0.594	368.78	0.14
26.66	0.319	0.16	370.62	0.14
26.66	0.319	0.362	368.85	0.14
26.66	0.4	0.4	368.27	0.14
26.66	0.42	0.159	369.88	0.14
26.66	0.43	0.285	368.67	0.14
26.66	0.461	0.46	368.04	0.14
26.66	0.509	0.327	368.28	0.14
26.66	0.558	0.221	368.7	0.14
26.66	0.606	0.303	368.33	0.14
26.66	0.714	0.143	369.66	0.14
53.33	0.105	0.597	392.11	0.18
53.33	0.117	0.117	395.44	0.18
53.33	0.118	0.236	393.52	0.18
53.33	0.124	0.752	390.96	0.18
53.33	0.179	0.462	390.03	0.17
53.33	0.22	0.11	392.64	0.18
53.33	0.225	0.549	388.88	0.18
53.33	0.241	0.278	390.02	0.18
53.33	0.297	0.594	388.12	0.17
53.33	0.319	0.16	390.33	0.17
53.33	0.319	0.362	388.35	0.17
53.33	0.4	0.4	387.41	0.17
53.33	0.42	0.159	389.22	0.17
53.33	0.43	0.285	387.93	0.17
53.33	0.461	0.46	386.95	0.17
53.33	0.509	0.327	387.18	0.17
53.33	0.558	0.221	387.6	0.17
53.33	0.606	0.303	386.94	0.17
53.33	0.714	0.143	388.15	0.17
79.99	0.105	0.597	405.67	0.18
79.99	0.117	0.117	408.86	0.18
79.99	0.118	0.236	406.98	0.18
79.99	0.124	0.752	404.51	0.18
79.99	0.179	0.462	403.21	0.18
79.99	0.22	0.11	405.77	0.18
79.99	0.225	0.549	401.88	0.18
79.99	0.241	0.278	403.02	0.18
79.99	0.297	0.594	400.75	0.17
79.99	0.319	0.16	403.18	0.17
79.99	0.319	0.362	401.1	0.17
79.99	0.4	0.4	399.84	0.17
79.99	0.42	0.159	401.81	0.17
79.99	0.43	0.285	400.41	0.17
79.99	0.461	0.46	399.2	0.17
79.99	0.509	0.327	399.45	0.17
79.99	0.558	0.221	399.84	0.17
79.99	0.606	0.303	399	0.17
79.99	0.714	0.143	400.11	0.17
101.32	0.105	0.597	414.2	0.19
101.32	0.117	0.117	417.3	0.19
101.32	0.118	0.236	415.48	0.19
101.32	0.124	0.752	413.02	0.19
101.32	0.179	0.462	411.44	0.18
101.32	0.22	0.11	414	0.19
101.32	0.225	0.549	410.05	0.19
101.32	0.241	0.278	411.15	0.18
101.32	0.297	0.594	408.75	0.18
101.32	0.319	0.16	411.19	0.18
101.32	0.319	0.362	409.08	0.19
101.32	0.4	0.4	407.63	0.18
101.32	0.42	0.159	409.63	0.18
101.32	0.43	0.285	408.18	0.18
101.32	0.461	0.46	406.78	0.17
101.32	0.509	0.327	407.08	0.17
101.32	0.558	0.221	407.43	0.17
101.32	0.606	0.303	406.52	0.17
101.32	0.714	0.143	407.56	0.17
