Measured thermophysical data. Volumetric and Viscosity Properties of MgSO4/CuSO4 in Sucrose + Water Solutions at 298.15 K
Source: J. Chem. Eng. Data, 2008, 10.1021/je700732u
Compound 1: sodium chloride, ClNa, InChI=1S/ClH.Na/h1H;/q;+1/p-1
Compound 2: sodium sulfate, Na2O4S, InChI=1S/2Na.H2O4S/c;;1-5(2,3)4/h;;(H2,1,2,3,4)/q2*+1;/p-2
Compound 3: magnesium sulfate, MgO4S, InChI=1S/Mg.H2O4S/c;1-5(2,3)4/h;(H2,1,2,3,4)/q+2;/p-2
Compound 4: copper sulfate, CuO4S, InChI=1S/Cu.H2O4S/c;1-5(2,3)4/h;(H2,1,2,3,4)/q+2;/p-2
Compound 5: water, H2O, InChI=1S/H2O/h1H2
Compound 6: magnesium chloride, Cl2Mg, InChI=1S/2ClH.Mg/h2*1H;/q;;+2/p-2
Compound 7: copper chloride, Cl2Cu, InChI=1S/2ClH.Cu/h2*1H;/q;;+2/p-2
Compound 8: D-sucrose, C12H22O11, InChI=1S/C12H22O11/c13-1-4-6(16)8(18)9(19)11(21-4)23-12(3-15)10(20)7(17)5(2-14)22-12/h4-11,13-20H,1-3H2/t4-,5-,6-,7-,8+,9-,10+,11-,12+/m1/s1

System: magnesium sulfate + water; phases: Liquid
Fixed: Temperature, K = 298.15
Fixed: Pressure, kPa = 101
Property: Mass density, kg/m3 (Liquid); method: VIBTUB:UFactor:4
Molality, mol/kg of magnesium sulfate	Mass density, kg/m3	uncertainty
0.05	1003.144	0.18
0.1	1009.13	0.194
0.2	1020.83	0.228
0.3	1032.431	0.266
0.4	1043.794	0.306
0.5	1055.112	0.348

System: magnesium sulfate + water; phases: Liquid
Fixed: Temperature, K = 298.15
Fixed: Pressure, kPa = 101
Property: Viscosity, Pa*s (Liquid); method: CAPTUB::UFactor:4
Amount concentration (molarity), mol/dm3 of magnesium sulfate	Viscosity, Pa*s	uncertainty
0.04787	0.0009216	2.32e-05
0.09971	0.0009527	2.39e-05
0.19937	0.0010158	2.53e-05
0.29893	0.0010831	2.68e-05
0.39834	0.0011552	2.84e-05
0.49761	0.0012336	3.01e-05

System: water + copper sulfate; phases: Liquid
Fixed: Temperature, K = 298.15
Fixed: Pressure, kPa = 101
Property: Mass density, kg/m3 (Liquid); method: VIBTUB:UFactor:4
Molality, mol/kg of copper sulfate	Mass density, kg/m3	uncertainty
0.05	1005.22	0.185
0.1	1013.293	0.205
0.2	1029.162	0.255
0.3	1044.868	0.311
0.4	1060.401	0.369
0.5	1075.777	0.429

System: water + copper sulfate; phases: Liquid
Fixed: Temperature, K = 298.15
Fixed: Pressure, kPa = 101
Property: Viscosity, Pa*s (Liquid); method: CAPTUB::UFactor:4
Amount concentration (molarity), mol/dm3 of copper sulfate	Viscosity, Pa*s	uncertainty
0.04986	0.0009222	2.33e-05
0.09974	0.0009516	2.39e-05
0.19947	0.0010128	2.52e-05
0.29914	0.0010827	2.68e-05
0.39871	0.0011473	2.82e-05
0.49814	0.0012225	2.98e-05

System: D-sucrose + water; phases: Liquid
Fixed: Temperature, K = 298.15
Fixed: Pressure, kPa = 101
Property: Viscosity, Pa*s (Liquid); method: CAPTUB:UFactor:4
Molality, mol/kg of D-sucrose	Viscosity, Pa*s	uncertainty
0.2	0.0010641	2.64e-05
0.4	0.0012769	3.11e-05
0.6	0.0015326	3.68e-05
0.8	0.0018425	4.39e-05
1	0.0022411	5.29e-05
1.2	0.0026382	6.19e-05

System: D-sucrose + water; phases: Liquid
Fixed: Temperature, K = 298.15
Fixed: Pressure, kPa = 101
Property: Mass density, kg/m3 (Liquid); method: VIBTUB::UFactor:6
Molality, mol/kg of D-sucrose	Mass density, kg/m3	uncertainty
0.2	1022.166	0.329
0.4	1045.255	0.411
0.6	1066.44	0.484
0.8	1086.042	0.552
1	1104.198	0.614
1.2	1121.03	0.676

System: water + sodium sulfate; phases: Liquid
Fixed: Temperature, K = 298.15
Fixed: Pressure, kPa = 101
Property: Mass density, kg/m3 (Liquid); method: VIBTUB::UFactor:6
Molality, mol/kg of sodium sulfate	Mass density, kg/m3	uncertainty
0.09205	1008.69	0.29
0.2001	1021.99	0.33
0.30003	1034.01	0.37
0.39992	1045.81	0.42
0.50013	1057.44	0.46

System: sodium chloride + water; phases: Liquid
Fixed: Temperature, K = 298.15
Fixed: Pressure, kPa = 101
Property: Mass density, kg/m3 (Liquid); method: VIBTUB::UFactor:6
Molality, mol/kg of sodium chloride	Mass density, kg/m3	uncertainty
0.04999	999.11	0.27
0.09999	1001.16	0.27
0.19989	1005.2	0.28
0.29987	1009.2	0.29
0.40021	1013.17	0.3

System: water + magnesium chloride; phases: Liquid
Fixed: Temperature, K = 298.15
Fixed: Pressure, kPa = 101
Property: Mass density, kg/m3 (Liquid); method: VIBTUB::UFactor:4
Molality, mol/kg of magnesium chloride	Mass density, kg/m3	uncertainty
0.09998	1004.88	0.22
0.20005	1012.54	0.24
0.30005	1020.07	0.25
0.40017	1027.51	0.28
0.49999	1034.83	0.3

System: copper chloride + water; phases: Liquid
Fixed: Temperature, K = 298.15
Fixed: Pressure, kPa = 101
Property: Mass density, kg/m3 (Liquid); method: VIBTUB:UFactor:6
Molality, mol/kg of copper chloride	Mass density, kg/m3	uncertainty
0.0498	1003.12	0.27
0.09962	1009.1	0.29
0.19919	1020.92	0.33
0.2988	1032.58	0.37
0.49805	1055.47	0.46

System: D-sucrose + magnesium sulfate + water; phases: Liquid
Fixed: Temperature, K = 298.15
Fixed: Pressure, kPa = 101
Property: Viscosity, Pa*s (Liquid); method: CAPTUB:UFactor:4
Molality, mol/kg of D-sucrose	Amount concentration (molarity), mol/dm3 of magnesium sulfate	Viscosity, Pa*s	uncertainty
0	0.04787	0.0009216	2.32e-05
0	0.09971	0.0009527	2.39e-05
0	0.19937	0.0010158	2.53e-05
0	0.29893	0.0010831	2.68e-05
0	0.39834	0.0011552	2.84e-05
0	0.49761	0.0012336	3.01e-05
0.2	0	0.0010641	2.64e-05
0.2	0.04783	0.0011047	2.73e-05
0.2	0.09566	0.001142	2.81e-05
0.2	0.19128	0.0012216	2.98e-05
0.2	0.28676	0.0013048	3.17e-05
0.2	0.38208	0.0013946	3.37e-05
0.2	0.47727	0.0014919	3.58e-05
0.4	0	0.0012769	3.11e-05
0.4	0.04642	0.0013274	3.22e-05
0.4	0.09192	0.0013722	3.32e-05
0.4	0.18376	0.0014695	3.54e-05
0.4	0.27549	0.0015815	3.78e-05
0.4	0.36707	0.0016864	4.02e-05
0.4	0.45848	0.0018081	4.29e-05
0.6	0	0.0015326	3.68e-05
0.6	0.0451	0.0015948	3.82e-05
0.6	0.08845	0.0016511	3.95e-05
0.6	0.17682	0.0017732	4.22e-05
0.6	0.26507	0.0019008	4.5e-05
0.6	0.35321	0.0020411	4.81e-05
0.6	0.4411	0.0021912	5.16e-05
0.8	0	0.0018425	4.39e-05
0.8	0.04262	0.0019176	4.55e-05
0.8	0.08523	0.0019878	4.71e-05
0.8	0.17037	0.0021368	5.04e-05
0.8	0.25539	0.002299	5.41e-05
0.8	0.34025	0.0024683	5.79e-05
0.8	0.42545	0.0026606	6.23e-05
1	0	0.0022411	5.29e-05
1	0.04112	0.002286	5.4e-05
1	0.08223	0.0023733	5.59e-05
1	0.16437	0.0025534	6e-05
1	0.24638	0.0027498	6.45e-05
1	0.32826	0.0029582	6.92e-05
1	0.41273	0.0031981	7.45e-05
1.2	0	0.0026382	6.19e-05
1.2	0.03972	0.0027479	6.45e-05
1.2	0.07943	0.0028544	6.7e-05
1.2	0.15876	0.0030782	7.21e-05
1.2	0.23797	0.0033204	7.77e-05
1.2	0.31705	0.0035813	8.37e-05
1.2	0.39597	0.0038608	9e-05

System: D-sucrose + magnesium sulfate + water; phases: Liquid
Fixed: Temperature, K = 298.15
Fixed: Pressure, kPa = 101
Property: Mass density, kg/m3 (Liquid); method: VIBTUB:UFactor:6
Molality, mol/kg of D-sucrose	Molality, mol/kg of magnesium sulfate	Mass density, kg/m3	uncertainty
0.2	0	1022.166	0.329
0.2	0.05	1027.947	0.322
0.2	0.1	1033.635	0.337
0.2	0.20017	1044.81	0.371
0.2	0.3	1055.807	0.407
0.2	0.4	1066.581	0.445
0.2	0.5	1077.327	0.486
0.4	0	1045.255	0.411
0.4	0.05	1050.71	0.404
0.4	0.1	1056.118	0.416
0.4	0.2	1066.726	0.444
0.4	0.3	1077.188	0.475
0.4	0.4	1087.514	0.508
0.4	0.5	1097.699	0.539
0.6	0	1066.44	0.484
0.6	0.05	1071.667	0.48
0.6	0.1	1076.823	0.491
0.6	0.2	1086.955	0.515
0.6	0.3	1096.94	0.541
0.6	0.40807	1107.711	0.572
0.6	0.5	1116.492	0.595
0.8	0	1086.042	0.552
0.8	0.05	1091.03	0.55
0.8	0.1	1095.957	0.559
0.8	0.2	1105.632	0.579
0.8	0.3	1115.159	0.602
0.8	0.4	1124.516	0.626
0.8	0.5	1133.862	0.651
1	0	1104.198	0.614
1	0.05001	1108.951	0.614
1	0.10003	1113.672	0.614
1	0.2	1122.922	0.614
1	0.3	1132.05	0.658
1	0.4	1141.066	0.68
1	0.5	1149.949	0.701
1.2	0	1121.03	0.676
1.2	0.05	1125.591	0.677
1.2	0.1	1130.117	0.683
1.2	0.2	1138.981	0.698
1.2	0.3	1147.724	0.716
1.2	0.4	1156.363	0.734
1.2	0.5	1164.888	0.755

System: D-sucrose + water + copper sulfate; phases: Liquid
Fixed: Temperature, K = 298.15
Fixed: Pressure, kPa = 101
Property: Viscosity, Pa*s (Liquid); method: CAPTUB:UFactor:4
Molality, mol/kg of D-sucrose	Amount concentration (molarity), mol/dm3 of copper sulfate	Viscosity, Pa*s	uncertainty
0	0.04986	0.0009222	2.33e-05
0	0.09974	0.0009516	2.39e-05
0	0.19947	0.0010128	2.52e-05
0	0.29914	0.0010827	2.68e-05
0	0.39871	0.0011473	2.82e-05
0	0.49814	0.0012225	2.98e-05
0.2	0.04784	0.0011031	2.72e-05
0.2	0.09569	0.0011394	2.8e-05
0.2	0.19135	0.0012166	2.97e-05
0.2	0.28695	0.0013031	3.16e-05
0.2	0.38242	0.0013844	3.34e-05
0.2	0.47779	0.0014761	3.55e-05
0.4	0.04597	0.0013236	3.21e-05
0.4	0.09194	0.0013696	3.31e-05
0.4	0.18385	0.0014641	3.52e-05
0.4	0.27567	0.00157	3.76e-05
0.4	0.36739	0.0016847	4.01e-05
0.4	0.45895	0.0017857	4.24e-05
0.6	0.04424	0.0015914	3.81e-05
0.6	0.08847	0.0016462	3.94e-05
0.6	0.1769	0.001764	4.2e-05
0.6	0.26523	0.0018971	4.49e-05
0.6	0.35346	0.0020188	4.77e-05
0.6	0.44154	0.0021584	5.08e-05
0.8	0.0422	0.0019132	4.54e-05
0.8	0.08525	0.0019827	4.7e-05
0.8	0.17045	0.002126	5.02e-05
0.8	0.25554	0.0022894	5.38e-05
0.8	0.34054	0.0024482	5.75e-05
0.8	0.42769	0.002624	6.13e-05
1	0.04113	0.0023023	5.43e-05
1	0.08225	0.0023647	5.57e-05
1	0.16443	0.002537	5.96e-05
1	0.24653	0.0027245	6.39e-05
1	0.3285	0.0029317	6.86e-05
1	0.41035	0.0031304	7.34e-05
1.2	0.03973	0.0027449	6.44e-05
1.2	0.07945	0.0028468	6.68e-05
1.2	0.15882	0.0030599	7.17e-05
1.2	0.23811	0.0033035	7.73e-05
1.2	0.31728	0.0035432	8.27e-05
1.2	0.39632	0.0037969	8.86e-05

System: D-sucrose + water + copper sulfate; phases: Liquid
Fixed: Temperature, K = 298.15
Fixed: Pressure, kPa = 101
Property: Mass density, kg/m3 (Liquid); method: VIBTUB:UFactor:4
Molality, mol/kg of D-sucrose	Molality, mol/kg of copper sulfate	Mass density, kg/m3	uncertainty
0.2	0.05	1029.94	0.24
0.2	0.1	1037.64	0.26
0.2	0.2	1052.79	0.3
0.2	0.3	1067.78	0.35
0.2	0.4	1082.53	0.4
0.2	0.5	1097.26	0.45
0.4	0.05	1052.66	0.32
0.4	0.1	1059.98	0.33
0.4	0.2	1074.46	0.36
0.4	0.3	1088.7	0.4
0.4	0.4	1102.85	0.44
0.4	0.5	1116.82	0.48
0.6	0.05	1073.56	0.38
0.6	0.1	1080.55	0.39
0.6	0.2	1094.4	0.4
0.6	0.3	1108.02	0.45
0.6	0.4	1121.54	0.48
0.6	0.5	1134.91	0.52
0.8	0.05	1092.791	0.443
0.8	0.1	1099.534	0.451
0.8	0.2	1112.806	0.471
0.8	0.3	1125.863	0.497
0.8	0.4	1138.82	0.53
0.8	0.5	1151.628	0.556
1	0.05	1110.68	0.5
1	0.1	1117.13	0.5
1	0.2	1129.83	0.52
1	0.3	1142.39	0.54
1	0.4	1154.81	0.57
1	0.5	1167.11	0.59
1.2	0.04996	1127.267	0.555
1.2	0.1	1133.462	0.559
1.2	0.2	1145.658	0.571
1.2	0.3	1157.721	0.588
1.2	0.4	1169.665	0.609
1.2	0.5	1181.475	0.634

System: D-sucrose + water + sodium sulfate; phases: Liquid
Fixed: Temperature, K = 298.15
Fixed: Pressure, kPa = 101
Property: Mass density, kg/m3 (Liquid); method: VIBTUB:UFactor:6
Molality, mol/kg of D-sucrose	Molality, mol/kg of sodium sulfate	Mass density, kg/m3	uncertainty
0	0.09205	1008.69	0.29
0	0.2001	1021.99	0.33
0	0.30003	1034.01	0.37
0	0.39992	1045.81	0.42
0	0.50013	1057.44	0.46
0.2	0.09926	1034.02	0.34
0.2	0.20024	1045.75	0.37
0.2	0.30001	1057.11	0.41
0.2	0.4038	1068.65	0.45
0.2	0.50126	1079.4	0.49
0.6	0.05146	1072.01	0.49
0.6	0.10261	1077.45	0.49
0.6	0.20105	1087.74	0.52
0.6	0.40222	1108.16	0.57
0.6	0.49922	1117.76	0.59
1	0.09997	1113.89	0.63
1	0.20014	1123.38	0.65
1	0.29836	1132.51	0.68
1	0.40149	1141.95	0.69
1	0.49912	1150.73	0.71
1.2	0.10116	1130.42	0.68
1.2	0.20223	1139.58	0.7
1.2	0.30037	1148.3	0.72
1.2	0.40041	1157.06	0.74
1.2	0.49902	1165.55	0.76

System: D-sucrose + sodium chloride + water; phases: Liquid
Fixed: Temperature, K = 298.15
Fixed: Pressure, kPa = 101
Property: Mass density, kg/m3 (Liquid); method: VIBTUB:UFactor:6
Molality, mol/kg of D-sucrose	Molality, mol/kg of sodium chloride	Mass density, kg/m3	uncertainty
0	0.04999	999.11	0.27
0	0.09999	1001.16	0.27
0	0.19989	1005.2	0.28
0	0.29987	1009.2	0.29
0	0.40021	1013.17	0.3
0.2	0.10081	1026.05	0.32
0.2	0.20064	1029.84	0.32
0.2	0.29928	1033.54	0.33
0.2	0.40112	1037.33	0.35
0.2	0.50036	1041.01	0.36
0.6	0.05273	1068.25	0.48
0.6	0.2173	1073.8	0.48
0.6	0.30381	1076.69	0.48
0.6	0.39968	1079.86	0.49
0.6	0.49891	1083.1	0.5
1	0.25359	1111.87	0.63
1	0.34546	1114.6	0.61
1	0.46797	1118.21	0.62
1	0.53922	1120.3	0.65
1	0.58212	1121.54	0.65
1.2	0.10847	1124.22	0.69
1.2	0.202	1126.9	0.68
1.2	0.30667	1129.87	0.68
1.2	0.39566	1132.37	0.69
1.2	0.49183	1135.05	0.69

System: D-sucrose + water + magnesium chloride; phases: Liquid
Fixed: Temperature, K = 298.15
Fixed: Pressure, kPa = 101
Property: Mass density, kg/m3 (Liquid); method: VIBTUB:UFactor:4
Molality, mol/kg of D-sucrose	Molality, mol/kg of magnesium chloride	Mass density, kg/m3	uncertainty
0	0.09998	1004.88	0.22
0	0.20005	1012.54	0.24
0	0.30005	1020.07	0.25
0	0.40017	1027.51	0.28
0	0.49999	1034.83	0.3
0.2	0.04971	1025.87	0.23
0.2	0.10137	1029.67	0.24
0.2	0.19989	1036.82	0.26
0.2	0.4013	1051.08	0.3
0.2	0.501	1058.01	0.31
0.6	0.10329	1073.33	0.38
0.6	0.20141	1079.74	0.39
0.6	0.30052	1086.12	0.41
0.6	0.40185	1092.55	0.42
0.6	0.49842	1098.6	0.42
1	0.10085	1110.29	0.52
1	0.20006	1116.19	0.51
1	0.29849	1121.95	0.52
1	0.40204	1127.92	0.53
1	0.49933	1133.45	0.53
1.2	0.05036	1123.95	0.55
1.2	0.20613	1132.82	0.56
1.2	0.31372	1138.83	0.56
1.2	0.41441	1144.38	0.57
1.2	0.51123	1149.66	0.58

System: D-sucrose + copper chloride + water; phases: Liquid
Fixed: Temperature, K = 298.15
Fixed: Pressure, kPa = 101
Property: Mass density, kg/m3 (Liquid); method: VIBTUB:UFactor:6
Molality, mol/kg of D-sucrose	Molality, mol/kg of copper chloride	Mass density, kg/m3	uncertainty
0	0.0498	1003.12	0.27
0	0.09962	1009.1	0.29
0	0.19919	1020.92	0.33
0	0.2988	1032.58	0.37
0	0.49805	1055.47	0.46
0.2	0.05198	1028.16	0.32
0.2	0.09941	1033.57	0.33
0.2	0.19982	1044.85	0.37
0.2	0.29886	1055.84	0.41
0.2	0.50053	1077.78	0.49
0.6	0.10161	1077.02	0.49
0.6	0.2025	1087.34	0.51
0.6	0.29948	1097.12	0.54
0.6	0.40248	1107.39	0.57
0.6	0.50156	1117.14	0.59
1	0.04905	1108.89	0.6
1	0.09986	1113.71	0.63
1	0.29866	1132.21	0.67
1	0.40433	1141.85	0.69
1	0.49932	1150.42	0.71
1.2	0.05294	1125.9	0.68
1.2	0.20886	1139.97	0.72
1.2	0.30274	1148.29	0.72
1.2	0.40348	1157.13	0.74
1.2	0.51254	1166.54	0.76
