Measured thermophysical data. Temperature and Pressure Dependence of the Viscosity of the Ionic Liquids 1-Hexyl-3-methylimidazolium Hexafluorophosphate and 1-Butyl-3-methylimidazolium Bis(trifluoromethylsulfonyl)imide
Source: J. Chem. Eng. Data, 2007, 10.1021/je700032n
Compound 1: 1-hexyl-3-methylimidazolium hexafluorophosphate, C10H19F6N2P, InChI=1S/C10H19N2.F6P/c1-3-4-5-6-7-12-9-8-11(2)10-12;1-7(2,3,4,5)6/h8-10H,3-7H2,1-2H3;/q+1;-1
Compound 2: 1-butyl-3-methylimidazolium bis(trifluoromethylsulfonyl)imide, C10H15F6N3O4S2, InChI=1S/C8H15N2.C2F6NO4S2/c1-3-4-5-10-7-6-9(2)8-10;3-1(4,5)14(10,11)9-15(12,13)2(6,7)8/h6-8H,3-5H2,1-2H3;/q+1;-1

System: 1-hexyl-3-methylimidazolium hexafluorophosphate; phases: Liquid
Fixed: Pressure, kPa = 101.325
Property: Mass density, kg/m3 (Liquid); method: Vibrating tube method
Temperature, K	Mass density, kg/m3	uncertainty
273.15	1313.39	9.41
278.15	1309.33	9.35
283.15	1305.29	9.29
288.15	1301.26	9.23
293.15	1297.24	9.18
298.15	1293.22	9.12
303.15	1289.21	9.06
313.15	1281.17	8.95
323.15	1273.44	8.84
333.15	1265.68	8.73
333.15	1265.69	8.73
343.15	1257.96	8.62
353.15	1250.28	8.52
363.15	1242.64	8.41

System: 1-hexyl-3-methylimidazolium hexafluorophosphate; phases: Liquid
Property: Viscosity, Pa*s (Liquid); method: Falling or rolling sphere viscometry
Temperature, K	Pressure, kPa	Viscosity, Pa*s	uncertainty
273.15	100	3.924	0.587
278.15	100	2.428	0.326
283.15	100	1.566	0.188
283.15	100	1.565	0.188
288.15	100	1.036	0.11
288.15	100	1.035	0.11
293.15	100	0.7051	0.0661
293.15	100	0.7051	0.0661
298.15	100	0.4965	0.0409
298.15	22000	0.6853	0.063
298.15	42100	0.9177	0.0931
298.15	60300	1.19	0.131
298.15	80300	1.572	0.187
298.15	100100	2.064	0.264
298.15	100	0.4964	0.0409
303.15	100	0.3569	0.0255
303.15	100	0.3568	0.0255
313.15	100	0.197	0.0107
313.15	400	0.1973	0.0107
313.15	25700	0.2767	0.0179
313.15	50800	0.3818	0.028
313.15	76000	0.5219	0.0445
313.15	101400	0.7083	0.0671
313.15	125200	0.9393	0.0961
313.15	150000	1.254	0.14
313.15	100	0.197	0.0107
323.15	100	0.1192	0.0051
323.15	7600	0.1183	0.005
323.15	25800	0.1617	0.0081
323.15	50600	0.2171	0.0121
323.15	76000	0.2907	0.019
323.15	100900	0.384	0.0287
323.15	125800	0.5039	0.0416
323.15	150100	0.655	0.0593
323.15	174800	0.8501	0.084
323.15	100	0.117	0.005
323.15	100	0.117	0.005
333.15	100	0.0752	0.0027
333.15	40500	0.1185	0.005
333.15	80800	0.1828	0.0095
333.15	120800	0.2757	0.0175
333.15	160600	0.4087	0.0308
333.15	200100	0.5989	0.0524
333.15	100	0.0744	0.0026
333.15	100	0.0744	0.0026
343.15	100	0.0497	0.0017
343.15	100	0.0497	0.0017
348.15	100	0.0413	0.0014
348.15	800	0.0419	0.0014
348.15	40700	0.0637	0.0022
348.15	80800	0.0942	0.0037
348.15	120700	0.1364	0.0063
348.15	160600	0.1948	0.0106
348.15	200200	0.2745	0.0177
348.15	238500	0.378	0.0278
353.15	100	0.0348	0.0012
353.15	100	0.0348	0.0012

System: 1-butyl-3-methylimidazolium bis(trifluoromethylsulfonyl)imide; phases: Liquid
Fixed: Pressure, kPa = 101.325
Property: Mass density, kg/m3 (Liquid); method: Vibrating tube method
Temperature, K	Mass density, kg/m3	uncertainty
273.15	1460.67	11.66
278.15	1455.84	11.58
283.15	1451.04	11.51
288.15	1446.23	11.43
293.15	1441.43	11.35
293.15	1441.42	11.35
298.15	1436.64	11.28
298.15	1436.6	11.28
303.15	1431.86	11.2
313.15	1422.34	11.05
323.15	1412.87	10.9
323.15	1412.85	10.9
333.15	1403.48	10.76
343.15	1394.15	10.62
353.15	1384.88	10.47
363.15	1375.67	10.33

System: 1-butyl-3-methylimidazolium bis(trifluoromethylsulfonyl)imide; phases: Liquid
Property: Viscosity, Pa*s (Liquid); method: Falling or rolling sphere viscometry
Temperature, K	Pressure, kPa	Viscosity, Pa*s	uncertainty
273.15	100	0.1913	0.0102
273.150001	100	0.1916	0.0102
278.15	100	0.1404	0.0066
278.15	100	0.1404	0.0066
283.15	100	0.1061	0.0044
283.15	24300	0.1468	0.0069
283.15	49900	0.2058	0.0112
283.15	74100	0.2803	0.0178
288.15	100	0.0816	0.003
288.15	100	0.0816	0.003
293.15	100	0.0638	0.0022
293.15	100	0.0639	0.0022
298.15	100	0.0509	0.0017
298.15	24300	0.0681	0.0023
298.15	49300	0.0909	0.0034
298.15	76900	0.124	0.0054
298.15	101500	0.1615	0.0078
298.15	126400	0.2103	0.0115
298.15	150200	0.2694	0.0168
298.15	100	0.051	0.0017
298.15	100	0.0511	0.0017
303.15	100	0.0415	0.0014
303.15	100	0.0415	0.0014
313.15	100	0.0285	0.001
313.15	100	0.0285	0.001
323.15	100	0.0205	0.0007
323.15	26400	0.0269	0.0009
323.15	35600	0.0292	0.001
323.15	52000	0.0346	0.0012
323.15	53900	0.0348	0.0012
323.15	69800	0.0402	0.0014
323.15	75000	0.0416	0.0015
323.15	101600	0.0539	0.0023
323.15	103600	0.0544	0.0023
323.15	123600	0.0643	0.0022
323.15	152800	0.0836	0.0031
323.15	200300	0.1232	0.0053
323.15	226000	0.1512	0.0071
323.15	249600	0.1832	0.0094
323.15	100	0.0205	0.0007
323.15	100	0.0206	0.0007
323.15	100	0.0206	0.0007
323.15	100	0.0207	0.0007
333.15	100	0.0154	0.0005
333.15	100	0.0155	0.0005
343.15	100	0.012	0.0004
343.15	100	0.012	0.0004
348.15	100	0.0106	0.0004
348.15	800	0.0107	0.0004
348.15	25700	0.0134	0.0005
348.15	50700	0.0164	0.0006
348.15	75600	0.0199	0.0007
348.15	100900	0.0242	0.0008
348.15	125500	0.029	0.001
348.15	150600	0.0346	0.0012
348.15	175400	0.0409	0.0014
348.15	175600	0.041	0.0014
348.15	200600	0.0486	0.0017
348.15	225400	0.0574	0.002
348.15	249700	0.0673	0.0024
348.15	274500	0.079	0.0029
348.15	298900	0.0926	0.0036
348.15	100	0.0107	0.0004
353.15	100	0.00953	0.00032
353.15	100	0.00953	0.00032
