Measured thermophysical data. Liquid-Liquid Equilibria for Systems Composed by 1-Methyl-3-octylimidazolium Tetrafluoroborate Ionic Liquid, Thiophene, and n-Hexane or Cyclohexane
Source: J. Chem. Eng. Data, 2007, 10.1021/je700126z
Compound 1: hexane, C6H14, InChI=1S/C6H14/c1-3-5-6-4-2/h3-6H2,1-2H3, purity 99%
Compound 2: cyclohexane, C6H12, InChI=1S/C6H12/c1-2-4-6-5-3-1/h1-6H2, purity 99.5%
Compound 3: 1-methyl-3-octylimidazolium tetrafluoroborate, C12H23BF4N2, InChI=1S/C12H23N2.BF4/c1-3-4-5-6-7-8-9-14-11-10-13(2)12-14;2-1(3,4)5/h10-12H,3-9H2,1-2H3;/q+1;-1
Compound 4: thiophene, C4H4S, InChI=1S/C4H4S/c1-2-4-5-3-1/h1-4H, purity 99.5%

System: hexane; phases: Liquid
Property: Refractive index (Na D-line) (Liquid); method: Standard Abbe refractometry
Temperature, K	Pressure, kPa	Refractive index (Na D-line)	uncertainty
298.15	101.325	1.37287	0.00068

System: hexane; phases: Liquid
Property: Mass density, kg/m3 (Liquid); method: Vibrating tube method
Temperature, K	Pressure, kPa	Mass density, kg/m3	uncertainty
298.15	101.325	655.06	0.19

System: cyclohexane; phases: Liquid
Property: Refractive index (Na D-line) (Liquid); method: Standard Abbe refractometry
Temperature, K	Pressure, kPa	Refractive index (Na D-line)	uncertainty
298.15	101.325	1.42403	0.0007

System: cyclohexane; phases: Liquid
Property: Mass density, kg/m3 (Liquid); method: Vibrating tube method
Temperature, K	Pressure, kPa	Mass density, kg/m3	uncertainty
298.15	101.325	773.76	0.24

System: 1-methyl-3-octylimidazolium tetrafluoroborate; phases: Liquid
Property: Refractive index (Na D-line) (Liquid); method: Standard Abbe refractometry
Temperature, K	Pressure, kPa	Refractive index (Na D-line)	uncertainty
298.15	101.325	1.43329	0.00121

System: 1-methyl-3-octylimidazolium tetrafluoroborate; phases: Liquid
Property: Mass density, kg/m3 (Liquid); method: Vibrating tube method
Temperature, K	Pressure, kPa	Mass density, kg/m3	uncertainty
298.15	101.325	1104.42	6.62

System: thiophene; phases: Liquid
Property: Refractive index (Na D-line) (Liquid); method: Standard Abbe refractometry
Temperature, K	Pressure, kPa	Refractive index (Na D-line)	uncertainty
298.15	101.325	1.52581	0.00068

System: thiophene; phases: Liquid
Property: Mass density, kg/m3 (Liquid); method: Vibrating tube method
Temperature, K	Pressure, kPa	Mass density, kg/m3	uncertainty
298.15	101.325	1058.5	0.12

System: thiophene + hexane + 1-methyl-3-octylimidazolium tetrafluoroborate; phases: Liquid mixture 1, Liquid mixture 2
Fixed: Temperature, K = 298.15
Fixed: Pressure, kPa = 101
Property: Mole fraction of hexane (Liquid mixture 1); method: Chromatography
Property: Mole fraction of hexane (Liquid mixture 2); method: Chromatography
Property: Mole fraction of thiophene (Liquid mixture 2); method: Chromatography
Mole fraction of thiophene	Mole fraction of hexane	uncertainty	Mole fraction of hexane	uncertainty	Mole fraction of thiophene	uncertainty
0	1	0.001	0.145	0.01	0	
0.065	0.935	0.011	0.141	0.01	0.182	
0.218	0.782	0.011	0.137	0.01	0.339	
0.302	0.698	0.012	0.135	0.01	0.433	
0.36	0.64	0.012	0.13	0.01	0.491	
0.444	0.556	0.012	0.131	0.01	0.55	
0.518	0.482	0.012	0.13	0.01	0.595	
0.607	0.393	0.012	0.123	0.01	0.646	
0.666	0.334	0.012	0.118	0.01	0.667	
0.725	0.275	0.011	0.111	0.01	0.706	
0.826	0.174	0.011	0.09	0.011	0.775	
0.912	0.088	0.011	0.061	0.012	0.827	
1	0	0.001	0	0.001	0.9	

System: thiophene + cyclohexane + 1-methyl-3-octylimidazolium tetrafluoroborate; phases: Liquid mixture 2, Liquid mixture 1
Fixed: Temperature, K = 298.15
Fixed: Pressure, kPa = 101
Property: Mole fraction of thiophene (Liquid mixture 2); method: Chromatography
Property: Mole fraction of 1-methyl-3-octylimidazolium tetrafluoroborate (Liquid mixture 1); method: Chromatography
Property: Mole fraction of thiophene (Liquid mixture 1); method: Chromatography
Mole fraction of 1-methyl-3-octylimidazolium tetrafluoroborate	Mole fraction of thiophene	uncertainty	Mole fraction of 1-methyl-3-octylimidazolium tetrafluoroborate	uncertainty	Mole fraction of thiophene	uncertainty
0.792	0	0.001	0.052	0.008	0	
0.676	0.126	0.015	0.048	0.008	0.066	
0.591	0.22	0.015	0.045	0.008	0.125	
0.47	0.348	0.015	0.043	0.008	0.234	
0.349	0.483	0.015	0.042	0.008	0.376	
0.297	0.54	0.016	0.04	0.008	0.494	
0.233	0.619	0.017	0.033	0.008	0.606	
0.206	0.659	0.02	0.031	0.008	0.671	
0.142	0.776	0.022	0.024	0.008	0.81	
0.121	0.827	0.031	0.02	0.008	0.89	
0.1	0.9	0.036	0	0.001	1	
