Measured thermophysical data. Liquid-Liquid Equilibria for the Ternary Systems Water + 2-Propanol + Methyl Methacrylate, + Butyl Methacrylate, and + Isobutyl Methacrylate
Source: J. Chem. Eng. Data, 2007, 10.1021/je700118q
Compound 1: propan-2-ol, C3H8O, InChI=1S/C3H8O/c1-3(2)4/h3-4H,1-2H3
Compound 2: methyl methacrylate, C5H8O2, InChI=1S/C5H8O2/c1-4(2)5(6)7-3/h1H2,2-3H3
Compound 3: water, H2O, InChI=1S/H2O/h1H2
Compound 4: butyl 2-methyl-2-propenoate, C8H14O2, InChI=1S/C8H14O2/c1-4-5-6-10-8(9)7(2)3/h2,4-6H2,1,3H3
Compound 5: isobutyl methacrylate, C8H14O2, InChI=1S/C8H14O2/c1-6(2)5-10-8(9)7(3)4/h6H,3,5H2,1-2,4H3

System: propan-2-ol + methyl methacrylate + water; phases: Liquid mixture 2, Liquid mixture 1
Fixed: Pressure, kPa = 101
Property: Mole fraction of propan-2-ol (Liquid mixture 2); method: CHROM:UFactor:2
Property: Mole fraction of propan-2-ol (Liquid mixture 1); method: CHROM:UFactor:2
Property: Mole fraction of water (Liquid mixture 1); method: CHROM:UFactor:2
Temperature, K	Mole fraction of water	Mole fraction of propan-2-ol	uncertainty	Mole fraction of propan-2-ol	uncertainty	Mole fraction of water	uncertainty
288.15	0.9969	0	0.0001	0	0.0001	0.0559	
288.15	0.9801	0.0164	0.0004	0.0305	0.0008	0.0769	
288.15	0.9603	0.0359	0.0009	0.0981	0.0024	0.1274	
288.15	0.9539	0.0423	0.001	0.1308	0.0032	0.1611	
288.15	0.9414	0.0545	0.0013	0.1813	0.0044	0.2181	
288.15	0.9261	0.0688	0.0017	0.2265	0.0055	0.3158	
288.15	0.9169	0.0772	0.0019	0.2605	0.0064	0.4035	
288.15	0.9128	0.0805	0.002	0.2646	0.0065	0.4508	
288.15	0.9102	0.0823	0.002	0.2608	0.0064	0.5349	
288.15	0.8957	0.0932	0.0023	0.244	0.006	0.612	
318.15	0.9972	0	0.0001	0	0.0001	0.0778	
318.15	0.9863	0.0107	0.0003	0.0406	0.001	0.1076	
318.15	0.9718	0.0245	0.0006	0.1111	0.0027	0.1673	
318.15	0.9659	0.0301	0.0007	0.1386	0.0034	0.2062	
318.15	0.9574	0.0383	0.0009	0.1865	0.0046	0.2582	
318.15	0.9494	0.0456	0.0011	0.2292	0.0056	0.3448	
318.15	0.9366	0.0575	0.0014	0.2549	0.0062	0.432	
318.15	0.9329	0.0604	0.0015	0.2587	0.0063	0.4747	
318.15	0.9091	0.0802	0.002	0.2445	0.006	0.593	
318.15	0.9004	0.0865	0.0021	0.2183	0.0054	0.6691	

System: propan-2-ol + butyl 2-methyl-2-propenoate + water; phases: Liquid mixture 1, Liquid mixture 2
Fixed: Pressure, kPa = 101
Property: Mole fraction of propan-2-ol (Liquid mixture 1); method: CHROM:UFactor:2
Property: Mole fraction of propan-2-ol (Liquid mixture 2); method: CHROM:UFactor:2
Property: Mole fraction of water (Liquid mixture 2); method: CHROM:UFactor:2
Temperature, K	Mole fraction of water	Mole fraction of propan-2-ol	uncertainty	Mole fraction of propan-2-ol	uncertainty	Mole fraction of water	uncertainty
288.15	0.0513	0	0.0001	0	0.0001	1	
288.15	0.0714	0.0603	0.0015	0.0265	0.0007	0.9735	
288.15	0.0746	0.1016	0.0025	0.0358	0.0009	0.9642	
288.15	0.0921	0.1633	0.004	0.0544	0.0013	0.9456	
288.15	0.116	0.2267	0.0056	0.0642	0.0016	0.9359	
288.15	0.1529	0.2891	0.0071	0.0772	0.0019	0.9229	
288.15	0.1893	0.337	0.0083	0.0844	0.0021	0.9156	
288.15	0.2325	0.364	0.0089	0.0917	0.0022	0.9083	
288.15	0.2844	0.3877	0.0095	0.0982	0.0024	0.9018	
288.15	0.3082	0.3904	0.0096	0.1007	0.0025	0.8993	
318.15	0.0642	0	0.0001	0	0.0001	1	
318.15	0.0886	0.0777	0.0019	0.018	0.0004	0.982	
318.15	0.0918	0.1144	0.0028	0.0259	0.0006	0.9741	
318.15	0.1155	0.1824	0.0045	0.0356	0.0009	0.9644	
318.15	0.1386	0.2371	0.0058	0.0432	0.0011	0.9568	
318.15	0.1784	0.2972	0.0073	0.0534	0.0013	0.9466	
318.15	0.2156	0.3378	0.0083	0.0631	0.0015	0.9369	
318.15	0.264	0.3606	0.0088	0.0704	0.0017	0.9296	
318.15	0.3129	0.379	0.0093	0.0756	0.0019	0.9244	
318.15	0.3396	0.3812	0.0094	0.0784	0.0019	0.9216	

System: propan-2-ol + isobutyl methacrylate + water; phases: Liquid mixture 1, Liquid mixture 2
Fixed: Pressure, kPa = 101
Property: Mole fraction of propan-2-ol (Liquid mixture 1); method: CHROM:UFactor:2
Property: Mole fraction of propan-2-ol (Liquid mixture 2); method: CHROM:UFactor:2
Property: Mole fraction of water (Liquid mixture 2); method: CHROM:UFactor:2
Temperature, K	Mole fraction of water	Mole fraction of propan-2-ol	uncertainty	Mole fraction of propan-2-ol	uncertainty	Mole fraction of water	uncertainty
288.15	0.048	0	0.0001	0	0.0001	1	
288.15	0.0708	0.0656	0.0016	0.0272	0.0007	0.9728	
288.15	0.0721	0.1008	0.0025	0.0363	0.0009	0.9637	
288.15	0.088	0.1528	0.0037	0.0545	0.0013	0.9455	
288.15	0.1149	0.2219	0.0054	0.0634	0.0016	0.9366	
288.15	0.1563	0.289	0.0071	0.0767	0.0019	0.9234	
288.15	0.1968	0.335	0.0082	0.0847	0.0021	0.9153	
288.15	0.2393	0.3625	0.0089	0.0923	0.0023	0.9077	
288.15	0.2911	0.3858	0.0095	0.0968	0.0024	0.9032	
288.15	0.3107	0.3888	0.0095	0.0976	0.0024	0.9024	
318.15	0.0741	0	0.0001	0	0.0001	1	
318.15	0.0851	0.0832	0.002	0.018	0.0004	0.982	
318.15	0.0909	0.12	0.0029	0.0262	0.0006	0.9739	
318.15	0.1203	0.1813	0.0044	0.0353	0.0009	0.9647	
318.15	0.1424	0.2373	0.0058	0.045	0.0011	0.955	
318.15	0.1857	0.2958	0.0072	0.0531	0.0013	0.9469	
318.15	0.2223	0.3373	0.0083	0.0621	0.0015	0.9379	
318.15	0.251	0.3614	0.0089	0.0685	0.0017	0.9315	
318.15	0.3212	0.3782	0.0093	0.0762	0.0019	0.9238	
318.15	0.3678	0.3839	0.0094	0.086	0.0021	0.914	

System: methyl methacrylate + water; phases: Liquid mixture 2, Liquid mixture 1
Fixed: Pressure, kPa = 101
Property: Mole fraction of water (Liquid mixture 2); method: CHROM:UFactor:2
Temperature, K	Mole fraction of water	uncertainty
288.15	0.9969	
318.15	0.9972	

System: methyl methacrylate + water; phases: Liquid mixture 1, Liquid mixture 2
Fixed: Pressure, kPa = 101
Property: Mole fraction of water (Liquid mixture 1); method: CHROM:UFactor:2
Temperature, K	Mole fraction of water	uncertainty
288.15	0.0559	
318.15	0.0778	

System: butyl 2-methyl-2-propenoate + water; phases: Liquid mixture 1, Liquid mixture 2
Fixed: Pressure, kPa = 101
Property: Mole fraction of water (Liquid mixture 1); method: CHROM:UFactor:2
Temperature, K	Mole fraction of water	uncertainty
288.15	0.0513	
318.15	0.0642	

System: isobutyl methacrylate + water; phases: Liquid mixture 1, Liquid mixture 2
Fixed: Pressure, kPa = 101
Property: Mole fraction of water (Liquid mixture 1); method: CHROM:UFactor:2
Temperature, K	Mole fraction of water	uncertainty
288.15	0.048	
318.15	0.0741	
