Measured thermophysical data. 1-Butyl-3-methylimidazolium Tosylate Ionic Liquid: Heat Capacity, Thermal Stability, and Phase Equilibrium of Its Binary Mixtures with Water and Caprolactam
Source: J. Chem. Eng. Data, 2007, 10.1021/je700152c
Compound 1: water, H2O, InChI=1S/H2O/h1H2
Compound 2: 1-aza-2-cycloheptanone, C6H11NO, InChI=1S/C6H11NO/c8-6-4-2-1-3-5-7-6/h1-5H2,(H,7,8)
Compound 3: 1-butyl-3-methylimidazolium tosylate, C15H22N2O3S, InChI=1S/C8H15N2.C7H8O3S/c1-3-4-5-10-7-6-9(2)8-10;1-6-2-4-7(5-3-6)11(8,9)10/h6-8H,3-5H2,1-2H3;2-5H,1H3,(H,8,9,10)/q+1;/p-1

System: 1-butyl-3-methylimidazolium tosylate; phases: Crystal 2, Crystal 1, Gas
Property: Molar enthalpy of transition or fusion, kJ/mol (Crystal 2); method: Adiabatic calorimetry
Molar enthalpy of transition or fusion, kJ/mol	uncertainty
0.194	0.2

System: 1-butyl-3-methylimidazolium tosylate; phases: Metastable crystal, Crystal 1, Gas
Property: Molar enthalpy of transition or fusion, kJ/mol (Metastable crystal); method: Adiabatic calorimetry
Molar enthalpy of transition or fusion, kJ/mol	uncertainty
19.915	0.264

System: 1-butyl-3-methylimidazolium tosylate; phases: Crystal 1, Liquid, Gas
Property: Molar enthalpy of transition or fusion, kJ/mol (Crystal 1); method: Adiabatic calorimetry
Molar enthalpy of transition or fusion, kJ/mol	uncertainty
21.573	0.238

System: 1-butyl-3-methylimidazolium tosylate; phases: Crystal 2, Crystal 1, Gas
Property: Triple point temperature, K (Crystal 2); method: Adiabatic calorimetry
Triple point temperature, K	uncertainty
152	1

System: 1-butyl-3-methylimidazolium tosylate; phases: Crystal 1, Liquid, Gas
Property: Triple point temperature, K (Crystal 1); method: Adiabatic calorimetry
Triple point temperature, K	uncertainty
343.8	0.67

System: 1-butyl-3-methylimidazolium tosylate; phases: Metastable crystal, Liquid, Gas
Property: Triple point temperature, K (Metastable crystal); method: ADIACA:UFactor:4
Triple point temperature, K	uncertainty
342.48	0.2

System: 1-butyl-3-methylimidazolium tosylate; phases: Crystal 2
Fixed: Pressure, kPa = 101.325
Property: Molar heat capacity at constant pressure, J/K/mol (Crystal 2); method: SMALLAD:UFactor:2
Temperature, K	Molar heat capacity at constant pressure, J/K/mol	uncertainty
5	2.54	0.13
10	11.91	0.42
15	24.31	0.72
20	37.67	0.95
25	51.27	1.06
30	64.46	0.85
35	76.73	0.96
40	87.97	1.08
45	98.44	1.16
50	108.3	1.2
60	125.9	1.5
70	141.6	1.6
80	156	1.7
90	169.3	1.7
100	181.9	1.8
105	188.1	1.9
110	194.1	1.9
120	206	2.1
130	218	2.2
140	230	2.2
150	241.9	2.3
152.77	245.2	2.3

System: 1-butyl-3-methylimidazolium tosylate; phases: Crystal 1
Fixed: Pressure, kPa = 101.325
Property: Molar heat capacity at constant pressure, J/K/mol (Crystal 1); method: SMALLAD:UFactor:2
Temperature, K	Molar heat capacity at constant pressure, J/K/mol	uncertainty
152.77	238.4	2.3
160	246.2	2.4
170	257	2.5
180	267.8	2.6
190	278.8	2.7
200	289.9	2.7
210	301.5	2.8
220	313.3	2.9
230	335.4	3.1
240	348.3	3.2
250	359.9	3.2
260	371.2	3.4
270	382.3	3.5
280	393.3	3.6
290	404.1	3.7
298.15	412.7	3.7
300	414.6	3.7
310	425	3.8
320	435.3	3.9
330	445.3	4
340	455.1	4.1
343.89	458.7	4.1

System: 1-butyl-3-methylimidazolium tosylate; phases: Liquid
Fixed: Pressure, kPa = 101.325
Property: Molar heat capacity at constant pressure, J/K/mol (Liquid); method: SMALLAD:UFactor:2
Temperature, K	Molar heat capacity at constant pressure, J/K/mol	uncertainty
343.89	543.4	4.7
350	548.4	4.8
360	556	4.8
370	563.1	4.9
380	569.8	5

System: 1-butyl-3-methylimidazolium tosylate; phases: Crystal 2, Gas
Property: Molar heat capacity at saturation pressure, J/K/mol (Crystal 2); method: SMALLAD:UFactor:2
Temperature, K	Molar heat capacity at saturation pressure, J/K/mol	uncertainty
5.19	2.8216528974	0.1179568868
5.39	3.1320657574	0.124165144
5.69	3.5790602758	0.1365816584
5.99	4.0415754372	0.1489981728
6.33	4.5879020708	0.1614146872
6.71	5.2242484338	0.1800394588
7.1	5.913364983	0.1955601018
7.49	6.6180021752	0.2141848734
7.88	7.372305425	0.2297055164
8.27	8.1545458322	0.248330288
8.67	8.9802440398	0.2700591882
9.06	9.8307752762	0.2886839598
9.46	10.6968271556	0.3073087314
9.86	11.5752955494	0.325933503
10.37	12.7703850604	0.3507665318
10.99	14.2044924736	0.3818078178
11.62	15.7503485164	0.4128491038
12.24	17.2341219872	0.4407862612
12.87	18.8079151874	0.4718275472
13.5	20.4003331592	0.4997647046
14.13	22.0051676454	0.527701862
14.77	23.6876053466	0.5556390194
15.52	25.7052889366	0.5866803054
16.38	28.1140927302	0.6239298486
17.25	30.4328767944	0.6549711346
18.11	32.686474158	0.682908292
18.98	34.952488036	0.713949578
19.85	37.280584486	0.744990864
21.02	40.415754372	0.77603215
22.47	44.357997694	0.807073436
23.94	48.42440616	0.838114722
25.4	52.366649482	0.869156008
26.86	56.277851518	0.93123858
27.91	59.009484686	0.93123858
29.13	62.175695858	0.93123858
30.61	65.96273275	0.807073436
32.24	70.122265074	0.869156008
34.04	74.468045114	0.93123858
35.85	78.782783868	0.962279866
37.65	82.787109762	0.993321152
39.46	86.822476942	1.055403724
41.36	90.857844122	1.08644501
43.36	95.048417732	1.117486296
45.37	99.17690877	1.179568868
47.37	103.21227595	1.210610154
49.38	107.123477986	1.24165144
51.39	110.879473592	1.303734012
53.4	114.573386626	1.334775298
55.41	118.11209323	1.365816584
57.43	121.557675976	1.39685787
59.46	124.972217436	1.458940442
61.48	128.20051118	1.489981728
63.5	131.490887496	1.521023014
65.48	134.595016096	1.5520643
67.5	137.792268554	1.583105586
69.52	140.834314582	1.614146872
71.55	143.845319324	1.645188158
73.58	146.887365352	1.676229444
75.61	149.836287522	1.70727073
77.64	152.661044548	1.738312016
78.3	153.840613416	1.738312016
78.41	154.026861132	1.769353302
79.68	155.547884146	1.769353302
80.29	156.417040154	1.769353302
80.4	156.60328787	1.769353302
80.63	156.820576872	1.800394588
81.72	158.341599886	1.800394588
82.14	158.900343034	1.800394588
82.25	158.900343034	1.800394588
82.63	159.365962324	1.800394588
83.76	161.25948077	1.831435874
84.01	161.352604628	1.831435874
84.11	161.507811058	1.831435874
84.49	161.88030649	1.831435874
85.88	163.773824936	1.86247716
85.98	164.022155224	1.86247716
86.36	164.394650656	1.86247716
87.76	166.288169102	1.893518446
87.86	166.474416818	1.893518446
88.24	166.84691225	1.893518446
89.65	168.771471982	1.924559732
89.74	168.833554554	1.924559732
90.12	169.392297702	1.86247716
91.54	171.254774862	1.893518446
91.63	171.316857434	1.893518446
92.02	171.844559296	1.893518446
93.45	173.707036456	1.893518446
93.54	173.800160314	1.893518446
93.92	174.265779604	1.924559732
95.36	176.15929805	1.924559732
95.45	176.252421908	1.924559732
95.83	176.686999912	1.924559732
97.28	178.64260093	1.955601018
97.37	178.704683502	1.955601018
97.75	179.077178934	1.955601018
99.21	181.032779952	1.986642304
99.29	181.063821238	1.986642304
99.67	181.43631667	1.986642304
101.08	183.29879383	1.986642304
101.16	183.360876402	1.986642304
101.54	183.795454406	2.01768359
102.89	185.564807708	2.01768359
102.98	185.564807708	2.01768359
103.36	186.061468284	2.01768359
104.71	187.861862872	2.048724876
104.79	187.861862872	2.048724876
105.18	188.26539959	2.048724876
106.53	190.034752892	2.079766162
106.61	190.065794178	2.079766162
107	190.500372182	2.079766162
108.37	192.207642912	2.079766162
108.44	192.238684198	2.079766162
108.83	192.704303488	2.079766162
110.2	194.411574218	2.110807448
110.27	194.411574218	2.110807448
110.67	194.877193508	2.110807448
112.03	196.584464238	2.141848734
112.1	196.522381666	2.141848734
112.5	197.143207386	2.141848734
113.87	198.726312972	2.141848734
113.94	198.81943683	2.141848734
114.34	199.28505612	2.141848734
115.71	200.99232685	2.17289002
115.78	201.085450708	2.17289002
116.18	201.520028712	2.17289002
117.56	203.227299442	2.203931306
117.62	203.16521687	2.203931306
118.02	203.661877446	2.203931306
119.41	205.400189462	2.203931306
119.46	205.307065604	2.203931306
119.87	205.865808752	2.203931306
121.26	207.479955624	2.234972592
121.3	207.51099691	2.234972592
121.71	208.038698772	2.234972592
123.11	209.714928216	2.266013878
123.16	209.777010788	2.266013878
123.56	210.242630078	2.266013878
124.97	211.949900808	2.266013878
125.01	211.887818236	2.266013878
125.41	212.446561384	2.297055164
126.82	214.1848734	2.297055164
126.86	214.1848734	2.297055164
127.27	214.65049269	2.297055164
128.68	216.450887278	2.32809645
128.72	216.35776342	2.32809645
129.12	216.947547854	2.32809645
130.54	218.778983728	2.359137736
130.57	218.716901156	2.359137736
130.97	219.244603018	2.359137736
132.4	221.01395632	2.359137736
132.43	221.01395632	2.359137736
132.83	221.541658182	2.359137736
134.26	223.466217914	2.390179022
134.29	223.34205277	2.390179022
134.69	223.96287849	2.390179022
136.12	225.856396936	2.421220308
136.15	225.82535565	2.421220308
136.55	226.353057512	2.421220308
137.98	228.339699816	2.452261594
138.01	228.370741102	2.452261594
138.41	228.743236534	2.452261594
139.84	230.885085268	2.452261594
139.87	230.854043982	2.452261594
140.27	231.164456842	2.452261594
141.7	233.492553292	2.48330288
141.73	233.368388148	2.48330288
142.13	233.802966152	2.48330288
143.56	236.565640606	2.514344166
143.59	236.06898003	2.514344166
143.98	236.565640606	2.514344166
145.41	240.445801356	2.545385452
145.44	238.955819628	2.545385452
145.83	239.607686634	2.545385452
147.26	246.188439266	2.607468024
147.3	242.184113372	2.576426738
147.68	243.36368224	2.576426738
149.09	256.71143522	2.700591882
149.15	246.15739798	2.607468024
149.52	249.758187156	2.669550596
150.89	272.54249108	2.886839598
150.98	254.942081918	2.79371574
151.34	267.234431174	2.824757026
152.68	270.462724918	2.855798312
152.77	286.324822064	3.011004742

System: 1-butyl-3-methylimidazolium tosylate; phases: Liquid, Gas
Property: Molar heat capacity at saturation pressure, J/K/mol (Liquid); method: SMALLAD:UFactor:2
Temperature, K	Molar heat capacity at saturation pressure, J/K/mol	uncertainty
342.82	542.91209214	5.58743148
343.97	543.84333072	5.58743148
344.54	545.39539502	5.58743148
344.54	545.39539502	5.58743148
344.72	544.7745693	5.58743148
345.34	544.46415644	5.58743148
346.06	544.7745693	5.58743148
346.43	546.3266336	5.58743148
346.43	546.3266336	5.58743148
346.46	546.63704646	5.58743148
346.61	546.01622074	5.58743148
347.35	545.70580788	5.58743148
348.14	546.01622074	5.58743148
348.31	547.56828504	5.58743148
348.31	547.56828504	5.58743148
348.49	547.25787218	5.58743148
348.72	547.56828504	5.58743148
348.77	547.56828504	5.58743148
350.2	549.4307622	5.58743148
350.2	549.4307622	5.58743148
350.6	549.12034934	5.58743148
350.64	549.12034934	5.58743148
352.08	550.9828265	5.58743148
352.08	550.9828265	5.58743148
352.48	550.36200078	5.58743148
352.5	550.36200078	5.58743148
353.97	552.22447794	5.58743148
353.97	552.22447794	5.58743148
354.36	551.60365222	5.58743148
354.37	551.91406508	5.58743148
355.86	553.46612938	5.58743148
355.86	553.46612938	5.58743148
356.24	553.15571652	5.58743148
356.25	553.15571652	5.58743148
357.74	555.01819368	5.58743148
357.74	555.01819368	5.58743148
358.11	554.70778082	5.58743148
358.12	554.70778082	5.58743148
359.64	556.25984512	5.58743148
359.64	556.25984512	5.58743148
359.97	555.94943226	5.58743148
360	555.94943226	5.58743148
361.53	557.81190942	5.58743148
361.53	557.81190942	5.58743148
361.84	557.50149656	5.58743148
361.88	557.50149656	5.58743148
363.42	559.05356086	5.58743148
363.42	559.05356086	5.58743148
363.75	558.743148	5.58743148
365.3	560.2952123	5.58743148
365.3	560.2952123	5.58743148
365.62	559.98479944	5.58743148
367.19	561.8472766	5.58743148
367.19	561.8472766	5.58743148
367.5	561.53686374	5.58743148

System: 1-butyl-3-methylimidazolium tosylate; phases: Metastable crystal, Gas
Property: Molar heat capacity at saturation pressure, J/K/mol (Metastable crystal); method: SMALLAD:UFactor:2
Temperature, K	Molar heat capacity at saturation pressure, J/K/mol	uncertainty
78.68	155.175388714	1.769353302
80.67	157.907021882	1.800394588
82.53	160.359283476	1.831435874
84.39	163.152999216	1.86247716
86.26	165.853591098	1.893518446
88.14	168.39897655	1.893518446
90.02	171.099568432	1.893518446
91.92	173.769119028	1.893518446
93.82	176.531793482	1.924559732
95.72	179.170302792	1.955601018
97.64	181.777770816	1.986642304
99.55	184.478362698	2.01768359
101.42	187.02374815	2.048724876
103.22	189.600174888	2.048724876
105.03	192.052436482	2.079766162
106.84	194.535739362	2.110807448
108.66	197.081124814	2.141848734
110.48	199.564427694	2.17289002
112.31	201.92356543	2.17289002
114.13	204.499992168	2.203931306
115.96	207.014336334	2.234972592
117.79	209.466597928	2.266013878
119.62	212.16718981	2.266013878
121.45	214.65049269	2.297055164
123.28	217.195878142	2.32809645
125.12	219.77230488	2.359137736
126.95	222.379772904	2.390179022
128.79	224.925158356	2.390179022
130.63	227.594708952	2.421220308
132.46	230.264259548	2.452261594
134.3	232.840686286	2.48330288
136.14	235.541278168	2.514344166
137.98	238.366035194	2.545385452
139.81	241.03558579	2.576426738
141.65	243.736177672	2.576426738
143.48	246.436769554	2.607468024
145.31	249.26152658	2.63850931
147.15	251.931077176	2.669550596
148.98	254.724792916	2.700591882
150.8	257.48746737	2.731633168
152.63	260.28118311	2.762674454
154.46	263.043857564	2.762674454
156.28	265.837573304	2.79371574
158.1	268.600247758	2.824757026
159.92	271.30083964	2.855798312
161.74	273.93934895	2.886839598
163.55	276.546816974	2.917880884
165.36	279.123243712	2.917880884
167.18	281.637587878	2.94892217
168.99	284.120890758	2.979963456
170.8	286.542111066	3.011004742
172.6	288.901248802	3.042046028
174.41	291.136221394	3.042046028
176.21	293.278070128	3.073087314
178.02	295.35783629	3.1041286
179.82	297.282396022	3.1041286
181.62	299.175914468	3.135169886
183.43	301.069432914	3.135169886
185.23	302.80774493	3.166211172
187.02	304.483974374	3.166211172
188.82	306.098121246	3.197252458
190.62	307.61914426	3.197252458
192.42	309.109125988	3.228293744
194.22	310.72327286	3.1041286
196.01	311.9649243	3.1041286
197.81	313.20657574	3.41454146
199.61	314.44822718	3.41454146
201.47	316.31070434	3.41454146
203.39	317.86276864	3.41454146
205.31	319.10442008	3.41454146
207.23	320.65648438	3.41454146
209.16	322.20854868	3.41454146
211.08	323.45020012	3.41454146
213	325.00226442	3.41454146
214.92	326.24391586	3.41454146
216.84	328.10639302	3.41454146
218.76	329.65845732	3.41454146
220.68	331.83134734	3.41454146
222.6	333.6938245	3.41454146
224.51	336.7979531	3.41454146
226.41	340.21249456	3.41454146
228.3	347.04157748	3.72495432
230.18	352.93942182	3.72495432
232.06	355.11231184	3.72495432
233.94	356.974789	3.72495432
235.82	358.21644044	3.72495432
237.7	359.45809188	3.72495432
239.58	361.01015618	3.72495432
241.45	362.87263334	3.72495432
243.33	364.42469764	3.72495432
245.21	365.97676194	3.72495432
247.08	367.8392391	3.72495432
248.96	369.3913034	3.72495432
250.83	371.25378056	3.72495432
252.7	372.80584486	3.72495432
254.58	374.66832202	3.72495432
256.45	376.53079918	4.03536718
258.32	378.39327634	4.03536718
260.2	380.2557535	4.03536718
262.07	381.8078178	4.03536718
263.94	383.3598821	4.03536718
265.82	385.53277212	4.03536718
267.69	387.39524928	4.03536718
269.56	388.94731358	4.03536718
271.43	391.1202036	4.03536718
273.3	393.60350648	4.03536718
275.16	396.08680936	4.03536718
277.01	399.50135082	4.03536718
278.86	403.536718	4.03536718
280.7	407.57208518	4.34578004
282.53	410.67621378	4.34578004
284.36	414.71158096	4.34578004
286.18	418.43653528	4.34578004
288	422.47190246	4.34578004
289.81	426.8176825	4.34578004
291.62	431.16346254	4.34578004
293.42	435.50924258	4.34578004
295.21	439.85502262	4.6561929
296.99	445.13204124	4.6561929
298.77	450.098647	4.6561929
300.54	455.37566562	4.6561929
302.41	461.89433568	4.6561929
304.39	469.03383146	4.6561929
306.36	476.79415296	4.96660576
308.32	485.7961259	4.96660576
310.26	496.03975028	4.96660576
311.76	501.62718176	4.96660576
311.76	501.62718176	4.96660576
313.67	515.90617332	5.27701862
313.67	515.90617332	5.27701862
315.56	532.04764204	5.27701862
315.56	532.04764204	5.27701862
317.42	550.67241364	5.58743148
317.42	550.67241364	5.58743148
319.26	573.33255242	5.89784434
319.26	573.33255242	5.89784434
321.06	600.02805838	6.2082572
321.06	600.02805838	6.2082572
322.82	633.2422344	6.51867006
324.53	675.1479705	6.82908292
326.19	727.9181567	7.44990864
340.93	542.91209214	18.6247716

System: 1-butyl-3-methylimidazolium tosylate; phases: Crystal 1, Gas
Property: Molar heat capacity at saturation pressure, J/K/mol (Crystal 1); method: SMALLAD:UFactor:2
Temperature, K	Molar heat capacity at saturation pressure, J/K/mol	uncertainty
153.11	287.721679934	3.073087314
154.51	248.64070086	2.669550596
154.55	265.744449446	2.886839598
154.91	252.179407464	2.669550596
156.37	244.357003392	2.607468024
156.4	246.871347558	2.607468024
156.77	244.822622682	2.607468024
158.25	245.101994256	2.607468024
158.27	245.660737404	2.607468024
158.64	245.505530974	2.607468024
160.13	246.747182414	2.607468024
160.14	246.995512702	2.607468024
160.51	247.08863656	2.607468024
162	248.578618288	2.63850931
162.02	248.64070086	2.63850931
162.38	248.95111372	2.63850931
163.88	250.472136734	2.63850931
163.89	250.472136734	2.63850931
164.25	250.81359088	2.669550596
165.76	252.36565518	2.669550596
165.76	252.396696466	2.669550596
166.12	252.83127447	2.669550596
167.63	254.38333877	2.700591882
167.64	254.38333877	2.700591882
168	254.817916774	2.700591882
169.51	256.40102236	2.700591882
169.51	256.432063646	2.700591882
169.87	256.804559078	2.700591882
171.38	258.480788522	2.731633168
171.39	258.387664664	2.731633168
171.74	258.822242668	2.731633168
173.25	260.43638954	2.762674454
173.26	260.43638954	2.762674454
173.61	260.808884972	2.762674454
175.13	262.423031844	2.762674454
175.13	262.45407313	2.762674454
175.48	262.888651134	2.762674454
177	264.502798006	2.79371574
177.01	264.533839292	2.79371574
177.35	264.93737601	2.79371574
178.87	266.48944031	2.824757026
178.87	266.551522882	2.824757026
179.21	266.9550596	2.824757026
180.74	268.5071239	2.824757026
180.74	268.631289044	2.824757026
181.08	268.910660618	2.824757026
182.6	270.648972634	2.855798312
182.6	270.648972634	2.855798312
182.94	270.99042678	2.855798312
184.47	272.635614938	2.855798312
184.47	272.635614938	2.855798312
184.8	273.00811037	2.886839598
186.33	274.7153811	2.886839598
186.33	274.7153811	2.886839598
186.66	275.056835246	2.886839598
188.19	276.764105976	2.917880884
188.19	276.764105976	2.917880884
188.51	277.074518836	2.917880884
190.05	278.781789566	2.917880884
190.05	278.812830852	2.917880884
190.37	279.21636757	2.94892217
191.9	280.861555728	2.94892217
191.91	280.892597014	2.94892217
192.22	281.327175018	2.94892217
193.75	282.972363176	2.979963456
193.77	283.003404462	2.979963456
194.07	283.437982466	2.979963456
195.6	285.052129338	2.979963456
195.62	285.052129338	2.979963456
195.92	285.393583484	2.979963456
197.45	286.945647784	3.011004742
197.47	287.1318955	3.011004742
197.77	287.473349646	3.011004742
199.3	289.242702948	3.042046028
199.32	289.180620376	3.042046028
199.61	289.428950664	3.042046028
201.21	291.446634254	3.042046028
201.24	291.47767554	3.042046028
201.52	291.7880884	3.042046028
203.18	293.588482988	3.073087314
203.21	293.867854562	3.073087314
203.49	293.96097842	3.073087314
205.15	295.854496866	3.1041286
205.18	296.009703296	3.1041286
205.46	296.258033584	3.1041286
207.12	298.089469458	3.1041286
207.15	298.120510744	3.1041286
207.42	298.430923604	3.135169886
209.08	300.355483336	3.135169886
209.12	300.448607194	3.135169886
209.38	300.603813624	3.135169886
211.04	302.621497214	3.166211172
211.09	302.683579786	3.166211172
211.34	302.993992646	3.166211172
213	304.794387234	3.197252458
213.05	304.918552378	3.197252458
213.31	305.260006524	3.197252458
214.96	307.15352497	3.197252458
215.01	307.184566256	3.197252458
215.27	307.650185546	3.197252458
216.91	309.574745278	3.228293744
216.97	309.605786564	3.228293744
217.22	309.916199424	3.228293744
218.87	311.9649243	3.1041286
218.93	311.9649243	3.1041286
219.18	312.58575002	3.41454146
220.82	314.44822718	3.41454146
220.88	314.44822718	3.41454146
221.13	314.75864004	3.41454146
222.77	317.86276864	3.41454146
222.83	317.24194292	3.41454146
223.07	317.55235578	3.41454146
224.72	321.2773101	3.41454146
224.77	321.89813582	3.41454146
225.01	321.58772296	3.41454146
226.65	326.86474158	3.41454146
226.7	326.55432872	3.41454146
226.94	328.10639302	3.41454146
228.56	332.1417602	3.41454146
228.61	331.83134734	3.41454146
228.85	333.6938245	3.41454146
230.47	336.17712738	3.41454146
230.52	335.55630166	3.41454146
230.75	336.7979531	3.41454146
232.37	339.9020817	3.41454146
232.43	338.97084312	3.41454146
232.65	340.21249456	3.41454146
234.27	341.76455886	3.41454146
234.33	341.76455886	3.41454146
234.55	342.69579744	3.41454146
236.17	343.93744888	3.72495432
236.24	343.0062103	3.41454146
236.45	344.24786174	3.72495432
238.07	346.1103389	3.72495432
238.14	345.17910032	3.72495432
238.35	346.42075176	3.72495432
239.97	348.28322892	3.72495432
240.04	347.35199034	3.72495432
240.25	348.90405464	3.72495432
241.87	350.45611894	3.72495432
241.94	349.52488036	3.72495432
242.14	350.7665318	3.72495432
243.76	352.3185961	3.72495432
243.83	351.69777038	3.72495432
244.04	352.93942182	3.72495432
245.66	354.49148612	3.72495432
245.73	353.8706604	3.72495432
245.93	355.11231184	3.72495432
247.55	356.974789	3.72495432
247.62	356.04355042	3.72495432
247.82	357.28520186	3.72495432
249.44	359.14767902	3.72495432
249.51	358.5268533	3.72495432
249.71	359.45809188	3.72495432
251.33	361.32056904	3.72495432
251.4	360.38933046	3.72495432
251.59	361.6309819	3.72495432
253.22	363.49345906	3.72495432
253.29	362.87263334	3.72495432
253.47	363.80387192	3.72495432
255.11	365.66634908	3.72495432
255.17	364.7351105	3.72495432
255.35	365.97676194	3.72495432
256.99	367.8392391	3.72495432
257.06	367.21841338	3.72495432
257.23	368.14965196	3.72495432
258.88	370.01212912	3.72495432
258.94	369.08089054	3.72495432
259.11	370.32254198	3.72495432
260.77	372.18501914	3.72495432
260.82	371.56419342	3.72495432
261	372.495432	3.72495432
262.65	374.35790916	3.72495432
262.71	373.42667058	3.72495432
262.87	374.66832202	3.72495432
264.53	376.22038632	4.03536718
264.59	375.5995606	3.72495432
264.75	376.53079918	4.03536718
266.42	378.39327634	4.03536718
266.47	377.46203776	4.03536718
266.63	378.39327634	4.03536718
268.31	380.56616636	4.03536718
268.36	379.63492778	4.03536718
268.52	380.87657922	4.03536718
270.19	382.42864352	4.03536718
270.25	381.8078178	4.03536718
270.4	382.73905638	4.03536718
272.08	384.60153354	4.03536718
272.14	383.3598821	4.03536718
272.29	384.60153354	4.03536718
273.97	386.4640107	4.03536718
274.03	385.53277212	4.03536718
274.19	386.4640107	4.03536718
275.87	388.63690072	4.03536718
275.92	388.016075	4.03536718
276.08	388.32648786	4.03536718
277.76	391.1202036	4.03536718
277.8	390.49937788	4.03536718
277.97	390.80979074	4.03536718
279.64	393.60350648	4.03536718
279.67	393.29309362	4.03536718
279.85	393.60350648	4.03536718
281.51	396.70763508	4.03536718
281.53	397.01804794	4.03536718
281.71	397.01804794	4.03536718
283.38	400.74300226	4.03536718
283.38	400.74300226	4.03536718
283.57	401.36382798	4.03536718
285.22	405.39919516	4.03536718
285.23	405.0887823	4.03536718
285.41	405.70960802	4.03536718
287.05	409.7449752	4.34578004
287.07	409.12414948	4.34578004
287.24	410.36580092	4.34578004
288.87	414.71158096	4.34578004
288.9	414.09075524	4.34578004
289.06	415.64281954	4.34578004
290.68	419.057361	4.34578004
290.72	418.74694814	4.34578004
290.87	419.98859958	4.34578004
292.49	423.7135539	4.34578004
292.53	423.40314104	4.34578004
292.67	424.02396676	4.34578004
294.29	427.12809536	4.34578004
294.33	428.05933394	4.34578004
294.47	427.43850822	4.34578004
296.09	431.4738754	4.34578004
296.13	432.71552684	4.34578004
296.27	432.09470112	4.34578004
297.87	436.1300683	4.34578004
297.92	437.06130688	4.34578004
298.05	436.75089402	4.34578004
299.66	440.7862612	4.6561929
299.71	442.64873836	4.6561929
299.83	442.02791264	4.6561929
300.21	440.47584834	4.6561929
301.54	446.68410554	4.6561929
301.6	447.92575698	4.6561929
301.72	447.61534412	4.6561929
302.1	445.4424541	4.6561929
303.54	452.58194988	4.6561929
303.6	453.2027756	4.6561929
303.71	453.82360132	4.6561929
304.1	451.02988558	4.6561929
305.52	458.79020708	4.6561929
305.59	460.34227138	4.6561929
305.69	460.03185852	4.6561929
306.09	457.23814278	4.6561929
307.5	465.92970286	4.6561929
307.57	467.79218002	4.6561929
307.67	467.1713543	4.6561929
308.07	463.75681284	4.6561929
309.47	473.69002436	4.96660576
309.54	474.9316758	4.96660576
309.64	475.24208866	4.96660576
310.04	471.51713434	4.96660576
311.42	482.6919973	4.96660576
311.49	484.55447446	4.96660576
311.59	484.2440616	4.96660576
311.99	479.5878687	4.96660576
313.37	492.62520882	4.96660576
313.44	494.79809884	4.96660576
313.53	493.5564474	4.96660576
313.94	489.21066736	4.96660576
315.3	503.48965892	5.27701862
315.37	505.9729618	5.27701862
315.46	503.17924606	5.27701862
315.87	499.45429174	4.96660576
317.22	514.97493474	5.27701862
317.29	518.3894762	5.27701862
317.39	512.181219	5.27701862
317.78	512.49163186	5.27701862
319.11	529.2539263	5.27701862
319.18	534.53094492	5.58743148
319.29	524.28732054	5.27701862
319.67	527.08103628	5.27701862
320.98	545.70580788	5.58743148
321.05	553.46612938	5.58743148
321.17	538.25589924	5.58743148
321.53	544.7745693	5.58743148
322.82	565.88264378	5.58743148
322.89	575.50544244	5.89784434
323.03	555.94943226	5.58743148
323.37	566.5034695	5.89784434
324.63	590.71567258	5.89784434
324.69	602.51136126	6.2082572
324.85	578.60957104	5.89784434
325.17	593.50938832	5.89784434
326.41	621.44654572	6.2082572
326.45	635.41512442	6.51867006
326.64	607.47796702	6.2082572
326.92	628.27562864	6.51867006
328.13	660.55856608	6.82908292
328.17	676.7000348	6.82908292
328.38	644.41709736	6.51867006
328.62	675.1479705	6.82908292
329.79	710.8454494	7.13949578
329.82	728.22856956	7.44990864
330.07	691.28943922	7.13949578
330.24	740.02425824	7.44990864
342.74	648.45246454	22.97055164
343.34	571.47007526	6.2082572
343.81	550.05158792	5.58743148

System: 1-butyl-3-methylimidazolium tosylate; phases: Crystal 1
Fixed: Pressure, kPa = 101.325
Property: Molar enthalpy function {Hm(T)-Hm(0)}/T, J/K/mol (Crystal 1); method: SMALLAD:UFactor:2
Temperature, K	Molar enthalpy function {Hm(T)-Hm(0)}/T, J/K/mol	uncertainty
152.77	140	1.5
160	144.7	1.6
170	150.9	1.6
180	157.1	1.7
190	163.2	1.7
200	169.3	1.7
210	175.4	1.8
220	181.3	1.8
230	187.5	1.9
240	194	1.9
250	200.4	2
260	206.7	2.1
270	213	2.1
280	219.3	2.2
290	225.4	2.2
298.15	230.5	2.2
300	231.6	2.2
310	237.6	2.3
320	243.7	2.3
330	249.6	2.4
340	255.5	2.4
343.89	257.7	2.5

System: 1-butyl-3-methylimidazolium tosylate; phases: Crystal 2
Fixed: Pressure, kPa = 101.325
Property: Molar enthalpy function {Hm(T)-Hm(0)}/T, J/K/mol (Crystal 2); method: SMALLAD:UFactor:2
Temperature, K	Molar enthalpy function {Hm(T)-Hm(0)}/T, J/K/mol	uncertainty
5	0.131	0.047
10	3.49	0.153
15	8.314	0.274
20	13.99	0.37
25	20.09	0.44
30	26.39	0.47
35	32.72	0.52
40	38.94	0.59
45	44.97	0.65
50	50.82	0.71
60	61.88	0.82
70	72.17	0.92
80	81.76	1.01
90	90.71	1.16
100	99.27	1.16
105	103.3	1.2
110	107.3	1.2
120	115.1	1.3
130	122.5	1.4
140	129.7	1.4
150	136.9	1.5
152.77	138.8	1.5

System: 1-butyl-3-methylimidazolium tosylate; phases: Liquid
Fixed: Pressure, kPa = 101.325
Property: Molar enthalpy function {Hm(T)-Hm(0)}/T, J/K/mol (Liquid); method: SMALLAD:UFactor:2
Temperature, K	Molar enthalpy function {Hm(T)-Hm(0)}/T, J/K/mol	uncertainty
343.89	320.4	3
350	324.5	3
360	330.8	3.1
370	337	3.1
380	343.1	3.2

System: 1-butyl-3-methylimidazolium tosylate; phases: Crystal 1
Fixed: Pressure, kPa = 101.325
Property: Molar entropy, J/K/mol (Crystal 1); method: SMALLAD:UFactor:2
Temperature, K	Molar entropy, J/K/mol	uncertainty
152.77	275.6	3.9
160	286.8	4.1
170	302.1	4.2
180	317	4.4
190	331.8	4.6
200	346.4	4.7
210	360.8	4.9
220	375.1	5.1
230	389.5	5.2
240	404.1	5.5
250	418.6	5.7
260	432.9	5.8
270	447.1	6
280	461.2	6.2
290	475.2	6.3
298.15	486.5	6.4
300	489.1	6.5
310	502.8	6.7
320	516.5	6.8
330	530	7
340	543.4	7.2
343.89	548.3	7.2

System: 1-butyl-3-methylimidazolium tosylate; phases: Crystal 2
Fixed: Pressure, kPa = 101.325
Property: Molar entropy, J/K/mol (Crystal 2); method: SMALLAD:UFactor:2
Temperature, K	Molar entropy, J/K/mol	uncertainty
5	0.8739	0.1089
10	5.254	0.313
15	12.36	0.58
20	21.2	0.82
25	31.06	0.99
30	41.59	0.92
35	52.46	1.09
40	63.46	1.26
45	74.42	1.41
50	85.31	1.58
60	106.7	1.9
70	127.2	2.2
80	147.1	2.5
90	166.2	2.6
100	184.7	2.8
105	193.7	2.9
110	202.6	3
120	220.1	3.2
130	237	3.4
140	253.6	3.7
150	269.9	3.8
152.77	274.3	3.9

System: 1-butyl-3-methylimidazolium tosylate; phases: Liquid
Fixed: Pressure, kPa = 101.325
Property: Molar entropy, J/K/mol (Liquid); method: SMALLAD:UFactor:2
Temperature, K	Molar entropy, J/K/mol	uncertainty
343.89	611.1	7.9
350	621.1	8.1
360	636.6	8.2
370	651.9	8.4
380	667.1	8.6

System: water + 1-butyl-3-methylimidazolium tosylate; phases: Metastable crystal, Gas
Fixed: Mole fraction of 1-butyl-3-methylimidazolium tosylate = 0.83
Property: Molar heat capacity at saturation pressure, J/K/mol (Metastable crystal); method: SMALLAD:UFactor:2
Temperature, K	Molar heat capacity at saturation pressure, J/K/mol	uncertainty
78.19	130.6133409714	1.5642316284
80.17	132.959688414	1.5642316284
82.01	135.0453305852	1.5642316284
83.86	137.3916780278	1.5642316284
85.72	139.477320199	1.5642316284
87.59	141.8236676416	1.5642316284
89.46	144.1700150842	1.5642316284
91.34	146.2556572554	1.5642316284
93.23	148.602004698	1.5642316284
95.13	150.6876468692	1.5642316284
97.03	153.0339943118	1.5642316284
98.94	155.3803417544	1.8249368998
100.85	157.4659839256	1.8249368998
102.77	159.8123313682	1.8249368998
104.69	161.8979735394	1.8249368998
106.61	164.244320982	1.8249368998
108.55	166.3299631532	1.8249368998
110.48	168.6763105958	1.8249368998
112.41	170.761952767	1.8249368998
114.35	173.1083002096	1.8249368998
116.29	175.1939423808	1.8249368998
118.23	177.5402898234	1.8249368998
120.18	179.886637266	1.8249368998
122.12	182.2329847086	1.8249368998
124.07	184.3186268798	1.8249368998
126.01	186.6649743224	1.8249368998
127.96	189.011321765	2.0856421712
129.91	191.3576692076	2.0856421712
131.86	193.7040166502	2.0856421712
133.81	196.0503640928	2.0856421712
135.75	198.3967115354	2.0856421712
137.7	201.0037642494	2.0856421712
139.65	203.0894064206	2.0856421712
141.59	205.6964591346	2.0856421712
143.53	208.0428065772	2.0856421712
145.47	210.6498592912	2.0856421712
147.41	212.9962067338	2.0856421712
149.35	215.3425541764	2.0856421712
151.28	217.9496068904	2.0856421712
153.22	220.295954333	2.3463474426
155.15	222.6423017756	2.3463474426
157.08	224.9886492182	2.3463474426
159.01	227.5957019322	2.3463474426
160.94	229.9420493748	2.3463474426
162.86	232.2883968174	2.3463474426
164.78	234.63474426	2.3463474426
166.7	236.7203864312	2.3463474426
168.62	239.0667338738	2.3463474426
170.53	240.8916707736	2.3463474426
172.45	243.2380182162	2.3463474426
174.36	245.3236603874	2.3463474426
176.27	247.1485972872	2.3463474426
178.18	248.973534187	2.3463474426
180.09	250.7984710868	2.3463474426
181.99	252.6234079866	2.607052714
183.9	254.187639615	2.607052714
185.8	256.0125765148	2.607052714
187.71	257.5768081432	2.607052714
189.61	259.1410397716	2.607052714
191.51	260.9659766714	2.607052714
193.41	262.7909135712	2.607052714
195.31	264.8765557424	2.607052714
197.21	268.0050189992	2.607052714
199.09	272.437008613	2.607052714
201	280.5188720264	2.607052714
202.96	287.5579143542	2.8677579854
204.92	289.382851254	2.8677579854
206.89	290.686377611	2.8677579854
208.85	291.989903968	2.8677579854
210.81	293.0327250536	2.8677579854
212.77	294.3362514106	2.8677579854
214.74	295.6397777676	2.8677579854
216.7	296.6825988532	2.8677579854
218.66	297.9861252102	2.8677579854
220.62	299.2896515672	2.8677579854
222.58	300.5931779242	2.8677579854
224.54	301.8967042812	2.8677579854
226.5	303.2002306382	2.8677579854
228.46	304.7644622666	2.8677579854
230.42	306.328693895	2.8677579854
232.38	307.8929255234	2.8677579854
234.34	309.4571571518	2.8677579854
236.31	310.239272966	2.8677579854
238.27	311.542799323	2.8677579854
240.23	313.1070309514	2.8677579854
242.19	315.1926731226	2.8677579854
244.14	317.2783152938	2.8677579854
246.08	319.6246627364	3.1284632568
248.02	322.4924207218	3.1284632568
249.95	325.3601787072	3.1284632568
251.87	328.488641964	3.1284632568
253.79	331.8778104922	3.1284632568
255.7	335.2669790204	3.1284632568
257.6	339.1775580914	3.1284632568
259.5	342.827431891	3.1284632568
261.38	346.2166004192	3.1284632568
263.25	349.6057689474	3.1284632568
265.12	353.255642747	3.3891685282
266.99	356.3841060038	3.3891685282
268.85	360.0339798034	3.3891685282
270.7	363.683853603	3.3891685282
272.55	367.594432674	3.3891685282
274.39	371.505011745	3.3891685282
276.22	375.415590816	3.3891685282
278.04	379.326169887	3.3891685282
279.86	383.7581595008	3.6498737996
281.67	388.1901491146	3.6498737996
283.47	393.1435492712	3.6498737996
285.26	399.6611810562	3.6498737996
287.02	407.2216339268	3.6498737996
288.84	414.2606762546	3.6498737996
290.69	420.5176027682	3.910579071
292.6	426.253118739	3.910579071
294.56	426.7745292818	3.910579071
296.53	425.4710029248	3.910579071
298.45	435.6385085094	3.910579071
300.26	440.591908666	3.910579071
302.51	454.930698593	4.1712843424
306.39	484.3903942612	4.4319896138
309.82	516.196437372	4.6926948852
313.06	550.8702384682	4.9534001566
316.18	596.4936609632	5.214105428
319.16	653.3274101284	5.7355159708
321.99	719.8072543354	6.2569265136
324.62	811.3148045968	7.0390423278
327.04	934.1069874262	8.0818634134
329.23	1093.3979082516	9.3853897704
331.17	1295.705198858	10.9496213988
332.82	1513.6548057484	13.03526357
334.32	1881.5099436938	16.4244320982
336.41	678.3551161828	13.03526357

System: water + 1-butyl-3-methylimidazolium tosylate; phases: Liquid, Crystal
Fixed: Pressure, kPa = 101
Property: Solid-liquid equilibrium temperature, K (Liquid); method: VISOBS:UFactor:16
Mole fraction of 1-butyl-3-methylimidazolium tosylate	Solid-liquid equilibrium temperature, K	uncertainty
0.408	272.2	2.5
0.442	280	2.5
0.477	285.8	2.5
0.501	292.2	2.5
0.523	296.7	2.5
0.592	305.7	2.5
0.629	310.7	2.5
0.707	318.9	2.5
0.754	324	2.5
0.86	333.2	2.5
0.96	343.3	2.5

System: water + 1-butyl-3-methylimidazolium tosylate; phases: Liquid
Fixed: Mole fraction of 1-butyl-3-methylimidazolium tosylate = 0.37
Fixed: Pressure, kPa = 101
Property: Molar heat capacity at constant pressure, J/K/mol (Liquid); method: SMALLAD:UFactor:2
Temperature, K	Molar heat capacity at constant pressure, J/K/mol	uncertainty
78.74	66.256251915	0.8834166922
81.34	67.7706805302	0.8834166922
83.37	68.9065019916	0.8834166922
85.4	70.1685258376	0.8834166922
87.43	71.4305496836	0.8834166922
89.46	72.6925735296	1.0096190768
91.5	73.828394991	1.0096190768
93.53	75.090418837	1.0096190768
95.58	76.352442683	1.0096190768
97.63	77.4882641444	1.0096190768
99.68	78.6240856058	1.1358214614
101.73	79.7599070672	1.1358214614
103.78	81.0219309132	1.1358214614
105.84	82.1577523746	1.1358214614
107.9	83.293573836	1.1358214614
109.96	84.4293952974	1.1358214614
112.02	85.5652167588	1.1358214614
114.09	86.7010382202	1.1358214614
116.17	87.8368596816	1.1358214614
118.24	88.972681143	1.1358214614
120.32	90.234704989	1.1358214614
122.39	91.3705264504	1.1358214614
124.47	92.5063479118	1.1358214614
126.55	93.6421693732	1.262023846
128.64	94.7779908346	1.262023846
130.73	96.0400146806	1.262023846
132.81	97.3020385266	1.262023846
134.9	98.3116576034	1.262023846
136.98	99.5736814494	1.262023846
139.08	100.7095029108	1.262023846
141.17	101.8453243722	1.262023846
143.27	103.1073482182	1.262023846
145.36	104.2431696796	1.262023846
147.46	105.378991141	1.262023846
149.56	106.641014987	1.262023846
151.66	107.7768364484	1.262023846
153.77	108.9126579098	1.262023846
155.87	110.1746817558	1.3882262306
157.98	111.4367056018	1.3882262306
160.09	112.5725270632	1.3882262306
162.2	113.7083485246	1.3882262306
164.31	114.9703723706	1.3882262306
166.42	116.2323962166	1.3882262306
168.54	117.368217678	1.3882262306
170.66	118.630241524	1.3882262306
172.78	119.89226537	1.3882262306
174.9	121.0280868314	1.3882262306
177.02	122.2901106774	1.3882262306
179.14	123.5521345234	1.3882262306
181.27	124.940360754	1.5144286152
183.39	126.5809917538	1.5144286152
185.51	128.6002299074	1.5144286152
187.64	131.6290871378	1.5144286152
189.76	138.0654087524	1.5144286152
191.84	148.7926114434	1.6406309998
193.9	159.015004596	1.7668333844
195.93	176.1785289016	1.893035769
198	179.5859932858	1.893035769
200.12	180.3432075934	1.893035769
202.26	181.100421901	1.893035769
204.39	181.731433824	1.893035769
206.52	182.2362433624	1.893035769
208.65	182.8672552854	1.893035769
210.79	183.4982672084	1.893035769
212.93	184.1292791314	1.893035769
215.07	184.6340886698	1.893035769
217.23	185.3913029774	1.893035769
219.38	185.8961125158	1.893035769
221.54	186.6533268234	1.893035769
223.7	187.2843387464	1.893035769
225.87	188.041553054	1.893035769

System: water + 1-butyl-3-methylimidazolium tosylate; phases: Crystal, Gas
Property: Molar heat capacity at saturation pressure, J/K/mol (Crystal); method: SMALLAD:UFactor:2
Mole fraction of 1-butyl-3-methylimidazolium tosylate	Temperature, K	Molar heat capacity at saturation pressure, J/K/mol	uncertainty
0.3	134.57	80.146791932	1.05734554
0.3	137.46	81.309872026	1.05734554
0.3	140.19	82.47295212	1.05734554
0.3	142.92	83.636032214	1.163080094
0.3	145.65	84.799112308	1.163080094
0.3	148.38	85.962192402	1.163080094
0.3	151.11	87.125272496	1.163080094
0.3	153.84	88.28835259	1.163080094
0.3	156.57	89.451432684	1.163080094
0.3	159.29	90.614512778	1.163080094
0.3	162.02	91.777592872	1.163080094
0.3	164.74	92.940672966	1.163080094
0.3	167.46	94.209487614	1.163080094
0.3	170.18	95.372567708	1.163080094
0.3	172.9	96.641382356	1.268814648
0.3	175.61	97.910197004	1.268814648
0.3	178.32	99.284746206	1.268814648
0.3	181.02	101.399437286	1.268814648
0.3	183.7	104.67720846	1.268814648
0.3	186.36	107.532041418	1.268814648
0.3	189.01	108.800856066	1.268814648
0.3	191.66	109.858201606	1.374549202
0.3	194.31	111.0212817	1.374549202
0.3	196.95	112.290096348	1.374549202
0.3	199.58	113.66464555	1.374549202
0.3	201.54	114.827725644	1.374549202
0.3	202.83	115.462132968	1.374549202
0.3	204.12	115.990805738	1.374549202
0.3	205.4	116.625213062	1.374549202
0.3	206.69	117.048151278	1.374549202
0.3	207.98	117.576824048	1.374549202
0.3	209.26	117.999762264	1.374549202
0.3	210.55	118.739904142	1.374549202
0.3	211.84	119.268576912	1.374549202
0.3	213.13	120.220187898	1.374549202
0.3	214.41	121.911940762	1.374549202
0.3	215.69	123.603693626	1.480283756
0.3	216.97	125.506915598	1.480283756
0.3	218.24	127.727341232	1.480283756
0.3	219.5	130.370705082	1.480283756
0.3	220.76	133.965679918	1.480283756
0.3	222	138.723734848	1.58601831
0.3	223.23	144.644869872	1.58601831
0.3	224.44	151.623350436	1.691752864
0.3	225.63	159.553441986	1.691752864
0.3	226.79	169.1752864	1.797487418
0.3	227.92	180.911821894	1.903221972
0.3	229.02	196.031863116	2.008956526
0.3	230.06	216.438632038	2.220425634
0.3	231.05	243.400943308	2.431894742
0.3	231.97	279.13922256	2.854832958
0.3	232.82	325.66242632	3.277771174
0.3	233.59	384.239369236	3.912178498
0.3	234.29	455.081520416	4.652320376
0.3	234.92	526.55807892	4.863789484
0.3	235.5	534.911108686	5.81540047
0.3	236.15	325.13375355	5.392462254
0.3	237.09	171.81865025	2.326160188
0.3	238.25	170.338366494	1.797487418
0.3	239.4	171.395712034	1.797487418
0.3	240.56	172.981730344	1.797487418
0.3	241.71	174.779217762	1.797487418
0.3	242.86	176.470970626	1.903221972
0.3	244.01	178.268458044	1.903221972
0.3	245.15	179.960210908	1.903221972
0.3	246.29	181.969167434	1.903221972
0.3	247.42	183.97812396	1.903221972
0.3	248.55	185.987080486	1.903221972
0.3	249.68	188.101771566	1.903221972
0.3	250.8	190.216462646	2.008956526
0.3	251.91	192.754091942	2.008956526
0.3	253.03	194.974517576	2.008956526
0.3	254.13	197.406412318	2.008956526
0.3	255.24	200.049776168	2.008956526
0.3	256.33	202.693140018	2.11469108
0.3	257.42	205.547972976	2.11469108
0.3	258.51	208.402805934	2.11469108
0.3	259.59	211.363373446	2.11469108
0.3	260.66	214.429675512	2.11469108
0.3	261.73	217.601712132	2.220425634
0.3	262.8	221.090952414	2.220425634
0.3	263.85	224.580192696	2.220425634
0.3	264.9	228.280902086	2.326160188
0.3	265.94	232.08734603	2.326160188
0.3	266.97	235.999524528	2.326160188
0.3	268	240.54611035	2.326160188
0.3	269.01	244.564023402	2.431894742
0.3	270.02	249.639281994	2.431894742
0.3	271.02	254.397336924	2.537629296
0.3	272.01	258.838188192	2.537629296
0.3	272.99	264.759323216	2.537629296
0.3	273.97	269.834581808	2.64336385
0.3	274.93	276.178655048	2.64336385
0.3	275.88	281.676851856	2.749098404
0.3	276.82	288.232394204	2.749098404
0.3	277.75	295.52807843	2.854832958
0.3	278.68	301.766417116	2.854832958
0.3	279.59	309.590774112	2.960567512
0.3	280.48	318.366742094	2.960567512
0.3	281.36	326.402568198	3.066302066
0.3	282.23	334.332659748	3.17203662
0.3	283.09	343.10862773	3.17203662
0.3	283.93	351.56739205	3.277771174
0.3	284.76	360.660563694	3.383505728
0.3	285.58	372.502833742	3.489240282
0.3	286.37	390.054769706	3.594974836
0.3	287.16	386.45979487	3.489240282
0.3	287.96	383.81643102	3.489240282
0.3	288.77	372.079895526	3.489240282
0.3	289.6	343.954504162	3.277771174
0.3	290.49	303.035231764	3.066302066
0.3	291.45	258.098046314	2.64336385
0.3	292.49	228.38663664	2.326160188
0.3	293.57	214.64114462	2.220425634
0.3	294.67	204.913565652	2.11469108
0.37	161.79	108.2816459868	1.262023846
0.37	164.91	109.9222769866	1.3882262306
0.37	167.87	111.4367056018	1.3882262306
0.37	170.82	112.951134217	1.3882262306
0.37	173.77	114.5917652168	1.3882262306
0.37	176.72	116.2323962166	1.3882262306
0.37	179.67	118.3778367548	1.3882262306
0.37	182.6	121.4066939852	1.3882262306
0.37	185.5	126.7071941384	1.5144286152
0.37	188.37	129.4836465996	1.5144286152
0.37	191.25	131.1242775994	1.5144286152
0.37	194.12	132.6387062146	1.5144286152
0.37	196.98	134.1531348298	1.5144286152
0.37	199.84	135.9199682142	1.5144286152
0.37	201.97	137.4343968294	1.5144286152
0.37	203.36	138.5702182908	1.5144286152
0.37	204.75	139.0750278292	1.5144286152
0.37	206.15	140.4632540598	1.5144286152
0.37	207.55	141.2204683674	1.6406309998
0.37	208.96	142.1038850596	1.6406309998
0.37	210.37	142.8610993672	1.6406309998
0.37	211.79	143.6183136748	1.6406309998
0.37	213.22	144.2493255978	1.6406309998
0.37	214.66	145.2589446746	1.6406309998
0.37	216.09	146.2685637514	1.6406309998
0.37	217.52	148.1615995204	1.6406309998
0.37	218.93	150.811849597	1.6406309998
0.37	220.33	154.9765282888	1.6406309998
0.37	221.7	161.539052288	1.7668333844
0.37	223.04	170.4994215946	1.7668333844
0.37	224.35	182.1100409778	1.893035769
0.37	225.63	195.2350889762	2.0192381536
0.37	226.88	210.126970359	2.1454405382
0.37	228.08	225.5236612802	2.2716429228
0.37	229.24	246.3470547392	2.3978453074
0.37	230.36	271.966138813	2.6502500766
0.37	231.41	306.671794578	3.0288572304
0.37	232.4	350.7164268034	3.4074643842
0.37	233.32	386.6841064144	3.5336667688
0.37	234.25	311.2150804236	3.5336667688
0.37	235.39	181.6052314394	2.1454405382
0.37	236.7	181.731433824	1.893035769
0.37	238	183.2458624392	1.893035769
0.37	239.3	184.7602910544	1.893035769
0.37	240.6	186.2747196696	1.893035769
0.37	241.9	188.1677554386	2.0192381536
0.37	243.19	189.934588823	2.0192381536
0.37	244.48	191.7014222074	2.0192381536
0.37	245.76	193.720660361	2.0192381536
0.37	247.04	195.61369613	2.0192381536
0.37	248.32	197.7591366682	2.0192381536
0.37	249.59	199.9045772064	2.0192381536
0.37	250.86	202.1762201292	2.0192381536
0.37	252.13	204.3216606674	2.1454405382
0.37	253.39	206.8457083594	2.1454405382
0.37	254.64	209.3697560514	2.1454405382
0.37	255.89	212.020006128	2.1454405382
0.37	257.13	214.6702562046	2.1454405382
0.37	258.37	217.5729110504	2.1454405382
0.37	259.6	220.6017682808	2.2716429228
0.37	260.83	223.7568278958	2.2716429228
0.37	262.05	227.0380898954	2.2716429228
0.37	263.26	230.4455542796	2.2716429228
0.37	264.46	233.9792210484	2.2716429228
0.37	265.66	238.0176973556	2.3978453074
0.37	266.85	241.9299712782	2.3978453074
0.37	268.03	246.09464997	2.3978453074
0.37	269.2	250.511733431	2.3978453074
0.37	270.37	255.1812216612	2.524047692
0.37	271.52	259.976912276	2.524047692
0.37	272.66	265.2774124292	2.524047692
0.37	273.8	270.9565197362	2.6502500766
0.37	274.92	276.8880318124	2.6502500766
0.37	276.03	283.1981510424	2.7764524612
0.37	277.13	289.7606750416	2.7764524612
0.37	278.22	296.8280085792	2.7764524612
0.37	279.29	304.4001516552	2.9026548458
0.37	280.35	312.6033066542	2.9026548458
0.37	281.39	321.4374735762	3.0288572304
0.37	282.42	331.4074619596	3.155059615
0.37	283.44	340.3678312662	3.155059615
0.37	284.44	351.473641111	3.2812619996
0.37	285.41	362.200843802	3.4074643842
0.37	286.38	375.3258918004	3.4074643842
0.37	287.33	388.1985350296	3.5336667688
0.37	288.25	402.2069997202	3.6598691534
0.37	289.16	417.2250834876	3.786071538
0.37	290.05	434.2624054086	3.9122739226
0.37	290.92	452.1831440218	4.0384763072
0.37	291.76	471.6183112502	4.2908810764
0.37	292.58	492.6941094784	4.417083461
0.37	293.38	514.4009196296	4.6694882302
0.37	294.16	540.9034203956	4.7956906148
0.37	294.91	561.0958019316	5.048095384
0.37	295.64	590.8795646972	5.1742977686
0.37	296.33	593.15120762	5.1742977686
0.37	297.06	577.6283143142	5.1742977686
0.37	297.82	542.4178490108	5.1742977686
0.37	298.66	429.5929171784	4.9218929994
0.37	299.68	268.6848768134	4.0384763072
0.83	78.15	130.0919304286	1.5642316284
0.83	80.13	132.4382778712	1.5642316284
0.83	81.97	134.263214771	1.5642316284
0.83	83.83	136.3488569422	1.5642316284
0.83	85.69	138.4344991134	1.5642316284
0.83	87.56	140.780846556	1.5642316284
0.83	89.44	142.8664887272	1.5642316284
0.83	91.33	144.9521308984	1.5642316284
0.83	93.22	147.0377730696	1.5642316284
0.83	95.13	149.1234152408	1.5642316284
0.83	97.04	150.9483521406	1.5642316284
0.83	98.95	153.0339943118	1.5642316284
0.83	100.88	155.119636483	1.8249368998
0.83	102.8	156.9445733828	1.8249368998
0.83	104.74	159.030215554	1.8249368998
0.83	106.68	161.1158577252	1.8249368998
0.83	108.63	163.2014998964	1.8249368998
0.83	110.57	165.0264367962	1.8249368998
0.83	112.53	167.1120789674	1.8249368998
0.83	114.48	169.1977211386	1.8249368998
0.83	116.44	171.0226580384	1.8249368998
0.83	118.4	173.1083002096	1.8249368998
0.83	120.37	175.1939423808	1.8249368998
0.83	122.34	177.0188792806	1.8249368998
0.83	124.3	179.1045214518	1.8249368998
0.83	126.27	181.190163623	1.8249368998
0.83	128.25	183.2758057942	1.8249368998
0.83	130.22	185.3614479654	1.8249368998
0.83	132.19	187.4470901366	2.0856421712
0.83	134.16	189.7934375792	2.0856421712
0.83	136.14	192.1397850218	2.0856421712
0.83	138.11	194.7468377358	2.0856421712
0.83	140.08	197.8753009926	2.0856421712
0.83	142.04	201.5251747922	2.0856421712
0.83	143.99	206.7392802202	2.0856421712
0.83	145.93	214.5604383622	2.0856421712
0.83	147.86	217.4281963476	2.0856421712
0.83	149.8	211.6926803768	2.0856421712
0.83	151.76	207.260690763	2.0856421712
0.83	153.74	206.2178696774	2.0856421712
0.83	155.72	206.7392802202	2.0856421712
0.83	157.71	207.7821013058	2.0856421712
0.83	159.7	209.0856276628	2.0856421712
0.83	161.69	210.6498592912	2.0856421712
0.83	163.68	212.474796191	2.0856421712
0.83	165.67	214.2997330908	2.0856421712
0.83	167.65	215.8639647192	2.0856421712
0.83	169.64	217.688901619	2.0856421712
0.83	171.63	219.5138385188	2.0856421712
0.83	173.61	221.3387754186	2.3463474426
0.83	175.6	223.4244175898	2.3463474426
0.83	177.58	224.9886492182	2.3463474426
0.83	179.56	227.0742913894	2.3463474426
0.83	181.54	228.8992282892	2.3463474426
0.83	183.52	230.724165189	2.3463474426
0.83	185.5	232.8098073602	2.3463474426
0.83	187.47	234.8954495314	2.3463474426
0.83	189.44	237.241796974	2.3463474426
0.83	191.41	240.1095549594	2.3463474426
0.83	193.36	244.2808393018	2.3463474426
0.83	195.3	250.0163552726	2.3463474426
0.83	197.23	254.9697554292	2.607052714
0.83	199.14	258.8803345002	2.607052714
0.83	201.17	262.5302082998	2.607052714
0.83	203.32	264.8765557424	2.607052714
0.83	205.47	266.7014926422	2.607052714
0.83	207.62	268.526429542	2.607052714
0.83	209.77	270.6120717132	2.607052714
0.83	211.92	272.6977138844	2.607052714
0.83	214.07	274.7833560556	2.607052714
0.83	216.21	276.8689982268	2.607052714
0.83	218.36	278.6939351266	2.607052714
0.83	220.5	280.7795772978	2.607052714
0.83	222.65	282.865219469	2.607052714
0.83	224.8	284.9508616402	2.8677579854
0.83	226.96	286.77579854	2.8677579854
0.83	229.14	288.6007354398	2.8677579854
0.83	231.35	290.4256723396	2.8677579854
0.83	233.59	291.2077881538	2.8677579854
0.83	235.86	290.1649670682	2.8677579854
0.83	238.22	290.9470828824	2.8677579854
0.83	240.46	293.8148408678	2.8677579854
0.83	242.68	297.204009396	2.8677579854
0.83	244.87	300.5931779242	2.8677579854
0.83	247.05	303.4609359096	2.8677579854
0.83	249.21	306.5893991664	2.8677579854
0.83	251.37	309.4571571518	2.8677579854
0.83	253.52	312.5856204086	2.8677579854
0.83	255.66	315.7140836654	2.8677579854
0.83	257.79	318.8425469222	3.1284632568
0.83	259.92	322.2317154504	3.1284632568
0.83	262.04	325.6208839786	3.1284632568
0.83	264.15	329.2707577782	3.1284632568
0.83	266.24	333.1813368492	3.1284632568
0.83	268.33	337.3526211916	3.1284632568
0.83	270.4	342.3060213482	3.1284632568
0.83	272.47	346.9987162334	3.1284632568
0.83	274.51	353.7770532898	3.3891685282
0.83	276.53	361.076800889	3.3891685282
0.83	278.52	369.4193695738	3.3891685282
0.83	280.49	379.5868751584	3.3891685282
0.83	282.42	391.5793176428	3.6498737996
0.83	284.33	406.4395181126	3.6498737996
0.83	286.18	423.9067712964	3.910579071
0.83	288	449.1951826222	4.1712843424
0.83	289.76	475.2657097622	4.1712843424
0.83	291.45	514.892911015	4.6926948852
0.83	293.09	549.8274173826	4.9534001566
0.83	294.68	580.8513446792	5.214105428
0.83	296.25	574.0730076228	5.214105428
0.83	297.88	481.5226362758	4.4319896138
0.83	299.67	439.0276770376	3.910579071
0.83	301.5	445.806014094	3.910579071
0.83	303.31	454.1485827788	4.1712843424
0.83	305.11	462.4911514636	4.1712843424
0.83	306.89	471.876541234	4.1712843424
0.83	308.65	484.3903942612	4.4319896138
0.83	310.39	497.6863631026	4.4319896138
0.83	312.09	512.8072688438	4.6926948852
0.83	313.75	529.231700942	4.6926948852
0.83	315.4	549.3060068398	4.9534001566
0.83	317.02	571.2052496374	4.9534001566
0.83	318.6	596.2329556918	5.214105428
0.83	320.13	624.389125003	5.4748106994
0.83	321.62	655.9344628424	5.7355159708
0.83	323.06	690.3475586672	5.9962212422
0.83	324.46	727.6284124774	6.2569265136
0.83	325.81	774.8160666008	6.7783370564
0.83	327.1	828.5213525092	7.0390423278
0.83	328.33	892.6548492736	7.5604528706
0.83	329.5	965.1309147228	8.3425686848
0.83	330.61	1052.9885911846	9.124684499
0.83	331.64	1141.889088732	9.6460950418
0.83	332.6	1224.7933650372	10.6889161274
0.83	333.26	1386.4306333052	12.5138530272
0.83	334.14	1617.9369143084	13.5566741128
0.83	335.19	1296.4873146722	11.731737213
0.83	336.19	1133.2858147758	10.9496213988
0.83	337.35	711.9860961934	9.124684499
0.83	338.19	480.7405204616	7.0390423278

System: water + 1-butyl-3-methylimidazolium tosylate; phases: Liquid, Gas
Property: Molar heat capacity at saturation pressure, J/K/mol (Liquid); method: SMALLAD:UFactor:2
Mole fraction of 1-butyl-3-methylimidazolium tosylate	Temperature, K	Molar heat capacity at saturation pressure, J/K/mol	uncertainty
0.3	295.82	198.569492412	2.008956526
0.3	296.97	199.098165182	2.008956526
0.3	298.13	199.521103398	2.008956526
0.3	299.28	199.83830706	2.008956526
0.3	301.01	200.578448938	2.008956526
0.3	303.34	201.212856262	2.008956526
0.3	305.64	201.95299814	2.11469108
0.3	307.94	202.798874572	2.11469108
0.3	310.24	203.53901645	2.11469108
0.3	312.54	204.384892882	2.11469108
0.3	314.83	205.12503476	2.11469108
0.3	317.13	205.865176638	2.11469108
0.3	319.42	206.816787624	2.11469108
0.3	321.7	207.451194948	2.11469108
0.3	323.99	208.191336826	2.11469108
0.3	326.27	209.037213258	2.11469108
0.3	328.55	209.988824244	2.11469108
0.3	330.82	210.94043523	2.11469108
0.3	333.09	212.209249878	2.11469108
0.3	335.35	213.795268188	2.11469108
0.3	337.61	215.064082836	2.220425634
0.3	339.88	213.58379908	2.11469108
0.3	342.14	213.58379908	2.11469108
0.3	344.41	214.323940958	2.11469108
0.3	346.67	214.958348282	2.220425634
0.3	348.93	215.69849016	2.220425634
0.3	351.19	216.438632038	2.220425634
0.3	353.44	217.073039362	2.220425634
0.3	355.69	217.81318124	2.220425634
0.3	357.94	218.553323118	2.220425634
0.3	360.18	219.187730442	2.220425634
0.3	362.42	219.822137766	2.220425634
0.3	364.66	220.245075982	2.220425634
0.3	366.89	221.090952414	2.220425634
0.37	301.5	233.8530186638	2.2716429228
0.37	304	232.5909948178	2.2716429228
0.37	306.5	233.6006138946	2.2716429228
0.37	309	234.4840305868	2.2716429228
0.37	311.5	235.367447279	2.2716429228
0.37	313.99	236.2508639712	2.3978453074
0.37	316.49	237.1342806634	2.3978453074
0.37	318.98	238.1438997402	2.3978453074
0.37	321.47	239.0273164324	2.3978453074
0.37	323.96	239.9107331246	2.3978453074
0.37	326.44	240.9203522014	2.3978453074
0.37	328.93	241.8037688936	2.3978453074
0.37	331.41	242.6871855858	2.3978453074
0.37	333.89	243.570602278	2.3978453074
0.37	336.37	244.4540189702	2.3978453074
0.37	338.85	245.2112332778	2.3978453074
0.37	341.32	246.09464997	2.3978453074
0.37	343.8	246.9780666622	2.3978453074
0.37	346.27	247.8614833544	2.3978453074
0.37	348.75	248.618697662	2.3978453074
0.37	351.22	249.3759119696	2.3978453074
0.37	353.69	250.511733431	2.3978453074
0.37	356.16	251.3951501232	2.524047692
0.37	358.63	252.4047692	2.524047692
0.37	361.09	253.035781123	2.524047692
0.37	363.55	253.9191978152	2.524047692
0.37	366	254.6764121228	2.524047692
0.37	368.46	255.6860311996	2.524047692
0.83	339.63	464.3160883634	4.1712843424
0.83	340.02	459.1019829354	4.1712843424
0.83	341.87	460.4055092924	4.1712843424
0.83	342.82	461.7090356494	4.1712843424
0.83	343.71	461.7090356494	4.1712843424
0.83	345.56	462.751856735	4.1712843424
0.83	345.93	463.7946778206	4.1712843424
0.83	347.4	464.055383092	4.1712843424
0.83	349.04	465.8803199918	4.1712843424
0.83	349.25	465.358909449	4.1712843424
0.83	351.1	466.662435806	4.1712843424
0.83	352.16	467.965962163	4.1712843424
0.83	352.94	467.7052568916	4.1712843424
0.83	354.79	469.0087832486	4.1712843424
0.83	355.28	469.7908990628	4.1712843424
0.83	356.63	470.3123096056	4.1712843424
0.83	358.39	471.876541234	4.1712843424
0.83	358.47	471.6158359626	4.1712843424
0.83	360.31	472.9193623196	4.1712843424
0.83	361.5	473.7014781338	4.1712843424
0.83	362.15	474.2228886766	4.1712843424
0.83	363.99	475.2657097622	4.1712843424
0.83	364.61	475.787120305	4.1712843424
0.83	365.82	476.3085308478	4.1712843424
0.83	367.72	477.8727624762	4.1712843424

System: 1-aza-2-cycloheptanone + 1-butyl-3-methylimidazolium tosylate; phases: Liquid, Crystal
Fixed: Pressure, kPa = 101
Property: Solid-liquid equilibrium temperature, K (Liquid); method: VISOBS:UFactor:12
Mole fraction of 1-butyl-3-methylimidazolium tosylate	Solid-liquid equilibrium temperature, K	uncertainty
0.482	311.7	1.9
0.537	315.7	1.9
0.568	317.7	1.9
0.684	326.7	1.9
0.824	334.7	1.9
0.96	343.3	1.9

System: 1-aza-2-cycloheptanone + 1-butyl-3-methylimidazolium tosylate; phases: Liquid, Crystal
Fixed: Pressure, kPa = 101
Property: Solid-liquid equilibrium temperature, K (Liquid); method: VISOBS:UFactor:12
Mole fraction of 1-butyl-3-methylimidazolium tosylate	Solid-liquid equilibrium temperature, K	uncertainty
0.063	339.2	1.9
0.114	335.9	1.9
0.171	331.7	1.9
0.227	327	1.9
0.286	322.2	1.9
0.351	316.2	1.9
0.392	313	1.9
