Measured thermophysical data. Experimental P-T-G Measurements of Supercritical Mixtures of Carbon Dioxide, Carbon Monoxide, and Hydrogen and Semiquantitative Estimation of Their Solvent Power Using the Solubility Parameter Concept
Source: J. Chem. Eng. Data, 2007, 10.1021/je700307r
Compound 1: carbon dioxide, CO2, InChI=1S/CO2/c2-1-3
Compound 2: carbon monoxide, CO, InChI=1S/CO/c1-2
Compound 3: hydrogen, H2, InChI=1S/H2/h1H

System: carbon dioxide + carbon monoxide; phases: Fluid (supercritical or subcritical phases)
Property: Mass density, kg/m3 (Fluid (supercritical or subcritical phases)); method: ISOCHOR
Temperature, K	Pressure, kPa	Mole fraction of carbon monoxide	Mass density, kg/m3	uncertainty
308	26000	0.138	758	5
308	26600	0.134	769	5
328	35200	0.138	758	5
333	37400	0.138	758	5
338	39900	0.138	758	5
343	42300	0.138	758	5
313	25400	0.046	835	6
313	27200	0.089	808	6
313	28000	0.115	791	6
313	28000	0.138	758	6
313	28400	0.117	790	6
313	29100	0.134	769	6
313	29600	0.065	845	6
318	28300	0.046	835	6
318	30200	0.089	808	6
318	30500	0.138	758	6
318	30600	0.115	791	6
318	30700	0.117	790	6
318	31600	0.134	769	6
318	32200	0.065	845	6
323	31300	0.046	835	6
323	32700	0.089	808	6
323	32800	0.138	758	6
323	33100	0.115	791	6
323	33600	0.117	790	6
323	34100	0.134	769	6
323	35200	0.065	845	6
328	33900	0.046	835	6
308	25400	0.115	791	6
328	35500	0.089	808	6
328	35700	0.115	791	6
328	36200	0.117	790	6
328	36600	0.134	769	6
328	38100	0.065	845	6
333	36600	0.046	835	6
308	25500	0.117	790	6
333	37900	0.089	808	6
333	38300	0.115	791	6
333	38900	0.117	790	6
333	39100	0.134	769	6
333	41100	0.065	845	6
338	39400	0.046	835	6
308	22500	0.046	835	6
338	40800	0.089	808	6
338	40800	0.115	791	6
338	41600	0.117	790	6
338	41600	0.134	769	6
338	44100	0.065	845	6
343	42200	0.046	835	6
343	43000	0.089	808	6
343	43300	0.115	791	6
343	44100	0.134	769	6
343	44400	0.117	790	6
343	47000	0.065	845	6
308	26500	0.065	845	6
308	24700	0.089	808	6

System: carbon dioxide + hydrogen; phases: Fluid (supercritical or subcritical phases)
Property: Mass density, kg/m3 (Fluid (supercritical or subcritical phases)); method: ISOCHOR
Temperature, K	Pressure, kPa	Mole fraction of hydrogen	Mass density, kg/m3	uncertainty
313	22600	0.244	461	3
318	23700	0.244	461	3
323	24900	0.244	461	3
328	26100	0.244	461	3
333	27200	0.244	461	3
338	28400	0.244	461	3
343	29600	0.244	461	3
318	23400	0.13	624	5
318	36700	0.135	748	5
323	25100	0.13	624	5
323	39000	0.135	748	5
328	26600	0.13	624	5
328	41400	0.135	748	5
333	28400	0.13	624	5
333	40200	0.138	728	5
333	43800	0.135	748	5
338	30000	0.13	624	5
338	42600	0.138	728	5
338	46300	0.135	748	5
313	22100	0.13	624	5
343	31700	0.13	624	5
343	44900	0.138	728	5
343	48900	0.135	748	5
313	31300	0.138	728	6
308	27400	0.065	819	6
313	34100	0.135	748	6
328	31500	0.045	795	6
328	37900	0.138	728	6
328	38100	0.065	819	6
308	20100	0.13	624	6
308	29400	0.138	728	6
308	21100	0.045	795	6
333	33700	0.045	795	6
318	26100	0.045	795	6
333	40800	0.065	819	6
318	32500	0.065	819	6
308	31700	0.135	748	6
318	33500	0.138	728	6
338	36200	0.045	795	6
313	23800	0.045	795	6
338	43800	0.065	819	6
308	21500	0.244	461	6
313	30000	0.065	819	6
323	28600	0.045	795	6
343	38900	0.045	795	6
323	35300	0.065	819	6
343	46700	0.065	819	6
323	35600	0.138	728	6

System: carbon monoxide + hydrogen; phases: Fluid (supercritical or subcritical phases)
Property: Mass density, kg/m3 (Fluid (supercritical or subcritical phases)); method: ISOCHOR
Temperature, K	Pressure, kPa	Mole fraction of hydrogen	Mass density, kg/m3	uncertainty
308	8800	0.049	472	6
308	10900	0.056	530	6
308	12600	0.049	672	7
308	13000	0.068	540	7
308	17300	0.095	500	5
308	20600	0.112	484	3
313	8900	0.049	472	6
313	11100	0.056	530	7
313	12900	0.049	672	7
313	13200	0.068	540	6
313	17600	0.095	500	5
313	21000	0.112	484	3
318	9100	0.049	472	6
318	11300	0.056	530	7
318	13000	0.049	672	7
318	13400	0.068	540	7
318	17900	0.095	500	5
318	21300	0.112	484	3
323	9300	0.049	472	6
323	11500	0.056	530	7
323	13200	0.049	672	7
323	13700	0.068	540	7
323	18200	0.095	500	5
323	21700	0.112	484	3
328	9400	0.049	472	6
328	11700	0.056	530	7
328	13500	0.049	672	7
328	13900	0.068	540	6
328	18600	0.095	500	5
328	22100	0.112	484	3
333	9600	0.049	472	6
333	11800	0.056	530	7
333	13700	0.049	672	7
333	14100	0.068	540	6
333	18800	0.095	500	5
333	22400	0.112	484	3
338	9700	0.049	472	6
338	12000	0.056	530	7
338	13900	0.049	672	7
338	14300	0.068	540	6
338	19200	0.095	500	5
338	22800	0.112	484	3
343	9900	0.049	472	6
343	12300	0.056	530	6
343	14100	0.049	672	7
343	14600	0.068	540	6
343	19400	0.095	500	5
343	23100	0.112	484	3

System: carbon dioxide + carbon monoxide + hydrogen; phases: Fluid (supercritical or subcritical phases)
Fixed: Mole fraction of carbon monoxide = 0.074
Fixed: Mole fraction of hydrogen = 0.087
Property: Mass density, kg/m3 (Fluid (supercritical or subcritical phases)); method: ISOCHOR
Temperature, K	Pressure, kPa	Mass density, kg/m3	uncertainty
308	9300	237	2
313	9800	237	2
318	10400	237	2
323	10600	237	2
328	11000	237	2
333	11300	237	2
338	11800	237	2
343	12200	237	2

System: carbon dioxide + carbon monoxide + hydrogen; phases: Fluid (supercritical or subcritical phases)
Fixed: Mole fraction of carbon monoxide = 0.212
Fixed: Mole fraction of hydrogen = 0.24
Property: Mass density, kg/m3 (Fluid (supercritical or subcritical phases)); method: ISOCHOR
Temperature, K	Pressure, kPa	Mass density, kg/m3	uncertainty
308	18000	268	2
313	19000	268	2
318	19500	268	2
323	20200	268	2
328	20900	268	2
333	21500	268	2
338	22100	268	2
343	22700	268	2

System: carbon dioxide + carbon monoxide + hydrogen; phases: Fluid (supercritical or subcritical phases)
Fixed: Mole fraction of carbon monoxide = 0.124
Fixed: Mole fraction of hydrogen = 0.12
Property: Mass density, kg/m3 (Fluid (supercritical or subcritical phases)); method: ISOCHOR
Temperature, K	Pressure, kPa	Mass density, kg/m3	uncertainty
308	19500	488	3
313	20800	488	3
318	22000	488	3
323	23100	488	3
328	24200	488	3
333	25400	488	3
338	26600	488	3
343	27600	488	3

System: carbon dioxide + carbon monoxide + hydrogen; phases: Fluid (supercritical or subcritical phases)
Fixed: Mole fraction of carbon monoxide = 0.204
Fixed: Mole fraction of hydrogen = 0.203
Property: Mass density, kg/m3 (Fluid (supercritical or subcritical phases)); method: ISOCHOR
Temperature, K	Pressure, kPa	Mass density, kg/m3	uncertainty
308	31900	501	4
313	33400	501	4
318	34900	501	4
323	36200	501	4
328	37500	501	4
333	39000	501	4
338	40400	501	4
343	41700	501	4

System: carbon dioxide + carbon monoxide + hydrogen; phases: Fluid (supercritical or subcritical phases)
Fixed: Mole fraction of carbon monoxide = 0.132
Fixed: Mole fraction of hydrogen = 0.154
Property: Mass density, kg/m3 (Fluid (supercritical or subcritical phases)); method: ISOCHOR
Temperature, K	Pressure, kPa	Mass density, kg/m3	uncertainty
308	31000	604	4
313	33100	604	4
318	34800	604	4
323	36500	604	4
328	38700	604	4
333	40100	604	4
338	42000	604	4
343	43700	604	4

System: carbon dioxide + carbon monoxide + hydrogen; phases: Fluid (supercritical or subcritical phases)
Fixed: Mole fraction of carbon monoxide = 0.049
Fixed: Mole fraction of hydrogen = 0.069
Property: Mass density, kg/m3 (Fluid (supercritical or subcritical phases)); method: ISOCHOR
Temperature, K	Pressure, kPa	Mass density, kg/m3	uncertainty
308	21900	718	5
313	24000	718	5
318	26100	718	5
323	28300	718	5
328	30400	718	5
333	32400	718	5
338	34600	718	5
343	36600	718	5

System: carbon dioxide + carbon monoxide + hydrogen; phases: Fluid (supercritical or subcritical phases)
Fixed: Mole fraction of carbon monoxide = 0.072
Fixed: Mole fraction of hydrogen = 0.049
Property: Mass density, kg/m3 (Fluid (supercritical or subcritical phases)); method: ISOCHOR
Temperature, K	Pressure, kPa	Mass density, kg/m3	uncertainty
308	23200	736	5
313	25400	736	5
318	27500	736	5
323	29700	736	5
328	32000	736	5
333	34200	736	5
338	36300	736	5
343	38600	736	5

System: carbon dioxide + carbon monoxide + hydrogen; phases: Fluid (supercritical or subcritical phases)
Fixed: Mole fraction of carbon monoxide = 0.023
Fixed: Mole fraction of hydrogen = 0.065
Property: Mass density, kg/m3 (Fluid (supercritical or subcritical phases)); method: ISOCHOR
Temperature, K	Pressure, kPa	Mass density, kg/m3	uncertainty
308	24200	774	5
313	26700	774	5
318	29200	774	5
323	31700	774	5
328	34100	774	5
333	36600	774	5
338	39100	774	5
343	41600	774	5

System: carbon dioxide + carbon monoxide + hydrogen; phases: Fluid (supercritical or subcritical phases)
Fixed: Mole fraction of carbon monoxide = 0.063
Fixed: Mole fraction of hydrogen = 0.063
Property: Mass density, kg/m3 (Fluid (supercritical or subcritical phases)); method: ISOCHOR
Temperature, K	Pressure, kPa	Mass density, kg/m3	uncertainty
308	29300	784	6
313	31900	784	6
318	34600	784	6
323	37200	784	6
328	40000	784	6
333	42600	784	6
338	45300	784	6
343	48000	784	6

System: carbon dioxide + carbon monoxide + hydrogen; phases: Fluid (supercritical or subcritical phases)
Fixed: Mole fraction of carbon monoxide = 0.07
Fixed: Mole fraction of hydrogen = 0.018
Property: Mass density, kg/m3 (Fluid (supercritical or subcritical phases)); method: ISOCHOR
Temperature, K	Pressure, kPa	Mass density, kg/m3	uncertainty
308	24900	800	6
313	27500	800	6
318	30000	800	6
323	33000	800	6
328	35300	800	6
333	37800	800	6
338	40400	800	6
343	43000	800	6

System: carbon dioxide + carbon monoxide + hydrogen; phases: Fluid (supercritical or subcritical phases)
Fixed: Mole fraction of carbon monoxide = 0.032
Fixed: Mole fraction of hydrogen = 0.035
Property: Mass density, kg/m3 (Fluid (supercritical or subcritical phases)); method: ISOCHOR
Temperature, K	Pressure, kPa	Mass density, kg/m3	uncertainty
308	28300	844	6
313	30900	844	6
318	33900	844	6
323	37100	844	6
328	40000	844	6
333	43100	844	6
338	46200	844	6
343	49300	844	6
