Measured thermophysical data. Quantitative Determination of Binodal and Phase Equilibrium Diagrams for the Ternary System (Fluorobenzene + Water + 2-Propanol) at Three Temperatures
Source: J. Chem. Eng. Data, 2007, 10.1021/je700212q
Compound 1: water, H2O, InChI=1S/H2O/h1H2
Compound 2: propan-2-ol, C3H8O, InChI=1S/C3H8O/c1-3(2)4/h3-4H,1-2H3
Compound 3: fluorobenzene, C6H5F, InChI=1S/C6H5F/c7-6-4-2-1-3-5-6/h1-5H

System: propan-2-ol + fluorobenzene + water; phases: Liquid mixture 1, Liquid mixture 2
Fixed: Pressure, kPa = 101.325
Property: Mole fraction of propan-2-ol (Liquid mixture 1); method: Chromatography
Mole fraction of water	Temperature, K	Mole fraction of propan-2-ol	uncertainty
0.032	308.15	0.066	0.014
0.055	288.15	0.2	0.011
0.056	298.15	0.147	0.012
0.065	308.15	0.133	0.014
0.066	298.15	0.166	0.01
0.076	298.15	0.182	0.012
0.077	308.15	0.16	0.011
0.081	288.15	0.24	0.011
0.092	298.15	0.209	0.01
0.107	288.15	0.276	0.009
0.115	298.15	0.242	0.009
0.119	308.15	0.218	0.009
0.135	288.15	0.299	0.008
0.144	298.15	0.271	0.008
0.145	308.15	0.234	0.007
0.182	298.15	0.296	0.008
0.19	288.15	0.334	0.007
0.193	308.15	0.261	0.007
0.223	288.15	0.347	0.007
0.23	298.15	0.33	0.007
0.23	308.15	0.277	0.007
0.257	308.15	0.28	0.006
0.259	288.15	0.357	0.007
0.29	298.15	0.352	0.007
0.293	288.15	0.361	0.007
0.303	308.15	0.282	0.006
0.334	288.15	0.359	0.007
0.336	298.15	0.356	0.007
0.344	308.15	0.277	0.006
0.364	308.15	0.272	0.006
0.374	298.15	0.36	0.007
0.379	288.15	0.355	0.007
0.4	308.15	0.264	0.007
0.405	298.15	0.354	0.007
0.427	288.15	0.345	0.007
0.456	298.15	0.341	0.007
0.461	308.15	0.243	0.007
0.48	288.15	0.328	0.007
0.514	298.15	0.32	0.007
0.536	288.15	0.308	0.007
0.542	308.15	0.21	0.007
0.575	298.15	0.294	0.007
0.6	288.15	0.279	0.007
0.632	308.15	0.171	0.007
0.64	298.15	0.261	0.007
0.66	288.15	0.247	0.007
0.707	298.15	0.22	0.007
0.713	288.15	0.218	0.007
0.715	308.15	0.134	0.007
0.758	288.15	0.192	0.007
0.761	298.15	0.186	0.008
0.782	308.15	0.103	0.007
0.793	288.15	0.171	0.007
0.808	298.15	0.152	0.007
0.818	288.15	0.157	0.007
0.847	298.15	0.123	0.008
0.868	308.15	0.063	0.007
0.883	298.15	0.095	0.007
0.905	298.15	0.078	0.008
0.927	308.15	0.035	0.007
0.953	308.15	0.023	0.007

System: propan-2-ol + fluorobenzene + water; phases: Liquid mixture 1, Liquid mixture 2
Fixed: Pressure, kPa = 101.325
Property: Mole fraction of propan-2-ol (Liquid mixture 1); method: Chromatography
Property: Mole fraction of propan-2-ol (Liquid mixture 2); method: Chromatography
Property: Mole fraction of water (Liquid mixture 2); method: Chromatography
Temperature, K	Mole fraction of water	Mole fraction of propan-2-ol	uncertainty	Mole fraction of propan-2-ol	uncertainty	Mole fraction of water	uncertainty
288.15	0.73	0.208	0.007	0.361	0.007	0.264	
288.15	0.802	0.166	0.007	0.34	0.007	0.206	
288.15	0.861	0.124	0.008	0.307	0.007	0.156	
288.15	0.901	0.09	0.008	0.277	0.009	0.109	
288.15	0.939	0.061	0.008	0.219	0.012	0.069	
288.15	0.979	0.021	0.009	0.124	0.013	0.018	
288.15	0.98	0.02	0.009	0.082	0.016	0.012	
298.15	0.702	0.219	0.007	0.361	0.007	0.333	
298.15	0.78	0.169	0.007	0.348	0.007	0.295	
298.15	0.855	0.115	0.008	0.326	0.007	0.237	
298.15	0.875	0.102	0.007	0.319	0.007	0.21	
298.15	0.907	0.078	0.007	0.296	0.008	0.172	
298.15	0.949	0.049	0.008	0.252	0.009	0.105	
298.15	0.96	0.04	0.011	0.213	0.014	0.086	
308.15	0.83	0.077	0.007	0.279	0.007	0.243	
308.15	0.855	0.067	0.007	0.269	0.007	0.219	
308.15	0.872	0.06	0.007	0.26	0.007	0.195	
308.15	0.907	0.046	0.007	0.236	0.008	0.151	
308.15	0.958	0.022	0.007	0.165	0.009	0.085	
308.15	0.979	0.012	0.007	0.118	0.01	0.05	
