Measured thermophysical data. Density, Speed of Sound, and Derived Thermodynamic Properties of Ionic Liquids [EMIM]+[BETI]- or ([EMIM]+[CH3(OCH2CH2)2OSO3]- + Methanol or + Acetone) at T = (298.15 or 303.15 or 313.15) K
Source: J. Chem. Eng. Data, 2008, 10.1021/je700648c
Compound 1: 1-ethyl-3-methylimidazolium 2-(2-methoxyethoxy) ethylsulfate, C11H22N2O6S, InChI=1S/C6H11N2.C5H12O6S/c1-3-8-5-4-7(2)6-8;1-9-2-3-10-4-5-11-12(6,7)8/h4-6H,3H2,1-2H3;2-5H2,1H3,(H,6,7,8)/q+1;/p-1, purity 98%
Compound 2: 1-ethyl-3-methylimidazolium 1,1,2,2,2-pentafluoro-N-[(pentafluoroethyl)sulfonyl]ethanesulfonamide, C10H11F10N3O4S2, InChI=1S/C6H11N2.C4F10NO4S2/c1-3-8-5-4-7(2)6-8;5-1(6,7)3(11,12)20(16,17)15-21(18,19)4(13,14)2(8,9)10/h4-6H,3H2,1-2H3;/q+1;-1, purity 98%
Compound 3: methanol, CH4O, InChI=1S/CH4O/c1-2/h2H,1H3
Compound 4: acetone, C3H6O, InChI=1S/C3H6O/c1-3(2)4/h1-2H3, purity 99.9%

System: 1-ethyl-3-methylimidazolium 1,1,2,2,2-pentafluoro-N-[(pentafluoroethyl)sulfonyl]ethanesulfonamide; phases: Liquid
Fixed: Pressure, kPa = 101
Property: Mass density, kg/m3 (Liquid); method: VIBTUB:UFactor:8
Temperature, K	Mass density, kg/m3	uncertainty
298.15	1593.2	4.2
303.15	1587.6	4.1
303.15	1587.3	4.1
313.15	1576.7	4.1

System: acetone; phases: Liquid
Fixed: Pressure, kPa = 101
Property: Mass density, kg/m3 (Liquid); method: VIBTUB:UFactor:8
Temperature, K	Mass density, kg/m3	uncertainty
298.15	784.1	1.2
303.15	778.4	1.2
313.15	766.9	1.2

System: methanol + 1-ethyl-3-methylimidazolium 1,1,2,2,2-pentafluoro-N-[(pentafluoroethyl)sulfonyl]ethanesulfonamide; phases: Liquid
Fixed: Pressure, kPa = 101
Property: Mass density, kg/m3 (Liquid); method: VIBTUB:UFactor:8
Mole fraction of methanol	Temperature, K	Mass density, kg/m3	uncertainty
0	298.15	1593.2	4.2
0	303.15	1587.6	4.1
0	313.15	1576.7	4.1
0.0584	298.15	1586.2	4.5
0.0584	303.15	1580.5	4.5
0.0584	313.15	1569.5	4.4
0.1116	298.15	1579.4	4.8
0.1116	303.15	1573.7	4.8
0.1116	313.15	1562.6	4.7
0.1686	298.15	1571.3	5.2
0.1686	303.15	1565.6	5.2
0.1686	313.15	1554.5	5.1
0.2956	298.15	1549.7	6.1
0.2956	303.15	1544	6
0.2956	313.15	1532.8	5.9
0.5104	298.15	1494.6	7.6
0.5104	303.15	1488.9	7.5
0.5104	313.15	1477.7	7.4
0.6083	298.15	1455.3	8.2
0.6083	303.15	1449.6	8.1
0.6083	313.15	1438.3	8
0.706	298.15	1398.9	8.5
0.706	303.15	1393.2	8.4
0.706	313.15	1382	8.3
0.8237	298.15	1285.9	8.2
0.8237	303.15	1280.2	8.1
0.8237	313.15	1269.3	7.9
0.9033	298.15	1148.2	7
0.9033	303.15	1142.6	6.9
0.9033	313.15	1132	6.7
1	298.15	786.6	4.2
1	303.15	781.9	4.2
1	313.15	772.6	4.2

System: acetone + 1-ethyl-3-methylimidazolium 1,1,2,2,2-pentafluoro-N-[(pentafluoroethyl)sulfonyl]ethanesulfonamide; phases: Liquid
Fixed: Pressure, kPa = 101
Property: Mass density, kg/m3 (Liquid); method: VIBTUB:UFactor:8
Mole fraction of acetone	Temperature, K	Mass density, kg/m3	uncertainty
0	298.15	1593.2	4.2
0	303.15	1587.3	4.1
0	313.15	1576.7	4.1
0.0807	298.15	1576.8	3.8
0.0807	303.15	1571.1	3.7
0.0807	313.15	1560.2	3.7
0.1417	298.15	1563.1	3.5
0.1417	303.15	1557.4	3.5
0.1417	313.15	1546.4	3.4
0.2521	298.15	1534.6	3
0.2521	303.15	1528.8	3
0.2521	313.15	1517.7	2.9
0.2791	298.15	1526.6	2.9
0.2791	303.15	1520.8	2.9
0.2791	313.15	1509.6	2.8
0.415	298.15	1479.2	2.4
0.415	303.15	1473.3	2.4
0.415	313.15	1462.2	2.3
0.5195	298.15	1431.8	2
0.5195	303.15	1425.8	2
0.5195	313.15	1414.8	2
0.5676	298.15	1405.5	1.9
0.5676	303.15	1399.5	1.9
0.5676	313.15	1388.4	1.8
0.7092	298.15	1303.1	1.5
0.7092	303.15	1297.2	1.5
0.7092	313.15	1285.7	1.4
0.755	298.15	1258.2	1.4
0.755	303.15	1252.2	1.3
0.755	313.15	1240.8	1.3
0.8137	298.15	1188.4	1.2
0.8137	303.15	1182.5	1.2
0.8137	313.15	1170.8	1.1
0.8927	298.15	1062	0.9
0.8927	303.15	1055.9	0.9
0.8927	313.15	1044.3	0.9
0.9502	298.15	935	0.9
0.9502	303.15	929.1	0.9
0.9502	313.15	917.6	0.9
1	298.15	784.1	1.2
1	303.15	778.4	1.2
1	313.15	766.9	1.2

System: methanol + 1-ethyl-3-methylimidazolium 2-(2-methoxyethoxy) ethylsulfate; phases: Liquid
Fixed: Pressure, kPa = 101
Fixed: Temperature, K = 298.15
Property: Speed of sound, m/s (Liquid); method: FPINT:UFactor:2
Mole fraction of methanol	Speed of sound, m/s	uncertainty
0.1791	1677.6	3.4
0.356	1647	3.8
0.4548	1620	4
0.5356	1597.2	4.2
0.6298	1563.6	4.5
0.7412	1499.4	4.8
0.7987	1453.2	4.9
0.8527	1387.5	5
0.9011	1324.8	5.2
0.9298	1270.8	5.2
0.962	1201.2	5.3
0.9829	1158	5.4

System: methanol + acetone + 1-ethyl-3-methylimidazolium 1,1,2,2,2-pentafluoro-N-[(pentafluoroethyl)sulfonyl]ethanesulfonamide; phases: Liquid
Fixed: Pressure, kPa = 101
Property: Mass density, kg/m3 (Liquid); method: VIBTUB:UFactor:8
Mole fraction of methanol	Mole fraction of acetone	Temperature, K	Mass density, kg/m3	uncertainty
0.0211	0.7657	298.15	889.4	1
0.0211	0.7657	303.15	884.1	1
0.0211	0.7657	313.15	873.5	1
0.0245	0.6613	298.15	897.5	1.1
0.0245	0.6613	303.15	892.2	1
0.0245	0.6613	313.15	881.3	1.1
0.0272	0.213	298.15	882.5	1.3
0.0272	0.213	303.15	877	1
0.0272	0.213	313.15	865.7	1.3
0.0549	0.4019	298.15	978.1	1.1
0.0549	0.4019	303.15	972.4	1.1
0.0549	0.4019	313.15	961	1
0.0795	0.5957	298.15	1064	1
0.0795	0.5957	303.15	1058.4	1.1
0.0795	0.5957	313.15	1047.1	1
0.1454	0.5467	298.15	1194.1	1.6
0.1454	0.5467	303.15	1188.4	1.6
0.1454	0.5467	313.15	1176.7	1.5
0.1999	0.6292	298.15	1287.1	1.9
0.1999	0.6292	303.15	1281.2	1.9
0.1999	0.6292	313.15	1269.9	1.8
0.2294	0.1188	298.15	1253.3	3
0.2294	0.1188	303.15	1247.5	3
0.2294	0.1188	313.15	1235.6	2.9
0.2818	0.4481	298.15	1350.1	2.9
0.2818	0.4481	303.15	1344.1	2.8
0.2818	0.4481	313.15	1332.8	2.8
0.3221	0.2227	298.15	1354.8	4.6
0.3221	0.2227	303.15	1349	4
0.3221	0.2227	313.15	1337.3	4
0.4927	0.2348	298.15	1463.3	5.8
0.4927	0.2348	303.15	1457.6	5.7
0.4927	0.2348	313.15	1445.9	5.6
0.5038	0.0711	298.15	1450.2	6.6
0.5038	0.0711	303.15	1444.5	6.6
0.5038	0.0711	313.15	1432.8	6.5
0.5472	0.2722	298.15	1492.3	6.3
0.5472	0.2722	303.15	1486.7	6.2
0.5472	0.2722	313.15	1475.1	6.1
0.6055	0.3074	298.15	1519.2	6.9
0.6055	0.3074	303.15	1513.5	6.8
0.6055	0.3074	313.15	1502.2	6.7
