Measured thermophysical data. Liquid Liquid Equilibria of Mixtures Containing Methyl Acetate + Methanol + Hexane or Heptane
Source: J. Chem. Eng. Data, 2008, 10.1021/je700397g
Compound 1: methyl ethanoate, C3H6O2, InChI=1S/C3H6O2/c1-3(4)5-2/h1-2H3
Compound 2: methanol, CH4O, InChI=1S/CH4O/c1-2/h2H,1H3
Compound 3: hexane, C6H14, InChI=1S/C6H14/c1-3-5-6-4-2/h3-6H2,1-2H3
Compound 4: heptane, C7H16, InChI=1S/C7H16/c1-3-5-7-6-4-2/h3-7H2,1-2H3

System: methanol + hexane; phases: Liquid mixture 1, Liquid mixture 2
Fixed: Pressure, kPa = 101.32
Property: Mole fraction of methanol (Liquid mixture 1); method: Chromatography
Temperature, K	Mole fraction of methanol	uncertainty
268.15	0.104	0.006
278.15	0.137	0.006
288.15	0.186	0.006
298.15	0.267	0.006

System: methanol + hexane; phases: Liquid mixture 2, Liquid mixture 1
Fixed: Pressure, kPa = 101.32
Property: Mole fraction of methanol (Liquid mixture 2); method: Chromatography
Temperature, K	Mole fraction of methanol	uncertainty
268.15	0.909	0.004
278.15	0.873	0.004
288.15	0.835	0.004
298.15	0.801	0.004

System: methanol + heptane; phases: Liquid mixture 1, Liquid mixture 2
Fixed: Pressure, kPa = 101.32
Property: Mole fraction of methanol (Liquid mixture 1); method: Chromatography
Temperature, K	Mole fraction of methanol	uncertainty
268.15	0.076	0.006
278.15	0.095	0.006
288.15	0.127	0.006
298.15	0.153	0.006

System: methanol + heptane; phases: Liquid mixture 2, Liquid mixture 1
Fixed: Pressure, kPa = 101.32
Property: Mole fraction of methanol (Liquid mixture 2); method: Chromatography
Temperature, K	Mole fraction of methanol	uncertainty
268.15	0.953	0.004
278.15	0.936	0.004
288.15	0.915	0.004
298.15	0.904	0.004

System: methanol + methyl ethanoate + hexane; phases: Liquid mixture 1, Liquid mixture 2
Fixed: Pressure, kPa = 101.32
Property: Mole fraction of methyl ethanoate (Liquid mixture 1); method: Chromatography
Property: Mole fraction of methyl ethanoate (Liquid mixture 2); method: Chromatography
Property: Mole fraction of methanol (Liquid mixture 2); method: Chromatography
Temperature, K	Mole fraction of methanol	Mole fraction of methyl ethanoate	uncertainty	Mole fraction of methyl ethanoate	uncertainty	Mole fraction of methanol	uncertainty
268.15	0.104	0	0.001	0	0.001	0.909	
268.15	0.11	0.005	0.005	0.007	0.006	0.904	
268.15	0.113	0.015	0.009	0.021	0.005	0.889	
268.15	0.124	0.023	0.008	0.032	0.005	0.867	
268.15	0.147	0.041	0.008	0.058	0.005	0.823	
268.15	0.164	0.057	0.008	0.074	0.005	0.792	
268.15	0.183	0.068	0.007	0.088	0.004	0.763	
268.15	0.221	0.089	0.007	0.112	0.004	0.701	
268.15	0.25	0.104	0.007	0.127	0.004	0.659	
268.15	0.308	0.125	0.006	0.148	0.004	0.552	
278.15	0.137	0	0.001	0	0.001	0.873	
278.15	0.139	0.008	0.008	0.009	0.005	0.861	
278.15	0.147	0.016	0.007	0.02	0.005	0.844	
278.15	0.17	0.026	0.007	0.031	0.005	0.829	
278.15	0.18	0.034	0.008	0.042	0.004	0.802	
278.15	0.187	0.042	0.008	0.053	0.004	0.775	
278.15	0.216	0.052	0.006	0.065	0.004	0.748	
278.15	0.237	0.06	0.006	0.074	0.004	0.725	
278.15	0.275	0.071	0.006	0.085	0.004	0.691	
288.15	0.186	0	0.001	0	0.001	0.835	
288.15	0.2	0.008	0.007	0.01	0.005	0.812	
288.15	0.216	0.016	0.007	0.02	0.004	0.796	
288.15	0.239	0.025	0.006	0.03	0.004	0.769	
288.15	0.267	0.033	0.006	0.04	0.004	0.738	
288.15	0.301	0.041	0.006	0.048	0.004	0.704	
288.15	0.387	0.055	0.006	0.06	0.004	0.627	
298.15	0.267	0	0.001	0	0.001	0.801	
298.15	0.301	0.017	0.006	0.019	0.004	0.747	
298.15	0.319	0.02	0.006	0.024	0.004	0.724	
298.15	0.374	0.027	0.006	0.029	0.004	0.686	

System: methanol + methyl ethanoate + heptane; phases: Liquid mixture 1, Liquid mixture 2
Fixed: Pressure, kPa = 101.32
Property: Mole fraction of methyl ethanoate (Liquid mixture 1); method: Chromatography
Property: Mole fraction of methyl ethanoate (Liquid mixture 2); method: Chromatography
Property: Mole fraction of methanol (Liquid mixture 2); method: Chromatography
Temperature, K	Mole fraction of methanol	Mole fraction of methyl ethanoate	uncertainty	Mole fraction of methyl ethanoate	uncertainty	Mole fraction of methanol	uncertainty
268.15	0.076	0	0.001	0	0.001	0.953	
268.15	0.087	0.012	0.01	0.014	0.005	0.935	
268.15	0.097	0.028	0.01	0.033	0.005	0.91	
268.15	0.11	0.045	0.011	0.055	0.005	0.878	
268.15	0.119	0.06	0.01	0.077	0.005	0.845	
268.15	0.122	0.065	0.01	0.082	0.005	0.836	
268.15	0.137	0.08	0.009	0.101	0.005	0.81	
268.15	0.152	0.101	0.011	0.131	0.005	0.77	
268.15	0.162	0.121	0.008	0.159	0.005	0.726	
268.15	0.19	0.136	0.007	0.176	0.005	0.691	
268.15	0.247	0.177	0.008	0.223	0.005	0.604	
278.15	0.095	0	0.001	0	0.001	0.936	
278.15	0.117	0.022	0.009	0.028	0.005	0.894	
278.15	0.131	0.041	0.009	0.053	0.005	0.859	
278.15	0.153	0.06	0.007	0.078	0.005	0.821	
278.15	0.19	0.081	0.007	0.105	0.005	0.772	
278.15	0.217	0.102	0.007	0.131	0.005	0.729	
278.15	0.275	0.132	0.007	0.159	0.005	0.664	
288.15	0.127	0	0.001	0	0.001	0.915	
288.15	0.161	0.024	0.008	0.028	0.005	0.875	
288.15	0.183	0.043	0.008	0.051	0.005	0.834	
288.15	0.195	0.052	0.007	0.063	0.005	0.813	
288.15	0.212	0.061	0.007	0.074	0.004	0.79	
288.15	0.266	0.084	0.006	0.101	0.004	0.729	
288.15	0.27	0.084	0.006	0.101	0.004	0.73	
288.15	0.392	0.118	0.006	0.128	0.004	0.628	
298.15	0.153	0	0.001	0	0.001	0.904	
298.15	0.166	0.008	0.007	0.009	0.004	0.879	
298.15	0.176	0.011	0.006	0.014	0.004	0.867	
298.15	0.205	0.021	0.006	0.025	0.005	0.845	
298.15	0.217	0.026	0.007	0.03	0.005	0.836	
298.15	0.246	0.038	0.006	0.046	0.004	0.806	
298.15	0.267	0.044	0.006	0.052	0.004	0.79	
298.15	0.35	0.067	0.006	0.073	0.004	0.728	
298.15	0.389	0.075	0.006	0.082	0.004	0.693	
298.15	0.429	0.082	0.006	0.089	0.004	0.661	
