Measured thermophysical data. Surface Tension and Density of 1-Methyl-3-hexylimidazolium Chloroindium
Source: J. Chem. Eng. Data, 2007, 10.1021/je700102g
Compound 1: 1-methyl-3-hexylimidazolium chloroindium, C10H19Cl4InN2, InChI=1S/C10H19N2.4ClH.In/c1-3-4-5-6-7-12-9-8-11(2)10-12;;;;;/h8-10H,3-7H2,1-2H3;4*1H;/q+1;;;;;+3/p-4

System: 1-methyl-3-hexylimidazolium chloroindium; phases: Liquid, Gas
Property: Surface tension liquid-gas, N/m (Liquid); method: Forced bubble method
Temperature, K	Surface tension liquid-gas, N/m	uncertainty
283.15	0.042	0.002
288.15	0.0416	0.002
293.15	0.0415	0.002
298.15	0.0411	0.002
303.15	0.0407	0.002
308.15	0.0403	0.002
313.15	0.0402	0.002
318.15	0.0399	0.002
323.15	0.0395	0.002
328.15	0.0394	0.002
333.15	0.0391	0.002
338.15	0.0389	0.002

System: 1-methyl-3-hexylimidazolium chloroindium; phases: Liquid
Fixed: Pressure, kPa = 101.325
Property: Mass density, kg/m3 (Liquid); method: Vibrating tube method
Temperature, K	Mass density, kg/m3	uncertainty
283.15	1491.97	15.71
288.15	1487.06	15.6
293.15	1481.89	15.5
298.15	1476.92	15.39
303.15	1471.8	15.28
308.15	1467.29	15.19
313.15	1462.65	15.09
318.15	1457.99	15
323.15	1453.36	14.9
328.15	1448.69	14.81
333.15	1443.85	14.71
338.15	1439.23	14.61
