Measured thermophysical data. Henry s Law Constants for Fragrance and Organic Solvent Compounds in Aqueous Industrial Surfactants
Source: J. Chem. Eng. Data, 2008, 10.1021/je700418a
Compound 1: cyclohexane, C6H12, InChI=1S/C6H12/c1-2-4-6-5-3-1/h1-6H2
Compound 2: water, H2O, InChI=1S/H2O/h1H2
Compound 3: methanol, CH4O, InChI=1S/CH4O/c1-2/h2H,1H3
Compound 4: propan-2-ol, C3H8O, InChI=1S/C3H8O/c1-3(2)4/h3-4H,1-2H3
Compound 5: decanal, C10H20O, InChI=1S/C10H20O/c1-2-3-4-5-6-7-8-9-10-11/h10H,2-9H2,1H3
Compound 6: trichloroethene, C2HCl3, InChI=1S/C2HCl3/c3-1-2(4)5/h1H
Compound 7: toluene, C7H8, InChI=1S/C7H8/c1-7-5-3-2-4-6-7/h2-6H,1H3
Compound 8: dichloromethane, CH2Cl2, InChI=1S/CH2Cl2/c2-1-3/h1H2
Compound 9: diethyl ether, C4H10O, InChI=1S/C4H10O/c1-3-5-4-2/h3-4H2,1-2H3
Compound 10: butyl ethanoate, C6H12O2, InChI=1S/C6H12O2/c1-3-4-5-8-6(2)7/h3-5H2,1-2H3
Compound 11: butanone, C4H8O, InChI=1S/C4H8O/c1-3-4(2)5/h3H2,1-2H3
Compound 12: sodium dodecylbenzenesulfonate (ILL DEFINED!), C18H29NaO3S, InChI=1S/C18H30O3S.Na/c1-2-3-4-5-6-7-8-9-10-11-14-17-15-12-13-16-18(17)22(19,20)21;/h12-13,15-16H,2-11,14H2,1H3,(H,19,20,21);/q;+1/p-1
Compound 13: benzyldimethyltetradecylammonium chloride, C23H42ClN, InChI=1S/C23H42N.ClH/c1-4-5-6-7-8-9-10-11-12-13-14-18-21-24(2,3)22-23-19-16-15-17-20-23;/h15-17,19-20H,4-14,18,21-22H2,1-3H3;1H/q+1;/p-1
Compound 14: .beta.-pinene, C10H16, InChI=1S/C10H16/c1-7-4-5-8-6-9(7)10(8,2)3/h8-9H,1,4-6H2,2-3H3
Compound 15: (R)-1-methyl-4-(1-methylethenyl)cyclohexene, C10H16, InChI=1S/C10H16/c1-8(2)10-6-4-9(3)5-7-10/h4,10H,1,5-7H2,2-3H3/t10-/m0/s1
Compound 16: 1-methyl-4-(1-methylethyl)-7-oxabicyclo[2.2.1]heptane, C10H18O, InChI=1S/C10H18O/c1-8(2)10-6-4-9(3,11-10)5-7-10/h8H,4-7H2,1-3H3
Compound 17: geranyl nitrile, C10H15N, InChI=1S/C10H15N/c1-9(2)5-4-6-10(3)7-8-11/h5,7H,4,6H2,1-3H3

System: cyclohexane + water; phases: Gas, Liquid
Property: Amount concentration (molarity), mol/dm3 of cyclohexane (Gas); method: Chromatography
Mole fraction of cyclohexane	Temperature, K	Amount concentration (molarity), mol/dm3 of cyclohexane	uncertainty
0	303.15	5.07	0.01

System: methanol + water; phases: Gas, Liquid
Property: Amount concentration (molarity), mol/dm3 of methanol (Gas); method: Chromatography
Mole fraction of methanol	Temperature, K	Amount concentration (molarity), mol/dm3 of methanol	uncertainty
0	303.15	0.00052	1e-05

System: propan-2-ol + water; phases: Gas, Liquid
Property: Amount concentration (molarity), mol/dm3 of propan-2-ol (Gas); method: Chromatography
Mole fraction of propan-2-ol	Temperature, K	Amount concentration (molarity), mol/dm3 of propan-2-ol	uncertainty
0	303.15	0.00059	1e-05

System: decanal + water; phases: Gas, Liquid
Property: Amount concentration (molarity), mol/dm3 of decanal (Gas); method: Chromatography
Mole fraction of decanal	Temperature, K	Amount concentration (molarity), mol/dm3 of decanal	uncertainty
0	303.15	0.094	0.001

System: trichloroethene + water; phases: Gas, Liquid
Property: Amount concentration (molarity), mol/dm3 of trichloroethene (Gas); method: Chromatography
Mole fraction of trichloroethene	Temperature, K	Amount concentration (molarity), mol/dm3 of trichloroethene	uncertainty
0	303.15	0.429	0.001

System: toluene + water; phases: Gas, Liquid
Property: Amount concentration (molarity), mol/dm3 of toluene (Gas); method: Chromatography
Mole fraction of toluene	Temperature, K	Amount concentration (molarity), mol/dm3 of toluene	uncertainty
0	303.15	0.281	0.001

System: dichloromethane + water; phases: Gas, Liquid
Property: Amount concentration (molarity), mol/dm3 of dichloromethane (Gas); method: Chromatography
Mole fraction of dichloromethane	Temperature, K	Amount concentration (molarity), mol/dm3 of dichloromethane	uncertainty
0	303.15	0.128	0.001

System: diethyl ether + water; phases: Gas, Liquid
Property: Amount concentration (molarity), mol/dm3 of diethyl ether (Gas); method: Chromatography
Mole fraction of diethyl ether	Temperature, K	Amount concentration (molarity), mol/dm3 of diethyl ether	uncertainty
0	303.15	0.00425	1e-05

System: butyl ethanoate + water; phases: Gas, Liquid
Property: Amount concentration (molarity), mol/dm3 of butyl ethanoate (Gas); method: Chromatography
Mole fraction of butyl ethanoate	Temperature, K	Amount concentration (molarity), mol/dm3 of butyl ethanoate	uncertainty
0	303.15	0.0193	0.0001

System: butanone + water; phases: Gas, Liquid
Property: Amount concentration (molarity), mol/dm3 of butanone (Gas); method: Chromatography
Mole fraction of butanone	Temperature, K	Amount concentration (molarity), mol/dm3 of butanone	uncertainty
0	303.15	0.00425	1e-05

System: (R)-1-methyl-4-(1-methylethenyl)cyclohexene + water + sodium dodecylbenzenesulfonate (ILL DEFINED!); phases: Gas, Liquid
Fixed: Temperature, K = 303.15
Fixed: Mole fraction of (R)-1-methyl-4-(1-methylethenyl)cyclohexene = 0
Property: Amount concentration (molarity), mol/dm3 of (R)-1-methyl-4-(1-methylethenyl)cyclohexene (Gas); method: Chromatography
Solvent: Amount concentration (molarity), mol/dm3 of sodium dodecylbenzenesulfonate (ILL DEFINED!)	Amount concentration (molarity), mol/dm3 of (R)-1-methyl-4-(1-methylethenyl)cyclohexene	uncertainty
0.001	1.54	0.01
0.002	1.7	0.01
0.005	0.771	0.001
0.01	0.146	0.001
0.015	0.0672	0.0001
0.02	0.00498	1e-05

System: (R)-1-methyl-4-(1-methylethenyl)cyclohexene + benzyldimethyltetradecylammonium chloride + water; phases: Gas, Liquid
Fixed: Temperature, K = 303.15
Fixed: Mole fraction of (R)-1-methyl-4-(1-methylethenyl)cyclohexene = 0
Property: Amount concentration (molarity), mol/dm3 of (R)-1-methyl-4-(1-methylethenyl)cyclohexene (Gas); method: Chromatography
Solvent: Amount concentration (molarity), mol/dm3 of benzyldimethyltetradecylammonium chloride	Amount concentration (molarity), mol/dm3 of (R)-1-methyl-4-(1-methylethenyl)cyclohexene	uncertainty
0.001	1.2	0.01
0.002	0.994	0.001
0.005	0.17	0.001
0.01	0.0348	0.0001
0.02	0.0275	0.0001

System: trichloroethene + water + sodium dodecylbenzenesulfonate (ILL DEFINED!); phases: Gas, Liquid
Fixed: Temperature, K = 303.15
Fixed: Mole fraction of trichloroethene = 0
Property: Amount concentration (molarity), mol/dm3 of trichloroethene (Gas); method: Chromatography
Solvent: Amount concentration (molarity), mol/dm3 of sodium dodecylbenzenesulfonate (ILL DEFINED!)	Amount concentration (molarity), mol/dm3 of trichloroethene	uncertainty
0.01	0.359	0.001
0.02	0.32	0.001
0.05	0.177	0.001
0.1	0.112	0.001

System: trichloroethene + benzyldimethyltetradecylammonium chloride + water; phases: Gas, Liquid
Fixed: Temperature, K = 303.15
Fixed: Mole fraction of trichloroethene = 0
Property: Amount concentration (molarity), mol/dm3 of trichloroethene (Gas); method: Chromatography
Solvent: Amount concentration (molarity), mol/dm3 of water	Amount concentration (molarity), mol/dm3 of trichloroethene	uncertainty
0.01	0.286	0.001
0.02	0.219	0.001
0.05	0.11	0.001
0.1	0.0689	0.0001

System: toluene + water + sodium dodecylbenzenesulfonate (ILL DEFINED!); phases: Gas, Liquid
Fixed: Temperature, K = 303.15
Fixed: Mole fraction of toluene = 0
Property: Amount concentration (molarity), mol/dm3 of toluene (Gas); method: Chromatography
Solvent: Amount concentration (molarity), mol/dm3 of water	Amount concentration (molarity), mol/dm3 of toluene	uncertainty
0.01	0.227	0.001
0.02	0.179	0.001
0.05	0.0969	0.0001
0.1	0.054	0.0001

System: toluene + benzyldimethyltetradecylammonium chloride + water; phases: Gas, Liquid
Fixed: Temperature, K = 303.15
Fixed: Mole fraction of toluene = 0
Property: Amount concentration (molarity), mol/dm3 of toluene (Gas); method: Chromatography
Solvent: Amount concentration (molarity), mol/dm3 of water	Amount concentration (molarity), mol/dm3 of toluene	uncertainty
0.01	0.163	0.001
0.02	0.117	0.001
0.05	0.0635	0.0001
0.1	0.032	0.0001

System: .beta.-pinene + water + sodium dodecylbenzenesulfonate (ILL DEFINED!); phases: Gas, Liquid
Fixed: Temperature, K = 303.15
Fixed: Mole fraction of .beta.-pinene = 0
Property: Amount concentration (molarity), mol/dm3 of .beta.-pinene (Gas); method: Chromatography
Solvent: Amount concentration (molarity), mol/dm3 of water	Amount concentration (molarity), mol/dm3 of .beta.-pinene	uncertainty
0.01	0.354	0.001
0.02	0.0623	0.0001
0.05	0.0277	0.0001
0.1	0.0034	1e-05

System: .beta.-pinene + benzyldimethyltetradecylammonium chloride + water; phases: Gas, Liquid
Fixed: Temperature, K = 303.15
Fixed: Mole fraction of .beta.-pinene = 0
Property: Amount concentration (molarity), mol/dm3 of .beta.-pinene (Gas); method: Chromatography
Solvent: Amount concentration (molarity), mol/dm3 of water	Amount concentration (molarity), mol/dm3 of .beta.-pinene	uncertainty
0.01	0.2	0.001
0.02	0.0866	0.0001
0.05	0.0349	0.0001
0.1	0.018	0.0001

System: (R)-1-methyl-4-(1-methylethenyl)cyclohexene + water; phases: Gas, Liquid
Property: Amount concentration (molarity), mol/dm3 of (R)-1-methyl-4-(1-methylethenyl)cyclohexene (Gas); method: Chromatography
Mole fraction of (R)-1-methyl-4-(1-methylethenyl)cyclohexene	Temperature, K	Amount concentration (molarity), mol/dm3 of (R)-1-methyl-4-(1-methylethenyl)cyclohexene	uncertainty
0	303.15	1.57	0.01

System: .beta.-pinene + water; phases: Gas, Liquid
Property: Amount concentration (molarity), mol/dm3 of .beta.-pinene (Gas); method: Chromatography
Mole fraction of .beta.-pinene	Temperature, K	Amount concentration (molarity), mol/dm3 of .beta.-pinene	uncertainty
0	303.15	2.54	0.01

System: 1-methyl-4-(1-methylethyl)-7-oxabicyclo[2.2.1]heptane + water; phases: Gas, Liquid
Property: Amount concentration (molarity), mol/dm3 of 1-methyl-4-(1-methylethyl)-7-oxabicyclo[2.2.1]heptane (Gas); method: Chromatography
Mole fraction of 1-methyl-4-(1-methylethyl)-7-oxabicyclo[2.2.1]heptane	Temperature, K	Amount concentration (molarity), mol/dm3 of 1-methyl-4-(1-methylethyl)-7-oxabicyclo[2.2.1]heptane	uncertainty
0	303.15	0.0104	0.0001

System: geranyl nitrile + water; phases: Gas, Liquid
Property: Amount concentration (molarity), mol/dm3 of geranyl nitrile (Gas); method: Chromatography
Mole fraction of geranyl nitrile	Temperature, K	Amount concentration (molarity), mol/dm3 of geranyl nitrile	uncertainty
0	303.15	0.014	0.001
