Measured thermophysical data. Separation of Ethyl Acetate and Ethanol by Room Temperature Ionic Liquids with the Tetrafluoroborate Anion
Source: J. Chem. Eng. Data, 2008, 10.1021/je700516t
Compound 1: ethyl acetate, C4H8O2, InChI=1S/C4H8O2/c1-3-6-4(2)5/h3H2,1-2H3
Compound 2: ethanol, C2H6O, InChI=1S/C2H6O/c1-2-3/h3H,2H2,1H3
Compound 3: 1-ethyl-3-methylimidazolium tetrafluoroborate, C6H11BF4N2, InChI=1S/C6H11N2.BF4/c1-3-8-5-4-7(2)6-8;2-1(3,4)5/h4-6H,3H2,1-2H3;/q+1;-1
Compound 4: 1-ethyl-2,3-dimethylimidazolium terafluoroborate, C7H13BF4N2, InChI=1S/C7H13N2.BF4/c1-4-9-6-5-8(3)7(9)2;2-1(3,4)5/h5-6H,4H2,1-3H3;/q+1;-1
Compound 5: 1-(2-hydroxyethyl)-3-methylimidazolium tetrafluoroborate, C6H11BF4N2O, InChI=1S/C6H11N2O.BF4/c1-7-2-3-8(6-7)4-5-9;2-1(3,4)5/h2-3,6,9H,4-5H2,1H3;/q+1;-1
Compound 6: 1-(2-hydroxyethyl)-2,3-dimethylimidazolium tetrafluoroborate, C7H13BF4N2O, InChI=1S/C7H13N2O.BF4/c1-7-8(2)3-4-9(7)5-6-10;2-1(3,4)5/h3-4,10H,5-6H2,1-2H3;/q+1;-1

System: ethanol + ethyl acetate + 1-ethyl-3-methylimidazolium tetrafluoroborate; phases: Liquid mixture 1, Liquid mixture 2
Fixed: Temperature, K = 298.15
Fixed: Pressure, kPa = 101
Property: Mole fraction of ethanol (Liquid mixture 1); method: TITR:UFactor:2
Mole fraction of ethyl acetate	Mole fraction of ethanol	uncertainty
0.345	0	0.001
0.361	0.102	0.008
0.379	0.155	0.012
0.38	0.219	0.018
0.4	0.249	0.02
0.411	0.276	0.022
0.434	0.3	0.024
0.438	0.307	0.025
0.447	0.314	0.025
0.464	0.327	0.026
0.481	0.336	0.027
0.508	0.337	0.027
0.536	0.337	0.027
0.559	0.331	0.026
0.584	0.324	0.026
0.608	0.315	0.025
0.636	0.301	0.024
0.688	0.265	0.021
0.721	0.241	0.019
0.742	0.23	0.018
0.775	0.208	0.017
0.823	0.165	0.013
0.882	0.111	0.009
0.942	0.056	0.005

System: ethanol + ethyl acetate + 1-ethyl-3-methylimidazolium tetrafluoroborate; phases: Liquid mixture 1, Liquid mixture 2
Fixed: Temperature, K = 298.15
Fixed: Pressure, kPa = 101
Property: Mole fraction of 1-ethyl-3-methylimidazolium tetrafluoroborate (Liquid mixture 1); method: Density calibration data
Property: Mole fraction of 1-ethyl-3-methylimidazolium tetrafluoroborate (Liquid mixture 2); method: Density calibration data
Property: Mole fraction of ethanol (Liquid mixture 2); method: Density calibration data
Mole fraction of ethanol	Mole fraction of 1-ethyl-3-methylimidazolium tetrafluoroborate	uncertainty	Mole fraction of 1-ethyl-3-methylimidazolium tetrafluoroborate	uncertainty	Mole fraction of ethanol	uncertainty
0.077	0.004	0.004	0.621	0.02	0.042	
0.096	0.005	0.004	0.608	0.021	0.056	
0.117	0.007	0.004	0.557	0.021	0.085	
0.137	0.009	0.004	0.472	0.021	0.137	
0.158	0.012	0.004	0.406	0.021	0.177	
0.201	0.016	0.004	0.36	0.021	0.216	
0.226	0.029	0.004	0.329	0.021	0.24	
0.28	0.054	0.005	0.269	0.021	0.293	
0.303	0.071	0.005	0.236	0.021	0.315	

System: ethanol + ethyl acetate + 1-ethyl-3-methylimidazolium tetrafluoroborate; phases: Liquid
Fixed: Temperature, K = 298.15
Fixed: Pressure, kPa = 101
Property: Mass density, kg/m3 (Liquid); method: Vibrating tube method
Mole fraction of 1-ethyl-3-methylimidazolium tetrafluoroborate	Mole fraction of ethanol	Mass density, kg/m3	uncertainty
0.002	0.056	819	16
0.006	0.111	828	17
0.013	0.165	864	17
0.017	0.208	870	17
0.028	0.23	882	18
0.039	0.241	885	18
0.047	0.265	886	18
0.064	0.301	888	18
0.077	0.315	890	18
0.091	0.324	892	18
0.11	0.331	894	18
0.127	0.337	896	18
0.155	0.337	932	19
0.182	0.336	954	19
0.209	0.327	968	19
0.239	0.314	984	20
0.255	0.307	997	20
0.267	0.3	999	20
0.312	0.276	1006	20
0.351	0.249	1021	20
0.401	0.219	1058	21
0.465	0.155	1071	21
0.536	0.102	1080	22
0.655	0	1112	22

System: ethanol + ethyl acetate + 1-(2-hydroxyethyl)-3-methylimidazolium tetrafluoroborate; phases: Liquid mixture 2, Liquid mixture 1
Fixed: Temperature, K = 298.15
Fixed: Pressure, kPa = 101
Property: Mole fraction of ethanol (Liquid mixture 2); method: Density calibration data
Property: Mole fraction of 1-(2-hydroxyethyl)-3-methylimidazolium tetrafluoroborate (Liquid mixture 1); method: Density calibration data
Property: Mole fraction of ethanol (Liquid mixture 1); method: Density calibration data
Mole fraction of 1-(2-hydroxyethyl)-3-methylimidazolium tetrafluoroborate	Mole fraction of ethanol	uncertainty	Mole fraction of 1-(2-hydroxyethyl)-3-methylimidazolium tetrafluoroborate	uncertainty	Mole fraction of ethanol	uncertainty
0.933	0.781	0.021	0.003	0.003	0.063	
0.858	0.695	0.021	0.004	0.004	0.138	
0.797	0.575	0.021	0.005	0.004	0.197	
0.728	0.468	0.021	0.008	0.004	0.264	
0.682	0.372	0.021	0.009	0.004	0.309	
0.637	0.318	0.02	0.011	0.004	0.353	
0.576	0.267	0.02	0.016	0.004	0.408	
0.524	0.209	0.02	0.025	0.004	0.451	

System: ethanol + ethyl acetate + 1-(2-hydroxyethyl)-3-methylimidazolium tetrafluoroborate; phases: Liquid mixture 1, Liquid mixture 2
Fixed: Temperature, K = 298.15
Fixed: Pressure, kPa = 101
Property: Mole fraction of ethanol (Liquid mixture 1); method: TITR:UFactor:2
Mole fraction of ethyl acetate	Mole fraction of ethanol	uncertainty
0.194	0.397	0.032
0.2	0.468	0.037
0.204	0.512	0.039
0.205	0.302	0.024
0.206	0.157	0.013
0.208	0.534	0.037
0.213	0.57	0.034
0.216	0	0.001
0.225	0.591	0.033
0.246	0.6	0.032
0.261	0.608	0.031
0.283	0.609	0.031
0.314	0.601	0.032
0.359	0.577	0.034
0.391	0.556	0.036
0.431	0.53	0.038
0.466	0.499	0.04
0.497	0.475	0.038
0.534	0.444	0.036
0.581	0.404	0.032
0.608	0.381	0.03
0.638	0.35	0.028
0.665	0.325	0.026
0.701	0.291	0.023
0.727	0.264	0.021
0.769	0.224	0.018
0.844	0.152	0.012
0.88	0.116	0.009
0.935	0.063	0.005

System: ethanol + ethyl acetate + 1-(2-hydroxyethyl)-3-methylimidazolium tetrafluoroborate; phases: Liquid
Fixed: Temperature, K = 298.15
Fixed: Pressure, kPa = 101
Property: Mass density, kg/m3 (Liquid); method: Vibrating tube method
Mole fraction of 1-(2-hydroxyethyl)-3-methylimidazolium tetrafluoroborate	Mole fraction of ethanol	Mass density, kg/m3	uncertainty
0.002	0.063	805	16
0.004	0.116	811	16
0.005	0.152	817	16
0.007	0.224	821	16
0.008	0.264	824	16
0.009	0.291	828	17
0.01	0.325	830	17
0.011	0.35	837	17
0.011	0.381	842	17
0.015	0.404	845	17
0.022	0.444	849	17
0.028	0.475	850	17
0.036	0.499	855	17
0.039	0.53	865	17
0.052	0.556	870	17
0.064	0.577	873	17
0.085	0.601	899	18
0.108	0.609	953	19
0.131	0.608	997	20
0.154	0.6	1008	20
0.185	0.591	1011	20
0.217	0.57	1019	20
0.258	0.534	1028	21
0.284	0.512	1050	21
0.332	0.468	1102	22
0.409	0.397	1133	23
0.493	0.302	1154	23
0.637	0.157	1172	23
0.784	0	1205	24

System: ethanol + ethyl acetate + 1-ethyl-2,3-dimethylimidazolium terafluoroborate; phases: Liquid mixture 2, Liquid mixture 1
Fixed: Temperature, K = 298.15
Fixed: Pressure, kPa = 101
Property: Mole fraction of ethanol (Liquid mixture 2); method: Density calibration data
Property: Mole fraction of 1-ethyl-2,3-dimethylimidazolium terafluoroborate (Liquid mixture 1); method: Density calibration data
Property: Mole fraction of ethanol (Liquid mixture 1); method: Density calibration data
Mole fraction of 1-ethyl-2,3-dimethylimidazolium terafluoroborate	Mole fraction of ethanol	uncertainty	Mole fraction of 1-ethyl-2,3-dimethylimidazolium terafluoroborate	uncertainty	Mole fraction of ethanol	uncertainty
0.564	0.037	0.02	0.057	0.004	0.062	
0.506	0.08	0.02	0.058	0.004	0.104	
0.459	0.138	0.021	0.058	0.004	0.147	
0.42	0.177	0.02	0.058	0.004	0.203	
0.381	0.218	0.02	0.059	0.004	0.252	
0.334	0.263	0.02	0.063	0.004	0.303	
0.286	0.306	0.02	0.07	0.004	0.336	
0.244	0.334	0.02	0.08	0.005	0.35	

System: ethanol + ethyl acetate + 1-ethyl-2,3-dimethylimidazolium terafluoroborate; phases: Liquid mixture 1, Liquid mixture 2
Fixed: Temperature, K = 298.15
Fixed: Pressure, kPa = 101
Property: Mole fraction of ethanol (Liquid mixture 1); method: TITR:UFactor:2
Mole fraction of ethyl acetate	Mole fraction of ethanol	uncertainty
0.398	0	0.001
0.414	0.077	0.006
0.415	0.108	0.009
0.424	0.133	0.011
0.427	0.162	0.013
0.432	0.208	0.017
0.435	0.18	0.014
0.435	0.249	0.02
0.441	0.268	0.021
0.442	0.292	0.023
0.447	0.306	0.024
0.448	0.325	0.026
0.452	0.336	0.027
0.459	0.348	0.028
0.466	0.356	0.028
0.476	0.363	0.029
0.482	0.367	0.029
0.488	0.375	0.03
0.498	0.376	0.03
0.509	0.376	0.03
0.52	0.376	0.03
0.537	0.37	0.03
0.562	0.358	0.029
0.585	0.349	0.028
0.609	0.329	0.026
0.643	0.3	0.024
0.676	0.267	0.021
0.701	0.244	0.02
0.743	0.202	0.016
0.782	0.164	0.013
0.814	0.132	0.011
0.86	0.083	0.007
0.887	0.056	0.005
0.942	0	0.001

System: ethanol + ethyl acetate + 1-ethyl-2,3-dimethylimidazolium terafluoroborate; phases: Liquid
Fixed: Temperature, K = 298.15
Fixed: Pressure, kPa = 101
Property: Mass density, kg/m3 (Liquid); method: Vibrating tube method
Mole fraction of 1-ethyl-2,3-dimethylimidazolium terafluoroborate	Mole fraction of ethanol	Mass density, kg/m3	uncertainty
0.054	0.164	845	17
0.055	0.132	842	17
0.055	0.202	846	17
0.055	0.244	847	17
0.057	0.056	834	17
0.057	0.083	843	17
0.057	0.267	849	17
0.057	0.3	851	17
0.058	0	822	16
0.062	0.329	852	17
0.066	0.349	855	17
0.08	0.358	858	17
0.094	0.37	867	17
0.104	0.376	872	17
0.115	0.376	875	18
0.126	0.376	878	18
0.137	0.375	881	18
0.151	0.367	884	18
0.161	0.363	898	18
0.178	0.356	915	18
0.194	0.348	927	19
0.212	0.336	944	19
0.226	0.325	951	19
0.247	0.306	954	19
0.267	0.292	966	19
0.291	0.268	985	20
0.316	0.249	1004	20
0.36	0.208	1015	20
0.385	0.18	1028	21
0.411	0.162	1030	21
0.442	0.133	1032	21
0.477	0.108	1016	21
0.51	0.077	1066	21
0.602	0	1070	21

System: ethanol + ethyl acetate + 1-(2-hydroxyethyl)-2,3-dimethylimidazolium tetrafluoroborate; phases: Liquid mixture 1, Liquid mixture 2
Fixed: Temperature, K = 298.15
Fixed: Pressure, kPa = 101
Property: Mole fraction of ethanol (Liquid mixture 1); method: TITR:UFactor:2
Mole fraction of ethyl acetate	Mole fraction of ethanol	uncertainty
0.294	0.16	0.013
0.297	0.228	0.018
0.299	0.299	0.024
0.3	0	0.001
0.3	0.349	0.028
0.308	0.386	0.031
0.317	0.437	0.035
0.327	0.469	0.038
0.338	0.501	0.04
0.35	0.514	0.039
0.369	0.521	0.038
0.385	0.527	0.038
0.402	0.524	0.038
0.423	0.513	0.039
0.433	0.514	0.039
0.465	0.495	0.04
0.493	0.477	0.038
0.522	0.455	0.036
0.55	0.433	0.035
0.587	0.401	0.032
0.618	0.373	0.03
0.648	0.345	0.028
0.682	0.312	0.025
0.725	0.27	0.022
0.764	0.231	0.018
0.791	0.204	0.016
0.821	0.175	0.014
0.866	0.13	0.01
0.898	0.1	0.008
0.939	0.06	0.005

System: ethanol + ethyl acetate + 1-(2-hydroxyethyl)-2,3-dimethylimidazolium tetrafluoroborate; phases: Liquid mixture 1, Liquid mixture 2
Fixed: Temperature, K = 298.15
Fixed: Pressure, kPa = 101
Property: Mole fraction of 1-(2-hydroxyethyl)-2,3-dimethylimidazolium tetrafluoroborate (Liquid mixture 1); method: Density calibration data
Property: Mole fraction of 1-(2-hydroxyethyl)-2,3-dimethylimidazolium tetrafluoroborate (Liquid mixture 2); method: Density calibration data
Property: Mole fraction of ethanol (Liquid mixture 2); method: Density calibration data
Mole fraction of ethanol	Mole fraction of 1-(2-hydroxyethyl)-2,3-dimethylimidazolium tetrafluoroborate	uncertainty	Mole fraction of 1-(2-hydroxyethyl)-2,3-dimethylimidazolium tetrafluoroborate	uncertainty	Mole fraction of ethanol	uncertainty
0.126	0.003	0.003	0.616	0.04	0.084	
0.163	0.004	0.004	0.52	0.04	0.153	
0.238	0.006	0.004	0.428	0.04	0.238	
0.285	0.008	0.004	0.357	0.04	0.29	
0.341	0.012	0.004	0.31	0.04	0.346	
0.392	0.018	0.004	0.26	0.042	0.423	
0.433	0.019	0.004	0.212	0.042	0.437	
0.445	0.022	0.004	0.165	0.042	0.453	

System: ethanol + ethyl acetate + 1-(2-hydroxyethyl)-2,3-dimethylimidazolium tetrafluoroborate; phases: Liquid
Fixed: Temperature, K = 298.15
Fixed: Pressure, kPa = 101
Property: Mass density, kg/m3 (Liquid); method: Vibrating tube method
Mole fraction of 1-(2-hydroxyethyl)-2,3-dimethylimidazolium tetrafluoroborate	Mole fraction of ethanol	Mass density, kg/m3	uncertainty
0.002	0.06	817	16
0.002	0.1	825	17
0.004	0.13	831	17
0.004	0.175	837	17
0.005	0.204	841	17
0.005	0.231	845	17
0.005	0.27	848	17
0.006	0.312	852	17
0.007	0.345	855	17
0.009	0.373	858	17
0.013	0.401	859	17
0.017	0.433	862	17
0.023	0.455	869	17
0.03	0.477	860	17
0.04	0.495	862	17
0.053	0.514	865	17
0.065	0.513	868	17
0.075	0.524	874	17
0.088	0.527	882	18
0.11	0.521	908	18
0.136	0.514	938	19
0.161	0.501	958	19
0.204	0.469	976	20
0.247	0.437	998	20
0.306	0.386	1005	20
0.351	0.349	1016	20
0.402	0.299	1030	21
0.475	0.228	1037	21
0.547	0.16	1046	21
0.7	0	1070	21
