Measured thermophysical data. Densities and Isothermal Compressibilities at Pressures up to 20 MPa of the Systems N,N-Dimethylformamide or N,N-Dimethylacetamide + r,o-Dichloroalkane
Source: J. Chem. Eng. Data, 2007, 10.1021/je700339f
Compound 1: 1,2-dichloroethane, C2H4Cl2, InChI=1S/C2H4Cl2/c3-1-2-4/h1-2H2, purity 99.5%
Compound 2: 1,4-dichlorobutane, C4H8Cl2, InChI=1S/C4H8Cl2/c5-3-1-2-4-6/h1-4H2, purity 97%
Compound 3: 1,6-dichlorohexane, C6H12Cl2, InChI=1S/C6H12Cl2/c7-5-3-1-2-4-6-8/h1-6H2, purity 98%
Compound 4: dimethylformamide, C3H7NO, InChI=1S/C3H7NO/c1-4(2)3-5/h3H,1-2H3, purity 99%
Compound 5: N,N-dimethylethanamide, C4H9NO, InChI=1S/C4H9NO/c1-4(6)5(2)3/h1-3H3, purity 99%

System: 1,2-dichloroethane; phases: Liquid
Property: Mass density, kg/m3 (Liquid); method: VIBTUB:UFactor:4
Temperature, K	Pressure, kPa	Mass density, kg/m3	uncertainty
288.15	100	1259.9	0.6
288.15	500	1260.3	0.6
288.15	1000	1260.8	0.6
288.15	1500	1261.2	0.7
288.15	2000	1261.6	0.7
288.15	2500	1262.2	0.7
288.15	3100	1262.7	0.7
288.15	3600	1263.2	0.8
288.15	4100	1263.6	0.8
288.15	4600	1264	0.8
288.15	5100	1264.5	0.8
288.15	5600	1264.9	0.8
288.15	6100	1265.4	0.9
288.15	6600	1265.8	0.9
288.15	7100	1266.2	0.9
288.15	7600	1266.7	0.9
288.15	8100	1267.2	1
288.15	8600	1267.6	1
288.15	9200	1268.2	1
288.15	9600	1268.6	1
288.15	10100	1269	1
288.15	10600	1269.4	1.1
288.15	11100	1269.8	1.1
288.15	11600	1270.3	1.1
288.15	12100	1270.7	1.1
288.15	12600	1271	1.2
288.15	13100	1271.5	1.2
288.15	13600	1271.9	1.2
288.15	14100	1272.4	1.2
288.15	14700	1272.9	1.2
288.15	15200	1273.3	1.3
288.15	15700	1273.7	1.3
288.15	16300	1274.2	1.3
288.15	16800	1274.6	1.3
288.15	17200	1275	1.4
288.15	17700	1275.4	1.4
288.15	18200	1275.8	1.4
288.15	18600	1276.2	1.4
288.15	19000	1276.5	1.4
288.15	19400	1276.9	1.5
288.15	20000	1277.3	1.5
298.15	100	1245.5	0.6
298.15	500	1246.1	0.6
298.15	1000	1246.4	0.6
298.15	1500	1246.9	0.6
298.15	2000	1247.4	0.7
298.15	2500	1247.8	0.7
298.15	3100	1248.5	0.7
298.15	3600	1248.9	0.7
298.15	4100	1249.4	0.7
298.15	4600	1249.9	0.8
298.15	5100	1250.4	0.8
298.15	5600	1250.9	0.8
298.15	6100	1251.4	0.8
298.15	6600	1251.9	0.9
298.15	7100	1252.3	0.9
298.15	7600	1252.9	0.9
298.15	8100	1253.2	0.9
298.15	8600	1253.8	0.9
298.15	9200	1254.4	1
298.15	9600	1254.9	1
298.15	10000	1255.1	1
298.15	10600	1255.9	1
298.15	11100	1256.4	1
298.15	11600	1256.7	1.1
298.15	12100	1257.3	1.1
298.15	12600	1257.6	1.1
298.15	13100	1258	1.1
298.15	13600	1258.5	1.1
298.15	14200	1259	1.2
298.15	14700	1259.4	1.2
298.15	15200	1260	1.2
298.15	15700	1260.5	1.2
298.15	16200	1260.8	1.3
298.15	16700	1261.4	1.3
298.15	17300	1261.9	1.3
298.15	17800	1262.4	1.3
298.15	18300	1262.8	1.4
298.15	18800	1263.3	1.4
298.15	19200	1263.7	1.4
298.15	19700	1264.1	1.4
298.15	20200	1264.5	1.4
308.15	100	1231	0.6
308.15	500	1231.4	0.6
308.15	1000	1232	0.6
308.15	1500	1232.5	0.6
308.15	2000	1233	0.6
308.15	2500	1233.5	0.7
308.15	3100	1234.2	0.7
308.15	3600	1234.7	0.7
308.15	4100	1235.2	0.7
308.15	4600	1235.7	0.7
308.15	5100	1236.2	0.8
308.15	5600	1236.9	0.8
308.15	6100	1237.3	0.8
308.15	6600	1237.9	0.8
308.15	7100	1238.4	0.8
308.15	7600	1238.6	0.9
308.15	8100	1239.3	0.9
308.15	8600	1239.8	0.9
308.15	9200	1240.4	0.9
308.15	9600	1240.9	0.9
308.15	10100	1241.3	1
308.15	10600	1241.8	1
308.15	11100	1242.3	1
308.15	11600	1242.8	1
308.15	12100	1243.4	1
308.15	12600	1243.8	1.1
308.15	13100	1244.2	1.1
308.15	13600	1244.7	1.1
308.15	14200	1245.3	1.1
308.15	14700	1245.8	1.1
308.15	15200	1246.4	1.2
308.15	15700	1246.8	1.2
308.15	16200	1247.2	1.2
308.15	16700	1247.7	1.2
308.15	17200	1248.2	1.2
308.15	17800	1248.7	1.3
308.15	18300	1249.2	1.3
308.15	18800	1249.6	1.3
308.15	19200	1250.1	1.3
308.15	19700	1250.6	1.4
308.15	20200	1251	1.4
318.15	100	1216.4	0.5
318.15	500	1216.7	0.6
318.15	1000	1217.4	0.6
318.15	1500	1218	0.6
318.15	2000	1218.5	0.6
318.15	2500	1219.1	0.6
318.15	3100	1219.8	0.6
318.15	3600	1220.3	0.7
318.15	4100	1220.9	0.7
318.15	4600	1221.4	0.7
318.15	5100	1222	0.7
318.15	5600	1222.6	0.7
318.15	6100	1223.1	0.8
318.15	6600	1223.6	0.8
318.15	7100	1224.1	0.8
318.15	7600	1224.7	0.8
318.15	8100	1225.2	0.8
318.15	8600	1225.8	0.9
318.15	9200	1226.3	0.9
318.15	9600	1226.9	0.9
318.15	10100	1227.5	0.9
318.15	10600	1227.9	0.9
318.15	11100	1228.4	0.9
318.15	11600	1229	1
318.15	12100	1229.5	1
318.15	12500	1230	1
318.15	13100	1230.6	1
318.15	13600	1231	1
318.15	14200	1231.6	1.1
318.15	14700	1232.1	1.1
318.15	15200	1232.7	1.1
318.15	15600	1233.1	1.1
318.15	16300	1233.8	1.2
318.15	16800	1234.2	1.2
318.15	17300	1234.8	1.2
318.15	17800	1235.2	1.2
318.15	18200	1235.5	1.2
318.15	18900	1236.2	1.3
318.15	19200	1236.5	1.3
318.15	19700	1237.1	1.3
318.15	20200	1237.5	1.3

System: 1,4-dichlorobutane; phases: Liquid
Property: Mass density, kg/m3 (Liquid); method: VIBTUB:UFactor:12
Temperature, K	Pressure, kPa	Mass density, kg/m3	uncertainty
288.15	100	1143.7	3.5
288.15	500	1144.1	3.5
288.15	1000	1144.5	3.5
288.15	1500	1144.8	3.6
288.15	2000	1145.2	3.6
288.15	2500	1145.5	3.6
288.15	3000	1145.9	3.7
288.15	3600	1146.4	3.7
288.15	4100	1146.7	3.8
288.15	4600	1147	3.8
288.15	5100	1147.4	3.8
288.15	5600	1147.7	3.9
288.15	6100	1148.1	3.9
288.15	6600	1148.5	4
288.15	7100	1148.9	4
288.15	7600	1149.2	4
288.15	8100	1149.5	4.1
288.15	8600	1149.9	4.1
288.15	9200	1150.3	4.2
288.15	9600	1150.7	4.2
288.15	10100	1151	4.2
288.15	10600	1151.3	4.3
288.15	11100	1151.7	4.3
288.15	11600	1152	4.4
288.15	12100	1152.4	4.4
288.15	12600	1152.7	4.4
288.15	13100	1153.1	4.5
288.15	13500	1153.3	4.5
288.15	14200	1153.8	4.6
288.15	14700	1154.1	4.6
288.15	15200	1154.4	4.6
288.15	15700	1154.8	4.7
288.15	16300	1155.2	4.7
288.15	16800	1155.6	4.8
288.15	17300	1155.9	4.8
288.15	17800	1156.2	4.9
288.15	18300	1156.5	4.9
288.15	18800	1156.8	4.9
288.15	19100	1157.1	5
288.15	19700	1157.4	5
288.15	20200	1157.8	5.1
298.15	100	1133.7	3.4
298.15	500	1134	3.4
298.15	1000	1134.4	3.4
298.15	1500	1134.8	3.5
298.15	2000	1135.2	3.5
298.15	2500	1135.6	3.5
298.15	3100	1136.1	3.6
298.15	3600	1136.4	3.6
298.15	4100	1136.8	3.7
298.15	4600	1137.2	3.7
298.15	5100	1137.6	3.7
298.15	5600	1137.9	3.8
298.15	6100	1138.4	3.8
298.15	6600	1138.7	3.8
298.15	7100	1139.1	3.9
298.15	7600	1139.4	3.9
298.15	8100	1139.8	4
298.15	8600	1140.2	4
298.15	9200	1140.6	4
298.15	9600	1141	4.1
298.15	10100	1141.4	4.1
298.15	10700	1141.8	4.2
298.15	11100	1142.1	4.2
298.15	11600	1142.4	4.2
298.15	12100	1142.8	4.3
298.15	12600	1143.2	4.3
298.15	13100	1143.6	4.3
298.15	13600	1143.9	4.4
298.15	14100	1144.2	4.4
298.15	14700	1144.6	4.5
298.15	15200	1145	4.5
298.15	15700	1145.4	4.5
298.15	16200	1145.8	4.6
298.15	16700	1146.1	4.6
298.15	17200	1146.5	4.7
298.15	17800	1146.9	4.7
298.15	18300	1147.2	4.7
298.15	18800	1147.6	4.8
298.15	19200	1147.9	4.8
298.15	19700	1148.2	4.9
298.15	20200	1148.7	4.9
308.15	100	1122.3	3.3
308.15	500	1122.7	3.3
308.15	1000	1123.1	3.3
308.15	1500	1123.5	3.4
308.15	2000	1123.9	3.4
308.15	2500	1124.3	3.4
308.15	3100	1124.8	3.5
308.15	3600	1125.2	3.5
308.15	4100	1125.6	3.5
308.15	4600	1126	3.6
308.15	5100	1126.4	3.6
308.15	5600	1126.9	3.6
308.15	6100	1127.2	3.7
308.15	6600	1127.5	3.7
308.15	7100	1128	3.7
308.15	7600	1128.4	3.8
308.15	8100	1128.8	3.8
308.15	8600	1129.2	3.9
308.15	9200	1129.6	3.9
308.15	9600	1130	3.9
308.15	10100	1130.4	4
308.15	10600	1130.9	4
308.15	11100	1131.2	4
308.15	11600	1131.5	4.1
308.15	12100	1131.9	4.1
308.15	12600	1132.4	4.1
308.15	13100	1132.6	4.2
308.15	13600	1133.1	4.2
308.15	14100	1133.5	4.2
308.15	14700	1133.9	4.3
308.15	15100	1134.2	4.3
308.15	15700	1134.6	4.4
308.15	16200	1135	4.4
308.15	16700	1135.3	4.4
308.15	17200	1135.7	4.5
308.15	17800	1136.1	4.5
308.15	18300	1136.5	4.6
308.15	18800	1136.8	4.6
308.15	19200	1137.2	4.6
308.15	19700	1137.6	4.7
308.15	20200	1138	4.7
318.15	100	1112	3.2
318.15	500	1112.4	3.2
318.15	1000	1112.8	3.2
318.15	1500	1113.2	3.3
318.15	2000	1113.7	3.3
318.15	2500	1114.1	3.3
318.15	3100	1114.7	3.4
318.15	3500	1115	3.4
318.15	4100	1115.5	3.4
318.15	4600	1115.9	3.5
318.15	5100	1116.3	3.5
318.15	5600	1116.8	3.5
318.15	6100	1117.3	3.6
318.15	6600	1117.7	3.6
318.15	7100	1118.1	3.6
318.15	7600	1118.4	3.7
318.15	8100	1118.9	3.7
318.15	8600	1119.3	3.7
318.15	9200	1119.8	3.8
318.15	9600	1120.2	3.8
318.15	10100	1120.6	3.8
318.15	10600	1121	3.9
318.15	11100	1121.4	3.9
318.15	11600	1121.8	3.9
318.15	12100	1122.1	4
318.15	12600	1122.6	4
318.15	13000	1123	4
318.15	13600	1123.3	4.1
318.15	14200	1123.9	4.1
318.15	14700	1124.4	4.1
318.15	15200	1124.7	4.2
318.15	15700	1125.1	4.2
318.15	16300	1125.4	4.3
318.15	16800	1126	4.3
318.15	17300	1126.3	4.3
318.15	17800	1126.5	4.4
318.15	18300	1127	4.4
318.15	18800	1127.4	4.4
318.15	19200	1127.7	4.5
318.15	19700	1128	4.5
318.15	20200	1128.4	4.5

System: 1,6-dichlorohexane; phases: Liquid
Property: Mass density, kg/m3 (Liquid); method: VIBTUB:UFactor:8
Temperature, K	Pressure, kPa	Mass density, kg/m3	uncertainty
288.15	100	1073.7	1.4
288.15	500	1073.9	1.4
288.15	1000	1074.3	1.4
288.15	1600	1074.6	1.4
288.15	2000	1075	1.5
288.15	2500	1075.3	1.5
288.15	3100	1075.7	1.5
288.15	3600	1076	1.5
288.15	4100	1076.3	1.5
288.15	4600	1076.6	1.5
288.15	5100	1076.9	1.5
288.15	5600	1077.3	1.6
288.15	6100	1077.6	1.6
288.15	6500	1077.9	1.6
288.15	7100	1078.3	1.6
288.15	7600	1078.5	1.6
288.15	8100	1078.9	1.6
288.15	8600	1079.2	1.6
288.15	9100	1079.5	1.7
288.15	9600	1079.9	1.7
288.15	10100	1080.2	1.7
288.15	10600	1080.5	1.7
288.15	11100	1080.8	1.7
288.15	11600	1081.2	1.7
288.15	12100	1081.5	1.8
288.15	12600	1081.8	1.8
288.15	13100	1082.1	1.8
288.15	13600	1082.4	1.8
288.15	14200	1082.8	1.8
288.15	14700	1083	1.8
288.15	15200	1083.4	1.8
288.15	15700	1083.7	1.9
288.15	16300	1084	1.9
288.15	16800	1084.3	1.9
288.15	17300	1084.6	1.9
288.15	17800	1084.9	1.9
288.15	18300	1085.3	1.9
288.15	18800	1085.5	2
288.15	19200	1085.7	2
288.15	19700	1086	2
288.15	20200	1086.5	2
298.15	100	1063.8	1.4
298.15	500	1064.2	1.4
298.15	1000	1064.4	1.4
298.15	1500	1064.8	1.4
298.15	2000	1065.2	1.4
298.15	2500	1065.5	1.4
298.15	3100	1065.9	1.4
298.15	3600	1066.3	1.4
298.15	4100	1066.7	1.5
298.15	4500	1066.9	1.5
298.15	5000	1067.3	1.5
298.15	5600	1067.6	1.5
298.15	6100	1068	1.5
298.15	6600	1068.4	1.5
298.15	7100	1068.7	1.5
298.15	7600	1069	1.5
298.15	8100	1069.4	1.6
298.15	8600	1069.7	1.6
298.15	9200	1070.1	1.6
298.15	9600	1070.4	1.6
298.15	10100	1070.7	1.6
298.15	10600	1071.1	1.6
298.15	11000	1071.3	1.6
298.15	11700	1071.7	1.7
298.15	12100	1071.9	1.7
298.15	12600	1072.3	1.7
298.15	13100	1072.6	1.7
298.15	13600	1072.9	1.7
298.15	14200	1073.3	1.7
298.15	14700	1073.6	1.7
298.15	15200	1074	1.8
298.15	15700	1074.3	1.8
298.15	16400	1074.8	1.8
298.15	16800	1075.2	1.8
298.15	17300	1075.5	1.8
298.15	17800	1075.8	1.8
298.15	18300	1076.1	1.9
298.15	18700	1076.4	1.9
298.15	19200	1076.7	1.9
298.15	19700	1076.9	1.9
298.15	20200	1077.3	1.9
308.15	100	1054.6	1.3
308.15	500	1054.9	1.3
308.15	1000	1055.2	1.3
308.15	1500	1055.5	1.3
308.15	2000	1055.9	1.4
308.15	2500	1056.3	1.4
308.15	3100	1056.7	1.4
308.15	3600	1057.1	1.4
308.15	4100	1057.4	1.4
308.15	4600	1057.8	1.4
308.15	5100	1058.2	1.4
308.15	5600	1058.5	1.4
308.15	6100	1058.9	1.4
308.15	6600	1059.2	1.5
308.15	7100	1059.6	1.5
308.15	7600	1059.8	1.5
308.15	8100	1060.2	1.5
308.15	8600	1060.6	1.5
308.15	9200	1061	1.5
308.15	9600	1061.4	1.5
308.15	10100	1061.7	1.5
308.15	10600	1062.1	1.6
308.15	11100	1062.4	1.6
308.15	11600	1062.7	1.6
308.15	12100	1063.1	1.6
308.15	12600	1063.5	1.6
308.15	13100	1063.8	1.6
308.15	13600	1064.1	1.6
308.15	14100	1064.5	1.6
308.15	14800	1064.9	1.7
308.15	15100	1065.1	1.7
308.15	15700	1065.5	1.7
308.15	16200	1065.8	1.7
308.15	16700	1066.2	1.7
308.15	17300	1066.6	1.7
308.15	17800	1066.9	1.7
308.15	18300	1067.2	1.8
308.15	18700	1067.4	1.8
308.15	19200	1067.8	1.8
308.15	19700	1068	1.8
308.15	20300	1068.5	1.8
318.15	100	1045.1	1.3
318.15	500	1045.3	1.3
318.15	1000	1045.7	1.3
318.15	1500	1046.2	1.3
318.15	2000	1046.6	1.3
318.15	2500	1046.9	1.3
318.15	3100	1047.4	1.3
318.15	3600	1047.8	1.3
318.15	4100	1048.1	1.3
318.15	4600	1048.4	1.4
318.15	5100	1048.9	1.4
318.15	5600	1049.2	1.4
318.15	6100	1049.7	1.4
318.15	6600	1050	1.4
318.15	7100	1050.4	1.4
318.15	7600	1050.7	1.4
318.15	8100	1051.2	1.4
318.15	8500	1051.4	1.4
318.15	9100	1051.8	1.4
318.15	9600	1052.2	1.5
318.15	10100	1052.6	1.5
318.15	10700	1053.1	1.5
318.15	11100	1053.6	1.5
318.15	11600	1053.9	1.5
318.15	12100	1054.1	1.5
318.15	12600	1054.5	1.5
318.15	13100	1054.8	1.5
318.15	13600	1055.3	1.6
318.15	14200	1055.6	1.6
318.15	14700	1056	1.6
318.15	15200	1056.3	1.6
318.15	15600	1056.6	1.6
318.15	16300	1057.1	1.6
318.15	16800	1057.3	1.6
318.15	17300	1057.7	1.6
318.15	17800	1058	1.7
318.15	18300	1058.3	1.7
318.15	18900	1058.8	1.7
318.15	19200	1059	1.7
318.15	19700	1059.3	1.7
318.15	20200	1059.6	1.7

System: dimethylformamide; phases: Liquid
Fixed: Pressure, kPa = 101.325
Property: Mass density, kg/m3 (Liquid); method: VIBTUB:UFactor:4
Temperature, K	Mass density, kg/m3	uncertainty
298.15	943.8	0.4
308.15	934.2	0.4

System: N,N-dimethylethanamide; phases: Liquid
Fixed: Pressure, kPa = 101.325
Property: Mass density, kg/m3 (Liquid); method: VIBTUB:UFactor:4
Temperature, K	Mass density, kg/m3	uncertainty
298.15	937	0.4
308.15	926.9	0.4

System: dimethylformamide + 1,2-dichloroethane; phases: Liquid
Fixed: Temperature, K = 298.15
Property: Mass density, kg/m3 (Liquid); method: VIBTUB:UFactor:4
Mole fraction of dimethylformamide	Pressure, kPa	Mass density, kg/m3	uncertainty
0.0805	100	1221.2	6
0.0805	500	1221.5	6
0.0805	1000	1222	6
0.0805	1500	1222.5	6
0.0805	2000	1223	6
0.0805	2500	1223.4	6
0.0805	3000	1223.9	6
0.0805	3500	1224.3	6
0.0805	4000	1224.8	6
0.0805	4500	1225.3	6
0.0805	5000	1225.8	6
0.0805	5500	1226.3	6.1
0.0805	6000	1226.7	6.1
0.0805	6500	1227.1	6.1
0.0805	7000	1227.6	6.1
0.0805	7500	1228	6.1
0.0805	8000	1228.5	6.1
0.0805	8500	1228.9	6.1
0.0805	9000	1229.3	6.1
0.0805	9500	1229.8	6.1
0.0805	10000	1230.4	6.1
0.0805	10500	1230.8	6.1
0.0805	11000	1231.2	6.1
0.0805	11500	1231.7	6.1
0.0805	12000	1232.2	6.1
0.0805	12500	1232.6	6.1
0.0805	13000	1233.1	6.2
0.0805	13400	1233.4	6.2
0.0805	14000	1233.9	6.2
0.0805	14500	1234.3	6.2
0.0805	15000	1234.7	6.2
0.0805	15500	1235.2	6.2
0.0805	16000	1235.6	2.7
0.0805	16500	1236	2.7
0.0805	17000	1236.4	6.2
0.0805	17500	1236.8	6.2
0.0805	18000	1237.2	6.2
0.0805	18500	1237.7	6.2
0.0805	19000	1238.2	6.2
0.0805	19500	1238.6	6.3
0.0805	20000	1239	6.3
0.1978	100	1186.2	6
0.1978	500	1186.6	6
0.1978	1000	1187	6
0.1978	1500	1187.5	6
0.1978	2000	1188	6
0.1978	2500	1188.4	6
0.1978	3000	1188.8	6
0.1978	3500	1189.3	6
0.1978	4000	1189.7	6
0.1978	4500	1190.1	6.1
0.1978	5000	1190.6	6.1
0.1978	5500	1191	6.1
0.1978	6000	1191.5	6.1
0.1978	6500	1191.9	6.1
0.1978	7000	1192.3	6.1
0.1978	7500	1192.7	6.1
0.1978	8000	1193.2	6.1
0.1978	8500	1193.7	6.1
0.1978	9000	1194	6.1
0.1978	9500	1194.5	6.1
0.1978	10000	1195	6.1
0.1978	10500	1195.4	6.1
0.1978	11000	1195.8	6.1
0.1978	11500	1196.2	6.1
0.1978	12000	1196.7	6.1
0.1978	12500	1197.1	6.1
0.1978	13000	1197.4	6.2
0.1978	13500	1197.9	6.2
0.1978	14000	1198.3	6.2
0.1978	14500	1198.8	6.2
0.1978	15000	1199.1	6.2
0.1978	15500	1199.6	6.2
0.1978	15900	1199.9	6.2
0.1978	16400	1200.3	6.2
0.1978	17000	1200.7	6.2
0.1978	17500	1201.1	6.2
0.1978	18000	1201.5	6.2
0.1978	18500	1201.9	6.2
0.1978	19000	1202.4	6.2
0.1978	19500	1202.7	6.2
0.1978	20000	1203.1	6.2
0.302	100	1154.9	6
0.302	500	1155.2	6
0.302	1000	1155.7	6
0.302	1500	1156.2	6
0.302	2000	1156.6	6
0.302	2500	1156.9	6
0.302	3000	1157.4	6.1
0.302	3500	1157.8	6.1
0.302	4000	1158.2	6.1
0.302	4500	1158.6	6.1
0.302	5000	1159.1	6.1
0.302	5500	1159.5	6.1
0.302	6000	1159.9	6.1
0.302	6500	1160.3	6.1
0.302	7000	1160.8	6.1
0.302	7500	1161.2	6.1
0.302	8000	1161.6	6.1
0.302	8500	1161.9	6.1
0.302	9000	1162.4	6.1
0.302	9500	1162.8	6.1
0.302	10000	1163.2	6.1
0.302	10500	1163.6	6.1
0.302	11000	1164.1	6.1
0.302	11400	1164.4	6.1
0.302	12000	1164.9	6.1
0.302	12400	1165.2	6.1
0.302	13000	1165.6	6.1
0.302	13500	1166	6.1
0.302	14000	1166.4	6.2
0.302	14500	1166.8	6.2
0.302	15000	1167.2	6.2
0.302	15500	1167.6	6.2
0.302	16000	1168	6.2
0.302	16500	1168.4	6.2
0.302	17000	1168.7	6.2
0.302	17500	1169.1	6.2
0.302	18000	1169.5	6.2
0.302	18500	1169.9	6.2
0.302	19000	1170.2	6.2
0.302	19500	1170.6	6.2
0.302	20000	1171.1	6.2
0.397	100	1126.5	6
0.397	500	1126.8	6
0.397	1000	1127.2	6
0.397	1500	1127.6	6.1
0.397	2000	1128	6.1
0.397	2500	1128.4	6
0.397	3000	1128.8	6.1
0.397	3500	1129.3	6.1
0.397	4000	1129.6	6.1
0.397	4500	1130.1	6.1
0.397	5000	1130.4	6.1
0.397	5500	1130.9	6.1
0.397	6000	1131.4	6.1
0.397	6500	1131.6	6.1
0.397	7000	1132.1	6.1
0.397	7500	1132.5	6.1
0.397	8000	1132.8	6.1
0.397	8500	1133.2	6.1
0.397	9000	1133.7	6.1
0.397	9500	1134	6.1
0.397	10000	1134.5	6.1
0.397	10500	1134.9	6.1
0.397	11000	1135.3	6.1
0.397	11500	1135.7	6.1
0.397	11900	1136	6.1
0.397	12500	1136.5	6.1
0.397	12900	1136.8	6.1
0.397	13500	1137.3	6.2
0.397	14000	1137.6	6.2
0.397	14500	1137.9	6.2
0.397	14900	1138.2	6.2
0.397	15500	1138.7	6.2
0.397	16000	1139	6.2
0.397	16500	1139.4	6.2
0.397	16900	1139.7	6.2
0.397	17500	1140.1	6.2
0.397	18000	1140.5	6.2
0.397	18500	1140.8	6.2
0.397	19000	1141.2	6.2
0.397	19500	1141.6	6.2
0.397	20000	1142.1	6.2
0.4988	100	1095.7	6.1
0.4988	500	1096	6.1
0.4988	1000	1096.4	6.3
0.4988	1500	1096.8	6.1
0.4988	2000	1097.2	6.1
0.4988	2500	1097.6	6.1
0.4988	3000	1098	6.1
0.4988	3500	1098.3	6.1
0.4988	4000	1098.7	6.1
0.4988	4500	1099.2	6.1
0.4988	5000	1099.5	6.1
0.4988	5500	1099.8	6.1
0.4988	6000	1100.2	6.1
0.4988	6500	1100.6	6.1
0.4988	7000	1101	6.1
0.4988	7500	1101.4	6.1
0.4988	8000	1101.8	6.1
0.4988	8500	1102.1	6.1
0.4988	9000	1102.5	6.1
0.4988	9500	1102.9	6.1
0.4988	10000	1103.3	6.1
0.4988	10500	1103.7	6.1
0.4988	11000	1104	6.1
0.4988	11500	1104.4	6.1
0.4988	12000	1104.8	6.2
0.4988	12500	1105.2	6.2
0.4988	13000	1105.6	6.2
0.4988	13500	1105.9	6.2
0.4988	14000	1106.2	6.2
0.4988	14500	1106.6	6.2
0.4988	15000	1107	6.2
0.4988	15500	1107.3	6.2
0.4988	16000	1107.7	6.2
0.4988	16500	1108	6.2
0.4988	17000	1108.4	6.2
0.4988	17500	1108.7	6.2
0.4988	18000	1109	6.2
0.4988	18500	1109.4	6.2
0.4988	19000	1109.9	6.2
0.4988	19500	1110.2	6.2
0.4988	20000	1110.6	6.2
0.6023	100	1064.5	6
0.6023	500	1064.8	6
0.6023	1000	1062.2	6
0.6023	1500	1065.6	6
0.6023	2000	1065.9	6
0.6023	2500	1066.4	6
0.6023	3000	1066.7	6
0.6023	3500	1067	6
0.6023	4000	1067.4	6
0.6023	4500	1067.8	6.1
0.6023	5000	1068.2	6.1
0.6023	5500	1068.5	6.1
0.6023	6000	1068.8	6.1
0.6023	6500	1069.3	6.1
0.6023	7000	1069.6	6.1
0.6023	7500	1070	6.1
0.6023	8000	1070.3	6.1
0.6023	8500	1070.7	6.1
0.6023	9000	1071.1	6.1
0.6023	9500	1071.4	6.1
0.6023	10000	1071.8	6.1
0.6023	10500	1072.2	6.1
0.6023	11000	1072.5	6.1
0.6023	11500	1072.9	6.1
0.6023	12000	1073.2	6.1
0.6023	12500	1073.5	6.1
0.6023	13000	1073.9	6.1
0.6023	13500	1074.2	6.1
0.6023	13900	1074.6	6.1
0.6023	14500	1074.9	6.1
0.6023	15000	1075.2	6.1
0.6023	15500	1075.6	6.1
0.6023	16000	1075.9	6.1
0.6023	16500	1076.2	6.1
0.6023	17000	1076.6	6.2
0.6023	17500	1076.9	6.2
0.6023	18000	1077.3	6.2
0.6023	18400	1077.6	6.2
0.6023	19000	1078	6.2
0.6023	19500	1078.3	6.2
0.6023	20000	1078.6	6.2
0.7054	100	1033.6	6
0.7054	500	1033.9	6
0.7054	1000	1034.3	5.7
0.7054	1500	1034.7	6
0.7054	2000	1035	6
0.7054	2500	1035.4	6
0.7054	3000	1035.7	6
0.7054	3500	1036.1	6
0.7054	4000	1036.4	6
0.7054	4500	1036.7	6
0.7054	5000	1037.1	6
0.7054	5500	1037.4	6
0.7054	6000	1037.7	6
0.7054	6500	1038.1	6
0.7054	7000	1038.5	6
0.7054	7500	1038.8	6
0.7054	8000	1039.2	6
0.7054	8500	1039.5	6.1
0.7054	9000	1039.9	6.1
0.7054	9500	1040.2	6.1
0.7054	10000	1040.6	6.1
0.7054	10500	1040.9	6.1
0.7054	11000	1041.2	6.1
0.7054	11500	1041.6	6.1
0.7054	11900	1041.9	6.1
0.7054	12400	1042.2	6.1
0.7054	13000	1042.6	6.1
0.7054	13500	1042.9	6.1
0.7054	14000	1043.2	6.1
0.7054	14500	1043.5	6.1
0.7054	14900	1043.8	6.1
0.7054	15500	1044.2	6.1
0.7054	16000	1044.5	6.1
0.7054	16500	1044.8	6.1
0.7054	17000	1045.1	6.1
0.7054	17500	1045.4	6.1
0.7054	18000	1045.7	6.1
0.7054	18500	1046.1	6.1
0.7054	19000	1046.4	6.1
0.7054	19500	1046.7	6.1
0.7054	20000	1047.08	6.12
0.8005	100	1005.2	6
0.8005	500	1005.5	6
0.8005	1000	1005.8	6.1
0.8005	1500	1006.2	6.1
0.8005	2000	1006.5	6.1
0.8005	2500	1006.9	6.1
0.8005	3000	1007.2	6.1
0.8005	3500	1007.6	6.1
0.8005	4000	1007.9	6.1
0.8005	4500	1008.2	6.1
0.8005	5000	1008.5	6.1
0.8005	5500	1008.9	6.1
0.8005	6000	1009.2	6.1
0.8005	6500	1009.5	6.1
0.8005	7000	1009.8	6.1
0.8005	7500	1010.2	6.1
0.8005	8000	1010.5	6.1
0.8005	8500	1010.8	6.1
0.8005	9000	1011.2	6.1
0.8005	9500	1011.5	6.1
0.8005	9900	1011.8	6.1
0.8005	10500	1012.2	6.1
0.8005	11000	1012.4	6.1
0.8005	11500	1012.8	6.1
0.8005	12000	1013.2	6.1
0.8005	12500	1013.5	6.1
0.8005	13000	1013.8	6.1
0.8005	13500	1014.1	6.1
0.8005	14000	1014.4	6.1
0.8005	14500	1014.7	6.1
0.8005	15000	1015	6.1
0.8005	15500	1015.3	6.1
0.8005	16000	1015.7	6.2
0.8005	16400	1015.9	6.1
0.8005	17000	1016.3	6.2
0.8005	17500	1016.6	6.2
0.8005	17900	1016.9	6.2
0.8005	18500	1017.2	6.2
0.8005	19000	1017.5	6.2
0.8005	19500	1017.8	6.2
0.8005	20000	1018.2	6.2
0.9071	100	972.8	6.1
0.9071	500	973.1	6.1
0.9071	1000	973.3	6.1
0.9071	1500	973.7	6.1
0.9071	2000	974	6.1
0.9071	2500	974.3	6.1
0.9071	3000	974.6	6.1
0.9071	3500	974.9	6.1
0.9071	4000	975.2	6.1
0.9071	4500	975.5	6.1
0.9071	5000	975.9	6.1
0.9071	5500	976.2	6.1
0.9071	6000	976.5	6.1
0.9071	6500	976.8	6.1
0.9071	7000	977.1	6.1
0.9071	7500	977.4	6.2
0.9071	8000	977.8	6.1
0.9071	8500	978.2	6.1
0.9071	9000	978.4	6.2
0.9071	9500	978.7	6.2
0.9071	10000	979.1	2
0.9071	10500	979.4	6.2
0.9071	11000	979.7	6.1
0.9071	11500	980	6.2
0.9071	12000	980.3	6.2
0.9071	12400	980.5	6.2
0.9071	13000	980.9	6.2
0.9071	13500	981.2	6.2
0.9071	14000	981.5	6.2
0.9071	14500	981.8	6.2
0.9071	15000	982.1	6.2
0.9071	15400	982.3	6.2
0.9071	16000	982.6	6.2
0.9071	16500	983	2
0.9071	17000	983.2	6.2
0.9071	17500	983.5	6.2
0.9071	18000	983.8	2
0.9071	18500	984.1	6.2
0.9071	19000	984.4	6.2
0.9071	19500	984.7	6.2
0.9071	20000	985.1	6.2

System: dimethylformamide + 1,4-dichlorobutane; phases: Liquid
Fixed: Temperature, K = 298
Property: Mass density, kg/m3 (Liquid); method: VIBTUB:UFactor:8
Mole fraction of dimethylformamide	Pressure, kPa	Mass density, kg/m3	uncertainty
0.1003	100	1119	4.3
0.1003	500	1119.3	4.4
0.1003	1000	1119.7	4.4
0.1003	1500	1120.1	4.4
0.1003	2000	1120.4	4.4
0.1003	2500	1120.8	4.4
0.1003	3000	1121.2	4.4
0.1003	3500	1121.6	4.4
0.1003	4000	1122	4.4
0.1003	4500	1122.3	4.5
0.1003	5000	1122.7	4.5
0.1003	5500	1123.1	4.5
0.1003	6000	1123.4	4.5
0.1003	6500	1123.8	4.5
0.1003	7000	1124.2	4.5
0.1003	7500	1124.6	4.5
0.1003	8000	1124.9	4.5
0.1003	8500	1125.2	4.5
0.1003	9000	1125.6	4.5
0.1003	9500	1126	4.6
0.1003	10000	1126.4	4.6
0.1003	10500	1126.8	4.6
0.1003	10900	1127.1	4.6
0.1003	11500	1127.4	4.6
0.1003	12000	1127.8	4.2
0.1003	12500	1128.2	4.6
0.1003	13000	1128.5	4.7
0.1003	13500	1128.9	4.7
0.1003	14000	1129.2	4.2
0.1003	14500	1129.5	4.7
0.1003	15000	1129.9	4.7
0.1003	15500	1130.3	4.7
0.1003	16000	1130.6	4.7
0.1003	16500	1130.9	4.7
0.1003	17000	1131.3	4.3
0.1003	17500	1131.6	4.8
0.1003	18000	1132	4.8
0.1003	18500	1132.3	4.8
0.1003	19000	1132.8	4.8
0.1003	19500	1133.1	4.9
0.1003	20000	1133.4	4.9
0.1923	100	1105.1	4.3
0.1923	500	1105.4	4.3
0.1923	1000	1105.8	4.3
0.1923	1500	1106.1	4.3
0.1923	2000	1106.5	4.3
0.1923	2500	1106.9	4.3
0.1923	3000	1107.3	4.3
0.1923	3500	1107.7	4.3
0.1923	4000	1108.1	4.3
0.1923	4500	1108.4	4.3
0.1923	5000	1108.8	4.3
0.1923	5500	1109.2	4.4
0.1923	6000	1109.5	4.4
0.1923	6500	1109.9	4.4
0.1923	7000	1110.3	4.4
0.1923	7500	1110.7	4.4
0.1923	8000	1111	4.4
0.1923	8500	1111.4	4.4
0.1923	9000	1111.8	4.4
0.1923	9500	1112.2	4.4
0.1923	10000	1112.6	4.5
0.1923	10500	1112.9	4.5
0.1923	11000	1113.3	4.5
0.1923	11500	1113.6	4.5
0.1923	11900	1113.9	4.5
0.1923	12500	1114.3	4.5
0.1923	13000	1114.7	4.5
0.1923	13500	1115	4.5
0.1923	13900	1115.3	4.5
0.1923	14500	1115.7	4.6
0.1923	15000	1116	4.6
0.1923	15500	1116.4	4.6
0.1923	16000	1116.8	4.6
0.1923	16500	1117.1	4.6
0.1923	16900	1117.4	4.6
0.1923	17500	1117.8	4.6
0.1923	18000	1118.1	4.6
0.1923	18500	1118.4	4.7
0.1923	19000	1118.8	4.7
0.1923	19500	1119.1	4.7
0.1923	20000	1119.5	4.7
0.2994	100	1087.9	4.2
0.2994	500	1088.2	4.2
0.2994	1000	1088.6	4.2
0.2994	1500	1089	4.2
0.2994	2000	1089.3	4.2
0.2994	2500	1089.7	4.2
0.2994	3000	1090.1	4.2
0.2994	3500	1090.4	4.3
0.2994	4000	1090.8	4.3
0.2994	4500	1091.2	4.3
0.2994	5000	1091.6	4.3
0.2994	5500	1091.9	4.3
0.2994	6000	1092.3	4.3
0.2994	6500	1092.6	4.3
0.2994	7000	1093	4.3
0.2994	7500	1093.4	4.3
0.2994	8000	1093.7	4.3
0.2994	8500	1094	4.3
0.2994	9000	1094.4	4.3
0.2994	9500	1094.8	4.3
0.2994	10000	1095.2	4.4
0.2994	10500	1095.5	4.4
0.2994	11000	1095.9	4.4
0.2994	11500	1096.2	4.4
0.2994	12000	1096.6	4.4
0.2994	12500	1096.9	4.4
0.2994	13000	1097.3	4.4
0.2994	13500	1097.7	4.4
0.2994	14000	1097.9	4.4
0.2994	14500	1098.2	4.4
0.2994	15000	1098.6	4.4
0.2994	15500	1099	4.5
0.2994	16000	1099.2	4.5
0.2994	16500	1099.6	4.5
0.2994	17000	1100	4.5
0.2994	17500	1100.3	4.5
0.2994	18000	1100.6	4.5
0.2994	18500	1100.9	4.5
0.2994	19000	1101.4	4.5
0.2994	19400	1101.7	4.5
0.2994	20100	1102.2	4.5
0.4006	100	1071.2	4.3
0.4006	500	1071.5	4.3
0.4006	1000	1071.8	4.3
0.4006	1500	1072.2	4.3
0.4006	2000	1072.6	4.3
0.4006	2500	1072.9	4.3
0.4006	3000	1073.3	4.3
0.4006	3500	1073.6	4.3
0.4006	4000	1074	4.3
0.4006	4500	1074.4	4.3
0.4006	5000	1074.8	4.3
0.4006	5500	1075.1	4.4
0.4006	6000	1075.4	4.4
0.4006	6500	1075.9	4.4
0.4006	7000	1076.2	4.4
0.4006	7500	1076.6	4.4
0.4006	8000	1076.9	4.4
0.4006	8500	1077.2	4.4
0.4006	9000	1077.6	4.4
0.4006	9500	1078	4.4
0.4006	10000	1078.4	4.4
0.4006	10500	1078.7	4.4
0.4006	11000	1079.1	4.4
0.4006	11500	1079.4	4.4
0.4006	12000	1079.8	4.4
0.4006	12500	1080.1	4.4
0.4006	13000	1080.4	4.5
0.4006	13500	1080.8	4.5
0.4006	14000	1081.1	4.5
0.4006	14400	1081.4	4.5
0.4006	15000	1081.8	4.5
0.4006	15500	1082.1	4.5
0.4006	16000	1082.5	4.5
0.4006	16500	1082.8	4.5
0.4006	17000	1083.1	4.5
0.4006	17500	1083.5	4.5
0.4006	18000	1083.8	4.5
0.4006	18500	1084.2	4.5
0.4006	19000	1084.5	4.5
0.4006	19500	1084.9	4.6
0.4006	20000	1085.3	4.6
0.5022	100	1052.4	4.4
0.5022	500	1052.7	4.4
0.5022	1000	1053.1	4.4
0.5022	1500	1053.5	4.4
0.5022	2000	1053.8	4.4
0.5022	2500	1054.2	4.4
0.5022	3000	1054.5	4.4
0.5022	3500	1054.8	4.4
0.5022	4000	1055.2	4.4
0.5022	4500	1055.5	4.4
0.5022	5000	1055.9	4.4
0.5022	5500	1056.2	4.4
0.5022	6000	1056.6	4.4
0.5022	6500	1057	4.5
0.5022	7000	1057.2	4.4
0.5022	7500	1057.6	4.5
0.5022	8000	1057.9	4.5
0.5022	8500	1058.3	4.5
0.5022	9000	1058.7	4.5
0.5022	9500	1059	4.5
0.5022	10000	1059.3	4.5
0.5022	10500	1059.7	4.5
0.5022	11000	1060	4.5
0.5022	11500	1060.3	4.5
0.5022	11900	1060.6	4.5
0.5022	12500	1061	4.5
0.5022	13000	1061.3	4.5
0.5022	13500	1061.6	4.5
0.5022	13900	1062	4.5
0.5022	14500	1062.3	4.5
0.5022	15000	1062.6	4.5
0.5022	15500	1063	4.5
0.5022	16000	1063.3	4.6
0.5022	16500	1063.6	4.5
0.5022	17000	1063.9	4.6
0.5022	17500	1064.2	4.6
0.5022	17900	1064.5	4.6
0.5022	18500	1065	4.6
0.5022	19000	1065.3	4.6
0.5022	19500	1065.5	4.6
0.5022	20000	1065.9	4.6
0.6004	100	1034	4.5
0.6004	500	1034.2	4.5
0.6004	1000	1034.6	4.5
0.6004	1500	1035	4.5
0.6004	2000	1035.3	4.5
0.6004	2500	1035.7	4.5
0.6004	3000	1036	4.5
0.6004	3500	1036.3	4.5
0.6004	4000	1036.7	4.5
0.6004	4500	1037	4.5
0.6004	5000	1037.4	4.5
0.6004	5500	1037.7	4.5
0.6004	6000	1038.1	4.5
0.6004	6500	1038.4	4.5
0.6004	7000	1038.8	4.5
0.6004	7500	1039.1	4.6
0.6004	8000	1039.4	4.5
0.6004	8500	1039.7	4.6
0.6004	9000	1040.1	4.6
0.6004	9500	1040.4	4.6
0.6004	10000	1040.8	4.6
0.6004	10500	1041.1	4.6
0.6004	11000	1041.5	4.6
0.6004	11500	1041.8	4.6
0.6004	12000	1042.1	4.6
0.6004	12500	1042.4	4.6
0.6004	13000	1042.7	4.6
0.6004	13500	1043.1	4.6
0.6004	14000	1043.4	4.6
0.6004	14500	1043.7	4.6
0.6004	15000	1044	4.6
0.6004	15500	1044.4	4.6
0.6004	16000	1044.6	4.6
0.6004	16500	1045	4.6
0.6004	17000	1045.3	4.6
0.6004	17500	1045.6	4.6
0.6004	18000	1045.9	4.6
0.6004	18500	1046.3	4.6
0.6004	19000	1046.6	4.6
0.6004	19500	1046.9	4.6
0.6004	20000	1047.2	4.6
0.7029	100	1013.1	4.7
0.7029	500	1013.4	4.7
0.7029	1000	1013.8	4.7
0.7029	1500	1014.1	4.7
0.7029	2000	1014.4	4.7
0.7029	2500	1014.7	4.7
0.7029	3000	1015.1	4.7
0.7029	3500	1015.4	4.7
0.7029	4000	1015.8	4.7
0.7029	4500	1016.1	4.7
0.7029	5000	1016.4	4.7
0.7029	5500	1016.8	4.7
0.7029	6000	1017	4.7
0.7029	6500	1017.5	4.7
0.7029	7000	1017.8	4.7
0.7029	7500	1018	4.7
0.7029	8000	1018.4	4.7
0.7029	8500	1018.7	4.7
0.7029	9000	1019.1	4.7
0.7029	9500	1019.4	4.7
0.7029	10000	1019.7	4.7
0.7029	10500	1020.1	4.7
0.7029	11000	1020.4	4.4
0.7029	11500	1020.7	4.7
0.7029	12000	1021.1	4.7
0.7029	12500	1021.4	4.7
0.7029	12900	1021.7	4.8
0.7029	13500	1022	4.8
0.7029	14000	1022.4	4.8
0.7029	14400	1022.6	4.8
0.7029	15000	1023	4.8
0.7029	15500	1023.2	4.8
0.7029	16000	1023.5	4.8
0.7029	16500	1023.8	4.8
0.7029	16900	1024.1	4.8
0.7029	17500	1024.4	4.8
0.7029	18000	1024.7	4.8
0.7029	18500	1025.1	4.8
0.7029	19000	1025.4	4.8
0.7029	19500	1025.7	4.8
0.7029	20000	1026.1	4.8
0.7943	100	993.4	4.9
0.7943	500	993.7	4.9
0.7943	1000	994	4.9
0.7943	1500	994.3	5
0.7943	2000	994.7	4.9
0.7943	2500	995	4.9
0.7943	3000	995.4	5
0.7943	3500	995.7	5
0.7943	4000	996	5
0.7943	4500	996.4	5
0.7943	5000	996.7	5
0.7943	5500	996.9	5
0.7943	6000	997.3	5
0.7943	6500	997.6	5
0.7943	7000	997.9	5
0.7943	7500	998.3	5
0.7943	8000	998.5	5
0.7943	8500	998.9	5
0.7943	9000	999.2	5
0.7943	9500	999.5	5
0.7943	10000	999.9	5
0.7943	10500	1000.2	5
0.7943	11000	1005	5
0.7943	11500	1000.8	5
0.7943	12000	1001.2	5
0.7943	12500	1001.5	5
0.7943	13000	1001.7	5
0.7943	13500	1002.1	5
0.7943	14000	1002.3	5
0.7943	14500	1002.7	5
0.7943	15000	1003	5
0.7943	15500	1003.3	5
0.7943	16000	1003.5	5
0.7943	16500	1003.8	5
0.7943	16900	1004.1	5
0.7943	17500	1004.5	5
0.7943	18000	1004.9	5
0.7943	18500	1005.1	5
0.7943	19000	1005.5	5
0.7943	19400	1005.7	5
0.7943	20000	1006.1	5
0.9006	100	968.9	5.1
0.9006	500	969.2	5.1
0.9006	1000	969.6	5.1
0.9006	1500	969.8	5
0.9006	2000	970.2	5.1
0.9006	2500	970.5	5.1
0.9006	3000	970.7	5.1
0.9006	3500	971.1	5.1
0.9006	4000	971.4	5.1
0.9006	4500	971.8	5.1
0.9006	5000	972.1	5.1
0.9006	5500	972.3	5.1
0.9006	6000	972.6	5.1
0.9006	6500	972.9	5.1
0.9006	7000	973.3	5.1
0.9006	7500	973.6	5.1
0.9006	8000	973.9	5.1
0.9006	8500	974.2	5.1
0.9006	9000	974.5	5.1
0.9006	9500	974.8	5.1
0.9006	10000	975.2	5.1
0.9006	10500	975.5	5.1
0.9006	11000	975.8	5.9
0.9006	11500	976.1	5.1
0.9006	12000	976.4	5.1
0.9006	12500	976.7	5.1
0.9006	13000	976.9	5.1
0.9006	13500	977.2	5.1
0.9006	14000	977.5	5.1
0.9006	14500	977.8	5.1
0.9006	15000	978.1	5.1
0.9006	15500	978.4	5.1
0.9006	16000	978.7	5.1
0.9006	16500	978.9	5.1
0.9006	17000	979.3	2.9
0.9006	17500	979.5	5.1
0.9006	18000	979.8	5.2
0.9006	18500	980	5.2
0.9006	19000	980.4	5.2
0.9006	19500	980.7	2.9
0.9006	20000	981	5.2

System: dimethylformamide + 1,6-dichlorohexane; phases: Liquid
Fixed: Temperature, K = 298
Property: Mass density, kg/m3 (Liquid); method: VIBTUB:UFactor:6
Mole fraction of dimethylformamide	Pressure, kPa	Mass density, kg/m3	uncertainty
0.0986	100	1056.4	2.7
0.0986	500	1056.6	2.7
0.0986	1100	1057.1	2.7
0.0986	1500	1057.3	2.7
0.0986	2000	1057.7	2.7
0.0986	2500	1058	2.7
0.0986	3000	1058.4	2.7
0.0986	3500	1058.7	2.7
0.0986	4000	1059.1	2.7
0.0986	4500	1059.4	2.7
0.0986	5000	1059.8	2.7
0.0986	5500	1060.1	2.7
0.0986	6000	1060.4	2.8
0.0986	6500	1060.8	2.8
0.0986	7000	1061.1	2.8
0.0986	7500	1061.5	2.8
0.0986	7900	1061.8	2.8
0.0986	8500	1062.2	2.8
0.0986	9000	1062.5	2.8
0.0986	9500	1062.8	2.8
0.0986	10000	1063.1	2.8
0.0986	10500	1063.5	2.8
0.0986	10900	1063.8	2.8
0.0986	11500	1064.2	2.8
0.0986	12000	1064.5	2.8
0.0986	12500	1064.9	2.8
0.0986	12900	1065.2	2.8
0.0986	13500	1065.5	2.8
0.0986	14000	1065.8	2.8
0.0986	14600	1066.2	2.8
0.0986	15000	1066.5	2.8
0.0986	15500	1066.9	2.8
0.0986	16000	1067.1	3.2
0.0986	16500	1067.4	3.2
0.0986	17000	1067.8	2.8
0.0986	17500	1068.2	2.8
0.0986	18000	1068.5	2.9
0.0986	18500	1068.8	2.9
0.0986	19000	1069.2	2.9
0.0986	19500	1069.5	3.2
0.0986	20000	1069.8	2.9
0.2013	100	1048.6	2.8
0.2013	500	1048.8	2.8
0.2013	1000	1049.2	2.8
0.2013	1500	1049.6	2.8
0.2013	2000	1049.9	2.8
0.2013	2500	1050.2	2.8
0.2013	3000	1050.6	2.8
0.2013	3500	1050.9	2.8
0.2013	4000	1051.3	2.8
0.2013	4500	1051.6	2.8
0.2013	5000	1052	2.8
0.2013	5500	1052.3	2.8
0.2013	6000	1052.6	2.8
0.2013	6500	1053	2.8
0.2013	7000	1053.3	2.8
0.2013	7500	1053.7	2.8
0.2013	8000	1054	2.8
0.2013	8500	1054.4	2.8
0.2013	9000	1054.7	2.8
0.2013	9500	1055.1	2.8
0.2013	10000	1055.5	2.8
0.2013	10500	1055.8	2.8
0.2013	11000	1056.1	2.8
0.2013	11500	1056.4	2.8
0.2013	12000	1056.8	2.8
0.2013	12500	1057.1	2.8
0.2013	13000	1057.4	2.8
0.2013	13500	1057.8	2.8
0.2013	14000	1058.1	2.8
0.2013	14500	1058.4	2.8
0.2013	15000	1058.7	2.8
0.2013	15500	1059	2.8
0.2013	15900	1059.3	2.8
0.2013	16400	1059.6	2.9
0.2013	17000	1060	2.9
0.2013	17500	1060.3	2.9
0.2013	18000	1060.6	2.9
0.2013	18500	1060.9	2.9
0.2013	19000	1061.2	2.9
0.2013	19400	1061.5	2.9
0.2013	20000	1062	2.9
0.3197	100	1038.2	2.8
0.3197	500	1038.4	2.8
0.3197	1000	1038.8	2.8
0.3197	1500	1039.2	2.8
0.3197	2000	1039.5	2.8
0.3197	2500	1039.8	2.8
0.3197	3000	1040.2	2.8
0.3197	3500	1040.5	2.8
0.3197	4000	1040.8	2.8
0.3197	4500	1041.2	2.8
0.3197	5000	1041.5	2.9
0.3197	5500	1041.8	2.9
0.3197	6000	1042.2	2.8
0.3197	6500	1042.6	2.9
0.3197	7000	1042.9	2.9
0.3197	7500	1043.2	2.9
0.3197	8000	1043.5	2.9
0.3197	8500	1043.8	2.9
0.3197	9000	1044.2	2.9
0.3197	9500	1044.5	2.9
0.3197	10000	1044.9	2.9
0.3197	10500	1045.3	2.9
0.3197	11000	1045.5	2.9
0.3197	11400	1045.8	2.9
0.3197	12000	1046.2	2.9
0.3197	12500	1046.5	2.9
0.3197	13000	1046.8	2.9
0.3197	13500	1047.2	2.9
0.3197	14000	1047.5	2.9
0.3197	14500	1047.8	2.9
0.3197	15000	1048.2	2.9
0.3197	15500	1048.6	2.9
0.3197	16000	1048.8	2.9
0.3197	16500	1049	2.9
0.3197	17000	1049.4	2.9
0.3197	17500	1049.7	2.9
0.3197	17900	1050	2.9
0.3197	18500	1050.3	2.9
0.3197	19000	1050.7	2.9
0.3197	19500	1051	2.9
0.3197	20000	1051.5	2.9
0.4014	100	1030.1	3
0.4014	500	1030.3	3
0.4014	1000	1030.7	3
0.4014	1500	1031.1	3
0.4014	2000	1031.4	3
0.4014	2500	1031.7	3
0.4014	3000	1032.1	3
0.4014	3500	1032.4	3
0.4014	4000	1032.8	3
0.4014	4500	1033.2	3
0.4014	5000	1033.4	3
0.4014	5500	1033.8	3
0.4014	6000	1034.2	3
0.4014	6500	1034.5	3
0.4014	6900	1034.8	3
0.4014	7400	1035.1	3
0.4014	8000	1035.5	3
0.4014	8500	1035.8	3
0.4014	9000	1036.1	3
0.4014	9500	1036.5	3
0.4014	10000	1036.9	3
0.4014	10500	1037.2	3
0.4014	11000	1037.5	3
0.4014	11500	1037.8	3
0.4014	12000	1038.2	3
0.4014	12500	1038.4	3
0.4014	12900	1038.8	3
0.4014	13500	1039.2	3
0.4014	13900	1039.5	3
0.4014	14500	1039.8	3
0.4014	15000	1040	3
0.4014	15500	1040.4	3
0.4014	15900	1040.7	3
0.4014	16400	1041	3
0.4014	17000	1041.4	3
0.4014	17500	1041.7	3
0.4014	18000	1042	3
0.4014	18500	1042.3	3
0.4014	19000	1042.6	3
0.4014	19500	1042.9	3
0.4014	20000	1043.2	3.1
0.5033	100	1019	3.1
0.5033	500	1019.3	3.1
0.5033	1000	1019.6	3.1
0.5033	1500	1020	3.1
0.5033	2000	1020.3	3.1
0.5033	2500	1020.7	3.1
0.5033	2900	1021	3.1
0.5033	3500	1021.3	3.1
0.5033	4000	1021.7	3.1
0.5033	4500	1022	3.1
0.5033	5000	1022.3	3.1
0.5033	5500	1022.6	3.1
0.5033	6000	1023	3.1
0.5033	6500	1023.3	3.1
0.5033	7000	1023.7	3.1
0.5033	7500	1024	3.1
0.5033	8000	1024.4	3.1
0.5033	8500	1024.6	3.1
0.5033	9000	1025	3.1
0.5033	9500	1025.3	3.1
0.5033	10000	1025.7	3.1
0.5033	10500	1026	3.1
0.5033	11000	1026.4	3.1
0.5033	11500	1026.7	3.1
0.5033	12000	1027	3.1
0.5033	12500	1027.3	3.1
0.5033	13000	1027.6	3.1
0.5033	13500	1028	3.1
0.5033	14000	1028.3	3.1
0.5033	14500	1028.6	3.1
0.5033	15000	1028.9	3.1
0.5033	15400	1029.2	3.1
0.5033	16000	1029.6	3.1
0.5033	16500	1030	3.1
0.5033	17000	1030.3	3.1
0.5033	17500	1030.5	3.1
0.5033	18000	1030.9	3.1
0.5033	18500	1031.2	3.1
0.5033	19000	1031.5	3.1
0.5033	19500	1031.8	3.1
0.5033	20000	1032.2	3.1
0.6037	100	1007.3	3.2
0.6037	500	1007.6	3.2
0.6037	1000	1007.9	3.2
0.6037	1500	1008.2	3.2
0.6037	2000	1008.6	3.2
0.6037	2500	1008.9	3.2
0.6037	3000	1009.2	3.2
0.6037	3500	1009.6	3.2
0.6037	4000	1009.9	3.2
0.6037	4500	1010.2	3.2
0.6037	5000	1010.5	3.2
0.6037	5500	1010.9	3.2
0.6037	5900	1011.2	3.2
0.6037	6500	1011.5	3.2
0.6037	7000	1011.9	3.2
0.6037	7500	1012.2	3.2
0.6037	8000	1012.6	3.2
0.6037	8400	1012.8	3.2
0.6037	8900	1013.1	3.2
0.6037	9500	1013.5	3.2
0.6037	10000	1013.9	3.2
0.6037	10500	1014.2	3.2
0.6037	11000	1014.5	3.3
0.6037	11400	1014.8	3.2
0.6037	11900	1015.1	3.3
0.6037	12400	1015.4	3.3
0.6037	13000	1016	3.3
0.6037	13500	1016.3	3.3
0.6037	14000	1016.6	3.3
0.6037	14400	1016.8	3.3
0.6037	15000	1017.3	3.3
0.6037	15400	1017.6	3.3
0.6037	16000	1018	3.3
0.6037	16500	1018.2	3.3
0.6037	17000	1018.5	3.3
0.6037	17500	1018.8	3.3
0.6037	18000	1019.1	3.3
0.6037	18500	1019.4	3.3
0.6037	19000	1019.8	3.3
0.6037	19500	1020.1	3.3
0.6037	20000	1020.5	3.3
0.7034	100	994.3	3.4
0.7034	500	994.6	3.4
0.7034	1000	995	3.4
0.7034	1500	995.3	3.4
0.7034	2000	995.6	3.4
0.7034	2500	995.9	3.4
0.7034	3000	996.3	3.4
0.7034	3500	996.6	3.4
0.7034	4000	996.9	3.4
0.7034	4500	997.2	3.4
0.7034	5000	997.5	3.4
0.7034	5500	997.8	3.4
0.7034	6000	998.2	3.4
0.7034	6500	998.5	3.4
0.7034	7000	998.8	3.4
0.7034	7500	999.1	3.4
0.7034	8000	999.5	3.5
0.7034	8500	999.8	3.4
0.7034	9000	1000.1	3.4
0.7034	9500	1000.4	3.4
0.7034	10000	1000.8	3.5
0.7034	10500	1001.1	3.4
0.7034	11000	1001.4	3.4
0.7034	11500	1001.8	3.5
0.7034	12000	1002	3.5
0.7034	12500	1002.4	3.5
0.7034	13000	1002.7	3.5
0.7034	13500	1003	3.5
0.7034	14000	1003.3	3.5
0.7034	14500	1003.5	3.5
0.7034	15000	1003.9	3.5
0.7034	15500	1004.2	3.5
0.7034	16000	1004.5	3.5
0.7034	16500	1004.8	3.5
0.7034	17000	1005.1	3.5
0.7034	17500	1005.4	3.5
0.7034	18000	1005.6	3.5
0.7034	18500	1005.9	3.5
0.7034	19000	1006.3	3.5
0.7034	19500	1006.6	3.5
0.7034	20000	1007	3.5
0.8019	100	980	3.7
0.8019	500	980.3	3.7
0.8019	1000	980.6	3.7
0.8019	1500	980.9	3.7
0.8019	2000	981.3	3.7
0.8019	2500	981.6	3.7
0.8019	3000	981.9	3.7
0.8019	3500	982.2	3.7
0.8019	4000	982.6	3.7
0.8019	4500	982.9	3.7
0.8019	4900	983.2	3.7
0.8019	5500	983.5	3.7
0.8019	6000	983.9	3.7
0.8019	6400	984.2	3.7
0.8019	7000	984.5	3.7
0.8019	7500	984.8	3.7
0.8019	8000	985.1	3.8
0.8019	8400	985.4	3.7
0.8019	9000	985.8	3.8
0.8019	9500	986.1	3.7
0.8019	10000	986.4	3.8
0.8019	10400	986.7	3.8
0.8019	10900	987	3.8
0.8019	11500	987.4	3.8
0.8019	12000	987.6	3.8
0.8019	12500	988	3.8
0.8019	13000	988.2	3.8
0.8019	13500	988.6	3.8
0.8019	14000	989	3.8
0.8019	14500	989.2	3.8
0.8019	15000	989.5	3.8
0.8019	15500	989.8	3.8
0.8019	15900	990.1	3.8
0.8019	16500	990.4	3.8
0.8019	17000	990.7	3.8
0.8019	17500	990.9	3.8
0.8019	17900	991.2	3.8
0.8019	18500	991.5	3.8
0.8019	19000	991.9	3.8
0.8019	19500	992.2	3.8
0.8019	20000	992.5	3.8
0.9008	100	963.6	3.9
0.9008	500	963.9	3.9
0.9008	1000	964.2	3.9
0.9008	1500	964.5	3.9
0.9008	2000	964.8	3.9
0.9008	2500	965.1	3.9
0.9008	3000	965.4	3.9
0.9008	3500	965.8	3.9
0.9008	4000	966.1	3.9
0.9008	4500	966.4	3.9
0.9008	5000	966.7	2.8
0.9008	5500	967	3.9
0.9008	6000	967.3	3.9
0.9008	6500	967.7	3.9
0.9008	6900	967.8	3.9
0.9008	7500	968.2	3.9
0.9008	8000	968.5	3.9
0.9008	8400	968.8	3.9
0.9008	9000	969.1	4
0.9008	9400	969.4	3.9
0.9008	10000	969.8	4
0.9008	10400	969.9	4
0.9008	11000	970.3	4
0.9008	11500	970.5	4
0.9008	12000	970.8	4
0.9008	12400	971.1	4
0.9008	13000	971.3	4
0.9008	13500	971.6	4
0.9008	14000	971.9	4
0.9008	14500	972.2	4
0.9008	15000	972.6	4
0.9008	15500	972.8	4
0.9008	16000	973.1	2.8
0.9008	16500	973.4	4
0.9008	17000	973.7	4
0.9008	17500	974	4
0.9008	18000	974.3	2.8
0.9008	18500	974.7	4
0.9008	19000	975.1	4
0.9008	19500	975.4	4
0.9008	20000	975.8	4

System: 1,2-dichloroethane + N,N-dimethylethanamide; phases: Liquid
Fixed: Temperature, K = 298
Property: Mass density, kg/m3 (Liquid); method: VIBTUB:UFactor:4
Mole fraction of N,N-dimethylethanamide	Pressure, kPa	Mass density, kg/m3	uncertainty
0.0977	100	1210	7.2
0.0977	500	1210.4	7.2
0.0977	1000	1210.9	7.3
0.0977	1500	1211.3	7.3
0.0977	2000	1211.8	7.3
0.0977	2500	1212.2	7.3
0.0977	3000	1212.6	7.3
0.0977	3500	1213.2	7.3
0.0977	4000	1213.6	7.3
0.0977	4500	1214	7.3
0.0977	5000	1214.5	7.3
0.0977	5500	1215	7.3
0.0977	6000	1215.4	7.3
0.0977	6500	1215.9	7.3
0.0977	7000	1216.3	7.3
0.0977	7500	1216.7	7.3
0.0977	8000	1217.2	7.3
0.0977	8500	1217.7	7.4
0.0977	9000	1218.1	7.4
0.0977	9500	1218.5	7.4
0.0977	10000	1219	7.4
0.0977	10500	1219.4	7.4
0.0977	11000	1219.9	7.4
0.0977	11500	1220.3	7.4
0.0977	12000	1220.8	7.4
0.0977	12500	1221.2	7.4
0.0977	13000	1221.6	7.4
0.0977	13500	1222	7.4
0.0977	14000	1222.4	7.4
0.0977	14500	1222.9	7.4
0.0977	14900	1223.2	7.4
0.0977	15500	1223.7	7.4
0.0977	16000	1224.1	7.4
0.0977	16400	1224.5	7.4
0.0977	17000	1224.9	7.4
0.0977	17500	1225.4	7.4
0.0977	18000	1225.8	7.4
0.0977	18500	1226.1	7.4
0.0977	19000	1226.6	7.4
0.0977	19500	1227	7.5
0.0977	20000	1227.5	7.5
0.2003	100	1174.4	7.1
0.2003	500	1174.8	7.1
0.2003	1000	1175.2	7.1
0.2003	1500	1175.6	7.1
0.2003	2000	1176	7.2
0.2003	2500	1176.5	7.2
0.2003	3000	1176.9	7.1
0.2003	3500	1177.3	7.2
0.2003	4000	1177.7	7.2
0.2003	4500	1178.2	7.2
0.2003	5000	1178.6	7.2
0.2003	5500	1179	7.2
0.2003	6000	1179.5	7.2
0.2003	6500	1179.9	7.2
0.2003	7000	1180.3	7.2
0.2003	7500	1180.7	7.2
0.2003	8000	1181.2	7.2
0.2003	8500	1181.5	7.2
0.2003	9000	1182	7.2
0.2003	9500	1182.4	7.2
0.2003	10000	1182.9	7.2
0.2003	10500	1183.3	7.2
0.2003	11000	1183.7	7.2
0.2003	11500	1184.2	7.2
0.2003	12000	1184.6	7.3
0.2003	12500	1185	7.3
0.2003	13000	1185.4	7.3
0.2003	13500	1185.8	7.3
0.2003	14000	1186.3	7.3
0.2003	14500	1186.7	7.3
0.2003	15000	1187.1	7.3
0.2003	15500	1187.4	7.3
0.2003	16000	1187.8	7.3
0.2003	16500	1188.2	7.3
0.2003	17000	1188.6	7.3
0.2003	17500	1189.2	7.3
0.2003	18000	1189.5	7.3
0.2003	18500	1189.8	7.3
0.2003	19000	1190.3	7.3
0.2003	19500	1190.6	7.3
0.2003	20100	1191.1	7.3
0.2988	100	1141.3	6.9
0.2988	500	1141.6	6.9
0.2988	1000	1142.1	6.9
0.2988	1500	1142.5	6.9
0.2988	2000	1142.9	6.9
0.2988	2500	1143.3	6.9
0.2988	3000	1143.8	6.9
0.2988	3500	1144.1	6.9
0.2988	4000	1144.6	6.9
0.2988	4500	1144.8	6.9
0.2988	5000	1145.4	6.9
0.2988	5500	1145.8	6.9
0.2988	6000	1146.1	6.9
0.2988	6500	1146.6	6.9
0.2988	7000	1147	6.9
0.2988	7500	1147.4	6.9
0.2988	8000	1147.8	7
0.2988	8500	1148.2	7
0.2988	9000	1148.6	7
0.2988	9500	1149	7
0.2988	10000	1149.5	7
0.2988	10500	1149.8	7
0.2988	11000	1150.3	7
0.2988	11500	1150.7	7
0.2988	12000	1151.1	7
0.2988	12500	1151.5	7
0.2988	13000	1151.9	7
0.2988	13500	1152.2	7
0.2988	14000	1152.6	7
0.2988	14500	1153	7
0.2988	15000	1153.4	7
0.2988	15500	1153.8	7
0.2988	16000	1154.2	7
0.2988	16500	1154.6	7
0.2988	17000	1155	7
0.2988	17500	1155.3	7.1
0.2988	18000	1155.7	7.1
0.2988	18500	1156.1	7.1
0.2988	19000	1156.5	7.1
0.2988	19500	1156.8	7.1
0.2988	20000	1157.2	7.1
0.4022	100	1107.9	6.7
0.4022	500	1108.2	6.7
0.4022	1000	1108.7	6.7
0.4022	1500	1109	6.7
0.4022	2000	1109.5	6.7
0.4022	2500	1109.9	6.7
0.4022	3000	1110.2	6.7
0.4022	3500	1110.6	6.7
0.4022	4000	1111	6.7
0.4022	4500	1111.5	6.7
0.4022	5000	1111.8	6.7
0.4022	5500	1112.2	6.7
0.4022	6000	1112.6	6.7
0.4022	6500	1113	6.7
0.4022	7000	1113.4	6.7
0.4022	7500	1113.8	6.7
0.4022	8000	1114.1	6.7
0.4022	8500	1114.5	6.7
0.4022	9000	1114.9	6.8
0.4022	9500	1115.3	6.8
0.4022	10000	1115.7	6.8
0.4022	10500	1116.1	6.8
0.4022	11000	1116.5	6.8
0.4022	11500	1116.9	6.8
0.4022	12000	1117.2	6.8
0.4022	12500	1117.6	6.8
0.4022	13000	1118	6.8
0.4022	13500	1118.4	6.8
0.4022	14000	1118.7	6.8
0.4022	14500	1119.1	6.8
0.4022	15000	1119.4	6.8
0.4022	15500	1119.8	6.8
0.4022	15900	1120.1	6.8
0.4022	16500	1120.5	6.8
0.4022	17000	1120.9	6.8
0.4022	17500	1121.3	6.8
0.4022	17900	1121.5	6.8
0.4022	18500	1122	6.8
0.4022	19000	1122.4	6.8
0.4022	19500	1122.7	6.8
0.4022	20000	1123.1	6.8
0.4999	100	1077.4	6.5
0.4999	500	1077.7	6.5
0.4999	1000	1078	6.5
0.4999	1500	1078.4	6.5
0.4999	2000	1078.8	6.5
0.4999	2500	1079.2	6.5
0.4999	3000	1079.6	6.5
0.4999	3500	1080	6.5
0.4999	4000	1080.4	6.5
0.4999	4500	1080.8	6.5
0.4999	5000	1081.1	6.5
0.4999	5500	1081.5	6.5
0.4999	6000	1081.8	6.5
0.4999	6500	1082.2	6.5
0.4999	7000	1082.6	6.5
0.4999	7500	1083	6.5
0.4999	8000	1083.3	6.5
0.4999	8500	1083.7	6.5
0.4999	9000	1084	6.5
0.4999	9500	1084.4	6.5
0.4999	10000	1084.8	6.5
0.4999	10500	1085.2	6.5
0.4999	11000	1085.6	6.5
0.4999	11500	1085.9	6.5
0.4999	11900	1086.2	6.5
0.4999	12500	1086.6	6.6
0.4999	13000	1087	6.6
0.4999	13500	1087.3	6.6
0.4999	14000	1087.7	6.6
0.4999	14500	1088	6.6
0.4999	15000	1088.4	6.6
0.4999	15500	1088.7	6.6
0.4999	16000	1089.1	6.6
0.4999	16500	1089.4	6.6
0.4999	17000	1089.8	6.6
0.4999	17500	1090.1	6.6
0.4999	18000	1090.4	6.6
0.4999	18500	1090.8	6.6
0.4999	19000	1091.2	6.6
0.4999	19500	1091.5	6.6
0.4999	20000	1091.9	6.6
0.6007	100	1047.1	6.2
0.6007	500	1047.4	6.2
0.6007	1000	1047.7	6.2
0.6007	1500	1048.1	6.2
0.6007	2000	1048.4	6.3
0.6007	2500	1048.8	6.3
0.6007	3000	1049.1	6.3
0.6007	3500	1049.5	6.3
0.6007	4000	1049.8	6.3
0.6007	4500	1050.1	6.3
0.6007	5000	1050.5	6.3
0.6007	5500	1050.8	6.3
0.6007	6000	1051.2	6.3
0.6007	6500	1051.6	6.3
0.6007	7000	1052	6.3
0.6007	7500	1052.3	6.3
0.6007	8000	1052.7	6.3
0.6007	8500	1053	6.3
0.6007	9000	1053.4	6.3
0.6007	9500	1053.8	6.3
0.6007	10000	1054.2	6.3
0.6007	10500	1054.5	6.3
0.6007	11000	1054.8	6.3
0.6007	11500	1055.2	6.3
0.6007	12000	1055.5	6.3
0.6007	12500	1055.8	6.3
0.6007	13000	1056.2	6.3
0.6007	13500	1056.5	6.3
0.6007	14000	1056.8	6.3
0.6007	14500	1057.1	6.3
0.6007	15000	1057.5	6.4
0.6007	15500	1057.8	6.3
0.6007	16000	1058.1	6.4
0.6007	16500	1058.4	6.4
0.6007	17000	1058.8	6.4
0.6007	17500	1059.2	6.4
0.6007	18000	1059.5	6.4
0.6007	18500	1059.8	6.4
0.6007	19000	1060.2	6.4
0.6007	19500	1060.5	6.4
0.6007	20000	1060.8	6.4
0.7008	100	1018.1	6.1
0.7008	500	1018.4	6.1
0.7008	1000	1018.7	6.1
0.7008	1500	1019.1	6.1
0.7008	2000	1019.4	6.1
0.7008	2500	1019.8	6.1
0.7008	3000	1020.1	6.1
0.7008	3500	1020.5	6.1
0.7008	4000	1020.9	6.1
0.7008	4500	1021.1	6.1
0.7008	5000	1021.5	6.1
0.7008	5500	1021.8	6.1
0.7008	6000	1022.1	6.1
0.7008	6500	1022.5	6.1
0.7008	7000	1022.8	6.1
0.7008	7500	1023.1	6.1
0.7008	8000	1023.5	6.1
0.7008	8500	1023.8	6.1
0.7008	9000	1024.2	6.1
0.7008	9500	1024.4	6.1
0.7008	10000	1024.8	6.1
0.7008	10500	1025.2	6.1
0.7008	11000	1025.5	6.1
0.7008	11500	1025.8	6.1
0.7008	12000	1026.1	6.1
0.7008	12500	1026.5	6.1
0.7008	13000	1026.8	6.1
0.7008	13500	1027.1	6.1
0.7008	14000	1027.4	6.1
0.7008	14500	1027.8	6.1
0.7008	15000	1028	6.2
0.7008	15500	1028.4	6.1
0.7008	16000	1028.7	6.2
0.7008	16500	1029	6.1
0.7008	16900	1029.3	6.2
0.7008	17500	1029.7	6.2
0.7008	18000	1029.9	6.2
0.7008	18500	1030.2	6.2
0.7008	19000	1030.6	6.2
0.7008	19500	1030.9	6.2
0.7008	20000	1031.2	6.2
0.7988	100	990.5	5.9
0.7988	500	990.8	5.9
0.7988	1000	991.1	5.9
0.7988	1500	991.4	5.9
0.7988	2000	991.8	5.9
0.7988	2500	992	5.9
0.7988	3000	992.4	5.9
0.7988	3500	992.7	5.9
0.7988	4000	993.1	5.9
0.7988	4500	993.4	5.9
0.7988	5000	993.7	5.9
0.7988	5500	994	5.9
0.7988	6000	994.3	5.9
0.7988	6500	994.7	5.9
0.7988	7000	995	5.9
0.7988	7500	995.3	5.9
0.7988	8000	995.6	5.9
0.7988	8500	996	5.9
0.7988	9000	996.3	5.9
0.7988	9500	996.6	5.9
0.7988	10000	996.9	5.9
0.7988	10500	997.2	5.9
0.7988	11000	997.6	5.9
0.7988	11500	997.9	5.9
0.7988	12000	998.2	5.9
0.7988	12500	998.5	5.9
0.7988	13000	998.8	5.9
0.7988	13500	999.2	5.9
0.7988	14000	999.4	6
0.7988	14500	999.7	6
0.7988	15000	1000	6
0.7988	15500	1000.4	6
0.7988	16000	1000.6	6
0.7988	16500	1001	6
0.7988	17000	1001.3	6
0.7988	17500	1001.5	6
0.7988	18000	1001.8	6
0.7988	18500	1002.1	6
0.7988	19000	1002.5	6
0.7988	19500	1002.7	6
0.7988	20000	1003	6
0.8997	100	963.2	5.8
0.8997	500	963.4	5.8
0.8997	1000	963.8	5.8
0.8997	1500	964.1	5.8
0.8997	2000	964.4	5.8
0.8997	2500	964.7	5.8
0.8997	3000	965	5.8
0.8997	3500	965.3	5.8
0.8997	4000	965.6	5.8
0.8997	4500	965.9	5.8
0.8997	5000	966.2	5.8
0.8997	5500	966.5	5.8
0.8997	6000	966.9	5.8
0.8997	6500	967.2	5.8
0.8997	7000	967.5	5.8
0.8997	7500	967.8	5.8
0.8997	8000	968.1	5.8
0.8997	8500	968.4	5.8
0.8997	9000	968.8	5.8
0.8997	9500	969	5.8
0.8997	10000	969.4	5.8
0.8997	10500	969.6	5.8
0.8997	11000	970	5.8
0.8997	11500	970.3	5.8
0.8997	12000	970.6	5.8
0.8997	12500	970.9	5.8
0.8997	13000	971.2	5.8
0.8997	13500	971.5	5.9
0.8997	14000	971.7	5.8
0.8997	14500	972	5.9
0.8997	15000	972.3	5.9
0.8997	15500	972.6	5.9
0.8997	16000	972.9	5.9
0.8997	16500	973.2	5.9
0.8997	17000	973.4	5.9
0.8997	17500	973.7	5.9
0.8997	18000	974	5.9
0.8997	18500	974.3	5.9
0.8997	19000	974.7	5.9
0.8997	19500	975	5.9
0.8997	20100	975.4	5.8

System: 1,4-dichlorobutane + N,N-dimethylethanamide; phases: Liquid
Fixed: Temperature, K = 298
Property: Mass density, kg/m3 (Liquid); method: VIBTUB:UFactor:8
Mole fraction of N,N-dimethylethanamide	Pressure, kPa	Mass density, kg/m3	uncertainty
0.0975	100	1116.3	4.8
0.0975	500	1116.6	4.8
0.0975	1000	1117	4.8
0.0975	1500	1117.4	4.8
0.0975	2000	1117.7	4.8
0.0975	2500	1118.1	4.8
0.0975	3000	1118.5	4.8
0.0975	3500	1118.9	4.8
0.0975	4000	1119.3	4.8
0.0975	4500	1119.6	4.8
0.0975	5000	1120	4.9
0.0975	5500	1120.4	4.9
0.0975	6000	1120.7	4.9
0.0975	6500	1121.1	4.9
0.0975	7000	1121.5	4.9
0.0975	7500	1121.9	4.9
0.0975	8000	1122.2	4.9
0.0975	8500	1122.5	5
0.0975	9000	1123	5
0.0975	9500	1123.2	5
0.0975	10000	1123.7	5
0.0975	10500	1124.1	5
0.0975	11000	1124.4	5
0.0975	11500	1124.7	5
0.0975	12000	1125.1	5
0.0975	12500	1125.5	5.1
0.0975	13000	1125.8	5.1
0.0975	13500	1126.1	5.1
0.0975	14000	1126.5	5.1
0.0975	14500	1126.8	5.1
0.0975	15000	1127.2	5.1
0.0975	15500	1127.6	5.1
0.0975	16000	1127.9	5.1
0.0975	16400	1128.2	5.2
0.0975	17000	1128.6	5.2
0.0975	17500	1129	5.2
0.0975	18000	1129.3	5.2
0.0975	18500	1129.6	5.2
0.0975	19000	1130	5.2
0.0975	19500	1130.3	5.2
0.0975	20000	1130.8	5.3
0.2001	100	1097.8	4.6
0.2001	500	1098.2	4.6
0.2001	1000	1098.6	4.6
0.2001	1500	1098.9	4.7
0.2001	2000	1099.3	4.7
0.2001	2500	1099.6	4.7
0.2001	3000	1100.1	4.7
0.2001	3500	1100.4	4.7
0.2001	4000	1100.8	4.7
0.2001	4500	1101.2	4.7
0.2001	5000	1101.5	4.7
0.2001	5500	1101.9	4.7
0.2001	6000	1102.2	4.7
0.2001	6500	1102.6	4.7
0.2001	7000	1102.9	4.8
0.2001	7500	1103.2	4.8
0.2001	8000	1103.6	4.8
0.2001	8500	1104	4.8
0.2001	9000	1104.3	4.8
0.2001	9500	1104.7	4.8
0.2001	10000	1105.2	4.8
0.2001	10500	1105.5	4.8
0.2001	11000	1105.8	4.8
0.2001	11500	1106.2	4.8
0.2001	12000	1106.6	4.9
0.2001	12500	1106.8	4.9
0.2001	13000	1107.2	4.9
0.2001	13500	1107.6	4.9
0.2001	14000	1107.9	4.9
0.2001	14500	1108.2	4.9
0.2001	15000	1108.6	4.9
0.2001	15500	1108.9	4.9
0.2001	16000	1109.3	4.9
0.2001	16500	1109.6	4.9
0.2001	17000	1109.9	5
0.2001	17500	1110.3	5
0.2001	18000	1110.6	5
0.2001	18500	1110.9	5
0.2001	19000	1111.3	5
0.2001	19500	1111.7	5
0.2001	20000	1112	5
0.2996	100	1079.3	4.6
0.2996	500	1079.6	4.6
0.2996	1000	1080	4.6
0.2996	1500	1080.3	4.6
0.2996	2000	1080.7	4.6
0.2996	2500	1081	4.6
0.2996	3000	1081.4	4.6
0.2996	3500	1081.8	4.6
0.2996	4000	1082.1	4.6
0.2996	4500	1082.5	4.6
0.2996	5000	1082.8	4.7
0.2996	5500	1083.2	4.7
0.2996	6000	1083.6	4.7
0.2996	6500	1083.9	4.7
0.2996	7000	1084.3	4.7
0.2996	7500	1084.6	4.7
0.2996	8000	1085	4.7
0.2996	8500	1085.4	4.7
0.2996	9000	1085.7	4.7
0.2996	9500	1086	4.7
0.2996	10000	1086.4	4.7
0.2996	10500	1086.8	4.7
0.2996	11000	1087.2	4.7
0.2996	11500	1087.5	4.7
0.2996	12000	1087.8	4.8
0.2996	12500	1088.2	4.7
0.2996	13000	1088.5	4.8
0.2996	13500	1088.9	4.8
0.2996	14000	1089.1	4.8
0.2996	14500	1089.5	4.8
0.2996	15000	1089.9	4.8
0.2996	15500	1090.2	4.8
0.2996	16000	1090.5	4.8
0.2996	16500	1090.9	4.8
0.2996	17000	1091.2	4.8
0.2996	17500	1091.6	4.8
0.2996	18000	1091.8	4.8
0.2996	18500	1092.2	4.8
0.2996	19000	1092.5	4.9
0.2996	19500	1092.8	4.9
0.2996	20000	1093.3	4.9
0.4017	100	1060	4.5
0.4017	500	1060.3	4.5
0.4017	1000	1060.6	4.6
0.4017	1500	1061	4.6
0.4017	2000	1061.3	4.6
0.4017	2500	1061.7	4.6
0.4017	3000	1062.1	4.6
0.4017	3500	1062.4	4.6
0.4017	4000	1062.8	4.6
0.4017	4500	1063.2	4.6
0.4017	5000	1063.4	4.6
0.4017	5500	1063.8	4.6
0.4017	6000	1064.2	4.6
0.4017	6500	1064.5	4.6
0.4017	7000	1064.9	4.6
0.4017	7500	1065.2	4.6
0.4017	8000	1065.5	4.6
0.4017	8500	1065.9	4.6
0.4017	9000	1066.2	4.6
0.4017	9500	1066.6	4.6
0.4017	10000	1067	4.6
0.4017	10500	1067.3	4.6
0.4017	11000	1067.6	4.7
0.4017	11500	1068	4.7
0.4017	12000	1068.3	4.7
0.4017	12500	1068.7	4.7
0.4017	13000	1069	4.7
0.4017	13400	1069.3	4.7
0.4017	14000	1069.7	4.7
0.4017	14500	1070	4.7
0.4017	15000	1070.3	4.7
0.4017	15500	1070.6	4.7
0.4017	16000	1071	4.7
0.4017	16500	1071.4	4.7
0.4017	17000	1071.6	4.7
0.4017	17500	1072	4.7
0.4017	18000	1072.3	4.7
0.4017	18500	1072.6	4.7
0.4017	19000	1073	4.7
0.4017	19500	1073.3	4.7
0.4017	20000	1073.8	4.8
0.5009	100	1040.7	4.5
0.5009	500	1041	4.5
0.5009	1000	1041.4	4.5
0.5009	1500	1041.7	4.5
0.5009	2000	1042	4.5
0.5009	2500	1042.4	4.5
0.5009	3000	1042.7	4.5
0.5009	3500	1043.1	4.6
0.5009	4000	1043.4	4.6
0.5009	4500	1043.7	4.6
0.5009	5000	1044.1	4.6
0.5009	5500	1044.5	4.6
0.5009	6000	1044.9	4.6
0.5009	6500	1045.2	4.6
0.5009	7000	1045.5	4.6
0.5009	7500	1045.8	4.6
0.5009	8000	1046.2	4.6
0.5009	8500	1046.6	4.6
0.5009	9000	1046.9	4.6
0.5009	9500	1047.2	4.6
0.5009	10000	1047.6	4.6
0.5009	10500	1047.9	4.6
0.5009	11000	1048.2	4.6
0.5009	11500	1048.6	4.6
0.5009	12000	1048.9	4.6
0.5009	12500	1049.2	4.6
0.5009	13000	1049.6	4.6
0.5009	13400	1049.9	4.6
0.5009	14000	1050.3	4.6
0.5009	14500	1050.6	4.6
0.5009	15000	1050.9	4.6
0.5009	15500	1051.2	4.6
0.5009	16000	1051.5	4.6
0.5009	16400	1051.8	4.7
0.5009	17000	1052.1	4.6
0.5009	17500	1052.4	4.7
0.5009	17900	1052.7	4.7
0.5009	18500	1053.1	4.7
0.5009	19000	1053.5	4.7
0.5009	19500	1053.8	4.7
0.5009	20000	1054.1	4.7
0.5981	100	1021.7	4.6
0.5981	500	1022	4.6
0.5981	1000	1022.3	4.6
0.5981	1500	1022.7	4.6
0.5981	2000	1023	4.6
0.5981	2500	1023.3	4.6
0.5981	3000	1023.7	4.6
0.5981	3500	1024	4.6
0.5981	4000	1024.4	4.6
0.5981	4500	1024.8	4.6
0.5981	5000	1025	4.6
0.5981	5500	1025.4	4.6
0.5981	6000	1025.6	4.6
0.5981	6500	1026	4.6
0.5981	7000	1026.4	4.6
0.5981	7500	1026.7	4.6
0.5981	8000	1027	4.6
0.5981	8500	1027.3	4.6
0.5981	9000	1027.7	4.6
0.5981	9500	1028	4.6
0.5981	10000	1028.5	4.6
0.5981	10500	1028.8	4.6
0.5981	11000	1029.1	4.6
0.5981	11500	1029.5	4.6
0.5981	12000	1029.8	4.6
0.5981	12500	1030.1	4.6
0.5981	13000	1030.4	4.6
0.5981	13500	1030.7	4.6
0.5981	14000	1031	4.6
0.5981	14500	1031.4	4.6
0.5981	15000	1031.6	4.7
0.5981	15500	1032	4.7
0.5981	16000	1032.3	4.7
0.5981	16500	1032.6	4.7
0.5981	17000	1032.9	4.7
0.5981	17500	1033.2	4.7
0.5981	18000	1033.5	4.7
0.5981	18500	1033.8	4.7
0.5981	19000	1034.2	4.7
0.5981	19500	1034.5	4.7
0.5981	20000	1034.8	4.7
0.6987	100	1001.1	4.6
0.6987	500	1001.3	4.6
0.6987	1000	1001.7	4.6
0.6987	1500	1002	4.6
0.6987	2000	1002.3	4.6
0.6987	2500	1002.8	4.6
0.6987	3000	1003.1	4.6
0.6987	3500	1003.4	4.6
0.6987	4000	1003.7	4.6
0.6987	4500	1004	4.6
0.6987	5000	1004.4	4.6
0.6987	5500	1004.7	4.7
0.6987	6000	1005	4.6
0.6987	6500	1005.3	4.6
0.6987	7000	1005.7	4.7
0.6987	7500	1006	4.6
0.6987	8000	1006.3	4.7
0.6987	8500	1006.6	4.6
0.6987	9000	1007	4.7
0.6987	9500	1007.3	4.7
0.6987	10000	1007.6	4.7
0.6987	10500	1008	4.7
0.6987	11000	1008.3	4.7
0.6987	11500	1008.6	4.7
0.6987	12000	1008.9	4.7
0.6987	12500	1009.3	4.7
0.6987	13000	1009.6	4.7
0.6987	13500	1009.9	4.7
0.6987	14000	1010.2	4.7
0.6987	14500	1010.5	4.7
0.6987	15000	1010.8	4.7
0.6987	15500	1011.1	4.7
0.6987	16000	1011.4	4.7
0.6987	16500	1011.7	4.7
0.6987	17000	1012	4.7
0.6987	17500	1012.4	4.7
0.6987	18000	1012.7	4.7
0.6987	18500	1013	4.7
0.6987	19000	1013.3	4.7
0.6987	19500	1013.6	4.7
0.6987	20000	1014	4.7
0.801	100	980	4.7
0.801	500	980.3	4.7
0.801	1000	980.6	4.7
0.801	1500	980.8	4.7
0.801	2000	981.2	4.7
0.801	2500	981.6	4.7
0.801	3000	982	4.7
0.801	3500	982.2	4.7
0.801	4000	982.6	4.7
0.801	4500	982.9	4.7
0.801	5000	983.2	4.7
0.801	5500	983.4	4.7
0.801	6000	983.8	4.7
0.801	6500	984.1	4.7
0.801	7000	984.4	4.7
0.801	7500	984.8	4.7
0.801	8000	985	4.7
0.801	8500	985.4	4.7
0.801	9000	985.6	4.7
0.801	9500	986	4.7
0.801	10000	986.3	4.7
0.801	10500	986.7	4.7
0.801	11000	986.9	4.7
0.801	11500	987.3	4.7
0.801	11900	987.6	4.7
0.801	12500	987.9	4.7
0.801	13000	988.2	4.7
0.801	13500	988.5	4.7
0.801	14000	988.8	4.7
0.801	14500	989.1	4.7
0.801	15000	989.4	4.7
0.801	15500	989.7	4.7
0.801	16000	990	4.8
0.801	16500	990.2	4.8
0.801	17000	990.5	4.8
0.801	17500	990.8	4.8
0.801	18000	991.1	4.8
0.801	18500	991.4	4.8
0.801	19000	991.8	4.8
0.801	19500	992	4.8
0.801	20000	992.4	4.8
0.9012	100	958.6	4.8
0.9012	500	958.8	4.8
0.9012	1000	959.2	4.8
0.9012	1500	959.5	4.7
0.9012	2000	959.8	4.8
0.9012	2500	960.1	4.8
0.9012	3000	960.4	4.8
0.9012	3500	960.7	4.8
0.9012	4000	961	4.8
0.9012	4500	961.3	4.8
0.9012	5000	961.6	4.8
0.9012	5500	961.9	4.8
0.9012	6000	962.2	4.8
0.9012	6500	962.6	4.8
0.9012	7000	962.9	4.8
0.9012	7500	963.1	4.8
0.9012	8000	963.5	4.8
0.9012	8500	963.7	4.8
0.9012	9000	964	4.8
0.9012	9500	964.3	4.8
0.9012	10000	964.7	4.8
0.9012	10500	965	4.8
0.9012	11000	965.2	4.8
0.9012	11500	965.6	4.8
0.9012	12000	965.9	2.9
0.9012	12500	966.3	4.8
0.9012	13000	966.5	4.8
0.9012	13500	966.8	4.8
0.9012	14000	967.1	4.8
0.9012	14500	967.4	4.8
0.9012	15000	967.7	4.8
0.9012	15500	968	4.8
0.9012	16000	968.2	4.8
0.9012	16500	968.5	4.8
0.9012	17000	968.7	4.8
0.9012	17500	969.1	4.8
0.9012	18000	969.3	4.8
0.9012	18500	969.6	4.8
0.9012	19000	969.9	4.9
0.9012	19500	970.1	4.8
0.9012	20000	970.5	4.9

System: N,N-dimethylethanamide + 1,6-dichlorohexane; phases: Liquid
Fixed: Temperature, K = 298
Property: Mass density, kg/m3 (Liquid); method: VIBTUB:UFactor:6
Mole fraction of N,N-dimethylethanamide	Pressure, kPa	Mass density, kg/m3	uncertainty
0.1002	100	1054.5	2.9
0.1002	500	1054.7	2.9
0.1002	1000	1055.1	2.9
0.1002	1500	1055.5	2.9
0.1002	2000	1055.8	2.9
0.1002	2500	1056.2	2.9
0.1002	3000	1056.5	2.9
0.1002	3500	1056.9	3
0.1002	4000	1057.2	3
0.1002	4500	1057.6	3
0.1002	5000	1057.9	3
0.1002	5500	1058.2	3
0.1002	6000	1058.6	3
0.1002	6500	1058.9	3
0.1002	7000	1059.3	3
0.1002	7500	1059.6	3
0.1002	8000	1060	3
0.1002	8500	1060.3	3
0.1002	9000	1060.6	3
0.1002	9500	1061	3
0.1002	10000	1061.4	3
0.1002	10500	1061.7	3
0.1002	11000	1062	3
0.1002	11500	1062.3	3
0.1002	12000	1062.7	3
0.1002	12500	1063	3
0.1002	13000	1063.4	3
0.1002	13500	1063.7	3
0.1002	14000	1063.9	3
0.1002	14500	1064.3	3
0.1002	15000	1064.6	3
0.1002	15500	1064.9	3
0.1002	16000	1065.3	3
0.1002	16500	1065.6	3.1
0.1002	17000	1065.9	3.1
0.1002	17500	1066.2	3.1
0.1002	18000	1066.5	3.1
0.1002	18500	1066.8	3.1
0.1002	19000	1067.2	3.1
0.1002	19500	1067.5	3.1
0.1002	20000	1067.9	3.1
0.1985	100	1045.2	3
0.1985	500	1045.5	3
0.1985	1000	1045.9	3
0.1985	1500	1046.2	3
0.1985	2000	1046.6	3
0.1985	2500	1046.9	3
0.1985	3000	1047.3	3
0.1985	3500	1047.6	3
0.1985	4000	1047.9	3
0.1985	4500	1048.3	3
0.1985	5000	1048.6	3
0.1985	5500	1049	3
0.1985	6000	1049.3	3
0.1985	6500	1049.6	3
0.1985	7000	1049.9	3
0.1985	7500	1050.2	3
0.1985	8000	1050.6	3
0.1985	8500	1050.9	3
0.1985	9000	1051.2	3
0.1985	9500	1051.6	3
0.1985	10000	1052	3
0.1985	10500	1052.3	3
0.1985	11000	1052.6	3
0.1985	11500	1052.9	3
0.1985	12000	1053.3	3
0.1985	12500	1053.6	3
0.1985	13000	1054	3
0.1985	13500	1054.3	3.1
0.1985	14000	1054.7	3
0.1985	14500	1055	3
0.1985	15000	1055.3	3.1
0.1985	15500	1055.6	3.1
0.1985	16000	1055.9	3.1
0.1985	16500	1056.2	3.1
0.1985	17000	1056.5	3.1
0.1985	17500	1056.8	3.1
0.1985	18000	1057.1	3.1
0.1985	18500	1057.5	3.1
0.1985	19000	1057.8	3.1
0.1985	19500	1058.1	3.1
0.1985	20000	1058.4	3.1
0.3002	100	1034.5	3
0.3002	500	1034.8	3
0.3002	1000	1035.2	3.1
0.3002	1500	1035.6	3.1
0.3002	2000	1035.9	3.1
0.3002	2500	1036.2	3.1
0.3002	3000	1036.6	3.1
0.3002	3500	1036.8	3.1
0.3002	4000	1037.2	3.1
0.3002	4500	1037.5	3.1
0.3002	5000	1037.9	3.1
0.3002	5500	1038.2	3.1
0.3002	6000	1038.5	3.1
0.3002	6500	1038.9	3.1
0.3002	7000	1039.2	3.1
0.3002	7500	1039.5	3.1
0.3002	8000	1039.9	3.1
0.3002	8500	1040.2	3.1
0.3002	9000	1040.6	3.1
0.3002	9500	1040.9	3.1
0.3002	10000	1041.3	3.1
0.3002	10500	1041.6	3.1
0.3002	11000	1041.9	3.1
0.3002	11500	1042.2	3.1
0.3002	12000	1042.5	3.1
0.3002	12500	1042.9	3.1
0.3002	13000	1043.2	3.1
0.3002	13500	1043.5	3.1
0.3002	14000	1043.8	3.1
0.3002	14500	1044.2	3.1
0.3002	15000	1044.5	3.1
0.3002	15500	1044.8	3.1
0.3002	16000	1045.1	3.1
0.3002	16500	1045.3	3.1
0.3002	17000	1045.7	3.1
0.3002	17500	1046	3.1
0.3002	18000	1046.3	3.1
0.3002	18500	1046.7	3.1
0.3002	19000	1047	3.1
0.3002	19500	1047.3	3.1
0.3002	20000	1047.7	3.1
0.404	100	1023.1	3.1
0.404	500	1023.4	3.1
0.404	1000	1023.7	3.1
0.404	1500	1024.1	3.1
0.404	2000	1024.4	3.1
0.404	2500	1024.8	3.1
0.404	3000	1025.1	3.1
0.404	3500	1025.4	3.1
0.404	4000	1025.7	3.1
0.404	4500	1026.1	3.1
0.404	5000	1026.5	3.1
0.404	5500	1026.8	3.1
0.404	6000	1027.1	3.1
0.404	6500	1027.4	3.1
0.404	7000	1027.7	3.1
0.404	7500	1028.1	3.1
0.404	8000	1028.4	3.2
0.404	8500	1028.7	3.1
0.404	9000	1029.1	3.2
0.404	9500	1029.4	3.2
0.404	10000	1029.8	3.2
0.404	10500	1030.2	3.2
0.404	11000	1030.4	3.2
0.404	11500	1030.7	3.1
0.404	12000	1031	3.1
0.404	12500	1031.4	3.2
0.404	13000	1031.7	3.2
0.404	13500	1032	3.2
0.404	14000	1032.4	3.2
0.404	14500	1032.6	3.2
0.404	15000	1032.9	3.2
0.404	15500	1033.3	3.2
0.404	16000	1033.6	3.2
0.404	16500	1033.9	3.2
0.404	17000	1034.2	3.2
0.404	17500	1034.6	3.2
0.404	18000	1034.9	3.2
0.404	18500	1035.2	3.2
0.404	19000	1035.5	3.2
0.404	19500	1035.9	3.2
0.404	20000	1036.2	3.2
0.4943	100	1012.3	3.2
0.4943	500	1012.5	3.2
0.4943	1000	1012.9	3.3
0.4943	1500	1013.3	3.3
0.4943	2000	1013.6	3.3
0.4943	2500	1013.9	3.3
0.4943	2900	1014.3	3.3
0.4943	3500	1014.6	3.3
0.4943	4000	1014.9	3.2
0.4943	4500	1015.3	3.3
0.4943	5000	1015.6	3.3
0.4943	5500	1015.9	3.3
0.4943	6000	1016.3	3.3
0.4943	6500	1016.6	3.3
0.4943	7000	1016.9	3.3
0.4943	7500	1017.2	3.3
0.4943	8000	1017.4	3.3
0.4943	8500	1017.8	3.3
0.4943	9000	1018.1	3.3
0.4943	9500	1018.5	3.3
0.4943	10000	1018.9	3.3
0.4943	10500	1019.2	3.3
0.4943	11000	1019.5	3.3
0.4943	11500	1019.9	3.3
0.4943	12000	1020.2	3.3
0.4943	12500	1020.5	3.3
0.4943	13000	1020.8	3.3
0.4943	13500	1021.1	3.3
0.4943	14000	1021.4	3.3
0.4943	14500	1021.7	3.3
0.4943	15000	1022	3.3
0.4943	15500	1022.3	3.3
0.4943	16000	1022.6	3.3
0.4943	16500	1022.9	3.3
0.4943	17000	1023.2	3.3
0.4943	17500	1023.5	3.3
0.4943	18000	1023.8	3.3
0.4943	18500	1024	3.3
0.4943	19000	1024.3	3.3
0.4943	19500	1024.7	3.3
0.4943	20000	1025	3.3
0.6007	100	998.8	3.3
0.6007	500	999	3.3
0.6007	1000	999.3	3.3
0.6007	1500	999.6	3.3
0.6007	2000	1000	3.3
0.6007	2500	1000.3	3.3
0.6007	3000	1000.6	3.3
0.6007	3500	1001	3.3
0.6007	4000	1001.4	3.3
0.6007	4500	1001.6	3.3
0.6007	5000	1002	3.3
0.6007	5500	1002.3	3.3
0.6007	6000	1002.6	3.4
0.6007	6500	1002.9	3.3
0.6007	7000	1003.3	3.4
0.6007	7500	1003.6	3.3
0.6007	8000	1003.9	3.3
0.6007	8500	1004.2	3.4
0.6007	9000	1004.5	3.3
0.6007	9500	1004.8	3.4
0.6007	10000	1005.2	3.4
0.6007	10500	1005.5	3.4
0.6007	11000	1005.8	3.4
0.6007	11500	1006.1	3.4
0.6007	12000	1006.5	3.4
0.6007	12500	1006.7	3.4
0.6007	13000	1007	3.4
0.6007	13500	1007.4	3.4
0.6007	14000	1007.6	3.4
0.6007	14500	1008	3.4
0.6007	15000	1008.2	3.4
0.6007	15500	1008.6	3.4
0.6007	16000	1009	3.4
0.6007	16500	1009.3	3.4
0.6007	17000	1009.6	3.4
0.6007	17500	1009.9	3.4
0.6007	18000	1010.2	3.4
0.6007	18500	1010.5	3.4
0.6007	19000	1010.9	3.4
0.6007	19500	1011.2	3.4
0.6007	20000	1011.5	3.4
0.7006	100	985.3	3.5
0.7006	500	985.6	3.5
0.7006	1000	985.9	3.5
0.7006	1500	986.2	3.5
0.7006	2000	986.5	3.5
0.7006	2500	987	3.5
0.7006	3000	987.2	3.5
0.7006	3500	987.6	3.5
0.7006	4000	987.9	3.5
0.7006	4500	988.2	3.5
0.7006	5000	988.5	3.5
0.7006	5500	988.9	3.5
0.7006	6000	989.1	3.5
0.7006	6500	989.5	3.5
0.7006	7000	989.7	3.5
0.7006	7500	990.1	3.5
0.7006	8000	990.4	3.5
0.7006	8500	990.6	3.5
0.7006	9000	991	3.5
0.7006	9500	991.2	3.5
0.7006	10000	991.6	3.5
0.7006	10500	992	3.5
0.7006	11000	992.3	3.9
0.7006	11500	992.6	3.5
0.7006	12000	992.9	3.5
0.7006	12500	993.2	3.5
0.7006	13000	993.5	3.5
0.7006	13500	993.8	3.5
0.7006	14000	994.1	3.5
0.7006	14500	994.4	3.5
0.7006	15000	994.7	3.5
0.7006	15500	995	3.5
0.7006	16000	995.3	3.5
0.7006	16500	995.6	3.5
0.7006	17000	995.9	3.5
0.7006	17400	996.2	3.5
0.7006	18000	996.5	3.5
0.7006	18500	996.9	3.5
0.7006	19000	997.1	3.5
0.7006	19500	997.4	3.5
0.7006	19900	997.6	3.5
0.8012	100	970.4	3.7
0.8012	500	970.7	3.7
0.8012	1000	971	3.7
0.8012	1500	971.3	3.7
0.8012	2000	971.6	3.7
0.8012	2500	972	3.7
0.8012	3000	972.3	3.7
0.8012	3500	972.6	3.7
0.8012	4000	972.9	3.7
0.8012	4500	973.2	3.7
0.8012	5000	973.5	3.7
0.8012	5500	973.8	3.7
0.8012	6000	974.2	3.7
0.8012	6500	974.4	3.7
0.8012	7000	974.7	3.7
0.8012	7500	975	3.7
0.8012	8000	975.4	3.7
0.8012	8500	975.7	3.7
0.8012	9000	976	3.7
0.8012	9500	976.3	3.7
0.8012	10000	976.7	3.7
0.8012	10500	977	3.8
0.8012	11000	973	3.8
0.8012	11500	977.6	3.7
0.8012	12000	977.9	3.7
0.8012	12500	978.2	3.7
0.8012	13000	978.5	3.7
0.8012	13500	978.7	3.8
0.8012	14000	979	3.8
0.8012	14500	979.4	3.8
0.8012	15000	979.6	3.8
0.8012	15500	980	3.8
0.8012	16000	980.2	3.8
0.8012	16400	980.5	3.8
0.8012	17000	980.8	3.8
0.8012	17500	981.1	3.8
0.8012	18000	981.4	3.8
0.8012	18500	981.6	3.8
0.8012	19000	982	3.8
0.8012	19500	982.3	3.8
0.8012	20000	982.6	3.8
0.8994	100	954.6	3.8
0.8994	500	954.8	3.8
0.8994	1000	955.1	3.8
0.8994	1500	955.4	3.8
0.8994	2000	955.7	3.8
0.8994	2500	956.1	3.8
0.8994	3000	956.4	3.8
0.8994	3500	956.6	3.8
0.8994	4000	957	3.9
0.8994	4500	957.2	3.8
0.8994	5000	957.6	3.8
0.8994	5500	957.9	3.8
0.8994	6000	958.2	3.9
0.8994	6500	958.5	3.8
0.8994	7000	958.8	3.8
0.8994	7500	959	3.8
0.8994	8000	959.4	3.9
0.8994	8500	959.7	3.9
0.8994	9000	960	3.9
0.8994	9500	960.3	3.9
0.8994	10000	960.6	3.9
0.8994	10500	960.9	3.9
0.8994	11000	961.2	3.2
0.8994	11400	961.5	3.9
0.8994	12000	961.8	3.9
0.8994	12500	962.1	3.9
0.8994	13000	962.4	3.9
0.8994	13500	962.6	3.9
0.8994	14000	963	3.9
0.8994	14500	963.2	3.9
0.8994	15000	963.4	3.9
0.8994	15500	963.8	3.9
0.8994	16000	964	3.9
0.8994	16500	964.3	2.8
0.8994	17000	964.6	3.9
0.8994	17500	964.9	3.9
0.8994	18000	965.2	3.9
0.8994	18500	965.4	3.9
0.8994	19000	965.7	3.9
0.8994	19500	966	3.9
0.8994	20000	966.4	3.9
