Measured thermophysical data. Solubility of Irbesartan Form B in an Aqueous Ethanol Mixture
Source: J. Chem. Eng. Data, 2008, 10.1021/je700627z
Compound 1: irbesartan, C25H28N6O, InChI=1S/C25H28N6O/c1-2-3-10-22-26-25(15-6-7-16-25)24(32)31(22)17-18-11-13-19(14-12-18)20-8-4-5-9-21(20)23-27-29-30-28-23/h4-5,8-9,11-14H,2-3,6-7,10,15-17H2,1H3,(H,27,28,29,30)
Compound 2: ethanol, C2H6O, InChI=1S/C2H6O/c1-2-3/h3H,2H2,1H3
Compound 3: water, H2O, InChI=1S/H2O/h1H2

System: ethanol + water + irbesartan; phases: Liquid, Crystal
Fixed: Pressure, kPa = 101
Property: Mole fraction of irbesartan (Liquid); method: laser monitoring technique
Temperature, K	Solvent: Mole fraction of ethanol	Mole fraction of irbesartan	uncertainty
283.15	0.317	1.028e-05	1.13e-06
283.15	0.4192	2.002e-05	2.11e-06
283.15	0.5531	2.46e-05	2.57e-06
283.15	0.7357	3.845e-05	3.99e-06
288.15	0.317	1.239e-05	1.34e-06
288.15	0.4192	2.295e-05	2.42e-06
288.15	0.5531	2.771e-05	2.91e-06
288.15	0.7357	4.771e-05	4.99e-06
293.15	0.2363	7.498e-06	8.43e-07
293.15	0.317	1.645e-05	1.79e-06
293.15	0.4192	3.293e-05	3.47e-06
293.15	0.5531	3.964e-05	4.15e-06
293.15	0.7357	6.27e-05	6.53e-06
298.15	0.2363	9.994e-06	1.12e-06
298.15	0.317	2.133e-05	2.33e-06
298.15	0.4192	4.255e-05	4.5e-06
298.15	0.5531	5.743e-05	6.01e-06
298.15	0.7357	8.555e-05	8.89e-06
303.15	0.2363	1.118e-05	1.3e-06
303.15	0.317	2.999e-05	3.27e-06
303.15	0.4192	5.653e-05	5.99e-06
303.15	0.5531	8.345e-05	8.72e-06
303.15	0.7357	0.0001163	1.21e-05
308.15	0.2363	1.672e-05	1.91e-06
308.15	0.317	4.05e-05	4.39e-06
308.15	0.4192	7.354e-05	7.8e-06
308.15	0.5531	0.0001105	1.16e-05
308.15	0.7357	0.0001559	1.61e-05
313.15	0.2363	2.346e-05	2.7e-06
313.15	0.317	5.74e-05	6.19e-06
313.15	0.4192	9.572e-05	1.014e-05
313.15	0.5531	0.0001452	1.52e-05
313.15	0.7357	0.0002003	2.07e-05
318.15	0.2363	2.958e-05	3.38e-06
318.15	0.317	7.185e-05	7.75e-06
318.15	0.4192	0.0001197	1.27e-05
318.15	0.5531	0.0001922	2.01e-05
318.15	0.7357	0.0002599	2.69e-05
323.15	0.2363	3.936e-05	4.55e-06
323.15	0.317	9.804e-05	1.057e-05
323.15	0.4192	0.0001598	1.7e-05
323.15	0.5531	0.0002559	2.67e-05
323.15	0.7357	0.000332	3.43e-05
328.15	0.2363	4.581e-05	5.4e-06
328.15	0.317	0.0001265	1.36e-05
328.15	0.4192	0.0001977	2.1e-05
328.15	0.5531	0.000334	3.48e-05
328.15	0.7357	0.0004201	4.34e-05
333.15	0.2363	5.778e-05	6.87e-06
333.15	0.317	0.0001618	1.74e-05
333.15	0.4192	0.0002563	2.72e-05
333.15	0.5531	0.000425	4.43e-05
333.15	0.7357	0.0005357	5.53e-05
