Measured thermophysical data. Vapor-Liquid Equilibria for the 1,1,1,2-Tetrafluoroethane (HFC-134a) + n-Butane (R-600) System
Source: J. Chem. Eng. Data, 2007, 10.1021/je700041v
Compound 1: 1,1,1,2-tetrafluoroethane, C2H2F4, InChI=1S/C2H2F4/c3-1-2(4,5)6/h1H2, purity 99.98%
Compound 2: butane, C4H10, InChI=1S/C4H10/c1-3-4-2/h3-4H2,1-2H3, purity 99.5%

System: 1,1,1,2-tetrafluoroethane; phases: Liquid, Gas
Property: Vapor or sublimation pressure, kPa (Liquid); method: EBULLIO:UFactor:4
Temperature, K	Vapor or sublimation pressure, kPa	uncertainty
273.15	292.8	4.7
283.15	414.6	6.6
293.15	572	9
303.15	770.2	12.1
313.15	1013.6	15.9
323.15	1312.8	20.5

System: butane; phases: Liquid, Gas
Property: Vapor or sublimation pressure, kPa (Liquid); method: EBULLIO:UFactor:4
Temperature, K	Vapor or sublimation pressure, kPa	uncertainty
273.15	103.4	2.6
283.15	149	3
293.15	208.3	3.7
303.15	284	4.6
313.15	378.1	6
323.15	493.1	7.8

System: butane + 1,1,1,2-tetrafluoroethane; phases: Liquid, Gas
Property: Azeotropic pressure, kPa (Liquid); method: PX:UFactor:2
Temperature, K	Azeotropic pressure, kPa	uncertainty
273.15	331	4.4
283.15	459	5.9
293.15	620.9	7.9
303.15	824.9	10.3
313.15	1073.7	13.3
323.15	1381	17

System: butane + 1,1,1,2-tetrafluoroethane; phases: Liquid, Gas
Property: Azeotropic composition: mole fraction of 1,1,1,2-tetrafluoroethane (Liquid); method: By T or P extreme
Temperature, K	Azeotropic composition: mole fraction of 1,1,1,2-tetrafluoroethane	uncertainty
273.15	0.793	0.004
283.15	0.8	0.0034
293.15	0.8049	0.0033
303.15	0.8127	0.0032
313.15	0.818	0.0032
323.15	0.823	0.0031

System: butane + 1,1,1,2-tetrafluoroethane; phases: Liquid, Gas
Property: Vapor or sublimation pressure, kPa (Liquid); method: EBULLIO:UFactor:4
Mole fraction of 1,1,1,2-tetrafluoroethane	Temperature, K	Vapor or sublimation pressure, kPa	uncertainty
0	273.15	103.4	2.6
0	283.15	149	3
0	293.15	208.3	3.7
0	303.15	284	4.6
0	313.15	378.1	6
0	323.15	493.1	7.8
0.0339	323.15	642.8	10.1
0.0414	313.15	526	8.3
0.0425	273.15	176.8	3.3
0.0438	303.15	415.3	6.6
0.0457	293.15	321.1	5.1
0.054	283.15	252.2	4.2
0.0718	283.15	275.2	4.5
0.0798	293.15	376.4	6
0.1023	273.15	229.7	3.9
0.1066	283.15	312	5
0.1149	323.15	862.8	13.5
0.1228	313.15	701.2	11
0.1326	303.15	568.9	9
0.1863	293.15	482.8	7.7
0.1976	273.15	275	4.5
0.2181	283.15	379.7	6
0.2249	323.15	1055.4	16.5
0.2337	313.15	848.8	13.3
0.2342	303.15	668.6	10.5
0.301	293.15	541	8.6
0.3265	273.15	302.4	4.9
0.3349	323.15	1171.8	18.3
0.3415	283.15	418	6.6
0.3481	313.15	937.8	14.7
0.3589	303.15	736.4	11.6
0.4032	293.15	574.5	9.1
0.4385	273.15	313.7	5
0.4466	283.15	435.8	6.9
0.4484	323.15	1254.6	19.6
0.4577	303.15	770	12.1
0.4668	313.15	994.6	15.6
0.4977	293.15	594	9.4
0.5359	303.15	789.4	12.4
0.5449	323.15	1305.6	20.4
0.5501	273.15	323.9	5.2
0.5522	313.15	1024.6	16
0.5594	283.15	447.8	7.1
0.5847	293.15	606.2	9.6
0.6203	303.15	804.4	12.6
0.6313	323.15	1338	20.9
0.6342	313.15	1047.6	16.4
0.6399	273.15	327.8	5.2
0.6443	283.15	451.3	7.2
0.6833	293.15	618	9.7
0.7022	303.15	816.4	12.8
0.7239	313.15	1065	16.7
0.7299	323.15	1364.6	21.3
0.7454	283.15	452.6	7.2
0.7671	273.15	329.6	5.3
0.7719	293.15	620.2	9.8
0.7732	323.15	1370.4	21.4
0.7771	303.15	822.4	12.9
0.7779	283.15	456	7.2
0.7842	313.15	1071.6	16.8
0.7999	273.15	330	5.3
0.8051	293.15	620.8	9.8
0.8073	323.15	1376.2	21.5
0.8089	313.15	1073.4	16.8
0.812	303.15	824.8	12.9
0.8132	283.15	458	7.3
0.8303	273.15	328.4	5.2
0.8309	313.15	1073.6	16.8
0.8327	293.15	620.6	9.8
0.8352	323.15	1380	21.5
0.8384	303.15	824.4	12.9
0.8416	283.15	457.2	7.2
0.8626	273.15	325.4	5.2
0.8864	283.15	454.6	7.2
0.8881	293.15	619.2	9.8
0.8912	313.15	1068.6	16.7
0.8948	273.15	323.5	5.2
0.899	303.15	818.2	12.8
0.9035	323.15	1367	21.3
0.9467	293.15	611	9.6
0.9483	273.15	317.6	5.1
0.9485	283.15	445.3	7.1
0.9492	323.15	1349.6	21.1
0.9502	313.15	1042.8	16.3
0.9553	303.15	802.6	12.6
1	273.15	292.8	4.7
1	283.15	414.6	6.6
1	293.15	572	9
1	303.15	770.2	12.1
1	313.15	1013.6	15.9
1	323.15	1312.8	20.5

System: butane + 1,1,1,2-tetrafluoroethane; phases: Gas, Liquid
Property: Mole fraction of 1,1,1,2-tetrafluoroethane (Gas); method: Chromatography
Mole fraction of 1,1,1,2-tetrafluoroethane	Temperature, K	Mole fraction of 1,1,1,2-tetrafluoroethane	uncertainty
0	273.15	0	0.0001
0	283.15	0	0.0001
0	293.15	0	0.0001
0	303.15	0	0.0001
0	313.15	0	0.0001
0	323.15	0	0.0001
0.0339	323.15	0.2064	0.0025
0.0414	313.15	0.2535	0.0031
0.0425	273.15	0.3113	0.0038
0.0438	303.15	0.2572	0.0031
0.0457	293.15	0.2625	0.0032
0.054	283.15	0.3164	0.0039
0.0718	283.15	0.3874	0.0047
0.0798	293.15	0.3881	0.0048
0.1023	273.15	0.4747	0.0058
0.1066	283.15	0.4634	0.0057
0.1149	323.15	0.4047	0.005
0.1228	313.15	0.4399	0.0054
0.1326	303.15	0.4823	0.0059
0.1863	293.15	0.5369	0.0057
0.1976	273.15	0.5776	0.0052
0.2181	283.15	0.5824	0.0051
0.2249	323.15	0.5352	0.0057
0.2337	313.15	0.5657	0.0053
0.2342	303.15	0.5797	0.0052
0.301	293.15	0.6148	0.0047
0.3265	273.15	0.6456	0.0043
0.3349	323.15	0.6103	0.0048
0.3415	283.15	0.6532	0.0042
0.3481	313.15	0.6287	0.0046
0.3589	303.15	0.6381	0.0044
0.4032	293.15	0.6536	0.0042
0.4385	273.15	0.6669	0.0041
0.4466	283.15	0.7068	0.0036
0.4484	323.15	0.6604	0.0042
0.4577	303.15	0.6749	0.004
0.4668	313.15	0.6758	0.004
0.4977	293.15	0.6842	0.0039
0.5359	303.15	0.7014	0.0036
0.5449	323.15	0.6986	0.0037
0.5501	273.15	0.7058	0.0036
0.5522	313.15	0.7081	0.0036
0.5594	283.15	0.7241	0.0034
0.5847	293.15	0.7155	0.0035
0.6203	303.15	0.7295	0.0033
0.6313	323.15	0.7301	0.0033
0.6342	313.15	0.7389	0.0032
0.6399	273.15	0.7342	0.0032
0.6443	283.15	0.7344	0.0032
0.6833	293.15	0.7495	0.0031
0.7022	303.15	0.7587	0.0029
0.7239	313.15	0.7732	0.0028
0.7299	323.15	0.7736	0.0028
0.7454	283.15	0.7737	0.0028
0.7671	273.15	0.7781	0.0027
0.7719	293.15	0.7881	0.0026
0.7732	323.15	0.796	0.0025
0.7771	303.15	0.7939	0.0025
0.7779	283.15	0.7874	0.0026
0.7842	313.15	0.8004	0.0024
0.7999	273.15	0.7936	0.0025
0.8051	293.15	0.805	0.0024
0.8073	323.15	0.8157	0.0022
0.8089	313.15	0.8146	0.0022
0.812	303.15	0.8126	0.0023
0.8132	283.15	0.803	0.0024
0.8303	273.15	0.8034	0.0024
0.8309	313.15	0.8281	0.0021
0.8327	293.15	0.8207	0.0022
0.8352	323.15	0.8338	0.002
0.8384	303.15	0.8305	0.0021
0.8416	283.15	0.8203	0.0022
0.8626	273.15	0.8261	0.0021
0.8864	283.15	0.8516	0.0018
0.8881	293.15	0.8588	0.0017
0.8912	313.15	0.8729	0.0015
0.8948	273.15	0.85	0.0018
0.899	303.15	0.8716	0.0016
0.9035	323.15	0.8865	0.0014
0.9467	293.15	0.9163	0.001
0.9483	273.15	0.9061	0.0011
0.9485	283.15	0.9139	0.001
0.9492	323.15	0.9308	0.0008
0.9502	313.15	0.931	0.0008
0.9553	303.15	0.9311	0.0008
1	273.15	1	0.0001
1	283.15	1	0.0001
1	293.15	1	0.0001
1	303.15	1	0.0001
1	313.15	1	0.0001
1	323.15	1	0.0001
