Measured thermophysical data. Measurement and Calculation of Solubilities in the Ternary System NaCH3COO + NaCl + H2O from 278 K to 323 K
Source: J. Chem. Eng. Data, 2007, 10.1021/je7001495
Compound 1: sodium ethanoate, C2H3NaO2, InChI=1S/C2H4O2.Na/c1-2(3)4;/h1H3,(H,3,4);/q;+1/p-1
Compound 2: sodium chloride, ClNa, InChI=1S/ClH.Na/h1H;/q;+1/p-1
Compound 3: water, H2O, InChI=1S/H2O/h1H2

System: sodium ethanoate + water; phases: Liquid, Crystal
Property: Molality, mol/kg (Liquid); method: potentiometric titration
Temperature, K	Pressure, kPa	Molality, mol/kg	uncertainty
333.15	101	17	0.7

System: sodium ethanoate + water; phases: Liquid, Crystal of intercomponent compound 1
Fixed: Pressure, kPa = 101
Property: Molality, mol/kg (Liquid); method: potentiometric titration
Temperature, K	Molality, mol/kg	uncertainty
278.15	4.74	0.11
298.15	6.21	0.08
313.15	7.71	0.15
323.15	10.7	0.2
328.15	12.5	0.4

System: sodium ethanoate + sodium chloride + water; phases: Liquid, Crystal, Crystal of intercomponent compound 1
Fixed: Pressure, kPa = 101
Property: Molality, mol/kg of sodium ethanoate (Liquid); method: potentiometric titration
Temperature, K	Molality, mol/kg of sodium ethanoate	uncertainty
278.15	3.1	0.02
278.15	3.11	0.02
278.15	3.1	0.04
298.15	4.93	0.04
298.15	4.95	0.04
323.15	10.01	0.15
323.15	9.92	0.15

System: sodium ethanoate + sodium chloride + water; phases: Liquid, Crystal of intercomponent compound 1, Crystal
Fixed: Pressure, kPa = 101
Property: Molality, mol/kg of sodium chloride (Liquid); method: potentiometric titration
Temperature, K	Molality, mol/kg of sodium chloride	uncertainty
278.15	3.88	0.06
278.15	3.91	0.09
278.15	3.89	0.08
298.15	2.99	0.07
298.15	2.98	0.02
323.15	1.54	0.02
323.15	1.55	0.02

System: sodium ethanoate + sodium chloride + water; phases: Liquid, Crystal of intercomponent compound 1
Fixed: Pressure, kPa = 101
Property: Molality, mol/kg of sodium ethanoate (Liquid); method: potentiometric titration
Temperature, K	Molality, mol/kg of sodium chloride	Molality, mol/kg of sodium ethanoate	uncertainty
278.15	1.03	4.26	0.04
278.15	2.03	3.81	0.03
278.15	2.26	3.71	0.06
298.15	0.644	5.96	0.04
298.15	2.47	5.14	0.04
323.15	0.774	10.12	0.13

System: sodium ethanoate + sodium chloride + water; phases: Liquid, Crystal
Fixed: Pressure, kPa = 101
Property: Molality, mol/kg of sodium chloride (Liquid); method: potentiometric titration
Temperature, K	Molality, mol/kg of sodium ethanoate	Molality, mol/kg of sodium chloride	uncertainty
278.15	1.02	5.37	0.11
278.15	2.05	4.61	0.09
298.15	1.02	5.47	0.13
298.15	2.02	4.69	0.09
298.15	3.01	4	0.2
298.15	4.67	3.15	0.07
323.15	1.01	5.73	0.21
323.15	2.05	5.07	0.22
323.15	3.07	4.33	0.15
323.15	5.07	3.24	0.13
323.15	7.16	2.38	0.06
