Measured thermophysical data. Standard Molar Enthalpies of Formation and Thermal Stabilities of Artemisinin and Its Two Derivatives: Artemether and Artesunate
Source: J. Chem. Eng. Data, 2007, 10.1021/je7000039
Compound 1: carbon dioxide, CO2, InChI=1S/CO2/c2-1-3
Compound 2: water, H2O, InChI=1S/H2O/h1H2
Compound 3: oxygen, O2, InChI=1S/O2/c1-2
Compound 4: artemisinin, C15H22O5, InChI=1S/C15H22O5/c1-8-4-5-11-9(2)12(16)17-13-15(11)10(8)6-7-14(3,18-13)19-20-15/h8-11,13H,4-7H2,1-3H3/t8-,9-,10+,11+,13-,14-,15-/m1/s1, purity 99.5%
Compound 5: beta-artemether, C16H26O5, InChI=1S/C16H26O5/c1-9-5-6-12-10(2)13(17-4)18-14-16(12)11(9)7-8-15(3,19-14)20-21-16/h9-14H,5-8H2,1-4H3/t9-,10-,11+,12+,13+,14-,15-,16-/m1/s1, purity 99.5%
Compound 6: artesunate, C19H28O8, InChI=1S/C19H28O8/c1-10-4-5-13-11(2)16(23-15(22)7-6-14(20)21)24-17-19(13)12(10)8-9-18(3,25-17)26-27-19/h10-13,16-17H,4-9H2,1-3H3,(H,20,21)/t10-,11-,12+,13+,16-,17-,18-,19-/m1/s1, purity 99.5%

System: artemisinin; phases: Crystal, Liquid, Air at 1 atmosphere
Property: Normal melting temperature, K (Crystal); method: DTA
Normal melting temperature, K	uncertainty
421.43	0.5

System: beta-artemether; phases: Crystal, Liquid, Air at 1 atmosphere
Property: Normal melting temperature, K (Crystal); method: DTA
Normal melting temperature, K	uncertainty
357.13	0.5

System: artesunate; phases: Crystal, Liquid, Air at 1 atmosphere
Property: Normal melting temperature, K (Crystal); method: DTA
Normal melting temperature, K	uncertainty
412.81	0.5

Reaction: -1 artemisinin + 15 carbon dioxide + 11 water + -18 oxygen
Property: Molar internal energy of reaction at constant volume, kJ/mol
-7546.53

Reaction: -1 beta-artemether + 16 carbon dioxide + 13 water + -20 oxygen
Property: Molar internal energy of reaction at constant volume, kJ/mol
-7582.28

Reaction: -1 artesunate + 19 carbon dioxide + 14 water + -22 oxygen
Property: Molar internal energy of reaction at constant volume, kJ/mol
-8150.75
