Measured thermophysical data. Liquid-Liquid Equilibrium for the Quaternary System Water + Tetrahydrofuran + Toluene + 1-Butanol Mixture at 25 deg C and Atmospheric Pressure
Source: J. Chem. Eng. Data, 2008, 10.1021/je700289p
Compound 1: water, H2O, InChI=1S/H2O/h1H2
Compound 2: tetrahydrofuran, C4H8O, InChI=1S/C4H8O/c1-2-4-5-3-1/h1-4H2
Compound 3: toluene, C7H8, InChI=1S/C7H8/c1-7-5-3-2-4-6-7/h2-6H,1H3
Compound 4: butan-1-ol, C4H10O, InChI=1S/C4H10O/c1-2-3-4-5/h5H,2-4H2,1H3

System: toluene + tetrahydrofuran + water; phases: Liquid mixture 1, Liquid mixture 2
Fixed: Temperature, K = 298.15
Fixed: Pressure, kPa = 101
Property: Mass fraction of tetrahydrofuran (Liquid mixture 1); method: Titration method
Mass fraction of water	Mass fraction of tetrahydrofuran	uncertainty
0.0003	0	0.0001
0.0057	0.4495	0.018
0.0113	0.502	0.0199
0.0317	0.6896	0.0124
0.072	0.7859	0.0086
0.1561	0.7851	0.0086
0.2098	0.7486	0.0101
0.3293	0.6462	0.0142
0.4378	0.5467	0.0181
0.5195	0.4685	0.0187
0.62	0.37	0.0148
0.732	0.26	0.0104
0.826	0.17	0.0068
0.918	0.08	0.0032
0.9995	0	0.0001

System: toluene + tetrahydrofuran + water; phases: Liquid mixture 1, Liquid mixture 2
Fixed: Temperature, K = 298.15
Fixed: Pressure, kPa = 101
Property: Mass fraction of water (Liquid mixture 1); method: Chromatography
Property: Mass fraction of water (Liquid mixture 2); method: Chromatography
Property: Mass fraction of tetrahydrofuran (Liquid mixture 2); method: Chromatography
Mass fraction of tetrahydrofuran	Mass fraction of water	uncertainty	Mass fraction of water	uncertainty	Mass fraction of tetrahydrofuran	uncertainty
0.0895	0.0016	0.0001	0.9923	0.0001	0.0072	
0.2478	0.0027	0.0001	0.9775	0.0002	0.022	
0.3851	0.0057	0.0001	0.9629	0.0004	0.0366	
0.4998	0.0145	0.0002	0.9494	0.0005	0.0501	
0.5961	0.0225	0.0002	0.9366	0.0006	0.0629	
0.6824	0.0331	0.0003	0.9258	0.0007	0.0737	
0.7461	0.0521	0.0005	0.9177	0.0008	0.0819	
0.7899	0.0765	0.0008	0.9089	0.0009	0.0906	

System: butan-1-ol + tetrahydrofuran + water; phases: Liquid mixture 1, Liquid mixture 2
Fixed: Temperature, K = 298.15
Fixed: Pressure, kPa = 101
Property: Mass fraction of tetrahydrofuran (Liquid mixture 1); method: Titration method
Mass fraction of water	Mass fraction of tetrahydrofuran	uncertainty
0.1983	0	0.0001
0.211	0.0784	0.0031
0.2271	0.1397	0.0056
0.2682	0.2241	0.009
0.3086	0.2754	0.011
0.3346	0.2899	0.0116
0.3643	0.298	0.0119
0.3995	0.2992	0.012
0.4636	0.2894	0.0116
0.5026	0.2802	0.0112
0.5751	0.2564	0.0103
0.66	0.2246	0.009
0.7723	0.1624	0.0065
0.8857	0.0786	0.0031
0.9294	0	0.0001

System: butan-1-ol + tetrahydrofuran + water; phases: Liquid mixture 1, Liquid mixture 2
Fixed: Pressure, kPa = 101
Fixed: Temperature, K = 298.15
Property: Mass fraction of water (Liquid mixture 1); method: Chromatography
Property: Mass fraction of water (Liquid mixture 2); method: Chromatography
Property: Mass fraction of tetrahydrofuran (Liquid mixture 2); method: Chromatography
Mass fraction of tetrahydrofuran	Mass fraction of water	uncertainty	Mass fraction of water	uncertainty	Mass fraction of tetrahydrofuran	uncertainty
0.0724	0.2115	0.0021	0.9192	0.0008	0.0124	
0.1388	0.2267	0.0023	0.913	0.0009	0.026	
0.1915	0.2524	0.0025	0.9075	0.0009	0.0335	
0.2401	0.2754	0.0028	0.9021	0.001	0.0434	
0.2759	0.3091	0.0031	0.8985	0.001	0.0514	
0.297	0.3567	0.0036	0.8952	0.001	0.059	

System: butan-1-ol + toluene + water; phases: Liquid mixture 2, Liquid mixture 1
Fixed: Temperature, K = 298.15
Fixed: Pressure, kPa = 101
Property: Mass fraction of toluene (Liquid mixture 2); method: Chromatography
Property: Mass fraction of water (Liquid mixture 1); method: Chromatography
Property: Mass fraction of toluene (Liquid mixture 1); method: Chromatography
Mass fraction of water	Mass fraction of toluene	uncertainty	Mass fraction of water	uncertainty	Mass fraction of toluene	uncertainty
0.9638	0.001	0.0001	0.0035	0.0001	0.9153	
0.9644	0.002	0.0001	0.014	0.0002	0.7409	
0.9623	0.0029	0.0001	0.0306	0.0003	0.589	
0.9491	0.0054	0.0001	0.0521	0.0005	0.4631	
0.9515	0.0005	0.0001	0.0871	0.0009	0.2944	

System: butan-1-ol + toluene + water; phases: Liquid mixture 1, Liquid mixture 2
Fixed: Temperature, K = 298.15
Fixed: Pressure, kPa = 101
Property: Mass fraction of toluene (Liquid mixture 1); method: TITR:UFactor:2
Mass fraction of water	Mass fraction of toluene	uncertainty
0	0.9986	0.0001
0.0035	0.9153	0.0068
0.0069	0.8261	0.0139
0.014	0.7409	0.0207
0.0219	0.6621	0.027
0.0306	0.589	0.0329
0.0413	0.5232	0.0381
0.0521	0.4631	0.037
0.0648	0.3981	0.0318
0.0731	0.3493	0.0279
0.0872	0.2944	0.0236
0.1007	0.2569	0.0206
0.1284	0.1801	0.0144
0.1544	0.1078	0.0086
0.1927	0	0.0001
