Measured thermophysical data. Measurements of Compressed Liquid Densities for CO2 (1) + Butan-1-ol (2) via a Vibrating Tube Densimeter at Temperatures from (313 to 363) K and Pressures up to 25 MPa
Source: J. Chem. Eng. Data, 2007, 10.1021/je700261b
Compound 1: carbon dioxide, CO2, InChI=1S/CO2/c2-1-3
Compound 2: butan-1-ol, C4H10O, InChI=1S/C4H10O/c1-2-3-4-5/h5H,2-4H2,1H3

System: butan-1-ol; phases: Liquid
Property: Mass density, kg/m3 (Liquid); method: VIBTUB:UFactor:2
Temperature, K	Pressure, kPa	Mass density, kg/m3	uncertainty
313.08	1006	795.22	0.46
313.08	2017	796.08	0.47
313.08	3007	796.85	0.47
313.08	4010	797.64	0.48
313.08	5016	798.44	0.49
313.08	6017	799.22	0.5
313.08	7011	800	0.5
313.08	8006	800.77	0.51
313.08	9019	801.53	0.52
313.08	10008	802.27	0.53
313.08	11014	803.01	0.54
313.08	12016	803.73	0.54
313.08	13016	804.46	0.55
313.08	14013	805.18	0.56
313.08	15010	805.91	0.57
313.08	16003	806.58	0.58
313.08	16999	807.29	0.59
313.08	17999	807.98	0.6
313.08	19024	808.67	0.61
313.08	20005	809.33	0.62
313.08	21013	810.09	0.62
313.08	22003	810.75	0.63
313.08	23024	811.41	0.64
313.08	24027	812.09	0.65
313.08	24234	812.21	0.65
323.05	999	787.38	0.46
323.05	2026	788.22	0.47
323.05	3007	789.03	0.48
323.05	4024	789.91	0.48
323.05	5012	790.75	0.49
323.05	6016	791.57	0.5
323.05	7023	792.4	0.51
323.05	8004	793.16	0.52
323.05	9009	793.98	0.53
323.05	10007	794.78	0.53
323.05	11004	795.57	0.54
323.05	11995	796.32	0.55
323.05	13007	797.09	0.56
323.05	14022	797.85	0.57
323.05	14989	798.63	0.58
323.05	16006	799.33	0.59
323.05	16998	800.1	0.6
323.05	18001	800.84	0.61
323.05	19025	801.56	0.62
323.05	19993	802.28	0.63
323.05	21032	803.06	0.64
323.05	22006	803.74	0.65
323.05	22993	804.41	0.66
323.05	24012	805.16	0.67
323.05	24418	805.43	0.67
332.93	1013	779.33	0.47
332.93	2026	780.27	0.47
332.93	3014	781.21	0.48
332.93	4006	782.04	0.49
332.93	5000	782.91	0.5
332.93	6013	783.78	0.51
332.93	6997	784.6	0.51
332.93	8003	785.5	0.52
332.93	9005	786.32	0.53
332.93	10001	787.17	0.54
332.93	10996	787.97	0.55
332.93	12003	788.8	0.56
332.93	12993	789.62	0.57
332.93	14001	790.38	0.58
332.93	15016	791.22	0.59
332.93	15998	791.96	0.6
332.93	16999	792.72	0.61
332.93	18009	793.53	0.62
332.93	18986	794.29	0.63
332.93	20043	795.08	0.64
332.93	21056	795.87	0.65
332.93	22040	796.59	0.66
332.93	23009	797.3	0.67
332.93	24001	798.04	0.68
332.93	24515	798.46	0.68
342.86	1026	770.92	0.47
342.86	2007	771.87	0.48
342.86	3003	772.85	0.49
342.86	4051	773.84	0.49
342.86	5008	774.72	0.5
342.86	6023	775.59	0.51
342.86	7010	776.55	0.52
342.86	8000	777.42	0.53
342.86	9001	778.28	0.54
342.86	10005	779.2	0.55
342.86	11006	780.06	0.56
342.86	12010	780.9	0.57
342.86	13033	781.77	0.58
342.86	14017	782.62	0.59
342.86	15001	783.45	0.6
342.86	16009	784.29	0.61
342.86	17016	785.14	0.62
342.86	17991	785.93	0.63
342.86	19023	786.79	0.64
342.86	19999	787.57	0.65
342.86	21000	788.37	0.66
342.86	22003	789.15	0.67
342.86	22989	789.91	0.68
342.86	24004	790.69	0.69
342.86	24621	791.2	0.7
352.79	1020	762.66	0.47
352.79	2014	763.68	0.48
352.79	3007	764.68	0.49
352.79	3998	765.67	0.5
352.79	4998	766.69	0.51
352.79	5997	767.68	0.52
352.79	7006	768.64	0.53
352.79	8005	769.61	0.54
352.79	9007	770.53	0.55
352.79	9997	771.44	0.56
352.79	11008	772.38	0.57
352.79	12000	773.26	0.58
352.79	13043	774.22	0.59
352.79	14002	775.11	0.6
352.79	15000	775.98	0.61
352.79	16000	776.85	0.62
352.79	16992	777.72	0.63
352.79	17988	778.56	0.64
352.79	18994	779.41	0.65
352.79	20012	780.22	0.66
352.79	21003	781.04	0.67
352.79	22010	781.87	0.69
352.79	22971	782.68	0.7
352.79	24021	783.49	0.71
352.79	24573	783.95	0.71
362.67	1043	753.5	0.48
362.67	2116	754.77	0.49
362.67	3026	755.74	0.5
362.67	4013	756.82	0.5
362.67	5024	757.87	0.51
362.67	6047	758.93	0.52
362.67	7014	759.93	0.53
362.67	8012	760.98	0.54
362.67	9025	762.03	0.56
362.67	10015	762.94	0.57
362.67	11002	763.92	0.58
362.67	12002	764.89	0.59
362.67	13011	765.86	0.6
362.67	14011	766.84	0.61
362.67	15014	767.7	0.62
362.67	16006	768.67	0.63
362.67	17009	769.58	0.64
362.67	18008	770.48	0.65
362.67	18993	771.37	0.67
362.67	19990	772.21	0.68
362.67	21007	773.1	0.69
362.67	21997	773.96	0.7
362.67	23014	774.89	0.71
362.67	24000	775.58	0.72
362.67	24563	776.12	0.73

System: butan-1-ol + carbon dioxide; phases: Liquid
Property: Mass density, kg/m3 (Liquid); method: VIBTUB:UFactor:2
Mole fraction of carbon dioxide	Temperature, K	Pressure, kPa	Mass density, kg/m3	uncertainty
0.0251	313.1	1008	798.08	0.46
0.0251	313.1	2011	798.9	0.47
0.0251	313.1	3006	799.7	0.47
0.0251	313.1	4012	800.54	0.48
0.0251	313.1	5008	801.32	0.49
0.0251	313.1	6013	802.14	0.49
0.0251	313.1	7004	802.94	0.5
0.0251	313.1	8023	803.75	0.51
0.0251	313.1	9037	804.53	0.52
0.0251	313.1	10005	805.29	0.52
0.0251	313.1	11011	806.08	0.53
0.0251	313.1	12018	806.83	0.54
0.0251	313.1	13003	807.56	0.55
0.0251	313.1	14007	808.31	0.56
0.0251	313.1	15009	809.03	0.57
0.0251	313.1	16004	809.77	0.58
0.0251	313.1	17005	810.49	0.58
0.0251	313.1	18019	811.19	0.59
0.0251	313.1	19019	811.89	0.6
0.0251	313.1	20020	812.59	0.61
0.0251	313.1	21027	813.29	0.62
0.0251	313.1	22005	813.97	0.63
0.0251	313.1	23011	814.69	0.64
0.0251	313.1	24004	815.36	0.65
0.0251	313.1	25028	816.1	0.65
0.0251	323.05	1017	789.88	0.46
0.0251	323.05	2015	790.73	0.47
0.0251	323.05	3003	791.59	0.48
0.0251	323.05	4007	792.48	0.48
0.0251	323.05	5026	793.33	0.49
0.0251	323.05	5975	794.14	0.5
0.0251	323.05	7085	795.08	0.51
0.0251	323.05	7991	795.85	0.52
0.0251	323.05	9003	796.68	0.52
0.0251	323.05	10032	797.56	0.53
0.0251	323.05	10996	798.32	0.54
0.0251	323.05	12028	799.15	0.55
0.0251	323.05	13030	799.93	0.56
0.0251	323.05	14030	800.72	0.57
0.0251	323.05	15018	801.45	0.58
0.0251	323.05	16017	802.24	0.59
0.0251	323.05	17014	802.97	0.59
0.0251	323.05	18025	803.71	0.6
0.0251	323.05	19034	804.49	0.61
0.0251	323.05	20052	805.21	0.62
0.0251	323.05	21014	805.95	0.63
0.0251	323.05	22027	806.68	0.64
0.0251	323.05	23002	807.38	0.65
0.0251	323.05	24035	808.13	0.66
0.0251	323.05	25023	808.84	0.67
0.0251	332.94	1010	781.57	0.46
0.0251	332.94	2077	782.55	0.47
0.0251	332.94	3046	783.47	0.48
0.0251	332.94	3990	784.3	0.49
0.0251	332.94	5002	785.22	0.5
0.0251	332.94	6026	786.15	0.5
0.0251	332.94	6975	786.98	0.51
0.0251	332.94	8009	787.91	0.52
0.0251	332.94	9084	788.83	0.53
0.0251	332.94	9985	789.62	0.54
0.0251	332.94	11024	790.52	0.55
0.0251	332.94	12040	791.34	0.56
0.0251	332.94	12968	792.12	0.57
0.0251	332.94	13994	792.95	0.58
0.0251	332.94	15041	793.85	0.59
0.0251	332.94	16061	794.54	0.6
0.0251	332.94	17001	795.37	0.61
0.0251	332.94	18031	796.18	0.62
0.0251	332.94	19042	796.95	0.63
0.0251	332.94	20027	797.73	0.63
0.0251	332.94	20987	798.46	0.64
0.0251	332.94	22013	799.22	0.65
0.0251	332.94	23023	800	0.66
0.0251	332.94	24078	800.8	0.67
0.0251	332.94	25033	801.51	0.68
0.0251	342.85	1014	772.92	0.47
0.0251	342.85	2013	773.93	0.48
0.0251	342.85	2982	774.9	0.48
0.0251	342.85	4039	775.94	0.49
0.0251	342.85	5057	776.91	0.5
0.0251	342.85	5993	777.79	0.51
0.0251	342.85	7067	778.78	0.52
0.0251	342.85	8025	779.69	0.53
0.0251	342.85	9013	780.6	0.54
0.0251	342.85	10012	781.51	0.55
0.0251	342.85	11010	782.43	0.56
0.0251	342.85	11969	783.27	0.57
0.0251	342.85	13080	784.23	0.58
0.0251	342.85	13925	784.95	0.59
0.0251	342.85	15055	785.93	0.6
0.0251	342.85	16002	786.72	0.61
0.0251	342.85	17016	787.57	0.62
0.0251	342.85	18007	788.39	0.63
0.0251	342.85	19019	789.22	0.64
0.0251	342.85	20027	790.06	0.65
0.0251	342.85	20996	790.82	0.66
0.0251	342.85	22019	791.65	0.67
0.0251	342.85	23034	792.46	0.68
0.0251	342.85	24052	793.28	0.69
0.0251	342.85	25090	794.07	0.7
0.0251	352.77	1022	763.98	0.47
0.0251	352.77	2029	765.11	0.48
0.0251	352.77	3006	766.15	0.49
0.0251	352.77	4015	767.17	0.5
0.0251	352.77	5041	768.25	0.51
0.0251	352.77	5988	769.24	0.52
0.0251	352.77	7026	770.25	0.53
0.0251	352.77	8000	771.2	0.54
0.0251	352.77	9059	772.24	0.55
0.0251	352.77	10017	773.14	0.56
0.0251	352.77	11016	774.17	0.57
0.0251	352.77	12004	775.04	0.58
0.0251	352.77	13003	775.95	0.59
0.0251	352.77	14039	776.91	0.6
0.0251	352.77	14988	777.75	0.61
0.0251	352.77	16084	778.74	0.62
0.0251	352.77	17004	779.54	0.63
0.0251	352.77	18003	780.41	0.64
0.0251	352.77	19004	781.28	0.65
0.0251	352.77	20007	782.15	0.66
0.0251	352.77	21029	783.01	0.67
0.0251	352.77	22044	783.86	0.68
0.0251	352.77	22995	784.65	0.69
0.0251	352.77	24056	785.52	0.7
0.0251	352.77	25098	786.41	0.72
0.0251	362.67	1053	755.01	0.48
0.0251	362.67	2066	756.19	0.49
0.0251	362.67	3045	757.27	0.49
0.0251	362.67	4013	758.36	0.5
0.0251	362.67	5068	759.49	0.51
0.0251	362.67	6009	760.49	0.52
0.0251	362.67	6988	761.58	0.53
0.0251	362.67	7985	762.59	0.54
0.0251	362.67	9006	763.64	0.55
0.0251	362.67	10031	764.7	0.56
0.0251	362.67	11027	765.69	0.58
0.0251	362.67	12000	766.65	0.59
0.0251	362.67	13054	767.68	0.6
0.0251	362.67	14008	768.61	0.61
0.0251	362.67	14993	769.57	0.62
0.0251	362.67	16000	770.52	0.63
0.0251	362.67	17046	771.48	0.64
0.0251	362.67	17989	772.34	0.65
0.0251	362.67	19009	773.27	0.66
0.0251	362.67	20045	774.19	0.67
0.0251	362.67	21017	775.08	0.69
0.0251	362.67	22075	775.99	0.7
0.0251	362.67	23006	776.82	0.71
0.0251	362.67	24007	777.69	0.72
0.0251	362.67	25062	778.61	0.73
0.0857	313.11	1990	802.76	0.46
0.0857	313.11	3001	803.63	0.47
0.0857	313.11	4009	804.54	0.48
0.0857	313.11	5013	805.41	0.48
0.0857	313.11	6014	806.27	0.49
0.0857	313.11	7009	807.15	0.5
0.0857	313.11	8011	807.98	0.51
0.0857	313.11	9009	808.79	0.51
0.0857	313.11	10011	809.65	0.52
0.0857	313.11	10994	810.46	0.53
0.0857	313.11	12007	811.26	0.54
0.0857	313.11	13022	812.06	0.54
0.0857	313.11	13999	812.83	0.55
0.0857	313.11	15014	813.63	0.56
0.0857	313.11	16013	814.38	0.57
0.0857	313.11	16994	815.12	0.58
0.0857	313.11	18005	815.89	0.59
0.0857	313.11	19008	816.61	0.59
0.0857	313.11	20010	817.4	0.6
0.0857	313.11	20990	818.09	0.61
0.0857	313.11	22028	818.85	0.62
0.0857	313.11	22900	819.47	0.63
0.0857	313.11	23996	820.3	0.64
0.0857	313.11	25047	821.11	0.65
0.0857	323.07	1981	794.04	0.47
0.0857	323.07	3013	795.05	0.47
0.0857	323.07	4009	795.99	0.48
0.0857	323.07	5021	796.91	0.49
0.0857	323.07	6010	797.83	0.5
0.0857	323.07	6995	798.74	0.5
0.0857	323.07	7985	799.59	0.51
0.0857	323.07	9047	800.55	0.52
0.0857	323.07	10028	801.4	0.53
0.0857	323.07	11003	802.22	0.54
0.0857	323.07	12005	803.07	0.55
0.0857	323.07	12995	803.91	0.55
0.0857	323.07	14273	805.01	0.56
0.0857	323.07	15019	805.58	0.57
0.0857	323.07	15998	806.41	0.58
0.0857	323.07	16977	807.17	0.59
0.0857	323.07	18030	808.01	0.6
0.0857	323.07	18995	808.74	0.61
0.0857	323.07	19987	809.54	0.61
0.0857	323.07	21040	810.38	0.62
0.0857	323.07	21992	811.09	0.63
0.0857	323.07	23011	811.87	0.64
0.0857	323.07	24000	812.6	0.65
0.0857	323.07	25007	813.42	0.66
0.0857	332.96	2025	785.34	0.47
0.0857	332.96	3025	786.35	0.48
0.0857	332.96	3995	787.3	0.49
0.0857	332.96	5006	788.3	0.49
0.0857	332.96	6029	789.27	0.5
0.0857	332.96	6996	790.2	0.51
0.0857	332.96	8001	791.2	0.52
0.0857	332.96	9060	792.17	0.53
0.0857	332.96	10005	793.04	0.54
0.0857	332.96	11020	793.96	0.55
0.0857	332.96	12043	794.89	0.55
0.0857	332.96	13021	795.74	0.56
0.0857	332.96	14023	796.64	0.57
0.0857	332.96	15013	797.55	0.58
0.0857	332.96	15989	798.3	0.59
0.0857	332.96	17015	799.17	0.6
0.0857	332.96	18001	799.98	0.61
0.0857	332.96	18996	800.8	0.62
0.0857	332.96	20012	801.65	0.63
0.0857	332.96	21010	802.47	0.64
0.0857	332.96	22025	803.27	0.65
0.0857	332.96	22983	804.05	0.66
0.0857	332.96	24061	804.91	0.67
0.0857	332.96	25000	805.68	0.67
0.0857	342.88	1975	776.2	0.48
0.0857	342.88	2955	777.28	0.48
0.0857	342.88	4033	778.42	0.49
0.0857	342.88	5015	779.45	0.5
0.0857	342.88	5957	780.4	0.51
0.0857	342.88	7027	781.49	0.52
0.0857	342.88	7999	782.5	0.53
0.0857	342.88	9007	783.51	0.54
0.0857	342.88	10003	784.47	0.54
0.0857	342.88	11007	785.43	0.55
0.0857	342.88	11951	786.34	0.56
0.0857	342.88	13010	787.34	0.57
0.0857	342.88	14012	788.24	0.58
0.0857	342.88	15065	789.2	0.59
0.0857	342.88	15994	790.07	0.6
0.0857	342.88	17007	790.98	0.61
0.0857	342.88	17999	791.83	0.62
0.0857	342.88	18990	792.72	0.63
0.0857	342.88	20029	793.58	0.64
0.0857	342.88	20993	794.43	0.65
0.0857	342.88	22004	795.26	0.66
0.0857	342.88	23039	796.17	0.67
0.0857	342.88	24019	796.97	0.68
0.0857	342.88	25064	797.88	0.69
0.0857	352.83	2007	766.96	0.48
0.0857	352.83	3023	768.13	0.49
0.0857	352.83	3953	769.18	0.5
0.0857	352.83	5008	770.34	0.51
0.0857	352.83	5991	771.43	0.51
0.0857	352.83	7011	772.54	0.52
0.0857	352.83	7992	773.57	0.53
0.0857	352.83	9016	774.63	0.54
0.0857	352.83	10033	775.71	0.55
0.0857	352.83	10983	776.62	0.56
0.0857	352.83	12020	777.74	0.57
0.0857	352.83	13038	778.75	0.58
0.0857	352.83	13990	779.64	0.59
0.0857	352.83	14986	780.63	0.6
0.0857	352.83	16028	781.61	0.61
0.0857	352.83	16995	782.54	0.62
0.0857	352.83	17994	783.45	0.63
0.0857	352.83	18991	784.4	0.64
0.0857	352.83	20014	785.33	0.66
0.0857	352.83	21017	786.18	0.67
0.0857	352.83	21993	787.09	0.68
0.0857	352.83	23041	788.01	0.69
0.0857	352.83	24037	788.92	0.7
0.0857	352.83	25058	789.81	0.71
0.0857	362.69	2045	757.33	0.49
0.0857	362.69	3006	758.53	0.49
0.0857	362.69	3982	759.72	0.5
0.0857	362.69	5010	760.91	0.51
0.0857	362.69	5976	762.09	0.52
0.0857	362.69	6994	763.25	0.53
0.0857	362.69	7999	764.42	0.54
0.0857	362.69	8998	765.51	0.55
0.0857	362.69	10048	766.67	0.56
0.0857	362.69	11028	767.74	0.57
0.0857	362.69	11999	768.75	0.58
0.0857	362.69	12994	769.85	0.59
0.0857	362.69	14018	770.91	0.6
0.0857	362.69	15014	771.91	0.62
0.0857	362.69	15995	772.93	0.63
0.0857	362.69	17061	773.98	0.64
0.0857	362.69	18008	774.96	0.65
0.0857	362.69	19008	775.88	0.66
0.0857	362.69	20060	776.81	0.67
0.0857	362.69	21044	777.83	0.68
0.0857	362.69	22045	778.82	0.69
0.0857	362.69	23036	779.68	0.7
0.0857	362.69	24037	780.65	0.71
0.0857	362.69	25015	781.57	0.72
0.1842	333.08	6035	792	0.5
0.1842	333.08	7047	793.11	0.51
0.1842	333.08	8021	794.16	0.52
0.1842	333.08	9035	795.25	0.53
0.1842	333.08	10030	796.3	0.53
0.1842	333.08	11057	797.37	0.54
0.1842	333.08	12025	798.41	0.55
0.1842	333.08	13041	799.39	0.56
0.1842	333.08	14034	800.34	0.57
0.1842	333.08	15074	801.36	0.58
0.1842	333.08	16022	802.27	0.59
0.1842	333.08	16957	803.2	0.59
0.1842	333.08	18103	804.27	0.6
0.1842	333.08	19053	805.14	0.61
0.1842	333.08	20044	806.03	0.62
0.1842	333.08	21090	807.01	0.63
0.1842	333.08	21974	807.82	0.64
0.1842	333.08	22960	808.7	0.65
0.1842	333.08	24014	809.64	0.66
0.1842	333.08	25045	810.58	0.67
0.1842	343	6024	782.23	0.51
0.1842	343	7050	783.43	0.52
0.1842	343	8037	784.59	0.53
0.1842	343	9052	785.73	0.53
0.1842	343	10057	786.87	0.54
0.1842	343	11053	787.96	0.55
0.1842	343	12027	789.03	0.56
0.1842	343	13076	790.12	0.57
0.1842	343	14026	791.16	0.58
0.1842	343	15081	792.24	0.59
0.1842	343	16028	793.21	0.6
0.1842	343	17031	794.24	0.61
0.1842	343	18020	795.22	0.62
0.1842	343	19009	796.2	0.63
0.1842	343	20030	797.2	0.64
0.1842	343	21066	798.2	0.65
0.1842	343	21978	799.07	0.65
0.1842	343	23062	800.09	0.66
0.1842	343	24031	801.02	0.67
0.1842	343	25044	801.97	0.68
0.1842	352.82	6041	772.14	0.52
0.1842	352.82	7041	773.4	0.52
0.1842	352.82	8024	774.6	0.53
0.1842	352.82	9042	775.87	0.54
0.1842	352.82	10044	777.07	0.55
0.1842	352.82	11026	778.23	0.56
0.1842	352.82	12073	779.44	0.57
0.1842	352.82	13001	780.49	0.58
0.1842	352.82	14050	781.67	0.59
0.1842	352.82	15000	782.72	0.6
0.1842	352.82	15999	783.84	0.61
0.1842	352.82	17008	784.88	0.62
0.1842	352.82	18066	786.01	0.63
0.1842	352.82	19002	787.01	0.64
0.1842	352.82	20015	788.03	0.65
0.1842	352.82	21043	789.11	0.66
0.1842	352.82	22025	790.1	0.67
0.1842	352.82	23024	791.11	0.68
0.1842	352.82	24015	792.1	0.69
0.1842	352.82	25100	793.18	0.7
0.1842	362.78	6018	761.83	0.52
0.1842	362.78	6995	763.16	0.53
0.1842	362.78	8099	764.64	0.54
0.1842	362.78	9002	765.81	0.55
0.1842	362.78	10022	767.06	0.56
0.1842	362.78	10995	768.34	0.57
0.1842	362.78	12059	769.68	0.58
0.1842	362.78	13056	770.87	0.59
0.1842	362.78	14029	772.05	0.6
0.1842	362.78	15026	773.24	0.61
0.1842	362.78	16010	774.38	0.62
0.1842	362.78	17020	775.53	0.63
0.1842	362.78	18041	776.68	0.65
0.1842	362.78	19031	777.79	0.66
0.1842	362.78	20045	778.9	0.67
0.4972	313.15	9101	830.36	0.5
0.4972	313.15	10085	831.83	0.51
0.4972	313.15	11056	833.28	0.51
0.4972	313.15	12062	834.75	0.52
0.4972	313.15	13043	836.14	0.52
0.4972	313.15	14050	837.54	0.53
0.4972	313.15	15053	838.9	0.53
0.4972	313.15	16037	840.22	0.54
0.4972	313.15	17055	841.56	0.55
0.4972	313.15	18037	842.85	0.55
0.4972	313.15	19023	844.11	0.56
0.4972	313.15	20041	845.39	0.56
0.4972	313.15	21003	846.61	0.57
0.4972	313.15	22068	847.91	0.57
0.4972	313.15	23079	849.14	0.58
0.4972	313.15	24016	850.27	0.59
0.4972	313.15	25033	851.48	0.59
0.4972	323.1	10109	818.96	0.52
0.4972	323.1	11078	820.55	0.52
0.4972	323.1	12051	822.08	0.53
0.4972	323.1	13049	823.64	0.53
0.4972	323.1	14053	825.18	0.54
0.4972	323.1	15041	826.62	0.55
0.4972	323.1	16058	828.14	0.55
0.4972	323.1	17051	829.54	0.56
0.4972	323.1	18061	830.96	0.57
0.4972	323.1	19022	832.33	0.57
0.4972	323.1	20021	833.69	0.58
0.4972	323.1	21047	835.06	0.59
0.4972	323.1	22036	836.36	0.59
0.4972	323.1	23045	837.69	0.6
0.4972	323.1	23996	838.91	0.6
0.4972	323.1	25012	840.21	0.61
0.4972	332.99	11100	807.58	0.53
0.4972	332.99	12062	809.21	0.54
0.4972	332.99	13082	810.88	0.55
0.4972	332.99	14115	812.58	0.56
0.4972	332.99	15061	814.12	0.56
0.4972	332.99	16035	815.66	0.57
0.4972	332.99	17108	817.32	0.58
0.4972	332.99	18040	818.75	0.58
0.4972	332.99	19036	820.22	0.59
0.4972	332.99	20051	821.73	0.6
0.4972	332.99	21048	823.17	0.6
0.4972	332.99	22048	824.6	0.61
0.4972	332.99	23047	826	0.62
0.4972	332.99	24018	827.36	0.62
0.4972	332.99	25056	828.77	0.63
0.4972	342.92	12062	795.68	0.56
0.4972	342.92	13090	797.59	0.56
0.4972	342.92	14017	799.27	0.57
0.4972	342.92	15047	801.1	0.58
0.4972	342.92	16026	802.79	0.59
0.4972	342.92	17041	804.51	0.59
0.4972	342.92	18053	806.18	0.6
0.4972	342.92	19028	807.77	0.61
0.4972	342.92	20046	809.4	0.62
0.4972	342.92	21062	810.98	0.62
0.4972	342.92	22043	812.48	0.63
0.4972	342.92	22996	813.92	0.64
0.4972	342.92	24003	815.43	0.65
0.4972	342.92	25073	816.99	0.65
0.4972	352.85	13091	783.81	0.58
0.4972	352.85	13958	785.52	0.59
0.4972	352.85	15066	787.67	0.6
0.4972	352.85	16029	789.49	0.61
0.4972	352.85	17077	791.44	0.61
0.4972	352.85	18031	793.15	0.62
0.4972	352.85	19033	794.93	0.63
0.4972	352.85	20018	796.63	0.64
0.4972	352.85	21055	798.4	0.65
0.4972	352.85	22035	800	0.65
0.4972	352.85	23067	801.7	0.66
0.4972	352.85	24007	803.18	0.67
0.4972	352.85	25035	804.81	0.68
0.4972	362.74	14112	771.83	0.61
0.4972	362.74	15096	773.91	0.62
0.4972	362.74	15985	775.76	0.63
0.4972	362.74	17043	777.9	0.63
0.4972	362.74	18079	779.94	0.64
0.4972	362.74	19117	781.94	0.65
0.4972	362.74	20051	783.68	0.66
0.4972	362.74	21025	785.45	0.67
0.4972	362.74	22018	787.27	0.68
0.4972	362.74	23076	789.13	0.69
0.4972	362.74	24063	790.85	0.69
0.4972	362.74	25140	792.64	0.7
0.5965	313.16	10073	836.7	0.53
0.5965	313.16	11059	838.66	0.51
0.5965	313.16	12075	840.6	0.51
0.5965	313.16	13069	842.49	0.52
0.5965	313.16	14098	844.39	0.52
0.5965	313.16	15059	846.11	0.53
0.5965	313.16	16037	847.81	0.53
0.5965	313.16	17032	849.52	0.53
0.5965	313.16	18048	851.21	0.54
0.5965	313.16	19055	852.88	0.54
0.5965	313.16	20044	854.46	0.55
0.5965	313.16	21042	856.04	0.55
0.5965	313.16	22053	857.62	0.56
0.5965	313.16	23031	859.12	0.56
0.5965	313.16	24038	860.62	0.57
0.5965	313.16	25036	862.12	0.57
0.5965	323.1	11078	822.9	0.55
0.5965	323.1	12072	825.03	0.53
0.5965	323.1	13059	827.1	0.54
0.5965	323.1	14067	829.16	0.54
0.5965	323.1	15063	831.15	0.55
0.5965	323.1	16046	833.04	0.55
0.5965	323.1	17030	834.9	0.56
0.5965	323.1	18049	836.78	0.56
0.5965	323.1	19044	838.57	0.57
0.5965	323.1	20039	840.32	0.57
0.5965	323.1	21064	842.09	0.58
0.5965	323.1	22041	843.75	0.58
0.5965	323.1	23023	845.38	0.59
0.5965	323.1	24008	847	0.59
0.5965	323.1	25040	848.65	0.6
0.5965	333	12077	809.05	0.73
0.5965	333	13047	811.32	0.56
0.5965	333	14101	813.7	0.56
0.5965	333	15079	815.86	0.57
0.5965	333	16069	817.96	0.57
0.5965	333	17045	820	0.58
0.5965	333	18064	822.1	0.58
0.5965	333	19045	824.02	0.59
0.5965	333	20044	825.94	0.59
0.5965	333	21039	827.8	0.6
0.5965	333	22043	829.66	0.6
0.5965	333	23048	831.48	0.61
0.5965	333	24011	833.21	0.62
0.5965	333	25086	835.1	0.62
0.5965	342.94	13074	795.03	0.57
0.5965	342.94	14051	797.49	0.58
0.5965	342.94	15068	799.99	0.59
0.5965	342.94	16064	802.35	0.6
0.5965	342.94	17076	804.68	0.6
0.5965	342.94	18056	806.85	0.61
0.5965	342.94	19037	808.99	0.61
0.5965	342.94	20067	811.18	0.62
0.5965	342.94	21031	813.15	0.62
0.5965	342.94	22050	815.2	0.63
0.5965	342.94	23030	817.14	0.64
0.5965	342.94	24031	819.08	0.64
0.5965	342.94	25028	820.94	0.65
0.5965	352.88	14075	780.49	0.6
0.5965	352.88	15042	783.18	0.61
0.5965	352.88	16039	785.88	0.61
0.5965	352.88	17076	788.55	0.65
0.5965	352.88	18030	790.96	0.63
0.5965	352.88	19037	793.41	0.64
0.5965	352.88	20049	795.8	0.65
0.5965	352.88	21030	798.05	0.65
0.5965	352.88	22036	800.27	0.66
0.5965	352.88	23019	802.43	0.66
0.5965	352.88	24039	804.6	0.67
0.5965	352.88	25092	806.79	0.68
0.5965	362.76	15085	765.37	0.63
0.5965	362.76	16042	768.34	0.64
0.5965	362.76	17060	771.36	0.65
0.5965	362.76	18019	774.09	0.65
0.5965	362.76	19023	776.91	0.66
0.5965	362.76	20064	779.68	0.71
0.5965	362.76	21026	782.15	0.69
0.5965	362.76	22023	784.67	0.7
0.5965	362.76	23058	787.18	0.7
0.5965	362.76	24078	789.61	0.71
0.5965	362.76	25110	791.98	0.72
0.8663	313.16	10087	805.12	1.05
0.8663	313.16	11082	813.86	0.57
0.8663	313.16	12061	821.6	0.57
0.8663	313.16	13043	828.71	0.57
0.8663	313.16	14076	835.52	0.56
0.8663	313.16	15061	841.57	0.56
0.8663	313.16	16043	847.15	0.56
0.8663	313.16	17052	852.59	0.56
0.8663	313.16	18056	857.69	0.55
0.8663	313.16	19039	862.42	0.55
0.8663	313.16	20027	866.99	0.55
0.8663	313.16	21068	871.52	0.55
0.8663	313.16	22034	875.6	0.55
0.8663	313.16	23061	879.74	0.55
0.8663	313.16	24054	883.63	0.55
0.8663	313.16	25015	887.21	0.56
0.8663	323.1	12077	777.48	1.14
0.8663	323.1	13046	787.33	0.7
0.8663	323.1	14029	796.15	0.64
0.8663	323.1	15050	804.37	0.63
0.8663	323.1	16077	811.86	0.62
0.8663	323.1	17044	818.37	0.62
0.8663	323.1	18024	824.54	0.61
0.8663	323.1	19033	830.52	0.61
0.8663	323.1	20028	835.95	0.61
0.8663	323.1	21026	841.13	0.6
0.8663	323.1	22054	846.3	0.6
0.8663	323.1	23023	850.85	0.6
0.8663	323.1	24006	855.33	0.6
0.8663	323.1	25041	859.75	0.62
0.8663	332.99	14087	752.33	1.19
0.8663	332.99	15053	762.95	0.71
0.8663	332.99	16081	772.94	0.69
0.8663	332.99	17073	781.43	0.68
0.8663	332.99	18052	789.26	0.67
0.8663	332.99	19049	796.49	0.67
0.8663	332.99	20021	803.04	0.66
0.8663	332.99	21046	809.49	0.66
0.8663	332.99	22064	815.51	0.66
0.8663	332.99	23005	820.74	0.66
0.8663	332.99	24028	826.19	0.66
0.8663	332.99	25067	831.43	0.7
0.8663	342.94	15189	716.88	1.16
0.8663	342.94	16052	728.37	0.83
0.8663	342.94	17059	740.13	0.8
0.8663	342.94	18027	749.98	0.76
0.8663	342.94	19050	759.3	0.74
0.8663	342.94	20036	767.54	0.73
0.8663	342.94	21038	775.36	0.72
0.8663	342.94	22085	782.79	0.72
0.8663	342.94	23032	789.07	0.72
0.8663	342.94	24045	795.41	0.71
0.8663	342.94	25042	801.31	0.7
0.8663	352.88	18449	712.26	1.47
0.8663	352.88	19044	719.05	0.88
0.8663	352.88	20064	729.73	0.84
0.8663	352.88	21052	739.04	0.82
0.8663	352.88	22047	747.62	0.79
0.8663	352.88	23067	755.76	0.78
0.8663	352.88	24035	762.91	0.78
0.8663	352.88	25048	769.99	0.77
0.8663	362.75	21992	710.63	1.07
0.8663	362.75	23010	720.36	0.88
0.8663	362.75	24074	729.68	0.87
0.8663	362.75	25130	738.23	0.89
0.9698	313.1	9990	711.97	1.01
0.9698	313.1	11014	740.16	0.96
0.9698	313.1	12040	761.46	0.85
0.9698	313.1	12987	777.57	0.78
0.9698	313.1	14020	792.52	0.74
0.9698	313.1	15028	805.22	0.71
0.9698	313.1	16029	816.46	0.69
0.9698	313.1	17000	826.34	0.67
0.9698	313.1	18024	835.89	0.65
0.9698	313.1	19027	844.46	0.64
0.9698	313.1	20021	852.41	0.63
0.9698	313.1	21013	859.87	0.62
0.9698	313.1	22032	867.02	0.61
0.9698	313.1	23006	873.5	0.6
0.9698	313.1	24011	879.83	0.59
0.9698	323.05	11029	630.03	1.19
0.9698	323.05	12005	671.01	1.06
0.9698	323.05	12996	700.08	0.96
0.9698	323.05	14024	723.36	0.87
0.9698	323.05	15024	741.89	0.82
0.9698	323.05	16009	757.4	0.78
0.9698	323.05	17001	771.14	0.76
0.9698	323.05	18016	783.62	0.74
0.9698	323.05	19020	794.82	0.72
0.9698	323.05	20048	805.21	0.7
0.9698	323.05	21055	814.54	0.69
0.9698	323.05	22017	822.92	0.68
0.9698	323.05	23087	831.58	0.67
0.9698	323.05	24055	838.92	0.66
0.9698	332.94	12999	600.03	1.18
0.9698	332.94	14036	638.84	1.08
0.9698	332.94	15021	667.05	0.98
0.9698	332.94	16014	689.92	0.93
0.9698	332.94	17022	709.37	0.88
0.9698	332.94	18009	725.81	0.85
0.9698	332.94	19010	740.47	0.82
0.9698	332.94	20028	753.7	0.8
0.9698	332.94	21042	765.72	0.78
0.9698	332.94	21997	776.05	0.77
0.9698	332.94	22983	785.85	0.76
0.9698	332.94	23838	793.78	0.74
0.9698	342.87	15510	598.32	1.13
0.9698	342.87	16022	613.97	1.08
0.9698	342.87	17033	640.58	1.02
0.9698	342.87	17988	661.78	0.98
0.9698	342.87	19001	681.25	0.94
0.9698	342.87	20036	698.56	0.91
0.9698	342.87	21044	713.53	0.89
0.9698	342.87	22014	726.53	0.87
0.9698	342.87	23003	738.6	0.85
0.9698	342.87	24019	749.89	0.84
0.9698	342.87	24944	759.52	0.83
0.9698	352.79	18068	596.97	1.1
0.9698	352.79	18999	619.03	1.07
0.9698	352.79	20007	639.88	1.03
0.9698	352.79	21053	659.01	1
0.9698	352.79	22011	674.59	0.97
0.9698	352.79	23058	690	0.95
0.9698	352.79	24106	703.93	0.94
0.9698	352.79	25050	715.49	0.92
0.9698	362.66	20602	595.03	1.12
0.9698	362.66	21041	604.05	1.11
0.9698	362.66	22017	622.53	1.09
0.9698	362.66	23022	639.79	1.06
0.9698	362.66	24038	655.56	1.04
0.9698	362.66	25046	669.85	1.03
