Measured thermophysical data. High-Pressure Vapor-Liquid Equilibria, Liquid Densities, and Excess Molar Volumes for the Carbon Dioxide + 2-Propanol System from (308.10 to 348.00) K
Source: J. Chem. Eng. Data, 2007, 10.1021/je700321s
Compound 1: carbon dioxide, CO2, InChI=1S/CO2/c2-1-3
Compound 2: propan-2-ol, C3H8O, InChI=1S/C3H8O/c1-3(2)4/h3-4H,1-2H3

System: propan-2-ol + carbon dioxide; phases: Liquid, Gas
Property: Vapor or sublimation pressure, kPa (Liquid); method: CCELL:UFactor:16
Temperature, K	Mole fraction of carbon dioxide	Vapor or sublimation pressure, kPa	uncertainty
308.1	0.139	1760	110
308.1	0.2003	2750	180
308.1	0.4248	4780	310
308.1	0.6086	5950	380
308.1	0.7943	6820	440
308.1	0.9492	7270	470
308.1	0.9715	7450	480
313.1	0.139	2280	150
313.1	0.2003	3640	230
313.1	0.4248	5850	370
313.1	0.6086	6780	430
313.1	0.7943	7540	480
313.1	0.9492	7960	510
313.1	0.9715	8100	520
323.07	0.139	2660	170
323.07	0.2003	4050	260
323.07	0.4248	6810	440
323.07	0.6086	7870	500
323.07	0.7943	8720	560
333	0.139	2820	180
333	0.2003	4210	270
333	0.4248	7230	460
333	0.6086	8230	530
333	0.7943	9720	620
348	0.139	3320	210
348	0.2003	5100	330
348	0.4248	7720	490
348	0.6086	10000	640
348	0.7943	11350	730

System: propan-2-ol + carbon dioxide; phases: Liquid
Property: Mass density, kg/m3 (Liquid); method: Vibrating tube method
Mole fraction of carbon dioxide	Temperature, K	Pressure, kPa	Mass density, kg/m3	uncertainty
0.139	308.11	1814	786.2	0.8
0.139	308.11	2252	786.8	0.8
0.139	308.11	3003	787.7	0.8
0.139	308.11	3206	787.9	0.8
0.139	308.11	3427	788.2	0.8
0.139	308.11	3607	788.4	0.8
0.139	308.11	4089	788.9	0.8
0.139	308.11	5013	789.9	0.8
0.139	308.11	5503	790.5	0.8
0.139	308.11	6019	791	0.8
0.139	308.11	6518	791.7	0.8
0.139	308.11	7009	792.2	0.8
0.139	308.11	7512	792.7	0.8
0.139	308.11	8016	793.3	0.8
0.139	308.11	8530	793.9	0.8
0.139	308.11	8990	794.3	0.8
0.139	308.11	9498	794.8	0.8
0.139	313.09	2502	781.7	0.8
0.139	313.09	3002	782.3	0.8
0.139	313.09	3513	782.9	0.8
0.139	313.09	4008	783.5	0.8
0.139	313.09	4501	784.1	0.8
0.139	313.09	5001	784.7	0.8
0.139	313.09	5497	785.3	0.8
0.139	313.09	6023	785.9	0.8
0.139	313.09	6504	786.5	0.8
0.139	313.09	7026	787.1	0.8
0.139	313.09	7489	787.6	0.8
0.139	313.09	7998	788.2	0.8
0.139	313.09	8509	788.8	0.8
0.139	313.09	8995	789.3	0.8
0.139	313.09	9503	789.8	0.8
0.139	323.05	2995	771.3	0.8
0.139	323.05	3503	771.9	0.8
0.139	323.05	4003	772.6	0.8
0.139	323.05	4494	773.2	0.8
0.139	323.05	5074	773.9	0.8
0.139	323.05	5511	774.5	0.8
0.139	323.05	6033	775.2	0.8
0.139	323.05	7021	776.4	0.8
0.139	323.05	7514	777.1	0.8
0.139	323.05	8002	777.6	0.8
0.139	323.05	8527	778.3	0.8
0.139	323.05	9033	778.8	0.8
0.139	323.05	9519	779.4	0.8
0.139	332.99	2861	759.8	0.8
0.139	332.99	3000	760	0.8
0.139	332.99	3297	760.4	0.8
0.139	332.99	3495	760.7	0.8
0.139	332.99	4008	761.5	0.8
0.139	332.99	4509	762.2	0.8
0.139	332.99	5030	762.8	0.8
0.139	332.99	6502	764.9	0.8
0.139	332.99	7005	765.6	0.8
0.139	332.99	7501	766.3	0.8
0.139	332.99	8010	766.9	0.8
0.139	332.99	8521	767.6	0.8
0.139	332.99	9040	768.3	0.8
0.139	332.99	9511	768.8	0.8
0.139	332.99	9974	769.5	0.8
0.139	347.95	3317	742.5	0.8
0.139	347.95	3516	742.7	0.8
0.139	347.95	4002	743.5	0.8
0.139	347.95	4464	744.3	0.8
0.139	347.95	5008	745.1	0.8
0.139	347.95	5502	745.9	0.8
0.139	347.95	6011	746.7	0.8
0.139	347.95	6501	747.5	0.8
0.139	347.95	7037	748.3	0.8
0.139	347.95	7523	749.1	0.8
0.139	347.95	8023	749.8	0.8
0.139	347.95	8497	750.5	0.8
0.139	347.95	8993	751.3	0.8
0.139	347.95	9568	752.1	0.8
0.139	347.95	10032	752.8	0.8
0.2003	308.11	3514	792.7	0.8
0.2003	308.11	4006	793.4	0.8
0.2003	308.11	4510	794	0.8
0.2003	308.11	5028	794.7	0.8
0.2003	308.11	5504	795.3	0.8
0.2003	308.11	6006	795.9	0.8
0.2003	308.11	6517	796.5	0.8
0.2003	308.11	7029	797.2	0.8
0.2003	308.11	7516	797.7	0.8
0.2003	308.11	8001	798.3	0.8
0.2003	308.11	8511	798.9	0.8
0.2003	308.11	9019	799.5	0.8
0.2003	308.11	10003	800.7	0.8
0.2003	308.11	10047	800.8	0.8
0.2003	313.1	3601	786.8	0.8
0.2003	313.1	4007	787.4	0.8
0.2003	313.1	4523	788.1	0.8
0.2003	313.1	5069	788.7	0.8
0.2003	313.1	5497	789.3	0.8
0.2003	313.1	6027	790	0.8
0.2003	313.1	6504	790.7	0.8
0.2003	313.1	7010	791.3	0.8
0.2003	313.1	7494	791.9	0.8
0.2003	313.1	7989	792.6	0.8
0.2003	313.1	8557	793.2	0.8
0.2003	313.1	9017	793.8	0.8
0.2003	313.1	9636	794.6	0.8
0.2003	323.07	4004	775.4	0.8
0.2003	323.07	4307	775.8	0.8
0.2003	323.07	4497	776.1	0.8
0.2003	323.07	4802	776.6	0.8
0.2003	323.07	5014	776.9	0.8
0.2003	323.07	5510	777.5	0.8
0.2003	323.07	6029	778.3	0.8
0.2003	323.07	6513	779	0.8
0.2003	323.07	7000	779.7	0.8
0.2003	323.07	7519	780.5	0.8
0.2003	323.07	8013	781.1	0.8
0.2003	323.07	8543	781.8	0.8
0.2003	323.07	9139	782.5	0.8
0.2003	323.07	9497	783	0.8
0.2003	323.07	10068	783.8	0.8
0.2003	333.05	4210	763.4	0.8
0.2003	333.05	4492	763.8	0.8
0.2003	333.05	4799	764.3	0.8
0.2003	333.05	5001	764.6	0.8
0.2003	333.05	5470	765.3	0.8
0.2003	333.05	5996	766.1	0.8
0.2003	333.05	6511	766.9	0.8
0.2003	333.05	7008	767.7	0.8
0.2003	333.05	7519	768.4	0.8
0.2003	333.05	8008	769.2	0.8
0.2003	333.05	8503	769.9	0.8
0.2003	333.05	9019	770.6	0.8
0.2003	333.05	9506	771.3	0.8
0.2003	333.05	9994	772.1	0.8
0.2003	347.97	5098	745.6	0.8
0.2003	347.97	5302	746.1	0.8
0.2003	347.97	5533	746.5	0.8
0.2003	347.97	6025	747.4	0.8
0.2003	347.97	6609	748.4	0.8
0.2003	347.97	7005	749.2	0.8
0.2003	347.97	7508	750.1	0.8
0.2003	347.97	8010	751	0.8
0.2003	347.97	8501	751.7	0.8
0.2003	347.97	8915	752.4	0.8
0.2003	347.97	9581	753.5	0.8
0.2003	347.97	9706	753.7	0.8
0.2003	347.97	10014	754.2	0.8
0.4248	308.12	4780	807.5	0.8
0.4248	308.12	5038	808.2	0.8
0.4248	308.12	5326	808.8	0.8
0.4248	308.12	5517	809.2	0.8
0.4248	308.12	6029	810.3	0.8
0.4248	308.12	6505	811.3	0.8
0.4248	308.12	6515	811.4	0.8
0.4248	308.12	6714	811.8	0.8
0.4248	308.12	7035	812.4	0.8
0.4248	308.12	7207	812.8	0.8
0.4248	308.12	7501	813.4	0.8
0.4248	308.12	7700	813.8	0.8
0.4248	308.12	8024	814.4	0.8
0.4248	308.12	8606	815.6	0.8
0.4248	308.12	8802	816	0.8
0.4248	308.12	9002	816.4	0.8
0.4248	308.12	9529	817.3	0.8
0.4248	308.12	9898	818	0.8
0.4248	313.1	5812	801.4	0.8
0.4248	313.1	6012	801.7	0.8
0.4248	313.1	6200	802.1	0.8
0.4248	313.1	6395	802.6	0.8
0.4248	313.1	6602	803.1	0.8
0.4248	313.1	6803	803.5	0.8
0.4248	313.1	7055	804.1	0.8
0.4248	313.1	7208	804.3	0.8
0.4248	313.1	7409	804.8	0.8
0.4248	313.1	7611	805.2	0.8
0.4248	313.1	7802	805.7	0.8
0.4248	313.1	7998	806.1	0.8
0.4248	313.1	8201	806.5	0.8
0.4248	313.1	8597	807.3	0.8
0.4248	313.1	8797	807.6	0.8
0.4248	313.1	9024	808.1	0.8
0.4248	313.1	9602	809.3	0.8
0.4248	313.1	10055	810.1	0.8
0.4248	323.03	6842	786.9	0.8
0.4248	323.03	7010	787.3	0.8
0.4248	323.03	7302	788.1	0.8
0.4248	323.03	7530	788.6	0.8
0.4248	323.03	8004	789.7	0.8
0.4248	323.03	8302	790.4	0.8
0.4248	323.03	8401	790.6	0.8
0.4248	323.03	8500	790.8	0.8
0.4248	323.03	8603	791.2	0.8
0.4248	323.03	8710	791.4	0.8
0.4248	323.03	8821	791.7	0.8
0.4248	323.03	9000	792.1	0.8
0.4248	323.03	9209	792.5	0.8
0.4248	323.03	9309	792.8	0.8
0.4248	323.03	9401	793.1	0.8
0.4248	323.03	9502	793.3	0.8
0.4248	323.03	9601	793.4	0.8
0.4248	323.03	9728	793.7	0.8
0.4248	333.02	7301	770.1	0.8
0.4248	333.02	7408	770.5	0.8
0.4248	333.02	7506	770.6	0.8
0.4248	333.02	7613	771	0.8
0.4248	333.02	7806	771.4	0.8
0.4248	333.02	8005	772	0.8
0.4248	333.02	8209	772.6	0.8
0.4248	333.02	8394	773.2	0.8
0.4248	333.02	8802	774.1	0.8
0.4248	333.02	8916	774.5	0.8
0.4248	333.02	9000	774.7	0.8
0.4248	333.02	9100	775	0.8
0.4248	333.02	9205	775.3	0.8
0.4248	333.02	9304	775.6	0.8
0.4248	333.02	9410	775.8	0.8
0.4248	333.02	9506	776.1	0.8
0.4248	333.02	9607	776.4	0.8
0.4248	333.02	9809	776.8	0.8
0.4248	347.93	7801	744.8	0.8
0.4248	347.93	7908	745.1	0.8
0.4248	347.93	7999	745.5	0.8
0.4248	347.93	8130	745.9	0.8
0.4248	347.93	8239	746.2	0.8
0.4248	347.93	8408	746.8	0.8
0.4248	347.93	8501	747.2	0.8
0.4248	347.93	8600	747.4	0.8
0.4248	347.93	8712	747.8	0.8
0.4248	347.93	8801	748.2	0.8
0.4248	347.93	8890	748.4	0.8
0.4248	347.93	9033	748.8	0.8
0.4248	347.93	9105	749.1	0.8
0.4248	347.93	9244	749.4	0.8
0.4248	347.93	9410	750	0.8
0.4248	347.93	9501	750.2	0.8
0.4248	347.93	9608	750.7	0.9
0.6086	308.11	6002	812.2	0.8
0.6086	308.11	6221	813	0.8
0.6086	308.11	6400	813.7	0.8
0.6086	308.11	6606	814.5	0.8
0.6086	308.11	6807	815.2	0.8
0.6086	308.11	7019	815.9	0.8
0.6086	308.11	7203	816.7	0.8
0.6086	308.11	7401	817.4	0.8
0.6086	308.11	7607	818.3	0.8
0.6086	308.11	7804	818.9	0.8
0.6086	308.11	8005	819.7	0.8
0.6086	308.11	8209	820.4	0.8
0.6086	308.11	8600	821.7	0.8
0.6086	308.11	8810	822.4	0.8
0.6086	308.11	9000	823.1	0.8
0.6086	308.11	9101	823.3	0.9
0.6086	308.11	9200	823.8	0.9
0.6086	313.12	6801	802.8	0.8
0.6086	313.12	7000	803.5	0.8
0.6086	313.12	7203	804.4	0.8
0.6086	313.12	7402	805.2	0.8
0.6086	313.12	7602	806	0.8
0.6086	313.12	7804	806.8	0.8
0.6086	313.12	8010	807.7	0.8
0.6086	313.12	8197	808.3	0.8
0.6086	313.12	8400	809.1	0.8
0.6086	313.12	8602	809.8	0.8
0.6086	313.12	8812	810.5	0.8
0.6086	313.12	9000	811.3	0.8
0.6086	313.12	9213	812	0.8
0.6086	313.12	9392	812.6	0.8
0.6086	313.12	9600	813.3	0.8
0.6086	313.12	9802	814	0.8
0.6086	313.12	10001	814.6	0.8
0.6086	323.05	7506	779.7	2
0.6086	323.05	7703	780.7	1.1
0.6086	323.05	7803	781.1	1.5
0.6086	323.05	7910	781.7	1.5
0.6086	323.05	8009	782.2	1.6
0.6086	323.05	8208	783.1	0.8
0.6086	323.05	8404	784.1	0.8
0.6086	323.05	8607	785	0.8
0.6086	323.05	8800	785.8	0.8
0.6086	323.05	9004	786.7	0.8
0.6086	323.05	9301	788	0.8
0.6086	323.05	9501	788.9	0.8
0.6086	323.05	9702	789.8	0.8
0.6086	323.05	9805	790.2	0.8
0.6086	333.02	8226	753.6	0.8
0.6086	333.02	8305	754.3	0.8
0.6086	333.02	8400	754.8	0.8
0.6086	333.02	8504	755.5	0.8
0.6086	333.02	8610	756	0.8
0.6086	333.02	8701	756.6	0.8
0.6086	333.02	8802	757.3	0.8
0.6086	333.02	8900	757.9	0.8
0.6086	333.02	9005	758.5	0.8
0.6086	333.02	9103	759	0.8
0.6086	347.94	9809	716	0.9
0.6086	347.94	9815	717	0.8
0.6086	347.94	9822	718.1	0.8
0.6086	347.94	9831	719.1	0.8
0.6086	347.94	9840	719.7	0.8
0.6086	347.94	9850	720	0.8
0.6086	347.94	9861	720	0.8
0.6086	347.94	9873	720.2	0.8
0.6086	347.94	9885	720.2	2.2
0.6086	347.94	9897	720.3	2.4
0.6086	347.94	9910	720.4	2.5
0.6086	347.94	9949	720.8	2.9
0.6086	347.94	10004	721.1	3.7
0.6086	347.94	10052	721.5	3.5
0.6086	347.94	10104	721.9	1.7
0.6086	347.94	10152	722.2	8.3
0.7943	308.11	6824	793.7	1.3
0.7943	308.11	7001	795.6	0.9
0.7943	308.11	7206	797.4	0.8
0.7943	308.11	7400	799.2	0.8
0.7943	308.11	7607	801.1	0.8
0.7943	308.11	7810	803	0.8
0.7943	308.11	8007	804.6	0.8
0.7943	308.11	8197	806.2	0.8
0.7943	308.11	8414	807.8	0.8
0.7943	308.11	8618	809.6	0.8
0.7943	308.11	8796	810.8	0.8
0.7943	308.11	9017	812.5	0.8
0.7943	308.11	9203	813.9	0.8
0.7943	308.11	9400	815.3	0.9
0.7943	308.11	9607	816.6	0.9
0.7943	308.11	9807	818	0.9
0.7943	308.11	9902	818.6	1
0.7943	313.08	7544	777.4	1.3
0.7943	313.08	7601	778.5	1.1
0.7943	313.08	7810	780.8	0.9
0.7943	313.08	8013	783	0.9
0.7943	313.08	8205	784.9	0.9
0.7943	313.08	8410	786.8	0.9
0.7943	313.08	8593	788.4	0.8
0.7943	313.08	8800	790.3	0.8
0.7943	313.08	8999	792.2	0.8
0.7943	313.08	9208	794	0.8
0.7943	313.08	9405	795.7	0.8
0.7943	313.08	9619	797.5	0.8
0.7943	313.08	9803	799	0.8
0.7943	313.08	10061	800.9	0.8
0.7943	313.08	10515	804	0.8
0.7943	313.08	11013	807.3	0.8
0.7943	313.08	11507	810.6	0.9
0.7943	313.08	11994	813.5	0.9
0.7943	313.08	12199	814.6	0.9
0.7943	313.08	12410	815.6	0.9
0.7943	313.08	12606	816.7	0.9
0.7943	323.06	8724	745.3	2
0.7943	323.06	8802	746.6	1.8
0.7943	323.06	8905	747.9	1.8
0.7943	323.06	9005	749.2	0.9
0.7943	323.06	9204	751.6	0.9
0.7943	323.06	9410	753.9	0.8
0.7943	323.06	9606	756.2	0.9
0.7943	323.06	9792	758.2	0.9
0.7943	323.06	10001	760.2	0.9
0.7943	323.06	10310	763.1	0.9
0.7943	332.97	9739	686.8	0.8
0.7943	332.97	9804	689.2	1.1
0.7943	332.97	9901	691.4	1.2
0.7943	332.97	10001	693.5	1.4
0.7943	332.97	10101	695.6	1.6
0.7943	332.97	10201	697.8	1.9
0.7943	332.97	10302	699.9	2.1
0.7943	332.97	10404	701.7	1
0.7943	332.97	10507	703.7	1.5
0.7943	332.97	10606	705.4	1.8
0.7943	332.97	10808	708.9	1.3
0.7943	332.97	11007	712	1
0.7943	332.97	11204	715	0.9
0.7943	332.97	11404	717.8	0.9
0.7943	332.97	11607	720.5	0.9
0.7943	332.97	11805	722.9	0.9
0.7943	332.97	12004	725.3	0.8
0.7943	347.95	11400	647.2	1
0.7943	347.95	11604	653.3	1
0.7943	347.95	11812	658.7	1
0.7943	347.95	12007	663	1
0.7943	347.95	12201	666.8	1
0.7943	347.95	12502	672.6	1
0.7943	347.95	12802	677.6	0.9
0.7943	347.95	13202	684	0.9
0.7943	347.95	13504	688.5	0.9
0.7943	347.95	13802	692.8	0.9
0.7943	347.95	14109	696.9	0.9
0.7943	347.95	14406	700.5	0.9
0.7943	347.95	14703	703.9	0.9
0.7943	347.95	15000	707.4	0.9
0.7943	347.95	15207	709.6	1.1
0.7943	347.95	15407	711.9	0.9
0.7943	347.95	15610	714	1
0.7943	347.95	15813	716.1	1.1
0.7943	347.95	16004	717.9	0.8
0.7943	347.95	16303	720.7	1
0.7943	347.95	16501	722.4	0.8
0.7943	347.95	16808	725	1.1
0.9492	308.12	7302	699.6	2
0.9492	308.12	7402	704.9	2
0.9492	308.12	7605	713.8	1.7
0.9492	308.12	7802	720.9	1
0.9492	308.12	8002	728	1.3
0.9492	308.12	8204	734.5	1
0.9492	308.12	8404	740.3	1.1
0.9492	308.12	8605	745.7	1.1
0.9492	308.12	8802	750.6	0.9
0.9492	308.12	9004	755.4	1
0.9492	308.12	9201	759.7	0.9
0.9492	308.12	9408	764	1
0.9492	308.12	9610	768	1
0.9492	308.12	9805	771.5	0.9
0.9492	308.12	10003	774.9	1
0.9492	308.12	10202	778	0.9
0.9492	308.12	10405	780.9	0.9
0.9492	308.12	10617	783.7	0.9
0.9492	308.12	10807	785.9	0.9
0.9492	313.09	7960	642.1	2.7
0.9492	313.09	8001	648.3	2.8
0.9492	313.09	8200	666.4	2.7
0.9492	313.09	8400	677.7	1.8
0.9492	313.09	8606	688.5	1.8
0.9492	313.09	8803	697	1
0.9492	313.09	9002	704	1.1
0.9492	313.09	9201	710.9	1
0.9492	313.09	9408	717.1	1
0.9492	313.09	9604	722.7	1
0.9492	313.09	9800	728.1	0.9
0.9492	313.09	10003	733.1	1
0.9492	313.09	10201	737.5	0.9
0.9492	313.09	10405	741.5	0.9
0.9492	313.09	10605	744.7	0.9
0.9492	313.09	10803	747.4	0.9
0.9492	323.05	9107	526.2	2.6
0.9492	323.05	9400	575.3	2.3
0.9492	323.05	9710	607	1.1
0.9492	323.05	10015	628.2	1.7
0.9492	323.05	10301	644.3	0.9
0.9492	323.05	10600	658.2	1.4
0.9492	323.05	10904	670.3	1.3
0.9492	323.05	11211	681.1	1.3
0.9492	323.05	11508	689.9	1.3
0.9492	323.05	11807	698.3	1.2
0.9492	323.05	12106	705.9	1.1
0.9492	323.05	12404	712.6	1.1
0.9492	323.05	12703	719.2	1.1
0.9492	323.05	13006	725.5	1
0.9492	323.05	13309	731.4	1
0.9492	323.05	13608	736.7	1
0.9492	323.05	13907	742	1
0.9492	323.05	14210	746.8	1
0.9492	323.05	14504	751.1	0.9
0.9492	323.05	14804	755.1	0.9
0.9492	332.99	10561	502.4	1.2
0.9492	332.99	10601	506.6	1.2
0.9492	332.99	10709	517.4	1.1
0.9492	332.99	10810	526.9	1
0.9492	332.99	10910	536.2	1
0.9492	332.99	11209	560.9	1
0.9492	332.99	11503	580	1
0.9492	332.99	11803	596	0.9
0.9492	332.99	12102	611.4	0.9
0.9492	332.99	12404	624.7	0.9
0.9492	332.99	12705	635.9	0.9
0.9492	332.99	13010	645.6	0.9
0.9492	332.99	13302	654.5	0.9
0.9492	332.99	13603	663.6	0.9
0.9492	332.99	13906	671.7	0.9
0.9492	332.99	14213	678.9	0.9
0.9492	332.99	14513	684.7	0.8
0.9492	347.96	10989	348.5	1
0.9492	347.96	11505	382.4	1
0.9492	347.96	12004	415.7	1
0.9492	347.96	12507	448.4	1
0.9492	347.96	13000	477.1	1
0.9492	347.96	13503	503	0.9
0.9492	347.96	14006	527.8	0.9
0.9492	347.96	14511	550.1	0.9
0.9492	347.96	15011	569.6	0.9
0.9492	347.96	15495	586.6	0.9
0.9492	347.96	15997	602.4	0.9
0.9492	347.96	16514	617	0.9
0.9492	347.96	17014	629.5	0.8
0.9492	347.96	17513	640.4	0.8
0.9492	347.96	17988	648.6	0.8
0.9715	308.13	7456	611.7	4.1
0.9715	308.13	7502	636.2	4.7
0.9715	308.13	7992	680.6	1.8
0.9715	308.13	8522	706.8	1.2
0.9715	308.13	8997	724.3	1.1
0.9715	308.13	9508	739.8	1
0.9715	308.13	10027	752.9	1
0.9715	308.13	10521	763.7	0.9
0.9715	308.13	11017	773.2	0.9
0.9715	308.13	11500	781.6	0.9
0.9715	308.13	12008	789.6	0.9
0.9715	308.13	12520	797.2	0.9
0.9715	308.13	13012	803.8	0.9
0.9715	308.13	13520	810.4	0.9
0.9715	308.13	14014	816.4	0.9
0.9715	308.13	14520	822.1	0.9
0.9715	308.13	15000	827.3	0.9
0.9715	313.12	8124	526.2	2.6
0.9715	313.12	8526	627.3	2.1
0.9715	313.12	9002	662.5	1.7
0.9715	313.12	9522	689	1.4
0.9715	313.12	10021	708.1	1.2
0.9715	313.12	10520	722.7	1
0.9715	313.12	10993	734.9	1
0.9715	313.12	11514	746.8	0.9
0.9715	313.12	12038	757.3	0.9
0.9715	313.12	12512	765.8	0.9
0.9715	313.12	13003	773.6	0.9
0.9715	313.12	13500	781.1	0.9
0.9715	313.12	13998	788.2	0.9
0.9715	313.12	14495	794.8	0.9
0.9715	313.12	15008	801.1	0.9
0.9715	323.05	8528	303.9	1.8
0.9715	323.05	9031	381.9	2.7
0.9715	323.05	9535	467.3	2.8
0.9715	323.05	10046	540	2.1
0.9715	323.05	10501	577.6	1.6
0.9715	323.05	11011	612.9	1.5
0.9715	323.05	11512	638.9	1.3
0.9715	323.05	12028	660.4	1.2
0.9715	323.05	12516	677	1.1
0.9715	323.05	13014	691.5	1
0.9715	323.05	13558	705.3	1
0.9715	323.05	14003	715.4	1
0.9715	323.05	14516	725.9	1
0.9715	323.05	15024	735.4	0.9
0.9715	323.05	15506	743.6	0.8
