Measured thermophysical data. Effect of an Ionic Liquid (IL) Cation on the Ternary System (IL + p-Xylene + Hexane) at T= 298.15 K
Source: J. Chem. Eng. Data, 2007, 10.1021/je7003337
Compound 1: hexyl(2-hydroxyethyl)dimethylammonium tetrafluoroborate, C10H24BF4NO, InChI=1S/C10H24NO.BF4/c1-4-5-6-7-8-11(2,3)9-10-12;2-1(3,4)5/h12H,4-10H2,1-3H3;/q+1;-1
Compound 2: butyl(2-hydroxyethyl)dimethylammonium tetrafluoroborate, C8H20BF4NO, InChI=1S/C8H20NO.BF4/c1-4-5-6-9(2,3)7-8-10;2-1(3,4)5/h10H,4-8H2,1-3H3;/q+1;-1
Compound 3: 1H-Imidazolium, 1,3-bis[(hexyloxy)methyl]-, tetrafluoroborate, C17H33BF4N2O2, InChI=1S/C17H33N2O2.BF4/c1-3-5-7-9-13-20-16-18-11-12-19(15-18)17-21-14-10-8-6-4-2;2-1(3,4)5/h11-12,15H,3-10,13-14,16-17H2,1-2H3;/q+1;-1
Compound 4: hexane, C6H14, InChI=1S/C6H14/c1-3-5-6-4-2/h3-6H2,1-2H3
Compound 5: 1,4-dimethylbenzene, C8H10, InChI=1S/C8H10/c1-7-3-5-8(2)6-4-7/h3-6H,1-2H3

System: hexane; phases: Liquid
Property: Refractive index (Na D-line) (Liquid); method: Standard Abbe refractometry
Temperature, K	Pressure, kPa	Refractive index (Na D-line)	uncertainty
298.15	101.325	1.37226	0.00072

System: 1,4-dimethylbenzene; phases: Liquid
Property: Refractive index (Na D-line) (Liquid); method: Standard Abbe refractometry
Temperature, K	Pressure, kPa	Refractive index (Na D-line)	uncertainty
298.15	101.325	1.49321	0.00072

System: hexane + hexyl(2-hydroxyethyl)dimethylammonium tetrafluoroborate; phases: Liquid mixture 1, Liquid mixture 2
Property: Mole fraction of hexyl(2-hydroxyethyl)dimethylammonium tetrafluoroborate (Liquid mixture 1); method: NMR
Pressure, kPa	Temperature, K	Mole fraction of hexyl(2-hydroxyethyl)dimethylammonium tetrafluoroborate	uncertainty
101	298.15	0.99	0.01

System: hexane + 1H-Imidazolium, 1,3-bis[(hexyloxy)methyl]-, tetrafluoroborate; phases: Liquid mixture 1, Liquid mixture 2
Property: Mole fraction of 1H-Imidazolium, 1,3-bis[(hexyloxy)methyl]-, tetrafluoroborate (Liquid mixture 1); method: NMR
Pressure, kPa	Temperature, K	Mole fraction of 1H-Imidazolium, 1,3-bis[(hexyloxy)methyl]-, tetrafluoroborate	uncertainty
101	298.15	0.44	0.02

System: 1,4-dimethylbenzene + hexane + butyl(2-hydroxyethyl)dimethylammonium tetrafluoroborate; phases: Liquid mixture 1, Liquid mixture 2
Fixed: Pressure, kPa = 1
Fixed: Temperature, K = 298.15
Property: Mole fraction of 1,4-dimethylbenzene (Liquid mixture 1); method: NMR
Property: Mole fraction of butyl(2-hydroxyethyl)dimethylammonium tetrafluoroborate (Liquid mixture 2); method: NMR
Property: Mole fraction of 1,4-dimethylbenzene (Liquid mixture 2); method: NMR
Mole fraction of butyl(2-hydroxyethyl)dimethylammonium tetrafluoroborate	Mole fraction of 1,4-dimethylbenzene	uncertainty	Mole fraction of butyl(2-hydroxyethyl)dimethylammonium tetrafluoroborate	uncertainty	Mole fraction of 1,4-dimethylbenzene	uncertainty
1	0	0.01	0	0.01	0	
0.91	0.08	0.03	0	0.01	0.22	
0.76	0.2	0.03	0	0.01	0.33	
0.7	0.27	0.03	0	0.01	0.44	
0.68	0.3	0.04	0	0.01	0.5	
0.6	0.38	0.03	0	0.01	0.53	
0.52	0.46	0.03	0	0.01	0.69	
0.41	0.57	0.03	0	0.01	0.76	
0.3	0.68	0.03	0	0.01	0.83	

System: 1,4-dimethylbenzene + hexane + hexyl(2-hydroxyethyl)dimethylammonium tetrafluoroborate; phases: Liquid mixture 2, Liquid mixture 1
Fixed: Temperature, K = 298.15
Fixed: Pressure, kPa = 101
Property: Mole fraction of hexyl(2-hydroxyethyl)dimethylammonium tetrafluoroborate (Liquid mixture 2); method: NMR
Property: Mole fraction of hexyl(2-hydroxyethyl)dimethylammonium tetrafluoroborate (Liquid mixture 1); method: NMR
Property: Mole fraction of 1,4-dimethylbenzene (Liquid mixture 1); method: NMR
Mole fraction of 1,4-dimethylbenzene	Mole fraction of hexyl(2-hydroxyethyl)dimethylammonium tetrafluoroborate	uncertainty	Mole fraction of hexyl(2-hydroxyethyl)dimethylammonium tetrafluoroborate	uncertainty	Mole fraction of 1,4-dimethylbenzene	uncertainty
0	0	0.01	0.99	0.01	0	
0.31	0	0.01	0.97	0.03	0.02	
0.45	0	0.01	0.94	0.03	0.05	
0.56	0	0.01	0.87	0.03	0.12	
0.63	0	0.01	0.7	0.03	0.29	
0.71	0	0.01	0.45	0.03	0.51	
0.76	0	0.01	0.36	0.03	0.6	

System: 1,4-dimethylbenzene + hexane + 1H-Imidazolium, 1,3-bis[(hexyloxy)methyl]-, tetrafluoroborate; phases: Liquid mixture 1, Liquid mixture 2
Fixed: Pressure, kPa = 101
Fixed: Temperature, K = 298.15
Property: Mole fraction of 1H-Imidazolium, 1,3-bis[(hexyloxy)methyl]-, tetrafluoroborate (Liquid mixture 1); method: NMR
Property: Mole fraction of 1H-Imidazolium, 1,3-bis[(hexyloxy)methyl]-, tetrafluoroborate (Liquid mixture 2); method: NMR
Property: Mole fraction of 1,4-dimethylbenzene (Liquid mixture 2); method: NMR
Mole fraction of 1,4-dimethylbenzene	Mole fraction of 1H-Imidazolium, 1,3-bis[(hexyloxy)methyl]-, tetrafluoroborate	uncertainty	Mole fraction of 1H-Imidazolium, 1,3-bis[(hexyloxy)methyl]-, tetrafluoroborate	uncertainty	Mole fraction of 1,4-dimethylbenzene	uncertainty
0	0.44	0.02	0	0.01	0	
0.14	0.4	0.02	0	0.01	0.2	
0.25	0.37	0.02	0	0.01	0.34	
0.33	0.34	0.02	0	0.01	0.41	
0.34	0.34	0.02	0	0.01	0.44	
0.35	0.34	0.02	0	0.01	0.45	
0.43	0.31	0.02	0	0.01	0.55	
0.47	0.29	0.02	0	0.01	0.6	
0.5	0.27	0.02	0	0.01	0.63	
0.63	0.2	0.02	0	0.01	0.74	
