Measured thermophysical data. Isobaric Vapor-Liquid Equilibrium for Isopropanol + Water + 1-Ethyl-3-methylimidazolium Tetrafluoroborate
Source: J. Chem. Eng. Data, 2008, 10.1021/je7003808
Compound 1: propan-2-ol, C3H8O, InChI=1S/C3H8O/c1-3(2)4/h3-4H,1-2H3
Compound 2: water, H2O, InChI=1S/H2O/h1H2
Compound 3: 1-ethyl-3-methylimidazolium tetrafluoroborate, C6H11BF4N2, InChI=1S/C6H11N2.BF4/c1-3-8-5-4-7(2)6-8;2-1(3,4)5/h4-6H,3H2,1-2H3;/q+1;-1

System: propan-2-ol + water; phases: Liquid, Gas
Fixed: Pressure, kPa = 101.32
Property: Boiling temperature at pressure P, K (Liquid); method: EBULLIO:UFactor:4
Mole fraction of propan-2-ol	Boiling temperature at pressure P, K	uncertainty
0.072	357.15	0.4
0.11	356.13	0.38
0.25	354.75	0.37
0.299	354.75	0.37
0.422	353.8	0.37
0.44	353.8	0.37
0.56	353.35	0.38
0.572	353.2	0.38
0.818	353.3	0.37
0.905	353.94	0.37
0.992	355.07	0.38

System: propan-2-ol + water; phases: Gas, Liquid
Fixed: Pressure, kPa = 101.32
Property: Mole fraction of propan-2-ol (Gas); method: Chromatography
Mole fraction of propan-2-ol	Mole fraction of propan-2-ol	uncertainty
0.072	0.487	0.021
0.11	0.511	0.021
0.25	0.519	0.021
0.299	0.54	0.021
0.422	0.55	0.021
0.44	0.56	0.021
0.56	0.616	0.021
0.572	0.621	0.021
0.818	0.784	0.021
0.905	0.866	0.021
0.992	0.988	0.012

System: propan-2-ol + water + 1-ethyl-3-methylimidazolium tetrafluoroborate; phases: Liquid, Gas
Fixed: Pressure, kPa = 101.32
Property: Boiling temperature at pressure P, K (Liquid); method: EBULLIO:UFactor:4
Mole fraction of 1-ethyl-3-methylimidazolium tetrafluoroborate	Solvent: Mole fraction of propan-2-ol	Boiling temperature at pressure P, K	uncertainty
0.08013	0.693	353.97	0.39
0.09125	0.98	355.5	0.38
0.09657	0.033	366.75	0.57
0.09785	0.127	360.85	0.54
0.09795	0.361	354.95	0.39
0.09797	0.238	355.8	0.39
0.09936	0.5	354.4	0.39
0.10043	0.587	354.1	0.38
0.1012	0.186	357.15	0.44
0.11707	0.798	354.55	0.38
0.1233	0.896	354.8	0.38
0.1537	0.716	355.55	0.38
0.1791	0.827	355.25	0.38
0.17965	0.878	354.25	0.38
0.18142	0.256	357	0.49
0.18156	0.402	356.25	0.44
0.1816	0.107	363.65	0.6
0.18325	0.185	359.65	0.59
0.1872	0.055	368.35	0.94
0.18721	0.599	355.05	0.38
0.1948	0.699	354.95	0.4
0.2177	0.5	355.15	0.46
0.25445	0.871	354.55	0.37
0.25445	0.904	354.45	0.37
0.25598	0.288	363.05	0.7
0.2574	0.686	357.75	0.46
0.2574	0.73	357.8	0.48
0.25804	0.843	355.05	0.38
0.26301	0.773	356.85	0.5
0.26444	0.378	361.15	0.54
0.26444	0.381	361	0.53
0.26557	0.166	368.55	0.76
0.26557	0.185	367.45	0.76
0.27786	0.575	358.25	0.6
0.28178	0.048	378.65	0.84

System: propan-2-ol + water + 1-ethyl-3-methylimidazolium tetrafluoroborate; phases: Gas, Liquid
Fixed: Pressure, kPa = 101.32
Property: Mole fraction of propan-2-ol (Gas); method: Chromatography
Mole fraction of 1-ethyl-3-methylimidazolium tetrafluoroborate	Solvent: Mole fraction of propan-2-ol	Mole fraction of propan-2-ol	uncertainty
0.08013	0.693	0.766	0.025
0.09125	0.98	0.981	0.019
0.09657	0.033	0.3	0.025
0.09785	0.127	0.466	0.024
0.09795	0.361	0.616	0.023
0.09797	0.238	0.563	0.021
0.09936	0.5	0.656	0.023
0.10043	0.587	0.7	0.025
0.1012	0.186	0.561	0.022
0.11707	0.798	0.843	0.021
0.1233	0.896	0.906	0.021
0.1537	0.716	0.832	0.022
0.1791	0.827	0.881	0.021
0.17965	0.878	0.905	0.021
0.18142	0.256	0.579	0.023
0.18156	0.402	0.671	0.023
0.1816	0.107	0.451	0.022
0.18325	0.185	0.53	0.021
0.1872	0.055	0.388	0.024
0.18721	0.599	0.769	0.025
0.1948	0.699	0.819	0.021
0.2177	0.5	0.725	0.024
0.25445	0.871	0.916	0.021
0.25445	0.904	0.937	0.021
0.25598	0.288	0.676	0.031
0.2574	0.686	0.833	0.021
0.2574	0.73	0.857	0.021
0.25804	0.843	0.906	0.021
0.26301	0.773	0.871	0.021
0.26444	0.378	0.71	0.024
0.26444	0.381	0.715	0.024
0.26557	0.166	0.55	0.025
0.26557	0.185	0.575	0.025
0.27786	0.575	0.802	0.026
0.28178	0.048	0.32	0.026
