Measured thermophysical data. Water Activity in Aqueous Amino Acid Solutions, with and without KCl, at 298.15 K
Source: J. Chem. Eng. Data, 2008, 10.1021/je700466s
Compound 1: 2-aminoacetic acid, C2H5NO2, InChI=1S/C2H5NO2/c3-1-2(4)5/h1,3H2,(H,4,5)
Compound 2: (S)-2-aminopropanoic acid, C3H7NO2, InChI=1S/C3H7NO2/c1-2(4)3(5)6/h2H,4H2,1H3,(H,5,6)/t2-/m0/s1
Compound 3: L-serine, C3H7NO3, InChI=1S/C3H7NO3/c4-2(1-5)3(6)7/h2,5H,1,4H2,(H,6,7)/t2-/m0/s1
Compound 4: water, H2O, InChI=1S/H2O/h1H2
Compound 5: potassium chloride, ClK, InChI=1S/ClH.K/h1H;/q;+1/p-1

System: 2-aminoacetic acid + water; phases: Liquid
Fixed: Temperature, K = 298.15
Fixed: Pressure, kPa = 101
Property: (Relative) activity of water (Liquid); method: water activity meter
Molality, mol/kg of 2-aminoacetic acid	(Relative) activity of water	uncertainty
0.25	0.996	0.002
0.25	0.996	0.002
0.499	0.991	0.002
0.5	0.99	0.002
0.75	0.987	0.002
0.751	0.986	0.002
1	0.983	0.002
1.001	0.983	0.002
1.245	0.98	0.002
1.25	0.979	0.002
1.5	0.976	0.002
1.501	0.975	0.002
1.747	0.972	0.002
1.754	0.972	0.002
1.999	0.968	0.002
2	0.967	0.002
2.247	0.964	0.002
2.248	0.963	0.002
2.5	0.961	0.002
2.503	0.96	0.002
2.745	0.957	0.002
2.792	0.955	0.002
3	0.952	0.002
3.001	0.953	0.002
3.114	0.951	0.002

System: (S)-2-aminopropanoic acid + water; phases: Liquid
Fixed: Temperature, K = 298.15
Fixed: Pressure, kPa = 101
Property: (Relative) activity of water (Liquid); method: water activity meter
Molality, mol/kg of (S)-2-aminopropanoic acid	(Relative) activity of water	uncertainty
0.199	0.996	0.002
0.299	0.995	0.002
0.4	0.992	0.002
0.4	0.992	0.002
0.498	0.991	0.002
0.599	0.989	0.002
0.6	0.989	0.002
0.697	0.988	0.002
0.798	0.986	0.002
0.8	0.986	0.002
0.896	0.984	0.002
0.998	0.983	0.002
1.002	0.983	0.002
1.1	0.98	0.002
1.102	0.981	0.002
1.198	0.979	0.002
1.203	0.978	0.002
1.298	0.976	0.002
1.304	0.977	0.002
1.394	0.975	0.002
1.499	0.973	0.002
1.5	0.973	0.002
1.599	0.971	0.002
1.695	0.969	0.002
1.793	0.968	0.002

System: L-serine + water; phases: Liquid
Fixed: Temperature, K = 298.15
Fixed: Pressure, kPa = 101
Property: (Relative) activity of water (Liquid); method: water activity meter
Molality, mol/kg of L-serine	(Relative) activity of water	uncertainty
0.25	0.995	0.002
0.25	0.996	0.002
0.499	0.992	0.002
0.5	0.991	0.002
0.751	0.987	0.002
0.752	0.988	0.002
0.999	0.983	0.002
1.247	0.98	0.002
1.247	0.98	0.002
1.499	0.976	0.002
1.745	0.974	0.002
1.747	0.974	0.002
2.002	0.97	0.002
2.243	0.966	0.002
2.249	0.966	0.002
2.5	0.963	0.002
2.745	0.959	0.002
2.751	0.96	0.002
2.997	0.957	0.002
3.25	0.953	0.002
3.254	0.953	0.002
3.495	0.95	0.002
3.739	0.947	0.002
3.749	0.947	0.002
3.995	0.943	0.002

System: L-serine + potassium chloride + water; phases: Liquid
Fixed: Temperature, K = 298.15
Fixed: Pressure, kPa = 101
Property: (Relative) activity of water (Liquid); method: water activity meter
Molality, mol/kg of potassium chloride	Molality, mol/kg of L-serine	(Relative) activity of water	uncertainty
1	0.3	0.964	0.002
1	0.486	0.961	0.002
1	0.802	0.957	0.002
1	0.972	0.954	0.002
1	1.298	0.951	0.002
1	1.501	0.948	0.002
1	1.803	0.944	0.002
1	1.94	0.941	0.002
1	1.944	0.942	0.002
1	2.251	0.937	0.002
1	2.422	0.936	0.002
1	2.505	0.934	0.002
1	2.752	0.931	0.002
1	2.999	0.928	0.002
1	3.244	0.924	0.002
1	3.247	0.923	0.002
1	3.494	0.921	0.002
1	3.507	0.921	0.002
1	3.747	0.917	0.002
1	3.883	0.915	0.002
1	3.999	0.914	0.002
1	2.999	0.927	0.002
2	0.25	0.933	0.002
2	0.5	0.93	0.002
2	0.501	0.93	0.002
2	0.75	0.928	0.002
2	0.998	0.923	0.002
2	0.999	0.924	0.002
2	1.25	0.919	0.002
2	1.498	0.916	0.002
2	1.499	0.916	0.002
2	1.749	0.913	0.002
2	2	0.91	0.002
2	2.246	0.907	0.002
2	2.493	0.902	0.002
2	2.502	0.903	0.002
2	2.756	0.9	0.002
2	2.998	0.896	0.002
2	3.003	0.896	0.002
2	3.24	0.893	0.002
2	3.498	0.89	0.002
2	3.741	0.886	0.002
2	3.993	0.883	0.002
2	4	0.883	0.002
2	2	0.909	0.002
3	0.251	0.899	0.002
3	0.5	0.896	0.002
3	0.751	0.893	0.002
3	0.997	0.89	0.002
3	1.247	0.888	0.002
3	1.495	0.885	0.002
3	1.748	0.882	0.002
3	1.753	0.882	0.002
3	2	0.877	0.002
3	2.005	0.878	0.002
3	2.247	0.875	0.002
3	2.249	0.876	0.002
3	2.496	0.871	0.002
3	2.503	0.87	0.002
3	2.746	0.868	0.002
3	3.002	0.864	0.002
3	3.004	0.864	0.002
3	3.242	0.861	0.002
3	3.499	0.859	0.002
3	3.747	0.855	0.002
3	3.987	0.853	0.002
3	3.998	0.853	0.002
3	3.499	0.858	0.002

System: (S)-2-aminopropanoic acid + potassium chloride + water; phases: Liquid
Fixed: Temperature, K = 298.15
Fixed: Pressure, kPa = 101
Property: (Relative) activity of water (Liquid); method: water activity meter
Molality, mol/kg of potassium chloride	Molality, mol/kg of (S)-2-aminopropanoic acid	(Relative) activity of water	uncertainty
1	0.2	0.964	0.002
1	0.398	0.961	0.002
1	0.399	0.961	0.002
1	0.596	0.957	0.002
1	0.6	0.957	0.002
1	0.799	0.954	0.002
1	0.999	0.95	0.002
1	1.001	0.95	0.002
1	1.186	0.946	0.002
1	1.201	0.946	0.002
1	1.399	0.942	0.002
1	1.602	0.939	0.002
1	1.637	0.938	0.002
1	1.747	0.936	0.002
1	1.772	0.935	0.002
1	0.2	0.965	0.002
2	0.199	0.931	0.002
2	0.214	0.931	0.002
2	0.399	0.928	0.002
2	0.409	0.928	0.002
2	0.599	0.925	0.002
2	0.749	0.922	0.002
2	0.798	0.921	0.002
2	0.999	0.917	0.002
2	1.002	0.918	0.002
2	1.2	0.914	0.002
2	1.201	0.914	0.002
2	1.323	0.911	0.002
2	1.398	0.91	0.002
2	1.597	0.906	0.002
2	1.6	0.906	0.002
2	1.742	0.903	0.002
2	1.799	0.903	0.002
3	0.2	0.899	0.002
3	0.349	0.897	0.002
3	0.4	0.895	0.002
3	0.499	0.893	0.002
3	0.599	0.891	0.002
3	0.789	0.888	0.002
3	0.8	0.888	0.002
3	1	0.884	0.002
3	1.002	0.884	0.002
3	1.194	0.88	0.002
3	1.2	0.88	0.002
3	1.293	0.878	0.002
3	1.397	0.876	0.002
3	1.502	0.874	0.002
3	1.598	0.871	0.002
3	1.737	0.869	0.002
3	0.2	0.9	0.002

System: 2-aminoacetic acid + potassium chloride + water; phases: Liquid
Fixed: Temperature, K = 298.15
Fixed: Pressure, kPa = 101
Property: (Relative) activity of water (Liquid); method: water activity meter
Molality, mol/kg of potassium chloride	Molality, mol/kg of 2-aminoacetic acid	(Relative) activity of water	uncertainty
1	0.25	0.965	0.002
1	0.5	0.959	0.002
1	0.749	0.956	0.002
1	1	0.952	0.002
1	1.247	0.949	0.002
1	1.5	0.945	0.002
1	1.746	0.941	0.002
1	1.75	0.942	0.002
1	2.001	0.939	0.002
1	2.247	0.935	0.002
1	2.498	0.931	0.002
1	2.743	0.927	0.002
1	3.002	0.924	0.002
2	0.249	0.934	0.002
2	0.499	0.929	0.002
2	0.748	0.926	0.002
2	1.002	0.923	0.002
2	1.247	0.918	0.002
2	1.252	0.918	0.002
2	1.498	0.915	0.002
2	1.504	0.914	0.002
2	1.749	0.911	0.002
2	1.995	0.907	0.002
2	2.242	0.904	0.002
2	2.503	0.899	0.002
2	2.75	0.896	0.002
2	2.994	0.893	0.002
3	0.25	0.9	0.002
3	0.499	0.897	0.002
3	0.749	0.893	0.002
3	0.999	0.89	0.002
3	1.251	0.886	0.002
3	1.494	0.884	0.002
3	1.747	0.879	0.002
3	1.999	0.877	0.002
3	2.253	0.873	0.002
3	2.499	0.87	0.002
3	2.753	0.865	0.002
3	3.001	0.863	0.002
3	3.002	0.862	0.002
