Measured thermophysical data. Densities and Viscosities of MTBE + Nonane or Decane at p = 0.1 MPa from (273.15 to 363.15) K
Source: J. Chem. Eng. Data, 2008, 10.1021/je700428f
Compound 1: 2-methoxy-2-methylpropane, C5H12O, InChI=1S/C5H12O/c1-5(2,3)6-4/h1-4H3, purity 99.96%
Compound 2: nonane, C9H20, InChI=1S/C9H20/c1-3-5-7-9-8-6-4-2/h3-9H2,1-2H3, purity 99.44%
Compound 3: decane, C10H22, InChI=1S/C10H22/c1-3-5-7-9-10-8-6-4-2/h3-10H2,1-2H3, purity 99.6%

System: 2-methoxy-2-methylpropane; phases: Liquid
Fixed: Pressure, kPa = 101
Property: Mass density, kg/m3 (Liquid); method: VIBTUB:UFactor:4
Temperature, K	Mass density, kg/m3	uncertainty
273.15	761.34	0.5
278.15	756.14	0.51
283.15	751.02	0.51
288.15	745.85	0.52
293.15	740.65	0.53
298.15	735.4	0.54
303.15	730.1	0.55
308.15	724.82	0.56
313.15	719.42	0.56
318.15	713.96	0.57

System: nonane; phases: Liquid
Fixed: Pressure, kPa = 101
Property: Viscosity, Pa*s (Liquid); method: Capillary tube (Ostwald; Ubbelohde) method
Temperature, K	Viscosity, Pa*s	uncertainty
273.15	0.000972	1e-05
278.15	0.000896	1e-05
283.15	0.000828	1e-05
288.15	0.000768	9e-06
293.15	0.000716	9e-06
298.15	0.000669	9e-06
303.15	0.000628	9e-06
308.15	0.00059	9e-06
313.15	0.000555	9e-06
318.15	0.000522	9e-06
323.15	0.000493	9e-06
328.15	0.000466	9e-06
333.15	0.000442	9e-06
338.15	0.00042	9e-06
343.15	0.000399	9e-06
348.15	0.00038	8e-06
353.15	0.000362	8e-06
358.15	0.000346	8e-06

System: nonane; phases: Liquid
Fixed: Pressure, kPa = 101
Property: Mass density, kg/m3 (Liquid); method: VIBTUB:UFactor:4
Temperature, K	Mass density, kg/m3	uncertainty
273.15	733.184	0.575
278.15	729.335	0.58
283.15	725.473	0.586
288.15	721.603	0.592
293.15	717.725	0.597
298.15	713.834	0.603
303.15	709.929	0.609
308.15	706.011	0.615
313.15	702.076	0.621
318.15	698.124	0.626
323.15	694.151	0.632
328.15	690.165	0.638
333.15	686.154	0.644
338.15	682.116	0.65
343.15	678.06	0.656
348.15	673.979	0.663
353.15	669.872	0.669
358.15	665.73	0.675
363.15	661.557	0.682

System: decane; phases: Liquid
Fixed: Pressure, kPa = 101
Property: Mass density, kg/m3 (Liquid); method: VIBTUB:UFactor:4
Temperature, K	Mass density, kg/m3	uncertainty
273.15	745.374	0.54
278.15	741.257	0.546
283.15	737.502	0.552
288.15	733.733	0.558
293.15	729.958	0.563
298.15	726.174	0.569
303.15	722.377	0.575
308.15	718.573	0.581
313.15	714.753	0.586
318.15	710.92	0.592
323.15	707.074	0.598
328.15	703.213	0.604
333.15	699.334	0.61
338.15	695.439	0.616
343.15	691.522	0.622
348.15	687.587	0.628
353.15	683.631	0.635
358.15	679.651	0.641
363.15	675.648	0.647

System: nonane + 2-methoxy-2-methylpropane; phases: Liquid
Fixed: Pressure, kPa = 101
Property: Viscosity, Pa*s (Liquid); method: Capillary tube (Ostwald; Ubbelohde) method
Temperature, K	Mole fraction of 2-methoxy-2-methylpropane	Viscosity, Pa*s	uncertainty
273.15	0	0.000972	1e-05
273.15	0.1006	0.000912	1e-05
273.15	0.2026	0.00085	1e-05
273.15	0.2995	0.000796	1e-05
273.15	0.4045	0.00074	9e-06
273.15	0.5003	0.000688	9e-06
273.15	0.6035	0.000632	9e-06
273.15	0.6998	0.000586	9e-06
273.15	0.7975	0.00054	9e-06
273.15	0.8971	0.000491	9e-06
278.15	0	0.000896	1e-05
278.15	0.1006	0.000842	1e-05
278.15	0.2026	0.000787	1e-05
278.15	0.2995	0.000738	9e-06
278.15	0.4045	0.000689	9e-06
278.15	0.5003	0.000641	9e-06
278.15	0.6035	0.000591	9e-06
278.15	0.6998	0.000549	9e-06
278.15	0.7975	0.000505	9e-06
278.15	0.8971	0.00046	9e-06
283.15	0	0.000828	1e-05
283.15	0.1006	0.00078	1e-05
283.15	0.2026	0.000731	9e-06
283.15	0.2995	0.000687	9e-06
283.15	0.4045	0.000643	9e-06
283.15	0.5003	0.000598	9e-06
283.15	0.6035	0.000554	9e-06
283.15	0.6998	0.000514	9e-06
283.15	0.7975	0.000474	9e-06
283.15	0.8971	0.000433	9e-06
288.15	0	0.000768	9e-06
288.15	0.1006	0.000726	9e-06
288.15	0.2026	0.000681	9e-06
288.15	0.2995	0.000641	9e-06
288.15	0.4045	0.0006	9e-06
288.15	0.5003	0.00056	9e-06
288.15	0.6035	0.00052	9e-06
288.15	0.6998	0.000484	9e-06
288.15	0.7975	0.000446	9e-06
288.15	0.8971	0.000407	9e-06
293.15	0	0.000716	9e-06
293.15	0.1006	0.000677	9e-06
293.15	0.2026	0.000637	9e-06
293.15	0.2995	0.000601	9e-06
293.15	0.4045	0.000564	9e-06
293.15	0.5003	0.000526	9e-06
293.15	0.6035	0.000489	9e-06
293.15	0.6998	0.000455	9e-06
293.15	0.7975	0.000418	9e-06
293.15	0.8971	0.000384	9e-06
298.15	0	0.000669	9e-06
298.15	0.1006	0.000634	9e-06
298.15	0.2026	0.000598	9e-06
298.15	0.2995	0.000564	9e-06
298.15	0.4045	0.000529	9e-06
298.15	0.5003	0.000496	9e-06
298.15	0.6035	0.000461	9e-06
298.15	0.6998	0.00043	9e-06
298.15	0.7975	0.000396	9e-06
298.15	0.8971	0.000363	9e-06
303.15	0	0.000628	9e-06
303.15	0.1006	0.000596	9e-06
303.15	0.2026	0.000563	9e-06
303.15	0.2995	0.000532	9e-06
303.15	0.4045	0.000498	9e-06
303.15	0.5003	0.000468	9e-06
303.15	0.6035	0.000436	9e-06
303.15	0.6998	0.000408	9e-06
303.15	0.7975	0.000377	9e-06
308.15	0	0.00059	9e-06
308.15	0.1006	0.00056	9e-06
308.15	0.2026	0.000531	9e-06
308.15	0.2995	0.000502	9e-06
308.15	0.4045	0.00047	9e-06
308.15	0.5003	0.000443	9e-06
308.15	0.6035	0.000413	9e-06
308.15	0.6998	0.000386	9e-06
308.15	0.7975	0.000357	8e-06
313.15	0	0.000555	9e-06
313.15	0.1006	0.000529	9e-06
313.15	0.2026	0.000498	9e-06
313.15	0.2995	0.000472	9e-06
313.15	0.4045	0.000446	9e-06
313.15	0.5003	0.000421	9e-06
313.15	0.6035	0.000391	9e-06
313.15	0.6998	0.000367	8e-06
318.15	0	0.000522	9e-06
318.15	0.1006	0.000498	9e-06
318.15	0.2026	0.000471	9e-06
318.15	0.2995	0.000446	9e-06
318.15	0.4045	0.000422	9e-06
318.15	0.5003	0.000401	9e-06
318.15	0.6035	0.000372	8e-06
318.15	0.6998	0.000348	8e-06
323.15	0	0.000493	9e-06
323.15	0.1006	0.00047	9e-06
323.15	0.2026	0.000446	9e-06
323.15	0.2995	0.000423	9e-06
323.15	0.4045	0.000402	9e-06
323.15	0.5003	0.000382	9e-06
323.15	0.6035	0.000354	8e-06
328.15	0	0.000466	9e-06
328.15	0.1006	0.000445	9e-06
328.15	0.2026	0.000424	9e-06
328.15	0.2995	0.000402	9e-06
328.15	0.4045	0.000383	8e-06
328.15	0.5003	0.000364	8e-06
333.15	0	0.000442	9e-06
333.15	0.1006	0.000423	9e-06
333.15	0.2026	0.000404	9e-06
333.15	0.2995	0.000383	9e-06
333.15	0.4045	0.000365	8e-06
333.15	0.5003	0.000347	8e-06
338.15	0	0.00042	9e-06
338.15	0.1006	0.000402	9e-06
338.15	0.2026	0.000386	9e-06
338.15	0.2995	0.000366	8e-06
338.15	0.4045	0.000348	8e-06
343.15	0	0.000399	9e-06
343.15	0.1006	0.000383	9e-06
343.15	0.2026	0.000368	8e-06
343.15	0.2995	0.000351	8e-06
348.15	0	0.00038	8e-06
348.15	0.1006	0.000366	8e-06
348.15	0.2026	0.000352	8e-06
353.15	0	0.000362	8e-06
353.15	0.1006	0.00035	8e-06
353.15	0.2026	0.000338	8e-06
358.15	0	0.000346	8e-06
358.15	0.1006	0.000335	8e-06

System: nonane + 2-methoxy-2-methylpropane; phases: Liquid
Fixed: Pressure, kPa = 101
Property: Mass density, kg/m3 (Liquid); method: VIBTUB:UFactor:4
Temperature, K	Mole fraction of 2-methoxy-2-methylpropane	Mass density, kg/m3	uncertainty
273.15	0	733.184	0.575
273.15	0.1085	734.69	0.57
273.15	0.1722	735.67	0.57
273.15	0.3037	737.89	0.56
273.15	0.4011	739.94	0.55
273.15	0.5008	742.31	0.55
273.15	0.6005	745.08	0.54
273.15	0.6992	748.17	0.54
273.15	0.8005	751.89	0.54
273.15	0.8925	755.81	0.54
273.15	1	761.34	0.5
278.15	0	729.335	0.58
278.15	0.1085	730.78	0.57
278.15	0.1722	731.71	0.57
278.15	0.3037	733.82	0.56
278.15	0.4011	735.78	0.56
278.15	0.5008	738.04	0.55
278.15	0.6005	740.68	0.55
278.15	0.6992	743.64	0.55
278.15	0.8005	747.2	0.54
278.15	0.8925	750.95	0.55
278.15	1	756.14	0.51
283.15	0	725.473	0.586
283.15	0.1085	726.84	0.58
283.15	0.1722	727.73	0.58
283.15	0.3037	729.73	0.57
283.15	0.4011	731.59	0.56
283.15	0.5008	733.74	0.56
283.15	0.6005	736.26	0.55
283.15	0.6992	739.08	0.55
283.15	0.8005	742.47	0.55
283.15	0.8925	746.06	0.55
283.15	1	751.02	0.51
288.15	0	721.603	0.592
288.15	0.1085	722.9	0.59
288.15	0.1722	723.73	0.58
288.15	0.3037	725.62	0.57
288.15	0.4011	727.39	0.57
288.15	0.5008	729.43	0.56
288.15	0.6005	731.81	0.56
288.15	0.6992	734.49	0.56
288.15	0.8005	737.72	0.55
288.15	0.8925	741.13	0.56
288.15	1	745.85	0.52
293.15	0	717.725	0.597
293.15	0.1085	718.92	0.59
293.15	0.1722	719.72	0.59
293.15	0.3037	721.51	0.58
293.15	0.4011	723.16	0.57
293.15	0.5008	725.09	0.57
293.15	0.6005	727.34	0.57
293.15	0.6992	729.87	0.56
293.15	0.8005	732.94	0.56
293.15	0.8925	736.17	0.56
293.15	1	740.65	0.53
298.15	0	713.834	0.603
298.15	0.1085	714.95	0.6
298.15	0.1722	715.7	0.59
298.15	0.3037	717.36	0.59
298.15	0.4011	718.92	0.58
298.15	0.5008	720.73	0.58
298.15	0.6005	722.84	0.57
298.15	0.6992	725.22	0.57
298.15	0.8005	728.11	0.57
298.15	0.8925	731.18	0.57
298.15	1	735.4	0.54
303.15	0	709.929	0.609
303.15	0.1085	710.96	0.6
303.15	0.1722	711.66	0.6
303.15	0.3037	713.21	0.59
303.15	0.4011	714.65	0.59
303.15	0.5008	716.34	0.58
303.15	0.6005	718.32	0.58
303.15	0.6992	720.55	0.57
303.15	0.8005	723.25	0.57
303.15	0.8925	726.13	0.57
303.15	1	730.1	0.55
308.15	0	706.011	0.615
308.15	0.1085	706.97	0.61
308.15	0.1722	707.6	0.6
308.15	0.3037	709.03	0.6
308.15	0.4011	710.36	0.59
308.15	0.5008	711.93	0.59
308.15	0.6005	713.77	0.58
308.15	0.6992	715.84	0.58
308.15	0.8005	718.35	0.58
308.15	0.8925	721.04	0.58
308.15	1	724.82	0.56
313.15	0	702.076	0.621
313.15	0.1085	702.96	0.61
313.15	0.1722	703.52	0.61
313.15	0.3037	704.82	0.6
313.15	0.4011	706.05	0.6
313.15	0.5008	707.49	0.59
313.15	0.6005	709.18	0.59
313.15	0.6992	711.09	0.59
313.15	0.8005	713.41	0.58
313.15	0.8925	715.91	0.58
313.15	1	719.42	0.56
318.15	0	698.124	0.626
318.15	0.1085	698.89	0.62
318.15	0.1722	699.42	0.62
318.15	0.3037	700.6	0.61
318.15	0.4011	701.71	0.6
318.15	0.5008	703.01	0.6
318.15	0.6005	704.56	0.6
318.15	0.6992	706.3	0.59
318.15	0.8005	708.45	0.59
318.15	0.8925	710.72	0.59
318.15	1	713.96	0.57
323.15	0	694.151	0.632
323.15	0.1085	694.83	0.63
323.15	0.1722	695.3	0.62
323.15	0.3037	696.34	0.62
323.15	0.4011	697.34	0.61
323.15	0.5008	698.51	0.61
323.15	0.6005	699.89	0.6
323.15	0.6992	701.46	0.6
323.15	0.8005	703.35	0.6
323.15	0.8925	705.48	0.59
328.15	0	690.165	0.638
328.15	0.1085	690.74	0.63
328.15	0.1722	691.16	0.63
328.15	0.3037	692.06	0.62
328.15	0.4011	692.94	0.62
328.15	0.5008	693.97	0.61
328.15	0.6005	695.19	0.61
328.15	0.6992	696.59	0.61
328.15	0.8005	698.27	0.6
333.15	0	686.154	0.644
333.15	0.1085	686.64	0.64
333.15	0.1722	686.99	0.63
333.15	0.3037	687.76	0.63
333.15	0.4011	688.5	0.62
333.15	0.5008	689.39	0.62
333.15	0.6005	690.45	0.62
333.15	0.6992	691.66	0.61
333.15	0.8005	693.14	0.61
338.15	0	682.116	0.65
338.15	0.1085	682.52	0.64
338.15	0.1722	682.79	0.64
338.15	0.3037	683.42	0.63
338.15	0.4011	684.02	0.63
338.15	0.5008	684.76	0.63
338.15	0.6005	685.66	0.62
338.15	0.6992	686.68	0.62
338.15	0.8005	687.95	0.62
343.15	0	678.06	0.656
343.15	0.1085	678.37	0.65
343.15	0.1722	678.57	0.65
343.15	0.3037	679.05	0.64
343.15	0.4011	679.52	0.64
343.15	0.5008	680.11	0.63
343.15	0.6005	680.83	0.63
348.15	0	673.979	0.663
348.15	0.1085	674.19	0.66
348.15	0.1722	674.31	0.65
348.15	0.3037	674.64	0.65
348.15	0.4011	674.98	0.64
353.15	0	669.872	0.669
353.15	0.1085	669.95	0.66
353.15	0.1722	670.02	0.66
353.15	0.3037	670.19	0.66
353.15	0.4011	670.38	0.65
358.15	0	665.73	0.675
358.15	0.1085	665.71	0.67
358.15	0.1722	665.7	0.67
358.15	0.3037	665.7	0.66
358.15	0.4011	665.75	0.66
363.15	0	661.557	0.682
363.16	0.1085	661.43	0.68
363.16	0.1722	661.33	0.67
363.16	0.3037	661.17	0.67

System: decane + 2-methoxy-2-methylpropane; phases: Liquid
Fixed: Pressure, kPa = 101
Property: Viscosity, Pa*s (Liquid); method: Capillary tube (Ostwald; Ubbelohde) method
Temperature, K	Mole fraction of 2-methoxy-2-methylpropane	Viscosity, Pa*s	uncertainty
273.15	0.1016	0.0012	1.1e-05
273.15	0.2002	0.001093	1.1e-05
273.15	0.3003	0.001004	1.1e-05
273.15	0.4013	0.000909	1e-05
273.15	0.4992	0.000822	1e-05
273.15	0.6005	0.000741	1e-05
273.15	0.7	0.000659	9e-06
273.15	0.8005	0.000584	9e-06
273.15	0.8996	0.000513	9e-06
278.15	0.1016	0.001092	1.1e-05
278.15	0.2002	0.001002	1.1e-05
278.15	0.3003	0.000924	1e-05
278.15	0.4013	0.000841	1e-05
278.15	0.4992	0.000765	1e-05
278.15	0.6005	0.000689	1e-05
278.15	0.7	0.000615	9e-06
278.15	0.8005	0.000547	9e-06
278.15	0.8996	0.000481	9e-06
283.15	0.1016	0.001001	1.1e-05
283.15	0.2002	0.000923	1e-05
283.15	0.3003	0.000855	1e-05
283.15	0.4013	0.000779	1e-05
283.15	0.4992	0.000713	9e-06
283.15	0.6005	0.000643	9e-06
283.15	0.7	0.000575	9e-06
283.15	0.8005	0.000513	9e-06
283.15	0.8996	0.000452	9e-06
288.15	0.1016	0.000923	1e-05
288.15	0.2002	0.000856	1e-05
288.15	0.3003	0.000793	1e-05
288.15	0.4013	0.000726	1e-05
288.15	0.4992	0.000664	9e-06
288.15	0.6005	0.000601	9e-06
288.15	0.7	0.00054	9e-06
288.15	0.8005	0.000481	9e-06
288.15	0.8996	0.000426	9e-06
293.15	0.1016	0.000855	1e-05
293.15	0.2002	0.000795	1e-05
293.15	0.3003	0.000743	9e-06
293.15	0.4013	0.000678	9e-06
293.15	0.4992	0.000622	9e-06
293.15	0.6005	0.000563	9e-06
293.15	0.7	0.000507	9e-06
293.15	0.8005	0.000454	9e-06
293.15	0.8996	0.000402	9e-06
298.15	0.1016	0.000797	1e-05
298.15	0.2002	0.000742	9e-06
298.15	0.3003	0.000692	9e-06
298.15	0.4013	0.000635	9e-06
298.15	0.4992	0.000584	9e-06
298.15	0.6005	0.000531	9e-06
298.15	0.7	0.000479	9e-06
298.15	0.8005	0.000428	9e-06
298.15	0.8996	0.000379	9e-06
303.15	0.1016	0.000744	9e-06
303.15	0.2002	0.000695	9e-06
303.15	0.3003	0.00065	9e-06
303.15	0.4013	0.000597	9e-06
303.15	0.4992	0.00055	9e-06
303.15	0.6005	0.0005	9e-06
303.15	0.7	0.000452	9e-06
303.15	0.8005	0.000405	9e-06
303.15	0.8996	0.000358	9e-06
308.15	0.1016	0.000698	9e-06
308.15	0.2002	0.000653	9e-06
308.15	0.3003	0.000606	9e-06
308.15	0.4013	0.000562	9e-06
308.15	0.4992	0.000519	9e-06
308.15	0.6005	0.000474	9e-06
308.15	0.7	0.000428	9e-06
308.15	0.8005	0.000382	9e-06
313.15	0.1016	0.000654	9e-06
313.15	0.2002	0.000614	9e-06
313.15	0.3003	0.000572	9e-06
313.15	0.4013	0.000531	9e-06
313.15	0.4992	0.000491	9e-06
313.15	0.6005	0.000449	9e-06
313.15	0.7	0.000404	9e-06
313.15	0.8005	0.000362	9e-06
318.15	0.1016	0.000614	9e-06
318.15	0.2002	0.000579	9e-06
318.15	0.3003	0.00054	9e-06
318.15	0.4013	0.000503	9e-06
318.15	0.4992	0.000462	9e-06
318.15	0.6005	0.000426	9e-06
318.15	0.7	0.000383	9e-06
323.15	0.1016	0.000577	9e-06
323.15	0.2002	0.000546	9e-06
323.15	0.3003	0.00051	9e-06
323.15	0.4013	0.000476	9e-06
323.15	0.4992	0.000441	9e-06
323.15	0.6005	0.000406	9e-06
323.15	0.7	0.000365	9e-06
328.15	0.1016	0.000546	9e-06
328.15	0.2002	0.000517	9e-06
328.15	0.3003	0.000483	9e-06
328.15	0.4013	0.000451	9e-06
328.15	0.4992	0.000418	9e-06
328.15	0.6005	0.000386	9e-06
328.15	0.7	0.00035	9e-06
333.15	0.1016	0.000514	9e-06
333.15	0.2002	0.000489	9e-06
333.15	0.3003	0.000459	9e-06
333.15	0.4013	0.000432	9e-06
333.15	0.4992	0.000399	9e-06
333.15	0.6005	0.000371	8e-06
338.15	0.1016	0.000489	9e-06
338.15	0.2002	0.000466	9e-06
338.15	0.3003	0.000438	9e-06
338.15	0.4013	0.000413	9e-06
338.15	0.4992	0.000382	9e-06
338.15	0.6005	0.000359	8e-06
343.15	0.1016	0.000466	9e-06
343.15	0.2002	0.000445	9e-06
343.15	0.3003	0.00042	9e-06
343.15	0.4013	0.000398	9e-06
343.15	0.4992	0.000369	9e-06
348.15	0.1016	0.000443	9e-06
348.15	0.2002	0.000424	9e-06
348.15	0.3003	0.000402	9e-06
348.15	0.4013	0.000383	8e-06
353.15	0.1016	0.000422	9e-06
353.15	0.2002	0.000406	9e-06
353.15	0.3003	0.000386	8e-06
353.15	0.4013	0.000372	8e-06
358.15	0.1016	0.000407	9e-06
358.15	0.2002	0.000388	8e-06
358.15	0.3003	0.000372	8e-06

System: decane + 2-methoxy-2-methylpropane; phases: Liquid
Fixed: Pressure, kPa = 101
Property: Mass density, kg/m3 (Liquid); method: VIBTUB:UFactor:4
Temperature, K	Mole fraction of 2-methoxy-2-methylpropane	Mass density, kg/m3	uncertainty
273.15	0	745.374	0.54
273.15	0.1019	745.52	0.54
273.15	0.2041	746.17	0.53
273.15	0.3077	747.06	0.53
273.15	0.3999	748	0.53
273.15	0.5005	749.23	0.52
273.15	0.6066	750.84	0.52
273.15	0.6866	752.32	0.52
273.15	0.7973	754.83	0.52
273.15	0.8999	757.82	0.52
273.15	1	761.34	0.5
278.15	0	741.257	0.546
278.15	0.1019	741.7	0.54
278.15	0.2041	742.28	0.54
278.15	0.3077	743.09	0.54
278.15	0.3999	743.94	0.53
278.15	0.5005	745.06	0.53
278.15	0.6066	746.53	0.53
278.15	0.6866	747.9	0.53
278.15	0.7973	750.21	0.53
278.15	0.8999	752.99	0.52
278.15	1	756.14	0.51
283.15	0	737.502	0.552
283.15	0.1019	737.88	0.55
283.15	0.2041	738.38	0.55
283.15	0.3077	739.1	0.54
283.15	0.3999	739.86	0.54
283.15	0.5005	740.87	0.54
283.15	0.6066	742.2	0.53
283.15	0.6866	743.44	0.53
283.15	0.7973	745.55	0.53
283.15	0.8999	748.12	0.53
283.15	1	751.02	0.51
288.15	0	733.733	0.558
288.15	0.1019	734.04	0.55
288.15	0.2041	734.47	0.55
288.15	0.3077	735.1	0.55
288.15	0.3999	735.77	0.55
288.15	0.5005	736.66	0.54
288.15	0.6066	737.84	0.54
288.15	0.6866	738.97	0.54
288.15	0.7973	740.88	0.54
288.15	0.8999	743.23	0.54
288.15	1	745.85	0.52
293.15	0	729.958	0.563
293.15	0.1019	730.2	0.56
293.15	0.2041	730.55	0.56
293.15	0.3077	731.09	0.55
293.15	0.3999	731.66	0.55
293.15	0.5005	732.44	0.55
293.15	0.6066	733.47	0.55
293.15	0.6866	734.47	0.55
293.15	0.7973	736.17	0.54
293.15	0.8999	738.3	0.54
293.15	1	740.65	0.53
298.15	0	726.174	0.569
298.15	0.1019	726.35	0.57
298.15	0.2041	726.62	0.56
298.15	0.3077	727.06	0.56
298.15	0.3999	727.53	0.56
298.15	0.5005	728.19	0.56
298.15	0.6066	729.07	0.55
298.15	0.6866	729.94	0.55
298.15	0.7973	731.44	0.55
298.15	0.8999	733.33	0.55
298.15	1	735.4	0.54
303.15	0	722.377	0.575
303.15	0.1019	722.46	0.57
303.15	0.2041	722.68	0.57
303.15	0.3077	723.02	0.57
303.15	0.3999	723.38	0.56
303.15	0.5005	723.93	0.56
303.15	0.6066	724.65	0.56
303.15	0.6866	725.39	0.56
303.15	0.7973	726.66	0.56
303.15	0.8999	728.32	0.55
303.15	1	730.1	0.55
308.15	0	718.573	0.581
308.15	0.1019	718.59	0.58
308.15	0.2041	718.72	0.58
308.15	0.3077	718.96	0.57
308.15	0.3999	719.22	0.57
308.15	0.5005	719.62	0.57
308.15	0.6066	720.2	0.57
308.15	0.6866	720.81	0.56
308.15	0.7973	721.85	0.56
308.15	0.8999	723.26	0.56
308.15	1	724.82	0.56
313.15	0	714.753	0.586
313.15	0.1019	714.7	0.58
313.15	0.2041	714.74	0.58
313.15	0.3077	714.88	0.58
313.15	0.3999	715.03	0.58
313.15	0.5005	715.3	0.57
313.15	0.6066	715.7	0.57
313.15	0.6866	716.18	0.57
313.15	0.7973	717	0.57
313.15	0.8999	718.16	0.57
313.15	1	719.42	0.56
318.15	0	710.92	0.592
318.15	0.1019	710.81	0.59
318.15	0.2041	710.74	0.59
318.15	0.3077	710.78	0.59
318.15	0.3999	710.82	0.58
318.15	0.5005	710.97	0.58
318.15	0.6066	711.2	0.58
318.15	0.6866	711.53	0.58
318.15	0.7973	712.1	0.58
318.15	0.8999	713.01	0.58
318.15	1	713.96	0.57
323.15	0	707.074	0.598
323.15	0.1019	706.89	0.6
323.15	0.2041	706.73	0.59
323.15	0.3077	706.65	0.59
323.15	0.3999	706.59	0.59
323.15	0.5005	706.6	0.59
323.15	0.6066	706.67	0.59
323.15	0.6866	706.84	0.59
323.15	0.7973	707.18	0.58
323.15	0.8999	707.81	0.58
328.15	0	703.213	0.604
328.15	0.1019	702.96	0.6
328.15	0.2041	702.7	0.6
328.15	0.3077	702.51	0.6
328.15	0.3999	702.33	0.6
328.15	0.5005	702.22	0.59
328.15	0.6066	702.11	0.59
328.15	0.6866	702.11	0.59
328.15	0.7973	702.19	0.59
328.15	0.8999	702.55	0.59
333.15	0	699.334	0.61
333.15	0.1019	699	0.61
333.15	0.2041	698.64	0.61
333.15	0.3077	698.34	0.6
333.15	0.3999	698.05	0.6
333.15	0.5005	697.78	0.6
333.15	0.6066	697.5	0.6
333.15	0.6866	697.32	0.6
333.15	0.7973	697.15	0.6
338.15	0	695.439	0.616
338.15	0.1019	695.02	0.61
338.15	0.2041	694.56	0.61
338.15	0.3077	694.14	0.61
338.15	0.3999	693.73	0.61
338.15	0.5005	693.31	0.61
338.15	0.6066	692.86	0.61
338.15	0.6866	692.58	0.61
338.15	0.7973	692.06	0.61
343.15	0	691.522	0.622
343.15	0.1019	691.02	0.62
343.15	0.2041	690.46	0.62
343.15	0.3077	689.92	0.62
343.15	0.3999	689.38	0.62
343.15	0.5005	688.8	0.62
343.15	0.6066	688.18	0.62
343.15	0.6866	687.71	0.62
343.15	0.7973	686.92	0.62
348.15	0	687.587	0.628
348.15	0.1019	687.01	0.63
348.15	0.2041	686.34	0.63
348.15	0.3077	685.67	0.62
348.15	0.3999	685.01	0.62
348.15	0.5005	684.26	0.62
348.15	0.6066	683.43	0.62
353.15	0	683.631	0.635
353.15	0.1019	682.96	0.63
353.15	0.2041	682.18	0.63
353.15	0.3077	681.38	0.63
353.15	0.3999	680.59	0.63
353.15	0.5005	679.69	0.63
353.15	0.6066	678.65	0.63
358.15	0	679.651	0.641
358.15	0.1019	678.89	0.64
358.15	0.2041	678	0.64
358.15	0.3077	677.06	0.64
358.15	0.3999	676.14	0.64
363.15	0	675.648	0.647
363.15	0.1019	674.79	0.65
363.15	0.2041	673.78	0.65
363.15	0.3077	672.71	0.65
363.15	0.3999	671.66	0.65
