Measured thermophysical data. Vapor-Liquid Equilibrium Data for the Binary Mixture Difluoromethane (HFC-32) + Pentafluoroethane (HFC-125) of an Alternative Refrigerant
Source: J. Chem. Eng. Data, 2007, 10.1021/je700011a
Compound 1: difluoromethane, CH2F2, InChI=1S/CH2F2/c2-1-3/h1H2, purity 99.98%
Compound 2: pentafluoroethane, C2HF5, InChI=1S/C2HF5/c3-1(4)2(5,6)7/h1H, purity 99.98%

System: difluoromethane; phases: Liquid, Gas
Property: Vapor or sublimation pressure, kPa (Liquid); method: EBULLIO:UFactor:3
Temperature, K	Vapor or sublimation pressure, kPa	uncertainty
265.15	624.1	7.4
275.15	866.5	10.2
283.15	1107	13
293.15	1475	17.3
303.15	1925	22.5

System: pentafluoroethane; phases: Liquid, Gas
Property: Vapor or sublimation pressure, kPa (Liquid); method: EBULLIO:UFactor:3
Temperature, K	Vapor or sublimation pressure, kPa	uncertainty
265.15	517	6.3
275.15	714.3	8.4
283.15	908.8	10.7
293.15	1205	14.1
303.15	1567	18.3

System: difluoromethane + pentafluoroethane; phases: Gas, Liquid
Property: Vapor or sublimation pressure, kPa (Gas); method: EBULLIO:UFactor:3
Mole fraction of difluoromethane	Temperature, K	Vapor or sublimation pressure, kPa	uncertainty
0	265.15	517	6.3
0	275.15	714.3	8.4
0	283.15	908.8	10.7
0	293.15	1205	14.1
0	303.15	1567	18.3
0.0723	275.15	732.8	8.8
0.0937	265.15	537.3	6.5
0.0956	283.15	926.8	11
0.1015	275.15	740.4	9
0.164	303.15	1683.5	19.9
0.1708	265.15	553.3	6.6
0.1736	293.15	1299.1	15.4
0.1926	283.15	962.1	11.5
0.2289	275.15	776.8	9.2
0.2293	283.15	980.2	11.6
0.2427	265.15	561.8	6.7
0.2583	265.15	562.8	6.7
0.2714	303.15	1736.6	20.4
0.2833	275.15	788.6	9.4
0.2909	265.15	567.8	6.8
0.2948	293.15	1340.8	15.8
0.3124	283.15	1007	11.8
0.3125	275.15	802.6	9.5
0.3244	293.15	1348.4	15.8
0.3255	283.15	1013	11.9
0.3669	283.15	1026.6	12.1
0.3798	303.15	1781.7	20.9
0.3986	293.15	1373.6	16.1
0.4286	275.15	824.6	9.8
0.4442	265.15	591.4	7
0.4716	303.15	1816	21.3
0.478	293.15	1398.6	16.4
0.4827	275.15	837.5	9.9
0.5021	283.15	1059.2	12.5
0.5468	265.15	603.9	7.2
0.5539	303.15	1839.4	21.6
0.5569	293.15	1422.6	16.7
0.6075	293.15	1437.3	16.9
0.617	275.15	859.1	10.1
0.6219	303.15	1869.6	21.9
0.6271	283.15	1083.8	13.2
0.635	265.15	613.4	7.3
0.6458	283.15	1089.2	13.5
0.6706	293.15	1450.3	17
0.6722	303.15	1887	22.1
0.6897	265.15	619.6	7.3
0.7211	283.15	1096.5	12.9
0.7338	293.15	1460.7	17.1
0.7394	303.15	1893.4	22.1
0.7736	265.15	624.8	7.4
0.7747	275.15	867.1	10.2
0.7912	303.15	1905.9	22.3
0.7936	283.15	1106.6	13
0.7972	293.15	1470.4	17.2
0.8395	275.15	872.5	10.3
0.8548	283.15	1109.4	13
0.8657	275.15	881.1	10.4
0.8931	265.15	628.1	7.4
0.9104	283.15	1112.3	13.1
0.9108	265.15	628.6	7.4
0.9274	275.15	878.9	10.4
1	265.15	624.1	7.4
1	275.15	866.5	10.2
1	283.15	1107	13
1	293.15	1475	17.3
1	303.15	1925	22.5

System: difluoromethane + pentafluoroethane; phases: Gas, Liquid
Property: Mole fraction of difluoromethane (Gas); method: Chromatography
Mole fraction of difluoromethane	Temperature, K	Mole fraction of difluoromethane	uncertainty
0	265.15	0	0.0001
0	275.15	0	0.0001
0	283.15	0	0.0001
0	293.15	0	0.0001
0	303.15	0	0.0001
0.0723	275.15	0.1004	0.0159
0.0937	265.15	0.1179	0.016
0.0956	283.15	0.1209	0.0158
0.1015	275.15	0.1309	0.0155
0.164	303.15	0.2086	0.0158
0.1708	265.15	0.2282	0.016
0.1736	293.15	0.2288	0.0159
0.1926	283.15	0.2344	0.0159
0.2289	275.15	0.2876	0.0159
0.2293	283.15	0.2815	0.0159
0.2427	265.15	0.3077	0.0152
0.2583	265.15	0.3109	0.0156
0.2714	303.15	0.314	0.0158
0.2833	275.15	0.3427	0.0158
0.2909	265.15	0.3441	0.0158
0.2948	293.15	0.35	0.0162
0.3124	283.15	0.3718	0.0159
0.3125	275.15	0.3811	0.0159
0.3244	293.15	0.3875	0.0159
0.3255	283.15	0.3865	0.0158
0.3669	283.15	0.4261	0.0159
0.3798	303.15	0.4321	0.0159
0.3986	293.15	0.4571	0.016
0.4286	275.15	0.4952	0.016
0.4442	265.15	0.5035	0.0161
0.4716	303.15	0.5132	0.016
0.478	293.15	0.5382	0.0159
0.4827	275.15	0.5434	0.0159
0.5021	283.15	0.5556	0.0159
0.5468	265.15	0.5937	0.0158
0.5539	303.15	0.5908	0.0159
0.5569	293.15	0.6027	0.0157
0.6075	293.15	0.6477	0.0157
0.617	275.15	0.6666	0.0156
0.6219	303.15	0.6589	0.0157
0.6271	283.15	0.6761	0.0157
0.635	265.15	0.6779	0.0156
0.6458	283.15	0.687	0.0154
0.6706	293.15	0.6968	0.0156
0.6722	303.15	0.6918	0.0156
0.6897	265.15	0.7162	0.0155
0.7211	283.15	0.7483	0.0155
0.7338	293.15	0.7562	0.0156
0.7394	303.15	0.7588	0.0156
0.7736	265.15	0.7783	0.0155
0.7747	275.15	0.7938	0.0154
0.7912	303.15	0.7982	0.0154
0.7936	283.15	0.8076	0.0155
0.7972	293.15	0.8103	0.0155
0.8395	275.15	0.8486	0.0154
0.8548	283.15	0.869	0.0155
0.8657	275.15	0.8665	0.0152
0.8931	265.15	0.8916	0.0154
0.9104	283.15	0.9156	0.0154
0.9108	265.15	0.9062	0.0154
0.9274	275.15	0.9021	0.0155
1	265.15	1	0.0001
1	275.15	1	0.0001
1	283.15	1	0.0001
1	293.15	1	0.0001
1	303.15	1	0.0001
