Measured thermophysical data. Vapor-Liquid Equilibria of the Perfluoromethyl Vinyl Ether and Chlorotrifluoroethylene System
Source: J. Chem. Eng. Data, 2007, 10.1021/je7001144
Compound 1: perfluoromethyl vinyl ether, C3H3F3O, InChI=1S/C3H3F3O/c1-2-7-3(4,5)6/h2H,1H2, purity 99.9%
Compound 2: 1-chloro-1,2,2-trifluroethene, C2ClF3, InChI=1S/C2ClF3/c3-1(4)2(5)6, purity 99.8%

System: perfluoromethyl vinyl ether; phases: Liquid, Gas
Property: Vapor or sublimation pressure, kPa (Liquid); method: Ebulliometric method (Recirculating still)
Temperature, K	Vapor or sublimation pressure, kPa	uncertainty
267.67	222.4	0.9
272.54	264.7	1.1
277.45	313.2	1.3
282.62	367.3	1.5

System: 1-chloro-1,2,2-trifluroethene; phases: Liquid, Gas
Property: Vapor or sublimation pressure, kPa (Liquid); method: Ebulliometric method (Recirculating still)
Temperature, K	Vapor or sublimation pressure, kPa	uncertainty
267.67	248	1
272.54	294.4	1.2
277.45	347.8	1.4
282.62	408.1	1.6

System: 1-chloro-1,2,2-trifluroethene + perfluoromethyl vinyl ether; phases: Liquid, Gas
Property: Vapor or sublimation pressure, kPa (Liquid); method: Ebulliometric method (Recirculating still)
Mole fraction of perfluoromethyl vinyl ether	Temperature, K	Vapor or sublimation pressure, kPa	uncertainty
0	267.67	248	1
0	272.54	294.4	1.2
0	277.45	347.8	1.4
0	282.62	408.1	1.6
0.0658	267.67	252.5	1
0.0672	272.54	298.9	1.2
0.0696	277.45	353.9	1.4
0.0703	282.62	414.1	1.7
0.1402	277.45	359	1.5
0.1426	267.67	255.4	1.1
0.1489	272.54	303.2	1.2
0.1526	282.62	420.8	1.7
0.1911	277.45	361.4	1.5
0.1933	267.67	256.5	1.1
0.205	272.54	305.1	1.2
0.2142	282.62	424.5	1.7
0.2327	267.67	256.6	1.1
0.2482	277.45	361.4	1.5
0.2504	272.54	305.3	1.2
0.2609	282.62	424.7	1.7
0.3075	267.67	255.2	1.1
0.3205	277.45	358.6	1.5
0.339	282.62	421.5	1.7
0.3452	272.54	302.6	1.2
0.4241	267.67	251.3	1
0.4352	277.45	353.1	1.4
0.4454	272.54	298.4	1.2
0.4465	282.62	414.1	1.7
0.5535	277.45	345.3	1.4
0.5729	272.54	291.8	1.2
0.5866	267.67	244.1	1
0.6005	282.62	401.9	1.6
0.65	277.45	337.9	1.4
0.6633	272.54	285.7	1.2
0.681	282.62	394.3	1.6
0.6812	267.67	239.2	1
0.772	282.62	386.4	1.6
0.781	272.54	277.7	1.1
0.7812	267.67	233.5	1
0.79	277.45	327.5	1.3
0.8805	267.67	227.5	0.9
0.8821	272.54	271.6	1.1
0.8869	277.45	321.3	1.3
0.893	282.62	376.7	1.5
1	267.67	222.4	0.9
1	272.54	264.7	1.1
1	277.45	313.2	1.3
1	282.62	367.3	1.5

System: 1-chloro-1,2,2-trifluroethene + perfluoromethyl vinyl ether; phases: Gas, Liquid
Property: Mole fraction of perfluoromethyl vinyl ether (Gas); method: Chromatography
Mole fraction of perfluoromethyl vinyl ether	Temperature, K	Mole fraction of perfluoromethyl vinyl ether	uncertainty
0	267.67	0	0.0001
0	272.54	0	0.0001
0	277.45	0	0.0001
0	282.62	0	0.0001
0.0658	267.67	0.079	0.003
0.0672	272.54	0.0803	0.003
0.0696	277.45	0.0814	0.0031
0.0703	282.62	0.0828	0.003
0.1402	277.45	0.1601	0.0031
0.1426	267.67	0.1533	0.003
0.1489	272.54	0.1581	0.0031
0.1526	282.62	0.165	0.003
0.1911	277.45	0.2002	0.003
0.1933	267.67	0.1953	0.0031
0.205	272.54	0.2088	0.0032
0.2142	282.62	0.2122	0.0032
0.2327	267.67	0.227	0.0033
0.2482	277.45	0.2347	0.0032
0.2504	272.54	0.2432	0.0034
0.2609	282.62	0.2595	0.0034
0.3075	267.67	0.2941	0.0037
0.3205	277.45	0.3021	0.0037
0.339	282.62	0.3188	0.0038
0.3452	272.54	0.3262	0.0038
0.4241	267.67	0.3965	0.0043
0.4352	277.45	0.4024	0.0044
0.4454	272.54	0.4134	0.0044
0.4465	282.62	0.4204	0.0045
0.5535	277.45	0.5156	0.005
0.5729	272.54	0.5278	0.0049
0.5866	267.67	0.5428	0.0048
0.6005	282.62	0.5617	0.0047
0.65	277.45	0.6147	0.0044
0.6633	272.54	0.6151	0.0044
0.681	282.62	0.6477	0.0042
0.6812	267.67	0.6403	0.0042
0.772	282.62	0.7411	0.0036
0.781	272.54	0.745	0.0037
0.7812	267.67	0.744	0.0037
0.79	277.45	0.7587	0.0035
0.8805	267.67	0.858	0.0033
0.8821	272.54	0.8605	0.0033
0.8869	277.45	0.8589	0.0033
0.893	282.62	0.8685	0.0032
1	267.67	1	0.0001
1	272.54	1	0.0001
1	277.45	1	0.0001
1	282.62	1	0.0001
