Measured thermophysical data. Thermodynamics of Cyclohexanone Oxime
Source: J. Chem. Eng. Data, 2008, 10.1021/je700546r
Compound 1: cyclohexanone oxime, C6H11NO, InChI=1S/C6H11NO/c8-7-6-4-2-1-3-5-6/h8H,1-5H2, purity 95%

System: cyclohexanone oxime; phases: Crystal 1, Liquid, Gas
Property: Molar enthalpy of transition or fusion, kJ/mol (Crystal 1); method: Adiabatic calorimetry
Molar enthalpy of transition or fusion, kJ/mol	uncertainty
12.454	0.019

System: cyclohexanone oxime; phases: Crystal 1, Liquid, Gas
Property: Triple point temperature, K (Crystal 1); method: Adiabatic calorimetry
Triple point temperature, K	uncertainty
362.2	0.09

System: cyclohexanone oxime; phases: Crystal 2, Crystal 1, Gas
Property: Triple point temperature, K (Crystal 2); method: Adiabatic calorimetry
Triple point temperature, K	uncertainty
301.5	1

System: cyclohexanone oxime; phases: Crystal 3, Crystal 2, Gas
Property: Triple point temperature, K (Crystal 3); method: Adiabatic calorimetry
Triple point temperature, K	uncertainty
241.5	1

System: cyclohexanone oxime; phases: Crystal 3, Crystal 2, Gas
Property: Molar enthalpy of transition or fusion, kJ/mol (Crystal 3); method: Adiabatic calorimetry
Molar enthalpy of transition or fusion, kJ/mol	uncertainty
0	0.001

System: cyclohexanone oxime; phases: Crystal 2, Crystal 1, Gas
Property: Molar enthalpy of transition or fusion, kJ/mol (Crystal 2); method: Adiabatic calorimetry
Molar enthalpy of transition or fusion, kJ/mol	uncertainty
0	0.001

System: cyclohexanone oxime; phases: Crystal 3
Fixed: Pressure, kPa = 100
Property: Molar heat capacity at constant pressure, J/K/mol (Crystal 3); method: Small (less than 1 g) adiabatic calorimetry
Temperature, K	Molar heat capacity at constant pressure, J/K/mol	uncertainty
5	0.3674	0.0231
10	2.982	0.058
15	7.554	0.119
20	12.9	0.14
25	18.36	0.16
30	23.53	0.18
35	28.21	0.2
40	32.42	0.23
45	36.26	0.25
50	39.78	0.27
60	45.91	0.29
70	51.28	0.33
80	56.24	0.35
90	60.87	0.4
100	65.47	0.42
110	69.94	0.44
120	74.33	0.46
130	78.7	0.48
140	83.1	0.5
150	87.59	0.52
160	92.16	0.55
170	96.94	0.57
180	102.1	0.6
190	107.7	0.6
200	113.9	0.7
210	122.3	0.7
220	132.6	0.7
230	141.9	0.8
240	150.7	0.8

System: cyclohexanone oxime; phases: Crystal 2
Fixed: Pressure, kPa = 100
Property: Molar heat capacity at constant pressure, J/K/mol (Crystal 2); method: Small (less than 1 g) adiabatic calorimetry
Temperature, K	Molar heat capacity at constant pressure, J/K/mol	uncertainty
250	153.4	0.8
260	163.4	0.9
270	174.5	0.9
280	184.4	1
290	191.9	1
298.15	196.2	1.1
300	197.1	1.1

System: cyclohexanone oxime; phases: Crystal 1
Fixed: Pressure, kPa = 100
Property: Molar heat capacity at constant pressure, J/K/mol (Crystal 1); method: Small (less than 1 g) adiabatic calorimetry
Temperature, K	Molar heat capacity at constant pressure, J/K/mol	uncertainty
310	192.8	1
320	197.5	1.1
330	203	1.1
340	209	1.1
350	215.2	1.1
360	221.1	1.2
362.2	222.4	1.2

System: cyclohexanone oxime; phases: Liquid
Fixed: Pressure, kPa = 100
Property: Molar heat capacity at constant pressure, J/K/mol (Liquid); method: Small (less than 1 g) adiabatic calorimetry
Temperature, K	Molar heat capacity at constant pressure, J/K/mol	uncertainty
362.2	271.5	1.4
365	273.1	1.4
370	276	1.4

System: cyclohexanone oxime; phases: Crystal 3, Gas
Property: Molar heat capacity at saturation pressure, J/K/mol (Crystal 3); method: Small (less than 1 g) adiabatic calorimetry
Temperature, K	Molar heat capacity at saturation pressure, J/K/mol	uncertainty
4.9	0.33898	0.02099
5.136	0.39671	0.02191
5.378	0.46488	0.02294
5.624	0.54188	0.0245
5.878	0.62777	0.02623
6.165	0.73332	0.02849
6.485	0.86213	0.03125
6.812	1.0064	0.0344
7.147	1.1673	0.038
7.488	1.3381	0.0418
7.836	1.5301	0.046
8.187	1.7352	0.0505
8.542	1.9562	0.0554
8.902	2.1896	0.0606
9.268	2.4377	0.066
9.636	2.7078	0.072
10	2.9809	0.0585
10.48	3.3609	0.0636
11.06	3.8301	0.0701
11.64	4.3255	0.0769
12.23	4.8537	0.0839
12.83	5.4079	0.0913
13.43	5.9918	0.0988
14.03	6.5715	0.106
14.64	7.1526	0.1134
15.26	7.7959	0.1216
15.98	8.6012	0.1314
16.81	9.4967	0.1419
17.65	10.365	0.152
18.49	11.28	0.162
19.34	12.181	0.172
20.19	13.084	0.138
21.32	14.349	0.145
22.74	15.894	0.153
24.16	17.456	0.16
25.59	18.999	0.165
27.02	20.499	0.17
28.49	21.997	0.173
30.12	23.63	0.182
31.73	25.216	0.19
33.5	26.876	0.199
35.28	28.484	0.207
37.06	30.012	0.214
38.84	31.474	0.222
40.63	32.894	0.229
42.51	34.381	0.237
44.49	35.899	0.245
46.48	37.344	0.252
48.47	38.758	0.26
50.46	40.107	0.266
52.45	41.416	0.274
54.45	42.643	0.28
56.45	43.84	0.286
58.46	45.024	0.292
60.47	46.162	0.298
62.48	47.276	0.304
64.5	48.369	0.31
66.51	49.443	0.316
68.52	50.507	0.321
70.54	51.546	0.326
72.56	52.586	0.332
74.59	53.59	0.337
76.61	54.603	0.342
78.65	55.597	0.348
79.94	56.264	0.351
80.68	56.576	0.353
81.67	57.037	0.355
82.2	57.238	0.357
82.71	57.543	0.358
83.39	57.845	0.359
84.24	58.198	0.362
84.75	58.471	0.363
85.1	58.585	0.363
86.15	59.049	0.366
86.83	59.395	0.368
88.07	59.96	0.371
88.55	60.203	0.372
90	60.852	0.397
90.28	61.007	0.398
91.95	61.754	0.401
92.01	61.805	0.401
93.75	62.621	0.405
93.89	62.671	0.406
95.49	63.419	0.409
95.85	63.556	0.41
97.23	64.21	0.413
97.81	64.447	0.414
98.97	65.031	0.417
99.77	65.369	0.418
100.72	65.829	0.42
101.74	66.248	0.422
102.52	66.597	0.424
103.72	67.142	0.427
104.37	67.436	0.428
105.7	68.037	0.431
106.23	68.291	0.432
107.69	68.921	0.435
108.09	69.08	0.436
109.68	69.811	0.439
109.95	69.916	0.44
111.68	70.687	0.443
111.81	70.758	0.444
113.68	71.569	0.447
113.68	71.558	0.447
115.55	72.371	0.451
115.69	72.449	0.452
117.41	73.203	0.455
117.7	73.346	0.456
119.29	74.027	0.459
119.71	74.215	0.46
121.16	74.846	0.463
121.72	75.08	0.464
123.03	75.633	0.467
123.73	75.978	0.468
124.91	76.462	0.471
125.75	76.855	0.472
126.79	77.293	0.475
127.76	77.722	0.477
128.67	78.113	0.478
129.79	78.601	0.481
130.55	78.91	0.483
131.81	79.494	0.485
132.43	79.754	0.486
133.83	80.384	0.49
134.31	80.585	0.49
135.86	81.282	0.494
136.2	81.418	0.494
137.88	82.162	0.498
138.09	82.254	0.498
139.9	83.046	0.502
139.98	83.084	0.502
141.87	83.927	0.506
141.92	83.955	0.506
143.76	84.77	0.51
143.95	84.852	0.51
145.65	85.617	0.514
145.97	85.734	0.515
147.54	86.492	0.519
148	86.671	0.52
149.44	87.35	0.522
150.03	87.591	0.523
151.34	88.171	0.527
152.05	88.519	0.528
153.24	89.045	0.531
154.08	89.422	0.533
155.13	89.889	0.535
156.1	90.343	0.537
157.03	90.765	0.539
158.12	91.274	0.541
158.93	91.646	0.543
160.13	92.237	0.546
160.83	92.535	0.547
162.15	93.182	0.551
162.73	93.455	0.552
164.16	94.145	0.555
164.63	94.346	0.556
166.17	95.08	0.559
166.54	95.254	0.56
168.18	96.066	0.564
168.44	96.201	0.565
170.18	97.045	0.569
170.35	97.126	0.57
172.19	98.05	0.574
172.26	98.073	0.574
174.17	99.058	0.579
174.19	99.046	0.578
176.08	100.02	0.58
176.19	100.08	0.58
177.99	101.03	0.59
178.2	101.13	0.59
179.9	102.04	0.59
180.2	102.17	0.59
181.81	103.07	0.6
182.19	103.23	0.6
183.72	104.11	0.61
184.18	104.31	0.61
185.64	105.14	0.61
186.16	105.44	0.61
187.55	106.25	0.62
188.14	106.57	0.62
189.46	107.37	0.62
190.12	107.71	0.62
191.37	108.48	0.62
192.1	108.92	0.63
193.29	109.62	0.63
194.08	110.15	0.63
195.2	110.84	0.63
196.05	111.36	0.64
197.13	112.05	0.64
198.02	112.6	0.64
199.05	113.28	0.64
199.97	113.87	0.65
200.97	114.62	0.65
202	115.31	0.66
202.89	116	0.66
203.92	116.79	0.67
204.81	117.51	0.67
205.74	118.31	0.67
206.72	119.13	0.68
207.56	119.91	0.68
208.63	120.93	0.68
209.36	121.66	0.69
210.55	122.71	0.69
211.17	123.38	0.69
212.46	124.68	0.7
212.97	125.27	0.7
214.38	126.63	0.71
214.76	127.11	0.72
216.3	128.63	0.72
216.54	128.94	0.73
217	129.41	0.73
217.73	130.26	0.73
218.21	130.69	0.73
218.32	130.87	0.73
218.98	131.5	0.74
219.5	132.12	0.74
220.09	132.7	0.74
220.14	132.72	0.74
220.87	133.52	0.74
221.26	133.99	0.75
222.06	134.69	0.75
222.75	135.43	0.75
223.02	135.78	0.75
224.01	136.62	0.76
224.62	137.24	0.76
224.76	137.52	0.76
225.92	138.42	0.77
226.48	138.92	0.77
226.5	139.12	0.77
227.85	140.09	0.78
228.24	140.6	0.78
228.33	140.45	0.78
229.78	141.6	0.79
229.98	141.91	0.79
230.18	141.86	0.79
231.71	143.03	0.79
231.71	143.15	0.79
232.03	143.15	0.79
233.43	144.26	0.8
233.64	144.32	0.8
233.87	144.33	0.8
235.14	145.41	0.8
235.57	145.51	0.8
235.71	145.65	0.8
236.85	146.62	0.81
237.5	146.68	0.81
237.54	146.94	0.81
237.54	146.94	0.81
238.56	147.84	0.81
239.36	148.9	0.82
239.43	148.81	0.82
239.79	150.04	0.83
241.18	153.75	0.85
241.36	153.6	0.84
241.48	154.07	0.85

System: cyclohexanone oxime; phases: Crystal 2, Gas
Property: Molar heat capacity at saturation pressure, J/K/mol (Crystal 2); method: Small (less than 1 g) adiabatic calorimetry
Temperature, K	Molar heat capacity at saturation pressure, J/K/mol	uncertainty
242.99	148.41	0.82
243.3	148.43	0.82
243.42	148.52	0.82
244.82	149.34	0.82
245.25	149.53	0.82
245.37	149.83	0.83
246.66	150.69	0.83
247.07	151.16	0.83
247.18	150.98	0.83
248.48	152.19	0.84
248.78	152.63	0.84
250.29	153.82	0.84
250.48	154.01	0.84
252.11	155.49	0.85
252.36	155.81	0.85
253.91	157.22	0.86
254.12	157.42	0.86
255.71	159	0.87
255.8	159.11	0.87
257.47	160.79	0.88
257.5	160.82	0.88
259.14	162.49	0.89
259.28	162.64	0.89
260.8	164.29	0.89
261.05	164.53	0.9
262.46	166.09	0.9
262.82	166.41	0.9
264.11	167.84	0.91
264.58	168.33	0.91
265.75	169.58	0.92
266.34	170.21	0.92
267.39	171.43	0.93
268.08	172.13	0.93
269.02	173.27	0.94
269.82	174.08	0.94
270.64	175.04	0.95
271.56	175.95	0.95
272.26	176.79	0.95
273.28	177.73	0.96
273.87	178.52	0.96
275.02	179.53	0.97
275.47	180.26	0.97
276.74	181.37	0.98
277.08	181.92	0.98
278.45	183.01	0.99
278.67	183.43	0.99
280.15	184.62	1
280.26	185.03	1
281.85	186.12	1
281.85	186.38	1
283.43	187.69	1.01
283.54	187.5	1.01
285.01	188.93	1.01
285.24	188.79	1.01
286.58	189.97	1.02
286.93	189.9	1.02
288.15	191	1.02
288.61	190.97	1.02
289.72	191.92	1.03
290.29	191.83	1.03
291.28	192.69	1.03
291.97	192.78	1.03
292.14	192.79	1.03
292.85	193.59	1.04
293.65	193.64	1.04
293.7	193.66	1.04
294.41	194.19	1.04
295.26	194.41	1.04
295.32	194.51	1.04
295.97	194.99	1.04
296.81	195.24	1.04
297	195.34	1.05
297.53	195.76	1.05
298.36	196.04	1.05
298.66	196.34	1.05
299.09	196.66	1.05
299.91	197.34	1.05
300.33	197.85	1.06
300.64	198.3	1.06
301.45	198.75	1.06

System: cyclohexanone oxime; phases: Crystal 1, Gas
Property: Molar heat capacity at saturation pressure, J/K/mol (Crystal 1); method: Small (less than 1 g) adiabatic calorimetry
Temperature, K	Molar heat capacity at saturation pressure, J/K/mol	uncertainty
301.99	196.75	1.06
302.19	195.88	1.05
303.01	192.59	1.03
303.67	191.89	1.03
303.76	191.84	1.03
304.57	191.66	1.03
305.34	191.58	1.03
305.36	191.49	1.03
305.83	191.51	1.03
306.14	191.69	1.03
306.91	191.81	1.03
307.05	191.78	1.03
307.6	191.89	1.03
307.71	191.96	1.03
308.49	192.2	1.03
308.74	192.41	1.03
309.27	192.53	1.03
309.38	192.47	1.03
310.07	192.72	1.03
310.43	193	1.03
310.95	193.22	1.03
311.16	193.22	1.03
311.68	193.28	1.04
312.22	193.77	1.04
312.72	193.93	1.04
312.94	194.04	1.04
313.36	194.05	1.04
314.11	194.56	1.04
314.48	194.7	1.04
314.72	194.7	1.04
315.03	194.86	1.04
316	195.45	1.05
316.25	195.55	1.05
316.49	195.61	1.05
316.71	195.66	1.05
317.89	196.42	1.05
318.01	196.38	1.05
318.27	196.48	1.05
318.38	196.46	1.05
319.77	197.45	1.06
319.77	197.36	1.05
320.04	197.43	1.06
320.11	197.4	1.06
321.54	198.27	1.06
321.81	198.43	1.06
321.98	198.37	1.06
323.3	199.26	1.06
323.58	199.58	1.07
323.8	199.44	1.07
325.05	200.28	1.07
325.35	200.52	1.07
325.62	200.47	1.07
326.81	201.27	1.07
327.11	201.48	1.07
327.43	201.55	1.08
328.56	202.22	1.08
328.87	202.64	1.08
329.24	202.56	1.08
330.32	203.27	1.08
330.63	203.71	1.09
331.06	203.58	1.09
331.23	203.73	1.09
332.4	204.63	1.09
332.88	204.71	1.09
332.98	204.75	1.09
334.15	205.6	1.1
334.7	205.74	1.1
334.74	205.77	1.1
335.91	206.77	1.1
336.49	206.75	1.1
336.52	206.77	1.1
337.67	207.8	1.11
338.25	207.78	1.11
338.35	207.86	1.11
339.42	208.77	1.11
339.99	208.85	1.11
340.17	209	1.11
341.17	209.83	1.12
341.74	209.95	1.12
341.99	210.15	1.12
342.93	210.86	1.12
343.49	210.94	1.12
343.81	211.29	1.12
344.68	212.1	1.13
345.25	212.02	1.13
345.63	212.36	1.13
346.43	213.18	1.13
346.99	213.12	1.13
347.45	213.43	1.13
348.18	214.14	1.14
348.74	214.13	1.14
349.27	214.58	1.14
349.93	215.3	1.14
350.48	215.24	1.14
351.09	215.74	1.14
351.67	216.38	1.15
352.41	216.96	1.15
352.91	217.26	1.15
353.42	217.49	1.15
354.55	219.52	1.16
354.73	219	1.16
355.16	218.64	1.16

System: cyclohexanone oxime; phases: Liquid, Gas
Property: Molar heat capacity at saturation pressure, J/K/mol (Liquid); method: Small (less than 1 g) adiabatic calorimetry
Temperature, K	Molar heat capacity at saturation pressure, J/K/mol	uncertainty
363.8	272.42	1.42
364.48	272.66	1.42
364.59	273	1.43
365.34	273.22	1.42
365.92	273.48	1.43
366.16	273.91	1.43
366.88	274.16	1.43
367.36	274.33	1.43
367.52	274.57	1.43
367.73	274.96	1.43
368.42	275.12	1.43
368.79	275.25	1.43
368.96	275.31	1.44

System: cyclohexanone oxime; phases: Crystal 3
Fixed: Pressure, kPa = 100
Property: Molar enthalpy function {Hm(T)-Hm(0)}/T, J/K/mol (Crystal 3); method: Small (less than 1 g) adiabatic calorimetry
Temperature, K	Molar enthalpy function {Hm(T)-Hm(0)}/T, J/K/mol	uncertainty
5	0.09088	0.01698
10	0.7729	0.028
15	2.233	0.048
20	4.228	0.071
25	6.508	0.085
30	8.921	0.124
35	11.35	0.14
40	13.72	0.15
45	16.02	0.16
50	18.22	0.17
60	22.34	0.19
70	26.1	0.22
80	29.56	0.23
90	32.78	0.28
100	35.82	0.3
110	38.72	0.31
120	41.51	0.33
130	44.2	0.34
140	46.82	0.35
150	49.39	0.36
160	51.92	0.38
170	54.42	0.39
180	56.93	0.4
190	59.45	0.41
200	62.01	0.42
210	64.67	0.44
220	67.52	0.45
230	70.56	0.47
240	73.68	0.48

System: cyclohexanone oxime; phases: Crystal 2
Fixed: Pressure, kPa = 100
Property: Molar enthalpy function {Hm(T)-Hm(0)}/T, J/K/mol (Crystal 2); method: Small (less than 1 g) adiabatic calorimetry
Temperature, K	Molar enthalpy function {Hm(T)-Hm(0)}/T, J/K/mol	uncertainty
250	76.77	0.49
260	79.91	0.51
270	83.21	0.53
280	86.65	0.54
290	90.15	0.56
298.15	93	0.58
300	93.64	0.58

System: cyclohexanone oxime; phases: Crystal 1
Fixed: Pressure, kPa = 100
Property: Molar enthalpy function {Hm(T)-Hm(0)}/T, J/K/mol (Crystal 1); method: Small (less than 1 g) adiabatic calorimetry
Temperature, K	Molar enthalpy function {Hm(T)-Hm(0)}/T, J/K/mol	uncertainty
310	96.51	0.59
320	99.59	0.6
330	102.6	0.6
340	105.7	0.7
350	108.7	0.7
360	111.8	0.7
362.2	112.4	0.7

System: cyclohexanone oxime; phases: Liquid
Fixed: Pressure, kPa = 100
Property: Molar enthalpy function {Hm(T)-Hm(0)}/T, J/K/mol (Liquid); method: Small (less than 1 g) adiabatic calorimetry
Temperature, K	Molar enthalpy function {Hm(T)-Hm(0)}/T, J/K/mol	uncertainty
362.2	146.8	0.8
365	147.8	0.8
370	149.5	0.8

System: cyclohexanone oxime; phases: Crystal 3
Fixed: Pressure, kPa = 100
Property: Molar entropy, J/K/mol (Crystal 3); method: Small (less than 1 g) adiabatic calorimetry
Temperature, K	Molar entropy, J/K/mol	uncertainty
5	0.1211	0.026
10	1.027	0.05
15	3.054	0.091
20	5.956	0.144
25	9.421	0.175
30	13.23	0.23
35	17.22	0.26
40	21.26	0.29
45	25.31	0.33
50	29.31	0.36
60	37.13	0.42
70	44.61	0.48
80	51.79	0.53
90	58.68	0.62
100	65.33	0.68
110	71.78	0.72
120	78.06	0.77
130	84.18	0.81
140	90.17	0.86
150	96.06	0.89
160	101.9	1
170	107.6	1
180	113.3	1
190	118.9	1
200	124.6	1.1
210	130.4	1.2
220	136.3	1.2
230	142.4	1.2
240	148.6	1.2

System: cyclohexanone oxime; phases: Crystal 2
Fixed: Pressure, kPa = 100
Property: Molar entropy, J/K/mol (Crystal 2); method: Small (less than 1 g) adiabatic calorimetry
Temperature, K	Molar entropy, J/K/mol	uncertainty
250	154.7	1.4
260	160.9	1.4
270	167.3	1.4
280	173.9	1.4
290	180.5	1.5
298.15	185.8	1.6
300	187.1	1.6

System: cyclohexanone oxime; phases: Crystal 1
Fixed: Pressure, kPa = 100
Property: Molar entropy, J/K/mol (Crystal 1); method: Small (less than 1 g) adiabatic calorimetry
Temperature, K	Molar entropy, J/K/mol	uncertainty
310	193.1	1.6
320	199.3	1.6
330	205.4	1.7
340	211.6	1.7
350	217.7	1.8
360	223.9	1.8
362.2	225.2	1.8

System: cyclohexanone oxime; phases: Liquid
Fixed: Pressure, kPa = 100
Property: Molar entropy, J/K/mol (Liquid); method: Small (less than 1 g) adiabatic calorimetry
Temperature, K	Molar entropy, J/K/mol	uncertainty
362.2	259.6	2.1
365	261.7	2.1
370	265.4	2.1

System: cyclohexanone oxime; phases: Crystal 2, Gas
Property: Vapor or sublimation pressure, kPa (Crystal 2); method: KNUDSEN:flow
Temperature, K	Vapor or sublimation pressure, kPa	uncertainty
288.11	0.001028	6.3e-05
293.82	0.00186	0.000121
293.87	0.001759	0.000115
298.77	0.003118	0.000191

System: cyclohexanone oxime; phases: Crystal 1, Gas
Property: Vapor or sublimation pressure, kPa (Crystal 1); method: KNUDSEN:flow
Temperature, K	Vapor or sublimation pressure, kPa	uncertainty
303.73	0.005234	0.000321
303.74	0.005145	0.000315
308.7	0.00837	0.000513
313.62	0.01375	0.00084
323.32	0.03373	0.00217
323.35	0.03472	0.00223

System: cyclohexanone oxime; phases: Crystal 2, Gas
Property: Vapor or sublimation pressure, kPa (Crystal 2); method: Transpiration method
Temperature, K	Vapor or sublimation pressure, kPa	uncertainty
285.7	0.00078	6e-05
290	0.00118	9e-05
292.6	0.00157	0.00012
295.1	0.00215	0.00016
298.1	0.00275	0.0002
298.2	0.00302	0.00022
298.2	0.00293	0.00021
301.1	0.00396	0.00028

System: cyclohexanone oxime; phases: Crystal 1, Gas
Property: Vapor or sublimation pressure, kPa (Crystal 1); method: Transpiration method
Temperature, K	Vapor or sublimation pressure, kPa	uncertainty
302.9	0.005	0.00036
305.4	0.00626	0.00045
307.6	0.00806	0.00059
310.2	0.01034	0.00075
313	0.0136	0.00097
315.3	0.01601	0.00116
318	0.02155	0.00156
320.3	0.02671	0.00192
323.1	0.03364	0.00242
325.4	0.04273	0.00308
328	0.05312	0.00381
330.4	0.06593	0.00473
333.1	0.08234	0.00592
338.2	0.1232	0.0087
340.2	0.1376	0.0098
343.3	0.1758	0.0126
345.6	0.213	0.0152
348.3	0.2639	0.0188

System: cyclohexanone oxime; phases: Liquid, Gas
Property: Vapor or sublimation pressure, kPa (Liquid); method: Transpiration method
Temperature, K	Vapor or sublimation pressure, kPa	uncertainty
364.6	0.8624	0.0603
367.9	1.0304	0.0726
370.5	1.1809	0.0834
373.6	1.3883	0.098
376.6	1.6608	0.117
377.7	1.7587	0.1236
379.7	1.9217	0.1349
382.8	2.2215	0.1564
385.8	2.5741	0.1813
388.9	3.0464	0.2143
391.9	3.4856	0.2447
394.9	3.9783	0.279
365.7	0.8948	0.0632
369.7	1.1191	0.0787
373.7	1.4052	0.0991
377.8	1.7862	0.1255
381.8	2.1243	0.1492
