Measured thermophysical data. Liquid-Liquid Equilibria of Hydrofluoroethers and Ionic Liquid 1-Ethyl-3-methylimidazolium Bis(trifluoromethylsulfonyl)imide
Source: J. Chem. Eng. Data, 2007, 10.1021/je700365z
Compound 1: heptafluoropropyl methyl ether, C4H3F7O, InChI=1S/C4H3F7O/c1-12-4(10,11)2(5,6)3(7,8)9/h1H3
Compound 2: methyl nonafluoroisobutyl ether, C5H3F9O, InChI=1S/C5H3F9O/c1-15-5(13,14)2(6,3(7,8)9)4(10,11)12/h1H3
Compound 3: 1-ethoxy-1,1,2,2,3,3,4,4,4-nonafluorobutane, C6H5F9O, InChI=1S/C6H5F9O/c1-2-16-6(14,15)4(9,10)3(7,8)5(11,12)13/h2H2,1H3
Compound 4: 1,1,1,2,2,3,4,5,5,5-decafluoro-3-methoxy-4-(trifluoromethyl)pentane, C7H3F13O, InChI=1S/C7H3F13O/c1-21-4(11,3(9,10)7(18,19)20)2(8,5(12,13)14)6(15,16)17/h1H3
Compound 5: 2-trifluoromethyl-3-ethoxydodecafluorohexane, C9H5F15O, InChI=1S/C9H5F15O/c1-2-25-6(15,3(10,7(16,17)18)8(19,20)21)4(11,12)5(13,14)9(22,23)24/h2H2,1H3
Compound 6: 1-ethyl-3-methylimidazolium bis((trifluoromethyl)sulfonyl)imide, C8H11F6N3O4S2, InChI=1S/C6H11N2.C2F6NO4S2/c1-3-8-5-4-7(2)6-8;3-1(4,5)14(10,11)9-15(12,13)2(6,7)8/h4-6H,3H2,1-2H3;/q+1;-1

System: methyl nonafluoroisobutyl ether; phases: Liquid
Fixed: Pressure, kPa = 101.325
Property: Mass density, kg/m3 (Liquid); method: Pycnometric method
Temperature, K	Mass density, kg/m3	uncertainty
283	1551	2
297.1	1514	2
303.4	1497	2
313.7	1470	2
323.7	1444	2
333.1	1419	2

System: 2-trifluoromethyl-3-ethoxydodecafluorohexane; phases: Liquid
Fixed: Pressure, kPa = 101.325
Property: Mass density, kg/m3 (Liquid); method: Pycnometric method
Temperature, K	Mass density, kg/m3	uncertainty
283.3	1648	2
297.3	1618	2
303.5	1605	2
313.5	1584	2
323.8	1563	2
333.1	1543	2

System: heptafluoropropyl methyl ether + 1-ethyl-3-methylimidazolium bis((trifluoromethyl)sulfonyl)imide; phases: Liquid mixture 1, Liquid mixture 2
Fixed: Pressure, kPa = 101
Property: Molar volume, m3/mol (Liquid mixture 1); method: Pycnometric method
Temperature, K	Molar volume, m3/mol	uncertainty
283	0.0002337	2.2e-06
294.9	0.0002348	2.2e-06
303.4	0.0002362	8e-07
313.7	0.0002372	1e-06
323.7	0.0002389	8e-07
333	0.0002398	1.2e-06

System: heptafluoropropyl methyl ether + 1-ethyl-3-methylimidazolium bis((trifluoromethyl)sulfonyl)imide; phases: Liquid mixture 2, Liquid mixture 1
Fixed: Pressure, kPa = 101
Property: Molar volume, m3/mol (Liquid mixture 2); method: Pycnometric method
Temperature, K	Molar volume, m3/mol	uncertainty
283	0.0001386	1.2e-06
294.9	0.0001415	6e-07
303.4	0.000144	1.2e-06
313.7	0.0001468	1.2e-06
323.7	0.00015	1.2e-06
333	0.000153	1.2e-06

System: heptafluoropropyl methyl ether + 1-ethyl-3-methylimidazolium bis((trifluoromethyl)sulfonyl)imide; phases: Liquid mixture 1, Liquid mixture 2
Fixed: Pressure, kPa = 101.3
Property: Mole fraction of heptafluoropropyl methyl ether (Liquid mixture 1); method: OTHER
Temperature, K	Mole fraction of heptafluoropropyl methyl ether	uncertainty
283	0.173	0.006
294.9	0.18	0.002
303.4	0.183	0.004
313.7	0.19	0.006
323.7	0.191	0.006
333	0.193	0.006

System: heptafluoropropyl methyl ether + 1-ethyl-3-methylimidazolium bis((trifluoromethyl)sulfonyl)imide; phases: Liquid mixture 2, Liquid mixture 1
Fixed: Pressure, kPa = 101.3
Property: Mole fraction of heptafluoropropyl methyl ether (Liquid mixture 2); method: OTHER
Temperature, K	Mole fraction of heptafluoropropyl methyl ether	uncertainty
283	0.997	0.003
294.9	0.999	0.001
303.4	0.998	0.002
313.7	0.997	0.003
323.7	0.997	0.003
333	0.997	0.003

System: methyl nonafluoroisobutyl ether + 1-ethyl-3-methylimidazolium bis((trifluoromethyl)sulfonyl)imide; phases: Liquid mixture 1, Liquid mixture 2
Fixed: Pressure, kPa = 101
Property: Molar volume, m3/mol (Liquid mixture 1); method: Pycnometric method
Temperature, K	Molar volume, m3/mol	uncertainty
283	0.0002442	6e-06
297.1	0.0002467	5.8e-06
303.4	0.000247	5.6e-06
313.7	0.0002485	5.6e-06
323.7	0.0002502	5.6e-06
333.1	0.0002509	4.4e-06

System: methyl nonafluoroisobutyl ether + 1-ethyl-3-methylimidazolium bis((trifluoromethyl)sulfonyl)imide; phases: Liquid mixture 2, Liquid mixture 1
Fixed: Pressure, kPa = 101
Property: Molar volume, m3/mol (Liquid mixture 2); method: Pycnometric method
Temperature, K	Molar volume, m3/mol	uncertainty
283	0.0001618	4e-06
297.1	0.0001655	3.4e-06
303.4	0.000167	3.4e-06
313.7	0.0001698	2e-06
323.7	0.0001728	2e-06
333.1	0.0001762	2e-06

System: methyl nonafluoroisobutyl ether + 1-ethyl-3-methylimidazolium bis((trifluoromethyl)sulfonyl)imide; phases: Liquid mixture 1, Liquid mixture 2
Fixed: Pressure, kPa = 101.3
Property: Mole fraction of methyl nonafluoroisobutyl ether (Liquid mixture 1); method: OTHER
Temperature, K	Mole fraction of methyl nonafluoroisobutyl ether	uncertainty
283	0.104	0.036
297.1	0.104	0.036
303.4	0.108	0.036
313.7	0.112	0.024
323.7	0.115	0.018
333.1	0.119	0.018

System: methyl nonafluoroisobutyl ether + 1-ethyl-3-methylimidazolium bis((trifluoromethyl)sulfonyl)imide; phases: Liquid mixture 2, Liquid mixture 1
Fixed: Pressure, kPa = 101.3
Property: Mole fraction of methyl nonafluoroisobutyl ether (Liquid mixture 2); method: OTHER
Temperature, K	Mole fraction of methyl nonafluoroisobutyl ether	uncertainty
283	0.998	0.002
297.1	0.996	0.004
303.4	0.996	0.004
313.7	0.995	0.005
323.7	0.995	0.005
333.1	0.996	0.004

System: 1-ethoxy-1,1,2,2,3,3,4,4,4-nonafluorobutane + 1-ethyl-3-methylimidazolium bis((trifluoromethyl)sulfonyl)imide; phases: Liquid mixture 1, Liquid mixture 2
Fixed: Pressure, kPa = 101
Property: Molar volume, m3/mol (Liquid mixture 1); method: Pycnometric method
Temperature, K	Molar volume, m3/mol	uncertainty
283.1	0.0002476	2e-06
297.2	0.0002503	2.6e-06
303.4	0.0002512	2.2e-06
313.7	0.000253	2e-06
323.8	0.0002544	1.8e-06
333.1	0.000256	2e-06

System: 1-ethoxy-1,1,2,2,3,3,4,4,4-nonafluorobutane + 1-ethyl-3-methylimidazolium bis((trifluoromethyl)sulfonyl)imide; phases: Liquid mixture 2, Liquid mixture 1
Fixed: Pressure, kPa = 101
Property: Molar volume, m3/mol (Liquid mixture 2); method: Pycnometric method
Temperature, K	Molar volume, m3/mol	uncertainty
283.1	0.0001811	1.6e-06
297.2	0.0001846	1.8e-06
303.4	0.0001867	1.6e-06
313.7	0.0001896	1.4e-06
323.8	0.000193	1.4e-06
333.1	0.0001962	1.4e-06

System: 1-ethoxy-1,1,2,2,3,3,4,4,4-nonafluorobutane + 1-ethyl-3-methylimidazolium bis((trifluoromethyl)sulfonyl)imide; phases: Liquid mixture 1, Liquid mixture 2
Fixed: Pressure, kPa = 101.3
Property: Mole fraction of 1-ethoxy-1,1,2,2,3,3,4,4,4-nonafluorobutane (Liquid mixture 1); method: OTHER
Temperature, K	Mole fraction of 1-ethoxy-1,1,2,2,3,3,4,4,4-nonafluorobutane	uncertainty
283.1	0.069	0.02
297.2	0.073	0.018
303.4	0.074	0.018
313.7	0.075	0.018
323.8	0.08	0.016
333.1	0.081	0.016

System: 1-ethoxy-1,1,2,2,3,3,4,4,4-nonafluorobutane + 1-ethyl-3-methylimidazolium bis((trifluoromethyl)sulfonyl)imide; phases: Liquid mixture 2, Liquid mixture 1
Fixed: Pressure, kPa = 101.3
Property: Mole fraction of 1-ethoxy-1,1,2,2,3,3,4,4,4-nonafluorobutane (Liquid mixture 2); method: OTHER
Temperature, K	Mole fraction of 1-ethoxy-1,1,2,2,3,3,4,4,4-nonafluorobutane	uncertainty
283.1	0.995	0.005
297.2	1	0.001
303.4	0.996	0.004
313.7	1	0.001
323.8	0.997	0.003
333.1	1	0.001

System: 1,1,1,2,2,3,4,5,5,5-decafluoro-3-methoxy-4-(trifluoromethyl)pentane + 1-ethyl-3-methylimidazolium bis((trifluoromethyl)sulfonyl)imide; phases: Liquid mixture 1, Liquid mixture 2
Fixed: Pressure, kPa = 101
Property: Molar volume, m3/mol (Liquid mixture 1); method: Pycnometric method
Temperature, K	Molar volume, m3/mol	uncertainty
283.1	0.0002066	2e-06
296.6	0.0002107	2.4e-06
303.5	0.0002127	2.2e-06
313.1	0.0002155	2e-06
322.8	0.000219	2e-06
333.3	0.000222	1.8e-06

System: 1,1,1,2,2,3,4,5,5,5-decafluoro-3-methoxy-4-(trifluoromethyl)pentane + 1-ethyl-3-methylimidazolium bis((trifluoromethyl)sulfonyl)imide; phases: Liquid mixture 2, Liquid mixture 1
Fixed: Pressure, kPa = 101
Property: Molar volume, m3/mol (Liquid mixture 2); method: Pycnometric method
Temperature, K	Molar volume, m3/mol	uncertainty
283.1	0.000254	3e-06
296.6	0.0002551	2.6e-06
303.5	0.0002571	2.2e-06
313.1	0.0002583	1.8e-06
322.8	0.0002585	2.6e-06
333.3	0.0002617	2.2e-06

System: 1,1,1,2,2,3,4,5,5,5-decafluoro-3-methoxy-4-(trifluoromethyl)pentane + 1-ethyl-3-methylimidazolium bis((trifluoromethyl)sulfonyl)imide; phases: Liquid mixture 1, Liquid mixture 2
Fixed: Pressure, kPa = 101.3
Property: Mole fraction of 1,1,1,2,2,3,4,5,5,5-decafluoro-3-methoxy-4-(trifluoromethyl)pentane (Liquid mixture 1); method: OTHER
Temperature, K	Mole fraction of 1,1,1,2,2,3,4,5,5,5-decafluoro-3-methoxy-4-(trifluoromethyl)pentane	uncertainty
283.1	0.999	0.001
296.6	1	0.001
303.5	1	0.001
313.1	0.999	0.001
322.8	0.999	0.001
333.3	0.999	0.001

System: 1,1,1,2,2,3,4,5,5,5-decafluoro-3-methoxy-4-(trifluoromethyl)pentane + 1-ethyl-3-methylimidazolium bis((trifluoromethyl)sulfonyl)imide; phases: Liquid mixture 2, Liquid mixture 1
Fixed: Pressure, kPa = 101.3
Property: Mole fraction of 1,1,1,2,2,3,4,5,5,5-decafluoro-3-methoxy-4-(trifluoromethyl)pentane (Liquid mixture 2); method: OTHER
Temperature, K	Mole fraction of 1,1,1,2,2,3,4,5,5,5-decafluoro-3-methoxy-4-(trifluoromethyl)pentane	uncertainty
283.1	0.028	0.014
296.6	0.029	0.012
303.5	0.029	0.014
313.1	0.038	0.016
322.8	0.048	0.016
333.3	0.036	0.014

System: 1-ethyl-3-methylimidazolium bis((trifluoromethyl)sulfonyl)imide + 2-trifluoromethyl-3-ethoxydodecafluorohexane; phases: Liquid mixture 1, Liquid mixture 2
Fixed: Pressure, kPa = 101
Property: Molar volume, m3/mol (Liquid mixture 1); method: Pycnometric method
Temperature, K	Molar volume, m3/mol	uncertainty
283.3	0.0002513	4.4e-06
297.3	0.0002554	4e-06
303.5	0.0002572	3.2e-06
313.5	0.0002606	3.6e-06
323.8	0.0002639	3.4e-06
333.1	0.0002673	4e-06

System: 1-ethyl-3-methylimidazolium bis((trifluoromethyl)sulfonyl)imide + 2-trifluoromethyl-3-ethoxydodecafluorohexane; phases: Liquid mixture 2, Liquid mixture 1
Fixed: Pressure, kPa = 101
Property: Molar volume, m3/mol (Liquid mixture 2); method: Pycnometric method
Temperature, K	Molar volume, m3/mol	uncertainty
283.3	0.0002551	4e-06
297.3	0.0002574	4e-06
303.5	0.0002589	3.6e-06
313.5	0.0002602	3.6e-06
323.8	0.0002622	3.8e-06
333.1	0.0002642	2.6e-06

System: 1-ethyl-3-methylimidazolium bis((trifluoromethyl)sulfonyl)imide + 2-trifluoromethyl-3-ethoxydodecafluorohexane; phases: Liquid mixture 1, Liquid mixture 2
Fixed: Pressure, kPa = 101.3
Property: Mole fraction of 2-trifluoromethyl-3-ethoxydodecafluorohexane (Liquid mixture 1); method: OTHER
Temperature, K	Mole fraction of 2-trifluoromethyl-3-ethoxydodecafluorohexane	uncertainty
283.3	0.995	0.005
297.3	0.995	0.005
303.5	0.998	0.002
313.5	0.997	0.003
323.8	0.999	0.001
333.1	0.995	0.005

System: 1-ethyl-3-methylimidazolium bis((trifluoromethyl)sulfonyl)imide + 2-trifluoromethyl-3-ethoxydodecafluorohexane; phases: Liquid mixture 2, Liquid mixture 1
Fixed: Pressure, kPa = 101.3
Property: Mole fraction of 2-trifluoromethyl-3-ethoxydodecafluorohexane (Liquid mixture 2); method: OTHER
Temperature, K	Mole fraction of 2-trifluoromethyl-3-ethoxydodecafluorohexane	uncertainty
283.3	0.013	0.013
297.3	0.021	0.02
303.5	0.019	0.016
313.5	0.017	0.017
323.8	0.014	0.014
333.1	0.043	0.014
