Measured thermophysical data. Excess Magnitudes for Ionic Liquid Binary Mixtures with a Common Ion
Source: J. Chem. Eng. Data, 2007, 10.1021/je700076t
Compound 1: 1-hexyl-3-methylimidazolium tetrafluoroborate, C10H19BF4N2, InChI=1S/C10H19N2.BF4/c1-3-4-5-6-7-12-9-8-11(2)10-12;2-1(3,4)5/h8-10H,3-7H2,1-2H3;/q+1;-1
Compound 2: 1-ethyl-3-methylimidazolium tetrafluoroborate, C6H11BF4N2, InChI=1S/C6H11N2.BF4/c1-3-8-5-4-7(2)6-8;2-1(3,4)5/h4-6H,3H2,1-2H3;/q+1;-1
Compound 3: 1-butyl-3-methylimidazolium tetrafluoroborate, C8H15BF4N2, InChI=1S/C8H15N2.BF4/c1-3-4-5-10-7-6-9(2)8-10;2-1(3,4)5/h6-8H,3-5H2,1-2H3;/q+1;-1
Compound 4: 1-butyl-3-methylimidazolium methyl sulfate, C9H18N2O4S, InChI=1S/C8H15N2.CH4O4S/c1-3-4-5-10-7-6-9(2)8-10;1-5-6(2,3)4/h6-8H,3-5H2,1-2H3;1H3,(H,2,3,4)/q+1;/p-1
Compound 5: 1-butyl-3-methylimidazolium hexafluorophosphate, C8H15F6N2P, InChI=1S/C8H15N2.F6P/c1-3-4-5-10-7-6-9(2)8-10;1-7(2,3,4,5)6/h6-8H,3-5H2,1-2H3;/q+1;-1

System: 1-hexyl-3-methylimidazolium tetrafluoroborate; phases: Liquid
Fixed: Pressure, kPa = 101
Property: Mass density, kg/m3 (Liquid); method: VIBTUB:UFactor:8
Temperature, K	Mass density, kg/m3	uncertainty
298.15	1145.8	0.8
298.15	1145.3	0.8
299.15	1145.1	0.8
299.15	1144.5	0.8
301.15	1143.7	0.8
301.15	1143.1	0.8
302.15	1143	0.8
302.15	1142.4	0.8
303.15	1142.3	0.8
303.15	1141.7	0.8
304.15	1141.5	0.8
304.15	1141.1	0.8
305.15	1140.8	0.8
305.15	1140.4	0.8
307.15	1139.5	0.8
307.15	1139	0.8
308.15	1138.8	0.8
308.15	1138.3	0.8

System: 1-ethyl-3-methylimidazolium tetrafluoroborate; phases: Liquid
Fixed: Pressure, kPa = 101
Property: Mass density, kg/m3 (Liquid); method: VIBTUB:UFactor:8
Temperature, K	Mass density, kg/m3	uncertainty
298.15	1279.6	1.1
299.15	1278.8	1.1
301.15	1277.2	1.1
302.15	1276.5	1.1
303.15	1275.7	1.1
304.15	1274.9	1.1
305.15	1274.2	1.1
307.15	1272.7	1.1
308.15	1271.9	1.1

System: 1-butyl-3-methylimidazolium tetrafluoroborate; phases: Liquid
Fixed: Pressure, kPa = 101
Property: Mass density, kg/m3 (Liquid); method: VIBTUB:UFactor:8
Temperature, K	Mass density, kg/m3	uncertainty
298.15	1201.7	1.2
298.15	1201.4	1
299.15	1200.8	1.2
299.15	1200.7	1
299.15	1200.6	1.2
301.15	1199.4	1.2
301.15	1199.3	0.9
302.15	1198.7	1.2
302.15	1198.6	0.9
303.15	1198	1.2
303.15	1197.9	0.9
303.15	1198.1	1.2
304.15	1197.3	1.2
304.15	1197.2	0.9
305.15	1196.6	1.1
307.15	1195.2	1.1
308.15	1194.5	1.1
308.15	1194.6	1.1

System: 1-butyl-3-methylimidazolium methyl sulfate; phases: Liquid
Fixed: Pressure, kPa = 101
Property: Mass density, kg/m3 (Liquid); method: VIBTUB:UFactor:6
Temperature, K	Mass density, kg/m3	uncertainty
298.15	1207.9	1
299.15	1207.3	1
301.15	1206	1
302.15	1205.3	1
303.15	1204.6	1
304.15	1204	1
305.15	1203.3	1
307.15	1202	1
308.15	1201.4	1

System: 1-butyl-3-methylimidazolium hexafluorophosphate; phases: Liquid
Fixed: Pressure, kPa = 101
Property: Mass density, kg/m3 (Liquid); method: VIBTUB:UFactor:8
Temperature, K	Mass density, kg/m3	uncertainty
298.15	1367.9	1.5
299.15	1366.9	1.5
301.15	1365.4	1.5
302.15	1364.7	1.4
303.15	1363.9	1.4
304.15	1363	1.4
305.15	1362.2	1.4
307.15	1360.5	1.4
308.15	1359.7	1.4

System: 1-ethyl-3-methylimidazolium tetrafluoroborate + 1-hexyl-3-methylimidazolium tetrafluoroborate; phases: Liquid
Fixed: Pressure, kPa = 101
Fixed: Temperature, K = 303.15
Property: Excess molar enthalpy (molar enthalpy of mixing), kJ/mol (Liquid); method: CALVET:UFactor:8
Mole fraction of 1-hexyl-3-methylimidazolium tetrafluoroborate	Excess molar enthalpy (molar enthalpy of mixing), kJ/mol	uncertainty
0.0352	0.037	0.009
0.1856	0.162	0.02
0.2339	0.214	0.025
0.2862	0.252	0.028
0.3459	0.288	0.032
0.3504	0.295	0.033
0.4106	0.31	0.034
0.4433	0.287	0.032
0.6006	0.242	0.027
0.8121	0.159	0.019
0.9348	0.028	0.008

System: 1-ethyl-3-methylimidazolium tetrafluoroborate + 1-hexyl-3-methylimidazolium tetrafluoroborate; phases: Liquid
Fixed: Pressure, kPa = 101
Property: Mass density, kg/m3 (Liquid); method: VIBTUB:UFactor:8
Temperature, K	Mole fraction of 1-hexyl-3-methylimidazolium tetrafluoroborate	Mass density, kg/m3	uncertainty
298.15	0	1279.6	1.1
298.15	0.0978	1261.6	1.1
298.15	0.1484	1253.3	1.1
298.15	0.207	1243.7	1
298.15	0.2941	1230.3	1
298.15	0.3994	1215.1	0.9
298.15	0.4474	1208.2	0.9
298.15	0.5062	1200.6	0.9
298.15	0.554	1194.4	0.9
298.15	0.5939	1189.5	0.9
298.15	0.6855	1178.4	0.9
298.15	0.8197	1163.6	0.8
298.15	0.8804	1157.2	0.8
298.15	0.9455	1150.8	0.8
298.15	1	1145.8	0.8
299.15	0	1278.8	1.1
299.15	0.0978	1260.8	1.1
299.15	0.1484	1252.5	1
299.15	0.207	1243	1
299.15	0.2941	1229.6	1
299.15	0.3994	1214.4	0.9
299.15	0.4474	1207.5	0.9
299.15	0.5062	1199.9	0.9
299.15	0.554	1193.7	0.9
299.15	0.5939	1188.8	0.9
299.15	0.6855	1177.6	0.9
299.15	0.8197	1162.9	0.8
299.15	0.8804	1156.6	0.8
299.15	0.9455	1150.1	0.8
299.15	1	1145.1	0.8
301.15	0	1277.2	1.1
301.15	0.0978	1259.3	1.1
301.15	0.1484	1251	1
301.15	0.207	1241.5	1
301.15	0.2941	1228.1	1
301.15	0.3994	1212.9	0.9
301.15	0.4474	1206.1	0.9
301.15	0.5062	1198.4	0.9
301.15	0.554	1192.3	0.9
301.15	0.5939	1187.4	0.9
301.15	0.6855	1176.3	0.8
301.15	0.8197	1161.4	0.8
301.15	0.8804	1155.2	0.8
301.15	0.9455	1148.7	0.8
301.15	1	1143.7	0.8
302.15	0	1276.5	1.1
302.15	0.0978	1258.6	1.1
302.15	0.1484	1251.1	1
302.15	0.207	1240.7	1
302.15	0.2941	1227.4	1
302.15	0.3994	1212.2	0.9
302.15	0.4474	1205.4	0.9
302.15	0.5062	1197.7	0.9
302.15	0.554	1191.6	0.9
302.15	0.5939	1186.7	0.9
302.15	0.6855	1175.6	0.8
302.15	0.8197	1160.7	0.8
302.15	0.8804	1154.5	0.8
302.15	0.9455	1148.1	0.8
302.15	1	1143	0.8
303.15	0	1275.7	1.1
303.15	0.0978	1257.9	1.1
303.15	0.1484	1249.5	1
303.15	0.207	1240	1
303.15	0.2941	1226.6	1
303.15	0.3994	1211.4	0.9
303.15	0.4474	1204.7	0.9
303.15	0.5062	1197	0.9
303.15	0.554	1190.9	0.9
303.15	0.5939	1186	0.9
303.15	0.6855	1174.9	0.8
303.15	0.8197	1160	0.8
303.15	0.8804	1153.8	0.8
303.15	0.9455	1147.3	0.8
303.15	1	1142.3	0.8
304.15	0	1274.9	1.1
304.15	0.0978	1257.1	1.1
304.15	0.1484	1248.8	1
304.15	0.207	1239.2	1
304.15	0.2941	1225.9	1
304.15	0.3994	1210.7	0.9
304.15	0.4474	1204	0.9
304.15	0.5062	1196.3	0.9
304.15	0.554	1190.2	0.9
304.15	0.5939	1185.3	0.9
304.15	0.6855	1174.2	0.8
304.15	0.8197	1159.3	0.8
304.15	0.8804	1153.1	0.8
304.15	0.9455	1146.6	0.8
304.15	1	1141.5	0.8
305.15	0	1274.2	1.1
305.15	0.0978	1256.4	1.1
305.15	0.1484	1248	1
305.15	0.207	1238.5	1
305.15	0.2941	1225.2	1
305.15	0.3994	1210	0.9
305.15	0.4474	1203.3	0.9
305.15	0.5062	1195.6	0.9
305.15	0.554	1189.5	0.9
305.15	0.5939	1184.6	0.9
305.15	0.6855	1173.5	0.8
305.15	0.8197	1158.6	0.8
305.15	0.8804	1152.4	0.8
305.15	0.9455	1145.9	0.8
305.15	1	1140.8	0.8
307.15	0	1272.7	1.1
307.15	0.0978	1254.9	1.1
307.15	0.1484	1246.5	1
307.15	0.207	1237	1
307.15	0.2941	1223.7	1
307.15	0.3994	1208.5	0.9
307.15	0.4474	1201.8	0.9
307.15	0.5062	1194.2	0.9
307.15	0.554	1188.1	0.9
307.15	0.5939	1183.2	0.9
307.15	0.6855	1172.1	0.8
307.15	0.8197	1157.2	0.8
307.15	0.8804	1151	0.8
307.15	0.9455	1144.5	0.8
307.15	1	1139.5	0.8
308.15	0	1271.9	1.1
308.15	0.0978	1254.2	1.1
308.15	0.1484	1245.8	1
308.15	0.207	1236.3	1
308.15	0.2941	1223	1
308.15	0.3994	1207.8	0.9
308.15	0.4474	1201.1	0.9
308.15	0.5062	1193.4	0.9
308.15	0.554	1187.4	0.9
308.15	0.5939	1182.5	0.9
308.15	0.6855	1171.4	0.8
308.15	0.8197	1156.5	0.8
308.15	0.8804	1150.3	0.8
308.15	0.9455	1143.8	0.8
308.15	1	1138.8	0.8

System: 1-butyl-3-methylimidazolium tetrafluoroborate + 1-hexyl-3-methylimidazolium tetrafluoroborate; phases: Liquid
Fixed: Pressure, kPa = 101
Fixed: Temperature, K = 303.15
Property: Excess molar enthalpy (molar enthalpy of mixing), kJ/mol (Liquid); method: CALVET:UFactor:8
Mole fraction of 1-butyl-3-methylimidazolium tetrafluoroborate	Excess molar enthalpy (molar enthalpy of mixing), kJ/mol	uncertainty
0.1071	0.017	0.007
0.2572	0.062	0.01
0.3454	0.066	0.011
0.4453	0.062	0.01
0.5099	0.061	0.01
0.5499	0.067	0.011
0.6548	0.058	0.01
0.7573	0.041	0.009
0.8925	0.016	0.007

System: 1-butyl-3-methylimidazolium tetrafluoroborate + 1-hexyl-3-methylimidazolium tetrafluoroborate; phases: Liquid
Fixed: Pressure, kPa = 101
Property: Mass density, kg/m3 (Liquid); method: VIBTUB:UFactor:8
Temperature, K	Mole fraction of 1-hexyl-3-methylimidazolium tetrafluoroborate	Mass density, kg/m3	uncertainty
298.15	0	1201.7	1.2
298.15	0.1083	1194.6	1.1
298.15	0.191	1189.5	1.1
298.15	0.402	1177	1
298.15	0.445	1174.6	0.9
298.15	0.4953	1171.7	0.9
298.15	0.5617	1168	0.9
298.15	0.6398	1163.6	0.9
298.15	0.7924	1155.9	0.8
298.15	0.897	1150.6	0.8
298.15	0.946	1148.1	0.8
298.15	1	1145.3	0.8
299.15	0	1200.8	1.2
299.15	0.1083	1193.7	1.1
299.15	0.191	1188.7	1
299.15	0.402	1176.1	0.9
299.15	0.445	1173.8	0.9
299.15	0.4953	1170.9	0.9
299.15	0.5617	1167.1	0.9
299.15	0.6398	1162.8	0.9
299.15	0.7924	1155	0.8
299.15	0.897	1149.8	0.8
299.15	0.946	1147.3	0.8
299.15	1	1144.5	0.8
301.15	0	1199.4	1.2
301.15	0.1083	1192.3	1.1
301.15	0.191	1187.3	1
301.15	0.402	1174.7	0.9
301.15	0.445	1172.4	0.9
301.15	0.4953	1169.5	0.9
301.15	0.5617	1165.7	0.9
301.15	0.6398	1161.4	0.9
301.15	0.7924	1153.6	0.8
301.15	0.897	1148.4	0.8
301.15	0.946	1145.9	0.8
301.15	1	1143.1	0.8
302.15	0	1198.7	1.2
302.15	0.1083	1191.6	1.1
302.15	0.191	1186.6	1
302.15	0.402	1174	0.9
302.15	0.445	1171.7	0.9
302.15	0.4953	1168.8	0.9
302.15	0.5617	1165	0.9
302.15	0.6398	1160.7	0.9
302.15	0.7924	1152.9	0.8
302.15	0.897	1147.7	0.8
302.15	0.946	1145.2	0.8
302.15	1	1142.4	0.8
303.15	0	1198	1.2
303.15	0.1083	1190.9	1.1
303.15	0.191	1185.9	1
303.15	0.402	1173.3	0.9
303.15	0.445	1171	0.9
303.15	0.4953	1168.1	0.9
303.15	0.5617	1164.3	0.9
303.15	0.6398	1160	0.9
303.15	0.7924	1152.2	0.8
303.15	0.897	1147	0.8
303.15	0.946	1144.5	0.8
303.15	1	1141.7	0.8
304.15	0	1197.3	1.2
304.15	0.1083	1190.3	1.1
304.15	0.191	1185.2	1
304.15	0.402	1172.6	0.9
304.15	0.445	1170.3	0.9
304.15	0.4953	1167.4	0.9
304.15	0.5617	1163.6	0.9
304.15	0.6398	1159.4	0.9
304.15	0.7924	1151.6	0.8
304.15	0.897	1146.3	0.8
304.15	0.946	1143.8	0.8
304.15	1	1141.1	0.8
305.15	0	1196.6	1.1
305.15	0.1083	1189.6	1.1
305.15	0.191	1184.5	1
305.15	0.402	1171.9	0.9
305.15	0.445	1169.6	0.9
305.15	0.4953	1166.7	0.9
305.15	0.5617	1162.9	0.9
305.15	0.6398	1158.7	0.9
305.15	0.7924	1150.9	0.8
305.15	0.897	1145.7	0.8
305.15	0.946	1143.2	0.8
305.15	1	1140.4	0.8
307.15	0	1195.2	1.1
307.15	0.1083	1188.2	1.1
307.15	0.191	1183.1	1
307.15	0.402	1170.5	0.9
307.15	0.445	1168.2	0.9
307.15	0.4953	1165.3	0.9
307.15	0.5617	1161.5	0.9
307.15	0.6398	1157.3	0.9
307.15	0.7924	1149.5	0.8
307.15	0.897	1144.3	0.8
307.15	0.946	1141.8	0.8
307.15	1	1139	0.8
308.15	0	1194.5	1.1
308.15	0.1083	1187.5	1.1
308.15	0.191	1182.4	1
308.15	0.402	1169.8	0.9
308.15	0.445	1167.5	0.9
308.15	0.4953	1164.6	0.9
308.15	0.5617	1160.8	0.9
308.15	0.6398	1156.6	0.8
308.15	0.7924	1148.8	0.8
308.15	0.897	1143.6	0.8
308.15	0.946	1141.1	0.8
308.15	1	1138.3	0.8

System: 1-butyl-3-methylimidazolium tetrafluoroborate + 1-butyl-3-methylimidazolium methyl sulfate; phases: Liquid
Fixed: Pressure, kPa = 101
Fixed: Temperature, K = 303.15
Property: Excess molar enthalpy (molar enthalpy of mixing), kJ/mol (Liquid); method: CALVET:UFactor:8
Mole fraction of 1-butyl-3-methylimidazolium tetrafluoroborate	Excess molar enthalpy (molar enthalpy of mixing), kJ/mol	uncertainty
0.1066	-0.037	0.009
0.2935	-0.068	0.011
0.4424	-0.105	0.014
0.503	-0.125	0.016
0.5316	-0.131	0.017
0.6024	-0.136	0.017
0.647	-0.103	0.014
0.7973	-0.076	0.012
0.8968	-0.03	0.008

System: 1-butyl-3-methylimidazolium tetrafluoroborate + 1-butyl-3-methylimidazolium methyl sulfate; phases: Liquid
Fixed: Pressure, kPa = 101
Property: Mass density, kg/m3 (Liquid); method: VIBTUB:UFactor:6
Temperature, K	Mole fraction of 1-butyl-3-methylimidazolium tetrafluoroborate	Mass density, kg/m3	uncertainty
298.15	0	1207.9	1
298.15	0.1209	1207.4	1
298.15	0.2166	1206.9	1
298.15	0.3057	1206.4	1
298.15	0.406	1205.8	1
298.15	0.4358	1205.6	1
298.15	0.5118	1205.2	1
298.15	0.5412	1205	1
298.15	0.6026	1204.5	1
298.15	0.648	1204.4	1
298.15	0.6934	1203.8	1
298.15	0.7813	1203.2	1
298.15	0.9005	1202.2	1
298.15	0.9363	1202	1
298.15	0.9683	1201.9	1
298.15	1	1201.4	1
299.15	0	1207.3	1
299.15	0.1209	1206.7	1
299.15	0.2166	1206.3	1
299.15	0.3057	1205.7	1
299.15	0.406	1205.1	1
299.15	0.4358	1205	1
299.15	0.5118	1204.5	1
299.15	0.5412	1204.3	1
299.15	0.6026	1203.9	1
299.15	0.648	1203.6	1
299.15	0.6934	1203.1	1
299.15	0.7813	1202.5	1
299.15	0.9005	1201.6	1
299.15	0.9363	1201.2	1
299.15	0.9683	1201.1	1
299.15	1	1200.7	1
301.15	0	1206	1
301.15	0.1209	1205.4	1
301.15	0.2166	1204.9	1
301.15	0.3057	1204.3	1
301.15	0.406	1203.8	1
301.15	0.4358	1203.6	1
301.15	0.5118	1203.1	1
301.15	0.5412	1202.9	1
301.15	0.6026	1202.5	1
301.15	0.648	1202.2	1
301.15	0.6934	1201.7	1
301.15	0.7813	1201.1	1
301.15	0.9005	1200.2	0.9
301.15	0.9363	1199.8	0.9
301.15	0.9683	1199.7	0.9
301.15	1	1199.3	0.9
302.15	0	1205.3	1
302.15	0.1209	1204.7	1
302.15	0.2166	1204.2	1
302.15	0.3057	1203.7	1
302.15	0.406	1203.1	1
302.15	0.4358	1202.9	1
302.15	0.5118	1202.4	1
302.15	0.5412	1202.2	1
302.15	0.6026	1201.8	1
302.15	0.648	1201.5	1
302.15	0.6934	1201.1	1
302.15	0.7813	1200.4	0.9
302.15	0.9005	1199.5	0.9
302.15	0.9363	1199.1	0.9
302.15	0.9683	1199	0.9
302.15	1	1198.6	0.9
303.15	0	1204.6	1
303.15	0.1209	1204	1
303.15	0.2166	1203.6	1
303.15	0.3057	1203	1
303.15	0.406	1202.4	1
303.15	0.4358	1202.2	1
303.15	0.5118	1201.7	1
303.15	0.5412	1201.5	1
303.15	0.6026	1201.1	1
303.15	0.648	1200.8	1
303.15	0.6934	1200.4	0.9
303.15	0.7813	1199.8	0.9
303.15	0.9005	1198.8	0.9
303.15	0.9363	1198.4	0.9
303.15	0.9683	1198.3	0.9
303.15	1	1197.9	0.9
304.15	0	1204	1
304.15	0.1209	1203.4	1
304.15	0.2166	1202.9	1
304.15	0.3057	1202.3	1
304.15	0.406	1201.7	1
304.15	0.4358	1201.5	1
304.15	0.5118	1201.1	1
304.15	0.5412	1200.9	1
304.15	0.6026	1200.4	0.9
304.15	0.648	1200.1	0.9
304.15	0.6934	1199.7	0.9
304.15	0.7813	1199.1	0.9
304.15	0.9005	1198.1	0.9
304.15	0.9363	1197.7	0.9
304.15	0.9683	1197.6	0.9
304.15	1	1197.2	0.9
305.15	0	1203.3	1
305.15	0.1209	1202.7	1
305.15	0.2166	1202.2	1
305.15	0.3057	1201.6	1
305.15	0.406	1201	1
305.15	0.4358	1200.9	1
305.15	0.5118	1200.4	0.9
305.15	0.5412	1200.2	0.9
305.15	0.6026	1199.7	0.9
305.15	0.648	1199.4	0.9
305.15	0.6934	1199	0.9
305.15	0.7813	1198.4	0.9
305.15	0.9005	1197.4	0.9
305.15	0.9363	1197.1	0.9
305.15	0.9683	1196.9	0.9
305.15	1	1196.6	0.9
307.15	0	1202	1
307.15	0.1209	1201.3	1
307.15	0.2166	1200.8	1
307.15	0.3057	1200.3	0.9
307.15	0.406	1199.7	0.9
307.15	0.4358	1199.5	0.9
307.15	0.5118	1199	0.9
307.15	0.5412	1198.8	0.9
307.15	0.6026	1198.3	0.9
307.15	0.648	1198.1	0.9
307.15	0.6934	1197.6	0.9
307.15	0.7813	1197	0.9
307.15	0.9005	1196	0.9
307.15	0.9363	1195.7	0.9
307.15	0.9683	1195.7	0.9
307.15	1	1195.2	0.9
308.15	0	1201.4	1
308.15	0.1209	1200.6	1
308.15	0.2166	1200.1	0.9
308.15	0.3057	1199.6	0.9
308.15	0.406	1199	0.9
308.15	0.4358	1198.8	0.9
308.15	0.5118	1198.3	0.9
308.15	0.5412	1198.1	0.9
308.15	0.6026	1197.6	0.9
308.15	0.648	1197.3	0.9
308.15	0.6934	1196.9	0.9
308.15	0.7813	1196.3	0.9
308.15	0.9005	1195.3	0.9
308.15	0.9363	1195	0.9
308.15	0.9683	1194.8	0.9
308.15	1	1194.5	0.9

System: 1-butyl-3-methylimidazolium hexafluorophosphate + 1-butyl-3-methylimidazolium tetrafluoroborate; phases: Liquid
Fixed: Pressure, kPa = 101
Fixed: Temperature, K = 303.15
Property: Excess molar enthalpy (molar enthalpy of mixing), kJ/mol (Liquid); method: CALVET:UFactor:8
Mole fraction of 1-butyl-3-methylimidazolium hexafluorophosphate	Excess molar enthalpy (molar enthalpy of mixing), kJ/mol	uncertainty
0.078	-0.073	0.011
0.2142	-0.203	0.024
0.3533	-0.297	0.033
0.4511	-0.343	0.037
0.5475	-0.367	0.039
0.5674	-0.362	0.039
0.7019	-0.286	0.032
0.7088	-0.26	0.029
0.8096	-0.201	0.023
0.9006	-0.1	0.014

System: 1-butyl-3-methylimidazolium hexafluorophosphate + 1-butyl-3-methylimidazolium tetrafluoroborate; phases: Liquid
Fixed: Pressure, kPa = 101
Property: Mass density, kg/m3 (Liquid); method: VIBTUB:UFactor:8
Temperature, K	Mole fraction of 1-butyl-3-methylimidazolium hexafluorophosphate	Mass density, kg/m3	uncertainty
298.15	0	1201.4	1.2
298.15	0.0568	1211.6	1.2
298.15	0.1034	1220.2	1.2
298.15	0.2095	1239.1	1.2
298.15	0.3012	1254.8	1.3
298.15	0.3825	1268.7	1.3
298.15	0.4647	1282.6	1.3
298.15	0.4999	1288.3	1.3
298.15	0.5974	1304.5	1.3
298.15	0.6928	1319.8	1.4
298.15	0.833	1342.3	1.4
298.15	0.8877	1350.7	1.4
298.15	0.945	1359.4	1.4
298.15	1	1367.9	1.5
299.15	0	1200.6	1.2
299.15	0.0568	1210.9	1.2
299.15	0.1034	1219.5	1.2
299.15	0.2095	1238.3	1.2
299.15	0.3012	1254	1.3
299.15	0.3825	1267.9	1.3
299.15	0.4647	1281.7	1.3
299.15	0.4999	1287.5	1.3
299.15	0.5974	1303.5	1.3
299.15	0.6928	1318.9	1.4
299.15	0.833	1341.4	1.4
299.15	0.8877	1349.7	1.4
299.15	0.945	1358.5	1.4
299.15	1	1366.9	1.5
301.15	0	1199.3	1.2
301.15	0.0568	1209.5	1.2
301.15	0.1034	1218.1	1.2
301.15	0.2095	1236.9	1.2
301.15	0.3012	1252.6	1.2
301.15	0.3825	1266.5	1.3
301.15	0.4647	1280.3	1.3
301.15	0.4999	1286.1	1.3
301.15	0.5974	1302.1	1.3
301.15	0.6928	1317.4	1.4
301.15	0.833	1339.9	1.4
301.15	0.8877	1348.2	1.4
301.15	0.945	1357	1.4
301.15	1	1365.4	1.5
302.15	0	1198.7	1.2
302.15	0.0568	1208.9	1.2
302.15	0.1034	1217.4	1.2
302.15	0.2095	1236.2	1.2
302.15	0.3012	1251.9	1.2
302.15	0.3825	1265.7	1.3
302.15	0.4647	1279.6	1.3
302.15	0.4999	1285.3	1.3
302.15	0.5974	1301.4	1.3
302.15	0.6928	1316.6	1.4
302.15	0.833	1339.1	1.4
302.15	0.8877	1347.4	1.4
302.15	0.945	1356.2	1.4
302.15	1	1364.7	1.4
303.15	0	1198.1	1.2
303.15	0.0568	1208.2	1.2
303.15	0.1034	1216.7	1.2
303.15	0.2095	1235.5	1.2
303.15	0.3012	1251.2	1.2
303.15	0.3825	1265	1.3
303.15	0.4647	1278.9	1.3
303.15	0.4999	1284.6	1.3
303.15	0.5974	1300.6	1.3
303.15	0.6928	1315.9	1.4
303.15	0.833	1338.3	1.4
303.15	0.8877	1346.6	1.4
303.15	0.945	1355.4	1.4
303.15	1	1363.9	1.4
304.15	0	1197.3	1.2
304.15	0.0568	1207.5	1.2
304.15	0.1034	1215.9	1.2
304.15	0.2095	1234.7	1.2
304.15	0.3012	1250.4	1.2
304.15	0.3825	1264.2	1.3
304.15	0.4647	1278.1	1.3
304.15	0.4999	1283.8	1.3
304.15	0.5974	1299.8	1.3
304.15	0.6928	1315	1.4
304.15	0.833	1337.5	1.4
304.15	0.8877	1345.8	1.4
304.15	0.945	1354.5	1.4
304.15	1	1363	1.4
305.15	0	1196.6	1.1
305.15	0.0568	1206.8	1.2
305.15	0.1034	1215.2	1.2
305.15	0.2095	1234	1.2
305.15	0.3012	1249.7	1.2
305.15	0.3825	1263.5	1.3
305.15	0.4647	1277.3	1.3
305.15	0.4999	1283	1.3
305.15	0.5974	1299	1.3
305.15	0.6928	1314.2	1.3
305.15	0.833	1336.6	1.4
305.15	0.8877	1345	1.4
305.15	0.945	1353.7	1.4
305.15	1	1362.2	1.4
307.15	0	1195.2	1.1
307.15	0.0568	1205.3	1.2
307.15	0.1034	1213.8	1.2
307.15	0.2095	1232.6	1.2
307.15	0.3012	1248.2	1.2
307.15	0.3825	1262	1.3
307.15	0.4647	1275.8	1.3
307.15	0.4999	1281.5	1.3
307.15	0.5974	1297.5	1.3
307.15	0.6928	1312.6	1.3
307.15	0.833	1335	1.4
307.15	0.8877	1343.3	1.4
307.15	0.945	1352.1	1.4
307.15	1	1360.5	1.4
308.15	0	1194.6	1.1
308.15	0.0568	1204.6	1.2
308.15	0.1034	1213.1	1.2
308.15	0.2095	1231.8	1.2
308.15	0.3012	1247.5	1.2
308.15	0.3825	1261.2	1.3
308.15	0.4647	1275	1.3
308.15	0.4999	1280.7	1.3
308.15	0.5974	1296.7	1.3
308.15	0.6928	1311.9	1.3
308.15	0.833	1334.2	1.4
308.15	0.8877	1342.5	1.4
308.15	0.945	1351.2	1.4
308.15	1	1359.7	1.4
