Measured thermophysical data. Solubility of 1,3,6,8-Tetraazatricyclo[4.4.1.13,8]dodecane (TATD) in Water at Temperatures between 275 K and 303 K
Source: J. Chem. Eng. Data, 2007, 10.1021/je700304z
Compound 1: 1,3,6,8-tetraazatricyclo[4.4.1.1(3,8)]dodecane, C8H16N4, InChI=1S/C8H16N4/c1-2-10-7-11-3-4-12(8-10)6-9(1)5-11/h1-8H2
Compound 2: water, H2O, InChI=1S/H2O/h1H2

System: 1,3,6,8-tetraazatricyclo[4.4.1.1(3,8)]dodecane + water; phases: Liquid, Crystal
Fixed: Pressure, kPa = 101
Property: Mass fraction of 1,3,6,8-tetraazatricyclo[4.4.1.1(3,8)]dodecane (Liquid); method: Chromatography
Temperature, K	Mass fraction of 1,3,6,8-tetraazatricyclo[4.4.1.1(3,8)]dodecane	uncertainty
275	0.4615	0.0026
277	0.4669	0.0021
279	0.4727	0.0025
283	0.4865	0.0025
288	0.4985	0.0023
293	0.5083	0.0029
298	0.5174	0.0025
303	0.5307	0.0027
