Measured thermophysical data. Thermodynamic Properties of 1-Butyl-3-methylpyridinium Tetrafluoroborate and Its Mixtures with Water and Alkanols
Source: J. Chem. Eng. Data, 2007, 10.1021/je700294p
Compound 1: 1-butyl-3-methylpyridinium tetrafluoroborate, C10H16BF4N, InChI=1S/C10H16N.BF4/c1-3-4-7-11-8-5-6-10(2)9-11;2-1(3,4)5/h5-6,8-9H,3-4,7H2,1-2H3;/q+1;-1
Compound 2: water, H2O, InChI=1S/H2O/h1H2, purity 99.8%
Compound 3: butan-1-ol, C4H10O, InChI=1S/C4H10O/c1-2-3-4-5/h5H,2-4H2,1H3, purity 99%
Compound 4: methanol, CH4O, InChI=1S/CH4O/c1-2/h2H,1H3, purity 99%
Compound 5: ethanol, C2H6O, InChI=1S/C2H6O/c1-2-3/h3H,2H2,1H3, purity 99%
Compound 6: propan-1-ol, C3H8O, InChI=1S/C3H8O/c1-2-3-4/h4H,2-3H2,1H3, purity 99%

System: 1-butyl-3-methylpyridinium tetrafluoroborate; phases: Liquid
Fixed: Pressure, kPa = 101.325
Property: Mass density, kg/m3 (Liquid); method: VIBTUB:UFactor:4
Temperature, K	Mass density, kg/m3	uncertainty
298.15	1182.19	0.89
318.15	1168.31	0.86

System: 1-butyl-3-methylpyridinium tetrafluoroborate; phases: Liquid
Fixed: Pressure, kPa = 101.325
Property: Refractive index (Na D-line) (Liquid); method: Standard Abbe refractometry
Temperature, K	Refractive index (Na D-line)	uncertainty
298.15	1.4473	0.0005
318.15	1.4422	0.0005

System: butan-1-ol; phases: Liquid
Fixed: Pressure, kPa = 101.325
Property: Mass density, kg/m3 (Liquid); method: Vibrating tube method
Temperature, K	Mass density, kg/m3	uncertainty
298.15	805.95	0.31
318.15	790.27	0.31

System: butan-1-ol; phases: Liquid
Fixed: Pressure, kPa = 101.325
Property: Refractive index (Na D-line) (Liquid); method: Standard Abbe refractometry
Temperature, K	Refractive index (Na D-line)	uncertainty
298.15	1.3968	0.0005
318.15	1.39	0.0005

System: methanol; phases: Liquid
Fixed: Pressure, kPa = 101.325
Property: Mass density, kg/m3 (Liquid); method: Vibrating tube method
Temperature, K	Mass density, kg/m3	uncertainty
298.15	786.44	0.31
318.15	768.04	0.31

System: methanol; phases: Liquid
Fixed: Pressure, kPa = 101.325
Property: Refractive index (Na D-line) (Liquid); method: Standard Abbe refractometry
Temperature, K	Refractive index (Na D-line)	uncertainty
298.15	1.3268	0.0005
318.15	1.319	0.0005

System: ethanol; phases: Liquid
Fixed: Pressure, kPa = 101.325
Property: Mass density, kg/m3 (Liquid); method: Vibrating tube method
Temperature, K	Mass density, kg/m3	uncertainty
298.15	785.15	0.31
318.15	767.57	0.31

System: ethanol; phases: Liquid
Fixed: Pressure, kPa = 101.325
Property: Refractive index (Na D-line) (Liquid); method: Standard Abbe refractometry
Temperature, K	Refractive index (Na D-line)	uncertainty
298.15	1.36	0.0005
318.15	1.3548	0.0005

System: propan-1-ol; phases: Liquid
Fixed: Pressure, kPa = 101.325
Property: Mass density, kg/m3 (Liquid); method: Vibrating tube method
Temperature, K	Mass density, kg/m3	uncertainty
298.15	799.7	0.31
318.15	783.16	0.31

System: propan-1-ol; phases: Liquid
Fixed: Pressure, kPa = 101.325
Property: Refractive index (Na D-line) (Liquid); method: Standard Abbe refractometry
Temperature, K	Refractive index (Na D-line)	uncertainty
298.15	1.3831	0.0005
318.15	1.3757	0.0005

System: ethanol + 1-butyl-3-methylpyridinium tetrafluoroborate; phases: Liquid mixture 1, Liquid mixture 2
Fixed: Pressure, kPa = 101
Property: Liquid-liquid equilibrium temperature, K (Liquid mixture 1); method: VISOBS:UFactor:4
Mole fraction of 1-butyl-3-methylpyridinium tetrafluoroborate	Liquid-liquid equilibrium temperature, K	uncertainty
0.045	276.4	0.62
0.07	278	0.62
0.0924	278.21	0.62
0.1195	277.57	0.62
0.1294	277.22	0.62

System: ethanol + 1-butyl-3-methylpyridinium tetrafluoroborate; phases: Liquid
Fixed: Pressure, kPa = 101
Property: Excess molar enthalpy (molar enthalpy of mixing), kJ/mol (Liquid); method: CALVET:UFactor:2
Temperature, K	Mole fraction of 1-butyl-3-methylpyridinium tetrafluoroborate	Excess molar enthalpy (molar enthalpy of mixing), kJ/mol	uncertainty
298.15	0.0052	0.148	0.011
298.15	0.0159	0.414	0.013
298.15	0.0279	0.62	0.016
298.15	0.0457	0.849	0.02
298.15	0.0691	1.088	0.024
298.15	0.0972	1.304	0.028
298.15	0.1132	1.413	0.031
298.15	0.1263	1.515	0.033
298.15	0.128	1.539	0.033
298.15	0.145	1.656	0.035
298.15	0.1585	1.693	0.036
298.15	0.1639	1.748	0.037
298.15	0.1838	1.863	0.039
298.15	0.2062	1.968	0.042
298.15	0.2305	2.07	0.044
298.15	0.2577	2.155	0.045
298.15	0.2878	2.223	0.047
298.15	0.3217	2.275	0.048
298.15	0.3623	2.284	0.048
298.15	0.4085	2.205	0.046
298.15	0.4689	2.026	0.043
298.15	0.5396	1.777	0.038
298.15	0.6277	1.457	0.031
298.15	0.7386	1.074	0.023
298.15	0.8712	0.584	0.014
298.15	0.9405	0.304	0.008
318.15	0.0123	0.262	0.01
318.15	0.0273	0.54	0.014
318.15	0.0472	0.842	0.02
318.15	0.0704	1.125	0.025
318.15	0.098	1.43	0.031
318.15	0.1279	1.721	0.037
318.15	0.1612	1.987	0.042
318.15	0.1789	2.127	0.045
318.15	0.2034	2.278	0.048
318.15	0.2335	2.416	0.05
318.15	0.2681	2.531	0.053
318.15	0.3063	2.624	0.054
318.15	0.3498	2.694	0.056
318.15	0.4055	2.699	0.056
318.15	0.4787	2.572	0.053
318.15	0.5648	2.295	0.048
318.15	0.6576	1.889	0.04
318.15	0.7668	1.364	0.029
318.15	0.881	0.769	0.018

System: ethanol + 1-butyl-3-methylpyridinium tetrafluoroborate; phases: Liquid
Fixed: Pressure, kPa = 101
Property: Mass density, kg/m3 (Liquid); method: VIBTUB:UFactor:4
Temperature, K	Mole fraction of 1-butyl-3-methylpyridinium tetrafluoroborate	Mass density, kg/m3	uncertainty
298.15	0.0518	851.1	0.8
298.15	0.0719	872.9	0.7
298.15	0.1054	905.6	0.7
298.15	0.1999	975.5	0.6
298.15	0.2539	1006.2	0.5
298.15	0.3	1028.2	0.6
298.15	0.4054	1068.6	0.6
298.15	0.5082	1098.9	0.7
298.15	0.5895	1118	0.7
298.15	0.664	1133	0.8
298.15	0.7275	1144.5	0.8
298.15	0.7682	1151	0.8
318.15	0.0401	821.1	0.8
318.15	0.0671	851	0.8
318.15	0.0992	882.7	0.7
318.15	0.1497	924.5	0.6
318.15	0.2531	989.5	0.5
318.15	0.3062	1015.1	0.5
318.15	0.4041	1053	0.6
318.15	0.5002	1082.2	0.7
318.15	0.5998	1106.3	0.8
318.15	0.6632	1118.8	0.8
318.15	0.7118	1127.7	0.8
318.15	0.7904	1141	0.9

System: propan-1-ol + 1-butyl-3-methylpyridinium tetrafluoroborate; phases: Liquid mixture 1, Liquid mixture 2
Fixed: Pressure, kPa = 101
Property: Liquid-liquid equilibrium temperature, K (Liquid mixture 1); method: VISOBS:UFactor:4
Mole fraction of 1-butyl-3-methylpyridinium tetrafluoroborate	Liquid-liquid equilibrium temperature, K	uncertainty
0.0166	293.82	0.62
0.0287	299.2	0.62
0.0407	302.04	0.62
0.0762	303.83	0.62
0.1102	304.42	0.62
0.1386	304.55	0.62
0.1713	304.18	0.62
0.2172	303.21	0.62
0.2402	302.48	0.62
0.2798	300.68	0.62
0.3206	298.41	0.62
0.3577	295.55	0.62
0.3968	292.52	0.62
0.4215	290.13	0.62
0.44	287.07	0.62
0.4633	284.65	0.62
0.4918	281.71	0.62

System: propan-1-ol + 1-butyl-3-methylpyridinium tetrafluoroborate; phases: Liquid
Fixed: Pressure, kPa = 101
Property: Excess molar enthalpy (molar enthalpy of mixing), kJ/mol (Liquid); method: CALVET:UFactor:2
Temperature, K	Mole fraction of 1-butyl-3-methylpyridinium tetrafluoroborate	Excess molar enthalpy (molar enthalpy of mixing), kJ/mol	uncertainty
298.15	0.0139	0.163	0.006
298.15	0.0242	0.236	0.008
298.15	0.0278	0.285	0.008
298.15	0.3397	2.341	0.049
298.15	0.3707	2.345	0.049
298.15	0.4045	2.309	0.048
298.15	0.4278	2.275	0.048
298.15	0.4642	2.222	0.046
298.15	0.498	2.117	0.044
298.15	0.5458	1.965	0.041
298.15	0.5983	1.741	0.037
298.15	0.6621	1.521	0.032
298.15	0.7278	1.246	0.027
298.15	0.7939	0.959	0.021
298.15	0.8653	0.685	0.016
298.15	0.9335	0.407	0.01
318.15	0.0232	0.417	0.011
318.15	0.052	0.776	0.018
318.15	0.0852	1.156	0.025
318.15	0.1233	1.552	0.033
318.15	0.1608	1.924	0.041
318.15	0.2011	2.235	0.048
318.15	0.2044	2.311	0.049
318.15	0.2311	2.441	0.051
318.15	0.2591	2.557	0.053
318.15	0.2896	2.652	0.055
318.15	0.3223	2.727	0.057
318.15	0.3585	2.773	0.057
318.15	0.3982	2.777	0.058
318.15	0.4404	2.742	0.057
318.15	0.4891	2.654	0.055
318.15	0.5441	2.502	0.052
318.15	0.6073	2.248	0.047
318.15	0.674	1.912	0.04
318.15	0.7504	1.509	0.032
318.15	0.8323	1.053	0.023
318.15	0.9131	0.598	0.014

System: propan-1-ol + 1-butyl-3-methylpyridinium tetrafluoroborate; phases: Liquid
Fixed: Pressure, kPa = 101
Property: Mass density, kg/m3 (Liquid); method: VIBTUB:UFactor:4
Temperature, K	Mole fraction of 1-butyl-3-methylpyridinium tetrafluoroborate	Mass density, kg/m3	uncertainty
298.15	0.016	816.7	0.7
298.15	0.4528	1066.5	0.6
298.15	0.494	1079.3	0.7
298.15	0.5262	1088.6	0.7
298.15	0.5959	1106.9	0.7
298.15	0.6934	1129.5	0.8
298.15	0.7543	1141.9	0.8
298.15	0.7993	1150.4	0.8
298.15	0.8582	1160.4	0.8
298.15	0.8962	1166.6	0.9
318.15	0.0143	798.4	0.8
318.15	0.0249	808.8	0.8
318.15	0.0477	830.6	0.8
318.15	0.1003	873.4	0.7
318.15	0.1222	890.6	0.7
318.15	0.1492	909.3	0.6
318.15	0.2	940.8	0.6
318.15	0.2295	957.5	0.5
318.15	0.3112	997.8	0.5
318.15	0.4002	1033.6	0.5
318.15	0.4285	1043.6	0.6
318.15	0.4635	1055.3	0.6
318.15	0.5638	1084.7	0.7
318.15	0.6072	1095.8	0.7
318.15	0.6405	1103.5	0.8
318.15	0.7096	1118.9	0.8
318.15	0.8001	1136.9	0.9
318.15	0.8522	1145.7	0.9
318.15	0.9028	1154.2	0.9

System: butan-1-ol + 1-butyl-3-methylpyridinium tetrafluoroborate; phases: Liquid mixture 1, Liquid mixture 2
Fixed: Pressure, kPa = 101
Property: Liquid-liquid equilibrium temperature, K (Liquid mixture 1); method: VISOBS:UFactor:4
Mole fraction of 1-butyl-3-methylpyridinium tetrafluoroborate	Liquid-liquid equilibrium temperature, K	uncertainty
0.0072	293.72	0.62
0.0134	302.81	0.62
0.0232	311.12	0.62
0.0504	318.28	0.62
0.093	320.78	0.62
0.1304	321.58	0.62
0.1678	321.34	0.62
0.1814	321.17	0.62
0.2145	320.35	0.62
0.2421	319.51	0.62
0.2708	318.01	0.62
0.2942	317.17	0.62
0.3278	315.4	0.62
0.3733	312.8	0.62
0.4243	308.86	0.62
0.4633	305.27	0.62
0.5067	300.56	0.62
0.5284	298.22	0.62
0.5527	295.25	0.62
0.5742	292.9	0.62
0.6033	289.48	0.62
0.654	281.22	0.62

System: butan-1-ol + 1-butyl-3-methylpyridinium tetrafluoroborate; phases: Liquid
Fixed: Temperature, K = 318.15
Fixed: Pressure, kPa = 101
Property: Excess molar enthalpy (molar enthalpy of mixing), kJ/mol (Liquid); method: CALVET:UFactor:2
Mole fraction of 1-butyl-3-methylpyridinium tetrafluoroborate	Excess molar enthalpy (molar enthalpy of mixing), kJ/mol	uncertainty
0.0098	0.151	0.006
0.025	0.286	0.009
0.0464	0.577	0.015
0.3603	2.849	0.059
0.3932	2.86	0.059
0.445	2.832	0.059
0.5101	2.726	0.057
0.5852	2.473	0.051
0.6705	2.106	0.044
0.7667	1.582	0.034
0.8531	1.104	0.024
0.9346	0.521	0.013

System: butan-1-ol + 1-butyl-3-methylpyridinium tetrafluoroborate; phases: Liquid
Fixed: Pressure, kPa = 101
Property: Mass density, kg/m3 (Liquid); method: VIBTUB:UFactor:4
Temperature, K	Mole fraction of 1-butyl-3-methylpyridinium tetrafluoroborate	Mass density, kg/m3	uncertainty
298.15	0.0166	819.7	0.7
298.15	0.7641	1136.6	0.8
298.15	0.8166	1147.7	0.8
298.15	0.8558	1155.7	0.8
298.15	0.904	1165.1	0.9
318.15	0.0191	805.5	0.7
318.15	0.6961	1107.5	0.8
318.15	0.7777	1125.9	0.8
318.15	0.8535	1141.6	0.9
318.15	0.9084	1152.1	0.9
318.15	0.9479	1159.4	0.9

System: water + 1-butyl-3-methylpyridinium tetrafluoroborate; phases: Liquid
Fixed: Pressure, kPa = 101
Property: Excess molar enthalpy (molar enthalpy of mixing), kJ/mol (Liquid); method: CALVET:UFactor:2
Temperature, K	Mole fraction of 1-butyl-3-methylpyridinium tetrafluoroborate	Excess molar enthalpy (molar enthalpy of mixing), kJ/mol	uncertainty
298.15	0.006	0.078	0.006
298.15	0.0137	0.167	0.007
298.15	0.0226	0.266	0.009
298.15	0.0328	0.374	0.01
298.15	0.0448	0.489	0.012
298.15	0.058	0.609	0.015
298.15	0.0724	0.732	0.017
298.15	0.0876	0.858	0.02
298.15	0.1038	0.982	0.022
298.15	0.1204	1.103	0.024
298.15	0.1234	1.123	0.025
298.15	0.1415	1.248	0.027
298.15	0.1713	1.362	0.029
298.15	0.1993	1.465	0.031
298.15	0.2307	1.555	0.033
298.15	0.2676	1.619	0.034
298.15	0.3091	1.635	0.035
298.15	0.3573	1.602	0.034
298.15	0.4051	1.533	0.033
298.15	0.4511	1.459	0.031
298.15	0.5139	1.33	0.029
298.15	0.6139	1.093	0.024
298.15	0.7899	0.631	0.015
318.15	0.0058	0.095	0.007
318.15	0.0136	0.217	0.009
318.15	0.0231	0.352	0.011
318.15	0.0339	0.487	0.013
318.15	0.0459	0.623	0.015
318.15	0.0605	0.769	0.018
318.15	0.0774	0.927	0.021
318.15	0.0961	1.089	0.024
318.15	0.1167	1.25	0.027
318.15	0.1225	1.28	0.028
318.15	0.1348	1.377	0.03
318.15	0.1378	1.399	0.03
318.15	0.1574	1.545	0.033
318.15	0.1845	1.681	0.036
318.15	0.2023	1.819	0.038
318.15	0.2358	1.941	0.041
318.15	0.2685	2.041	0.043
318.15	0.3026	2.099	0.044
318.15	0.3403	2.148	0.045
318.15	0.3889	2.141	0.045
318.15	0.4492	2.064	0.043
318.15	0.5301	1.894	0.04
318.15	0.6433	1.532	0.033
318.15	0.8206	0.841	0.019

System: water + 1-butyl-3-methylpyridinium tetrafluoroborate; phases: Liquid
Fixed: Pressure, kPa = 101
Property: Mass density, kg/m3 (Liquid); method: VIBTUB:UFactor:4
Temperature, K	Mole fraction of 1-butyl-3-methylpyridinium tetrafluoroborate	Mass density, kg/m3	uncertainty
298.15	0.0182	1027.1	0.5
298.15	0.0376	1050.3	0.5
298.15	0.0567	1067.1	0.5
298.15	0.0995	1093.7	0.5
298.15	0.1608	1116.8	0.5
298.15	0.2208	1131.4	0.5
298.15	0.2975	1143.6	0.5
298.15	0.3909	1154	0.6
298.15	0.4861	1161.5	0.6
298.15	0.5827	1167.2	0.7
298.15	0.6761	1171.8	0.7
298.15	0.8091	1176.6	0.8
298.15	0.8376	1177.6	0.8
298.15	0.8942	1179.4	0.8
318.15	0.0466	1046.8	0.4
318.15	0.1004	1080.4	0.4
318.15	0.1523	1099.8	0.4
318.15	0.1991	1112.4	0.5
318.15	0.251	1122.2	0.5
318.15	0.3038	1130.2	0.5
318.15	0.4108	1141.5	0.6
318.15	0.5062	1148.8	0.6
318.15	0.5822	1153.3	0.6
318.15	0.7042	1158.9	0.7
318.15	0.7551	1160.9	0.8
318.15	0.7904	1162.3	0.8
318.15	0.8123	1163.2	0.8
318.15	0.8988	1165.7	0.8
318.15	0.918	1166.3	0.8

System: methanol + 1-butyl-3-methylpyridinium tetrafluoroborate; phases: Liquid
Fixed: Pressure, kPa = 101
Property: Excess molar enthalpy (molar enthalpy of mixing), kJ/mol (Liquid); method: CALVET:UFactor:2
Temperature, K	Mole fraction of 1-butyl-3-methylpyridinium tetrafluoroborate	Excess molar enthalpy (molar enthalpy of mixing), kJ/mol	uncertainty
298.15	0.0057	0.109	0.007
298.15	0.0149	0.228	0.008
298.15	0.0279	0.386	0.011
298.15	0.044	0.546	0.014
298.15	0.0635	0.699	0.016
298.15	0.0842	0.846	0.019
298.15	0.1071	0.991	0.022
298.15	0.1312	1.133	0.025
298.15	0.1585	1.287	0.028
298.15	0.1851	1.391	0.03
298.15	0.2119	1.502	0.032
298.15	0.2357	1.56	0.033
298.15	0.2672	1.599	0.034
298.15	0.3069	1.617	0.034
298.15	0.3541	1.604	0.034
298.15	0.41	1.578	0.034
298.15	0.4816	1.512	0.032
298.15	0.5621	1.379	0.03
298.15	0.7167	1.077	0.024
298.15	0.7441	0.948	0.021
298.15	0.8438	0.662	0.015
298.15	0.9196	0.394	0.01
298.15	0.9707	0.174	0.006
318.15	0.0159	0.246	0.009
318.15	0.0352	0.506	0.013
318.15	0.0581	0.723	0.017
318.15	0.0823	0.939	0.021
318.15	0.1098	1.176	0.026
318.15	0.1382	1.406	0.03
318.15	0.1674	1.631	0.035
318.15	0.197	1.799	0.038
318.15	0.2147	1.934	0.041
318.15	0.2317	2.043	0.043
318.15	0.2641	2.142	0.045
318.15	0.2984	2.23	0.047
318.15	0.3343	2.276	0.048
318.15	0.3787	2.294	0.048
318.15	0.4391	2.253	0.047
318.15	0.5504	1.995	0.042
318.15	0.6911	1.46	0.031
318.15	0.8526	0.801	0.018

System: methanol + 1-butyl-3-methylpyridinium tetrafluoroborate; phases: Liquid
Fixed: Pressure, kPa = 101
Property: Mass density, kg/m3 (Liquid); method: VIBTUB:UFactor:4
Temperature, K	Mole fraction of 1-butyl-3-methylpyridinium tetrafluoroborate	Mass density, kg/m3	uncertainty
298.15	0.0493	873.4	0.8
298.15	0.0629	893.1	0.8
298.15	0.0986	934.4	0.7
298.15	0.1499	979.6	0.5
298.15	0.2007	1014.7	0.6
298.15	0.2956	1061.6	0.6
298.15	0.4052	1098.2	0.7
298.15	0.5128	1122.8	0.8
298.15	0.6009	1138.7	0.8
298.15	0.6913	1151.7	0.8
298.15	0.7611	1159.7	0.8
318.15	0.0557	865.7	0.8
318.15	0.1052	924.3	0.7
318.15	0.1493	964	0.6
318.15	0.2479	1025.1	0.5
318.15	0.3016	1048.4	0.6
318.15	0.3944	1079.5	0.7
318.15	0.497	1104.7	0.8
318.15	0.5868	1121.6	0.8
318.15	0.7088	1139.8	0.9
318.15	0.855	1156.2	0.9
318.15	0.9465	1164.4	1
