Measured thermophysical data. Torsion Measurement of Orpiment Vapor Pressure
Source: J. Chem. Eng. Data, 2007, 10.1021/je700056e
Compound 1: arsenic(III) sulfide, As2S3, InChI=1S/2As.3S/q2*+3;3*-2

System: arsenic(III) sulfide; phases: Crystal, Gas
Property: Vapor or sublimation pressure, kPa (Crystal); method: TOREFF:UFactor:2
Temperature, K	Vapor or sublimation pressure, kPa	uncertainty
501	0.01599	0.00161
506	0.01913	0.00192
508	0.02069	0.00208
508	0.02164	0.00217
510	0.02006	0.00202
511	0.02281	0.00229
513	0.02463	0.00248
513	0.02421	0.00243
513	0.0259	0.0026
515	0.02383	0.00239
516	0.02711	0.00272
518	0.02922	0.00294
518	0.02873	0.00289
518	0.03088	0.0031
520	0.02822	0.00284
520	0.03036	0.00305
521	0.03211	0.00323
523	0.03456	0.00347
523	0.03398	0.00341
523	0.03671	0.00369
525	0.03331	0.00335
525	0.03605	0.00362
526	0.0379	0.00381
526	0.03898	0.00392
528	0.04073	0.00409
528	0.04006	0.00403
528	0.04348	0.00437
529	0.04118	0.00414
530	0.03919	0.00394
530	0.04267	0.00429
531	0.0446	0.00448
531	0.04599	0.00462
533	0.04786	0.00481
533	0.04709	0.00473
533	0.05135	0.00516
534	0.04845	0.00487
535	0.05141	0.00517
535	0.04598	0.00462
535	0.05034	0.00506
536	0.05233	0.00526
536	0.0541	0.00544
537	0.05695	0.00572
538	0.05608	0.00564
538	0.05519	0.00555
538	0.06045	0.00608
539	0.05482	0.00551
539	0.05682	0.00571
540	0.06032	0.00606
540	0.05377	0.0054
540	0.05921	0.00595
541	0.06122	0.00615
541	0.06344	0.00638
542	0.06658	0.00669
542	0.06499	0.00653
543	0.06551	0.00658
543	0.06448	0.00648
543	0.07095	0.00713
544	0.06396	0.00643
544	0.06645	0.00668
545	0.07056	0.00709
545	0.06271	0.0063
545	0.06944	0.00698
546	0.07141	0.00718
546	0.07418	0.00746
547	0.07761	0.0078
547	0.07595	0.00763
548	0.07631	0.00767
548	0.07513	0.00755
548	0.08304	0.00835
549	0.07441	0.00748
549	0.07749	0.00779
550	0.08231	0.00827
550	0.07294	0.00733
550	0.08119	0.00816
551	0.08306	0.00835
551	0.08649	0.00869
552	0.09021	0.00907
552	0.08852	0.0089
553	0.08864	0.00891
553	0.08729	0.00877
553	0.0969	0.00974
554	0.08634	0.00868
554	0.0901	0.00906
555	0.09575	0.00962
555	0.08459	0.0085
555	0.09468	0.00952
556	0.09636	0.00968
556	0.1006	0.0101
557	0.1046	0.0105
557	0.1029	0.0103
558	0.1027	0.0103
558	0.1012	0.0102
559	0.09991	0.01004
559	0.1045	0.0105
559	0.1162	0.0117
560	0.1111	0.0112
560	0.09785	0.00983
560	0.1101	0.0111
561	0.1115	0.0112
561	0.1166	0.0117
562	0.1209	0.0122
562	0.1192	0.012
562	0.1136	0.0114
563	0.1187	0.0119
563	0.1204	0.0121
564	0.1153	0.0116
564	0.1209	0.0122
565	0.1285	0.0129
565	0.1256	0.0126
565	0.1129	0.0113
566	0.1286	0.0129
566	0.1349	0.0136
567	0.1395	0.014
567	0.1195	0.012
567	0.1379	0.0139
569	0.1328	0.0133
569	0.1394	0.014
570	0.1483	0.0149
571	0.1476	0.0148
572	0.1604	0.0161
572	0.159	0.016
574	0.1525	0.0153
575	0.1708	0.0172
577	0.1841	0.0185
577	0.1829	0.0184
579	0.1747	0.0176
580	0.1961	0.0197
581	0.2016	0.0203
581	0.1843	0.0185
582	0.2108	0.0212
582	0.2098	0.0211
583	0.2165	0.0218
