Measured thermophysical data. Liquid Phase Behavior of Ionic Liquids with Water and 1-Octanol and Modeling of 1-Octanol/Water Partition Coefficients
Source: J. Chem. Eng. Data, 2007, 10.1021/je7003935
Compound 1: 1-(2-hydroxyethyl)-3-methylimidazolium bis[(trifluoromethyl)sulfonyl]imide, C8H11F6N3O5S2, InChI=1S/C6H11N2O.C2F6NO4S2/c1-7-2-3-8(6-7)4-5-9;3-1(4,5)14(10,11)9-15(12,13)2(6,7)8/h2-3,6,9H,4-5H2,1H3;/q+1;-1
Compound 2: 1-hexyl-3-methylimidazolium bis[(trifluoromethyl)sulfonyl]imide, C12H19F6N3O4S2, InChI=1S/C10H19N2.C2F6NO4S2/c1-3-4-5-6-7-12-9-8-11(2)10-12;3-1(4,5)14(10,11)9-15(12,13)2(6,7)8/h8-10H,3-7H2,1-2H3;/q+1;-1
Compound 3: 1-hexyl-2,3-dimethylimidazolium bis[(trifluoromethyl)sulfonyl]imide, C13H21F6N3O4S2, InChI=1S/C11H21N2.C2F6NO4S2/c1-4-5-6-7-8-13-10-9-12(3)11(13)2;3-1(4,5)14(10,11)9-15(12,13)2(6,7)8/h9-10H,4-8H2,1-3H3;/q+1;-1
Compound 4: 1-octyl-3-methylimidazolium bis[(trifluoromethyl)sulfonyl]imide, C14H23F6N3O4S2, InChI=1S/C12H23N2.C2F6NO4S2/c1-3-4-5-6-7-8-9-14-11-10-13(2)12-14;3-1(4,5)14(10,11)9-15(12,13)2(6,7)8/h10-12H,3-9H2,1-2H3;/q+1;-1
Compound 5: 1-butyl-3-methylimidazolium tris[(trifluoromethyl)sulfonyl]methide, C12H15F9N2O6S3, InChI=1S/C8H15N2.C4F9O6S3/c1-3-4-5-10-7-6-9(2)8-10;5-2(6,7)20(14,15)1(21(16,17)3(8,9)10)22(18,19)4(11,12)13/h6-8H,3-5H2,1-2H3;/q+1;-1
Compound 6: 1-ethyl-3-methylimidazolium tetracyanoborate, C10H11BN6, InChI=1S/C6H11N2.C4BN4/c1-3-8-5-4-7(2)6-8;6-1-5(2-7,3-8)4-9/h4-6H,3H2,1-2H3;/q+1;-1
Compound 7: choline bis(trifluoromethylsulfonyl)imide, C7H14F6N2O5S2, InChI=1S/C5H14NO.C2F6NO4S2/c1-6(2,3)4-5-7;3-1(4,5)14(10,11)9-15(12,13)2(6,7)8/h7H,4-5H2,1-3H3;/q+1;-1
Compound 8: 1-butyl-3-methylpyridinium 1,1,1-trifluoro-N-[(trifluoromethyl)sulfonyl]methanesulfonamide, C12H16F6N2O4S2, InChI=1S/C10H16N.C2F6NO4S2/c1-3-4-7-11-8-5-6-10(2)9-11;3-1(4,5)14(10,11)9-15(12,13)2(6,7)8/h5-6,8-9H,3-4,7H2,1-2H3;/q+1;-1
Compound 9: 1-hexylpyridinium bis(trifluromethylsulfonyl)imide, C13H18F6N2O4S2, InChI=1S/C11H18N.C2F6NO4S2/c1-2-3-4-6-9-12-10-7-5-8-11-12;3-1(4,5)14(10,11)9-15(12,13)2(6,7)8/h5,7-8,10-11H,2-4,6,9H2,1H3;/q+1;-1
Compound 10: 1-hexyl-3-methylpyridinium 1,1,1-trifluoro-N-[(trifluoromethyl)sulfonyl]methanesulfonamide, C14H20F6N2O4S2, InChI=1S/C12H20N.C2F6NO4S2/c1-3-4-5-6-9-13-10-7-8-12(2)11-13;3-1(4,5)14(10,11)9-15(12,13)2(6,7)8/h7-8,10-11H,3-6,9H2,1-2H3;/q+1;-1
Compound 11: 1-hexyl-3,5-dimethylpyridinium bis(trifluoromethylsulfonyl)imide, C15H22F6N2O4S2, InChI=1S/C13H22N.C2F6NO4S2/c1-4-5-6-7-8-14-10-12(2)9-13(3)11-14;3-1(4,5)14(10,11)9-15(12,13)2(6,7)8/h9-11H,4-8H2,1-3H3;/q+1;-1
Compound 12: 1-hexyl-2-ethyl-3,5-dimethylpyridinium 1,1,1-trifluoro-N-[(trifluoromethyl)sulfonyl]methanesulfonamide, C17H26F6N2O4S2, InChI=1S/C15H26N.C2F6NO4S2/c1-5-7-8-9-10-16-12-13(3)11-14(4)15(16)6-2;3-1(4,5)14(10,11)9-15(12,13)2(6,7)8/h11-12H,5-10H2,1-4H3;/q+1;-1
Compound 13: 1-octyl-3-methylpydridinium bis(trifluoromethylsulfonyl)imide, C16H24F6N2O4S2, InChI=1S/C14H24N.C2F6NO4S2/c1-3-4-5-6-7-8-11-15-12-9-10-14(2)13-15;3-1(4,5)14(10,11)9-15(12,13)2(6,7)8/h9-10,12-13H,3-8,11H2,1-2H3;/q+1;-1
Compound 14: 4-(dimethylamino)-1-hexyl-pyridinium 1,1,1-trifluoro-N-[(trifluoromethyl)sulfonyl]methanesulfonamide, C15H23F6N3O4S2, InChI=1S/C13H23N2.C2F6NO4S2/c1-4-5-6-7-10-15-11-8-13(9-12-15)14(2)3;3-1(4,5)14(10,11)9-15(12,13)2(6,7)8/h8-9,11-12H,4-7,10H2,1-3H3;/q+1;-1
Compound 15: 1-hexyl-3-methyl-4-(dimethylamino)pyridinium 1,1,1-trifluoro-N-[(trifluoromethyl)sulfonyl]methanesulfonamide, C16H25F6N3O4S2, InChI=1S/C14H25N2.C2F6NO4S2/c1-5-6-7-8-10-16-11-9-14(15(3)4)13(2)12-16;3-1(4,5)14(10,11)9-15(12,13)2(6,7)8/h9,11-12H,5-8,10H2,1-4H3;/q+1;-1
Compound 16: water, H2O, InChI=1S/H2O/h1H2
Compound 17: octan-1-ol, C8H18O, InChI=1S/C8H18O/c1-2-3-4-5-6-7-8-9/h9H,2-8H2,1H3

System: water + 1-ethyl-3-methylimidazolium tetracyanoborate; phases: Liquid mixture 2, Liquid mixture 1
Property: Mass fraction of water (Liquid mixture 2); method: Titration method
Temperature, K	Pressure, kPa	Mass fraction of water	uncertainty
296.65	101	0.117	0.003

System: water + 1-ethyl-3-methylimidazolium tetracyanoborate; phases: Liquid mixture 1, Liquid mixture 2
Property: Mass fraction of 1-ethyl-3-methylimidazolium tetracyanoborate (Liquid mixture 1); method: spectroscopy
Temperature, K	Pressure, kPa	Mass fraction of 1-ethyl-3-methylimidazolium tetracyanoborate	uncertainty
296.65	101	0.042	0.004

System: water + 1-(2-hydroxyethyl)-3-methylimidazolium bis[(trifluoromethyl)sulfonyl]imide; phases: Liquid mixture 2, Liquid mixture 1
Property: Mass fraction of water (Liquid mixture 2); method: Titration method
Temperature, K	Pressure, kPa	Mass fraction of water	uncertainty
296.65	101	0.087	0.004

System: water + 1-(2-hydroxyethyl)-3-methylimidazolium bis[(trifluoromethyl)sulfonyl]imide; phases: Liquid mixture 1, Liquid mixture 2
Property: Mass fraction of 1-(2-hydroxyethyl)-3-methylimidazolium bis[(trifluoromethyl)sulfonyl]imide (Liquid mixture 1); method: spectroscopy
Temperature, K	Pressure, kPa	Mass fraction of 1-(2-hydroxyethyl)-3-methylimidazolium bis[(trifluoromethyl)sulfonyl]imide	uncertainty
296.65	101	0.094	0.006

System: water + 1-butyl-3-methylimidazolium tris[(trifluoromethyl)sulfonyl]methide; phases: Liquid mixture 2, Liquid mixture 1
Property: Mass fraction of water (Liquid mixture 2); method: Titration method
Temperature, K	Pressure, kPa	Mass fraction of water	uncertainty
296.65	101	0.0053	0.0002

System: water + 1-butyl-3-methylimidazolium tris[(trifluoromethyl)sulfonyl]methide; phases: Liquid mixture 1, Liquid mixture 2
Property: Mass fraction of 1-butyl-3-methylimidazolium tris[(trifluoromethyl)sulfonyl]methide (Liquid mixture 1); method: spectroscopy
Temperature, K	Pressure, kPa	Mass fraction of 1-butyl-3-methylimidazolium tris[(trifluoromethyl)sulfonyl]methide	uncertainty
296.65	101	0.0011	0.0002

System: water + 1-hexyl-3-methylimidazolium bis[(trifluoromethyl)sulfonyl]imide; phases: Liquid mixture 2, Liquid mixture 1
Property: Mass fraction of water (Liquid mixture 2); method: Titration method
Temperature, K	Pressure, kPa	Mass fraction of water	uncertainty
296.65	101	0.0107	0.0003

System: water + 1-hexyl-3-methylimidazolium bis[(trifluoromethyl)sulfonyl]imide; phases: Liquid mixture 1, Liquid mixture 2
Property: Mass fraction of 1-hexyl-3-methylimidazolium bis[(trifluoromethyl)sulfonyl]imide (Liquid mixture 1); method: spectroscopy
Temperature, K	Pressure, kPa	Mass fraction of 1-hexyl-3-methylimidazolium bis[(trifluoromethyl)sulfonyl]imide	uncertainty
296.65	101	0.0023	0.0002

System: water + 1-octyl-3-methylimidazolium bis[(trifluoromethyl)sulfonyl]imide; phases: Liquid mixture 2, Liquid mixture 1
Property: Mass fraction of water (Liquid mixture 2); method: Titration method
Temperature, K	Pressure, kPa	Mass fraction of water	uncertainty
296.65	101	0.0091	0.0002

System: water + 1-octyl-3-methylimidazolium bis[(trifluoromethyl)sulfonyl]imide; phases: Liquid mixture 1, Liquid mixture 2
Property: Mass fraction of 1-octyl-3-methylimidazolium bis[(trifluoromethyl)sulfonyl]imide (Liquid mixture 1); method: spectroscopy
Temperature, K	Pressure, kPa	Mass fraction of 1-octyl-3-methylimidazolium bis[(trifluoromethyl)sulfonyl]imide	uncertainty
296.65	101	0.0019	0.0004

System: water + 1-hexyl-2,3-dimethylimidazolium bis[(trifluoromethyl)sulfonyl]imide; phases: Liquid mixture 2, Liquid mixture 1
Property: Mass fraction of water (Liquid mixture 2); method: Titration method
Temperature, K	Pressure, kPa	Mass fraction of water	uncertainty
296.65	101	0.008	0.0002

System: water + 1-hexyl-2,3-dimethylimidazolium bis[(trifluoromethyl)sulfonyl]imide; phases: Liquid mixture 1, Liquid mixture 2
Property: Mass fraction of 1-hexyl-2,3-dimethylimidazolium bis[(trifluoromethyl)sulfonyl]imide (Liquid mixture 1); method: spectroscopy
Temperature, K	Pressure, kPa	Mass fraction of 1-hexyl-2,3-dimethylimidazolium bis[(trifluoromethyl)sulfonyl]imide	uncertainty
296.65	101	0.0018	0.0002

System: water + 1-butyl-3-methylpyridinium 1,1,1-trifluoro-N-[(trifluoromethyl)sulfonyl]methanesulfonamide; phases: Liquid mixture 2, Liquid mixture 1
Property: Mass fraction of water (Liquid mixture 2); method: Titration method
Temperature, K	Pressure, kPa	Mass fraction of water	uncertainty
296.65	101	0.0111	0.0003

System: water + 1-butyl-3-methylpyridinium 1,1,1-trifluoro-N-[(trifluoromethyl)sulfonyl]methanesulfonamide; phases: Liquid mixture 1, Liquid mixture 2
Property: Mass fraction of 1-butyl-3-methylpyridinium 1,1,1-trifluoro-N-[(trifluoromethyl)sulfonyl]methanesulfonamide (Liquid mixture 1); method: spectroscopy
Temperature, K	Pressure, kPa	Mass fraction of 1-butyl-3-methylpyridinium 1,1,1-trifluoro-N-[(trifluoromethyl)sulfonyl]methanesulfonamide	uncertainty
296.65	101	0.0047	0.0002

System: water + 1-hexylpyridinium bis(trifluromethylsulfonyl)imide; phases: Liquid mixture 2, Liquid mixture 1
Property: Mass fraction of water (Liquid mixture 2); method: Titration method
Temperature, K	Pressure, kPa	Mass fraction of water	uncertainty
296.65	101	0.011	0.0003

System: water + 1-hexylpyridinium bis(trifluromethylsulfonyl)imide; phases: Liquid mixture 1, Liquid mixture 2
Property: Mass fraction of 1-hexylpyridinium bis(trifluromethylsulfonyl)imide (Liquid mixture 1); method: spectroscopy
Temperature, K	Pressure, kPa	Mass fraction of 1-hexylpyridinium bis(trifluromethylsulfonyl)imide	uncertainty
296.65	101	0.0028	0.0002

System: water + 1-hexyl-3-methylpyridinium 1,1,1-trifluoro-N-[(trifluoromethyl)sulfonyl]methanesulfonamide; phases: Liquid mixture 2, Liquid mixture 1
Property: Mass fraction of water (Liquid mixture 2); method: Titration method
Temperature, K	Pressure, kPa	Mass fraction of water	uncertainty
296.65	101	0.0088	0.0002

System: water + 1-hexyl-3-methylpyridinium 1,1,1-trifluoro-N-[(trifluoromethyl)sulfonyl]methanesulfonamide; phases: Liquid mixture 1, Liquid mixture 2
Property: Mass fraction of 1-hexyl-3-methylpyridinium 1,1,1-trifluoro-N-[(trifluoromethyl)sulfonyl]methanesulfonamide (Liquid mixture 1); method: spectroscopy
Temperature, K	Pressure, kPa	Mass fraction of 1-hexyl-3-methylpyridinium 1,1,1-trifluoro-N-[(trifluoromethyl)sulfonyl]methanesulfonamide	uncertainty
296.65	101	0.0017	0.0002

System: water + 1-hexyl-3,5-dimethylpyridinium bis(trifluoromethylsulfonyl)imide; phases: Liquid mixture 2, Liquid mixture 1
Property: Mass fraction of water (Liquid mixture 2); method: Titration method
Temperature, K	Pressure, kPa	Mass fraction of water	uncertainty
296.65	101	0.0069	0.0006

System: water + 1-hexyl-3,5-dimethylpyridinium bis(trifluoromethylsulfonyl)imide; phases: Liquid mixture 1, Liquid mixture 2
Property: Mass fraction of 1-hexyl-3,5-dimethylpyridinium bis(trifluoromethylsulfonyl)imide (Liquid mixture 1); method: spectroscopy
Temperature, K	Pressure, kPa	Mass fraction of 1-hexyl-3,5-dimethylpyridinium bis(trifluoromethylsulfonyl)imide	uncertainty
296.65	101	0.0008	0.0002

System: water + 1-octyl-3-methylpydridinium bis(trifluoromethylsulfonyl)imide; phases: Liquid mixture 2, Liquid mixture 1
Property: Mass fraction of water (Liquid mixture 2); method: Titration method
Temperature, K	Pressure, kPa	Mass fraction of water	uncertainty
296.65	101	0.0074	0.0004

System: water + 1-octyl-3-methylpydridinium bis(trifluoromethylsulfonyl)imide; phases: Liquid mixture 1, Liquid mixture 2
Property: Mass fraction of 1-octyl-3-methylpydridinium bis(trifluoromethylsulfonyl)imide (Liquid mixture 1); method: spectroscopy
Temperature, K	Pressure, kPa	Mass fraction of 1-octyl-3-methylpydridinium bis(trifluoromethylsulfonyl)imide	uncertainty
296.65	101	0.0015	0.0002

System: water + 4-(dimethylamino)-1-hexyl-pyridinium 1,1,1-trifluoro-N-[(trifluoromethyl)sulfonyl]methanesulfonamide; phases: Liquid mixture 2, Liquid mixture 1
Property: Mass fraction of water (Liquid mixture 2); method: Titration method
Temperature, K	Pressure, kPa	Mass fraction of water	uncertainty
296.65	101	0.0094	0.0004

System: water + 4-(dimethylamino)-1-hexyl-pyridinium 1,1,1-trifluoro-N-[(trifluoromethyl)sulfonyl]methanesulfonamide; phases: Liquid mixture 1, Liquid mixture 2
Property: Mass fraction of 4-(dimethylamino)-1-hexyl-pyridinium 1,1,1-trifluoro-N-[(trifluoromethyl)sulfonyl]methanesulfonamide (Liquid mixture 1); method: spectroscopy
Temperature, K	Pressure, kPa	Mass fraction of 4-(dimethylamino)-1-hexyl-pyridinium 1,1,1-trifluoro-N-[(trifluoromethyl)sulfonyl]methanesulfonamide	uncertainty
296.65	101	0.0008	0.0002

System: water + 1-hexyl-2-ethyl-3,5-dimethylpyridinium 1,1,1-trifluoro-N-[(trifluoromethyl)sulfonyl]methanesulfonamide; phases: Liquid mixture 2, Liquid mixture 1
Property: Mass fraction of water (Liquid mixture 2); method: Titration method
Temperature, K	Pressure, kPa	Mass fraction of water	uncertainty
296.65	101	0.0056	0.0008

System: water + 1-hexyl-2-ethyl-3,5-dimethylpyridinium 1,1,1-trifluoro-N-[(trifluoromethyl)sulfonyl]methanesulfonamide; phases: Liquid mixture 1, Liquid mixture 2
Property: Mass fraction of 1-hexyl-2-ethyl-3,5-dimethylpyridinium 1,1,1-trifluoro-N-[(trifluoromethyl)sulfonyl]methanesulfonamide (Liquid mixture 1); method: spectroscopy
Temperature, K	Pressure, kPa	Mass fraction of 1-hexyl-2-ethyl-3,5-dimethylpyridinium 1,1,1-trifluoro-N-[(trifluoromethyl)sulfonyl]methanesulfonamide	uncertainty
296.65	101	0.0016	0.001

System: water + 1-hexyl-3-methyl-4-(dimethylamino)pyridinium 1,1,1-trifluoro-N-[(trifluoromethyl)sulfonyl]methanesulfonamide; phases: Liquid mixture 2, Liquid mixture 1
Property: Mass fraction of water (Liquid mixture 2); method: Titration method
Temperature, K	Pressure, kPa	Mass fraction of water	uncertainty
296.65	101	0.007	0.0004

System: water + 1-hexyl-3-methyl-4-(dimethylamino)pyridinium 1,1,1-trifluoro-N-[(trifluoromethyl)sulfonyl]methanesulfonamide; phases: Liquid mixture 1, Liquid mixture 2
Property: Mass fraction of 1-hexyl-3-methyl-4-(dimethylamino)pyridinium 1,1,1-trifluoro-N-[(trifluoromethyl)sulfonyl]methanesulfonamide (Liquid mixture 1); method: spectroscopy
Temperature, K	Pressure, kPa	Mass fraction of 1-hexyl-3-methyl-4-(dimethylamino)pyridinium 1,1,1-trifluoro-N-[(trifluoromethyl)sulfonyl]methanesulfonamide	uncertainty
296.65	101	0.0005	0.0002

System: octan-1-ol + 1-ethyl-3-methylimidazolium tetracyanoborate; phases: Liquid mixture 2, Liquid mixture 1
Property: Mass fraction of octan-1-ol (Liquid mixture 2); method: Chromatography
Temperature, K	Pressure, kPa	Mass fraction of octan-1-ol	uncertainty
296.65	101	0.06	0.001

System: octan-1-ol + 1-ethyl-3-methylimidazolium tetracyanoborate; phases: Liquid mixture 1, Liquid mixture 2
Property: Mass fraction of 1-ethyl-3-methylimidazolium tetracyanoborate (Liquid mixture 1); method: spectroscopy
Temperature, K	Pressure, kPa	Mass fraction of 1-ethyl-3-methylimidazolium tetracyanoborate	uncertainty
296.65	101	0.0098	0.001

System: octan-1-ol + 1-butyl-3-methylpyridinium 1,1,1-trifluoro-N-[(trifluoromethyl)sulfonyl]methanesulfonamide; phases: Liquid mixture 2, Liquid mixture 1
Property: Mass fraction of octan-1-ol (Liquid mixture 2); method: Chromatography
Temperature, K	Pressure, kPa	Mass fraction of octan-1-ol	uncertainty
296.65	101	0.065	0.02

System: octan-1-ol + 1-butyl-3-methylpyridinium 1,1,1-trifluoro-N-[(trifluoromethyl)sulfonyl]methanesulfonamide; phases: Liquid mixture 1, Liquid mixture 2
Property: Mass fraction of 1-butyl-3-methylpyridinium 1,1,1-trifluoro-N-[(trifluoromethyl)sulfonyl]methanesulfonamide (Liquid mixture 1); method: spectroscopy
Temperature, K	Pressure, kPa	Mass fraction of 1-butyl-3-methylpyridinium 1,1,1-trifluoro-N-[(trifluoromethyl)sulfonyl]methanesulfonamide	uncertainty
296.65	101	0.0074	0.001

System: octan-1-ol + 1-hexylpyridinium bis(trifluromethylsulfonyl)imide; phases: Liquid mixture 2, Liquid mixture 1
Property: Mass fraction of octan-1-ol (Liquid mixture 2); method: Chromatography
Temperature, K	Pressure, kPa	Mass fraction of octan-1-ol	uncertainty
296.65	101	0.106	0.01

System: octan-1-ol + 1-hexylpyridinium bis(trifluromethylsulfonyl)imide; phases: Liquid mixture 1, Liquid mixture 2
Property: Mass fraction of 1-hexylpyridinium bis(trifluromethylsulfonyl)imide (Liquid mixture 1); method: spectroscopy
Temperature, K	Pressure, kPa	Mass fraction of 1-hexylpyridinium bis(trifluromethylsulfonyl)imide	uncertainty
296.65	101	0.017	0.002

System: octan-1-ol + 1-hexyl-3-methylpyridinium 1,1,1-trifluoro-N-[(trifluoromethyl)sulfonyl]methanesulfonamide; phases: Liquid mixture 2, Liquid mixture 1
Property: Mass fraction of octan-1-ol (Liquid mixture 2); method: Chromatography
Temperature, K	Pressure, kPa	Mass fraction of octan-1-ol	uncertainty
296.65	101	0.1	0.01

System: octan-1-ol + 1-hexyl-3-methylpyridinium 1,1,1-trifluoro-N-[(trifluoromethyl)sulfonyl]methanesulfonamide; phases: Liquid mixture 1, Liquid mixture 2
Property: Mass fraction of 1-hexyl-3-methylpyridinium 1,1,1-trifluoro-N-[(trifluoromethyl)sulfonyl]methanesulfonamide (Liquid mixture 1); method: spectroscopy
Temperature, K	Pressure, kPa	Mass fraction of 1-hexyl-3-methylpyridinium 1,1,1-trifluoro-N-[(trifluoromethyl)sulfonyl]methanesulfonamide	uncertainty
296.65	101	0.0188	0.0002

System: octan-1-ol + 1-hexyl-3,5-dimethylpyridinium bis(trifluoromethylsulfonyl)imide; phases: Liquid mixture 2, Liquid mixture 1
Property: Mass fraction of octan-1-ol (Liquid mixture 2); method: Chromatography
Temperature, K	Pressure, kPa	Mass fraction of octan-1-ol	uncertainty
296.65	101	0.115	0.04

System: octan-1-ol + 1-hexyl-3,5-dimethylpyridinium bis(trifluoromethylsulfonyl)imide; phases: Liquid mixture 1, Liquid mixture 2
Property: Mass fraction of 1-hexyl-3,5-dimethylpyridinium bis(trifluoromethylsulfonyl)imide (Liquid mixture 1); method: spectroscopy
Temperature, K	Pressure, kPa	Mass fraction of 1-hexyl-3,5-dimethylpyridinium bis(trifluoromethylsulfonyl)imide	uncertainty
296.65	101	0.015	0.004

System: octan-1-ol + 1-hexyl-2-ethyl-3,5-dimethylpyridinium 1,1,1-trifluoro-N-[(trifluoromethyl)sulfonyl]methanesulfonamide; phases: Liquid mixture 2, Liquid mixture 1
Property: Mass fraction of octan-1-ol (Liquid mixture 2); method: Chromatography
Temperature, K	Pressure, kPa	Mass fraction of octan-1-ol	uncertainty
296.65	101	0.105	0.01

System: octan-1-ol + 1-hexyl-2-ethyl-3,5-dimethylpyridinium 1,1,1-trifluoro-N-[(trifluoromethyl)sulfonyl]methanesulfonamide; phases: Liquid mixture 1, Liquid mixture 2
Property: Mass fraction of 1-hexyl-2-ethyl-3,5-dimethylpyridinium 1,1,1-trifluoro-N-[(trifluoromethyl)sulfonyl]methanesulfonamide (Liquid mixture 1); method: spectroscopy
Temperature, K	Pressure, kPa	Mass fraction of 1-hexyl-2-ethyl-3,5-dimethylpyridinium 1,1,1-trifluoro-N-[(trifluoromethyl)sulfonyl]methanesulfonamide	uncertainty
296.65	101	0.011	0.002

System: octan-1-ol + 1-octyl-3-methylpydridinium bis(trifluoromethylsulfonyl)imide; phases: Liquid mixture 2, Liquid mixture 1
Property: Mass fraction of octan-1-ol (Liquid mixture 2); method: Chromatography
Temperature, K	Pressure, kPa	Mass fraction of octan-1-ol	uncertainty
296.65	101	0.211	0.01

System: octan-1-ol + 1-octyl-3-methylpydridinium bis(trifluoromethylsulfonyl)imide; phases: Liquid mixture 1, Liquid mixture 2
Property: Mass fraction of 1-octyl-3-methylpydridinium bis(trifluoromethylsulfonyl)imide (Liquid mixture 1); method: spectroscopy
Temperature, K	Pressure, kPa	Mass fraction of 1-octyl-3-methylpydridinium bis(trifluoromethylsulfonyl)imide	uncertainty
296.65	101	0.05	0.001

System: octan-1-ol + 4-(dimethylamino)-1-hexyl-pyridinium 1,1,1-trifluoro-N-[(trifluoromethyl)sulfonyl]methanesulfonamide; phases: Liquid mixture 2, Liquid mixture 1
Property: Mass fraction of octan-1-ol (Liquid mixture 2); method: Chromatography
Temperature, K	Pressure, kPa	Mass fraction of octan-1-ol	uncertainty
296.65	101	0.135	0.01

System: octan-1-ol + 4-(dimethylamino)-1-hexyl-pyridinium 1,1,1-trifluoro-N-[(trifluoromethyl)sulfonyl]methanesulfonamide; phases: Liquid mixture 1, Liquid mixture 2
Property: Mass fraction of 4-(dimethylamino)-1-hexyl-pyridinium 1,1,1-trifluoro-N-[(trifluoromethyl)sulfonyl]methanesulfonamide (Liquid mixture 1); method: spectroscopy
Temperature, K	Pressure, kPa	Mass fraction of 4-(dimethylamino)-1-hexyl-pyridinium 1,1,1-trifluoro-N-[(trifluoromethyl)sulfonyl]methanesulfonamide	uncertainty
296.65	101	0.019	0.001

System: octan-1-ol + 1-hexyl-3-methyl-4-(dimethylamino)pyridinium 1,1,1-trifluoro-N-[(trifluoromethyl)sulfonyl]methanesulfonamide; phases: Liquid mixture 2, Liquid mixture 1
Property: Mass fraction of octan-1-ol (Liquid mixture 2); method: Chromatography
Temperature, K	Pressure, kPa	Mass fraction of octan-1-ol	uncertainty
296.65	101	0.12	0.02

System: octan-1-ol + 1-hexyl-3-methyl-4-(dimethylamino)pyridinium 1,1,1-trifluoro-N-[(trifluoromethyl)sulfonyl]methanesulfonamide; phases: Liquid mixture 1, Liquid mixture 2
Property: Mass fraction of 1-hexyl-3-methyl-4-(dimethylamino)pyridinium 1,1,1-trifluoro-N-[(trifluoromethyl)sulfonyl]methanesulfonamide (Liquid mixture 1); method: spectroscopy
Temperature, K	Pressure, kPa	Mass fraction of 1-hexyl-3-methyl-4-(dimethylamino)pyridinium 1,1,1-trifluoro-N-[(trifluoromethyl)sulfonyl]methanesulfonamide	uncertainty
296.65	101	0.0137	0.001

System: octan-1-ol + choline bis(trifluoromethylsulfonyl)imide; phases: Liquid mixture 2, Liquid mixture 1
Property: Mass fraction of octan-1-ol (Liquid mixture 2); method: Chromatography
Temperature, K	Pressure, kPa	Mass fraction of octan-1-ol	uncertainty
296.65	101	0.008	0.008

System: octan-1-ol + choline bis(trifluoromethylsulfonyl)imide; phases: Liquid mixture 1, Liquid mixture 2
Property: Mass fraction of choline bis(trifluoromethylsulfonyl)imide (Liquid mixture 1); method: spectroscopy
Temperature, K	Pressure, kPa	Mass fraction of choline bis(trifluoromethylsulfonyl)imide	uncertainty
296.65	101	0.055	0.002
