Measured thermophysical data. PVT Property Measurements for R143a, R125, and R32 in the Gaseous Phase
Source: J. Chem. Eng. Data, 2007, 10.1021/je700236c
Compound 1: 1,1,1-trifluoroethane, C2H3F3, InChI=1S/C2H3F3/c1-2(3,4)5/h1H3
Compound 2: pentafluoroethane, C2HF5, InChI=1S/C2HF5/c3-1(4)2(5,6)7/h1H
Compound 3: difluoromethane, CH2F2, InChI=1S/CH2F2/c2-1-3/h1H2

System: 1,1,1-trifluoroethane; phases: Gas
Property: Mass density, kg/m3 (Gas); method: Buoyancy - hydrostatic balance with magnetic suspension - two sinkers
Temperature, K	Pressure, kPa	Mass density, kg/m3	uncertainty
283.15	203.6	7.588	0.011
283.15	399.9	15.605	0.014
283.15	505.8	20.282	0.019
283.15	605	24.932	0.023
283.15	651.6	27.227	0.026
283.15	651.7	27.238	0.026
283.15	700.8	29.728	0.028
283.15	750.8	32.361	0.031
283.15	781.5	34.03	0.033
283.15	781.6	34.039	0.033
283.15	801.7	35.15	0.034
283.15	801.8	35.164	0.034
283.15	820.2	36.196	0.035
283.15	820.3	36.205	0.035
283.15	203.6	7.589	0.011
283.15	399.9	15.605	0.014
283.15	505.8	20.278	0.019
283.15	605	24.935	0.023
283.15	700.8	29.729	0.028
283.15	750.8	32.363	0.031
293.15	201.7	7.219	0.011
293.15	201.8	7.222	0.011
293.15	400.3	14.916	0.014
293.15	599.3	23.356	0.021
293.15	701.3	28.031	0.026
293.15	798.2	32.729	0.031
293.15	898.7	37.925	0.035
293.15	951	40.774	0.041
293.15	999.6	43.532	0.044
293.15	1030.9	45.365	0.046
293.15	1048.7	46.429	0.048
293.15	1048.8	46.429	0.048
293.15	1071	47.788	0.05
293.15	1071.1	47.784	0.05
293.15	1089	48.896	0.051
293.15	400.3	14.915	0.014
293.15	599.3	23.36	0.021
293.15	701.3	28.028	0.026
293.15	798.2	32.732	0.031
293.15	898.7	37.921	0.035
293.15	951	40.774	0.041
293.15	999.6	43.532	0.044
293.15	1030.9	45.355	0.046
293.15	1089	48.901	0.051
303.15	200	6.895	0.011
303.15	400.9	14.305	0.014
303.15	600.3	22.265	0.02
303.15	600.4	22.265	0.02
303.15	801.6	31.034	0.029
303.15	1001	40.662	0.039
303.15	1099.9	45.879	0.047
303.15	1197.3	51.364	0.053
303.15	1249.2	54.458	0.057
303.15	1299.5	57.578	0.061
303.15	1340.6	60.231	0.067
303.15	1369.8	62.181	0.071
303.15	1401.5	64.363	0.073
303.15	1423.7	65.925	0.075
303.15	1423.9	65.952	0.076
303.15	200	6.903	0.011
303.15	400.9	14.313	0.014
303.15	801.6	31.031	0.029
303.15	1001	40.666	0.039
303.15	1099.9	45.88	0.047
303.15	1197.3	51.363	0.053
303.15	1299.5	57.581	0.061
303.15	1340.6	60.229	0.067
303.15	1369.8	62.183	0.071
303.15	1401.5	64.364	0.073
313.15	201.5	6.696	0.011
313.15	201.8	6.718	0.011
313.15	205.1	6.831	0.011
313.15	206.2	6.869	0.011
313.15	401.6	13.776	0.013
313.15	401.7	13.775	0.013
313.15	600.3	21.275	0.019
313.15	800.3	29.41	0.027
313.15	999.1	38.197	0.036
313.15	1200.3	47.988	0.048
313.15	1400.2	58.893	0.063
313.15	1500.8	64.963	0.072
313.15	1540.9	67.443	0.078
313.15	1598	71.29	0.083
313.15	1598.1	71.312	0.083
313.15	1648.3	74.652	0.088
313.15	1701.3	78.498	0.097
313.15	1740.8	81.508	0.104
313.15	1771.1	83.908	0.111
313.15	1793.2	85.73	0.115
313.15	1794.4	85.811	0.114
313.15	205.1	6.828	0.011
313.15	600.3	21.282	0.019
313.15	800.3	29.413	0.027
313.15	999.1	38.204	0.036
313.15	1200.3	48.002	0.048
313.15	1400.2	58.909	0.063
313.15	1500.8	64.977	0.072
313.15	1540.9	67.442	0.078
313.15	1648.3	74.647	0.088
313.15	1701.3	78.51	0.097
313.15	1740.8	81.517	0.104
313.15	1771.1	83.916	0.111

System: pentafluoroethane; phases: Gas
Property: Mass density, kg/m3 (Gas); method: Buoyancy - hydrostatic balance with magnetic suspension - two sinkers
Temperature, K	Pressure, kPa	Mass density, kg/m3	uncertainty
283.15	207.2	10.978	0.012
283.15	442.7	24.667	0.022
283.15	617.4	35.92	0.032
283.15	710.7	42.388	0.04
283.15	710.8	42.398	0.04
283.15	758.3	45.853	0.044
283.15	811.7	49.877	0.047
283.15	828	51.137	0.049
283.15	857	53.417	0.052
283.15	872.2	54.64	0.054
283.15	872.3	54.652	0.054
283.15	880	55.27	0.055
283.15	889.1	56.021	0.056
283.15	889.2	56.023	0.056
283.15	901.7	57.048	0.056
283.15	207.2	10.98	0.012
283.15	442.7	24.675	0.022
283.15	617.4	35.904	0.032
283.15	758.3	45.855	0.044
283.15	811.7	49.881	0.047
283.15	828	51.141	0.049
283.15	857	53.429	0.052
283.15	880	55.283	0.055
283.15	901.7	57.055	0.057
293.15	205.9	10.502	0.012
293.15	206	10.492	0.012
293.15	413.1	21.853	0.019
293.15	413.2	21.867	0.019
293.15	605	33.264	0.03
293.15	799.7	45.976	0.043
293.15	799.8	45.993	0.043
293.15	901.5	53.187	0.05
293.15	1000.4	60.669	0.06
293.15	1000.5	60.666	0.06
293.15	1051.5	64.739	0.065
293.15	1101.2	68.839	0.072
293.15	1101.3	68.86	0.072
293.15	1133.2	71.588	0.075
293.15	1149.6	73.019	0.077
293.15	1149.7	73.016	0.077
293.15	1170.5	74.869	0.08
293.15	1170.6	74.882	0.08
293.15	1181.8	75.887	0.081
293.15	1182	75.908	0.081
293.15	1192.1	76.823	0.082
293.15	1192.2	76.841	0.082
293.15	1200.9	77.624	0.082
293.15	1201	77.644	0.083
293.15	605	33.278	0.03
293.15	901.5	53.196	0.05
293.15	1051.5	64.718	0.065
293.15	1133.2	71.578	0.075
303.15	225.1	11.079	0.012
303.15	411.9	20.874	0.018
303.15	602.3	31.549	0.028
303.15	800.1	43.526	0.04
303.15	999.2	56.733	0.055
303.15	999.3	56.74	0.055
303.15	1202.4	71.762	0.073
303.15	1299.2	79.657	0.085
303.15	1299.4	79.674	0.085
303.15	1406.6	89.099	0.097
303.15	1406.7	89.124	0.097
303.15	1450.2	93.212	0.104
303.15	1481.2	96.221	0.108
303.15	1481.3	96.231	0.108
303.15	1505.2	98.609	0.117
303.15	1520.5	100.175	0.121
303.15	1520.6	100.195	0.121
303.15	1537.3	101.933	0.123
303.15	1537.4	101.917	0.124
303.15	1565.1	104.879	0.127
303.15	1565.8	104.956	0.127
303.15	225.1	11.067	0.012
303.15	411.9	20.883	0.018
303.15	602.3	31.562	0.028
303.15	800.1	43.535	0.04
303.15	1202.4	71.771	0.073
303.15	1450.2	93.199	0.104
303.15	1505.2	98.623	0.117
313.15	203.4	9.623	0.012
313.15	404.5	19.688	0.017
313.15	404.6	19.685	0.017
313.15	602.7	30.212	0.026
313.15	801.5	41.496	0.038
313.15	1002	53.76	0.051
313.15	1199.3	66.915	0.066
313.15	1398.2	81.578	0.086
313.15	1398.3	81.585	0.086
313.15	1604.4	98.7	0.109
313.15	1604.5	98.71	0.109
313.15	1705.9	108.152	0.13
313.15	1814.1	119.18	0.147
313.15	1900.7	128.932	0.172
313.15	1951.9	135.193	0.186
313.15	1976.7	138.387	0.194
313.15	1990.3	140.173	0.201
313.15	2001.8	141.759	0.206
313.15	2002	141.763	0.204
313.15	203.4	9.618	0.012
313.15	602.7	30.217	0.026
313.15	801.5	41.504	0.038
313.15	1002	53.773	0.051
313.15	1199.3	66.926	0.066
313.15	1705.9	108.153	0.13
313.15	1814.1	119.179	0.147
313.15	1900.7	128.938	0.172
313.15	1951.9	135.196	0.186
313.15	1976.7	138.379	0.194
313.15	1990.3	140.201	0.201
323.15	196.2	8.951	0.012
323.15	495.8	23.505	0.02
323.15	798.1	39.455	0.035
323.15	999.5	50.95	0.047
323.15	999.6	50.954	0.047
323.15	1199	63.156	0.061
323.15	1399	76.417	0.077
323.15	1599.7	90.933	0.097
323.15	1798.9	106.993	0.124
323.15	1799	106.996	0.124
323.15	2000.3	125.421	0.159
323.15	2100.4	135.708	0.182
323.15	2201.4	147.071	0.207
323.15	2201.5	147.082	0.207
323.15	2301.3	159.592	0.234
323.15	2350	166.311	0.266
323.15	2350.1	166.298	0.266
323.15	2400.2	173.712	0.29
323.15	2430	178.427	0.315
323.15	2430.1	178.468	0.315
323.15	2451.8	182.037	0.333
323.15	2469.3	185.047	0.346
323.15	196.2	8.953	0.012
323.15	495.8	23.498	0.02
323.15	798.1	39.458	0.035
323.15	1199	63.162	0.061
323.15	1399	76.411	0.077
323.15	1599.7	90.927	0.097
323.15	2000.3	125.435	0.159
323.15	2100.4	135.695	0.182
323.15	2301.3	159.61	0.234
323.15	2400.2	173.74	0.29
323.15	2451.8	182.009	0.333
323.15	2469.3	185.021	0.342

System: difluoromethane; phases: Gas
Property: Mass density, kg/m3 (Gas); method: Buoyancy - hydrostatic balance with magnetic suspension - two sinkers
Temperature, K	Pressure, kPa	Mass density, kg/m3	uncertainty
313.15	201.8	4.12	0.011
313.15	201.9	4.121	0.011
313.15	490.8	10.342	0.012
313.15	791	17.277	0.015
313.15	996.6	22.355	0.021
313.15	1203.3	27.77	0.024
313.15	1396.5	33.159	0.033
313.15	1602.9	39.331	0.035
313.15	1801.8	45.76	0.041
313.15	1801.9	45.748	0.041
313.15	1998.1	52.687	0.047
313.15	2103.6	56.702	0.051
313.15	2201.5	60.637	0.072
313.15	2251	62.72	0.056
313.15	2298.1	64.762	0.058
313.15	2355.7	67.348	0.061
313.15	2355.8	67.343	0.061
313.15	2402.7	69.541	0.09
313.15	2403	69.545	0.09
313.15	2435	71.084	0.064
313.15	2435.1	71.095	0.064
313.15	2450.5	71.838	0.065
313.15	2450.6	71.855	0.065
313.15	2472	72.903	0.066
313.15	490.8	10.336	0.012
313.15	791	17.275	0.015
313.15	996.6	22.349	0.021
313.15	1203.3	27.759	0.024
313.15	1396.5	33.148	0.033
313.15	1602.9	39.322	0.035
313.15	1998.1	52.676	0.047
313.15	2103.6	56.692	0.051
313.15	2201.5	60.629	0.072
313.15	2251	62.711	0.056
313.15	2298.1	64.748	0.058
313.15	2472	72.918	0.066
323.15	207.9	4.101	0.011
323.15	499.2	10.125	0.012
323.15	801.1	16.793	0.015
323.15	801.2	16.794	0.015
323.15	998.3	21.387	0.019
323.15	1095.2	23.732	0.024
323.15	1200.3	26.337	0.028
323.15	1200.4	26.341	0.028
323.15	1397.4	31.424	0.03
323.15	1590.6	36.664	0.046
323.15	1797.2	42.644	0.061
323.15	2004.9	49.091	0.079
323.15	2200.6	55.637	0.064
323.15	2402.3	62.99	0.077
323.15	2596.1	70.738	0.17
323.15	2699	75.19	0.213
323.15	2699.1	75.207	0.213
323.15	2799	79.805	0.294
323.15	2802.9	80.005	0.294
323.15	2900.6	84.82	0.282
323.15	2901.2	84.882	0.283
323.15	2947	87.258	0.309
323.15	2960.3	87.971	0.333
323.15	3002.2	90.24	0.405
323.15	3002.3	90.261	0.38
323.15	3010.2	90.716	0.378
323.15	3041.1	92.478	0.385
323.15	3041.2	92.495	0.385
323.15	3074.6	94.445	0.402
323.15	3099.5	95.942	0.43
323.15	3125.5	97.558	0.44
323.15	3125.6	97.549	0.438
323.15	3134.2	98.084	0.421
323.15	207.9	4.103	0.011
323.15	499.2	10.143	0.012
323.15	998.3	21.393	0.019
323.15	1397.4	31.416	0.03
323.15	1590.6	36.67	0.046
323.15	1797.2	42.658	0.061
323.15	2004.9	49.105	0.079
323.15	2200.6	55.653	0.064
323.15	2402.3	62.978	0.077
323.15	2596.1	70.733	0.17
323.15	2799	79.816	0.26
323.15	2802.9	80.017	0.331
323.15	2900.6	84.839	0.283
323.15	2901.2	84.872	0.283
323.15	2947	87.244	0.308
323.15	2960.3	87.99	0.332
323.15	3010.2	90.73	0.376
323.15	3074.6	94.453	0.402
323.15	3099.5	95.952	0.43
323.15	499.2	10.143	0.012
323.15	499.2	10.132	0.012
