Measured thermophysical data. Density Measurements under Pressure for Mixtures of Pentaerythritol Ester Lubricants. Analysis of a Density-Viscosity Relationship
Source: J. Chem. Eng. Data, 2007, 10.1021/je700121n
Compound 1: pentaerythritol tetra(2-ethylhexanoate), C37H68O8, InChI=1S/C37H68O8/c1-9-17-21-29(13-5)33(38)42-25-37(26-43-34(39)30(14-6)22-18-10-2,27-44-35(40)31(15-7)23-19-11-3)28-45-36(41)32(16-8)24-20-12-4/h29-32H,9-28H2,1-8H3
Compound 2: pentaerythritol tetraheptanoate, C33H60O8, InChI=1S/C33H60O8/c1-5-9-13-17-21-29(34)38-25-33(26-39-30(35)22-18-14-10-6-2,27-40-31(36)23-19-15-11-7-3)28-41-32(37)24-20-16-12-8-4/h5-28H2,1-4H3
Compound 3: pentaerythritol tetrapentanoate, C25H44O8, InChI=1S/C25H44O8/c1-5-9-13-21(26)30-17-25(18-31-22(27)14-10-6-2,19-32-23(28)15-11-7-3)20-33-24(29)16-12-8-4/h5-20H2,1-4H3

System: pentaerythritol tetra(2-ethylhexanoate) + pentaerythritol tetrapentanoate; phases: Liquid
Fixed: Mole fraction of pentaerythritol tetra(2-ethylhexanoate) = 0.667
Property: Mass density, kg/m3 (Liquid); method: Vibrating tube method
Temperature, K	Pressure, kPa	Mass density, kg/m3	uncertainty
278.15	100	986.1	1.1
278.15	1000	986.6	1.1
278.15	5000	988.8	1.1
278.15	10000	991.6	1.1
278.15	15000	994.3	1.1
278.15	20000	996.9	1.1
278.15	25000	999.5	1.1
278.15	30000	1001.9	1.1
278.15	35000	1004.4	1.2
278.15	40000	1006.7	1.2
278.15	45000	1009.1	1.2
283.15	100	982.3	1.1
283.15	1000	982.9	1.1
283.15	5000	985.2	1.1
283.15	10000	988.1	1.1
283.15	15000	990.8	1.1
283.15	20000	993.5	1.1
283.15	25000	996.1	1.1
283.15	30000	998.6	1.1
283.15	35000	1001.1	1.1
283.15	40000	1003.5	1.2
283.15	45000	1005.8	1.2
293.15	100	974.9	1.1
293.15	1000	975.4	1.1
293.15	5000	977.9	1.1
293.15	10000	980.8	1.1
293.15	15000	983.7	1.1
293.15	20000	986.5	1.1
293.15	25000	989.2	1.1
293.15	30000	991.8	1.1
293.15	35000	994.4	1.1
293.15	40000	996.9	1.1
293.15	45000	999.4	1.1
303.15	100	967.7	1.1
303.15	1000	968.3	1.1
303.15	5000	970.8	1.1
303.15	10000	973.9	1.1
303.15	15000	976.8	1.1
303.15	20000	979.7	1.1
303.15	25000	982.6	1.1
303.15	30000	985.3	1.1
303.15	35000	987.9	1.1
303.15	40000	990.5	1.1
303.15	45000	993.1	1.1
313.15	100	960.3	1.1
313.15	1000	960.9	1.1
313.15	5000	963.7	1.1
313.15	10000	966.9	1.1
313.15	15000	970	1.1
313.15	20000	973	1.1
313.15	25000	975.9	1.1
313.15	30000	978.7	1.1
313.15	35000	981.5	1.1
313.15	40000	984.2	1.1
313.15	45000	986.8	1.1
323.15	100	953	1.1
323.15	1000	953.6	1.1
323.15	5000	956.4	1.1
323.15	10000	959.8	1.1
323.15	15000	963.1	1.1
323.15	20000	966.2	1.1
323.15	25000	969.3	1.1
323.15	30000	972.3	1.1
323.15	35000	975.1	1.1
323.15	40000	977.9	1.1
323.15	45000	980.6	1.1
333.15	100	945.8	1
333.15	1000	946.4	1
333.15	5000	949.4	1.1
333.15	10000	952.9	1.1
333.15	15000	956.3	1.1
333.15	20000	959.6	1.1
333.15	25000	962.8	1.1
333.15	30000	965.8	1.1
333.15	35000	968.8	1.1
333.15	40000	971.7	1.1
333.15	45000	974.5	1.1
343.15	100	938.5	1
343.15	1000	939.2	1
343.15	5000	942.3	1
343.15	10000	946	1.1
343.15	15000	949.5	1.1
343.15	20000	952.9	1.1
343.15	25000	956.3	1.1
343.15	30000	959.5	1.1
343.15	35000	962.5	1.1
343.15	40000	965.5	1.1
343.15	45000	968.4	1.1
353.15	100	931.3	1
353.15	1000	932	1
353.15	5000	935.3	1
353.15	10000	939.1	1.1
353.15	15000	942.8	1.1
353.15	20000	946.4	1.1
353.15	25000	949.8	1.1
353.15	30000	953.1	1.1
353.15	35000	956.3	1.1
353.15	40000	959.4	1.1
353.15	45000	962.4	1.1

System: pentaerythritol tetra(2-ethylhexanoate) + pentaerythritol tetraheptanoate; phases: Liquid
Fixed: Mole fraction of pentaerythritol tetra(2-ethylhexanoate) = 0.6911
Property: Mass density, kg/m3 (Liquid); method: Vibrating tube method
Temperature, K	Pressure, kPa	Mass density, kg/m3	uncertainty
278.15	100	977.7	1
278.15	1000	978.2	1
278.15	5000	980.5	1
278.15	10000	983.2	1
278.15	15000	985.9	1
278.15	20000	988.5	1
278.15	25000	991	1
278.15	30000	993.4	1
278.15	35000	995.8	1
278.15	40000	998.2	1
278.15	45000	1000.5	1
283.15	100	974	1
283.15	1000	974.5	1
283.15	5000	976.8	1
283.15	10000	979.7	1
283.15	15000	982.4	1
283.15	20000	985.1	1
283.15	25000	987.6	1
283.15	30000	990.1	1
283.15	35000	992.6	1
283.15	40000	995	1
283.15	45000	997.3	1
293.15	100	966.8	1
293.15	1000	967.3	1
293.15	5000	969.7	1
293.15	10000	972.6	1
293.15	15000	975.5	1
293.15	20000	978.2	1
293.15	25000	980.9	1
293.15	30000	983.5	1
293.15	35000	986.1	1
293.15	40000	988.6	1
293.15	45000	991	1
303.15	100	959.6	1
303.15	1000	960.2	1
303.15	5000	962.7	1
303.15	10000	965.8	1
303.15	15000	968.7	1
303.15	20000	971.6	1
303.15	25000	974.4	1
303.15	30000	977.1	1
303.15	35000	979.7	1
303.15	40000	982.3	1
303.15	45000	984.8	1
313.15	100	952.4	1
313.15	1000	953	1
313.15	5000	955.7	1
313.15	10000	958.8	1
313.15	15000	961.9	1
313.15	20000	964.9	1
313.15	25000	967.8	1
313.15	30000	970.6	1
313.15	35000	973.3	1
313.15	40000	976	1
313.15	45000	978.6	1
323.15	100	945.1	1
323.15	1000	945.7	1
323.15	5000	948.5	1
323.15	10000	951.8	1
323.15	15000	955.1	1
323.15	20000	958.2	1
323.15	25000	961.2	1
323.15	30000	964.1	1
323.15	35000	967	1
323.15	40000	969.7	1
323.15	45000	972.4	1
333.15	100	938	1
333.15	1000	938.6	1
333.15	5000	941.6	1
333.15	10000	945.1	1
333.15	15000	948.4	1
333.15	20000	951.7	1
333.15	25000	954.8	1
333.15	30000	957.8	1
333.15	35000	960.8	1
333.15	40000	963.6	1
333.15	45000	966.4	1.1
343.15	100	930.7	0.9
343.15	1000	931.4	0.9
343.15	5000	934.4	1
343.15	10000	938.1	1
343.15	15000	941.6	1
343.15	20000	945	1
343.15	25000	948.3	1
343.15	30000	951.4	1
343.15	35000	954.5	1
343.15	40000	957.5	1
343.15	45000	960.3	1.1
353.15	100	923.7	0.9
353.15	1000	924.4	0.9
353.15	5000	927.6	1
353.15	10000	931.4	1
353.15	15000	935	1
353.15	20000	938.6	1
353.15	25000	941.9	1
353.15	30000	945.2	1
353.15	35000	948.4	1
353.15	40000	951.5	1
353.15	45000	954.4	1.1
