Measured thermophysical data. Solubility of 1,2,4-Benzenetricarboxylic Acid in Acetic Acid + Water Solvent Mixtures
Source: J. Chem. Eng. Data, 2008, 10.1021/je700452m
Compound 1: 1,2,4-benzenetricarboxylic acid, C9H6O6, InChI=1S/C9H6O6/c10-7(11)4-1-2-5(8(12)13)6(3-4)9(14)15/h1-3H,(H,10,11)(H,12,13)(H,14,15), purity 98%
Compound 2: acetic acid, C2H4O2, InChI=1S/C2H4O2/c1-2(3)4/h1H3,(H,3,4)
Compound 3: water, H2O, InChI=1S/H2O/h1H2

System: acetic acid + 1,2,4-benzenetricarboxylic acid + water; phases: Liquid, Crystal
Fixed: Pressure, kPa = 101
Property: Mole fraction of 1,2,4-benzenetricarboxylic acid (Liquid); method: Chromatography
Temperature, K	Solvent: Mole fraction of acetic acid	Mole fraction of 1,2,4-benzenetricarboxylic acid	uncertainty
313.2	0.416	0.00879	0.00056
313.2	0.527	0.00795	0.0005
313.2	0.73	0.00541	0.00033
313.2	1	0.00168	0.00012
323.2	0.416	0.01055	0.00066
323.2	0.527	0.00981	0.00061
323.2	0.73	0.00689	0.00043
323.2	1	0.00311	0.0002
333.2	0.416	0.01252	0.00078
333.2	0.527	0.01157	0.00072
333.2	0.73	0.0087	0.00053
333.2	1	0.0048	0.0003
343.2	0.416	0.01431	0.0009
343.2	0.527	0.01354	0.00084
343.2	0.73	0.01087	0.00067
343.2	1	0.00676	0.00042
353.2	0.416	0.01666	0.00105
353.2	0.527	0.01533	0.00096
353.2	0.73	0.01295	0.00079
353.2	1	0.0087	0.00053
363.2	0.416	0.02012	0.00127
363.2	0.527	0.01846	0.00115
363.2	0.73	0.01472	0.00091
363.2	1	0.0106	0.00065
