Measured thermophysical data. Viscosity of Diisodecyl Phthalate by Surface Light Scattering (SLS)
Source: J. Chem. Eng. Data, 2007, 10.1021/je7001623
Compound 1: 3-methylnonyl 1,2-benzenedioate, C28H46O4, InChI=1S/C28H46O4/c1-23(2)17-11-7-5-9-15-21-31-27(29)25-19-13-14-20-26(25)28(30)32-22-16-10-6-8-12-18-24(3)4/h13-14,19-20,23-24H,5-12,15-18,21-22H2,1-4H3

System: 3-methylnonyl 1,2-benzenedioate; phases: Liquid
Fixed: Pressure, kPa = 101.325
Property: Viscosity, Pa*s (Liquid); method: surface light scattering
Temperature, K	Viscosity, Pa*s	uncertainty
283.15	0.2656	0.0082
288.15	0.1774	0.0057
293.15	0.1238	0.0039
298.15	0.08844	0.00274
303.15	0.06484	0.00198
308.15	0.04898	0.00147
313.15	0.03801	0.00115

System: 3-methylnonyl 1,2-benzenedioate; phases: Liquid
Fixed: Pressure, kPa = 101.325
Property: Mass density, kg/m3 (Liquid); method: Vibrating tube method
Temperature, K	Mass density, kg/m3	uncertainty
273.14	980.74	0.4
278.15	977.13	0.39
283.15	973.51	0.39
288.15	969.94	0.39
293.15	966.43	0.39
298.16	962.9	0.39
303.16	959.36	0.39
308.16	955.81	0.39
313.16	952.27	0.39
318.16	948.73	0.38
323.16	945.19	0.38
328.16	941.65	0.38
333.16	938.12	0.38
338.16	934.6	0.38
348.15	927.54	0.38
353.15	924.02	0.38
358.15	920.5	0.38
363.15	916.95	0.37
