Measured thermophysical data. Temperature and Pressure Dependence of the Viscosity of the Ionic Liquid 1-Butyl-3-methylimidazolium Tetrafluoroborate: Viscosity and Density Relationships in Ionic Liquids
Source: J. Chem. Eng. Data, 2007, 10.1021/je700370z
Compound 1: 1-butyl-3-methylimidazolium tetrafluoroborate, C8H15BF4N2, InChI=1S/C8H15N2.BF4/c1-3-4-5-10-7-6-9(2)8-10;2-1(3,4)5/h6-8H,3-5H2,1-2H3;/q+1;-1

System: 1-butyl-3-methylimidazolium tetrafluoroborate; phases: Liquid
Fixed: Pressure, kPa = 101.325
Property: Viscosity, Pa*s (Liquid); method: Falling or rolling sphere viscometry
Temperature, K	Viscosity, Pa*s	uncertainty
273.15	0.5108	0.0426
273.150001	0.511	0.0426
278.15	0.353	0.0262
278.15	0.3529	0.0262
283.15	0.2507	0.0165
283.15	0.2506	0.0165
288.15	0.1824	0.0107
288.15	0.1824	0.0107
293.15	0.1356	0.0071
293.15	0.1357	0.0071
298.15	0.1039	0.005
298.15	0.1037	0.005
298.15	0.1035	0.005
298.15	0.1034	0.005
303.15	0.0806	0.0036
303.15	0.0807	0.0036
313.15	0.0513	0.0022
313.15	0.0513	0.0022
323.15	0.0346	0.0015
323.15	0.0346	0.0015
333.15	0.0245	0.001
333.15	0.0245	0.001
343.15	0.0181	0.0008
343.15	0.0181	0.0008
353.15	0.0139	0.0006
353.15	0.0138	0.0006

System: 1-butyl-3-methylimidazolium tetrafluoroborate; phases: Liquid
Fixed: Pressure, kPa = 101.325
Property: Mass density, kg/m3 (Liquid); method: Vibrating tube method
Temperature, K	Mass density, kg/m3	uncertainty
273.15	1219.5	1.32
278.15	1215.79	1.31
283.15	1212.07	1.3
288.15	1208.38	1.29
293.15	1204.83	1.28
298.15	1201.29	1.28
303.15	1197.75	1.27
313.15	1190.68	1.25
323.15	1183.67	1.23
333.15	1176.7	1.22
343.15	1169.79	1.2
353.15	1162.92	1.19
363.15	1156.11	1.17

System: 1-butyl-3-methylimidazolium tetrafluoroborate; phases: Liquid
Fixed: Pressure, kPa = 101.325
Property: Mass density, kg/m3 (Liquid); method: Vibrating tube method
Temperature, K	Mass density, kg/m3	uncertainty
273.15	1219.64	1.32
283.15	1212.22	1.3
293.15	1204.98	1.28
298.15	1201.43	1.28
303.15	1197.88	1.27
323.15	1183.79	1.24
333.15	1176.81	1.22
348.15	1166.45	1.2
360.15	1158.27	1.18
362.76	1156.51	1.17
363.16	1156.22	1.17

System: 1-butyl-3-methylimidazolium tetrafluoroborate; phases: Liquid
Property: Viscosity, Pa*s (Liquid); method: Falling or rolling sphere viscometry
Temperature, K	Pressure, kPa	Viscosity, Pa*s	uncertainty
273.15	100	0.543	0.0634
273.150001	100	0.5428	0.0633
283.15	100	0.2637	0.0178
283.15	800	0.2663	0.018
283.15	11000	0.3022	0.021
283.15	24900	0.3591	0.0265
283.15	49600	0.4848	0.0395
283.15	75300	0.6559	0.0588
283.15	100600	0.875	0.0853
283.15	100	0.2638	0.0178
293.15	100	0.1421	0.0077
293.15	100	0.142	0.0077
298.15	100	0.108	0.0053
298.15	500	0.1086	0.0053
298.15	25900	0.1426	0.0076
298.15	50800	0.185	0.0108
298.15	75900	0.2398	0.0154
298.15	101100	0.3083	0.0217
298.15	126200	0.3939	0.0299
298.15	150600	0.4999	0.041
298.15	150700	0.5006	0.0411
298.15	175400	0.6347	0.0562
298.15	200900	0.8083	0.0769
298.15	100	0.108	0.0053
298.15	100	0.1085	0.0053
298.15	100	0.1087	0.0053
303.15	100	0.0846	0.0038
303.15	100	0.0846	0.0038
313.15	100	0.0535	0.0023
313.15	100	0.0536	0.0023
323.15	100	0.0356	0.0015
323.15	140	0.036	0.0015
323.15	10495	0.0393	0.0017
323.15	25446	0.0445	0.0019
323.15	50493	0.0555	0.0024
323.15	75560	0.0681	0.003
323.15	100566	0.0833	0.0038
323.15	125543	0.1015	0.0049
323.15	150422	0.1232	0.0064
323.15	175463	0.1492	0.0083
323.15	200347	0.1801	0.0107
323.15	225321	0.2169	0.0133
323.15	250139	0.2609	0.0171
333.15	100	0.0252	0.0011
333.15	100	0.0255	0.0011
343.15	100	0.0184	0.0008
343.15	100	0.018	0.0008
348.15	100	0.0162	0.0007
348.15	11700	0.0174	0.0007
348.15	25200	0.0194	0.0008
348.15	50700	0.0233	0.001
348.15	75600	0.0278	0.0012
348.15	100600	0.033	0.0014
348.15	125600	0.0388	0.0017
348.15	150600	0.0456	0.002
348.15	175600	0.0534	0.0024
348.15	200600	0.0623	0.0028
348.15	225500	0.0726	0.0034
348.15	250400	0.0846	0.0041
348.15	275300	0.0984	0.0048
348.15	300000	0.114	0.0057
348.15	100	0.0159	0.0007

System: 1-butyl-3-methylimidazolium tetrafluoroborate; phases: Liquid
Property: Mass density, kg/m3 (Liquid); method: Vibrating tube method
Temperature, K	Pressure, kPa	Mass density, kg/m3	uncertainty
273.15	100	1219.64	1.32
273.150001	100	1219.64	1.32
283.15	100	1212.22	1.3
283.15	800	1212.53	1.31
283.15	11000	1217.32	1.4
283.15	24900	1223.58	1.54
283.15	49600	1234.03	1.8
283.15	75300	1244.07	2.09
283.15	100600	1253.28	2.39
283.15	100	1212.22	1.3
293.15	100	1204.98	1.28
293.15	100	1204.98	1.28
298.15	100	1201.43	1.27
298.15	500	1201.61	1.28
298.15	25900	1213.76	1.52
298.15	50800	1224.72	1.77
298.15	75900	1234.94	2.05
298.15	101100	1244.42	2.34
298.15	126200	1253.22	2.66
298.15	150600	1261.21	2.97
298.15	150700	1261.23	2.97
298.15	175400	1268.78	3.31
298.15	200900	1276.07	3.67
298.15	100	1201.43	1.27
298.15	100	1201.43	1.27
298.15	100	1201.43	1.27
303.15	100	1197.88	1.27
303.15	100	1197.88	1.27
313.15	100	1190.78	1.25
313.15	100	1190.78	1.25
323.15	100	1183.79	1.23
323.15	140	1183.79	1.23
323.15	10495	1189.26	1.32
323.15	25446	1196.8	1.46
323.15	50493	1208.59	1.7
323.15	75560	1219.46	1.96
323.15	100566	1229.48	2.25
323.15	125543	1238.76	2.55
323.15	150422	1247.36	2.86
323.15	175463	1255.42	3.19
323.15	200347	1262.9	3.54
323.15	225321	1269.94	3.89
323.15	250139	1276.5	4.26
333.15	100	1176.81	1.22
333.15	100	1176.81	1.22
343.15	100	1169.87	1.2
343.15	100	1169.87	1.2
348.15	100	1166.45	1.19
348.15	11700	1172.95	1.29
348.15	25200	1180.23	1.4
348.15	50700	1192.94	1.64
348.15	75600	1204.4	1.89
348.15	100600	1214.97	2.16
348.15	125600	1224.72	2.45
348.15	150600	1233.78	2.76
348.15	175600	1242.2	3.08
348.15	200600	1250.04	3.42
348.15	225500	1257.34	3.76
348.15	250400	1264.17	4.12
348.15	275300	1270.59	4.48
348.15	300000	1276.57	4.86
348.15	100	1166.45	1.19
