Measured thermophysical data. Prediction of Ionic Liquid Properties. I. Volumetric Properties as a Function of Temperature at 0.1 MPa
Source: J. Chem. Eng. Data, 2008, 10.1021/je700707y
Compound 1: water, H2O, InChI=1S/H2O/h1H2, purity 99%
Compound 2: 1-butyl-3-methylimidazolium trifluoromethanesulfonate, C9H15F3N2O3S, InChI=1S/C8H15N2.CHF3O3S/c1-3-4-5-10-7-6-9(2)8-10;2-1(3,4)8(5,6)7/h6-8H,3-5H2,1-2H3;(H,5,6,7)/q+1;/p-1, purity 97%
Compound 3: 1-butyl-3-methylimidazolium tetrafluoroborate, C8H15BF4N2, InChI=1S/C8H15N2.BF4/c1-3-4-5-10-7-6-9(2)8-10;2-1(3,4)5/h6-8H,3-5H2,1-2H3;/q+1;-1, purity 98%
Compound 4: 1,3-dimethylimidazolium thiocyanate, C6H9N3S, InChI=1S/C5H9N2.CHNS/c1-6-3-4-7(2)5-6;2-1-3/h3-5H,1-2H3;3H/q+1;/p-1, purity 99%
Compound 5: 1-butyl-1-methylpyrrolidinium tris(pentafluoroethyl)trifluorophosphate, C15H20F18NP, InChI=1S/C9H20N.C6F18P/c1-3-4-7-10(2)8-5-6-9-10;7-1(8,9)4(16,17)25(22,23,24,5(18,19)2(10,11)12)6(20,21)3(13,14)15/h3-9H2,1-2H3;/q+1;-1, purity 98%
Compound 6: 1-butylpyridinium trifluorotris(perfluoroethyl)phosphate, C15H14F18NP, InChI=1S/C9H14N.C6F18P/c1-2-3-7-10-8-5-4-6-9-10;7-1(8,9)4(16,17)25(22,23,24,5(18,19)2(10,11)12)6(20,21)3(13,14)15/h4-6,8-9H,2-3,7H2,1H3;/q+1;-1, purity 98%
Compound 7: 1-hexyl-3-methylimidazolium tris(pentafluoroethyl)trifluorophosphate, C16H19F18N2P, InChI=1S/C10H19N2.C6F18P/c1-3-4-5-6-7-12-9-8-11(2)10-12;7-1(8,9)4(16,17)25(22,23,24,5(18,19)2(10,11)12)6(20,21)3(13,14)15/h8-10H,3-7H2,1-2H3;/q+1;-1, purity 98%
Compound 8: trihexyl(tetradecyl)phosphonium bis[(trifluoromethyl)sulfonyl]imide, C34H68F6NO4PS2, InChI=1S/C32H68P.C2F6NO4S2/c1-5-9-13-17-18-19-20-21-22-23-24-28-32-33(29-25-14-10-6-2,30-26-15-11-7-3)31-27-16-12-8-4;3-1(4,5)14(10,11)9-15(12,13)2(6,7)8/h5-32H2,1-4H3;/q+1;-1, purity 97%
Compound 9: 1-butyl-3-methylimidazolium hexafluorophosphate, C8H15F6N2P, InChI=1S/C8H15N2.F6P/c1-3-4-5-10-7-6-9(2)8-10;1-7(2,3,4,5)6/h6-8H,3-5H2,1-2H3;/q+1;-1, purity 99.9%
Compound 10: 1-ethyl-3-methylimidazolium ethyl sulfate, C8H16N2O4S, InChI=1S/C6H11N2.C2H6O4S/c1-3-8-5-4-7(2)6-8;1-2-6-7(3,4)5/h4-6H,3H2,1-2H3;2H2,1H3,(H,3,4,5)/q+1;/p-1, purity 97%
Compound 11: 1-decyl-3-methylimidazolium bis(trifluoromethylsulfonyl)amide, C16H27F6N3O4S2, InChI=1S/C14H27N2.C2F6NO4S2/c1-3-4-5-6-7-8-9-10-11-16-13-12-15(2)14-16;3-1(4,5)14(10,11)9-15(12,13)2(6,7)8/h12-14H,3-11H2,1-2H3;/q+1;-1, purity 97%
Compound 12: 1-ethyl-3-methylimidazolium bis((trifluoromethyl)sulfonyl)imide, C8H11F6N3O4S2, InChI=1S/C6H11N2.C2F6NO4S2/c1-3-8-5-4-7(2)6-8;3-1(4,5)14(10,11)9-15(12,13)2(6,7)8/h4-6H,3H2,1-2H3;/q+1;-1, purity 97%
Compound 13: 1-butyl-3-methylimidazolium bis(trifluoromethylsulfonyl)imide, C10H15F6N3O4S2, InChI=1S/C8H15N2.C2F6NO4S2/c1-3-4-5-10-7-6-9(2)8-10;3-1(4,5)14(10,11)9-15(12,13)2(6,7)8/h6-8H,3-5H2,1-2H3;/q+1;-1, purity 97%
Compound 14: 1-hexyl-3-methylimidazolium bis[(trifluoromethyl)sulfonyl]imide, C12H19F6N3O4S2, InChI=1S/C10H19N2.C2F6NO4S2/c1-3-4-5-6-7-12-9-8-11(2)10-12;3-1(4,5)14(10,11)9-15(12,13)2(6,7)8/h8-10H,3-7H2,1-2H3;/q+1;-1, purity 97%
Compound 15: 1-octyl-3-methylimidazolium bis[(trifluoromethyl)sulfonyl]imide, C14H23F6N3O4S2, InChI=1S/C12H23N2.C2F6NO4S2/c1-3-4-5-6-7-8-9-14-11-10-13(2)12-14;3-1(4,5)14(10,11)9-15(12,13)2(6,7)8/h10-12H,3-9H2,1-2H3;/q+1;-1, purity 97%
Compound 16: 1-(cyanomethyl)-1-methylpyrrolidinium bis((trifluoromethyl)sulfonyl)imide, C9H13F6N3O4S2, InChI=1S/C7H13N2.C2F6NO4S2/c1-9(7-4-8)5-2-3-6-9;3-1(4,5)14(10,11)9-15(12,13)2(6,7)8/h2-3,5-7H2,1H3;/q+1;-1, purity 97%
Compound 17: 1-(cyanomethyl)pyridin-1-ium bis((trifluoromethyl)sulfonyl)amide, C9H7F6N3O4S2, InChI=1S/C7H7N2.C2F6NO4S2/c8-4-7-9-5-2-1-3-6-9;3-1(4,5)14(10,11)9-15(12,13)2(6,7)8/h1-3,5-6H,7H2;/q+1;-1, purity 97%

System: 1-butyl-3-methylimidazolium trifluoromethanesulfonate; phases: Liquid
Fixed: Pressure, kPa = 101.325
Property: Mass density, kg/m3 (Liquid); method: Vibrating tube method
Temperature, K	Mass density, kg/m3	uncertainty
293.15	1301.3	4.2
303.15	1293.4	4.2
313.15	1285.6	4.1
323.15	1277.7	4.1
333.15	1269.9	4
343.15	1262.3	4
353.15	1254.5	3.9
363.15	1246.9	3.9

System: 1-butyl-3-methylimidazolium tetrafluoroborate; phases: Liquid
Fixed: Pressure, kPa = 101.325
Property: Mass density, kg/m3 (Liquid); method: Vibrating tube method
Temperature, K	Mass density, kg/m3	uncertainty
293.15	1203.8	1.7
298.15	1200	1.6
303.15	1196.2	1.6
308.15	1192.4	1.6
313.15	1188.9	1.6
318.15	1185.4	1.6
323.15	1181.3	1.6
328.15	1177.9	1.6
333.15	1174.1	1.6
338.15	1170.5	1.6
343.15	1166.9	1.5

System: 1-butyl-3-methylimidazolium tetrafluoroborate; phases: Liquid
Fixed: Pressure, kPa = 101.325
Property: Mass density, kg/m3 (Liquid); method: Vibrating tube method
Temperature, K	Mass density, kg/m3	uncertainty
293.15	1204.9	1.7
298.15	1201.1	1.6
303.15	1197.4	1.6
308.15	1193.8	1.6
313.15	1190.1	1.6
318.15	1186.5	1.6
323.15	1182.7	1.6
328.15	1179	1.6
333.15	1175.3	1.6
338.15	1171.7	1.6
343.15	1168	1.5

System: 1,3-dimethylimidazolium thiocyanate; phases: Liquid
Fixed: Pressure, kPa = 101.325
Property: Mass density, kg/m3 (Liquid); method: Vibrating tube method
Temperature, K	Mass density, kg/m3	uncertainty
293.15	1160.7	0.5
298.15	1157.4	0.5
303.15	1154.2	0.5
313.15	1147.8	0.5
323.15	1141.4	0.4
333.15	1135.2	0.4
343.15	1129.1	0.4
353.15	1123.1	0.4
363.15	1117.2	0.4

System: 1-butyl-1-methylpyrrolidinium tris(pentafluoroethyl)trifluorophosphate; phases: Liquid
Fixed: Pressure, kPa = 101.325
Property: Mass density, kg/m3 (Liquid); method: Vibrating tube method
Temperature, K	Mass density, kg/m3	uncertainty
293.15	1588.1	3
303.15	1577.3	2.9
313.15	1566.8	2.9
323.15	1556.4	2.9
333.15	1545.9	2.8
343.15	1535.5	2.8
353.15	1525.1	2.7
363.15	1514.7	2.7

System: 1-butylpyridinium trifluorotris(perfluoroethyl)phosphate; phases: Liquid
Fixed: Pressure, kPa = 101.325
Property: Mass density, kg/m3 (Liquid); method: Vibrating tube method
Temperature, K	Mass density, kg/m3	uncertainty
293.15	1638.5	3.2
298.15	1633	3.1
303.15	1627.6	3.1
313.15	1616.6	3.1
323.15	1605.6	3
333.15	1594.7	3
343.15	1583.8	3
353.15	1572.9	2.9
363.15	1562	2.9

System: 1-hexyl-3-methylimidazolium tris(pentafluoroethyl)trifluorophosphate; phases: Liquid
Fixed: Pressure, kPa = 101.325
Property: Mass density, kg/m3 (Liquid); method: Vibrating tube method
Temperature, K	Mass density, kg/m3	uncertainty
293.15	1557.1	2.9
298.15	1551.8	2.8
303.15	1546.4	2.8
313.15	1535.7	2.8
323.15	1525	2.7
333.15	1514.3	2.7
343.15	1503.6	2.7
353.15	1493	2.6
363.15	1482.4	2.6

System: trihexyl(tetradecyl)phosphonium bis[(trifluoromethyl)sulfonyl]imide; phases: Liquid
Fixed: Pressure, kPa = 101.325
Property: Mass density, kg/m3 (Liquid); method: Vibrating tube method
Temperature, K	Mass density, kg/m3	uncertainty
293.15	1067.6	2.8
303.15	1060.3	2.8
313.15	1052.9	2.7
323.15	1045.7	2.7
333.15	1038.6	2.6
343.15	1031.5	2.6
353.15	1024.4	2.6
363.15	1017.3	2.5

System: 1-butyl-3-methylimidazolium hexafluorophosphate; phases: Liquid
Fixed: Pressure, kPa = 101.325
Property: Mass density, kg/m3 (Liquid); method: Vibrating tube method
Temperature, K	Mass density, kg/m3	uncertainty
293.15	1368.1	0.2
298.15	1364.1	0.2
303.15	1360	0.2
308.15	1355.7	0.2
313.15	1351.8	0.2
318.15	1347.5	0.2
323.15	1343.5	0.2
328.15	1339.4	0.2
333.15	1335.2	0.2
338.15	1331.1	0.2
343.15	1327	0.2

System: 1-butyl-3-methylimidazolium hexafluorophosphate; phases: Liquid
Fixed: Pressure, kPa = 101.325
Property: Mass density, kg/m3 (Liquid); method: Vibrating tube method
Temperature, K	Mass density, kg/m3	uncertainty
293.15	1369.8	0.2
298.15	1365.7	0.2
303.15	1361.6	0.2
308.15	1357.4	0.2
313.15	1353.3	0.2
318.15	1349.2	0.2
323.15	1345.1	0.2
328.15	1341	0.2
333.15	1336.9	0.2
338.15	1332.7	0.2
343.15	1328.6	0.2

System: 1-ethyl-3-methylimidazolium ethyl sulfate; phases: Liquid
Fixed: Pressure, kPa = 101.325
Property: Mass density, kg/m3 (Liquid); method: Vibrating tube method
Temperature, K	Mass density, kg/m3	uncertainty
293.15	1242.3	3.9
303.15	1235.6	3.8
313.15	1228.9	3.8
323.15	1222.1	3.7
333.15	1215.5	3.7
343.15	1208.8	3.6
353.15	1202.2	3.6
363.15	1195.6	3.6

System: 1-decyl-3-methylimidazolium bis(trifluoromethylsulfonyl)amide; phases: Liquid
Fixed: Pressure, kPa = 101.325
Property: Mass density, kg/m3 (Liquid); method: Vibrating tube method
Temperature, K	Mass density, kg/m3	uncertainty
293.15	1282.4	4.1
303.15	1273.8	4.1
313.15	1265.3	4
323.15	1256.8	4
333.15	1248.3	3.9
343.15	1239.9	3.8
353.15	1231.4	3.8
363.15	1223.1	3.7

System: 1-ethyl-3-methylimidazolium bis((trifluoromethyl)sulfonyl)imide; phases: Liquid
Fixed: Pressure, kPa = 101.325
Property: Mass density, kg/m3 (Liquid); method: Vibrating tube method
Temperature, K	Mass density, kg/m3	uncertainty
293.15	1522.9	5.9
298.15	1517.9	5.8
303.15	1512.9	5.8
308.15	1507.9	5.7
313.15	1502.9	5.7
318.15	1497.9	5.7
323.15	1492.9	5.6
328.15	1488	5.6
333.15	1483	5.5
338.15	1478	5.5
343.15	1473	5.5

System: 1-ethyl-3-methylimidazolium bis((trifluoromethyl)sulfonyl)imide; phases: Liquid
Fixed: Pressure, kPa = 101.325
Property: Mass density, kg/m3 (Liquid); method: Vibrating tube method
Temperature, K	Mass density, kg/m3	uncertainty
293.15	1523.4	5.9
303.15	1513.4	5.8
313.15	1503.4	5.7
323.15	1493.4	5.6
333.15	1483.5	5.6
343.15	1473.7	5.5
353.15	1463.8	5.4
363.15	1454	5.3

System: 1-butyl-3-methylimidazolium bis(trifluoromethylsulfonyl)imide; phases: Liquid
Fixed: Pressure, kPa = 101.325
Property: Mass density, kg/m3 (Liquid); method: Vibrating tube method
Temperature, K	Mass density, kg/m3	uncertainty
293.15	1442.7	5.2
298.15	1437.9	5.2
303.15	1433.1	5.2
308.15	1428.3	5.1
313.15	1423.5	5.1
318.15	1418.8	5.1
323.15	1414	5
328.15	1409.3	5
333.15	1404.5	5
338.15	1399.7	4.9
343.15	1395	4.9

System: 1-butyl-3-methylimidazolium bis(trifluoromethylsulfonyl)imide; phases: Liquid
Fixed: Pressure, kPa = 101.325
Property: Mass density, kg/m3 (Liquid); method: Vibrating tube method
Temperature, K	Mass density, kg/m3	uncertainty
293.15	1440.2	5.2
303.15	1430.7	5.2
313.15	1421.2	5.1
323.15	1411.8	5
333.15	1402.4	5
343.15	1393	4.9
353.15	1383.6	4.8
363.15	1374.3	4.8

System: 1-hexyl-3-methylimidazolium bis[(trifluoromethyl)sulfonyl]imide; phases: Liquid
Fixed: Pressure, kPa = 101.325
Property: Mass density, kg/m3 (Liquid); method: Vibrating tube method
Temperature, K	Mass density, kg/m3	uncertainty
293.15	1375.1	4.8
303.15	1366	4.7
313.15	1356.9	4.6
323.15	1347.9	4.6
333.15	1338.8	4.5
343.15	1329.8	4.4
353.15	1320.9	4.4
363.15	1311.9	4.3

System: 1-octyl-3-methylimidazolium bis[(trifluoromethyl)sulfonyl]imide; phases: Liquid
Fixed: Pressure, kPa = 101.325
Property: Mass density, kg/m3 (Liquid); method: Vibrating tube method
Temperature, K	Mass density, kg/m3	uncertainty
293.15	1324.5	4.4
303.15	1315.8	4.3
313.15	1307	4.3
323.15	1298.2	4.2
333.15	1289.5	4.2
343.15	1280.8	4.1
353.15	1272.1	4.1
363.15	1263.5	4

System: 1-(cyanomethyl)-1-methylpyrrolidinium bis((trifluoromethyl)sulfonyl)imide; phases: Liquid
Fixed: Pressure, kPa = 101.325
Property: Mass density, kg/m3 (Liquid); method: Vibrating tube method
Temperature, K	Mass density, kg/m3	uncertainty
293.15	1545.4	6
298.15	1537.8	6
303.15	1533.1	5.9
313.15	1523.8	5.9
323.15	1514.5	5.8
333.15	1505.5	5.7
343.15	1496.7	5.7
353.15	1487.8	5.6
363.15	1479	5.5

System: 1-(cyanomethyl)pyridin-1-ium bis((trifluoromethyl)sulfonyl)amide; phases: Liquid
Fixed: Pressure, kPa = 101.325
Property: Mass density, kg/m3 (Liquid); method: Vibrating tube method
Temperature, K	Mass density, kg/m3	uncertainty
293.15	1636.2	6.8
298.15	1631.2	6.7
303.15	1626.2	6.7
313.15	1616.2	6.6
323.15	1606.4	6.5
333.15	1596.8	6.4
343.15	1587.3	6.4
353.15	1577.7	6.3
363.15	1568.3	6.2

System: water + 1-butyl-3-methylimidazolium tetrafluoroborate; phases: Liquid
Property: Mass density, kg/m3 (Liquid); method: Vibrating tube method
Mass fraction of water	Temperature, K	Pressure, kPa	Mass density, kg/m3	uncertainty
0.001	298.15	100	1197.5	1.6

System: water + 1-butyl-3-methylimidazolium hexafluorophosphate; phases: Liquid
Fixed: Pressure, kPa = 101
Fixed: Mass fraction of water = 0.001
Property: Mass density, kg/m3 (Liquid); method: Vibrating tube method
Temperature, K	Mass density, kg/m3	uncertainty
293.15	1367.5	0.2
298.15	1363.4	0.2
303.15	1359.2	0.2
308.15	1355.2	0.2
313.15	1351	0.2
318.15	1346.8	0.2
323.15	1342.4	0.2
328.15	1338.5	0.2
333.15	1334.4	0.2
338.15	1330.3	0.2
343.15	1326.2	0.2

System: water + 1-ethyl-3-methylimidazolium bis((trifluoromethyl)sulfonyl)imide; phases: Liquid
Fixed: Pressure, kPa = 101
Fixed: Mass fraction of water = 0.001
Property: Mass density, kg/m3 (Liquid); method: Vibrating tube method
Temperature, K	Mass density, kg/m3	uncertainty
293.15	1520	5.8
298.15	1515	5.8
303.15	1510	5.7
308.15	1504.9	5.7
313.15	1499.8	5.7
318.15	1494.8	5.6
323.15	1489.8	5.6
328.15	1484.8	5.5
333.15	1479.7	5.5
338.15	1474.7	5.5
343.15	1469.7	5.4

System: water + 1-butyl-3-methylimidazolium bis(trifluoromethylsulfonyl)imide; phases: Liquid
Fixed: Pressure, kPa = 101
Fixed: Mass fraction of water = 0.001
Property: Mass density, kg/m3 (Liquid); method: Vibrating tube method
Temperature, K	Mass density, kg/m3	uncertainty
293.15	1439.9	5.2
298.15	1435.1	5.2
303.15	1430.3	5.1
308.15	1425.5	5.1
313.15	1420.7	5.1
318.15	1416	5
323.15	1411.2	5
328.15	1406.5	5
333.15	1401.7	4.9
338.15	1396.9	4.9
343.15	1392.2	4.9

System: water + 1-decyl-3-methylimidazolium bis(trifluoromethylsulfonyl)amide; phases: Liquid
Property: Mass density, kg/m3 (Liquid); method: Vibrating tube method
Mass fraction of water	Temperature, K	Pressure, kPa	Mass density, kg/m3	uncertainty
0.001	298.15	100	1275.5	4.1

System: water + trihexyl(tetradecyl)phosphonium bis[(trifluoromethyl)sulfonyl]imide; phases: Liquid
Property: Mass density, kg/m3 (Liquid); method: Vibrating tube method
Mass fraction of water	Temperature, K	Pressure, kPa	Mass density, kg/m3	uncertainty
0.001	298.15	100	1060.1	2.8
