Measured thermophysical data. Solubility of Clindamycin Phosphate in Binary Water-Ethanol Solvent
Source: J. Chem. Eng. Data, 2007, 10.1021/je700216w
Compound 1: ethanol, C2H6O, InChI=1S/C2H6O/c1-2-3/h3H,2H2,1H3
Compound 2: clindamycin phosphate, C18H34ClN2O8PS, InChI=1S/C18H34ClN2O8PS/c1-5-6-10-7-11(21(3)8-10)17(24)20-12(9(2)19)15-13(22)14(23)16(18(28-15)31-4)29-30(25,26)27/h9-16,18,22-23H,5-8H2,1-4H3,(H,20,24)(H2,25,26,27), purity 99%
Compound 3: water, H2O, InChI=1S/H2O/h1H2

System: ethanol + clindamycin phosphate; phases: Liquid, Crystal
Fixed: Pressure, kPa = 101
Property: Amount ratio of solute to solvent of clindamycin phosphate (Liquid); method: HPLC
Temperature, K	Amount ratio of solute to solvent of clindamycin phosphate	uncertainty
278.15	6e-06	6e-06
283.15	9e-06	9e-06
288.15	9e-06	9e-06
293.15	1.1e-05	1.1e-05
298.15	1.4e-05	1.4e-05
303.15	2.4e-05	2.4e-05
308.15	3.1e-05	3.1e-05
313.15	3.4e-05	3.4e-05
318.15	4.2e-05	4.2e-05
323.15	4.5e-05	4.5e-05
328.15	4.7e-05	4.7e-05
333.15	5.6e-05	5.6e-05
338.15	7.4e-05	7.4e-05
343.15	0.000112	0.000112

System: ethanol + water + clindamycin phosphate; phases: Liquid, Crystal
Fixed: Pressure, kPa = 101
Property: Amount ratio of solute to solvent of clindamycin phosphate (Liquid); method: HPLC
Temperature, K	Solvent: Mole fraction of water	Amount ratio of solute to solvent of clindamycin phosphate	uncertainty
278.15	0	6e-06	2e-06
283.15	0	9e-06	3e-06
288.15	0	9e-06	3e-06
293.15	0	1.1e-05	3e-06
298.15	0	1.4e-05	4e-06
303.15	0	2.4e-05	7e-06
308.15	0	3.1e-05	9e-06
313.15	0	3.4e-05	1e-05
318.15	0	4.2e-05	1.3e-05
323.15	0	4.5e-05	1.4e-05
328.15	0	4.7e-05	1.4e-05
333.15	0	5.6e-05	1.7e-05
338.15	0	7.4e-05	2.2e-05
343.15	0	0.000112	3.4e-05
288.15	0.1499	0.00171	0.00051
293.15	0.1499	0.00284	0.00085
298.15	0.1499	0.00322	0.00097
303.15	0.1499	0.00418	0.00125
308.15	0.1499	0.00457	0.00137
278.15	0.1499	0.00137	0.00041
313.15	0.1499	0.005	0.002
283.15	0.1499	0.00148	0.00044
318.15	0.1499	0.00544	0.00163
323.15	0.1499	0.00555	0.00167
328.15	0.1499	0.00673	0.00202
333.15	0.1499	0.00762	0.00229
338.15	0.1499	0.00872	0.00262
343.15	0.1499	0.0114	0.0034
288.15	0.3085	0.00361	0.00108
298.15	0.3085	0.0041	0.0012
303.15	0.3085	0.00572	0.00172
308.15	0.3085	0.00616	0.00185
313.15	0.3085	0.00737	0.00221
278.15	0.3085	0.0017	0.0005
318.15	0.3085	0.00798	0.00239
283.15	0.3085	0.00257	0.00077
293.15	0.3085	0.00374	0.00112
323.15	0.3085	0.01103	0.00331
328.15	0.3085	0.01473	0.00442
333.15	0.3085	0.01612	0.00484
338.15	0.3085	0.01974	0.00592
343.15	0.3085	0.02179	0.00654
298.15	0.4502	0.00876	0.00263
308.15	0.4502	0.01299	0.0039
313.15	0.4502	0.01407	0.00422
278.15	0.4502	0.0038	0.0011
318.15	0.4502	0.01728	0.00518
288.15	0.4502	0.00519	0.00156
323.15	0.4502	0.02452	0.00736
283.15	0.4502	0.00454	0.00136
293.15	0.4502	0.00608	0.00182
303.15	0.4502	0.00917	0.00275
328.15	0.4502	0.02558	0.00767
333.15	0.4502	0.02723	0.00817
338.15	0.4502	0.02897	0.00869
343.15	0.4502	0.03451	0.01035
288.15	0.615	0.00753	0.00226
308.15	0.615	0.01949	0.00585
318.15	0.615	0.02574	0.00772
278.15	0.615	0.00581	0.00174
323.15	0.615	0.03561	0.01068
298.15	0.615	0.0136	0.0041
328.15	0.615	0.03764	0.01129
283.15	0.615	0.00678	0.00203
293.15	0.615	0.0094	0.0028
303.15	0.615	0.01512	0.00454
313.15	0.615	0.02086	0.00626
333.15	0.615	0.03982	0.01195
338.15	0.615	0.04291	0.01287
343.15	0.615	0.05063	0.01519
288.15	0.7518	0.03433	0.0103
318.15	0.7518	0.06087	0.01826
328.15	0.7518	0.06681	0.02004
278.15	0.7518	0.01848	0.00554
308.15	0.7518	0.05127	0.01538
298.15	0.7518	0.0432	0.013
333.15	0.7518	0.06905	0.02072
283.15	0.7518	0.02142	0.00643
293.15	0.7518	0.03693	0.01108
303.15	0.7518	0.05089	0.01527
313.15	0.7518	0.05343	0.01603
323.15	0.7518	0.06374	0.01912
338.15	0.7518	0.0765	0.023
343.15	0.7518	0.09147	0.02744
278.15	1	0.17608	0.05282
318.15	1	0.22787	0.06836
288.15	1	0.18589	0.05577
308.15	1	0.21665	0.065
298.15	1	0.20292	0.06088
328.15	1	0.23495	0.07049
338.15	1	0.25187	0.07556
283.15	1	0.17986	0.05396
293.15	1	0.19957	0.05987
303.15	1	0.20942	0.06283
313.15	1	0.22286	0.06686
323.15	1	0.23177	0.06953
333.15	1	0.24071	0.07221
343.15	1	0.29239	0.08772

System: water + clindamycin phosphate; phases: Liquid, Crystal
Fixed: Pressure, kPa = 101
Property: Amount ratio of solute to solvent of clindamycin phosphate (Liquid); method: HPLC
Temperature, K	Amount ratio of solute to solvent of clindamycin phosphate	uncertainty
278.15	0.17608	0.05282
283.15	0.17986	0.05396
288.15	0.18589	0.05577
293.15	0.19957	0.05987
298.15	0.20292	0.06088
303.15	0.20942	0.06283
308.15	0.21665	0.065
313.15	0.22286	0.06686
318.15	0.22787	0.06836
323.15	0.23177	0.06953
328.15	0.23495	0.07049
333.15	0.24071	0.07221
338.15	0.25187	0.07556
343.15	0.29239	0.08772
