Measured thermophysical data. A Gas Saturation Apparatus for Very Low Vapor or Sublimation Pressure Measurements (10-3 Pa): Vapor-Liquid Equilibria of n-Alkanes (n-C10, n-C24, n-C28)
Source: J. Chem. Eng. Data, 2007, 10.1021/je7001122
Compound 1: decane, C10H22, InChI=1S/C10H22/c1-3-5-7-9-10-8-6-4-2/h3-10H2,1-2H3
Compound 2: tetracosane, C24H50, InChI=1S/C24H50/c1-3-5-7-9-11-13-15-17-19-21-23-24-22-20-18-16-14-12-10-8-6-4-2/h3-24H2,1-2H3
Compound 3: octacosane, C28H58, InChI=1S/C28H58/c1-3-5-7-9-11-13-15-17-19-21-23-25-27-28-26-24-22-20-18-16-14-12-10-8-6-4-2/h3-28H2,1-2H3

System: decane; phases: Liquid, Gas
Property: Vapor or sublimation pressure, kPa (Liquid); method: Transpiration method
Temperature, K	Vapor or sublimation pressure, kPa	uncertainty
323.94	0.9556	0.0536
353.57	4.2522	0.2198
373.15	10.05	0.523
402.36	29.482	1.509
402.48	29.357	1.503

System: tetracosane; phases: Liquid, Gas
Property: Vapor or sublimation pressure, kPa (Liquid); method: Transpiration method
Temperature, K	Vapor or sublimation pressure, kPa	uncertainty
333.46	4.3e-06	5e-07
353.43	4.35e-05	2.4e-06
353.97	4.5e-05	2.5e-06
373.17	0.000307	1.6e-05
373.61	0.000316	1.7e-05
379.15	0.000524	3.1e-05
393.2	0.001725	9e-05
393.2	0.001721	9e-05
397.55	0.002406	0.000139
414.68	0.00843	0.000451
417.75	0.0105	0.00055

System: tetracosane; phases: Liquid, Gas
Property: Vapor or sublimation pressure, kPa (Liquid); method: Diaphragm manometer
Temperature, K	Vapor or sublimation pressure, kPa	uncertainty
373.17	0.000296	2.1e-05
373.61	0.000322	2.2e-05
379.15	0.000531	2.8e-05
393.2	0.001727	5.9e-05
393.2	0.001727	5.9e-05
397.55	0.002432	0.0001
414.68	0.008547	0.000273
417.75	0.01055	0.00032
433.1	0.02857	0.0009
452.6	0.08931	0.00249

System: octacosane; phases: Liquid, Gas
Property: Vapor or sublimation pressure, kPa (Liquid); method: Transpiration method
Temperature, K	Vapor or sublimation pressure, kPa	uncertainty
354.01	2.14e-06	2.6e-07
373.92	1.77e-05	1.2e-06
373.92	1.8e-05	1.2e-06
393.65	0.000122	7e-06
393.65	0.000126	7e-06
413.5	0.000633	3.5e-05
413.5	0.000651	3.6e-05
413.5	0.00063	3.5e-05
433.32	0.00293	0.00016
453.28	0.012642	0.000676
473.64	0.04404	0.00235
494.8	0.15539	0.00812
516.89	0.42717	0.05
