Measured thermophysical data. Solubility of Gallic Acid in Methanol, Ethanol, Water, and Ethyl Acetate
Source: J. Chem. Eng. Data, 2008, 10.1021/je700633w
Compound 1: 3,4,5-trihydroxybenzoic acid, C7H6O5, InChI=1S/C7H6O5/c8-4-1-3(7(11)12)2-5(9)6(4)10/h1-2,8-10H,(H,11,12), purity 99.5%
Compound 2: methanol, CH4O, InChI=1S/CH4O/c1-2/h2H,1H3
Compound 3: ethanol, C2H6O, InChI=1S/C2H6O/c1-2-3/h3H,2H2,1H3
Compound 4: water, H2O, InChI=1S/H2O/h1H2
Compound 5: ethyl acetate, C4H8O2, InChI=1S/C4H8O2/c1-3-6-4(2)5/h3H2,1-2H3

System: methanol + 3,4,5-trihydroxybenzoic acid; phases: Liquid, Crystal
Fixed: Pressure, kPa = 101
Property: Mass fraction of 3,4,5-trihydroxybenzoic acid (Liquid); method: UV/vis spectrophotometry
Temperature, K	Mass fraction of 3,4,5-trihydroxybenzoic acid	uncertainty
298.2	0.2793	0.0069
303.2	0.2883	0.0069
308.2	0.293	0.0071
313.2	0.2959	0.0071
318.2	0.3013	0.0071
323.2	0.3048	0.0076
328.2	0.3107	0.0078
333.2	0.3174	0.0078

System: ethanol + 3,4,5-trihydroxybenzoic acid; phases: Liquid, Crystal
Fixed: Pressure, kPa = 101
Property: Mass fraction of 3,4,5-trihydroxybenzoic acid (Liquid); method: UV/vis spectrophotometry
Temperature, K	Mass fraction of 3,4,5-trihydroxybenzoic acid	uncertainty
298.2	0.189	0.0052
303.2	0.1894	0.005
308.2	0.19	0.0052
313.2	0.1917	0.0054
318.2	0.1955	0.0057
323.2	0.2002	0.0057
328.2	0.2045	0.0057
333.2	0.2093	0.0059

System: 3,4,5-trihydroxybenzoic acid + water; phases: Liquid, Crystal
Fixed: Pressure, kPa = 101
Property: Mass fraction of 3,4,5-trihydroxybenzoic acid (Liquid); method: UV/vis spectrophotometry
Temperature, K	Mass fraction of 3,4,5-trihydroxybenzoic acid	uncertainty
298.2	0.01516	0.00152
303.2	0.01615	0.00162
308.2	0.02367	0.00237
313.2	0.0254	0.00255
318.2	0.03429	0.00344
323.2	0.0382	0.00383
328.2	0.04787	0.00484
333.2	0.07378	0.00745

System: ethyl acetate + 3,4,5-trihydroxybenzoic acid; phases: Liquid, Crystal
Fixed: Pressure, kPa = 101
Property: Mass fraction of 3,4,5-trihydroxybenzoic acid (Liquid); method: UV Spectra
Temperature, K	Mass fraction of 3,4,5-trihydroxybenzoic acid	uncertainty
298.2	0.01276	0.0004
303.2	0.0129	0.00042
308.2	0.01303	0.0004
313.2	0.01335	0.00042
318.2	0.01438	0.00046
323.2	0.01544	0.00046
328.2	0.01598	0.00048
333.2	0.01689	0.00048
