Measured thermophysical data. Measurement of the Viscosity, Density, and Electrical Conductivity of 1-Hexyl-3-methylimidazolium Bis(trifluorosulfonyl)imide at Temperatures between (288 and 433) K and Pressures below 50 MPa
Source: J. Chem. Eng. Data, 2007, 10.1021/je7003484
Compound 1: 1-hexyl-3-methylimidazolium bis[(trifluoromethyl)sulfonyl]imide, C12H19F6N3O4S2, InChI=1S/C10H19N2.C2F6NO4S2/c1-3-4-5-6-7-12-9-8-11(2)10-12;3-1(4,5)14(10,11)9-15(12,13)2(6,7)8/h8-10H,3-7H2,1-2H3;/q+1;-1, purity 99.5%

System: 1-hexyl-3-methylimidazolium bis[(trifluoromethyl)sulfonyl]imide; phases: Liquid
Property: Viscosity, Pa*s (Liquid); method: Vibrating wire viscometry
Temperature, K	Pressure, kPa	Viscosity, Pa*s	uncertainty
288.15	100	0.111	0.003
293.15	100	0.086	0.002
293.15	10000	0.098	0.002
298.15	100	0.068	0.002
298.15	10000	0.078	0.002
298.15	20000	0.086	0.002
298.15	30000	0.096	0.002
298.15	40000	0.107	0.003
313.15	100	0.0362	0.0007
313.15	10000	0.0408	0.0008
313.15	20000	0.0454	0.0009
313.15	30000	0.051	0.001
313.15	40000	0.056	0.001
333.15	100	0.0186	0.0004
333.15	10000	0.0207	0.0004
333.15	20000	0.0231	0.0005
333.15	30000	0.0253	0.0005
333.15	40000	0.0279	0.0006
353.15	100	0.011	0.0002
353.15	10000	0.0121	0.0003
353.15	20000	0.0134	0.0003
353.15	30000	0.0145	0.0003
353.15	40000	0.0158	0.0003
373.15	100	0.0072	0.0002
373.15	10000	0.0079	0.0002
373.15	20000	0.0085	0.0002
373.15	30000	0.0094	0.0002
373.15	40000	0.01	0.0002
393.15	100	0.005	0.0001
393.15	10000	0.0055	0.0001
393.15	20000	0.0059	0.0001
393.15	30000	0.0064	0.0001
393.15	40000	0.0069	0.0002
413.15	100	0.00368	8e-05
413.15	10000	0.00397	8e-05
413.15	20000	0.00435	9e-05
413.15	30000	0.00464	0.0001
413.15	40000	0.005	0.0001
433.15	100	0.00286	6e-05
433.15	10000	0.00311	6e-05
433.15	20000	0.00333	7e-05
433.15	40000	0.00383	8e-05

System: 1-hexyl-3-methylimidazolium bis[(trifluoromethyl)sulfonyl]imide; phases: Liquid
Property: Mass density, kg/m3 (Liquid); method: Vibrating tube method
Pressure, kPa	Temperature, K	Mass density, kg/m3	uncertainty
100	298.15	1371	4
100	323.15	1349	4
100	348.15	1325	4
100	373.15	1303	4
10000	298.15	1379	4
10000	323.15	1357	4
10000	348.15	1334	4
10000	373.15	1314	4
10000	398.15	1292	4
10000	423.15	1270	4
20000	298.15	1386	4
20000	323.15	1364	4
20000	348.15	1343	4
20000	373.15	1321	4
20000	398.15	1301	4
20000	423.15	1279	4
30000	298.15	1393	4
30000	323.15	1372	4
30000	348.15	1352	4
30000	373.15	1332	4
30000	398.15	1311	4
30000	423.15	1292	4
40000	298.15	1399	4
40000	323.15	1378	4
40000	348.15	1359	4
40000	373.15	1339	4
40000	398.15	1319	4
40000	423.15	1299	4

System: 1-hexyl-3-methylimidazolium bis[(trifluoromethyl)sulfonyl]imide; phases: Liquid
Property: Viscosity, Pa*s (Liquid); method: Vibrating wire viscometry
Temperature, K	Pressure, kPa	Viscosity, Pa*s	uncertainty
293.15	100	0.09	0.002
293.15	10000	0.102	0.002
313.15	100	0.0377	0.0008
313.15	10000	0.0427	0.0009
313.15	20000	0.0462	0.0009
313.15	30000	0.052	0.001
313.15	40000	0.057	0.001
333.15	100	0.0195	0.0004
333.15	10000	0.0218	0.0004
333.15	20000	0.024	0.0005
333.15	30000	0.0264	0.0005
333.15	40000	0.0291	0.0006
353.15	100	0.0114	0.0002
353.15	10000	0.0127	0.0003
353.15	20000	0.0138	0.0003
353.15	30000	0.0153	0.0003
353.15	40000	0.0167	0.0003
373.15	100	0.0075	0.0002
373.15	10000	0.0083	0.0002
373.15	20000	0.009	0.0002
373.15	30000	0.0096	0.0002
373.15	40000	0.0108	0.0002
393.15	100	0.0052	0.0001
393.15	10000	0.0057	0.0001
393.15	20000	0.0062	0.0001
393.15	30000	0.0068	0.0001
393.15	40000	0.0072	0.0002
433.15	100	0.00305	6e-05
433.15	10000	0.00324	7e-05
433.15	20000	0.00352	7e-05
433.15	40000	0.00409	8e-05

System: 1-hexyl-3-methylimidazolium bis[(trifluoromethyl)sulfonyl]imide; phases: Liquid
Fixed: Pressure, kPa = 101.325
Property: Electrical conductivity, S/m (Liquid); method: Direct current cell with electrodes
Temperature, K	Electrical conductivity, S/m	uncertainty
278.15	0.077	0.002
283.15	0.102	0.002
288.15	0.135	0.003
293.15	0.172	0.003
298.15	0.217	0.004
303.15	0.268	0.005
308.15	0.327	0.007
313.15	0.39	0.008
323.15	0.54	0.01
