Measured thermophysical data. Densities and Viscosities of N-Formylmorpholine (NFM) + p-Xylene, + o-Xylene, + m-Xylene at Different Temperatures and Atmospheric Pressure
Source: J. Chem. Eng. Data, 2007, 10.1021/je7002513
Compound 1: N-formylmorpholine, C5H9NO2, InChI=1S/C5H9NO2/c7-5-6-1-3-8-4-2-6/h5H,1-4H2
Compound 2: 1,4-dimethylbenzene, C8H10, InChI=1S/C8H10/c1-7-3-5-8(2)6-4-7/h3-6H,1-2H3
Compound 3: 1,3-dimethylbenzene, C8H10, InChI=1S/C8H10/c1-7-4-3-5-8(2)6-7/h3-6H,1-2H3
Compound 4: 1,2-dimethylbenzene, C8H10, InChI=1S/C8H10/c1-7-5-3-4-6-8(7)2/h3-6H,1-2H3

System: N-formylmorpholine; phases: Liquid
Fixed: Pressure, kPa = 101
Property: Viscosity, Pa*s (Liquid); method: CAPTUB:UFactor:4
Temperature, K	Viscosity, Pa*s	uncertainty
298.15	0.0076556	0.0001509
303.15	0.0065981	0.0001343
313.15	0.0050678	0.0001103
323.15	0.0040357	8.92e-05
333.15	0.0033035	7.39e-05
343.15	0.0027822	6.29e-05
353.15	0.002368	5.41e-05

System: N-formylmorpholine; phases: Liquid
Fixed: Pressure, kPa = 101
Property: Mass density, kg/m3 (Liquid); method: VIBTUB:UFactor:16
Temperature, K	Mass density, kg/m3	uncertainty
298.15	1145.98	1.47
303.15	1141.55	1.45
313.15	1133.1	1.39
323.15	1124.59	1.34
333.15	1115.41	1.28
343.15	1106.82	1.23
353.15	1097.87	1.17

System: 1,4-dimethylbenzene; phases: Liquid
Fixed: Pressure, kPa = 101
Property: Viscosity, Pa*s (Liquid); method: CAPTUB::UFactor:4
Temperature, K	Viscosity, Pa*s	uncertainty
298.15	0.000612	1.63e-05
303.15	0.0005756	1.56e-05
313.15	0.000514	1.43e-05
323.15	0.0004641	1.34e-05
333.15	0.0004171	1.26e-05
343.15	0.0003809	1.2e-05
353.15	0.0003487	1.14e-05

System: 1,4-dimethylbenzene; phases: Liquid
Fixed: Pressure, kPa = 101
Property: Mass density, kg/m3 (Liquid); method: VIBTUB::UFactor:16
Temperature, K	Mass density, kg/m3	uncertainty
298.15	856.7	1.4
303.15	852.35	1.43
313.15	843.64	1.48
323.15	834.9	1.53
333.15	826.09	1.59
343.15	817.17	1.65
353.15	808.22	1.7

System: 1,3-dimethylbenzene; phases: Liquid
Fixed: Pressure, kPa = 101
Property: Viscosity, Pa*s (Liquid); method: CAPTUB::UFactor:4
Temperature, K	Viscosity, Pa*s	uncertainty
298.15	0.0005848	1.58e-05
303.15	0.0005531	1.51e-05
313.15	0.000497	1.4e-05
323.15	0.0004488	1.32e-05
333.15	0.0004101	1.25e-05
343.15	0.0003748	1.19e-05
353.15	0.000344	1.14e-05

System: 1,3-dimethylbenzene; phases: Liquid
Fixed: Pressure, kPa = 101
Property: Mass density, kg/m3 (Liquid); method: VIBTUB::UFactor:16
Temperature, K	Mass density, kg/m3	uncertainty
298.15	859.9	1.41
303.15	855.55	1.44
313.15	847.11	1.49
323.15	838.55	1.54
333.15	829.43	1.6
343.15	820.66	1.65
353.15	811.58	1.71

System: 1,2-dimethylbenzene; phases: Liquid
Fixed: Pressure, kPa = 101
Property: Viscosity, Pa*s (Liquid); method: CAPTUB::UFactor:4
Temperature, K	Viscosity, Pa*s	uncertainty
298.15	0.000761	1.96e-05
303.15	0.0007095	1.85e-05
313.15	0.0006261	1.67e-05
323.15	0.0005584	1.52e-05
333.15	0.000502	1.41e-05
343.15	0.0004544	1.33e-05
353.15	0.0004136	1.26e-05

System: 1,2-dimethylbenzene; phases: Liquid
Fixed: Pressure, kPa = 101
Property: Mass density, kg/m3 (Liquid); method: VIBTUB::UFactor:16
Temperature, K	Mass density, kg/m3	uncertainty
298.15	875.11	1.32
303.15	870.85	1.34
313.15	862.58	1.39
323.15	854.21	1.44
333.15	845.26	1.5
343.15	836.68	1.55
353.15	827.79	1.61

System: 1,4-dimethylbenzene + N-formylmorpholine; phases: Liquid
Fixed: Pressure, kPa = 101
Property: Viscosity, Pa*s (Liquid); method: CAPTUB:UFactor:4
Temperature, K	Mole fraction of 1,4-dimethylbenzene	Viscosity, Pa*s	uncertainty
298.15	0	0.0076556	0.0001509
298.15	0.1	0.0054734	0.0001166
298.15	0.2	0.0039965	8.83e-05
298.15	0.3	0.0030082	6.75e-05
298.15	0.4	0.0023114	5.28e-05
298.15	0.5	0.0018368	4.27e-05
298.15	0.6	0.0013799	3.29e-05
298.15	0.7	0.0010991	2.68e-05
298.15	0.8	0.0008844	2.22e-05
298.15	0.9	0.000731	1.89e-05
298.15	1	0.000612	1.63e-05
303.15	0	0.0065981	0.0001343
303.15	0.1	0.0047742	0.0001045
303.15	0.2	0.0035569	7.91e-05
303.15	0.3	0.0027162	6.14e-05
303.15	0.4	0.0021075	4.84e-05
303.15	0.5	0.0017003	3.97e-05
303.15	0.6	0.0012951	3.11e-05
303.15	0.7	0.0010179	2.51e-05
303.15	0.8	0.000824	2.09e-05
303.15	0.9	0.0006863	1.79e-05
303.15	1	0.0005756	1.56e-05
313.15	0	0.0050678	0.0001103
313.15	0.1	0.0037803	8.38e-05
313.15	0.2	0.0028646	6.45e-05
313.15	0.3	0.0022427	5.13e-05
313.15	0.4	0.0017819	4.15e-05
313.15	0.5	0.0014434	3.42e-05
313.15	0.6	0.0010976	2.68e-05
313.15	0.7	0.0008763	2.21e-05
313.15	0.8	0.0007219	1.87e-05
313.15	0.9	0.0006047	1.62e-05
313.15	1	0.000514	1.43e-05
323.15	0	0.0040357	8.92e-05
323.15	0.1	0.0030589	6.87e-05
323.15	0.2	0.0023776	5.42e-05
323.15	0.3	0.0018932	4.39e-05
323.15	0.4	0.0015277	3.61e-05
323.15	0.5	0.0012634	3.04e-05
323.15	0.6	0.000944	2.35e-05
323.15	0.7	0.0007736	1.98e-05
323.15	0.8	0.0006357	1.69e-05
323.15	0.9	0.0005387	1.48e-05
323.15	1	0.0004641	1.34e-05
333.15	0	0.0033035	7.39e-05
333.15	0.1	0.0025546	5.8e-05
333.15	0.2	0.0020149	4.65e-05
333.15	0.3	0.001627	3.82e-05
333.15	0.4	0.0013359	3.2e-05
333.15	0.5	0.0011182	2.73e-05
333.15	0.6	0.0008353	2.12e-05
333.15	0.7	0.0006871	1.8e-05
333.15	0.8	0.000569	1.54e-05
333.15	0.9	0.0004839	1.38e-05
333.15	1	0.0004171	1.26e-05
343.15	0	0.0027822	6.29e-05
343.15	0.1	0.0021628	4.97e-05
343.15	0.2	0.0017377	4.06e-05
343.15	0.3	0.0014192	3.38e-05
343.15	0.4	0.0011843	2.87e-05
343.15	0.5	0.0010025	2.48e-05
343.15	0.6	0.0007287	1.89e-05
343.15	0.7	0.0006127	1.64e-05
343.15	0.8	0.0005086	1.42e-05
343.15	0.9	0.0004403	1.3e-05
343.15	1	0.0003809	1.2e-05
353.15	0	0.002368	5.41e-05
353.15	0.1	0.0019003	4.41e-05
353.15	0.2	0.0015198	3.59e-05
353.15	0.3	0.0012601	3.03e-05
353.15	0.4	0.0010616	2.61e-05
353.15	0.5	0.0009077	2.27e-05
353.15	0.6	0.0006454	1.71e-05
353.15	0.7	0.0005416	1.48e-05
353.15	0.8	0.000461	1.34e-05
353.15	0.9	0.0004009	1.23e-05
353.15	1	0.0003487	1.14e-05

System: 1,4-dimethylbenzene + N-formylmorpholine; phases: Liquid
Fixed: Pressure, kPa = 101
Property: Mass density, kg/m3 (Liquid); method: VIBTUB:UFactor:16
Temperature, K	Mole fraction of 1,4-dimethylbenzene	Mass density, kg/m3	uncertainty
298.15	0	1145.98	1.47
298.15	0.1	1113.74	1.26
298.15	0.2	1081.77	1.05
298.15	0.3	1051.63	0.86
298.15	0.4	1021.64	0.66
298.15	0.5	992.45	0.57
298.15	0.6	963.83	0.74
298.15	0.7	936	0.91
298.15	0.8	909.08	1.08
298.15	0.9	882.88	1.24
298.15	1	856.7	1.4
303.15	0	1141.55	1.45
303.15	0.1	1109.29	1.23
303.15	0.2	1077.32	1.03
303.15	0.3	1047.15	0.83
303.15	0.4	1017.18	0.64
303.15	0.5	987.97	0.6
303.15	0.6	959.34	0.77
303.15	0.7	931.52	0.94
303.15	0.8	904.63	1.1
303.15	0.9	878.45	1.27
303.15	1	852.35	1.43
313.15	0	1133.1	1.39
313.15	0.1	1100.82	1.18
313.15	0.2	1068.74	0.97
313.15	0.3	1038.59	0.78
313.15	0.4	1008.58	0.58
313.15	0.5	979.34	0.65
313.15	0.6	950.71	0.82
313.15	0.7	922.91	0.99
313.15	0.8	896.04	1.16
313.15	0.9	869.86	1.32
313.15	1	843.64	1.48
323.15	0	1124.59	1.34
323.15	0.1	1092.24	1.13
323.15	0.2	1060.14	0.92
323.15	0.3	1029.94	0.72
323.15	0.4	999.92	0.53
323.15	0.5	970.62	0.7
323.15	0.6	942.02	0.88
323.15	0.7	914.18	1.05
323.15	0.8	887.34	1.21
323.15	0.9	861.17	1.37
323.15	1	834.9	1.53
333.15	0	1115.41	1.28
333.15	0.1	1083.02	1.07
333.15	0.2	1050.88	0.86
333.15	0.3	1020.67	0.66
333.15	0.4	990.6	0.59
333.15	0.5	961.32	0.76
333.15	0.6	932.66	0.94
333.15	0.7	904.85	1.11
333.15	0.8	878.08	1.27
333.15	0.9	851.93	1.43
333.15	1	826.09	1.59
343.15	0	1106.82	1.23
343.15	0.1	1074.38	1.01
343.15	0.2	1042.17	0.8
343.15	0.3	1011.94	0.61
343.15	0.4	981.83	0.64
343.15	0.5	952.5	0.82
343.15	0.6	923.79	0.99
343.15	0.7	895.99	1.16
343.15	0.8	869.19	1.33
343.15	0.9	843.04	1.49
343.15	1	817.17	1.65
353.15	0	1097.87	1.17
353.15	0.1	1065.4	0.96
353.15	0.2	1033.11	0.75
353.15	0.3	1002.87	0.55
353.15	0.4	972.69	0.7
353.15	0.5	943.31	0.88
353.15	0.6	914.58	1.05
353.15	0.7	886.82	1.22
353.15	0.8	860	1.39
353.15	0.9	833.88	1.55
353.15	1	808.22	1.7

System: 1,3-dimethylbenzene + N-formylmorpholine; phases: Liquid
Fixed: Pressure, kPa = 101
Property: Viscosity, Pa*s (Liquid); method: CAPTUB:UFactor:4
Temperature, K	Mole fraction of 1,3-dimethylbenzene	Viscosity, Pa*s	uncertainty
298.15	0	0.0076556	0.0001509
298.15	0.1	0.0055083	0.0001172
298.15	0.2	0.0040465	8.95e-05
298.15	0.3	0.0030491	6.85e-05
298.15	0.4	0.0023401	5.35e-05
298.15	0.5	0.0017918	4.18e-05
298.15	0.6	0.0013803	3.3e-05
298.15	0.7	0.0010823	2.66e-05
298.15	0.8	0.0008664	2.19e-05
298.15	0.9	0.0007069	1.85e-05
298.15	1	0.0005848	1.58e-05
303.15	0	0.0065981	0.0001343
303.15	0.1	0.0048259	0.0001056
303.15	0.2	0.0035894	7.99e-05
303.15	0.3	0.0027409	6.2e-05
303.15	0.4	0.0021325	4.91e-05
303.15	0.5	0.0016464	3.87e-05
303.15	0.6	0.0012674	3.06e-05
303.15	0.7	0.0010015	2.48e-05
303.15	0.8	0.0008124	2.07e-05
303.15	0.9	0.0006603	1.74e-05
303.15	1	0.0005531	1.51e-05
313.15	0	0.0050678	0.0001103
313.15	0.1	0.0037928	8.42e-05
313.15	0.2	0.0028863	6.51e-05
313.15	0.3	0.0022574	5.18e-05
313.15	0.4	0.0017775	4.15e-05
313.15	0.5	0.0013813	3.3e-05
313.15	0.6	0.0010761	2.64e-05
313.15	0.7	0.0008623	2.18e-05
313.15	0.8	0.000708	1.85e-05
313.15	0.9	0.000586	1.58e-05
313.15	1	0.000497	1.4e-05
323.15	0	0.0040357	8.92e-05
323.15	0.1	0.0030806	6.92e-05
323.15	0.2	0.0024002	5.48e-05
323.15	0.3	0.001905	4.42e-05
323.15	0.4	0.0015219	3.6e-05
323.15	0.5	0.0011921	2.89e-05
323.15	0.6	0.0009311	2.33e-05
323.15	0.7	0.0007574	1.95e-05
323.15	0.8	0.0006298	1.68e-05
323.15	0.9	0.0005286	1.46e-05
323.15	1	0.0004488	1.32e-05
333.15	0	0.0033035	7.39e-05
333.15	0.1	0.0025651	5.83e-05
333.15	0.2	0.0020425	4.72e-05
333.15	0.3	0.0016401	3.86e-05
333.15	0.4	0.0013037	3.13e-05
333.15	0.5	0.0010402	2.57e-05
333.15	0.6	0.000827	2.11e-05
333.15	0.7	0.0006716	1.77e-05
333.15	0.8	0.00056	1.53e-05
333.15	0.9	0.0004742	1.36e-05
333.15	1	0.0004101	1.25e-05
343.15	0	0.0027822	6.29e-05
343.15	0.1	0.0021769	5e-05
343.15	0.2	0.0017557	4.1e-05
343.15	0.3	0.0014341	3.41e-05
343.15	0.4	0.0011519	2.81e-05
343.15	0.5	0.0009208	2.31e-05
343.15	0.6	0.0007349	1.91e-05
343.15	0.7	0.0006	1.61e-05
343.15	0.8	0.0005062	1.42e-05
343.15	0.9	0.0004332	1.29e-05
343.15	1	0.0003748	1.19e-05
353.15	0	0.002368	5.41e-05
353.15	0.1	0.0018783	4.37e-05
353.15	0.2	0.0015479	3.66e-05
353.15	0.3	0.0012714	3.06e-05
353.15	0.4	0.0010327	2.55e-05
353.15	0.5	0.0008347	2.12e-05
353.15	0.6	0.000665	1.75e-05
353.15	0.7	0.0005387	1.48e-05
353.15	0.8	0.0004575	1.33e-05
353.15	0.9	0.0003927	1.22e-05
353.15	1	0.000344	1.14e-05

System: 1,3-dimethylbenzene + N-formylmorpholine; phases: Liquid
Fixed: Pressure, kPa = 101
Property: Mass density, kg/m3 (Liquid); method: VIBTUB:UFactor:16
Temperature, K	Mole fraction of 1,3-dimethylbenzene	Mass density, kg/m3	uncertainty
298.15	0	1145.98	1.47
298.15	0.1	1113.79	1.27
298.15	0.2	1082.63	1.07
298.15	0.3	1052.13	0.88
298.15	0.4	1022.33	0.69
298.15	0.5	993.34	0.59
298.15	0.6	965.21	0.76
298.15	0.7	937.73	0.93
298.15	0.8	911.04	1.09
298.15	0.9	885.2	1.25
298.15	1	859.9	1.41
303.15	0	1141.55	1.45
303.15	0.1	1109.31	1.24
303.15	0.2	1078.17	1.04
303.15	0.3	1047.67	0.85
303.15	0.4	1017.93	0.66
303.15	0.5	988.93	0.62
303.15	0.6	960.85	0.79
303.15	0.7	933.31	0.96
303.15	0.8	906.67	1.12
303.15	0.9	880.81	1.28
303.15	1	855.55	1.44
313.15	0	1133.1	1.39
313.15	0.1	1100.77	1.19
313.15	0.2	1069.64	0.99
313.15	0.3	1039.15	0.8
313.15	0.4	1009.35	0.61
313.15	0.5	980.36	0.67
313.15	0.6	952.24	0.84
313.15	0.7	924.77	1.01
313.15	0.8	898.12	1.17
313.15	0.9	872.34	1.33
313.15	1	847.11	1.49
323.15	0	1124.59	1.34
323.15	0.1	1092.24	1.13
323.15	0.2	1061.08	0.94
323.15	0.3	1030.53	0.74
323.15	0.4	1000.7	0.55
323.15	0.5	971.75	0.72
323.15	0.6	943.63	0.89
323.15	0.7	916.1	1.06
323.15	0.8	889.45	1.23
323.15	0.9	863.78	1.39
323.15	1	838.55	1.54
333.15	0	1115.41	1.28
333.15	0.1	1083.04	1.08
333.15	0.2	1051.86	0.88
333.15	0.3	1021.32	0.68
333.15	0.4	991.44	0.6
333.15	0.5	962.49	0.78
333.15	0.6	934.4	0.95
333.15	0.7	906.88	1.12
333.15	0.8	880.24	1.28
333.15	0.9	854.59	1.44
333.15	1	829.43	1.6
343.15	0	1106.82	1.23
343.15	0.1	1074.39	1.02
343.15	0.2	1043.2	0.82
343.15	0.3	1012.6	0.63
343.15	0.4	982.7	0.66
343.15	0.5	953.77	0.83
343.15	0.6	925.59	1.01
343.15	0.7	898.11	1.18
343.15	0.8	871.41	1.34
343.15	0.9	845.79	1.5
343.15	1	820.66	1.65
353.15	0	1097.87	1.17
353.15	0.1	1065.42	0.97
353.15	0.2	1034.17	0.77
353.15	0.3	1003.54	0.57
353.15	0.4	973.63	0.71
353.15	0.5	944.67	0.89
353.15	0.6	916.49	1.06
353.15	0.7	888.96	1.23
353.15	0.8	862.29	1.4
353.15	0.9	836.63	1.56
353.15	1	811.58	1.71

System: 1,2-dimethylbenzene + N-formylmorpholine; phases: Liquid
Fixed: Pressure, kPa = 101
Property: Viscosity, Pa*s (Liquid); method: CAPTUB:UFactor:4
Temperature, K	Mole fraction of 1,2-dimethylbenzene	Viscosity, Pa*s	uncertainty
298.15	0	0.0076556	0.0001509
298.15	0.1	0.0059359	0.0001239
298.15	0.2	0.004582	0.0001006
298.15	0.3	0.0036022	8.02e-05
298.15	0.4	0.0028697	6.47e-05
298.15	0.5	0.0022333	5.12e-05
298.15	0.6	0.0017444	4.08e-05
298.15	0.7	0.0013851	3.31e-05
298.15	0.8	0.0011221	2.74e-05
298.15	0.9	0.0009104	2.29e-05
298.15	1	0.000761	1.96e-05
303.15	0	0.0065981	0.0001343
303.15	0.1	0.0051802	0.000112
303.15	0.2	0.0040539	8.96e-05
303.15	0.3	0.0032311	7.24e-05
303.15	0.4	0.0025842	5.87e-05
303.15	0.5	0.0020341	4.7e-05
303.15	0.6	0.0015834	3.74e-05
303.15	0.7	0.0012707	3.06e-05
303.15	0.8	0.0010341	2.55e-05
303.15	0.9	0.0008483	2.15e-05
303.15	1	0.0007095	1.85e-05
313.15	0	0.0050678	0.0001103
313.15	0.1	0.0040628	8.98e-05
313.15	0.2	0.0032431	7.26e-05
313.15	0.3	0.0026267	5.96e-05
313.15	0.4	0.0021424	4.93e-05
313.15	0.5	0.0017102	4.01e-05
313.15	0.6	0.0013471	3.23e-05
313.15	0.7	0.0010801	2.65e-05
313.15	0.8	0.0008894	2.24e-05
313.15	0.9	0.0007328	1.9e-05
313.15	1	0.0006261	1.67e-05
323.15	0	0.0040357	8.92e-05
323.15	0.1	0.0032942	7.37e-05
323.15	0.2	0.0026707	6.05e-05
323.15	0.3	0.0021944	5.04e-05
323.15	0.4	0.0017999	4.2e-05
323.15	0.5	0.001467	3.49e-05
323.15	0.6	0.0011614	2.83e-05
323.15	0.7	0.0009316	2.33e-05
323.15	0.8	0.0007789	2e-05
323.15	0.9	0.0006556	1.73e-05
323.15	1	0.0005584	1.52e-05
333.15	0	0.0033035	7.39e-05
333.15	0.1	0.002735	6.19e-05
333.15	0.2	0.0022565	5.17e-05
333.15	0.3	0.0018762	4.36e-05
333.15	0.4	0.0015558	3.68e-05
333.15	0.5	0.0012803	3.08e-05
333.15	0.6	0.001025	2.53e-05
333.15	0.7	0.0008156	2.08e-05
333.15	0.8	0.0006844	1.8e-05
333.15	0.9	0.0005801	1.57e-05
333.15	1	0.000502	1.41e-05
343.15	0	0.0027822	6.29e-05
343.15	0.1	0.0023216	5.31e-05
343.15	0.2	0.0019347	4.49e-05
343.15	0.3	0.0016371	3.85e-05
343.15	0.4	0.0013514	3.24e-05
343.15	0.5	0.0011469	2.8e-05
343.15	0.6	0.0009085	2.28e-05
343.15	0.7	0.0007215	1.88e-05
343.15	0.8	0.0006086	1.63e-05
343.15	0.9	0.0005214	1.45e-05
343.15	1	0.0004544	1.33e-05
353.15	0	0.002368	5.41e-05
353.15	0.1	0.0020071	4.64e-05
353.15	0.2	0.0016975	3.98e-05
353.15	0.3	0.0014432	3.43e-05
353.15	0.4	0.0011911	2.89e-05
353.15	0.5	0.0010231	2.53e-05
353.15	0.6	0.0008132	2.08e-05
353.15	0.7	0.000644	1.71e-05
353.15	0.8	0.0005502	1.51e-05
353.15	0.9	0.0004716	1.36e-05
353.15	1	0.0004136	1.26e-05

System: 1,2-dimethylbenzene + N-formylmorpholine; phases: Liquid
Fixed: Pressure, kPa = 101
Property: Mass density, kg/m3 (Liquid); method: VIBTUB:UFactor:16
Temperature, K	Mole fraction of 1,2-dimethylbenzene	Mass density, kg/m3	uncertainty
298.15	0	1145.98	1.47
298.15	0.1	1116.07	1.28
298.15	0.2	1086.89	1.1
298.15	0.3	1057.97	0.92
298.15	0.4	1029.86	0.74
298.15	0.5	1002.45	0.56
298.15	0.6	975.78	0.7
298.15	0.7	949.68	0.86
298.15	0.8	923.89	1.02
298.15	0.9	899.33	1.17
298.15	1	875.11	1.32
303.15	0	1141.55	1.45
303.15	0.1	1111.62	1.26
303.15	0.2	1082.41	1.07
303.15	0.3	1053.53	0.89
303.15	0.4	1025.43	0.71
303.15	0.5	998.06	0.56
303.15	0.6	971.39	0.72
303.15	0.7	945.33	0.88
303.15	0.8	919.55	1.04
303.15	0.9	895.02	1.19
303.15	1	870.85	1.34
313.15	0	1133.1	1.39
313.15	0.1	1103.15	1.2
313.15	0.2	1073.95	1.02
313.15	0.3	1044.99	0.83
313.15	0.4	1016.91	0.65
313.15	0.5	989.56	0.61
313.15	0.6	962.91	0.78
313.15	0.7	936.86	0.94
313.15	0.8	911.12	1.09
313.15	0.9	886.68	1.24
313.15	1	862.58	1.39
323.15	0	1124.59	1.34
323.15	0.1	1094.59	1.15
323.15	0.2	1065.41	0.96
323.15	0.3	1036.46	0.78
323.15	0.4	1008.3	0.6
323.15	0.5	981.01	0.66
323.15	0.6	954.37	0.83
323.15	0.7	928.35	0.99
323.15	0.8	902.63	1.15
323.15	0.9	878.26	1.3
323.15	1	854.21	1.44
333.15	0	1115.41	1.28
333.15	0.1	1085.41	1.09
333.15	0.2	1056.21	0.9
333.15	0.3	1027.23	0.72
333.15	0.4	999.11	0.55
333.15	0.5	971.84	0.72
333.15	0.6	945.23	0.88
333.15	0.7	919.24	1.04
333.15	0.8	893.55	1.2
333.15	0.9	869.22	1.35
333.15	1	845.26	1.5
343.15	0	1106.82	1.23
343.15	0.1	1076.79	1.04
343.15	0.2	1047.54	0.85
343.15	0.3	1018.55	0.67
343.15	0.4	990.42	0.61
343.15	0.5	963.16	0.78
343.15	0.6	936.54	0.94
343.15	0.7	910.56	1.1
343.15	0.8	884.86	1.26
343.15	0.9	860.59	1.41
343.15	1	836.68	1.55
353.15	0	1097.87	1.17
353.15	0.1	1067.82	0.98
353.15	0.2	1038.56	0.8
353.15	0.3	1009.55	0.61
353.15	0.4	981.42	0.66
353.15	0.5	954.16	0.83
353.15	0.6	927.53	1
353.15	0.7	901.56	1.16
353.15	0.8	875.86	1.31
353.15	0.9	851.71	1.46
353.15	1	827.79	1.61
