Measured thermophysical data. Solubility of Phenacetinum in Methanol, Ethanol, 1-Propanol, 1-Butanol, 1-Pentanol, Tetrahydrofuran, Ethyl Acetate, and Benzene between 282.65 K and 333.70 K
Source: J. Chem. Eng. Data, 2007, 10.1021/je700209v
Compound 1: N-(4-ethoxyphenyl)ethanamide, C10H13NO2, InChI=1S/C10H13NO2/c1-3-13-10-6-4-9(5-7-10)11-8(2)12/h4-7H,3H2,1-2H3,(H,11,12)
Compound 2: methanol, CH4O, InChI=1S/CH4O/c1-2/h2H,1H3
Compound 3: ethanol, C2H6O, InChI=1S/C2H6O/c1-2-3/h3H,2H2,1H3
Compound 4: propan-1-ol, C3H8O, InChI=1S/C3H8O/c1-2-3-4/h4H,2-3H2,1H3
Compound 5: butan-1-ol, C4H10O, InChI=1S/C4H10O/c1-2-3-4-5/h5H,2-4H2,1H3
Compound 6: pentan-1-ol, C5H12O, InChI=1S/C5H12O/c1-2-3-4-5-6/h6H,2-5H2,1H3
Compound 7: tetrahydrofuran, C4H8O, InChI=1S/C4H8O/c1-2-4-5-3-1/h1-4H2
Compound 8: ethyl acetate, C4H8O2, InChI=1S/C4H8O2/c1-3-6-4(2)5/h3H2,1-2H3
Compound 9: benzene, C6H6, InChI=1S/C6H6/c1-2-4-6-5-3-1/h1-6H

System: N-(4-ethoxyphenyl)ethanamide + methanol; phases: Liquid, Crystal
Fixed: Pressure, kPa = 101
Property: Mole fraction of N-(4-ethoxyphenyl)ethanamide (Liquid); method: Laser Technique
Temperature, K	Mole fraction of N-(4-ethoxyphenyl)ethanamide	uncertainty
283.74	0.01046	0.000163
288.15	0.01279	0.0002
293.83	0.016571	0.00026
298.18	0.020259	0.000318
303.18	0.025574	0.000403
308.05	0.032072	0.000507
313.25	0.040701	0.000647
318.1	0.050556	0.000809
323.25	0.063176	0.001019
328.15	0.07748	0.001262
333.45	0.095735	0.001579

System: N-(4-ethoxyphenyl)ethanamide + ethanol; phases: Liquid, Crystal
Fixed: Pressure, kPa = 101
Property: Mole fraction of N-(4-ethoxyphenyl)ethanamide (Liquid); method: Laser Technique.
Temperature, K	Mole fraction of N-(4-ethoxyphenyl)ethanamide	uncertainty
282.65	0.0096408	0.0001346
289.25	0.012861	0.000175
293.41	0.01517	0.000207
298.25	0.018376	0.000251
303.31	0.02258	0.00031
307.85	0.027324	0.000378
313.3	0.034532	0.000478
318.25	0.042789	0.000595
323.25	0.053061	0.00074
328.65	0.06665	0.000932
333.7	0.082236	0.001148

System: N-(4-ethoxyphenyl)ethanamide + propan-1-ol; phases: Liquid, Crystal
Fixed: Pressure, kPa = 101
Property: Mole fraction of N-(4-ethoxyphenyl)ethanamide (Liquid); method: Laser Technique
Temperature, K	Mole fraction of N-(4-ethoxyphenyl)ethanamide	uncertainty
282.65	0.0089512	0.0001182
289.25	0.012371	0.000156
293.45	0.014756	0.000186
298.25	0.017969	0.000227
303.31	0.022224	0.000281
307.85	0.027068	0.000346
313.3	0.03452	0.000441
318.15	0.042973	0.000551
323.25	0.054049	0.000694
328.45	0.067999	0.000874
333.7	0.085175	0.001086

System: N-(4-ethoxyphenyl)ethanamide + butan-1-ol; phases: Liquid, Crystal
Fixed: Pressure, kPa = 101
Property: Mole fraction of N-(4-ethoxyphenyl)ethanamide (Liquid); method: Laser Technique
Temperature, K	Mole fraction of N-(4-ethoxyphenyl)ethanamide	uncertainty
283.37	0.016433	0.000197
288.15	0.019652	0.000234
293.73	0.024265	0.000289
298.2	0.028897	0.000347
303.18	0.035331	0.000426
308.05	0.043203	0.000523
313.23	0.053612	0.00065
318.43	0.066512	0.000806
323.25	0.080964	0.000984
328.15	0.098408	0.001197
333.27	0.11991	0.00145

System: N-(4-ethoxyphenyl)ethanamide + pentan-1-ol; phases: Liquid, Crystal
Fixed: Pressure, kPa = 101
Property: Mole fraction of N-(4-ethoxyphenyl)ethanamide (Liquid); method: Laser Technique
Temperature, K	Mole fraction of N-(4-ethoxyphenyl)ethanamide	uncertainty
282.95	0.011414	0.000131
288.23	0.013629	0.000156
293.27	0.016382	0.000189
298.2	0.019863	0.000231
303.15	0.024323	0.000285
307.95	0.029741	0.000349
312.95	0.036708	0.000431
317.87	0.045061	0.000529
323.17	0.055923	0.000655
328.3	0.068482	0.0008
333.27	0.082759	0.000959

System: N-(4-ethoxyphenyl)ethanamide + tetrahydrofuran; phases: Liquid, Crystal
Fixed: Pressure, kPa = 101
Property: Mole fraction of N-(4-ethoxyphenyl)ethanamide (Liquid); method: Laser Technique
Temperature, K	Mole fraction of N-(4-ethoxyphenyl)ethanamide	uncertainty
283.03	0.01883	0.000228
288.35	0.023073	0.000274
293.88	0.027588	0.000329
298.17	0.03294	0.000397
303.15	0.039546	0.000474
307.95	0.047304	0.00057
313.15	0.057561	0.000695
318.15	0.069547	0.000842
323.45	0.084863	0.001029
328.33	0.10165	0.00124
333.55	0.12277	0.00149

System: N-(4-ethoxyphenyl)ethanamide + ethyl acetate; phases: Liquid, Crystal
Fixed: Pressure, kPa = 101
Property: Mole fraction of N-(4-ethoxyphenyl)ethanamide (Liquid); method: Laser Technique
Temperature, K	Mole fraction of N-(4-ethoxyphenyl)ethanamide	uncertainty
282.65	0.0059313	7.32e-05
289.45	0.0082669	9.65e-05
293.3	0.0095839	0.0001107
298.35	0.011494	0.000132
303.17	0.013683	0.000158
308.03	0.016438	0.000191
313.05	0.020055	0.000234
318.25	0.024842	0.000291
323.25	0.03065	0.00036
328.15	0.037683	0.000443
333.15	0.046424	0.000539

System: N-(4-ethoxyphenyl)ethanamide + benzene; phases: Liquid, Crystal
Fixed: Pressure, kPa = 101
Property: Mole fraction of N-(4-ethoxyphenyl)ethanamide (Liquid); method: Laser Technique
Temperature, K	Mole fraction of N-(4-ethoxyphenyl)ethanamide	uncertainty
283.1	0.0007884	1.26e-05
288.15	0.0012485	1.61e-05
293.1	0.0016052	1.93e-05
297.9	0.0019537	2.33e-05
303.25	0.0024537	2.96e-05
308.23	0.0031283	3.85e-05
313.15	0.0040896	5.13e-05
318.15	0.0054662	6.88e-05
322.85	0.0072153	9.16e-05
328.35	0.009935	0.0001242
333.15	0.013028	0.000159
