Measured thermophysical data. Activity Coefficients at Infinite Dilution of Polar Solutes in 1-Propyl-2,3-dimethylimidazolium Tetrafluoroborate Using Gas Liquid Chromatography
Source: J. Chem. Eng. Data, 2008, 10.1021/je700640r
Compound 1: methanol, CH4O, InChI=1S/CH4O/c1-2/h2H,1H3, purity 99%
Compound 2: 1,2-dimethyl-3-propylimidazolium tetrafluoroborate, C8H15BF4N2, InChI=1S/C8H15N2.BF4/c1-4-5-10-7-6-9(3)8(10)2;2-1(3,4)5/h6-7H,4-5H2,1-3H3;/q+1;-1, purity 99%
Compound 3: ethanol, C2H6O, InChI=1S/C2H6O/c1-2-3/h3H,2H2,1H3, purity 99%
Compound 4: propan-1-ol, C3H8O, InChI=1S/C3H8O/c1-2-3-4/h4H,2-3H2,1H3, purity 99%
Compound 5: butan-1-ol, C4H10O, InChI=1S/C4H10O/c1-2-3-4-5/h5H,2-4H2,1H3, purity 99%
Compound 6: pentan-1-ol, C5H12O, InChI=1S/C5H12O/c1-2-3-4-5-6/h6H,2-5H2,1H3, purity 99%
Compound 7: propan-2-ol, C3H8O, InChI=1S/C3H8O/c1-3(2)4/h3-4H,1-2H3, purity 99%
Compound 8: 2-methyl-1-propanol, C4H10O, InChI=1S/C4H10O/c1-4(2)3-5/h4-5H,3H2,1-2H3, purity 99%
Compound 9: butan-2-ol, C4H10O, InChI=1S/C4H10O/c1-3-4(2)5/h4-5H,3H2,1-2H3, purity 99%
Compound 10: 3-methylbutan-1-ol, C5H12O, InChI=1S/C5H12O/c1-5(2)3-4-6/h5-6H,3-4H2,1-2H3, purity 99%
Compound 11: acetonitrile, C2H3N, InChI=1S/C2H3N/c1-2-3/h1H3, purity 99%
Compound 12: acetone, C3H6O, InChI=1S/C3H6O/c1-3(2)4/h1-2H3, purity 99%
Compound 13: 1,4-dioxane, C4H8O2, InChI=1S/C4H8O2/c1-2-6-4-3-5-1/h1-4H2, purity 99%
Compound 14: tetrahydrofuran, C4H8O, InChI=1S/C4H8O/c1-2-4-5-3-1/h1-4H2, purity 99%
Compound 15: ethyl acetate, C4H8O2, InChI=1S/C4H8O2/c1-3-6-4(2)5/h3H2,1-2H3, purity 99%
Compound 16: dichloromethane, CH2Cl2, InChI=1S/CH2Cl2/c2-1-3/h1H2, purity 99%
Compound 17: trichloromethane, CHCl3, InChI=1S/CHCl3/c2-1(3)4/h1H, purity 99%
Compound 18: tetrachloromethane, CCl4, InChI=1S/CCl4/c2-1(3,4)5, purity 99%

System: methanol + 1,2-dimethyl-3-propylimidazolium tetrafluoroborate; phases: Liquid, Gas
Fixed: Mole fraction of methanol = 0
Property: Activity coefficient of methanol (Liquid); method: Chromatography
Temperature, K	Activity coefficient of methanol	uncertainty
303.15	0.898	0.074
313.15	0.869	0.072
323.15	0.823	0.069
333.15	0.777	0.065
343.15	0.713	0.061
353.15	0.684	0.059
363.15	0.642	0.056

System: ethanol + 1,2-dimethyl-3-propylimidazolium tetrafluoroborate; phases: Liquid, Gas
Fixed: Mole fraction of ethanol = 0
Property: Activity coefficient of ethanol (Liquid); method: Chromatography
Temperature, K	Activity coefficient of ethanol	uncertainty
303.15	1.856	0.159
313.15	1.68	0.143
323.15	1.596	0.135
333.15	1.514	0.128
343.15	1.436	0.121
353.15	1.353	0.113
363.15	1.179	0.098

System: propan-1-ol + 1,2-dimethyl-3-propylimidazolium tetrafluoroborate; phases: Liquid, Gas
Fixed: Mole fraction of propan-1-ol = 0
Property: Activity coefficient of propan-1-ol (Liquid); method: Chromatography
Temperature, K	Activity coefficient of propan-1-ol	uncertainty
303.15	3.26	0.281
313.15	3.014	0.26
323.15	2.807	0.242
333.15	2.594	0.224
343.15	2.372	0.204
353.15	2.192	0.189
363.15	1.883	0.162

System: butan-1-ol + 1,2-dimethyl-3-propylimidazolium tetrafluoroborate; phases: Liquid, Gas
Fixed: Mole fraction of butan-1-ol = 0
Property: Activity coefficient of butan-1-ol (Liquid); method: Chromatography
Temperature, K	Activity coefficient of butan-1-ol	uncertainty
303.15	5.053	0.436
313.15	4.67	0.403
323.15	4.204	0.363
333.15	3.725	0.321
343.15	3.197	0.276
353.15	2.671	0.23
363.15	2.271	0.196

System: pentan-1-ol + 1,2-dimethyl-3-propylimidazolium tetrafluoroborate; phases: Liquid, Gas
Fixed: Mole fraction of pentan-1-ol = 0
Property: Activity coefficient of pentan-1-ol (Liquid); method: Chromatography
Temperature, K	Activity coefficient of pentan-1-ol	uncertainty
313.15	6.195	0.535
323.15	5.312	0.458
333.15	4.651	0.401
343.15	4.054	0.35
353.15	3.678	0.317
363.15	3.125	0.269

System: propan-2-ol + 1,2-dimethyl-3-propylimidazolium tetrafluoroborate; phases: Liquid, Gas
Fixed: Mole fraction of propan-2-ol = 0
Property: Activity coefficient of propan-2-ol (Liquid); method: Chromatography
Temperature, K	Activity coefficient of propan-2-ol	uncertainty
303.15	2.617	0.226
313.15	2.529	0.218
323.15	2.45	0.211
333.15	2.335	0.201
343.15	2.212	0.191
353.15	2.045	0.176
363.15	1.856	0.159

System: 2-methyl-1-propanol + 1,2-dimethyl-3-propylimidazolium tetrafluoroborate; phases: Liquid, Gas
Fixed: Mole fraction of 2-methyl-1-propanol = 0
Property: Activity coefficient of 2-methyl-1-propanol (Liquid); method: Chromatography
Temperature, K	Activity coefficient of 2-methyl-1-propanol	uncertainty
303.15	4.17	0.36
313.15	3.866	0.333
323.15	3.473	0.299
333.15	3.067	0.264
343.15	2.623	0.226
353.15	2.382	0.205
363.15	2.032	0.175

System: butan-2-ol + 1,2-dimethyl-3-propylimidazolium tetrafluoroborate; phases: Liquid, Gas
Fixed: Mole fraction of butan-2-ol = 0
Property: Activity coefficient of butan-2-ol (Liquid); method: Chromatography
Temperature, K	Activity coefficient of butan-2-ol	uncertainty
303.15	4.281	0.369
313.15	3.988	0.344
323.15	3.67	0.316
333.15	3.302	0.285
343.15	2.868	0.247
353.15	2.503	0.216
363.15	2.129	0.183

System: 3-methylbutan-1-ol + 1,2-dimethyl-3-propylimidazolium tetrafluoroborate; phases: Liquid, Gas
Fixed: Mole fraction of 3-methylbutan-1-ol = 0
Property: Activity coefficient of 3-methylbutan-1-ol (Liquid); method: Chromatography
Temperature, K	Activity coefficient of 3-methylbutan-1-ol	uncertainty
313.15	4.908	0.423
323.15	4.463	0.385
333.15	4.176	0.36
343.15	3.777	0.326
353.15	3.415	0.294
363.15	3.021	0.26

System: acetonitrile + 1,2-dimethyl-3-propylimidazolium tetrafluoroborate; phases: Liquid, Gas
Fixed: Mole fraction of acetonitrile = 0
Property: Activity coefficient of acetonitrile (Liquid); method: Chromatography
Temperature, K	Activity coefficient of acetonitrile	uncertainty
303.15	1.401	0.118
313.15	1.386	0.116
323.15	1.376	0.115
333.15	1.367	0.115
343.15	1.361	0.114
353.15	1.35	0.113
363.15	1.344	0.113

System: acetone + 1,2-dimethyl-3-propylimidazolium tetrafluoroborate; phases: Liquid, Gas
Fixed: Mole fraction of acetone = 0
Property: Activity coefficient of acetone (Liquid); method: Chromatography
Temperature, K	Activity coefficient of acetone	uncertainty
303.15	2.472	0.213
313.15	2.528	0.218
323.15	2.551	0.22
333.15	2.612	0.225
343.15	2.663	0.23
353.15	2.711	0.234
363.15	2.736	0.236

System: 1,4-dioxane + 1,2-dimethyl-3-propylimidazolium tetrafluoroborate; phases: Liquid, Gas
Fixed: Mole fraction of 1,4-dioxane = 0
Property: Activity coefficient of 1,4-dioxane (Liquid); method: Chromatography
Temperature, K	Activity coefficient of 1,4-dioxane	uncertainty
303.15	2.963	0.255
313.15	3.077	0.265
323.15	3.137	0.27
333.15	3.168	0.273
343.15	3.241	0.279
353.15	3.285	0.283
363.15	3.352	0.289

System: tetrahydrofuran + 1,2-dimethyl-3-propylimidazolium tetrafluoroborate; phases: Liquid, Gas
Fixed: Mole fraction of tetrahydrofuran = 0
Property: Activity coefficient of tetrahydrofuran (Liquid); method: Chromatography
Temperature, K	Activity coefficient of tetrahydrofuran	uncertainty
303.15	6.03	0.52
313.15	5.983	0.516
323.15	5.947	0.513
333.15	5.917	0.511
343.15	5.881	0.507
353.15	5.824	0.503
363.15	5.775	0.498

System: ethyl acetate + 1,2-dimethyl-3-propylimidazolium tetrafluoroborate; phases: Liquid, Gas
Fixed: Mole fraction of ethyl acetate = 0
Property: Activity coefficient of ethyl acetate (Liquid); method: Chromatography
Temperature, K	Activity coefficient of ethyl acetate	uncertainty
303.15	8.863	0.765
313.15	8.838	0.763
323.15	8.786	0.758
333.15	8.75	0.755
343.15	8.708	0.752
353.15	8.659	0.748
363.15	8.627	0.745

System: dichloromethane + 1,2-dimethyl-3-propylimidazolium tetrafluoroborate; phases: Liquid, Gas
Fixed: Mole fraction of dichloromethane = 0
Property: Activity coefficient of dichloromethane (Liquid); method: Chromatography
Temperature, K	Activity coefficient of dichloromethane	uncertainty
303.15	1.668	0.142
313.15	1.743	0.149
323.15	1.84	0.158
333.15	1.927	0.166
343.15	2.01	0.173
353.15	2.087	0.18
363.15	2.174	0.187

System: trichloromethane + 1,2-dimethyl-3-propylimidazolium tetrafluoroborate; phases: Liquid, Gas
Fixed: Mole fraction of trichloromethane = 0
Property: Activity coefficient of trichloromethane (Liquid); method: Chromatography
Temperature, K	Activity coefficient of trichloromethane	uncertainty
303.15	1.141	0.094
313.15	1.293	0.108
323.15	1.398	0.117
333.15	1.525	0.129
343.15	1.646	0.14
353.15	1.776	0.152
363.15	1.909	0.164

System: tetrachloromethane + 1,2-dimethyl-3-propylimidazolium tetrafluoroborate; phases: Liquid, Gas
Fixed: Mole fraction of tetrachloromethane = 0
Property: Activity coefficient of tetrachloromethane (Liquid); method: Chromatography
Temperature, K	Activity coefficient of tetrachloromethane	uncertainty
303.15	8.108	0.7
313.15	8.63	0.745
323.15	9.131	0.788
333.15	9.581	0.827
343.15	9.997	0.863
353.15	10.37	0.895
363.15	10.669	0.921
