Measured thermophysical data. PVTx Property Measurements for Difluoromethane + Pentafluoroethane (R32 + R125) in the Gaseous Phase
Source: J. Chem. Eng. Data, 2007, 10.1021/je7002379
Compound 1: difluoromethane, CH2F2, InChI=1S/CH2F2/c2-1-3/h1H2
Compound 2: pentafluoroethane, C2HF5, InChI=1S/C2HF5/c3-1(4)2(5,6)7/h1H

System: difluoromethane + pentafluoroethane; phases: Gas
Property: Mass density, kg/m3 (Gas); method: Buoyancy - hydrostatic balance with magnetic suspension - two sinkers
Mole fraction of difluoromethane	Temperature, K	Pressure, kPa	Mass density, kg/m3	uncertainty
0.25	283.15	606.3	29.862	0.046
0.25	283.15	702.9	35.45	0.047
0.25	283.15	750.2	38.291	0.05
0.25	283.15	804.5	41.673	0.052
0.25	283.15	838.7	43.867	0.053
0.25	283.15	870.9	45.974	0.054
0.25	283.15	901.2	47.992	0.056
0.25	283.15	930.6	50.003	0.057
0.25	283.15	949.9	51.343	0.058
0.25	283.15	970.5	52.8	0.059
0.25	293.15	634.8	29.858	0.043
0.25	293.15	634.9	29.855	0.043
0.25	293.15	701.4	33.435	0.045
0.25	293.15	701.5	33.431	0.045
0.25	293.15	804.4	39.2	0.047
0.25	293.15	804.5	39.201	0.047
0.25	293.15	831.2	40.79	0.049
0.25	293.15	903.5	45.066	0.051
0.25	293.15	904.9	45.11	0.051
0.25	293.15	1003.2	51.231	0.054
0.25	293.15	1003.3	51.241	0.054
0.25	293.15	1004.6	51.36	0.054
0.25	293.15	1053.4	54.572	0.057
0.25	293.15	1053.5	54.558	0.057
0.25	293.15	1103.1	57.913	0.058
0.25	293.15	1141.6	60.559	0.06
0.25	293.15	1172.3	62.77	0.062
0.25	293.15	1201.8	64.917	0.062
0.25	293.15	1232.5	67.17	0.064
0.25	293.15	1232.6	67.209	0.064
0.25	293.15	1249.9	68.527	0.065
0.25	293.15	1250	68.498	0.065
0.25	293.15	1272.6	70.284	0.066
0.25	293.15	1290.5	71.688	0.066
0.25	303.15	870.4	40.758	0.047
0.25	303.15	903.6	42.563	0.048
0.25	303.15	1002.2	48.138	0.05
0.25	303.15	1100.4	53.948	0.058
0.25	303.15	1114.4	54.815	0.058
0.25	303.15	1200.8	60.203	0.056
0.25	303.15	1201.7	60.266	0.057
0.25	303.15	1301.7	66.863	0.042
0.25	303.15	1304	67.023	0.028
0.25	303.15	1304.3	67.056	0.027
0.25	303.15	1404	74.046	0.064
0.25	303.15	1451.6	77.585	0.069
0.25	303.15	1500	81.288	0.071
0.25	303.15	1552.8	85.505	0.075
0.25	303.15	1601.4	89.547	0.077
0.25	303.15	1632.4	92.233	0.08
0.25	303.15	1650.2	93.81	0.082
0.25	303.15	1670.8	95.666	0.083
0.25	303.15	1681.7	96.655	0.084
0.25	303.15	1681.8	96.676	0.085
0.25	313.15	1168.3	54.696	0.051
0.25	313.15	1168.5	54.697	0.051
0.25	313.15	1202.6	56.659	0.052
0.25	313.15	1302	62.509	0.054
0.25	313.15	1403.5	68.758	0.057
0.25	313.15	1487.1	74.174	0.062
0.25	313.15	1502.3	75.185	0.062
0.25	313.15	1502.7	75.213	0.062
0.25	313.15	1502.8	75.229	0.062
0.25	313.15	1602.6	82.026	0.066
0.25	313.15	1604	82.138	0.066
0.25	313.15	1699.7	89.082	0.069
0.25	313.15	1705.5	89.5	0.069
0.25	313.15	1705.6	89.521	0.071
0.25	313.15	1799.6	96.813	0.077
0.25	313.15	1901	105.295	0.083
0.25	313.15	1952	109.85	0.089
0.25	313.15	1952.1	109.872	0.089
0.25	313.15	2001.5	114.475	0.092
0.25	313.15	2053.7	119.615	0.098
0.25	313.15	2053.8	119.633	0.098
0.25	313.15	2101.9	124.62	0.102
0.25	313.15	2125.2	127.154	0.105
0.25	313.15	2125.4	127.18	0.105
0.25	283.15	606.3	29.87	0.046
0.25	283.15	702.9	35.438	0.047
0.25	283.15	750.2	38.307	0.05
0.25	283.15	804.5	41.662	0.052
0.25	283.15	838.7	43.855	0.053
0.25	283.15	870.9	45.961	0.054
0.25	283.15	901.2	48.005	0.056
0.25	283.15	930.6	50.014	0.057
0.25	283.15	949.9	51.36	0.058
0.25	283.15	970.5	52.815	0.06
0.25	293.15	831.2	40.779	0.049
0.25	293.15	903.5	45.083	0.051
0.25	293.15	904.9	45.111	0.051
0.25	293.15	1004.6	51.385	0.054
0.25	293.15	1103.1	57.897	0.058
0.25	293.15	1141.6	60.587	0.06
0.25	293.15	1172.3	62.748	0.061
0.25	293.15	1201.8	64.899	0.062
0.25	293.15	1272.6	70.249	0.066
0.25	293.15	1290.5	71.653	0.065
0.25	303.15	870.4	40.738	0.047
0.25	303.15	903.6	42.583	0.048
0.25	303.15	1002.2	48.159	0.05
0.25	303.15	1100.4	53.972	0.058
0.25	303.15	1114.4	54.805	0.058
0.25	303.15	1200.8	60.228	0.056
0.25	303.15	1201.7	60.278	0.057
0.25	303.15	1301.7	66.878	0.041
0.25	303.15	1404	74.064	0.064
0.25	303.15	1451.6	77.567	0.069
0.25	303.15	1500	81.277	0.071
0.25	303.15	1552.8	85.496	0.075
0.25	303.15	1601.4	89.557	0.077
0.25	303.15	1632.4	92.224	0.08
0.25	303.15	1650.2	93.797	0.082
0.25	303.15	1670.8	95.652	0.083
0.25	313.15	1168.3	54.685	0.051
0.25	313.15	1168.5	54.681	0.052
0.25	313.15	1202.6	56.644	0.052
0.25	313.15	1302	62.498	0.054
0.25	313.15	1403.5	68.778	0.057
0.25	313.15	1487.1	74.155	0.062
0.25	313.15	1502.3	75.166	0.061
0.25	313.15	1602.6	82.056	0.066
0.25	313.15	1604	82.117	0.066
0.25	313.15	1699.7	89.102	0.067
0.25	313.15	1799.6	96.837	0.077
0.25	313.15	1901	105.323	0.083
0.25	313.15	2001.5	114.493	0.092
0.25	313.15	2101.9	124.636	0.102
0.5	283.15	626.8	25.748	0.043
0.5	283.15	700.5	29.258	0.044
0.5	283.15	751.4	31.767	0.046
0.5	283.15	802.7	34.375	0.048
0.5	283.15	851	36.905	0.049
0.5	283.15	921.3	40.71	0.054
0.5	283.15	950.2	42.325	0.055
0.5	283.15	972.1	43.563	0.057
0.5	283.15	1000.5	45.223	0.059
0.5	283.15	1018.5	46.273	0.062
0.5	283.15	1030.1	46.96	0.063
0.5	293.15	647	25.341	0.038
0.5	293.15	647.5	25.378	0.038
0.5	293.15	698.5	27.627	0.041
0.5	293.15	804	32.457	0.044
0.5	293.15	901.3	37.121	0.048
0.5	293.15	1005.6	42.366	0.053
0.5	293.15	1005.8	42.366	0.053
0.5	293.15	1006.2	42.433	0.053
0.5	293.15	1006.7	42.442	0.053
0.5	293.15	1054.1	44.947	0.053
0.5	293.15	1073.3	45.942	0.053
0.5	303.15	1196.3	49.26	0.059
0.5	303.15	1207	49.815	0.059
0.5	303.15	1400.4	60.269	0.067
0.5	303.15	1400.5	60.28	0.067
0.5	303.15	1498.4	66.037	0.074
0.5	303.15	1601.9	72.527	0.08
0.5	303.15	1659.5	76.354	0.084
0.5	303.15	1700.2	79.161	0.087
0.5	303.15	1720.8	80.609	0.083
0.5	303.15	1751.6	82.822	0.089
0.5	303.15	1771.9	84.32	0.089
0.5	303.15	1772	84.338	0.089
0.5	303.15	1791.5	85.787	0.095
0.5	303.15	1791.6	85.795	0.095
0.5	313.15	1298.9	51.317	0.047
0.5	313.15	1305.3	51.651	0.047
0.5	313.15	1504.9	61.721	0.066
0.5	313.15	1609.5	67.369	0.065
0.5	313.15	1611.4	67.482	0.065
0.5	313.15	1703.1	72.745	0.074
0.5	313.15	1797.9	78.443	0.165
0.5	313.15	1800.4	78.547	0.165
0.5	313.15	1897.8	84.807	0.091
0.5	313.15	1996.7	91.461	0.099
0.5	313.15	2101.4	99.132	0.109
0.5	313.15	2149.6	102.888	0.107
0.5	313.15	2200.4	107.036	0.114
0.5	313.15	2242.3	110.627	0.118
0.5	313.15	2268.4	112.939	0.118
0.5	313.15	2286	114.527	0.126
0.5	303.15	1196.3	49.254	0.059
0.5	303.15	1207	49.81	0.059
0.5	303.15	1498.4	66.04	0.074
0.5	303.15	1601.9	72.522	0.08
0.5	303.15	1659.5	76.358	0.084
0.5	303.15	1700.2	79.156	0.087
0.5	303.15	1720.8	80.615	0.083
0.5	303.15	1751.6	82.829	0.089
0.75	283.15	649.3	21.366	0.041
0.75	283.15	699.3	23.254	0.044
0.75	283.15	797.6	27.102	0.05
0.75	283.15	905.7	31.57	0.057
0.75	283.15	939.1	33.005	0.059
0.75	283.15	970.3	34.371	0.061
0.75	283.15	1000.6	35.722	0.063
0.75	283.15	1021.6	36.673	0.064
0.75	283.15	1042.9	37.655	0.065
0.75	283.15	1062.9	38.588	0.066
0.75	283.15	1072.8	39.055	0.066
0.75	293.15	540.4	16.581	0.038
0.75	293.15	600.5	18.61	0.038
0.75	293.15	704.3	22.217	0.041
0.75	293.15	704.4	22.224	0.041
0.75	293.15	802.1	25.757	0.046
0.75	293.15	903.1	29.568	0.048
0.75	293.15	903.2	29.572	0.048
0.75	293.15	918	30.119	0.048
0.75	293.15	1006.3	33.623	0.056
0.75	293.15	1102	37.556	0.062
0.75	293.15	1202.8	41.945	0.064
0.75	293.15	1202.9	41.966	0.064
0.75	293.15	1250.1	44.089	0.066
0.75	293.15	1299.5	46.395	0.068
0.75	293.15	1299.6	46.415	0.068
0.75	293.15	1340	48.354	0.07
0.75	293.15	1340.1	48.345	0.07
0.75	293.15	1372.8	49.97	0.072
0.75	293.15	1372.9	49.952	0.072
0.75	293.15	1403	51.469	0.074
0.75	293.15	1403.2	51.489	0.074
0.75	293.15	1420.7	52.388	0.074
0.75	293.15	1420.8	52.379	0.074
0.75	293.15	1439.1	53.318	0.075
0.75	293.15	1439.2	53.341	0.077
0.75	303.15	563	16.583	0.038
0.75	303.15	563.4	16.591	0.038
0.75	303.15	703.1	21.133	0.065
0.75	303.15	703.2	21.144	0.068
0.75	303.15	708.3	21.306	0.069
0.75	303.15	708.4	21.318	0.065
0.75	303.15	804.3	24.543	0.066
0.75	303.15	905	28.081	0.063
0.75	303.15	905.1	28.074	0.063
0.75	303.15	1233.2	40.533	0.063
0.75	303.15	1402.3	47.66	0.077
0.75	303.15	1503.7	52.229	0.085
0.75	303.15	1503.8	52.23	0.085
0.75	303.15	1599.3	56.771	0.094
0.75	303.15	1599.4	56.779	0.094
0.75	303.15	1651.2	59.343	0.099
0.75	303.15	1698.1	61.748	0.103
0.75	303.15	1752.8	64.645	0.109
0.75	303.15	1752.9	64.644	0.109
0.75	303.15	1801.4	67.297	0.113
0.75	303.15	1801.5	67.303	0.113
0.75	303.15	1828.5	68.824	0.114
0.75	303.15	1861.9	70.753	0.115
0.75	303.15	1880.3	71.83	0.115
0.75	303.15	1880.5	71.856	0.116
0.75	313.15	1288.7	40.307	0.066
0.75	313.15	1291	40.393	0.066
0.75	313.15	1403.1	44.709	0.067
0.75	313.15	1600.1	52.749	0.085
0.75	313.15	1600.2	52.749	0.085
0.75	313.15	1615.7	53.397	0.085
0.75	313.15	1806.4	61.941	0.099
0.75	313.15	1905.6	66.714	0.109
0.75	313.15	2000.8	71.523	0.118
0.75	313.15	2001.1	71.553	0.118
0.75	313.15	2002.6	71.615	0.118
0.75	313.15	2101	76.942	0.129
0.75	313.15	2202.3	82.765	0.141
0.75	313.15	2250.2	85.676	0.148
0.75	313.15	2250.3	85.642	0.148
0.75	313.15	2299.9	88.807	0.155
0.75	313.15	2343.1	91.651	0.156
0.75	313.15	2343.2	91.605	0.156
0.75	313.15	2368	93.329	0.157
0.75	313.15	2368.3	93.3	0.157
0.75	313.15	2378.1	93.982	0.158
0.75	283.15	649.3	21.371	0.041
0.75	283.15	699.3	23.259	0.044
0.75	283.15	797.6	27.111	0.05
0.75	283.15	905.7	31.574	0.057
0.75	283.15	939.1	33.005	0.059
0.75	283.15	970.3	34.372	0.061
0.75	283.15	1000.6	35.723	0.063
0.75	283.15	1021.6	36.68	0.064
0.75	283.15	1042.9	37.656	0.065
0.75	283.15	1062.9	38.588	0.066
0.75	283.15	1072.8	39.054	0.066
0.75	293.15	540.4	16.573	0.038
0.75	293.15	600.5	18.603	0.038
0.75	293.15	802.1	25.763	0.046
0.75	293.15	918	30.13	0.048
0.75	293.15	1006.3	33.606	0.056
0.75	293.15	1102	37.576	0.062
0.75	293.15	1250.1	44.105	0.066
0.75	303.15	563	16.591	0.038
0.75	303.15	563.4	16.6	0.038
0.75	303.15	804.3	24.562	0.066
0.75	303.15	1233.2	40.537	0.063
0.75	303.15	1402.3	47.663	0.077
0.75	303.15	1651.2	59.351	0.099
0.75	303.15	1698.1	61.754	0.103
0.75	303.15	1828.5	68.827	0.114
0.75	303.15	1861.9	70.751	0.115
0.75	313.15	1288.7	40.296	0.067
0.75	313.15	1291	40.396	0.066
0.75	313.15	1403.1	44.699	0.067
0.75	313.15	1615.7	53.422	0.086
0.75	313.15	1806.4	61.944	0.099
0.75	313.15	1905.6	66.711	0.109
0.75	313.15	2002.6	71.655	0.118
0.75	313.15	2101	76.909	0.129
0.75	313.15	2202.3	82.73	0.141
0.75	313.15	2299.9	88.77	0.155
0.75	313.15	2378.1	94.031	0.162
