Measured thermophysical data. Densities and Isothermal Compressibilities at Pressures up to 20 MPa of the Systems 1-Methyl-2-pyrrolidone + 1-Chloroalkane or + r,u-Dichloroalkane
Source: J. Chem. Eng. Data, 2008, 10.1021/je7003758
Compound 1: N-methylpyrrolidone, C5H9NO, InChI=1S/C5H9NO/c1-6-4-2-3-5(6)7/h2-4H2,1H3, purity 99.5%
Compound 2: 1-chlorobutane, C4H9Cl, InChI=1S/C4H9Cl/c1-2-3-4-5/h2-4H2,1H3, purity 99.8%
Compound 3: 1-chlorohexane, C6H13Cl, InChI=1S/C6H13Cl/c1-2-3-4-5-6-7/h2-6H2,1H3, purity 99%
Compound 4: 1-chlorooctane, C8H17Cl, InChI=1S/C8H17Cl/c1-2-3-4-5-6-7-8-9/h2-8H2,1H3, purity 98%
Compound 5: 1,2-dichloroethane, C2H4Cl2, InChI=1S/C2H4Cl2/c3-1-2-4/h1-2H2, purity 99.5%
Compound 6: 1,4-dichlorobutane, C4H8Cl2, InChI=1S/C4H8Cl2/c5-3-1-2-4-6/h1-4H2, purity 97%
Compound 7: 1,6-dichlorohexane, C6H12Cl2, InChI=1S/C6H12Cl2/c7-5-3-1-2-4-6-8/h1-6H2, purity 98%

System: N-methylpyrrolidone; phases: Liquid
Property: Mass density, kg/m3 (Liquid); method: VIBTUB:UFactor:4
Temperature, K	Pressure, kPa	Mass density, kg/m3	uncertainty
288.15	100	1036.8	0.3
288.15	500	1036.9	0.3
288.15	1000	1037.2	0.3
288.15	1500	1037.4	0.3
288.15	2000	1037.7	0.3
288.15	2500	1037.9	0.3
288.15	3000	1038.2	0.3
288.15	3500	1038.4	0.3
288.15	4000	1038.7	0.3
288.15	4500	1038.9	0.3
288.15	5000	1039.2	0.3
288.15	5500	1039.4	0.3
288.15	6000	1039.6	0.3
288.15	6500	1039.9	0.3
288.15	7000	1040.2	0.3
288.15	7500	1040.4	0.3
288.15	8000	1040.7	0.3
288.15	8500	1041	0.3
288.15	9000	1041.2	0.3
288.15	9500	1041.4	0.3
288.15	10000	1041.7	0.3
288.15	10500	1042	0.4
288.15	11000	1042.2	0.4
288.15	11500	1042.5	0.4
288.15	12100	1042.7	0.4
288.15	12500	1042.9	0.4
288.15	13000	1043.1	0.4
288.15	13500	1043.4	0.4
288.15	14000	1043.6	0.4
288.15	14500	1043.8	0.4
288.15	15000	1044.1	0.4
288.15	15500	1044.3	0.4
288.15	16000	1044.5	0.4
288.15	16500	1044.8	0.4
288.15	17000	1045	0.4
288.15	17500	1045.2	0.4
288.15	18000	1045.4	0.4
288.15	18600	1045.7	0.4
288.15	19000	1046	0.4
288.15	19500	1046.2	0.4
288.15	20000	1046.4	0.4
298.15	100	1028	0.3
298.15	500	1028.1	0.3
298.15	1000	1028.4	0.3
298.15	1500	1028.7	0.3
298.15	2000	1028.9	0.3
298.15	2500	1029.2	0.3
298.15	3000	1029.4	0.3
298.15	3500	1029.7	0.3
298.15	4000	1030	0.3
298.15	4500	1030.2	0.3
298.15	5000	1030.5	0.3
298.15	5500	1030.7	0.3
298.15	5900	1031	0.3
298.15	6500	1031.3	0.3
298.15	6900	1031.5	0.3
298.15	7500	1031.8	0.3
298.15	8000	1032	0.3
298.15	8500	1032.3	0.3
298.15	9000	1032.5	0.3
298.15	9600	1032.9	0.3
298.15	10000	1033.1	0.3
298.15	10500	1033.3	0.3
298.15	11000	1033.6	0.3
298.15	11500	1033.8	0.3
298.15	12000	1034.1	0.3
298.15	12500	1034.3	0.3
298.15	13000	1034.6	0.3
298.15	13500	1034.8	0.3
298.15	14000	1035.1	0.3
298.15	14400	1035.3	0.4
298.15	14900	1035.5	0.4
298.15	15500	1035.8	0.4
298.15	16000	1036	0.4
298.15	16500	1036.3	0.4
298.15	17000	1036.5	0.4
298.15	17500	1036.7	0.4
298.15	17900	1037	0.4
298.15	18500	1037.2	0.4
298.15	19000	1037.4	0.4
298.15	19500	1037.7	0.4
298.15	20000	1037.9	0.4
308.15	100	1019.3	0.3
308.15	500	1019.5	0.3
308.15	1000	1019.8	0.3
308.15	1500	1020	0.3
308.15	2000	1020.3	0.3
308.15	2500	1020.6	0.3
308.15	3000	1020.9	0.3
308.15	3500	1021.1	0.3
308.15	4000	1021.4	0.3
308.15	4500	1021.6	0.3
308.15	5000	1021.8	0.3
308.15	5500	1022.2	0.3
308.15	6000	1022.4	0.3
308.15	6400	1022.6	0.3
308.15	7100	1023	0.3
308.15	7500	1023.1	0.3
308.15	8100	1023.5	0.3
308.15	8500	1023.7	0.3
308.15	9000	1024	0.3
308.15	9500	1024.3	0.3
308.15	10000	1024.6	0.3
308.15	10400	1024.8	0.3
308.15	11100	1025.1	0.3
308.15	11500	1025.3	0.3
308.15	12000	1025.5	0.3
308.15	12500	1025.8	0.3
308.15	13000	1026	0.3
308.15	13500	1026.3	0.3
308.15	14000	1026.5	0.3
308.15	14500	1026.8	0.3
308.15	15000	1027	0.3
308.15	15500	1027.3	0.3
308.15	16000	1027.5	0.3
308.15	16500	1027.7	0.3
308.15	17000	1028	0.3
308.15	17500	1028.3	0.3
308.15	18000	1028.5	0.3
308.15	18500	1028.7	0.3
308.15	19000	1029	0.3
308.15	19500	1029.2	0.4
308.15	20000	1029.4	0.4
318.15	100	1011	0.3
318.15	500	1011.1	0.3
318.15	1000	1011.4	0.3
318.15	1500	1011.7	0.3
318.15	2000	1012.1	0.3
318.15	2500	1012.4	0.3
318.15	3000	1012.7	0.3
318.15	3500	1012.9	0.3
318.15	4000	1013.2	0.3
318.15	4500	1013.5	0.3
318.15	5000	1013.8	0.3
318.15	5500	1014	0.3
318.15	6000	1014.4	0.3
318.15	6500	1014.6	0.3
318.15	7000	1014.9	0.3
318.15	7500	1015.2	0.3
318.15	8000	1015.5	0.3
318.15	8500	1015.8	0.3
318.15	9000	1016	0.3
318.15	9500	1016.3	0.3
318.15	10000	1016.6	0.3
318.15	10500	1016.9	0.3
318.15	11000	1017.3	0.3
318.15	11400	1017.6	0.3
318.15	12000	1017.8	0.3
318.15	12500	1018	0.3
318.15	12900	1018.3	0.3
318.15	13500	1018.5	0.3
318.15	14000	1018.8	0.3
318.15	14500	1019.1	0.3
318.15	15000	1019.4	0.3
318.15	15500	1019.7	0.3
318.15	16000	1019.9	0.3
318.15	16500	1020.2	0.3
318.15	17000	1020.4	0.3
318.15	17500	1020.7	0.3
318.15	18000	1021	0.3
318.15	18500	1021.3	0.3
318.15	19000	1021.5	0.3
318.15	19600	1021.9	0.3
318.15	20000	1022	0.3

System: 1-chlorobutane; phases: Liquid
Property: Mass density, kg/m3 (Liquid); method: VIBTUB:UFactor:2
Temperature, K	Pressure, kPa	Mass density, kg/m3	uncertainty
298.15	100	880.6	0.3

System: 1-chlorohexane; phases: Liquid
Property: Mass density, kg/m3 (Liquid); method: VIBTUB:UFactor:6
Temperature, K	Pressure, kPa	Mass density, kg/m3	uncertainty
298.15	100	873.1	0.6

System: 1-chlorooctane; phases: Liquid
Property: Mass density, kg/m3 (Liquid); method: VIBTUB:UFactor:8
Temperature, K	Pressure, kPa	Mass density, kg/m3	uncertainty
298.15	100	868.8	1.3

System: 1,2-dichloroethane; phases: Liquid
Fixed: Temperature, K = 298.15
Property: Mass density, kg/m3 (Liquid); method: VIBTUB:UFactor:4
Pressure, kPa	Mass density, kg/m3	uncertainty
100	1245.5	0.6
10000	1255.1	1

System: 1,4-dichlorobutane; phases: Liquid
Property: Mass density, kg/m3 (Liquid); method: VIBTUB:UFactor:12
Temperature, K	Pressure, kPa	Mass density, kg/m3	uncertainty
298.15	100	1133.7	3.4

System: 1,6-dichlorohexane; phases: Liquid
Property: Mass density, kg/m3 (Liquid); method: VIBTUB:UFactor:8
Temperature, K	Pressure, kPa	Mass density, kg/m3	uncertainty
298.15	100	1063.8	1.4

System: 1-chlorobutane + N-methylpyrrolidone; phases: Liquid
Fixed: Temperature, K = 298.15
Property: Mass density, kg/m3 (Liquid); method: VIBTUB:UFactor:2
Mole fraction of N-methylpyrrolidone	Pressure, kPa	Mass density, kg/m3	uncertainty
0.1004	100	896.6	0.3
0.1004	500	896.9	0.3
0.1004	1000	897.4	0.3
0.1004	1500	897.9	0.3
0.1004	2000	898.4	0.3
0.1004	2500	898.9	0.3
0.1004	3000	899.3	0.3
0.1004	3500	899.8	0.3
0.1004	4000	900.3	0.3
0.1004	4400	900.7	0.3
0.1004	4900	901.2	0.3
0.1004	5400	901.7	0.3
0.1004	6000	902.1	0.3
0.1004	6500	902.6	0.3
0.1004	6900	903	0.3
0.1004	7500	903.5	0.3
0.1004	7900	903.9	0.3
0.1004	8500	904.4	0.3
0.1004	9000	904.9	0.3
0.1004	9500	905.3	0.3
0.1004	10000	905.8	0.3
0.1004	10600	906.4	0.3
0.1004	10900	906.7	0.3
0.1004	11500	907.2	0.3
0.1004	12000	907.6	0.3
0.1004	12500	908.1	0.3
0.1004	13000	908.5	0.3
0.1004	13500	908.9	0.3
0.1004	14100	909.5	0.3
0.1004	14500	909.8	0.3
0.1004	15000	910.2	0.3
0.1004	15500	910.7	0.3
0.1004	16000	911.1	0.3
0.1004	16500	911.5	0.3
0.1004	17000	911.9	0.3
0.1004	17500	912.3	0.3
0.1004	18000	912.7	0.3
0.1004	18500	913.1	0.3
0.1004	19000	913.6	0.3
0.1004	19400	913.9	0.3
0.1004	20000	914.5	0.3
0.2002	100	912	0.2
0.2002	600	912.3	0.3
0.2002	1000	912.7	0.3
0.2002	1500	913.2	0.3
0.2002	2000	913.6	0.3
0.2002	2500	914.1	0.3
0.2002	3000	914.6	0.3
0.2002	3500	915	0.3
0.2002	4000	915.4	0.3
0.2002	4500	915.9	0.3
0.2002	5000	916.3	0.3
0.2002	5500	916.8	0.3
0.2002	5900	917.1	0.3
0.2002	6500	917.6	0.3
0.2002	7000	918.1	0.3
0.2002	7500	918.5	0.3
0.2002	8000	918.9	0.3
0.2002	8400	919.3	0.3
0.2002	8900	919.7	0.3
0.2002	9500	920.2	0.3
0.2002	10000	920.7	0.3
0.2002	10500	921.1	0.3
0.2002	11000	921.5	0.3
0.2002	11400	921.9	0.3
0.2002	12000	922.4	0.3
0.2002	12500	922.8	0.3
0.2002	13000	923.2	0.3
0.2002	13500	923.6	0.3
0.2002	14100	924.1	0.3
0.2002	14500	924.4	0.3
0.2002	15000	924.7	0.3
0.2002	15500	925.2	0.3
0.2002	16000	925.6	0.3
0.2002	16400	926	0.3
0.2002	17000	926.3	0.3
0.2002	17500	926.7	0.3
0.2002	18000	927.1	0.3
0.2002	18500	927.6	0.3
0.2002	19000	928	0.3
0.2002	19500	928.3	0.3
0.2002	20000	928.7	0.3
0.2974	100	926.8	0.2
0.2974	500	927.1	0.2
0.2974	1000	927.5	0.2
0.2974	1500	927.9	0.2
0.2974	2000	928.4	0.2
0.2974	2400	928.7	0.3
0.2974	3000	929.2	0.3
0.2974	3500	929.6	0.3
0.2974	4000	930	0.3
0.2974	4500	930.4	0.3
0.2974	5000	930.8	0.3
0.2974	5500	931.2	0.3
0.2974	6000	931.7	0.3
0.2974	6500	932.1	0.3
0.2974	6900	932.5	0.3
0.2974	7500	932.8	0.3
0.2974	8000	933.3	0.3
0.2974	8500	933.6	0.3
0.2974	9000	933.9	0.3
0.2974	9400	934.3	0.3
0.2974	9900	934.8	0.3
0.2974	10500	935.3	0.3
0.2974	11000	935.6	0.3
0.2974	11500	936	0.3
0.2974	11900	936.3	0.3
0.2974	12500	936.8	0.3
0.2974	13000	937.1	0.3
0.2974	13500	937.6	0.3
0.2974	14000	937.8	0.3
0.2974	14500	938.2	0.3
0.2974	15000	938.6	0.3
0.2974	15500	939	0.3
0.2974	16000	939.4	0.3
0.2974	16400	939.7	0.3
0.2974	16900	940.1	0.3
0.2974	17400	940.5	0.3
0.2974	18000	940.8	0.3
0.2974	18600	941.4	0.3
0.2974	19000	941.7	0.3
0.2974	19500	942.1	0.3
0.2974	20000	942.6	0.3
0.4	100	942.2	0.2
0.4	500	942.5	0.2
0.4	1000	942.8	0.2
0.4	1500	943.2	0.2
0.4	2000	943.6	0.2
0.4	2500	944	0.2
0.4	3000	944.4	0.2
0.4	3500	944.8	0.2
0.4	4000	945.1	0.2
0.4	4500	945.6	0.2
0.4	5000	945.9	0.2
0.4	5500	946.3	0.3
0.4	6000	946.7	0.3
0.4	6500	947.1	0.3
0.4	7000	947.5	0.3
0.4	7600	948	0.3
0.4	8000	948.3	0.3
0.4	8500	948.6	0.3
0.4	9000	949	0.3
0.4	9500	949.3	0.3
0.4	10000	949.8	0.3
0.4	10400	950.1	0.3
0.4	10900	950.4	0.3
0.4	11500	950.8	0.3
0.4	12000	951.2	0.3
0.4	12400	951.6	0.3
0.4	13000	951.9	0.3
0.4	13500	952.3	0.3
0.4	13900	952.7	0.3
0.4	14400	953	0.3
0.4	15000	953.4	0.3
0.4	15500	953.8	0.3
0.4	16000	954.1	0.3
0.4	16500	954.4	0.3
0.4	17000	954.8	0.3
0.4	17500	955.2	0.3
0.4	18100	955.6	0.3
0.4	18500	955.8	0.3
0.4	19000	956.2	0.3
0.4	19500	956.6	0.3
0.4	20000	957	0.3
0.5052	100	957.5	0.2
0.5052	500	957.8	0.2
0.5052	1000	958.2	0.2
0.5052	1500	958.6	0.2
0.5052	2000	958.9	0.2
0.5052	2500	959.3	0.2
0.5052	3000	959.6	0.2
0.5052	3500	960	0.2
0.5052	4000	960.3	0.2
0.5052	4500	960.7	0.2
0.5052	5000	961.1	0.2
0.5052	5500	961.4	0.2
0.5052	6000	961.8	0.2
0.5052	6500	962.2	0.2
0.5052	7000	962.5	0.2
0.5052	7500	962.9	0.2
0.5052	8000	963.2	0.2
0.5052	8500	963.6	0.2
0.5052	9000	963.9	0.2
0.5052	9500	964.2	0.2
0.5052	10000	964.7	0.2
0.5052	10500	965	0.2
0.5052	11000	965.4	0.2
0.5052	11500	965.7	0.2
0.5052	12000	966	0.2
0.5052	12500	966.4	0.2
0.5052	13000	966.7	0.2
0.5052	13500	967	0.3
0.5052	14000	967.4	0.3
0.5052	14400	967.7	0.3
0.5052	15000	968	0.3
0.5052	15600	968.5	0.3
0.5052	16000	968.7	0.3
0.5052	16500	969.1	0.3
0.5052	17000	969.4	0.3
0.5052	17500	969.7	0.3
0.5052	18000	970.1	0.3
0.5052	18500	970.3	0.3
0.5052	19000	970.8	0.3
0.5052	19500	971	0.3
0.5052	20000	971.4	0.3
0.6019	100	971.7	0.2
0.6019	500	972	0.2
0.6019	1000	972.2	0.2
0.6019	1500	972.6	0.2
0.6019	2000	973	0.2
0.6019	2400	973.3	0.2
0.6019	3000	973.6	0.2
0.6019	3500	973.9	0.2
0.6019	3900	974.2	0.2
0.6019	4500	974.6	0.2
0.6019	5100	975	0.2
0.6019	5400	975.2	0.2
0.6019	6000	975.6	0.2
0.6019	6500	976	0.2
0.6019	7000	976.3	0.2
0.6019	7500	976.6	0.2
0.6019	8000	976.9	0.2
0.6019	8500	977.2	0.2
0.6019	8900	977.5	0.2
0.6019	9500	977.9	0.2
0.6019	10000	978.3	0.2
0.6019	10500	978.6	0.2
0.6019	11000	978.9	0.2
0.6019	11500	979.3	0.2
0.6019	12000	979.6	0.2
0.6019	12400	979.8	0.2
0.6019	13000	980.2	0.2
0.6019	13600	980.6	0.2
0.6019	14100	981	0.2
0.6019	14500	981.1	0.2
0.6019	15000	981.5	0.2
0.6019	15500	981.8	0.2
0.6019	16000	982.1	0.2
0.6019	16400	982.4	0.2
0.6019	17000	982.8	0.2
0.6019	17500	983	0.2
0.6019	18100	983.4	0.2
0.6019	18500	983.6	0.2
0.6019	19000	984	0.2
0.6019	19500	984.3	0.2
0.6019	20000	984.6	0.2
0.7039	100	986.2	0.2
0.7039	500	986.5	0.2
0.7039	1000	986.8	0.2
0.7039	1500	987.1	0.2
0.7039	2000	987.4	0.2
0.7039	2500	987.7	0.2
0.7039	3000	988	0.2
0.7039	3500	988.4	0.2
0.7039	4000	988.7	0.2
0.7039	4500	989	0.2
0.7039	5000	989.3	0.2
0.7039	5500	989.6	0.2
0.7039	6000	990	0.2
0.7039	6500	990.2	0.2
0.7039	7000	990.6	0.2
0.7039	7500	990.9	0.2
0.7039	7900	991.1	0.2
0.7039	8500	991.5	0.2
0.7039	8900	991.7	0.2
0.7039	9400	992	0.2
0.7039	10000	992.4	0.2
0.7039	10500	992.7	0.2
0.7039	11000	993	0.2
0.7039	11400	993.3	0.2
0.7039	12000	993.6	0.2
0.7039	12400	993.9	0.2
0.7039	13000	994.2	0.2
0.7039	13400	994.5	0.2
0.7039	14000	994.8	0.2
0.7039	14500	995.1	0.2
0.7039	15100	995.6	0.2
0.7039	15500	995.7	0.2
0.7039	16000	996	0.2
0.7039	16500	996.3	0.2
0.7039	17000	996.6	0.2
0.7039	17500	996.8	0.2
0.7039	18000	997.2	0.2
0.7039	18500	997.5	0.2
0.7039	19100	997.9	0.2
0.7039	19500	998	0.2
0.7039	20000	998.4	0.2
0.8011	100	1000.1	0.2
0.8011	500	1000.4	0.2
0.8011	1000	1000.6	0.2
0.8011	1500	1000.9	0.2
0.8011	2000	1001.2	0.2
0.8011	2500	1001.6	0.2
0.8011	3000	1001.8	0.2
0.8011	3500	1002.2	0.2
0.8011	4000	1002.4	0.2
0.8011	4500	1002.7	0.2
0.8011	5000	1003	0.2
0.8011	5500	1003.3	0.2
0.8011	6000	1003.6	0.2
0.8011	6500	1003.9	0.2
0.8011	7000	1004.2	0.2
0.8011	7500	1004.5	0.2
0.8011	8000	1004.8	0.2
0.8011	8500	1005.1	0.2
0.8011	9000	1005.4	0.2
0.8011	9500	1005.6	0.2
0.8011	10100	1006.1	0.2
0.8011	10500	1006.3	0.2
0.8011	11000	1006.6	0.2
0.8011	11500	1006.8	0.2
0.8011	12000	1007.1	0.2
0.8011	12500	1007.4	0.2
0.8011	12900	1007.6	0.2
0.8011	13500	1008	0.2
0.8011	14000	1008.2	0.2
0.8011	14500	1008.5	0.2
0.8011	15000	1008.8	0.2
0.8011	15500	1009.1	0.2
0.8011	16000	1009.3	0.2
0.8011	16500	1009.6	0.2
0.8011	17000	1009.9	0.2
0.8011	17400	1010.2	0.2
0.8011	18000	1010.5	0.2
0.8011	18600	1010.8	0.2
0.8011	19000	1011	0.2
0.8011	19500	1011.3	0.2
0.8011	20000	1011.6	0.2
0.9002	100	1014.3	0.2
0.9002	500	1014.5	0.2
0.9002	1000	1014.8	0.2
0.9002	1500	1015.1	0.2
0.9002	2000	1015.3	0.2
0.9002	2500	1015.6	0.2
0.9002	3000	1015.9	0.2
0.9002	3500	1016.2	0.2
0.9002	4000	1016.5	0.2
0.9002	4400	1016.7	0.2
0.9002	5000	1017	0.2
0.9002	5500	1017.3	0.2
0.9002	6000	1017.6	0.2
0.9002	6500	1017.8	0.2
0.9002	7000	1018.2	0.2
0.9002	7500	1018.4	0.2
0.9002	8000	1018.7	0.2
0.9002	8500	1019	0.2
0.9002	9000	1019.2	0.2
0.9002	9500	1019.5	0.2
0.9002	10000	1019.8	0.2
0.9002	10500	1020.1	0.2
0.9002	11000	1020.4	0.2
0.9002	11500	1020.6	0.2
0.9002	12000	1020.9	0.2
0.9002	12500	1021.1	0.2
0.9002	13000	1021.4	0.3
0.9002	13500	1021.7	0.3
0.9002	14000	1022	0.3
0.9002	14400	1022.2	0.3
0.9002	15000	1022.5	0.3
0.9002	15600	1022.8	0.3
0.9002	16000	1023	0.3
0.9002	16500	1023.2	0.3
0.9002	17000	1023.4	0.3
0.9002	17500	1023.8	0.3
0.9002	18000	1024	0.3
0.9002	18500	1024.2	0.3
0.9002	19000	1024.5	0.3
0.9002	19500	1024.8	0.3
0.9002	20000	1025.1	0.3

System: 1-chlorohexane + N-methylpyrrolidone; phases: Liquid
Fixed: Temperature, K = 298.15
Property: Mass density, kg/m3 (Liquid); method: VIBTUB:UFactor:6
Mole fraction of N-methylpyrrolidone	Pressure, kPa	Mass density, kg/m3	uncertainty
0.1003	100	884.9	0.6
0.1003	500	885.2	0.6
0.1003	1000	885.5	0.6
0.1003	1500	886	0.6
0.1003	2000	886.4	0.6
0.1003	2500	886.8	0.7
0.1003	3000	887.2	0.7
0.1003	3500	887.7	0.7
0.1003	4000	888	0.7
0.1003	4500	888.4	0.7
0.1003	4900	888.7	0.7
0.1003	5500	889.2	0.7
0.1003	5900	889.6	0.7
0.1003	6500	890.1	0.8
0.1003	7000	890.4	0.8
0.1003	7500	890.8	0.8
0.1003	8000	891.2	0.8
0.1003	8400	891.6	0.8
0.1003	8900	892	0.8
0.1003	9500	892.4	0.8
0.1003	10000	892.9	0.8
0.1003	10500	893.2	0.8
0.1003	11000	893.5	0.9
0.1003	11400	893.9	0.9
0.1003	12000	894.3	0.9
0.1003	12500	894.7	0.9
0.1003	13000	895.1	0.9
0.1003	13500	895.5	0.9
0.1003	14000	895.9	0.9
0.1003	14500	896.3	0.9
0.1003	15000	896.6	0.9
0.1003	15400	896.9	0.9
0.1003	16000	897.4	1
0.1003	16500	897.7	1
0.1003	17000	898	1
0.1003	17500	898.4	1
0.1003	18000	898.8	1
0.1003	18500	899.1	1
0.1003	19000	899.5	1
0.1003	19500	899.8	1
0.1003	20000	900.3	1
0.1988	100	897	0.6
0.1988	500	897.3	0.6
0.1988	1000	897.6	0.6
0.1988	1500	898.1	0.6
0.1988	2000	898.4	0.6
0.1988	2500	898.9	0.6
0.1988	3000	899.2	0.6
0.1988	3500	899.6	0.6
0.1988	4000	900	0.6
0.1988	4500	900.4	0.7
0.1988	5000	900.8	0.7
0.1988	5500	901.2	0.7
0.1988	6000	901.6	0.7
0.1988	6500	902	0.7
0.1988	7000	902.4	0.7
0.1988	7400	902.7	0.7
0.1988	8000	903.1	0.7
0.1988	8600	903.6	0.7
0.1988	9000	903.8	0.7
0.1988	9500	904.2	0.8
0.1988	10000	904.7	0.8
0.1988	10500	905.1	0.8
0.1988	11000	905.4	0.8
0.1988	11500	905.8	0.8
0.1988	12000	906.2	0.8
0.1988	12400	906.5	0.8
0.1988	13000	907.1	0.8
0.1988	13400	907.3	0.8
0.1988	14000	907.7	0.8
0.1988	14500	908	0.8
0.1988	15000	908.4	0.9
0.1988	15500	908.7	0.9
0.1988	16000	909	0.9
0.1988	16500	909.4	0.9
0.1988	16900	909.7	0.9
0.1988	17500	910.1	0.9
0.1988	18000	910.5	0.9
0.1988	18500	910.9	0.9
0.1988	19000	911.3	0.9
0.1988	19500	911.6	0.9
0.1988	20000	912	0.9
0.305	100	911	0.5
0.305	500	911.2	0.5
0.305	1000	911.6	0.5
0.305	1500	912	0.5
0.305	1900	912.3	0.6
0.305	2500	912.8	0.6
0.305	3000	913.2	0.6
0.305	3500	913.6	0.6
0.305	4100	914	0.6
0.305	4500	914.3	0.6
0.305	5000	914.6	0.6
0.305	5500	915	0.6
0.305	6000	915.4	0.6
0.305	6500	915.8	0.6
0.305	7000	916.2	0.6
0.305	7500	916.6	0.6
0.305	8000	917	0.7
0.305	8400	917.2	0.7
0.305	9000	917.7	0.7
0.305	9500	918.1	0.7
0.305	10000	918.6	0.7
0.305	10500	918.8	0.7
0.305	11000	919.2	0.7
0.305	11500	919.6	0.7
0.305	12000	919.9	0.7
0.305	12500	920.2	0.7
0.305	13000	920.6	0.7
0.305	13500	921	0.7
0.305	14000	921.3	0.7
0.305	14400	921.6	0.8
0.305	15000	922	0.8
0.305	15500	922.3	0.8
0.305	16000	922.7	0.8
0.305	16500	923	0.8
0.305	17000	923.4	0.8
0.305	17500	923.6	0.8
0.305	18000	924	0.8
0.305	18500	924.3	0.8
0.305	19000	924.7	0.8
0.305	19500	925	0.8
0.305	20000	925.4	0.8
0.4005	100	924.2	0.5
0.4005	500	924.5	0.5
0.4005	1000	924.9	0.5
0.4005	1500	925.3	0.5
0.4005	2000	925.6	0.5
0.4005	2500	926	0.5
0.4005	3000	926.4	0.5
0.4005	3500	926.8	0.5
0.4005	4000	927.1	0.5
0.4005	4600	927.5	0.5
0.4005	5000	927.8	0.6
0.4005	5500	928.2	0.6
0.4005	6000	928.6	0.6
0.4005	6500	928.9	0.6
0.4005	7000	929.2	0.6
0.4005	7500	929.6	0.6
0.4005	8000	929.9	0.6
0.4005	8500	930.3	0.6
0.4005	9000	930.7	0.6
0.4005	9400	930.9	0.6
0.4005	10000	931.4	0.6
0.4005	10500	931.7	0.6
0.4005	11000	932.1	0.6
0.4005	11500	932.4	0.6
0.4005	12000	932.8	0.6
0.4005	12500	933.1	0.6
0.4005	13000	933.4	0.7
0.4005	13500	933.8	0.7
0.4005	14000	934.1	0.7
0.4005	14400	934.4	0.7
0.4005	15000	934.8	0.7
0.4005	15500	935.1	0.7
0.4005	16000	935.4	0.7
0.4005	16500	935.7	0.7
0.4005	17000	936	0.7
0.4005	17600	936.5	0.7
0.4005	18000	936.7	0.7
0.4005	18400	937	0.7
0.4005	19000	937.4	0.7
0.4005	19500	937.8	0.7
0.4005	20000	938.2	0.7
0.5007	100	938.9	0.4
0.5007	500	939.2	0.4
0.5007	1000	939.5	0.5
0.5007	1500	939.9	0.5
0.5007	2000	940.2	0.5
0.5007	2500	940.6	0.5
0.5007	3000	941	0.5
0.5007	3500	941.3	0.5
0.5007	4000	941.6	0.5
0.5007	4500	942	0.5
0.5007	5000	942.3	0.5
0.5007	5500	942.7	0.5
0.5007	6000	943	0.5
0.5007	6500	943.3	0.5
0.5007	7000	943.7	0.5
0.5007	7500	944	0.5
0.5007	8000	944.3	0.5
0.5007	8500	944.7	0.5
0.5007	8900	945	0.5
0.5007	9500	945.3	0.5
0.5007	10000	945.7	0.5
0.5007	10500	946	0.5
0.5007	11000	946.4	0.6
0.5007	11500	946.8	0.6
0.5007	11900	947	0.6
0.5007	12500	947.3	0.6
0.5007	13000	947.7	0.6
0.5007	13400	948	0.6
0.5007	13900	948.3	0.6
0.5007	14500	948.6	0.6
0.5007	15000	949	0.6
0.5007	15500	949.3	0.6
0.5007	16000	949.6	0.6
0.5007	16500	949.9	0.6
0.5007	17000	950.2	0.6
0.5007	17400	950.5	0.6
0.5007	18000	950.8	0.6
0.5007	18400	951.1	0.6
0.5007	19000	951.5	0.6
0.5007	19500	951.8	0.6
0.5007	20000	952.2	0.6
0.5974	100	954.1	0.4
0.5974	500	954.4	0.4
0.5974	1000	954.6	0.4
0.5974	1500	955	0.4
0.5974	2000	955.3	0.4
0.5974	2500	955.7	0.4
0.5974	3000	956	0.4
0.5974	3500	956.2	0.4
0.5974	4000	956.6	0.4
0.5974	4500	956.9	0.4
0.5974	5000	957.3	0.4
0.5974	5500	957.6	0.4
0.5974	6000	958	0.4
0.5974	6500	958.3	0.5
0.5974	7000	958.6	0.5
0.5974	7500	958.9	0.5
0.5974	8000	959.2	0.5
0.5974	8500	959.5	0.5
0.5974	8900	959.8	0.5
0.5974	9500	960.1	0.5
0.5974	10000	960.5	0.5
0.5974	10500	960.8	0.5
0.5974	11000	961.1	0.5
0.5974	11400	961.4	0.5
0.5974	12000	961.8	0.5
0.5974	12500	962.2	0.5
0.5974	13000	962.4	0.5
0.5974	13500	962.6	0.5
0.5974	14000	963.1	0.5
0.5974	14500	963.4	0.5
0.5974	15000	963.7	0.5
0.5974	15500	964	0.5
0.5974	15900	964.2	0.5
0.5974	16500	964.6	0.5
0.5974	16900	964.8	0.5
0.5974	17500	965.1	0.5
0.5974	18000	965.4	0.5
0.5974	18500	965.7	0.5
0.5974	19000	966	0.5
0.5974	19500	966.3	0.5
0.5974	20000	966.7	0.5
0.7016	100	971.5	0.4
0.7016	500	971.7	0.4
0.7016	1000	972.1	0.4
0.7016	1500	972.4	0.4
0.7016	2000	972.7	0.4
0.7016	2500	973	0.4
0.7016	3000	973.4	0.4
0.7016	3500	973.7	0.4
0.7016	4000	974	0.4
0.7016	4500	974.3	0.4
0.7016	5000	974.6	0.4
0.7016	5500	974.8	0.4
0.7016	6000	975.2	0.4
0.7016	6500	975.5	0.4
0.7016	7000	975.8	0.4
0.7016	7500	976.1	0.4
0.7016	8000	976.4	0.4
0.7016	8500	976.7	0.4
0.7016	9000	977	0.4
0.7016	9500	977.3	0.4
0.7016	9900	977.7	0.4
0.7016	10500	978	0.4
0.7016	11000	978.3	0.4
0.7016	11500	978.6	0.4
0.7016	11900	978.9	0.4
0.7016	12600	979.2	0.4
0.7016	12900	979.4	0.4
0.7016	13400	979.7	0.4
0.7016	14000	980.1	0.4
0.7016	14500	980.3	0.4
0.7016	15000	980.7	0.4
0.7016	15500	981	0.4
0.7016	16000	981.3	0.4
0.7016	16500	981.5	0.4
0.7016	17000	981.8	0.4
0.7016	17400	982	0.4
0.7016	18000	982.3	0.4
0.7016	18500	982.7	0.4
0.7016	19000	983	0.4
0.7016	19500	983.3	0.4
0.7016	20000	983.8	0.4
0.8002	100	988.7	0.3
0.8002	500	988.9	0.3
0.8002	1000	989.2	0.3
0.8002	1500	989.5	0.3
0.8002	2000	989.8	0.3
0.8002	2500	990.1	0.3
0.8002	3000	990.4	0.3
0.8002	3500	990.6	0.3
0.8002	4000	991	0.3
0.8002	4500	991.2	0.3
0.8002	5000	991.5	0.3
0.8002	5500	991.8	0.3
0.8002	6000	992.2	0.3
0.8002	6500	992.4	0.3
0.8002	7000	992.7	0.3
0.8002	7500	993.1	0.3
0.8002	8000	993.3	0.3
0.8002	8500	993.6	0.3
0.8002	9000	993.9	0.3
0.8002	9500	994.2	0.3
0.8002	10000	994.5	0.3
0.8002	10500	994.8	0.3
0.8002	11000	995.1	0.3
0.8002	11500	995.4	0.3
0.8002	12000	995.7	0.3
0.8002	12400	995.9	0.3
0.8002	13000	996.3	0.3
0.8002	13400	996.5	0.3
0.8002	14000	996.8	0.3
0.8002	14500	997.1	0.3
0.8002	15000	997.4	0.3
0.8002	15500	997.6	0.3
0.8002	16100	998	0.3
0.8002	16500	998.2	0.3
0.8002	17000	998.4	0.3
0.8002	17500	998.8	0.3
0.8002	18000	999	0.3
0.8002	18500	999.2	0.3
0.8002	19000	999.6	0.3
0.8002	19500	999.8	0.3
0.8002	20000	1000.2	0.3
0.8995	100	1007.4	0.3
0.8995	500	1007.6	0.3
0.8995	1000	1007.9	0.3
0.8995	1500	1008.2	0.3
0.8995	2000	1008.4	0.3
0.8995	2500	1008.7	0.3
0.8995	3000	1009	0.3
0.8995	3500	1009.3	0.3
0.8995	4000	1009.6	0.3
0.8995	4500	1009.8	0.3
0.8995	5000	1010.1	0.3
0.8995	5500	1010.4	0.3
0.8995	6000	1010.7	0.3
0.8995	6500	1011	0.3
0.8995	7000	1011.2	0.3
0.8995	7500	1011.5	0.3
0.8995	8000	1011.8	0.3
0.8995	8500	1012	0.3
0.8995	9000	1012.3	0.3
0.8995	9500	1012.6	0.4
0.8995	10000	1012.9	0.4
0.8995	10500	1013.2	0.4
0.8995	11000	1013.5	0.4
0.8995	11500	1013.8	0.4
0.8995	12000	1014	0.4
0.8995	12400	1014.2	0.4
0.8995	13000	1014.5	0.4
0.8995	13500	1014.8	0.4
0.8995	14000	1015.1	0.4
0.8995	14500	1015.4	0.4
0.8995	15000	1015.6	0.4
0.8995	15500	1015.8	0.4
0.8995	16000	1016.1	0.4
0.8995	16500	1016.4	0.4
0.8995	16900	1016.6	0.4
0.8995	17500	1016.9	0.4
0.8995	18000	1017.1	0.4
0.8995	18700	1017.5	0.4
0.8995	19000	1017.8	0.4
0.8995	19500	1017.9	0.4
0.8995	20000	1018.3	0.4

System: 1-chlorooctane + N-methylpyrrolidone; phases: Liquid
Fixed: Temperature, K = 298.15
Property: Mass density, kg/m3 (Liquid); method: VIBTUB:UFactor:8
Mole fraction of N-methylpyrrolidone	Pressure, kPa	Mass density, kg/m3	uncertainty
0.0969	100	878	1.2
0.0969	500	878.3	1.2
0.0969	1000	878.6	1.2
0.0969	1500	879	1.2
0.0969	2000	879.4	1.2
0.0969	2500	879.7	1.3
0.0969	3000	880.2	1.3
0.0969	3400	880.5	1.3
0.0969	4000	880.8	1.3
0.0969	4500	881.2	1.3
0.0969	5000	881.6	1.3
0.0969	5500	882	1.4
0.0969	6000	882.3	1.4
0.0969	6500	882.7	1.4
0.0969	7000	883.1	1.4
0.0969	7400	883.4	1.4
0.0969	7900	883.7	1.4
0.0969	8500	884.1	1.5
0.0969	9000	884.4	1.5
0.0969	9500	884.8	1.5
0.0969	10000	885.3	1.5
0.0969	10500	885.6	1.5
0.0969	11000	886	1.5
0.0969	11500	886.3	1.5
0.0969	11900	886.6	1.6
0.0969	12500	887	1.6
0.0969	13000	887.4	1.6
0.0969	13500	887.7	1.6
0.0969	14000	888.1	1.6
0.0969	14500	888.4	1.6
0.0969	15000	888.7	1.7
0.0969	15500	889	1.7
0.0969	16000	889.4	1.7
0.0969	16500	889.7	1.7
0.0969	17100	890.1	1.7
0.0969	17500	890.4	1.7
0.0969	18000	890.7	1.7
0.0969	18500	891.1	1.8
0.0969	19000	891.4	1.8
0.0969	19500	891.7	1.8
0.0969	20000	892.1	1.8
0.2014	100	888.8	1.1
0.2014	500	889.1	1.1
0.2014	1000	889.4	1.1
0.2014	1500	889.8	1.1
0.2014	2000	890.2	1.1
0.2014	2500	890.6	1.1
0.2014	3000	890.9	1.1
0.2014	3500	891.3	1.2
0.2014	4000	891.6	1.2
0.2014	4500	892	1.2
0.2014	5000	892.3	1.2
0.2014	5500	892.7	1.2
0.2014	6000	893.1	1.2
0.2014	6500	893.4	1.3
0.2014	7000	893.8	1.3
0.2014	7500	894.1	1.3
0.2014	8000	894.4	1.3
0.2014	8500	894.8	1.3
0.2014	9000	895.1	1.3
0.2014	9500	895.5	1.3
0.2014	10000	895.9	1.4
0.2014	10500	896.2	1.4
0.2014	11000	896.5	1.4
0.2014	11500	896.9	1.4
0.2014	12000	897.3	1.4
0.2014	12500	897.6	1.4
0.2014	13000	897.9	1.4
0.2014	13500	898.3	1.5
0.2014	13900	898.5	1.5
0.2014	14400	898.9	1.5
0.2014	15000	899.2	1.5
0.2014	15400	899.5	1.5
0.2014	16000	899.9	1.5
0.2014	16500	900.3	1.5
0.2014	17000	900.6	1.5
0.2014	17500	900.9	1.6
0.2014	18000	901.2	1.6
0.2014	18500	901.5	1.6
0.2014	19000	901.9	1.6
0.2014	19400	902.2	1.6
0.2014	20000	902.6	1.6
0.3097	100	901.2	0.9
0.3097	500	901.5	1
0.3097	1000	901.9	1
0.3097	1500	902.3	1
0.3097	2000	902.5	1
0.3097	2500	902.9	1
0.3097	3000	903.3	1
0.3097	3500	903.7	1
0.3097	4000	904	1.1
0.3097	4500	904.4	1.1
0.3097	5000	904.7	1.1
0.3097	5500	905	1.1
0.3097	6000	905.4	1.1
0.3097	6500	905.8	1.1
0.3097	7000	906.1	1.1
0.3097	7500	906.4	1.1
0.3097	8000	906.7	1.2
0.3097	8500	907	1.2
0.3097	9000	907.4	1.2
0.3097	9500	907.8	1.2
0.3097	10000	908.1	1.2
0.3097	10500	908.5	1.2
0.3097	11000	908.8	1.2
0.3097	11500	909.1	1.2
0.3097	12000	909.5	1.3
0.3097	12500	909.8	1.3
0.3097	13000	910.1	1.3
0.3097	13500	910.4	1.3
0.3097	14000	910.8	1.3
0.3097	14500	911.1	1.3
0.3097	15000	911.4	1.3
0.3097	15500	911.7	1.3
0.3097	16000	912.1	1.3
0.3097	16500	912.4	1.4
0.3097	17000	912.8	1.4
0.3097	17500	913.1	1.4
0.3097	18000	913.4	1.4
0.3097	18500	913.7	1.4
0.3097	19000	914.1	1.4
0.3097	19500	914.4	1.4
0.3097	20000	914.7	1.4
0.4076	100	913.6	0.8
0.4076	500	913.9	0.9
0.4076	1000	914.3	0.9
0.4076	1500	914.6	0.9
0.4076	2000	914.9	0.9
0.4076	2500	915.2	0.9
0.4076	3000	915.6	0.9
0.4076	3500	916	0.9
0.4076	4000	916.3	0.9
0.4076	4400	916.6	0.9
0.4076	5000	917	1
0.4076	5500	917.3	1
0.4076	6000	917.6	1
0.4076	6500	917.9	1
0.4076	7000	918.4	1
0.4076	7500	918.6	1
0.4076	8000	918.9	1
0.4076	8500	919.2	1
0.4076	9000	919.6	1
0.4076	9500	920	1.1
0.4076	10000	920.4	1.1
0.4076	10500	920.7	1.1
0.4076	11000	921.1	1.1
0.4076	11500	921.3	1.1
0.4076	12000	921.6	1.1
0.4076	12500	922	1.1
0.4076	13000	922.3	1.1
0.4076	13500	922.6	1.1
0.4076	14000	922.9	1.2
0.4076	14500	923.3	1.2
0.4076	15000	923.5	1.2
0.4076	15500	923.9	1.2
0.4076	16000	924.2	1.2
0.4076	16500	924.5	1.2
0.4076	17000	924.9	1.2
0.4076	17500	925.2	1.2
0.4076	18000	925.5	1.2
0.4076	18500	925.7	1.2
0.4076	19000	926.1	1.2
0.4076	19400	926.4	1.2
0.4076	20100	926.8	1.3
0.5021	100	926.9	0.7
0.5021	500	927.2	0.8
0.5021	1000	927.5	0.8
0.5021	1500	927.8	0.8
0.5021	2000	928.2	0.8
0.5021	2500	928.5	0.8
0.5021	3000	928.8	0.8
0.5021	3500	929.1	0.8
0.5021	4000	929.5	0.8
0.5021	4500	929.8	0.8
0.5021	5000	930.2	0.8
0.5021	5500	930.4	0.9
0.5021	5900	930.8	0.9
0.5021	6500	931.1	0.9
0.5021	7000	931.5	0.9
0.5021	7500	931.8	0.9
0.5021	8000	932.1	0.9
0.5021	8500	932.5	0.9
0.5021	9000	932.8	0.9
0.5021	9500	933.1	0.9
0.5021	10000	933.5	0.9
0.5021	10500	933.8	0.9
0.5021	11000	934.2	0.9
0.5021	11500	934.5	1
0.5021	12000	934.8	1
0.5021	12500	935.1	1
0.5021	13000	935.4	1
0.5021	13500	935.7	1
0.5021	14000	936	1
0.5021	14500	936.3	1
0.5021	15000	936.6	1
0.5021	15500	936.9	1
0.5021	15900	937.2	1
0.5021	16500	937.5	1
0.5021	17000	937.8	1
0.5021	17500	938.1	1
0.5021	18000	938.4	1.1
0.5021	18500	938.7	1.1
0.5021	19000	939.1	1.1
0.5021	19500	939.3	1.1
0.5021	20000	939.8	1.1
0.6022	100	942.5	0.6
0.6022	500	942.8	0.6
0.6022	1000	943.1	0.7
0.6022	1500	943.4	0.7
0.6022	2000	943.7	0.7
0.6022	2500	944.1	0.7
0.6022	2900	944.4	0.7
0.6022	3500	944.7	0.7
0.6022	4000	945	0.7
0.6022	4500	945.3	0.7
0.6022	5000	945.7	0.7
0.6022	5500	946	0.7
0.6022	6000	946.3	0.7
0.6022	6500	946.6	0.7
0.6022	7000	946.9	0.7
0.6022	7500	947.2	0.8
0.6022	8000	947.5	0.8
0.6022	8500	947.8	0.8
0.6022	9000	948.1	0.8
0.6022	9500	948.4	0.8
0.6022	10000	948.8	0.8
0.6022	10500	949.1	0.8
0.6022	11000	949.5	0.8
0.6022	11500	949.7	0.8
0.6022	12000	950.1	0.8
0.6022	12500	950.4	0.8
0.6022	12900	950.6	0.8
0.6022	13500	950.9	0.8
0.6022	14000	951.2	0.8
0.6022	14500	951.5	0.8
0.6022	15000	951.8	0.8
0.6022	15500	952.1	0.8
0.6022	16000	952.4	0.9
0.6022	16500	952.7	0.9
0.6022	17000	953	0.9
0.6022	17500	953.2	0.9
0.6022	18000	953.5	0.9
0.6022	18500	953.8	0.9
0.6022	19000	954.2	0.9
0.6022	19500	954.5	0.9
0.6022	20000	954.8	0.9
0.7005	100	959.8	0.5
0.7005	500	960	0.5
0.7005	1000	960.3	0.6
0.7005	1500	960.6	0.6
0.7005	2000	960.9	0.6
0.7005	2500	961.2	0.6
0.7005	3000	961.6	0.6
0.7005	3500	961.8	0.6
0.7005	4000	962.2	0.6
0.7005	4500	962.4	0.6
0.7005	5000	962.8	0.6
0.7005	5500	963.1	0.6
0.7005	6000	963.4	0.6
0.7005	6500	963.7	0.6
0.7005	7000	964	0.6
0.7005	7500	964.3	0.6
0.7005	8000	964.6	0.6
0.7005	8500	964.9	0.6
0.7005	9000	965.2	0.6
0.7005	9500	965.5	0.6
0.7005	10000	965.9	0.6
0.7005	10500	966.1	0.6
0.7005	11000	966.5	0.6
0.7005	11400	966.7	0.6
0.7005	12000	967	0.6
0.7005	12500	967.3	0.6
0.7005	13000	967.6	0.6
0.7005	13500	967.9	0.7
0.7005	14000	968.2	0.7
0.7005	14500	968.4	0.7
0.7005	15000	968.8	0.7
0.7005	15500	969	0.7
0.7005	15900	969.3	0.7
0.7005	16500	969.6	0.7
0.7005	17000	970	0.7
0.7005	17500	970.2	0.7
0.7005	18000	970.4	0.7
0.7005	18500	970.8	0.7
0.7005	19000	971	0.7
0.7005	19400	971.4	0.7
0.7005	20000	971.7	0.7
0.8007	100	979.6	0.5
0.8007	500	979.8	0.5
0.8007	1000	980.1	0.5
0.8007	1500	980.4	0.5
0.8007	2000	980.7	0.5
0.8007	2500	981	0.5
0.8007	3000	981.3	0.5
0.8007	3500	981.6	0.5
0.8007	4000	981.9	0.5
0.8007	4500	982.2	0.5
0.8007	5000	982.5	0.5
0.8007	5500	982.8	0.5
0.8007	6000	983.1	0.5
0.8007	6500	983.3	0.5
0.8007	7000	983.6	0.5
0.8007	7500	983.9	0.5
0.8007	8000	984.2	0.5
0.8007	8500	984.5	0.5
0.8007	9000	984.8	0.5
0.8007	9500	985.1	0.5
0.8007	9900	985.4	0.5
0.8007	10500	985.7	0.5
0.8007	10900	986	0.5
0.8007	11500	986.3	0.5
0.8007	12000	986.5	0.5
0.8007	12500	986.8	0.5
0.8007	13000	987.1	0.5
0.8007	13500	987.4	0.5
0.8007	14000	987.7	0.5
0.8007	14600	988	0.5
0.8007	15000	988.2	0.5
0.8007	15500	988.4	0.5
0.8007	16000	988.7	0.5
0.8007	16500	988.9	0.5
0.8007	17000	989.2	0.5
0.8007	17500	989.5	0.5
0.8007	18000	989.7	0.5
0.8007	18500	990	0.5
0.8007	19000	990.5	0.5
0.8007	19500	990.7	0.5
0.8007	20100	991	0.5
0.9008	100	1002.2	0.4
0.9008	500	1002.4	0.4
0.9008	1000	1002.7	0.4
0.9008	1500	1003	0.4
0.9008	2000	1003.2	0.4
0.9008	2500	1003.5	0.4
0.9008	3000	1003.8	0.4
0.9008	3500	1004.1	0.4
0.9008	4000	1004.4	0.4
0.9008	4500	1004.6	0.4
0.9008	5000	1004.9	0.4
0.9008	5500	1005.2	0.4
0.9008	6000	1005.5	0.4
0.9008	6500	1005.8	0.4
0.9008	7000	1006.1	0.4
0.9008	7500	1006.4	0.4
0.9008	8000	1006.6	0.4
0.9008	8500	1007	0.4
0.9008	9000	1007.2	0.4
0.9008	9500	1007.5	0.4
0.9008	10000	1007.8	0.4
0.9008	10400	1008	0.4
0.9008	11000	1008.3	0.4
0.9008	11500	1008.6	0.4
0.9008	12000	1008.8	0.4
0.9008	12500	1009.2	0.4
0.9008	13000	1009.4	0.4
0.9008	13500	1009.7	0.4
0.9008	14000	1009.9	0.4
0.9008	14500	1010.1	0.4
0.9008	14900	1010.4	0.4
0.9008	15500	1010.7	0.4
0.9008	16000	1011	0.4
0.9008	16500	1011.2	0.4
0.9008	17000	1011.5	0.4
0.9008	17500	1011.7	0.4
0.9008	18000	1012	0.5
0.9008	18500	1012.2	0.5
0.9008	19000	1012.5	0.5
0.9008	19500	1012.8	0.5
0.9008	20000	1013.2	0.5

System: 1,2-dichloroethane + N-methylpyrrolidone; phases: Liquid
Fixed: Temperature, K = 298.15
Property: Mass density, kg/m3 (Liquid); method: VIBTUB:UFactor:4
Mole fraction of N-methylpyrrolidone	Pressure, kPa	Mass density, kg/m3	uncertainty
0.0993	100	1220.4	0.5
0.0993	500	1220.7	0.6
0.0993	1000	1221.2	0.6
0.0993	1500	1221.7	0.6
0.0993	2000	1222.1	0.6
0.0993	2500	1222.6	0.6
0.0993	3000	1223	0.7
0.0993	3500	1223.5	0.7
0.0993	4000	1223.9	0.7
0.0993	4500	1224.4	0.7
0.0993	5000	1224.8	0.7
0.0993	5500	1225.2	0.7
0.0993	6000	1225.7	0.8
0.0993	6500	1226.1	0.8
0.0993	7000	1226.5	0.8
0.0993	7500	1227	0.8
0.0993	8000	1227.4	0.8
0.0993	8500	1227.8	0.9
0.0993	9000	1228.2	0.9
0.0993	9500	1228.6	0.9
0.0993	10000	1229.2	0.9
0.0993	10500	1229.6	0.9
0.0993	11000	1230	1
0.0993	11500	1230.4	1
0.0993	12000	1230.8	1
0.0993	12500	1231.3	1
0.0993	13000	1231.7	1
0.0993	13500	1232.1	1
0.0993	14000	1232.5	1.1
0.0993	14500	1232.9	1.1
0.0993	15000	1233.3	1.1
0.0993	15500	1233.7	1.1
0.0993	16000	1234.2	1.1
0.0993	16500	1234.6	1.2
0.0993	17000	1235	1.2
0.0993	17500	1235.4	1.2
0.0993	18000	1235.8	1.2
0.0993	18500	1236.2	1.2
0.0993	19000	1236.6	1.3
0.0993	19500	1237	1.3
0.0993	20000	1237.5	1.3
0.2025	100	1195.3	0.5
0.2025	500	1195.6	0.5
0.2025	1000	1196	0.5
0.2025	1500	1196.5	0.6
0.2025	2000	1196.9	0.6
0.2025	2500	1197.3	0.6
0.2025	3000	1197.7	0.6
0.2025	3500	1198.1	0.6
0.2025	4000	1198.5	0.6
0.2025	4500	1198.9	0.6
0.2025	5000	1199.3	0.7
0.2025	5500	1199.8	0.7
0.2025	6000	1200.2	0.7
0.2025	6500	1200.6	0.7
0.2025	7000	1201	0.7
0.2025	7500	1201.4	0.7
0.2025	8000	1201.8	0.8
0.2025	8500	1202.2	0.8
0.2025	8900	1202.6	0.8
0.2025	9500	1203.1	0.8
0.2025	10000	1203.6	0.8
0.2025	10500	1203.9	0.8
0.2025	11000	1204.3	0.9
0.2025	11500	1204.6	0.9
0.2025	12000	1205.1	0.9
0.2025	12500	1205.5	0.9
0.2025	13000	1205.9	0.9
0.2025	13500	1206.2	0.9
0.2025	14000	1206.6	1
0.2025	14500	1207	1
0.2025	15000	1207.4	1
0.2025	15500	1207.8	1
0.2025	15900	1208.2	1
0.2025	16500	1208.6	1.1
0.2025	17100	1209	1.1
0.2025	17500	1209.4	1.1
0.2025	18000	1209.8	1.1
0.2025	18400	1210.2	1.1
0.2025	19000	1210.6	1.1
0.2025	19500	1211	1.2
0.2025	20000	1211.4	1.2
0.3012	100	1172.3	0.5
0.3012	500	1172.6	0.5
0.3012	1000	1173	0.5
0.3012	1500	1173.4	0.5
0.3012	2000	1173.7	0.5
0.3012	2500	1174.2	0.5
0.3012	2900	1174.5	0.5
0.3012	3500	1174.9	0.6
0.3012	4000	1175.3	0.6
0.3012	4500	1175.7	0.6
0.3012	5000	1176.1	0.6
0.3012	5500	1176.5	0.6
0.3012	6000	1176.9	0.6
0.3012	6500	1177.2	0.7
0.3012	7000	1177.6	0.7
0.3012	7500	1178	0.7
0.3012	8000	1178.4	0.7
0.3012	8500	1178.8	0.7
0.3012	9000	1179.2	0.7
0.3012	9500	1179.6	0.7
0.3012	9900	1180	0.8
0.3012	10500	1180.4	0.8
0.3012	10900	1180.7	0.8
0.3012	11500	1181.1	0.8
0.3012	12000	1181.5	0.8
0.3012	12500	1181.9	0.8
0.3012	13000	1182.2	0.8
0.3012	13500	1182.6	0.9
0.3012	14000	1183	0.9
0.3012	14600	1183.4	0.9
0.3012	15000	1183.7	0.9
0.3012	15500	1184.1	0.9
0.3012	16000	1184.4	0.9
0.3012	16500	1184.8	1
0.3012	17000	1185.1	1
0.3012	17400	1185.4	1
0.3012	18000	1185.8	1
0.3012	18500	1186.1	1
0.3012	19000	1186.6	1
0.3012	19500	1186.9	1.1
0.3012	20000	1187.4	1.1
0.4029	100	1149.2	0.4
0.4029	500	1149.4	0.4
0.4029	1000	1149.8	0.5
0.4029	1500	1150.2	0.5
0.4029	2000	1150.6	0.5
0.4029	2500	1150.9	0.5
0.4029	3000	1151.3	0.5
0.4029	3400	1151.6	0.5
0.4029	4000	1152	0.5
0.4029	4600	1152.3	0.5
0.4029	5000	1152.8	0.6
0.4029	5500	1153.1	0.6
0.4029	6000	1153.5	0.6
0.4029	6500	1153.9	0.6
0.4029	7000	1154.2	0.6
0.4029	7500	1154.6	0.6
0.4029	8000	1154.9	0.6
0.4029	8500	1155.3	0.6
0.4029	9000	1155.6	0.7
0.4029	9500	1156	0.7
0.4029	10000	1156.4	0.7
0.4029	10500	1156.7	0.7
0.4029	11000	1157.1	0.7
0.4029	11500	1157.5	0.7
0.4029	12000	1157.8	0.7
0.4029	12500	1158.2	0.7
0.4029	13000	1158.5	0.8
0.4029	13500	1158.8	0.8
0.4029	14000	1159.2	0.8
0.4029	14500	1159.5	0.8
0.4029	15000	1159.8	0.8
0.4029	15500	1160.2	0.8
0.4029	16000	1160.5	0.8
0.4029	16500	1160.9	0.9
0.4029	17000	1161.2	0.9
0.4029	17500	1161.6	0.9
0.4029	17900	1161.8	0.9
0.4029	18400	1162.2	0.9
0.4029	19000	1162.6	0.9
0.4029	19500	1163	0.9
0.4029	20000	1163.4	1
0.4975	100	1128.3	0.4
0.4975	500	1128.5	0.4
0.4975	1000	1128.9	0.4
0.4975	1500	1129.2	0.4
0.4975	2000	1129.6	0.4
0.4975	2500	1129.9	0.5
0.4975	3000	1130.3	0.5
0.4975	3500	1130.6	0.5
0.4975	4000	1131	0.5
0.4975	4500	1131.3	0.5
0.4975	5000	1131.6	0.5
0.4975	5500	1131.9	0.5
0.4975	6000	1132.4	0.5
0.4975	6500	1132.7	0.5
0.4975	7000	1133	0.5
0.4975	7500	1133.3	0.6
0.4975	7900	1133.7	0.6
0.4975	8500	1134.1	0.6
0.4975	9000	1134.4	0.6
0.4975	9500	1134.7	0.6
0.4975	9900	1135	0.6
0.4975	10500	1135.4	0.6
0.4975	11000	1135.7	0.6
0.4975	11500	1136.1	0.6
0.4975	11900	1136.4	0.7
0.4975	12500	1136.8	0.7
0.4975	13000	1137.1	0.7
0.4975	13400	1137.4	0.7
0.4975	14000	1137.7	0.7
0.4975	14500	1138	0.7
0.4975	15000	1138.4	0.7
0.4975	15500	1138.7	0.7
0.4975	16000	1139	0.8
0.4975	16500	1139.3	0.8
0.4975	17000	1139.7	0.8
0.4975	17500	1140	0.8
0.4975	18000	1140.3	0.8
0.4975	18500	1140.6	0.8
0.4975	19000	1140.9	0.8
0.4975	19400	1141.3	0.8
0.4975	20000	1141.9	0.9
0.5832	100	1110	0.4
0.5832	500	1110.2	0.4
0.5832	1000	1110.5	0.4
0.5832	1500	1110.9	0.4
0.5832	2000	1111.2	0.4
0.5832	2500	1111.5	0.4
0.5832	3000	1111.9	0.4
0.5832	3600	1112.2	0.4
0.5832	4000	1112.5	0.4
0.5832	4500	1112.8	0.5
0.5832	5000	1113.2	0.5
0.5832	5500	1113.5	0.5
0.5832	6000	1113.8	0.5
0.5832	6500	1114.1	0.5
0.5832	6900	1114.4	0.5
0.5832	7500	1114.8	0.5
0.5832	8000	1115	0.5
0.5832	8500	1115.4	0.5
0.5832	9000	1115.7	0.5
0.5832	9500	1116	0.5
0.5832	10000	1116.4	0.6
0.5832	10500	1116.7	0.6
0.5832	10900	1117	0.6
0.5832	11500	1117.4	0.6
0.5832	12000	1117.7	0.6
0.5832	12500	1118	0.6
0.5832	13000	1118.3	0.6
0.5832	13500	1118.5	0.6
0.5832	14000	1118.9	0.6
0.5832	14500	1119.2	0.6
0.5832	15000	1119.4	0.7
0.5832	15400	1119.8	0.7
0.5832	15900	1120	0.7
0.5832	16500	1120.4	0.7
0.5832	17000	1120.7	0.7
0.5832	17500	1121	0.7
0.5832	18000	1121.2	0.7
0.5832	18500	1121.5	0.7
0.5832	19000	1121.9	0.7
0.5832	19500	1122.2	0.7
0.5832	20000	1122.6	0.8
0.7037	100	1085.1	0.4
0.7037	500	1085.4	0.4
0.7037	1000	1085.7	0.4
0.7037	1500	1086	0.4
0.7037	2000	1086.3	0.4
0.7037	2500	1086.6	0.4
0.7037	3000	1086.9	0.4
0.7037	3500	1087.2	0.4
0.7037	4000	1087.6	0.4
0.7037	4500	1087.8	0.4
0.7037	5000	1088.1	0.4
0.7037	5500	1088.4	0.4
0.7037	6000	1088.7	0.4
0.7037	6500	1089	0.4
0.7037	7000	1089.3	0.4
0.7037	7500	1089.6	0.4
0.7037	8000	1089.9	0.4
0.7037	8500	1090.2	0.5
0.7037	9000	1090.5	0.5
0.7037	9500	1090.8	0.5
0.7037	10000	1091.1	0.5
0.7037	10500	1091.4	0.5
0.7037	11000	1091.7	0.5
0.7037	11500	1092	0.5
0.7037	12000	1092.3	0.5
0.7037	12500	1092.6	0.5
0.7037	13000	1092.8	0.5
0.7037	13500	1093.2	0.5
0.7037	14000	1093.4	0.5
0.7037	14500	1093.7	0.5
0.7037	15000	1094	0.6
0.7037	15500	1094.3	0.6
0.7037	16000	1094.6	0.6
0.7037	16500	1094.8	0.6
0.7037	17000	1095.1	0.6
0.7037	17500	1095.4	0.6
0.7037	18000	1095.7	0.6
0.7037	18500	1096	0.6
0.7037	19000	1096.3	0.6
0.7037	19500	1096.6	0.6
0.7037	20000	1096.9	0.6
0.7984	100	1066.3	0.3
0.7984	500	1066.5	0.3
0.7984	1000	1066.8	0.3
0.7984	1500	1067.1	0.3
0.7984	2000	1067.4	0.4
0.7984	2500	1067.7	0.4
0.7984	3000	1068	0.4
0.7984	3500	1068.3	0.4
0.7984	4000	1068.6	0.4
0.7984	4500	1068.8	0.4
0.7984	5000	1069.1	0.4
0.7984	5500	1069.4	0.4
0.7984	6000	1069.7	0.4
0.7984	6500	1070	0.4
0.7984	7000	1070.3	0.4
0.7984	7500	1070.5	0.4
0.7984	8000	1070.9	0.4
0.7984	8500	1071.1	0.4
0.7984	9000	1071.3	0.4
0.7984	9500	1071.6	0.4
0.7984	10000	1072	0.4
0.7984	10500	1072.2	0.4
0.7984	11000	1072.5	0.4
0.7984	11500	1072.8	0.4
0.7984	12000	1073	0.4
0.7984	12500	1073.3	0.5
0.7984	13000	1073.6	0.5
0.7984	13500	1073.9	0.5
0.7984	14000	1074.2	0.5
0.7984	14500	1074.4	0.5
0.7984	15000	1074.8	0.5
0.7984	15500	1075	0.5
0.7984	16000	1075.3	0.5
0.7984	16500	1075.6	0.5
0.7984	17000	1075.9	0.5
0.7984	17500	1076.1	0.5
0.7984	18000	1076.4	0.5
0.7984	18500	1076.7	0.5
0.7984	19000	1077	0.5
0.7984	19500	1077.2	0.5
0.7984	20000	1077.5	0.5
0.9029	100	1046.2	0.3
0.9029	500	1046.5	0.3
0.9029	1000	1046.7	0.3
0.9029	1500	1047	0.3
0.9029	2000	1047.3	0.3
0.9029	2500	1047.6	0.3
0.9029	3000	1047.8	0.3
0.9029	3500	1048.1	0.3
0.9029	4000	1048.4	0.3
0.9029	4500	1048.6	0.3
0.9029	5000	1048.9	0.3
0.9029	5500	1049.2	0.3
0.9029	6000	1049.4	0.3
0.9029	6500	1049.7	0.4
0.9029	7000	1050	0.4
0.9029	7500	1050.2	0.4
0.9029	8000	1050.6	0.4
0.9029	8500	1050.8	0.4
0.9029	9000	1051.1	0.4
0.9029	9500	1051.3	0.4
0.9029	10000	1051.7	0.4
0.9029	10500	1051.9	0.4
0.9029	11000	1052.2	0.4
0.9029	11500	1052.4	0.4
0.9029	12000	1052.7	0.4
0.9029	12500	1053	0.4
0.9029	13000	1053.2	0.4
0.9029	13500	1053.5	0.4
0.9029	14000	1053.8	0.4
0.9029	14500	1054.1	0.4
0.9029	15000	1054.3	0.4
0.9029	15500	1054.6	0.4
0.9029	16000	1054.8	0.4
0.9029	16500	1055.1	0.4
0.9029	17000	1055.3	0.4
0.9029	17500	1055.6	0.4
0.9029	18000	1055.8	0.4
0.9029	18500	1056.1	0.4
0.9029	19000	1056.4	0.4
0.9029	19500	1056.6	0.5
0.9029	20000	1057.1	0.5

System: 1,4-dichlorobutane + N-methylpyrrolidone; phases: Liquid
Fixed: Temperature, K = 298.15
Property: Mass density, kg/m3 (Liquid); method: VIBTUB:UFactor:12
Mole fraction of N-methylpyrrolidone	Pressure, kPa	Mass density, kg/m3	uncertainty
0.1039	100	1123.8	2.9
0.1039	500	1124.1	2.9
0.1039	1000	1124.5	3
0.1039	1500	1124.9	3
0.1039	2000	1125.2	3
0.1039	2500	1125.5	3
0.1039	3000	1125.9	3.1
0.1039	3500	1126.3	3.1
0.1039	4000	1126.7	3.1
0.1039	4500	1127	3.2
0.1039	4900	1127.3	3.2
0.1039	5500	1127.7	3.2
0.1039	5900	1128.1	3.3
0.1039	6500	1128.4	3.3
0.1039	7000	1128.8	3.3
0.1039	7600	1129.2	3.4
0.1039	8000	1129.5	3.4
0.1039	8400	1129.8	3.4
0.1039	8900	1130.2	3.5
0.1039	9500	1130.6	3.5
0.1039	10000	1131	3.6
0.1039	10500	1131.4	3.6
0.1039	11000	1131.7	3.6
0.1039	11500	1132.1	3.7
0.1039	12000	1132.5	3.7
0.1039	12500	1132.8	3.7
0.1039	13000	1133.1	3.8
0.1039	13500	1133.5	3.8
0.1039	14000	1133.8	3.8
0.1039	14500	1134.2	3.9
0.1039	15000	1134.5	3.9
0.1039	15500	1134.8	3.9
0.1039	16000	1135.2	4
0.1039	16500	1135.5	4
0.1039	17000	1135.9	4.1
0.1039	17500	1136.2	4.1
0.1039	18000	1136.5	4.1
0.1039	18500	1136.9	4.2
0.1039	19000	1137.3	4.2
0.1039	19500	1137.6	4.2
0.1039	20000	1138	4.3
0.2034	100	1114.2	2.5
0.2034	500	1114.6	2.5
0.2034	1000	1114.9	2.5
0.2034	1500	1115.2	2.6
0.2034	2000	1115.6	2.6
0.2034	2500	1115.9	2.6
0.2034	3000	1116.3	2.7
0.2034	3500	1116.6	2.7
0.2034	4000	1117	2.7
0.2034	4500	1117.3	2.7
0.2034	5000	1117.7	2.8
0.2034	5500	1118	2.8
0.2034	6000	1118.4	2.8
0.2034	6500	1118.8	2.9
0.2034	7000	1119.1	2.9
0.2034	7500	1119.5	2.9
0.2034	8000	1119.8	3
0.2034	8500	1120.1	3
0.2034	9000	1120.5	3
0.2034	9500	1120.8	3.1
0.2034	10000	1121.3	3.1
0.2034	10500	1121.6	3.1
0.2034	11000	1122	3.2
0.2034	11500	1122.3	3.2
0.2034	12000	1122.6	3.2
0.2034	12500	1122.9	3.3
0.2034	13000	1123.3	3.3
0.2034	13500	1123.6	3.3
0.2034	14000	1124	3.4
0.2034	14500	1124.3	3.4
0.2034	15000	1124.7	3.4
0.2034	15500	1125	3.5
0.2034	16000	1125.3	3.5
0.2034	16500	1125.6	3.5
0.2034	17000	1126	3.6
0.2034	17500	1126.3	3.6
0.2034	18000	1126.6	3.6
0.2034	18500	1126.9	3.7
0.2034	19000	1127.3	3.7
0.2034	19500	1127.6	3.7
0.2034	20000	1128	3.8
0.3036	100	1104.3	2.1
0.3036	500	1104.6	2.1
0.3036	1000	1104.9	2.2
0.3036	1500	1105.3	2.2
0.3036	2000	1105.7	2.2
0.3036	2500	1106	2.2
0.3036	2900	1106.3	2.3
0.3036	3500	1106.6	2.3
0.3036	4000	1107	2.3
0.3036	4500	1107.4	2.3
0.3036	5000	1107.7	2.4
0.3036	5500	1108	2.4
0.3036	6000	1108.3	2.4
0.3036	6500	1108.7	2.5
0.3036	7000	1109	2.5
0.3036	7500	1109.4	2.5
0.3036	8000	1109.7	2.5
0.3036	8500	1110.1	2.6
0.3036	9000	1110.4	2.6
0.3036	9500	1110.7	2.6
0.3036	10000	1111.1	2.7
0.3036	10500	1111.4	2.7
0.3036	11000	1111.8	2.7
0.3036	11500	1112.1	2.8
0.3036	12000	1112.4	2.8
0.3036	12500	1112.8	2.8
0.3036	13000	1113.1	2.8
0.3036	13500	1113.4	2.9
0.3036	13900	1113.7	2.9
0.3036	14500	1114	2.9
0.3036	15000	1114.4	3
0.3036	15500	1114.7	3
0.3036	16000	1115.1	3
0.3036	16500	1115.4	3.1
0.3036	16900	1115.6	3.1
0.3036	17500	1116	3.1
0.3036	18000	1116.3	3.2
0.3036	18500	1116.6	3.2
0.3036	19000	1117	3.2
0.3036	19500	1117.3	3.3
0.3036	20000	1117.7	3.3
0.402	100	1094.4	1.8
0.402	500	1094.7	1.8
0.402	1000	1095	1.8
0.402	1500	1095.3	1.8
0.402	2000	1095.7	1.9
0.402	2500	1096	1.9
0.402	3000	1096.3	1.9
0.402	3500	1096.7	1.9
0.402	4000	1097	2
0.402	4500	1097.3	2
0.402	5000	1097.6	2
0.402	5500	1098	2
0.402	6000	1098.3	2.1
0.402	6500	1098.6	2.1
0.402	7000	1099	2.1
0.402	7500	1099.3	2.2
0.402	8000	1099.6	2.2
0.402	8500	1099.9	2.2
0.402	9000	1100.3	2.2
0.402	9500	1100.3	2.3
0.402	10000	1101	2.3
0.402	10500	1101.3	2.3
0.402	11000	1101.6	2.3
0.402	11500	1101.9	2.4
0.402	12000	1102.2	2.4
0.402	12500	1102.6	2.4
0.402	13000	1102.9	2.4
0.402	13500	1103.2	2.5
0.402	14000	1103.5	2.5
0.402	14500	1103.8	2.5
0.402	15000	1104.1	2.6
0.402	15500	1104.4	2.6
0.402	16000	1104.8	2.6
0.402	16400	1105	2.6
0.402	17000	1105.4	2.7
0.402	17500	1105.7	2.7
0.402	18000	1106	2.7
0.402	18500	1106.2	2.8
0.402	19000	1106.6	2.8
0.402	19500	1106.9	2.8
0.402	20000	1107.4	2.9
0.5025	100	1084	1.5
0.5025	500	1084.2	1.5
0.5025	1000	1084.5	1.5
0.5025	1500	1084.8	1.5
0.5025	2000	1085.2	1.6
0.5025	2500	1085.5	1.6
0.5025	3000	1085.8	1.6
0.5025	3500	1086.1	1.6
0.5025	4000	1086.4	1.7
0.5025	4500	1086.8	1.7
0.5025	5000	1087.1	1.7
0.5025	5500	1087.4	1.7
0.5025	5900	1087.7	1.7
0.5025	6500	1088	1.8
0.5025	7000	1088.4	1.8
0.5025	7500	1088.6	1.8
0.5025	7900	1089	1.8
0.5025	8500	1089.3	1.9
0.5025	9000	1089.6	1.9
0.5025	9500	1089.9	1.9
0.5025	10000	1090.3	1.9
0.5025	10500	1090.6	2
0.5025	11000	1090.9	2
0.5025	11500	1091.2	2
0.5025	12000	1091.6	2
0.5025	12500	1091.9	2.1
0.5025	12900	1092.2	2.1
0.5025	13500	1092.5	2.1
0.5025	14000	1092.8	2.1
0.5025	14500	1093.1	2.2
0.5025	14900	1093.3	2.2
0.5025	15400	1093.6	2.2
0.5025	16000	1094	2.2
0.5025	16500	1094.2	2.3
0.5025	17000	1094.5	2.3
0.5025	17500	1094.8	2.3
0.5025	18000	1095.1	2.3
0.5025	18500	1095.4	2.4
0.5025	19000	1095.8	2.4
0.5025	19500	1096	2.4
0.5025	20000	1096.5	2.5
0.5968	100	1073.9	1.2
0.5968	500	1074.2	1.3
0.5968	1000	1074.5	1.3
0.5968	1500	1074.8	1.3
0.5968	2000	1075.1	1.3
0.5968	2500	1075.4	1.3
0.5968	3000	1075.7	1.4
0.5968	3500	1076	1.4
0.5968	4000	1076.4	1.4
0.5968	4500	1076.6	1.4
0.5968	4900	1076.9	1.4
0.5968	5500	1077.2	1.5
0.5968	6000	1077.6	1.5
0.5968	6500	1077.8	1.5
0.5968	7000	1078.2	1.5
0.5968	7500	1078.5	1.5
0.5968	8000	1078.8	1.6
0.5968	8500	1079.1	1.6
0.5968	9000	1079.4	1.6
0.5968	9500	1079.7	1.6
0.5968	10000	1080	1.6
0.5968	10500	1080.3	1.7
0.5968	11000	1080.6	1.7
0.5968	11500	1080.9	1.7
0.5968	12000	1081.2	1.7
0.5968	12500	1081.5	1.8
0.5968	13000	1081.8	1.8
0.5968	13500	1082.1	1.8
0.5968	14000	1082.4	1.8
0.5968	14500	1082.6	1.8
0.5968	15000	1083	1.9
0.5968	15500	1083.3	1.9
0.5968	16000	1083.5	1.9
0.5968	16500	1083.8	1.9
0.5968	17000	1084.1	2
0.5968	17500	1084.4	2
0.5968	18000	1084.7	2
0.5968	18500	1085	2
0.5968	19000	1085.3	2.1
0.5968	19500	1085.6	2.1
0.5968	20000	1086	2.1
0.7003	100	1062.7	1
0.7003	500	1062.9	1
0.7003	1000	1063.2	1
0.7003	1500	1063.6	1.1
0.7003	2000	1063.8	1.1
0.7003	2500	1064.1	1.1
0.7003	3000	1064.4	1.1
0.7003	3500	1064.7	1.1
0.7003	4000	1065	1.1
0.7003	4500	1065.3	1.2
0.7003	5000	1065.6	1.2
0.7003	5500	1065.9	1.2
0.7003	6000	1066.2	1.2
0.7003	6500	1066.5	1.2
0.7003	7000	1066.8	1.3
0.7003	7500	1067.1	1.3
0.7003	8000	1067.4	1.3
0.7003	8500	1067.6	1.3
0.7003	9000	1068	1.3
0.7003	9500	1068.2	1.3
0.7003	10000	1068.6	1.4
0.7003	10500	1068.9	1.4
0.7003	11000	1069.2	1.4
0.7003	11500	1069.4	1.4
0.7003	12000	1069.7	1.4
0.7003	12500	1070	1.5
0.7003	13000	1070.3	1.5
0.7003	13500	1070.5	1.5
0.7003	14000	1070.9	1.5
0.7003	14400	1071.1	1.5
0.7003	15000	1071.5	1.6
0.7003	15500	1071.7	1.6
0.7003	16000	1072	1.6
0.7003	16500	1072.2	1.6
0.7003	17000	1072.5	1.6
0.7003	17500	1072.8	1.7
0.7003	18000	1073.1	1.7
0.7003	18500	1073.3	1.7
0.7003	19000	1073.7	1.7
0.7003	19500	1074	1.7
0.7003	20000	1074.5	1.8
0.8008	100	1051.4	0.8
0.8008	500	1051.6	0.8
0.8008	1000	1051.9	0.9
0.8008	1500	1052.2	0.9
0.8008	2000	1052.5	0.9
0.8008	2500	1052.8	0.9
0.8008	3000	1053	0.9
0.8008	3500	1053.4	0.9
0.8008	4000	1053.6	0.9
0.8008	4500	1053.9	1
0.8008	5000	1054.2	1
0.8008	5500	1054.4	1
0.8008	6000	1054.8	1
0.8008	6500	1055	1
0.8008	7000	1055.3	1
0.8008	7500	1055.6	1
0.8008	8000	1055.9	1.1
0.8008	8500	1056.2	1.1
0.8008	9000	1056.4	1.1
0.8008	9500	1056.7	1.1
0.8008	10000	1057.1	1.1
0.8008	10500	1057.3	1.1
0.8008	11000	1057.6	1.2
0.8008	11500	1057.9	1.2
0.8008	12000	1058.2	1.2
0.8008	12500	1058.4	1.2
0.8008	13000	1058.7	1.2
0.8008	13400	1059	1.2
0.8008	14000	1059.2	1.3
0.8008	14400	1059.5	1.3
0.8008	15000	1059.7	1.3
0.8008	15500	1060	1.3
0.8008	16000	1060.3	1.3
0.8008	16500	1060.6	1.3
0.8008	17000	1060.8	1.4
0.8008	17500	1061.1	1.4
0.8008	18000	1061.3	1.4
0.8008	18500	1061.6	1.4
0.8008	19000	1061.9	1.4
0.8008	19500	1062.2	1.4
0.8008	20000	1062.4	1.5
0.8971	100	1040.2	0.7
0.8971	500	1040.4	0.7
0.8971	1000	1040.7	0.7
0.8971	1500	1041	0.7
0.8971	2000	1041.3	0.7
0.8971	2500	1041.6	0.7
0.8971	3000	1041.8	0.8
0.8971	3500	1042.1	0.8
0.8971	4000	1042.3	0.8
0.8971	4500	1042.7	0.8
0.8971	5000	1042.9	0.8
0.8971	5500	1043.1	0.8
0.8971	6000	1043.5	0.8
0.8971	6500	1043.7	0.8
0.8971	7000	1044	0.8
0.8971	7400	1044.2	0.9
0.8971	8000	1044.5	0.9
0.8971	8500	1044.8	0.9
0.8971	9000	1045.1	0.9
0.8971	9400	1045.3	0.9
0.8971	10000	1045.6	0.9
0.8971	10500	1045.9	0.9
0.8971	11000	1046.1	0.9
0.8971	11500	1046.4	1
0.8971	11900	1046.6	1
0.8971	12400	1046.9	1
0.8971	13000	1047.2	1
0.8971	13500	1047.4	1
0.8971	14000	1047.7	1
0.8971	14500	1048	1
0.8971	15000	1048.3	1.1
0.8971	15500	1048.6	1.1
0.8971	15900	1048.8	1.1
0.8971	16500	1049	1.1
0.8971	17000	1049.3	1.1
0.8971	17500	1049.5	1.1
0.8971	18000	1049.8	1.1
0.8971	18500	1050.1	1.2
0.8971	19000	1050.3	1.2
0.8971	19500	1050.6	1.2
0.8971	20000	1050.9	1.2

System: N-methylpyrrolidone + 1,6-dichlorohexane; phases: Liquid
Fixed: Temperature, K = 298.15
Property: Mass density, kg/m3 (Liquid); method: VIBTUB:UFactor:8
Mole fraction of N-methylpyrrolidone	Pressure, kPa	Mass density, kg/m3	uncertainty
0.1182	100	1060.7	1.2
0.1182	500	1060.9	1.2
0.1182	1000	1061.3	1.2
0.1182	1500	1061.6	1.2
0.1182	2000	1062	1.2
0.1182	2500	1062.3	1.2
0.1182	3000	1062.6	1.3
0.1182	3500	1063	1.3
0.1182	4000	1063.3	1.3
0.1182	4500	1063.7	1.3
0.1182	5000	1064	1.3
0.1182	5500	1064.4	1.3
0.1182	6000	1064.7	1.3
0.1182	6500	1065	1.3
0.1182	7000	1065.4	1.4
0.1182	7500	1065.7	1.4
0.1182	8000	1066.1	1.4
0.1182	8500	1066.5	1.4
0.1182	8900	1066.7	1.4
0.1182	9500	1067	1.4
0.1182	10000	1067.4	1.4
0.1182	10500	1067.8	1.4
0.1182	11000	1068.1	1.5
0.1182	11500	1068.4	1.5
0.1182	12000	1068.8	1.5
0.1182	12500	1069.1	1.5
0.1182	13000	1069.4	1.5
0.1182	13500	1069.7	1.5
0.1182	14000	1070	1.5
0.1182	14500	1070.4	1.5
0.1182	15000	1070.7	1.6
0.1182	15500	1071	1.6
0.1182	16000	1071.4	1.6
0.1182	16500	1071.7	1.6
0.1182	17000	1072	1.6
0.1182	17500	1072.3	1.6
0.1182	17900	1072.6	1.6
0.1182	18500	1072.9	1.7
0.1182	19000	1073.3	1.7
0.1182	19500	1073.6	1.7
0.1182	20000	1073.9	1.7
0.2016	100	1058.4	1.1
0.2016	500	1058.7	1.1
0.2016	1000	1059.1	1.1
0.2016	1500	1059.4	1.1
0.2016	2000	1059.7	1.1
0.2016	2500	1060	1.1
0.2016	3000	1060.4	1.1
0.2016	3500	1060.8	1.2
0.2016	4000	1061.1	1.2
0.2016	4500	1061.4	1.2
0.2016	5000	1061.8	1.2
0.2016	5500	1062.1	1.2
0.2016	6000	1062.4	1.2
0.2016	6500	1062.8	1.2
0.2016	7000	1063.1	1.2
0.2016	7500	1063.5	1.2
0.2016	8000	1063.7	1.3
0.2016	8500	1064	1.3
0.2016	9000	1064.4	1.3
0.2016	9500	1064.8	1.3
0.2016	10000	1065.2	1.3
0.2016	10500	1065.4	1.3
0.2016	11000	1065.8	1.3
0.2016	11500	1066.1	1.3
0.2016	12000	1066.4	1.4
0.2016	12500	1066.7	1.4
0.2016	13000	1067	1.4
0.2016	13500	1067.4	1.4
0.2016	14000	1067.6	1.4
0.2016	14500	1068	1.4
0.2016	15000	1068.3	1.4
0.2016	15500	1068.6	1.5
0.2016	16000	1069	1.5
0.2016	16500	1069.2	1.5
0.2016	17000	1069.6	1.5
0.2016	17500	1069.8	1.5
0.2016	18000	1070.2	1.5
0.2016	18500	1070.5	1.5
0.2016	19000	1070.8	1.5
0.2016	19500	1071.1	1.6
0.2016	20000	1071.4	1.6
0.3079	100	1055.4	1
0.3079	500	1055.6	1
0.3079	1000	1056	1
0.3079	1500	1056.3	1
0.3079	2000	1056.6	1
0.3079	2500	1056.9	1
0.3079	3000	1057.3	1
0.3079	3500	1057.6	1
0.3079	4000	1057.9	1
0.3079	4500	1058.3	1
0.3079	5000	1058.6	1.1
0.3079	5500	1058.9	1.1
0.3079	6000	1059.4	1.1
0.3079	6500	1059.6	1.1
0.3079	7000	1059.9	1.1
0.3079	7500	1060.2	1.1
0.3079	8000	1060.5	1.1
0.3079	8500	1060.8	1.1
0.3079	9000	1061.2	1.1
0.3079	9500	1061.5	1.2
0.3079	10000	1061.9	1.2
0.3079	10500	1062.2	1.2
0.3079	11000	1062.5	1.2
0.3079	11500	1062.8	1.2
0.3079	12000	1063.1	1.2
0.3079	12500	1063.5	1.2
0.3079	13000	1063.8	1.2
0.3079	13500	1064.1	1.3
0.3079	14000	1064.4	1.3
0.3079	14500	1064.7	1.3
0.3079	15000	1065	1.3
0.3079	15500	1065.4	1.3
0.3079	16000	1065.6	1.3
0.3079	16500	1065.9	1.3
0.3079	16900	1066.2	1.3
0.3079	17500	1066.5	1.4
0.3079	18000	1066.7	1.4
0.3079	18500	1067.1	1.4
0.3079	19000	1067.4	1.4
0.3079	19400	1067.7	1.4
0.3079	20000	1068.2	1.4
0.4114	100	1052	0.8
0.4114	500	1052.3	0.8
0.4114	1000	1052.6	0.9
0.4114	1500	1052.9	0.9
0.4114	2000	1053.3	0.9
0.4114	2500	1053.6	0.9
0.4114	3000	1053.9	0.9
0.4114	3500	1054.3	0.9
0.4114	4000	1054.6	0.9
0.4114	4500	1054.9	0.9
0.4114	5000	1055.2	0.9
0.4114	5500	1055.5	0.9
0.4114	6000	1055.8	1
0.4114	6500	1056.1	1
0.4114	7000	1056.5	1
0.4114	7600	1056.7	1
0.4114	8000	1057.1	1
0.4114	8500	1057.4	1
0.4114	9000	1057.7	1
0.4114	9500	1058	1
0.4114	10000	1058.4	1
0.4114	10500	1058.7	1
0.4114	11000	1059	1.1
0.4114	11500	1059.3	1.1
0.4114	12000	1059.6	1.1
0.4114	12500	1059.9	1.1
0.4114	13000	1060.3	1.1
0.4114	13500	1060.6	1.1
0.4114	14000	1060.9	1.1
0.4114	14500	1061.2	1.1
0.4114	15000	1061.5	1.2
0.4114	15400	1061.8	1.2
0.4114	16000	1062	1.2
0.4114	16500	1062.4	1.2
0.4114	17000	1062.7	1.2
0.4114	17600	1063	1.2
0.4114	18000	1063.3	1.2
0.4114	18500	1063.5	1.2
0.4114	19000	1063.9	1.3
0.4114	19400	1064.1	1.3
0.4114	20100	1064.5	1.3
0.5049	100	1049	0.7
0.5049	500	1049.2	0.7
0.5049	1000	1049.5	0.8
0.5049	1500	1049.8	0.8
0.5049	2000	1050.1	0.8
0.5049	2500	1050.5	0.8
0.5049	3000	1050.8	0.8
0.5049	3500	1051.1	0.8
0.5049	4000	1051.4	0.8
0.5049	4500	1051.7	0.8
0.5049	5000	1052	0.8
0.5049	5500	1052.4	0.8
0.5049	6000	1052.7	0.9
0.5049	6500	1053	0.9
0.5049	7000	1053.3	0.9
0.5049	7500	1053.6	0.9
0.5049	8000	1054	0.9
0.5049	8500	1054.2	0.9
0.5049	9000	1054.5	0.9
0.5049	9500	1054.9	0.9
0.5049	10000	1055.2	0.9
0.5049	10500	1055.6	0.9
0.5049	11000	1055.9	1
0.5049	11500	1056.2	1
0.5049	12000	1056.4	1
0.5049	12500	1056.7	1
0.5049	13000	1057	1
0.5049	13500	1057.3	1
0.5049	13900	1057.6	1
0.5049	14500	1057.9	1
0.5049	15000	1058.2	1
0.5049	15500	1058.5	1.1
0.5049	16000	1058.8	1.1
0.5049	16500	1059.1	1.1
0.5049	17000	1059.4	1.1
0.5049	17500	1059.7	1.1
0.5049	18000	1059.9	1.1
0.5049	18500	1060.2	1.1
0.5049	19000	1060.6	1.1
0.5049	19500	1060.9	1.2
0.5049	20000	1061.2	1.2
0.6008	100	1045.6	0.7
0.6008	500	1045.8	0.7
0.6008	1000	1046.1	0.7
0.6008	1500	1046.4	0.7
0.6008	2000	1046.7	0.7
0.6008	2500	1047	0.7
0.6008	3000	1047.3	0.7
0.6008	3500	1047.6	0.7
0.6008	4000	1047.9	0.7
0.6008	4500	1048.2	0.7
0.6008	5000	1048.5	0.7
0.6008	5500	1048.9	0.7
0.6008	5900	1049.2	0.8
0.6008	6500	1049.4	0.8
0.6008	7000	1049.7	0.8
0.6008	7500	1050	0.8
0.6008	8000	1050.3	0.8
0.6008	8500	1050.6	0.8
0.6008	9000	1050.9	0.8
0.6008	9500	1051.2	0.8
0.6008	10000	1051.6	0.8
0.6008	10500	1051.9	0.8
0.6008	11000	1052.2	0.9
0.6008	11500	1052.4	0.9
0.6008	12000	1052.7	0.9
0.6008	12500	1053	0.9
0.6008	13000	1053.3	0.9
0.6008	13500	1053.6	0.9
0.6008	14000	1053.9	0.9
0.6008	14500	1054.2	0.9
0.6008	15000	1054.5	0.9
0.6008	15500	1054.8	0.9
0.6008	16000	1055.1	1
0.6008	16500	1055.4	1
0.6008	17000	1055.6	1
0.6008	17500	1055.9	1
0.6008	17900	1056.2	1
0.6008	18500	1056.5	1
0.6008	19000	1056.8	1
0.6008	19500	1057	1
0.6008	20000	1057.5	1.1
0.7023	100	1041.6	0.6
0.7023	500	1041.8	0.6
0.7023	1000	1042.1	0.6
0.7023	1500	1042.4	0.6
0.7023	2000	1042.7	0.6
0.7023	2500	1043	0.6
0.7023	3000	1043.3	0.6
0.7023	3500	1043.6	0.6
0.7023	4000	1043.9	0.6
0.7023	4500	1044.2	0.6
0.7023	5000	1044.4	0.7
0.7023	5500	1044.7	0.7
0.7023	6000	1045	0.7
0.7023	6500	1045.3	0.7
0.7023	7000	1045.6	0.7
0.7023	7500	1045.9	0.7
0.7023	8000	1046.2	0.7
0.7023	8500	1046.5	0.7
0.7023	9000	1046.8	0.7
0.7023	9500	1047.1	0.7
0.7023	10000	1047.4	0.7
0.7023	10500	1047.7	0.7
0.7023	11000	1048	0.8
0.7023	11500	1048.2	0.8
0.7023	12000	1048.5	0.8
0.7023	12500	1048.8	0.8
0.7023	13000	1049.2	0.8
0.7023	13400	1049.5	0.8
0.7023	14000	1049.7	0.8
0.7023	14500	1050	0.8
0.7023	15000	1050.3	0.8
0.7023	15500	1050.6	0.8
0.7023	16000	1050.8	0.9
0.7023	16500	1051	0.9
0.7023	17000	1051.3	0.9
0.7023	17500	1051.6	0.9
0.7023	18000	1051.8	0.9
0.7023	18500	1052.1	0.9
0.7023	19000	1052.4	0.9
0.7023	19500	1052.8	0.9
0.7023	20000	1053	0.9
0.8009	100	1037.5	0.5
0.8009	500	1037.7	0.5
0.8009	1000	1038	0.5
0.8009	1500	1038.3	0.5
0.8009	2000	1038.6	0.5
0.8009	2500	1038.9	0.5
0.8009	3000	1039.1	0.5
0.8009	3500	1039.4	0.6
0.8009	4000	1039.7	0.6
0.8009	4500	1040	0.6
0.8009	5000	1040.3	0.6
0.8009	5500	1040.5	0.6
0.8009	6000	1040.8	0.6
0.8009	6500	1041.1	0.6
0.8009	7000	1041.4	0.6
0.8009	7500	1041.7	0.6
0.8009	8000	1041.9	0.6
0.8009	8500	1042.2	0.6
0.8009	9000	1042.5	0.6
0.8009	9500	1042.8	0.6
0.8009	10000	1043.1	0.7
0.8009	10500	1043.4	0.7
0.8009	11000	1043.6	0.7
0.8009	11500	1044	0.7
0.8009	12000	1044.2	0.7
0.8009	12500	1044.5	0.7
0.8009	13000	1044.8	0.7
0.8009	13500	1045.1	0.7
0.8009	14000	1045.3	0.7
0.8009	14400	1045.6	0.7
0.8009	15000	1045.9	0.7
0.8009	15500	1046.2	0.8
0.8009	16000	1046.4	0.8
0.8009	16500	1046.6	0.8
0.8009	17000	1046.9	0.8
0.8009	17500	1047.2	0.8
0.8009	18000	1047.5	0.8
0.8009	18400	1047.6	0.8
0.8009	19000	1048	0.8
0.8009	19500	1048.2	0.8
0.8009	20000	1048.7	0.8
0.8972	100	1033.1	0.5
0.8972	500	1033.4	0.5
0.8972	1000	1033.6	0.5
0.8972	1500	1033.9	0.5
0.8972	2000	1034.2	0.5
0.8972	2500	1034.4	0.5
0.8972	3000	1034.7	0.5
0.8972	3500	1035	0.5
0.8972	4000	1035.3	0.5
0.8972	4500	1035.5	0.5
0.8972	5000	1035.8	0.5
0.8972	5500	1036.1	0.5
0.8972	6000	1036.4	0.5
0.8972	6500	1036.6	0.5
0.8972	7000	1036.9	0.5
0.8972	7500	1037.2	0.5
0.8972	8000	1037.4	0.6
0.8972	8500	1037.8	0.6
0.8972	9000	1038	0.6
0.8972	9500	1038.2	0.6
0.8972	10000	1038.6	0.6
0.8972	10500	1038.8	0.6
0.8972	11000	1039.1	0.6
0.8972	11500	1039.3	0.6
0.8972	12000	1039.6	0.6
0.8972	12500	1039.8	0.6
0.8972	13000	1040.1	0.6
0.8972	13500	1040.4	0.6
0.8972	14000	1040.6	0.6
0.8972	14500	1041	0.7
0.8972	15000	1041.2	0.7
0.8972	15500	1041.4	0.7
0.8972	16000	1041.7	0.7
0.8972	16500	1041.9	0.7
0.8972	17000	1042.2	0.7
0.8972	17500	1042.5	0.7
0.8972	18000	1042.7	0.7
0.8972	18500	1043	0.7
0.8972	19000	1043.2	0.7
0.8972	19500	1043.5	0.7
0.8972	20000	1043.8	0.7
