Measured thermophysical data. Vapor-Liquid Equilibrium of Ammonia + Lithium Nitrate + Water and Ammonia + Lithium Nitrate Solutions from (293.15 to 353.15) K
Source: J. Chem. Eng. Data, 2007, 10.1021/je7000045
Compound 1: ammonia, H3N, InChI=1S/H3N/h1H3
Compound 2: lithium nitrate, LiNO3, InChI=1S/Li.NO3/c;2-1(3)4/q+1;-1
Compound 3: water, H2O, InChI=1S/H2O/h1H2

System: ammonia + lithium nitrate; phases: Liquid, Gas
Property: Vapor or sublimation pressure, kPa (Liquid); method: Closed cell (Static) method
Temperature, K	Mass fraction of ammonia	Vapor or sublimation pressure, kPa	uncertainty
293.07	0.4975	239.5	1
293.08	0.6475	618	2
293.09	0.446	140.4	0.7
293.09	0.5466	362.8	1.3
293.12	0.5986	502.4	1.6
293.14	0.3981	80.67	0.29
293.15	0.3492	43.01	0.18
303.1	0.5971	695.1	2.3
303.11	0.4465	213.1	0.9
303.12	0.4966	347.6	1.2
303.13	0.3487	68.32	0.25
303.14	0.3986	126.3	0.44
303.15	0.5451	511.6	1.7
303.15	0.6471	851.6	2.7
313.09	0.3978	188.5	0.8
313.1	0.5432	700.3	2.3
313.1	0.5947	936.4	3
313.1	0.6457	1139.5	3.7
313.12	0.4462	311	1.1
313.14	0.3478	104.25	0.37
313.15	0.4959	491.3	1.6
323.09	0.3467	153.5	0.8
323.11	0.3968	273.1	1.1
323.11	0.5921	1235	4
323.11	0.6442	1496.8	4.8
323.14	0.5407	936.4	3.1
323.15	0.4949	675.3	2.2
323.16	0.4434	431.9	1.5
333.08	0.4935	903.5	3
333.09	0.3953	383.2	1.3
333.1	0.3452	218.9	0.9
333.13	0.5378	1223.7	4
333.13	0.5893	1598.2	5.2
333.16	0.4408	586.6	2
333.17	0.6426	1932.6	6.2
343.08	0.3438	304	1.1
343.08	0.3934	523.9	1.8
343.13	0.4378	777.5	2.6
343.15	0.4917	1186.5	3.9
343.15	0.5345	1567.6	5.1
353.06	0.342	409.4	1.4
353.08	0.4897	1522.5	5
353.1	0.3913	699.3	2.4
353.15	0.4341	1007.2	3.4

System: ammonia + water + lithium nitrate; phases: Liquid, Gas
Property: Vapor or sublimation pressure, kPa (Liquid); method: Closed cell (Static) method
Temperature, K	Mass fraction of ammonia	Solvent: Mass fraction of water	Vapor or sublimation pressure, kPa	uncertainty
293.06	0.299	0.2	36.35	0.21
293.07	0.2005	0.25	12.65	0.12
293.07	0.5508	0.2	406.5	2.1
293.07	0.5968	0.25	521.5	2.66
293.08	0.3981	0.3	131.22	0.89
293.08	0.3982	0.2	113.52	0.59
293.08	0.4475	0.2	184.9	1.1
293.08	0.5478	0.3	420.5	2.16
293.09	0.4995	0.2	286.8	1.54
293.09	0.5023	0.3	317.8	1.68
293.1	0.3006	0.3	47.2	0.26
293.1	0.5492	0.25	412.4	2.13
293.11	0.1993	0.3	14.49	0.13
293.11	0.3021	0.25	42.35	0.24
293.11	0.4452	0.25	192.9	1.13
293.11	0.5003	0.25	300.4	1.6
293.12	0.1994	0.2	10.71	0.12
293.13	0.4491	0.3	210.6	1.21
293.14	0.3975	0.25	121.85	0.63
303.08	0.4996	0.2	412.9	2.13
303.11	0.3001	0.3	74.02	0.39
303.14	0.5	0.25	429.3	2.2
303.14	0.5498	0.2	572.1	2.92
303.15	0.2007	0.25	20.91	0.15
303.15	0.3986	0.3	198.6	1.15
303.15	0.4994	0.3	445.2	2.28
303.15	0.5486	0.25	578.4	2.95
303.16	0.3972	0.2	170.2	1.04
303.16	0.4476	0.2	273.3	1.48
303.17	0.1995	0.2	17.75	0.14
303.18	0.446	0.25	286	1.54
303.18	0.4493	0.3	309.2	1.64
303.19	0.5483	0.3	592.3	3.02
303.22	0.3975	0.25	184	1.09
303.26	0.1997	0.3	24.07	0.16
303.27	0.3024	0.25	67.75	0.36
303.3	0.2993	0.2	58.74	0.31
303.3	0.5972	0.25	728.9	3.71
313.07	0.1996	0.2	28.13	0.18
313.07	0.3971	0.2	248.1	1.37
313.07	0.4485	0.3	435.1	2.23
313.08	0.299	0.2	89.06	0.46
313.08	0.4987	0.2	574.9	2.93
313.1	0.1987	0.3	37.11	0.22
313.11	0.2005	0.25	32.96	0.2
313.11	0.2991	0.3	111.7	0.58
313.11	0.5478	0.25	788.1	4.01
313.12	0.4456	0.25	405.9	2.09
313.12	0.4479	0.2	391.5	2.03
313.13	0.3017	0.25	102.06	0.53
313.13	0.4986	0.3	616	3.14
313.13	0.5483	0.2	781.5	3.98
313.13	0.5484	0.3	807.2	4.11
313.16	0.5968	0.25	980	4.99
313.17	0.4991	0.25	595.6	3.04
313.18	0.3983	0.3	288.7	1.55
313.19	0.3974	0.25	268	1.46
323.08	0.4471	0.2	541.4	2.76
323.08	0.4977	0.2	780.9	3.98
323.09	0.2981	0.2	131.43	0.89
323.09	0.3012	0.25	150.3	0.96
323.09	0.3967	0.2	352.5	1.84
323.09	0.5961	0.25	1292.4	6.57
323.1	0.1997	0.25	49.88	0.27
323.1	0.3976	0.3	405.8	2.09
323.1	0.4474	0.3	599.5	3.05
323.1	0.4978	0.3	831.8	4.23
323.1	0.5479	0.3	1074.6	5.47
323.11	0.2981	0.3	163.3	1.01
323.12	0.5471	0.25	1052.6	5.35
323.13	0.1987	0.3	56.78	0.31
323.13	0.1988	0.2	42.88	0.24
323.13	0.5469	0.2	1045.9	5.32
323.14	0.397	0.25	378.4	1.96
323.14	0.4449	0.25	561.3	2.86
323.17	0.4981	0.25	806	4.1
333.08	0.1983	0.2	63.39	0.34
333.08	0.4464	0.3	806.1	4.1
333.08	0.497	0.3	1101.3	5.6
333.09	0.1993	0.25	73.57	0.38
333.09	0.2978	0.2	189.6	1.12
333.09	0.4466	0.2	734.3	3.74
333.09	0.4967	0.2	1038.7	5.28
333.1	0.3966	0.3	556.5	2.84
333.1	0.444	0.25	756.5	3.85
333.1	0.5959	0.25	1678.5	8.53
333.11	0.297	0.3	232.3	1.3
333.11	0.3965	0.2	488.9	2.49
333.11	0.548	0.3	1408.1	7.16
333.13	0.1985	0.3	83.81	0.44
333.13	0.3004	0.25	215.1	1.22
333.13	0.3961	0.25	520.3	2.65
333.13	0.4971	0.25	1066.6	5.43
333.14	0.5455	0.2	1371.7	6.97
333.16	0.5463	0.25	1379	7.01
341.95	0.5965	0.25	2090	10.62
343.07	0.4451	0.3	1060.7	5.4
343.07	0.4955	0.2	1351.9	6.87
343.09	0.198	0.2	91.45	0.47
343.09	0.4429	0.25	998.4	5.08
343.09	0.5483	0.3	1809.6	9.19
343.1	0.1987	0.3	120.95	0.62
343.1	0.2962	0.3	322.8	1.71
343.1	0.3954	0.3	745.6	3.8
343.1	0.5455	0.25	1769.8	8.99
343.11	0.1991	0.25	106.01	0.55
343.11	0.3959	0.2	660.2	3.36
343.12	0.2974	0.2	266.5	1.45
343.12	0.4958	0.25	1383.7	7.03
343.12	0.5439	0.2	1764.3	8.96
343.14	0.3951	0.25	698.7	3.56
343.14	0.4458	0.2	974	4.96
343.17	0.2997	0.25	300.4	1.6
343.19	0.496	0.3	1432.7	7.28
353.07	0.3942	0.3	977.8	4.98
353.08	0.1986	0.3	169.4	1.03
353.09	0.297	0.2	364.8	1.91
353.11	0.4416	0.25	1291.5	6.57
353.11	0.4448	0.2	1262	6.42
353.12	0.2988	0.25	407.4	2.1
353.13	0.1991	0.25	149	0.95
353.13	0.4436	0.3	1370.6	6.97
353.13	0.4952	0.3	1826.2	9.28
353.14	0.3939	0.25	917.5	4.67
353.15	0.3948	0.2	869.9	4.43
353.16	0.1979	0.2	129.08	0.67
353.16	0.2952	0.3	438.6	2.25
353.16	0.4948	0.25	1768.3	8.98
353.17	0.4943	0.2	1734.3	8.81
