Measured thermophysical data. Liquid Liquid Equilibria for the Ternary Systems Water + n-Pentanoic Acid with n-Heptane or Dichloromethane at 298.2 K
Source: J. Chem. Eng. Data, 2008, 10.1021/je7007389
Compound 1: dichloromethane, CH2Cl2, InChI=1S/CH2Cl2/c2-1-3/h1H2
Compound 2: heptane, C7H16, InChI=1S/C7H16/c1-3-5-7-6-4-2/h3-7H2,1-2H3
Compound 3: pentanoic acid, C5H10O2, InChI=1S/C5H10O2/c1-2-3-4-5(6)7/h2-4H2,1H3,(H,6,7)
Compound 4: water, H2O, InChI=1S/H2O/h1H2

System: pentanoic acid + heptane + water; phases: Liquid mixture 2, Liquid mixture 1
Fixed: Temperature, K = 298.2
Fixed: Pressure, kPa = 101
Property: Mole fraction of pentanoic acid (Liquid mixture 2); method: CHROM:UFactor:8
Property: Mole fraction of pentanoic acid (Liquid mixture 1); method: CHROM:UFactor:8
Property: Mole fraction of water (Liquid mixture 1); method: CHROM:UFactor:8
Mole fraction of water	Mole fraction of pentanoic acid	uncertainty	Mole fraction of pentanoic acid	uncertainty	Mole fraction of water	uncertainty
0.9962	0.0038	0.0004	0.152	0.0097	0.0136	
0.9959	0.0041	0.0004	0.2558	0.0159	0.0229	
0.9953	0.0047	0.0004	0.3725	0.0231	0.0469	
0.995	0.005	0.0004	0.4546	0.0282	0.0597	
0.9948	0.0052	0.0004	0.5147	0.0301	0.0871	
0.9945	0.0055	0.0004	0.595	0.0251	0.1015	
0.9943	0.0057	0.0004	0.6243	0.0233	0.1494	
0.994	0.006	0.0004	0.6202	0.0235	0.2117	
0.9937	0.0063	0.0005	0.6165	0.0238	0.2752	
0.9935	0.0065	0.0005	0.5838	0.0258	0.3582	
0.9932	0.0068	0.0005	0.5586	0.0274	0.4187	

System: dichloromethane + pentanoic acid + water; phases: Liquid mixture 1, Liquid mixture 2
Fixed: Temperature, K = 298.2
Fixed: Pressure, kPa = 101
Property: Mole fraction of pentanoic acid (Liquid mixture 1); method: CHROM:UFactor:8
Property: Mole fraction of water (Liquid mixture 2); method: CHROM:UFactor:8
Property: Mole fraction of pentanoic acid (Liquid mixture 2); method: CHROM:UFactor:8
Mole fraction of water	Mole fraction of pentanoic acid	uncertainty	Mole fraction of water	uncertainty	Mole fraction of pentanoic acid	uncertainty
0.0579	0.2466	0.0153	0.9948	0.0005	0.0022	
0.0864	0.3415	0.0212	0.9941	0.0006	0.0029	
0.191	0.4655	0.0288	0.9939	0.0006	0.0034	
0.135	0.4417	0.0274	0.994	0.0006	0.0038	
0.2466	0.4928	0.0305	0.9935	0.0007	0.0047	
0.3602	0.5194	0.0298	0.9944	0.0005	0.0042	
0.4296	0.5136	0.0301	0.9947	0.0005	0.0041	
