Measured thermophysical data. Densities and Excess Molar Volumes for Binary Mixtures of 1,4-Butanediol + 1,2-Propanediol, + 1,3-Propanediol, and + Ethane-1,2-diol from (293.15 to 328.15) K
Source: J. Chem. Eng. Data, 2008, 10.1021/je700499d
Compound 1: 1,4-butanediol, C4H10O2, InChI=1S/C4H10O2/c5-3-1-2-4-6/h5-6H,1-4H2
Compound 2: 1,2-ethanediol, C2H6O2, InChI=1S/C2H6O2/c3-1-2-4/h3-4H,1-2H2
Compound 3: 1,2-propanediol, C3H8O2, InChI=1S/C3H8O2/c1-3(5)2-4/h3-5H,2H2,1H3
Compound 4: propan-1,3-diol, C3H8O2, InChI=1S/C3H8O2/c4-2-1-3-5/h4-5H,1-3H2

System: 1,4-butanediol; phases: Liquid
Fixed: Pressure, kPa = 101
Property: Mass density, kg/m3 (Liquid); method: PYCNOM:UFactor:2
Temperature, K	Mass density, kg/m3	uncertainty
293.15	1016.37	0.49
298.15	1013.04	0.51
303.15	1009.96	0.53
308.15	1006.75	0.55
313.15	1003.55	0.57
318.15	1000.72	0.59
323.15	997.8	0.61
328.15	994.41	0.64

System: 1,2-ethanediol; phases: Liquid
Fixed: Pressure, kPa = 101
Property: Mass density, kg/m3 (Liquid); method: PYCNOM:UFactor:2
Temperature, K	Mass density, kg/m3	uncertainty
293.15	1113.55	0.61
298.15	1109.86	0.63
303.15	1106.82	0.65
308.15	1103.2	0.67
313.15	1099.8	0.69
318.15	1096.23	0.71
323.15	1092.59	0.73
328.15	1088.66	0.75

System: 1,2-propanediol; phases: Liquid
Fixed: Pressure, kPa = 101
Property: Mass density, kg/m3 (Liquid); method: PYCNOM:UFactor:2
Temperature, K	Mass density, kg/m3	uncertainty
293.15	1036.57	0.54
298.15	1032.86	0.56
303.15	1029.15	0.58
308.15	1025.57	0.6
313.15	1021.44	0.62
318.15	1017.59	0.64
323.15	1013.74	0.66
328.15	1009.71	0.68

System: propan-1,3-diol; phases: Liquid
Fixed: Pressure, kPa = 101
Property: Mass density, kg/m3 (Liquid); method: PYCNOM:UFactor:2
Temperature, K	Mass density, kg/m3	uncertainty
293.15	1053.66	0.59
298.15	1050.29	0.61
303.15	1047.09	0.63
308.15	1043.92	0.65
313.15	1040.61	0.67
318.15	1037.6	0.69
323.15	1034.51	0.71
328.15	1031	0.73

System: 1,4-butanediol + propan-1,3-diol; phases: Liquid
Fixed: Pressure, kPa = 101
Property: Mass density, kg/m3 (Liquid); method: PYCNOM:UFactor:2
Temperature, K	Mole fraction of 1,4-butanediol	Mass density, kg/m3	uncertainty
293.15	0	1053.66	0.59
293.15	0.0858	1049.89	0.57
293.15	0.1743	1046.21	0.56
293.15	0.2657	1042.49	0.55
293.15	0.3602	1038.78	0.54
293.15	0.4578	1035.05	0.53
293.15	0.5588	1031.27	0.52
293.15	0.6633	1027.52	0.51
293.15	0.7716	1023.77	0.5
293.15	0.8837	1020.05	0.5
293.15	1	1016.37	0.49
298.15	0	1050.29	0.61
298.15	0.0858	1046.56	0.59
298.15	0.1743	1042.87	0.58
298.15	0.2657	1039.2	0.57
298.15	0.3602	1035.48	0.56
298.15	0.4578	1031.77	0.55
298.15	0.5588	1027.98	0.54
298.15	0.6633	1024.23	0.53
298.15	0.7716	1020.48	0.52
298.15	0.8837	1016.74	0.52
298.15	1	1013.04	0.51
303.15	0	1047.09	0.63
303.15	0.0858	1043.39	0.61
303.15	0.1743	1039.74	0.6
303.15	0.2657	1036.07	0.59
303.15	0.3602	1032.39	0.58
303.15	0.4578	1028.69	0.57
303.15	0.5523	1024.89	0.56
303.15	0.6574	1021.16	0.55
303.15	0.7669	1017.41	0.54
303.15	0.881	1013.68	0.54
303.15	1	1009.96	0.53
308.15	0	1043.92	0.65
308.15	0.0858	1040.26	0.63
308.15	0.1743	1036.61	0.62
308.15	0.2657	1032.95	0.61
308.15	0.3602	1029.26	0.6
308.15	0.4578	1025.57	0.59
308.15	0.5588	1021.77	0.58
308.15	0.6633	1018.03	0.57
308.15	0.7716	1014.27	0.56
308.15	0.8837	1010.51	0.56
308.15	1	1006.75	0.55
313.15	0	1040.61	0.67
313.15	0.0858	1036.99	0.65
313.15	0.1743	1033.39	0.64
313.15	0.2657	1029.75	0.63
313.15	0.3602	1026.07	0.62
313.15	0.4578	1022.39	0.61
313.15	0.5588	1018.61	0.6
313.15	0.6633	1014.87	0.59
313.15	0.7716	1011.08	0.58
313.15	0.8837	1007.33	0.58
313.15	1	1003.55	0.57
318.15	0	1037.6	0.69
318.15	0.0858	1034.04	0.68
318.15	0.1743	1030.48	0.66
318.15	0.2657	1026.88	0.65
318.15	0.3602	1023.21	0.64
318.15	0.4578	1019.53	0.63
318.15	0.5588	1015.78	0.62
318.15	0.6633	1012.06	0.61
318.15	0.7716	1008.27	0.6
318.15	0.8837	1004.52	0.6
318.15	1	1000.72	0.59
323.15	0	1034.51	0.71
323.15	0.0858	1030.99	0.7
323.15	0.1743	1027.5	0.68
323.15	0.2657	1023.9	0.67
323.15	0.3602	1020.26	0.66
323.15	0.4578	1016.6	0.65
323.15	0.5588	1012.86	0.64
323.15	0.6633	1009.17	0.63
323.15	0.7716	1005.36	0.63
323.15	0.8837	1001.61	0.62
323.15	1	997.8	0.61
328.15	0	1031	0.73
328.15	0.0858	1027.53	0.72
328.15	0.1743	1024.08	0.71
328.15	0.2657	1020.5	0.69
328.15	0.3602	1016.86	0.68
328.15	0.4578	1013.22	0.67
328.15	0.5588	1009.51	0.66
328.15	0.6633	1005.8	0.66
328.15	0.7716	1001.99	0.65
328.15	0.8837	998.24	0.64
328.15	1	994.41	0.64

System: 1,2-propanediol + 1,4-butanediol; phases: Liquid
Fixed: Pressure, kPa = 101
Property: Mass density, kg/m3 (Liquid); method: PYCNOM:UFactor:2
Temperature, K	Mole fraction of 1,4-butanediol	Mass density, kg/m3	uncertainty
293.15	0	1036.57	0.54
293.15	0.0858	1034.9	0.53
293.15	0.1743	1033.19	0.52
293.15	0.2657	1031.46	0.52
293.15	0.3602	1029.77	0.51
293.15	0.4578	1027.85	0.51
293.15	0.5588	1025.52	0.51
293.15	0.6633	1023.19	0.5
293.15	0.7716	1020.85	0.5
293.15	0.8837	1018.55	0.49
293.15	1	1016.37	0.49
298.15	0	1032.86	0.56
298.15	0.0858	1031.31	0.55
298.15	0.1743	1029.67	0.54
298.15	0.2657	1028	0.54
298.15	0.3602	1026.34	0.53
298.15	0.4578	1024.48	0.53
298.15	0.5588	1022.17	0.53
298.15	0.6633	1019.88	0.52
298.15	0.7716	1017.57	0.52
298.15	0.8837	1015.25	0.51
298.15	1	1013.04	0.51
303.15	0	1029.15	0.58
303.15	0.0858	1027.73	0.57
303.15	0.1743	1026.21	0.56
303.15	0.2657	1024.62	0.56
303.15	0.3602	1023.01	0.55
303.15	0.4578	1021.19	0.55
303.15	0.5588	1018.94	0.55
303.15	0.6633	1016.79	0.54
303.15	0.7716	1014.47	0.54
303.15	0.8837	1012.17	0.53
303.15	1	1009.96	0.53
308.15	0	1025.57	0.6
308.15	0.0858	1024.25	0.59
308.15	0.1743	1022.83	0.59
308.15	0.2657	1021.31	0.58
308.15	0.3602	1019.74	0.58
308.15	0.4578	1018	0.57
308.15	0.5588	1015.76	0.57
308.15	0.6633	1013.64	0.56
308.15	0.7716	1011.33	0.56
308.15	0.8837	1009.03	0.55
308.15	1	1006.75	0.55
313.15	0	1021.44	0.62
313.15	0.0858	1020.28	0.61
313.15	0.1743	1019	0.61
313.15	0.2657	1017.64	0.6
313.15	0.3602	1016.12	0.6
313.15	0.4578	1014.43	0.59
313.15	0.5588	1012.35	0.59
313.15	0.6633	1010.33	0.58
313.15	0.7716	1008.06	0.58
313.15	0.8837	1005.78	0.57
313.15	1	1003.55	0.57
318.15	0	1017.59	0.64
318.15	0.0858	1016.58	0.63
318.15	0.1743	1015.49	0.63
318.15	0.2657	1014.21	0.62
318.15	0.3602	1012.83	0.62
318.15	0.4578	1011.22	0.61
318.15	0.5588	1009.28	0.61
318.15	0.6633	1007.33	0.6
318.15	0.7716	1005.16	0.6
318.15	0.8837	1002.94	0.59
318.15	1	1000.72	0.59
323.15	0	1013.74	0.66
323.15	0.0858	1012.91	0.65
323.15	0.1743	1011.97	0.65
323.15	0.2657	1010.78	0.64
323.15	0.3602	1009.47	0.64
323.15	0.4578	1007.97	0.63
323.15	0.5588	1006.13	0.63
323.15	0.6633	1004.3	0.62
323.15	0.7716	1002.18	0.62
323.15	0.8837	1000.03	0.62
323.15	1	997.8	0.61
328.15	0	1009.71	0.68
328.15	0.0858	1009	0.67
328.15	0.1743	1008.2	0.67
328.15	0.2657	1007.11	0.66
328.15	0.3602	1005.84	0.66
328.15	0.4578	1004.39	0.66
328.15	0.5588	1002.63	0.65
328.15	0.6633	1000.83	0.65
328.15	0.7716	998.81	0.64
328.15	0.8837	996.69	0.64
328.15	1	994.41	0.64

System: 1,2-ethanediol + 1,4-butanediol; phases: Liquid
Fixed: Pressure, kPa = 101
Property: Mass density, kg/m3 (Liquid); method: PYCNOM:UFactor:2
Temperature, K	Mole fraction of 1,4-butanediol	Mass density, kg/m3	uncertainty
293.15	0	1113.55	0.61
293.15	0.0711	1102.71	0.6
293.15	0.1469	1092.13	0.58
293.15	0.2279	1081.71	0.57
293.15	0.3147	1071.48	0.56
293.15	0.4078	1061.52	0.54
293.15	0.5081	1051.91	0.53
293.15	0.6164	1042.67	0.52
293.15	0.7337	1033.74	0.51
293.15	0.8611	1024.96	0.5
293.15	1	1016.37	0.49
298.15	0	1109.86	0.63
298.15	0.0711	1099.09	0.61
298.15	0.1469	1088.58	0.6
298.15	0.2279	1078.21	0.59
298.15	0.3147	1068.02	0.57
298.15	0.4078	1058.12	0.56
298.15	0.5081	1048.56	0.55
298.15	0.6164	1039.34	0.54
298.15	0.7337	1030.4	0.53
298.15	0.8611	1021.64	0.52
298.15	1	1013.04	0.51
303.15	0	1106.82	0.65
303.15	0.0711	1096.06	0.63
303.15	0.1469	1085.57	0.62
303.15	0.2279	1075.22	0.61
303.15	0.3147	1065.04	0.59
303.15	0.4078	1055.16	0.58
303.15	0.5081	1045.58	0.57
303.15	0.6164	1036.35	0.56
303.15	0.7337	1027.39	0.55
303.15	0.8611	1018.61	0.54
303.15	1	1009.96	0.53
308.15	0	1103.2	0.67
308.15	0.0711	1092.51	0.65
308.15	0.1469	1082.1	0.64
308.15	0.2279	1071.84	0.63
308.15	0.3147	1061.7	0.61
308.15	0.4078	1051.85	0.6
308.15	0.5081	1042.33	0.59
308.15	0.6164	1033.12	0.58
308.15	0.7337	1024.17	0.57
308.15	0.8611	1015.41	0.56
308.15	1	1006.75	0.55
313.15	0	1099.8	0.69
313.15	0.0711	1089.15	0.67
313.15	0.1469	1078.8	0.66
313.15	0.2279	1068.56	0.65
313.15	0.3147	1058.5	0.64
313.15	0.4078	1048.65	0.62
313.15	0.5081	1039.15	0.61
313.15	0.6164	1029.95	0.6
313.15	0.7337	1020.99	0.59
313.15	0.8611	1012.22	0.58
313.15	1	1003.55	0.57
318.15	0	1096.23	0.71
318.15	0.0711	1085.69	0.7
318.15	0.1469	1075.44	0.68
318.15	0.2279	1065.32	0.67
318.15	0.3147	1055.33	0.66
318.15	0.4078	1045.62	0.64
318.15	0.5081	1036.15	0.63
318.15	0.6164	1027.01	0.62
318.15	0.7337	1018.1	0.61
318.15	0.8611	1009.36	0.6
318.15	1	1000.72	0.59
323.15	0	1092.59	0.73
323.15	0.0711	1082.18	0.72
323.15	0.1469	1072.03	0.7
323.15	0.2279	1061.97	0.69
323.15	0.3147	1052.09	0.68
323.15	0.4078	1042.43	0.67
323.15	0.5081	1033.05	0.65
323.15	0.6164	1023.96	0.64
323.15	0.7337	1015.11	0.63
323.15	0.8611	1006.4	0.62
323.15	1	997.8	0.61
328.15	0	1088.66	0.75
328.15	0.0711	1078.33	0.74
328.15	0.1469	1068.25	0.72
328.15	0.2279	1058.28	0.71
328.15	0.3147	1048.46	0.7
328.15	0.4078	1038.86	0.69
328.15	0.5081	1029.53	0.67
328.15	0.6164	1020.51	0.66
328.15	0.7337	1011.66	0.65
328.15	0.8611	1002.99	0.64
328.15	1	994.41	0.64
