Measured thermophysical data. Vapor Pressure and Enthalpy of Vaporization of Fentanyl
Source: J. Chem. Eng. Data, 2008, 10.1021/je7005067
Compound 1: fentanyl, C22H28N2O, InChI=1S/C22H28N2O/c1-2-22(25)24(20-11-7-4-8-12-20)21-14-17-23(18-15-21)16-13-19-9-5-3-6-10-19/h3-12,21H,2,13-18H2,1H3
Compound 2: bis(2-ethylhexyl) 1,2-benzenedicarboxylate, C24H38O4, InChI=1S/C24H38O4/c1-5-9-13-19(7-3)17-27-23(25)21-15-11-12-16-22(21)24(26)28-18-20(8-4)14-10-6-2/h11-12,15-16,19-20H,5-10,13-14,17-18H2,1-4H3

System: fentanyl; phases: Crystal, Liquid, Air at 1 atmosphere
Property: Molar enthalpy of transition or fusion, kJ/mol (Crystal); method: DSC
Molar enthalpy of transition or fusion, kJ/mol	uncertainty
30.1	6

System: fentanyl; phases: Crystal, Liquid, Air at 1 atmosphere
Property: Normal melting temperature, K (Crystal); method: DTA
Normal melting temperature, K	uncertainty
358.3	0.5

System: fentanyl; phases: Liquid, Gas
Property: Vapor or sublimation pressure, kPa (Liquid); method: thermogravimetric analysis- calculated from rates of vaporization correlated to benzoic acid
Temperature, K	Vapor or sublimation pressure, kPa	uncertainty
423.15	0.0013	0.002
433.15	0.0036	0.002
443.15	0.0069	0.002
453.15	0.0149	0.002
463.15	0.022	0.002
473.15	0.0422	0.002
483.15	0.0735	0.002
493.15	0.1033	0.002

System: bis(2-ethylhexyl) 1,2-benzenedicarboxylate; phases: Liquid, Gas
Property: Vapor or sublimation pressure, kPa (Liquid); method: RATEVAP:UFactor:2
Temperature, K	Vapor or sublimation pressure, kPa	uncertainty
423.15	0.008	0.0023
433.15	0.017	0.0031
443.15	0.0326	0.0051
448.15	0.0419	0.0065
453.15	0.0655	0.0101
463.15	0.1154	0.0179
473.15	0.1874	0.029
