Measured thermophysical data. Solubilities of the Gaseous and Liquid Solutes and Their Thermodynamics of Solubilization in the Novel Room-Temperature Ionic Liquids at Infinite Dilution by Gas Chromatography
Source: J. Chem. Eng. Data, 2007, 10.1021/je700297c
Compound 1: 3-(3-cyanopropyl)-1-methylimidazolium 1,1,1-trifluoro-N-[(trifluoromethyl)sulfonyl]methanesulfonamide, C10H12F6N4O4S2, InChI=1S/C8H12N3.C2F6NO4S2/c1-10-6-7-11(8-10)5-3-2-4-9;3-1(4,5)14(10,11)9-15(12,13)2(6,7)8/h6-8H,2-3,5H2,1H3;/q+1;-1
Compound 2: 3-(3-cyanopropyl)-1,2-dimethylimidazolium 1,1,1-trifluoro-N-[(trifluoromethyl)sulfonyl]methanesulfonamide, C11H14F6N4O4S2, InChI=1S/C9H14N3.C2F6NO4S2/c1-9-11(2)7-8-12(9)6-4-3-5-10;3-1(4,5)14(10,11)9-15(12,13)2(6,7)8/h7-8H,3-4,6H2,1-2H3;/q+1;-1
Compound 3: 1-(3-cyanopropyl)-3-methylimidazolium cyanocyanamide, C10H12N6, InChI=1S/C8H12N3.C2N3/c1-10-6-7-11(8-10)5-3-2-4-9;3-1-5-2-4/h6-8H,2-3,5H2,1H3;/q+1;-1
Compound 4: 3-(3-cyanopropyl)-1,2-dimethylimidazolium cyanocyanamide, C11H14N6, InChI=1S/C9H14N3.C2N3/c1-9-11(2)7-8-12(9)6-4-3-5-10;3-1-5-2-4/h7-8H,3-4,6H2,1-2H3;/q+1;-1
Compound 5: 1-butyl-3-methylimidazolium hexadecanoate, C24H46N2O2, InChI=1S/C16H32O2.C8H15N2/c1-2-3-4-5-6-7-8-9-10-11-12-13-14-15-16(17)18;1-3-4-5-10-7-6-9(2)8-10/h2-15H2,1H3,(H,17,18);6-8H,3-5H2,1-2H3/q;+1/p-1
Compound 6: 1-butyl-3-methylimidazolium octadecanoate, C26H50N2O2, InChI=1S/C18H36O2.C8H15N2/c1-2-3-4-5-6-7-8-9-10-11-12-13-14-15-16-17-18(19)20;1-3-4-5-10-7-6-9(2)8-10/h2-17H2,1H3,(H,19,20);6-8H,3-5H2,1-2H3/q;+1/p-1
Compound 7: 1-butyl-3-methylimidazolium tetrafluoroborate, C8H15BF4N2, InChI=1S/C8H15N2.BF4/c1-3-4-5-10-7-6-9(2)8-10;2-1(3,4)5/h6-8H,3-5H2,1-2H3;/q+1;-1
Compound 8: 1-methyl-3-octylimidazolium tetrafluoroborate, C12H23BF4N2, InChI=1S/C12H23N2.BF4/c1-3-4-5-6-7-8-9-14-11-10-13(2)12-14;2-1(3,4)5/h10-12H,3-9H2,1-2H3;/q+1;-1
Compound 9: 1-butyl-3-methylimidazolium bis(trifluoromethylsulfonyl)imide, C10H15F6N3O4S2, InChI=1S/C8H15N2.C2F6NO4S2/c1-3-4-5-10-7-6-9(2)8-10;3-1(4,5)14(10,11)9-15(12,13)2(6,7)8/h6-8H,3-5H2,1-2H3;/q+1;-1
Compound 10: hexane, C6H14, InChI=1S/C6H14/c1-3-5-6-4-2/h3-6H2,1-2H3
Compound 11: heptane, C7H16, InChI=1S/C7H16/c1-3-5-7-6-4-2/h3-7H2,1-2H3
Compound 12: octane, C8H18, InChI=1S/C8H18/c1-3-5-7-8-6-4-2/h3-8H2,1-2H3
Compound 13: cyclohexane, C6H12, InChI=1S/C6H12/c1-2-4-6-5-3-1/h1-6H2
Compound 14: methylcyclohexane, C7H14, InChI=1S/C7H14/c1-7-5-3-2-4-6-7/h7H,2-6H2,1H3
Compound 15: hex-1-ene, C6H12, InChI=1S/C6H12/c1-3-5-6-4-2/h3H,1,4-6H2,2H3
Compound 16: oct-1-ene, C8H16, InChI=1S/C8H16/c1-3-5-7-8-6-4-2/h3H,1,4-8H2,2H3
Compound 17: benzene, C6H6, InChI=1S/C6H6/c1-2-4-6-5-3-1/h1-6H
Compound 18: toluene, C7H8, InChI=1S/C7H8/c1-7-5-3-2-4-6-7/h2-6H,1H3
Compound 19: methanol, CH4O, InChI=1S/CH4O/c1-2/h2H,1H3
Compound 20: ethanol, C2H6O, InChI=1S/C2H6O/c1-2-3/h3H,2H2,1H3
Compound 21: ethyl acetate, C4H8O2, InChI=1S/C4H8O2/c1-3-6-4(2)5/h3H2,1-2H3
Compound 22: tetrahydrofuran, C4H8O, InChI=1S/C4H8O/c1-2-4-5-3-1/h1-4H2
Compound 23: thiophene, C4H4S, InChI=1S/C4H4S/c1-2-4-5-3-1/h1-4H
Compound 24: carbon dioxide, CO2, InChI=1S/CO2/c2-1-3
Compound 25: ethene, C2H4, InChI=1S/C2H4/c1-2/h1-2H2
Compound 26: water, H2O, InChI=1S/H2O/h1H2

System: hex-1-ene + 1-butyl-3-methylimidazolium octadecanoate; phases: Liquid, Gas
Fixed: Mole fraction of hex-1-ene = 0
Property: Activity coefficient of hex-1-ene (Liquid); method: Chromatography
Temperature, K	Activity coefficient of hex-1-ene	uncertainty
323	1.4	0.1
333	1.2	0.1

System: oct-1-ene + 1-butyl-3-methylimidazolium octadecanoate; phases: Liquid, Gas
Fixed: Mole fraction of oct-1-ene = 0
Property: Activity coefficient of oct-1-ene (Liquid); method: Chromatography
Temperature, K	Activity coefficient of oct-1-ene	uncertainty
323	1.7	0.1
333	1.4	0.1

System: benzene + 1-butyl-3-methylimidazolium octadecanoate; phases: Liquid, Gas
Fixed: Mole fraction of benzene = 0
Property: Activity coefficient of benzene (Liquid); method: Chromatography
Temperature, K	Activity coefficient of benzene	uncertainty
323	0.7	0.1
333	0.7	0.1

System: toluene + 1-butyl-3-methylimidazolium octadecanoate; phases: Liquid, Gas
Fixed: Mole fraction of toluene = 0
Property: Activity coefficient of toluene (Liquid); method: Chromatography
Temperature, K	Activity coefficient of toluene	uncertainty
323	0.8	0.1
333	0.8	0.1

System: methanol + 1-butyl-3-methylimidazolium octadecanoate; phases: Liquid, Gas
Fixed: Mole fraction of methanol = 0
Property: Activity coefficient of methanol (Liquid); method: Chromatography
Temperature, K	Activity coefficient of methanol	uncertainty
323	0.3	0.1
333	0.3	0.1

System: ethanol + 1-butyl-3-methylimidazolium octadecanoate; phases: Liquid, Gas
Fixed: Mole fraction of ethanol = 0
Property: Activity coefficient of ethanol (Liquid); method: Chromatography
Temperature, K	Activity coefficient of ethanol	uncertainty
323	0.5	0.1
333	0.4	0.1

System: ethyl acetate + 1-butyl-3-methylimidazolium octadecanoate; phases: Liquid, Gas
Fixed: Mole fraction of ethyl acetate = 0
Property: Activity coefficient of ethyl acetate (Liquid); method: Chromatography
Temperature, K	Activity coefficient of ethyl acetate	uncertainty
323	1.1	0.1
333	1.1	0.1

System: tetrahydrofuran + 1-butyl-3-methylimidazolium octadecanoate; phases: Liquid, Gas
Fixed: Mole fraction of tetrahydrofuran = 0
Property: Activity coefficient of tetrahydrofuran (Liquid); method: Chromatography
Temperature, K	Activity coefficient of tetrahydrofuran	uncertainty
323	0.7	0.1
333	0.6	0.1

System: thiophene + 1-butyl-3-methylimidazolium octadecanoate; phases: Liquid, Gas
Fixed: Mole fraction of thiophene = 0
Property: Activity coefficient of thiophene (Liquid); method: Chromatography
Temperature, K	Activity coefficient of thiophene	uncertainty
323	0.8	0.1
333	0.8	0.1

System: hexane + 3-(3-cyanopropyl)-1-methylimidazolium 1,1,1-trifluoro-N-[(trifluoromethyl)sulfonyl]methanesulfonamide; phases: Liquid, Gas
Fixed: Mole fraction of hexane = 0
Property: Activity coefficient of hexane (Liquid); method: Chromatography
Temperature, K	Activity coefficient of hexane	uncertainty
303	126	8.6
323	112.8	7.7

System: heptane + 3-(3-cyanopropyl)-1-methylimidazolium 1,1,1-trifluoro-N-[(trifluoromethyl)sulfonyl]methanesulfonamide; phases: Liquid, Gas
Fixed: Mole fraction of heptane = 0
Property: Activity coefficient of heptane (Liquid); method: Chromatography
Temperature, K	Activity coefficient of heptane	uncertainty
303	134.1	9.2
323	126.5	8.7

System: octane + 3-(3-cyanopropyl)-1-methylimidazolium 1,1,1-trifluoro-N-[(trifluoromethyl)sulfonyl]methanesulfonamide; phases: Liquid, Gas
Fixed: Mole fraction of octane = 0
Property: Activity coefficient of octane (Liquid); method: Chromatography
Temperature, K	Activity coefficient of octane	uncertainty
303	190.9	13.1
323	158.7	10.9

System: cyclohexane + 3-(3-cyanopropyl)-1-methylimidazolium 1,1,1-trifluoro-N-[(trifluoromethyl)sulfonyl]methanesulfonamide; phases: Liquid, Gas
Fixed: Mole fraction of cyclohexane = 0
Property: Activity coefficient of cyclohexane (Liquid); method: Chromatography
Temperature, K	Activity coefficient of cyclohexane	uncertainty
303	55.4	3.8
323	45.9	3.1

System: methylcyclohexane + 3-(3-cyanopropyl)-1-methylimidazolium 1,1,1-trifluoro-N-[(trifluoromethyl)sulfonyl]methanesulfonamide; phases: Liquid, Gas
Fixed: Mole fraction of methylcyclohexane = 0
Property: Activity coefficient of methylcyclohexane (Liquid); method: Chromatography
Temperature, K	Activity coefficient of methylcyclohexane	uncertainty
303	75.1	5.1
323	66.2	4.5

System: hex-1-ene + 3-(3-cyanopropyl)-1-methylimidazolium 1,1,1-trifluoro-N-[(trifluoromethyl)sulfonyl]methanesulfonamide; phases: Liquid, Gas
Fixed: Mole fraction of hex-1-ene = 0
Property: Activity coefficient of hex-1-ene (Liquid); method: Chromatography
Temperature, K	Activity coefficient of hex-1-ene	uncertainty
303	54.2	3.7
323	47.1	3.2

System: oct-1-ene + 3-(3-cyanopropyl)-1-methylimidazolium 1,1,1-trifluoro-N-[(trifluoromethyl)sulfonyl]methanesulfonamide; phases: Liquid, Gas
Fixed: Mole fraction of oct-1-ene = 0
Property: Activity coefficient of oct-1-ene (Liquid); method: Chromatography
Temperature, K	Activity coefficient of oct-1-ene	uncertainty
303	118.8	8.1
323	105.7	7.2

System: benzene + 3-(3-cyanopropyl)-1-methylimidazolium 1,1,1-trifluoro-N-[(trifluoromethyl)sulfonyl]methanesulfonamide; phases: Liquid, Gas
Fixed: Mole fraction of benzene = 0
Property: Activity coefficient of benzene (Liquid); method: Chromatography
Temperature, K	Activity coefficient of benzene	uncertainty
303	1.8	0.1
323	1.7	0.1

System: toluene + 3-(3-cyanopropyl)-1-methylimidazolium 1,1,1-trifluoro-N-[(trifluoromethyl)sulfonyl]methanesulfonamide; phases: Liquid, Gas
Fixed: Mole fraction of toluene = 0
Property: Activity coefficient of toluene (Liquid); method: Chromatography
Temperature, K	Activity coefficient of toluene	uncertainty
303	3.3	0.2
323	3.1	0.2

System: methanol + 3-(3-cyanopropyl)-1-methylimidazolium 1,1,1-trifluoro-N-[(trifluoromethyl)sulfonyl]methanesulfonamide; phases: Liquid, Gas
Fixed: Mole fraction of methanol = 0
Property: Activity coefficient of methanol (Liquid); method: Chromatography
Temperature, K	Activity coefficient of methanol	uncertainty
303	1.1	0.1
323	1	0.1

System: ethanol + 3-(3-cyanopropyl)-1-methylimidazolium 1,1,1-trifluoro-N-[(trifluoromethyl)sulfonyl]methanesulfonamide; phases: Liquid, Gas
Fixed: Mole fraction of ethanol = 0
Property: Activity coefficient of ethanol (Liquid); method: Chromatography
Temperature, K	Activity coefficient of ethanol	uncertainty
303	1.7	0.1
323	1.4	0.1

System: ethyl acetate + 3-(3-cyanopropyl)-1-methylimidazolium 1,1,1-trifluoro-N-[(trifluoromethyl)sulfonyl]methanesulfonamide; phases: Liquid, Gas
Fixed: Mole fraction of ethyl acetate = 0
Property: Activity coefficient of ethyl acetate (Liquid); method: Chromatography
Temperature, K	Activity coefficient of ethyl acetate	uncertainty
303	2.1	0.2
323	2.1	0.2

System: tetrahydrofuran + 3-(3-cyanopropyl)-1-methylimidazolium 1,1,1-trifluoro-N-[(trifluoromethyl)sulfonyl]methanesulfonamide; phases: Liquid, Gas
Fixed: Mole fraction of tetrahydrofuran = 0
Property: Activity coefficient of tetrahydrofuran (Liquid); method: Chromatography
Temperature, K	Activity coefficient of tetrahydrofuran	uncertainty
303	1.3	0.1
323	1.2	0.1

System: thiophene + 3-(3-cyanopropyl)-1-methylimidazolium 1,1,1-trifluoro-N-[(trifluoromethyl)sulfonyl]methanesulfonamide; phases: Liquid, Gas
Fixed: Mole fraction of thiophene = 0
Property: Activity coefficient of thiophene (Liquid); method: Chromatography
Temperature, K	Activity coefficient of thiophene	uncertainty
303	1.5	0.1
323	1.4	0.1

System: water + 3-(3-cyanopropyl)-1-methylimidazolium 1,1,1-trifluoro-N-[(trifluoromethyl)sulfonyl]methanesulfonamide; phases: Liquid, Gas
Property: Activity coefficient of water (Liquid); method: Chromatography
Temperature, K	Mole fraction of water	Activity coefficient of water	uncertainty
323	0	1.8	0.1

System: hexane + 1-(3-cyanopropyl)-3-methylimidazolium cyanocyanamide; phases: Liquid, Gas
Fixed: Mole fraction of hexane = 0
Property: Activity coefficient of hexane (Liquid); method: Chromatography
Temperature, K	Activity coefficient of hexane	uncertainty
303	212.9	14.6
323	144.7	9.9

System: heptane + 1-(3-cyanopropyl)-3-methylimidazolium cyanocyanamide; phases: Liquid, Gas
Fixed: Mole fraction of heptane = 0
Property: Activity coefficient of heptane (Liquid); method: Chromatography
Temperature, K	Activity coefficient of heptane	uncertainty
303	231.3	15.9
323	196.7	13.5

System: octane + 1-(3-cyanopropyl)-3-methylimidazolium cyanocyanamide; phases: Liquid, Gas
Fixed: Mole fraction of octane = 0
Property: Activity coefficient of octane (Liquid); method: Chromatography
Temperature, K	Activity coefficient of octane	uncertainty
303	264.1	18.1
323	203.6	14

System: cyclohexane + 1-(3-cyanopropyl)-3-methylimidazolium cyanocyanamide; phases: Liquid, Gas
Fixed: Mole fraction of cyclohexane = 0
Property: Activity coefficient of cyclohexane (Liquid); method: Chromatography
Temperature, K	Activity coefficient of cyclohexane	uncertainty
303	81.7	5.6
323	58.9	4

System: methylcyclohexane + 1-(3-cyanopropyl)-3-methylimidazolium cyanocyanamide; phases: Liquid, Gas
Fixed: Mole fraction of methylcyclohexane = 0
Property: Activity coefficient of methylcyclohexane (Liquid); method: Chromatography
Temperature, K	Activity coefficient of methylcyclohexane	uncertainty
303	118	8.1
323	84.9	5.8

System: hex-1-ene + 1-(3-cyanopropyl)-3-methylimidazolium cyanocyanamide; phases: Liquid, Gas
Fixed: Mole fraction of hex-1-ene = 0
Property: Activity coefficient of hex-1-ene (Liquid); method: Chromatography
Temperature, K	Activity coefficient of hex-1-ene	uncertainty
303	71.7	4.9
323	60.4	4.1

System: oct-1-ene + 1-(3-cyanopropyl)-3-methylimidazolium cyanocyanamide; phases: Liquid, Gas
Fixed: Mole fraction of oct-1-ene = 0
Property: Activity coefficient of oct-1-ene (Liquid); method: Chromatography
Temperature, K	Activity coefficient of oct-1-ene	uncertainty
303	142.1	9.8
323	135.5	9.3

System: benzene + 1-(3-cyanopropyl)-3-methylimidazolium cyanocyanamide; phases: Liquid, Gas
Fixed: Mole fraction of benzene = 0
Property: Activity coefficient of benzene (Liquid); method: Chromatography
Temperature, K	Activity coefficient of benzene	uncertainty
303	2.3	0.2
323	2.2	0.2

System: toluene + 1-(3-cyanopropyl)-3-methylimidazolium cyanocyanamide; phases: Liquid, Gas
Fixed: Mole fraction of toluene = 0
Property: Activity coefficient of toluene (Liquid); method: Chromatography
Temperature, K	Activity coefficient of toluene	uncertainty
303	4.3	0.3
323	4	0.3

System: methanol + 1-(3-cyanopropyl)-3-methylimidazolium cyanocyanamide; phases: Liquid, Gas
Fixed: Mole fraction of methanol = 0
Property: Activity coefficient of methanol (Liquid); method: Chromatography
Temperature, K	Activity coefficient of methanol	uncertainty
303	0.3	0.1
323	0.3	0.1

System: ethanol + 1-(3-cyanopropyl)-3-methylimidazolium cyanocyanamide; phases: Liquid, Gas
Fixed: Mole fraction of ethanol = 0
Property: Activity coefficient of ethanol (Liquid); method: Chromatography
Temperature, K	Activity coefficient of ethanol	uncertainty
303	0.5	0.1
323	0.4	0.1

System: ethyl acetate + 1-(3-cyanopropyl)-3-methylimidazolium cyanocyanamide; phases: Liquid, Gas
Fixed: Mole fraction of ethyl acetate = 0
Property: Activity coefficient of ethyl acetate (Liquid); method: Chromatography
Temperature, K	Activity coefficient of ethyl acetate	uncertainty
303	2.8	0.2
323	2.7	0.2

System: tetrahydrofuran + 1-(3-cyanopropyl)-3-methylimidazolium cyanocyanamide; phases: Liquid, Gas
Fixed: Mole fraction of tetrahydrofuran = 0
Property: Activity coefficient of tetrahydrofuran (Liquid); method: Chromatography
Temperature, K	Activity coefficient of tetrahydrofuran	uncertainty
303	1.6	0.1
323	1.5	0.1

System: thiophene + 1-(3-cyanopropyl)-3-methylimidazolium cyanocyanamide; phases: Liquid, Gas
Fixed: Mole fraction of thiophene = 0
Property: Activity coefficient of thiophene (Liquid); method: Chromatography
Temperature, K	Activity coefficient of thiophene	uncertainty
303	1.7	0.1
323	1.6	0.1

System: hexane + 3-(3-cyanopropyl)-1,2-dimethylimidazolium 1,1,1-trifluoro-N-[(trifluoromethyl)sulfonyl]methanesulfonamide; phases: Liquid, Gas
Fixed: Mole fraction of hexane = 0
Property: Activity coefficient of hexane (Liquid); method: Chromatography
Temperature, K	Activity coefficient of hexane	uncertainty
303	66.6	4.6
323	54.3	3.7

System: heptane + 3-(3-cyanopropyl)-1,2-dimethylimidazolium 1,1,1-trifluoro-N-[(trifluoromethyl)sulfonyl]methanesulfonamide; phases: Liquid, Gas
Fixed: Mole fraction of heptane = 0
Property: Activity coefficient of heptane (Liquid); method: Chromatography
Temperature, K	Activity coefficient of heptane	uncertainty
303	88.5	6.1
323	67	4.6

System: octane + 3-(3-cyanopropyl)-1,2-dimethylimidazolium 1,1,1-trifluoro-N-[(trifluoromethyl)sulfonyl]methanesulfonamide; phases: Liquid, Gas
Fixed: Mole fraction of octane = 0
Property: Activity coefficient of octane (Liquid); method: Chromatography
Temperature, K	Activity coefficient of octane	uncertainty
303	101.3	6.9
323	88.6	6.1

System: cyclohexane + 3-(3-cyanopropyl)-1,2-dimethylimidazolium 1,1,1-trifluoro-N-[(trifluoromethyl)sulfonyl]methanesulfonamide; phases: Liquid, Gas
Fixed: Mole fraction of cyclohexane = 0
Property: Activity coefficient of cyclohexane (Liquid); method: Chromatography
Temperature, K	Activity coefficient of cyclohexane	uncertainty
303	36.7	2.5
323	28.3	1.9

System: methylcyclohexane + 3-(3-cyanopropyl)-1,2-dimethylimidazolium 1,1,1-trifluoro-N-[(trifluoromethyl)sulfonyl]methanesulfonamide; phases: Liquid, Gas
Fixed: Mole fraction of methylcyclohexane = 0
Property: Activity coefficient of methylcyclohexane (Liquid); method: Chromatography
Temperature, K	Activity coefficient of methylcyclohexane	uncertainty
303	48.5	3.3
323	39.6	2.7

System: hex-1-ene + 3-(3-cyanopropyl)-1,2-dimethylimidazolium 1,1,1-trifluoro-N-[(trifluoromethyl)sulfonyl]methanesulfonamide; phases: Liquid, Gas
Fixed: Mole fraction of hex-1-ene = 0
Property: Activity coefficient of hex-1-ene (Liquid); method: Chromatography
Temperature, K	Activity coefficient of hex-1-ene	uncertainty
303	32	2.2
323	25.3	1.7

System: oct-1-ene + 3-(3-cyanopropyl)-1,2-dimethylimidazolium 1,1,1-trifluoro-N-[(trifluoromethyl)sulfonyl]methanesulfonamide; phases: Liquid, Gas
Fixed: Mole fraction of oct-1-ene = 0
Property: Activity coefficient of oct-1-ene (Liquid); method: Chromatography
Temperature, K	Activity coefficient of oct-1-ene	uncertainty
303	60.8	4.2
323	55.1	3.8

System: benzene + 3-(3-cyanopropyl)-1,2-dimethylimidazolium 1,1,1-trifluoro-N-[(trifluoromethyl)sulfonyl]methanesulfonamide; phases: Liquid, Gas
Fixed: Mole fraction of benzene = 0
Property: Activity coefficient of benzene (Liquid); method: Chromatography
Temperature, K	Activity coefficient of benzene	uncertainty
303	1.9	0.1
323	1.71	0.11

System: toluene + 3-(3-cyanopropyl)-1,2-dimethylimidazolium 1,1,1-trifluoro-N-[(trifluoromethyl)sulfonyl]methanesulfonamide; phases: Liquid, Gas
Fixed: Mole fraction of toluene = 0
Property: Activity coefficient of toluene (Liquid); method: Chromatography
Temperature, K	Activity coefficient of toluene	uncertainty
303	3.3	0.2
323	3.1	0.2

System: methanol + 3-(3-cyanopropyl)-1,2-dimethylimidazolium 1,1,1-trifluoro-N-[(trifluoromethyl)sulfonyl]methanesulfonamide; phases: Liquid, Gas
Fixed: Mole fraction of methanol = 0
Property: Activity coefficient of methanol (Liquid); method: Chromatography
Temperature, K	Activity coefficient of methanol	uncertainty
303	1.9	0.1
323	1.5	0.1

System: ethanol + 3-(3-cyanopropyl)-1,2-dimethylimidazolium 1,1,1-trifluoro-N-[(trifluoromethyl)sulfonyl]methanesulfonamide; phases: Liquid, Gas
Fixed: Mole fraction of ethanol = 0
Property: Activity coefficient of ethanol (Liquid); method: Chromatography
Temperature, K	Activity coefficient of ethanol	uncertainty
303	2.6	0.2
323	2.2	0.2

System: ethyl acetate + 3-(3-cyanopropyl)-1,2-dimethylimidazolium 1,1,1-trifluoro-N-[(trifluoromethyl)sulfonyl]methanesulfonamide; phases: Liquid, Gas
Fixed: Mole fraction of ethyl acetate = 0
Property: Activity coefficient of ethyl acetate (Liquid); method: Chromatography
Temperature, K	Activity coefficient of ethyl acetate	uncertainty
303	1.6	0.1
323	1.5	0.1

System: tetrahydrofuran + 3-(3-cyanopropyl)-1,2-dimethylimidazolium 1,1,1-trifluoro-N-[(trifluoromethyl)sulfonyl]methanesulfonamide; phases: Liquid, Gas
Fixed: Mole fraction of tetrahydrofuran = 0
Property: Activity coefficient of tetrahydrofuran (Liquid); method: Chromatography
Temperature, K	Activity coefficient of tetrahydrofuran	uncertainty
303	1.4	0.1
323	1.4	0.1

System: thiophene + 3-(3-cyanopropyl)-1,2-dimethylimidazolium 1,1,1-trifluoro-N-[(trifluoromethyl)sulfonyl]methanesulfonamide; phases: Liquid, Gas
Fixed: Mole fraction of thiophene = 0
Property: Activity coefficient of thiophene (Liquid); method: Chromatography
Temperature, K	Activity coefficient of thiophene	uncertainty
303	1.5	0.1
323	1.4	0.1

System: water + 3-(3-cyanopropyl)-1,2-dimethylimidazolium 1,1,1-trifluoro-N-[(trifluoromethyl)sulfonyl]methanesulfonamide; phases: Liquid, Gas
Property: Activity coefficient of water (Liquid); method: Chromatography
Temperature, K	Mole fraction of water	Activity coefficient of water	uncertainty
323	0	2.3	0.2

System: hexane + 3-(3-cyanopropyl)-1,2-dimethylimidazolium cyanocyanamide; phases: Liquid, Gas
Fixed: Mole fraction of hexane = 0
Property: Activity coefficient of hexane (Liquid); method: Chromatography
Temperature, K	Activity coefficient of hexane	uncertainty
303	163	11.2
323	136.7	9.4

System: heptane + 3-(3-cyanopropyl)-1,2-dimethylimidazolium cyanocyanamide; phases: Liquid, Gas
Fixed: Mole fraction of heptane = 0
Property: Activity coefficient of heptane (Liquid); method: Chromatography
Temperature, K	Activity coefficient of heptane	uncertainty
303	173.9	11.9
323	123	8.4

System: octane + 3-(3-cyanopropyl)-1,2-dimethylimidazolium cyanocyanamide; phases: Liquid, Gas
Fixed: Mole fraction of octane = 0
Property: Activity coefficient of octane (Liquid); method: Chromatography
Temperature, K	Activity coefficient of octane	uncertainty
303	182.2	12.5
323	132.1	9.1

System: cyclohexane + 3-(3-cyanopropyl)-1,2-dimethylimidazolium cyanocyanamide; phases: Liquid, Gas
Fixed: Mole fraction of cyclohexane = 0
Property: Activity coefficient of cyclohexane (Liquid); method: Chromatography
Temperature, K	Activity coefficient of cyclohexane	uncertainty
303	97.5	6.7
323	61.3	4.2

System: methylcyclohexane + 3-(3-cyanopropyl)-1,2-dimethylimidazolium cyanocyanamide; phases: Liquid, Gas
Fixed: Mole fraction of methylcyclohexane = 0
Property: Activity coefficient of methylcyclohexane (Liquid); method: Chromatography
Temperature, K	Activity coefficient of methylcyclohexane	uncertainty
303	113.5	7.8
323	80.2	5.5

System: hex-1-ene + 3-(3-cyanopropyl)-1,2-dimethylimidazolium cyanocyanamide; phases: Liquid, Gas
Fixed: Mole fraction of hex-1-ene = 0
Property: Activity coefficient of hex-1-ene (Liquid); method: Chromatography
Temperature, K	Activity coefficient of hex-1-ene	uncertainty
303	103.6	7.1
323	64	4.4

System: oct-1-ene + 3-(3-cyanopropyl)-1,2-dimethylimidazolium cyanocyanamide; phases: Liquid, Gas
Fixed: Mole fraction of oct-1-ene = 0
Property: Activity coefficient of oct-1-ene (Liquid); method: Chromatography
Temperature, K	Activity coefficient of oct-1-ene	uncertainty
303	129.5	8.9
323	102.5	7

System: benzene + 3-(3-cyanopropyl)-1,2-dimethylimidazolium cyanocyanamide; phases: Liquid, Gas
Fixed: Mole fraction of benzene = 0
Property: Activity coefficient of benzene (Liquid); method: Chromatography
Temperature, K	Activity coefficient of benzene	uncertainty
303	3	0.2
323	2.8	0.2

System: toluene + 3-(3-cyanopropyl)-1,2-dimethylimidazolium cyanocyanamide; phases: Liquid, Gas
Fixed: Mole fraction of toluene = 0
Property: Activity coefficient of toluene (Liquid); method: Chromatography
Temperature, K	Activity coefficient of toluene	uncertainty
303	5.3	0.4
323	4.6	0.3

System: methanol + 3-(3-cyanopropyl)-1,2-dimethylimidazolium cyanocyanamide; phases: Liquid, Gas
Fixed: Mole fraction of methanol = 0
Property: Activity coefficient of methanol (Liquid); method: Chromatography
Temperature, K	Activity coefficient of methanol	uncertainty
303	0.4	0.1
323	0.4	0.1

System: ethanol + 3-(3-cyanopropyl)-1,2-dimethylimidazolium cyanocyanamide; phases: Liquid, Gas
Fixed: Mole fraction of ethanol = 0
Property: Activity coefficient of ethanol (Liquid); method: Chromatography
Temperature, K	Activity coefficient of ethanol	uncertainty
303	0.8	0.1
323	0.7	0.1

System: ethyl acetate + 3-(3-cyanopropyl)-1,2-dimethylimidazolium cyanocyanamide; phases: Liquid, Gas
Fixed: Mole fraction of ethyl acetate = 0
Property: Activity coefficient of ethyl acetate (Liquid); method: Chromatography
Temperature, K	Activity coefficient of ethyl acetate	uncertainty
303	4.2	0.3
323	3.9	0.3

System: tetrahydrofuran + 3-(3-cyanopropyl)-1,2-dimethylimidazolium cyanocyanamide; phases: Liquid, Gas
Fixed: Mole fraction of tetrahydrofuran = 0
Property: Activity coefficient of tetrahydrofuran (Liquid); method: Chromatography
Temperature, K	Activity coefficient of tetrahydrofuran	uncertainty
303	2.3	0.2
323	2.2	0.2

System: thiophene + 3-(3-cyanopropyl)-1,2-dimethylimidazolium cyanocyanamide; phases: Liquid, Gas
Fixed: Mole fraction of thiophene = 0
Property: Activity coefficient of thiophene (Liquid); method: Chromatography
Temperature, K	Activity coefficient of thiophene	uncertainty
303	2.3	0.2
323	2.3	0.2

System: carbon dioxide + 1-butyl-3-methylimidazolium tetrafluoroborate; phases: Liquid, Gas
Fixed: Mole fraction of carbon dioxide = 0
Property: Henry's Law constant (mole fraction scale), kPa of carbon dioxide (Liquid); method: Chromatography
Temperature, K	Henry's Law constant (mole fraction scale), kPa of carbon dioxide	uncertainty
303	6600	400
313	8160	490
323	9160	550

System: carbon dioxide + 1-methyl-3-octylimidazolium tetrafluoroborate; phases: Liquid, Gas
Fixed: Mole fraction of carbon dioxide = 0
Property: Henry's Law constant (mole fraction scale), kPa of carbon dioxide (Liquid); method: Chromatography
Temperature, K	Henry's Law constant (mole fraction scale), kPa of carbon dioxide	uncertainty
303	5390	320
313	6570	390
323	7560	450

System: carbon dioxide + 1-butyl-3-methylimidazolium hexadecanoate; phases: Liquid, Gas
Property: Henry's Law constant (mole fraction scale), kPa of carbon dioxide (Liquid); method: Chromatography
Temperature, K	Mole fraction of carbon dioxide	Henry's Law constant (mole fraction scale), kPa of carbon dioxide	uncertainty
323	0	7550	450

System: carbon dioxide + 1-butyl-3-methylimidazolium octadecanoate; phases: Liquid, Gas
Property: Henry's Law constant (mole fraction scale), kPa of carbon dioxide (Liquid); method: Chromatography
Temperature, K	Mole fraction of carbon dioxide	Henry's Law constant (mole fraction scale), kPa of carbon dioxide	uncertainty
323	0	5920	360

System: carbon dioxide + 1-butyl-3-methylimidazolium bis(trifluoromethylsulfonyl)imide; phases: Liquid, Gas
Fixed: Mole fraction of carbon dioxide = 0
Property: Henry's Law constant (mole fraction scale), kPa of carbon dioxide (Liquid); method: Chromatography
Temperature, K	Henry's Law constant (mole fraction scale), kPa of carbon dioxide	uncertainty
303	3340	200
313	4120	250
323	4770	290

System: carbon dioxide + 3-(3-cyanopropyl)-1-methylimidazolium 1,1,1-trifluoro-N-[(trifluoromethyl)sulfonyl]methanesulfonamide; phases: Liquid, Gas
Fixed: Mole fraction of carbon dioxide = 0
Property: Henry's Law constant (mole fraction scale), kPa of carbon dioxide (Liquid); method: Chromatography
Temperature, K	Henry's Law constant (mole fraction scale), kPa of carbon dioxide	uncertainty
303	4210	250
313	5210	310
323	5890	350

System: carbon dioxide + 3-(3-cyanopropyl)-1,2-dimethylimidazolium 1,1,1-trifluoro-N-[(trifluoromethyl)sulfonyl]methanesulfonamide; phases: Liquid, Gas
Fixed: Mole fraction of carbon dioxide = 0
Property: Henry's Law constant (mole fraction scale), kPa of carbon dioxide (Liquid); method: Chromatography
Temperature, K	Henry's Law constant (mole fraction scale), kPa of carbon dioxide	uncertainty
303	4620	280
313	5570	330
323	5960	360

System: carbon dioxide + 1-(3-cyanopropyl)-3-methylimidazolium cyanocyanamide; phases: Liquid, Gas
Fixed: Mole fraction of carbon dioxide = 0
Property: Henry's Law constant (mole fraction scale), kPa of carbon dioxide (Liquid); method: Chromatography
Temperature, K	Henry's Law constant (mole fraction scale), kPa of carbon dioxide	uncertainty
303	11060	660
313	12720	760
323	15420	930

System: carbon dioxide + 3-(3-cyanopropyl)-1,2-dimethylimidazolium cyanocyanamide; phases: Liquid, Gas
Fixed: Mole fraction of carbon dioxide = 0
Property: Henry's Law constant (mole fraction scale), kPa of carbon dioxide (Liquid); method: Chromatography
Temperature, K	Henry's Law constant (mole fraction scale), kPa of carbon dioxide	uncertainty
303	13630	820
313	15190	910
323	16290	980

System: ethene + 1-butyl-3-methylimidazolium tetrafluoroborate; phases: Liquid, Gas
Fixed: Mole fraction of ethene = 0
Property: Henry's Law constant (mole fraction scale), kPa of ethene (Liquid); method: Chromatography
Temperature, K	Henry's Law constant (mole fraction scale), kPa of ethene	uncertainty
303	20650	1240
313	21710	1310
323	25520	1530

System: ethene + 1-methyl-3-octylimidazolium tetrafluoroborate; phases: Liquid, Gas
Fixed: Mole fraction of ethene = 0
Property: Henry's Law constant (mole fraction scale), kPa of ethene (Liquid); method: Chromatography
Temperature, K	Henry's Law constant (mole fraction scale), kPa of ethene	uncertainty
303	13460	810
313	14190	850
323	15120	910

System: ethene + 1-butyl-3-methylimidazolium hexadecanoate; phases: Liquid, Gas
Property: Henry's Law constant (mole fraction scale), kPa of ethene (Liquid); method: Chromatography
Temperature, K	Mole fraction of ethene	Henry's Law constant (mole fraction scale), kPa of ethene	uncertainty
323	0	7220	430

System: ethene + 1-butyl-3-methylimidazolium octadecanoate; phases: Liquid, Gas
Property: Henry's Law constant (mole fraction scale), kPa of ethene (Liquid); method: Chromatography
Temperature, K	Mole fraction of ethene	Henry's Law constant (mole fraction scale), kPa of ethene	uncertainty
323	0	5930	360

System: ethene + 1-butyl-3-methylimidazolium bis(trifluoromethylsulfonyl)imide; phases: Liquid, Gas
Fixed: Mole fraction of ethene = 0
Property: Henry's Law constant (mole fraction scale), kPa of ethene (Liquid); method: Chromatography
Temperature, K	Henry's Law constant (mole fraction scale), kPa of ethene	uncertainty
303	8730	520
313	9370	560
323	10840	650

System: ethene + 3-(3-cyanopropyl)-1-methylimidazolium 1,1,1-trifluoro-N-[(trifluoromethyl)sulfonyl]methanesulfonamide; phases: Liquid, Gas
Fixed: Mole fraction of ethene = 0
Property: Henry's Law constant (mole fraction scale), kPa of ethene (Liquid); method: Chromatography
Temperature, K	Henry's Law constant (mole fraction scale), kPa of ethene	uncertainty
303	19530	1170
313	20820	1250
323	21450	1290

System: ethene + 3-(3-cyanopropyl)-1,2-dimethylimidazolium 1,1,1-trifluoro-N-[(trifluoromethyl)sulfonyl]methanesulfonamide; phases: Liquid, Gas
Fixed: Mole fraction of ethene = 0
Property: Henry's Law constant (mole fraction scale), kPa of ethene (Liquid); method: Chromatography
Temperature, K	Henry's Law constant (mole fraction scale), kPa of ethene	uncertainty
303	18210	1090
313	19630	1180
323	20310	1220

System: ethene + 1-(3-cyanopropyl)-3-methylimidazolium cyanocyanamide; phases: Liquid, Gas
Fixed: Mole fraction of ethene = 0
Property: Henry's Law constant (mole fraction scale), kPa of ethene (Liquid); method: Chromatography
Temperature, K	Henry's Law constant (mole fraction scale), kPa of ethene	uncertainty
303	54630	3280
313	56130	3370
323	63660	3830

System: ethene + 3-(3-cyanopropyl)-1,2-dimethylimidazolium cyanocyanamide; phases: Liquid, Gas
Fixed: Mole fraction of ethene = 0
Property: Henry's Law constant (mole fraction scale), kPa of ethene (Liquid); method: Chromatography
Temperature, K	Henry's Law constant (mole fraction scale), kPa of ethene	uncertainty
303	26660	1600
313	34880	2100
323	47590	2860

System: hexane + 1-butyl-3-methylimidazolium tetrafluoroborate; phases: Liquid, Gas
Fixed: Mole fraction of hexane = 0
Property: Activity coefficient of hexane (Liquid); method: Chromatography
Temperature, K	Activity coefficient of hexane	uncertainty
298	65.9	4.5
323	50.6	3.5

System: heptane + 1-butyl-3-methylimidazolium tetrafluoroborate; phases: Liquid, Gas
Fixed: Mole fraction of heptane = 0
Property: Activity coefficient of heptane (Liquid); method: Chromatography
Temperature, K	Activity coefficient of heptane	uncertainty
298	83.5	5.7
323	70.3	4.8

System: octane + 1-butyl-3-methylimidazolium tetrafluoroborate; phases: Liquid, Gas
Fixed: Mole fraction of octane = 0
Property: Activity coefficient of octane (Liquid); method: Chromatography
Temperature, K	Activity coefficient of octane	uncertainty
298	116.8	8
323	95.5	6.5

System: cyclohexane + 1-butyl-3-methylimidazolium tetrafluoroborate; phases: Liquid, Gas
Fixed: Mole fraction of cyclohexane = 0
Property: Activity coefficient of cyclohexane (Liquid); method: Chromatography
Temperature, K	Activity coefficient of cyclohexane	uncertainty
298	30.7	2.1
323	24.7	1.7

System: methylcyclohexane + 1-butyl-3-methylimidazolium tetrafluoroborate; phases: Liquid, Gas
Fixed: Mole fraction of methylcyclohexane = 0
Property: Activity coefficient of methylcyclohexane (Liquid); method: Chromatography
Temperature, K	Activity coefficient of methylcyclohexane	uncertainty
298	43.7	3
323	35.5	2.4

System: hex-1-ene + 1-butyl-3-methylimidazolium tetrafluoroborate; phases: Liquid, Gas
Fixed: Mole fraction of hex-1-ene = 0
Property: Activity coefficient of hex-1-ene (Liquid); method: Chromatography
Temperature, K	Activity coefficient of hex-1-ene	uncertainty
298	25.8	1.8
323	21.8	1.5

System: oct-1-ene + 1-butyl-3-methylimidazolium tetrafluoroborate; phases: Liquid, Gas
Fixed: Mole fraction of oct-1-ene = 0
Property: Activity coefficient of oct-1-ene (Liquid); method: Chromatography
Temperature, K	Activity coefficient of oct-1-ene	uncertainty
298	59.1	4
323	48.3	3.3

System: benzene + 1-butyl-3-methylimidazolium tetrafluoroborate; phases: Liquid, Gas
Fixed: Mole fraction of benzene = 0
Property: Activity coefficient of benzene (Liquid); method: Chromatography
Temperature, K	Activity coefficient of benzene	uncertainty
298	1.5	0.1
323	1.5	0.1

System: toluene + 1-butyl-3-methylimidazolium tetrafluoroborate; phases: Liquid, Gas
Fixed: Mole fraction of toluene = 0
Property: Activity coefficient of toluene (Liquid); method: Chromatography
Temperature, K	Activity coefficient of toluene	uncertainty
298	2.5	0.2
323	2.4	0.2

System: methanol + 1-butyl-3-methylimidazolium tetrafluoroborate; phases: Liquid, Gas
Fixed: Mole fraction of methanol = 0
Property: Activity coefficient of methanol (Liquid); method: Chromatography
Temperature, K	Activity coefficient of methanol	uncertainty
298	0.8	0.1
323	0.7	0.1

System: ethanol + 1-butyl-3-methylimidazolium tetrafluoroborate; phases: Liquid, Gas
Fixed: Mole fraction of ethanol = 0
Property: Activity coefficient of ethanol (Liquid); method: Chromatography
Temperature, K	Activity coefficient of ethanol	uncertainty
298	1.1	0.1
323	1	0.1

System: ethyl acetate + 1-butyl-3-methylimidazolium tetrafluoroborate; phases: Liquid, Gas
Fixed: Mole fraction of ethyl acetate = 0
Property: Activity coefficient of ethyl acetate (Liquid); method: Chromatography
Temperature, K	Activity coefficient of ethyl acetate	uncertainty
298	1.8	0.1
323	1.7	0.1

System: tetrahydrofuran + 1-butyl-3-methylimidazolium tetrafluoroborate; phases: Liquid, Gas
Fixed: Mole fraction of tetrahydrofuran = 0
Property: Activity coefficient of tetrahydrofuran (Liquid); method: Chromatography
Temperature, K	Activity coefficient of tetrahydrofuran	uncertainty
298	1.4	0.1
323	1.4	0.1

System: thiophene + 1-butyl-3-methylimidazolium tetrafluoroborate; phases: Liquid, Gas
Fixed: Mole fraction of thiophene = 0
Property: Activity coefficient of thiophene (Liquid); method: Chromatography
Temperature, K	Activity coefficient of thiophene	uncertainty
298	1.7	0.1
323	1.5	0.1

System: hexane + 1-methyl-3-octylimidazolium tetrafluoroborate; phases: Liquid, Gas
Fixed: Mole fraction of hexane = 0
Property: Activity coefficient of hexane (Liquid); method: Chromatography
Temperature, K	Activity coefficient of hexane	uncertainty
298	8.6	0.6
323	6.7	0.5

System: heptane + 1-methyl-3-octylimidazolium tetrafluoroborate; phases: Liquid, Gas
Fixed: Mole fraction of heptane = 0
Property: Activity coefficient of heptane (Liquid); method: Chromatography
Temperature, K	Activity coefficient of heptane	uncertainty
298	11	0.8
323	8.4	0.6

System: octane + 1-methyl-3-octylimidazolium tetrafluoroborate; phases: Liquid, Gas
Fixed: Mole fraction of octane = 0
Property: Activity coefficient of octane (Liquid); method: Chromatography
Temperature, K	Activity coefficient of octane	uncertainty
298	16.1	1.1
323	11	0.8

System: cyclohexane + 1-methyl-3-octylimidazolium tetrafluoroborate; phases: Liquid, Gas
Fixed: Mole fraction of cyclohexane = 0
Property: Activity coefficient of cyclohexane (Liquid); method: Chromatography
Temperature, K	Activity coefficient of cyclohexane	uncertainty
298	5.3	0.4
323	3.9	0.3

System: methylcyclohexane + 1-methyl-3-octylimidazolium tetrafluoroborate; phases: Liquid, Gas
Fixed: Mole fraction of methylcyclohexane = 0
Property: Activity coefficient of methylcyclohexane (Liquid); method: Chromatography
Temperature, K	Activity coefficient of methylcyclohexane	uncertainty
298	6.7	0.5
323	5.3	0.4

System: hex-1-ene + 1-methyl-3-octylimidazolium tetrafluoroborate; phases: Liquid, Gas
Fixed: Mole fraction of hex-1-ene = 0
Property: Activity coefficient of hex-1-ene (Liquid); method: Chromatography
Temperature, K	Activity coefficient of hex-1-ene	uncertainty
298	4.9	0.3
323	3.9	0.3

System: oct-1-ene + 1-methyl-3-octylimidazolium tetrafluoroborate; phases: Liquid, Gas
Fixed: Mole fraction of oct-1-ene = 0
Property: Activity coefficient of oct-1-ene (Liquid); method: Chromatography
Temperature, K	Activity coefficient of oct-1-ene	uncertainty
298	7.8	0.5
323	6.6	0.5

System: benzene + 1-methyl-3-octylimidazolium tetrafluoroborate; phases: Liquid, Gas
Fixed: Mole fraction of benzene = 0
Property: Activity coefficient of benzene (Liquid); method: Chromatography
Temperature, K	Activity coefficient of benzene	uncertainty
298	0.7	0.1
323	0.6	0.1

System: toluene + 1-methyl-3-octylimidazolium tetrafluoroborate; phases: Liquid, Gas
Fixed: Mole fraction of toluene = 0
Property: Activity coefficient of toluene (Liquid); method: Chromatography
Temperature, K	Activity coefficient of toluene	uncertainty
298	1	0.1
323	0.9	0.1

System: methanol + 1-methyl-3-octylimidazolium tetrafluoroborate; phases: Liquid, Gas
Fixed: Mole fraction of methanol = 0
Property: Activity coefficient of methanol (Liquid); method: Chromatography
Temperature, K	Activity coefficient of methanol	uncertainty
298	0.3	0.1
323	0.3	0.1

System: ethanol + 1-methyl-3-octylimidazolium tetrafluoroborate; phases: Liquid, Gas
Fixed: Mole fraction of ethanol = 0
Property: Activity coefficient of ethanol (Liquid); method: Chromatography
Temperature, K	Activity coefficient of ethanol	uncertainty
298	0.5	0.1
323	0.4	0.1

System: ethyl acetate + 1-methyl-3-octylimidazolium tetrafluoroborate; phases: Liquid, Gas
Fixed: Mole fraction of ethyl acetate = 0
Property: Activity coefficient of ethyl acetate (Liquid); method: Chromatography
Temperature, K	Activity coefficient of ethyl acetate	uncertainty
298	0.9	0.1
323	0.8	0.1

System: tetrahydrofuran + 1-methyl-3-octylimidazolium tetrafluoroborate; phases: Liquid, Gas
Fixed: Mole fraction of tetrahydrofuran = 0
Property: Activity coefficient of tetrahydrofuran (Liquid); method: Chromatography
Temperature, K	Activity coefficient of tetrahydrofuran	uncertainty
298	0.7	0.1
323	0.6	0.1

System: thiophene + 1-methyl-3-octylimidazolium tetrafluoroborate; phases: Liquid, Gas
Fixed: Mole fraction of thiophene = 0
Property: Activity coefficient of thiophene (Liquid); method: Chromatography
Temperature, K	Activity coefficient of thiophene	uncertainty
298	0.9	0.1
323	0.8	0.1

System: hexane + 1-butyl-3-methylimidazolium bis(trifluoromethylsulfonyl)imide; phases: Liquid, Gas
Property: Activity coefficient of hexane (Liquid); method: Chromatography
Temperature, K	Mole fraction of hexane	Activity coefficient of hexane	uncertainty
323	0	12.8	0.9

System: heptane + 1-butyl-3-methylimidazolium bis(trifluoromethylsulfonyl)imide; phases: Liquid, Gas
Property: Activity coefficient of heptane (Liquid); method: Chromatography
Temperature, K	Mole fraction of heptane	Activity coefficient of heptane	uncertainty
323	0	15.5	1.1

System: octane + 1-butyl-3-methylimidazolium bis(trifluoromethylsulfonyl)imide; phases: Liquid, Gas
Property: Activity coefficient of octane (Liquid); method: Chromatography
Temperature, K	Mole fraction of octane	Activity coefficient of octane	uncertainty
323	0	23.4	1.6

System: cyclohexane + 1-butyl-3-methylimidazolium bis(trifluoromethylsulfonyl)imide; phases: Liquid, Gas
Property: Activity coefficient of cyclohexane (Liquid); method: Chromatography
Temperature, K	Mole fraction of cyclohexane	Activity coefficient of cyclohexane	uncertainty
323	0	6.7	0.5

System: methylcyclohexane + 1-butyl-3-methylimidazolium bis(trifluoromethylsulfonyl)imide; phases: Liquid, Gas
Property: Activity coefficient of methylcyclohexane (Liquid); method: Chromatography
Temperature, K	Mole fraction of methylcyclohexane	Activity coefficient of methylcyclohexane	uncertainty
323	0	9.1	0.6

System: hex-1-ene + 1-butyl-3-methylimidazolium bis(trifluoromethylsulfonyl)imide; phases: Liquid, Gas
Property: Activity coefficient of hex-1-ene (Liquid); method: Chromatography
Temperature, K	Mole fraction of hex-1-ene	Activity coefficient of hex-1-ene	uncertainty
323	0	6	0.4

System: oct-1-ene + 1-butyl-3-methylimidazolium bis(trifluoromethylsulfonyl)imide; phases: Liquid, Gas
Property: Activity coefficient of oct-1-ene (Liquid); method: Chromatography
Temperature, K	Mole fraction of oct-1-ene	Activity coefficient of oct-1-ene	uncertainty
323	0	12.3	0.8

System: benzene + 1-butyl-3-methylimidazolium bis(trifluoromethylsulfonyl)imide; phases: Liquid, Gas
Property: Activity coefficient of benzene (Liquid); method: Chromatography
Temperature, K	Mole fraction of benzene	Activity coefficient of benzene	uncertainty
323	0	0.8	0.1

System: toluene + 1-butyl-3-methylimidazolium bis(trifluoromethylsulfonyl)imide; phases: Liquid, Gas
Property: Activity coefficient of toluene (Liquid); method: Chromatography
Temperature, K	Mole fraction of toluene	Activity coefficient of toluene	uncertainty
323	0	1.2	0.1

System: methanol + 1-butyl-3-methylimidazolium bis(trifluoromethylsulfonyl)imide; phases: Liquid, Gas
Property: Activity coefficient of methanol (Liquid); method: Chromatography
Temperature, K	Mole fraction of methanol	Activity coefficient of methanol	uncertainty
323	0	0.8	0.1

System: ethanol + 1-butyl-3-methylimidazolium bis(trifluoromethylsulfonyl)imide; phases: Liquid, Gas
Property: Activity coefficient of ethanol (Liquid); method: Chromatography
Temperature, K	Mole fraction of ethanol	Activity coefficient of ethanol	uncertainty
323	0	1.2	0.1

System: ethyl acetate + 1-butyl-3-methylimidazolium bis(trifluoromethylsulfonyl)imide; phases: Liquid, Gas
Property: Activity coefficient of ethyl acetate (Liquid); method: Chromatography
Temperature, K	Mole fraction of ethyl acetate	Activity coefficient of ethyl acetate	uncertainty
323	0	0.7	0.1

System: tetrahydrofuran + 1-butyl-3-methylimidazolium bis(trifluoromethylsulfonyl)imide; phases: Liquid, Gas
Property: Activity coefficient of tetrahydrofuran (Liquid); method: Chromatography
Temperature, K	Mole fraction of tetrahydrofuran	Activity coefficient of tetrahydrofuran	uncertainty
323	0	0.4	0.1

System: thiophene + 1-butyl-3-methylimidazolium bis(trifluoromethylsulfonyl)imide; phases: Liquid, Gas
Property: Activity coefficient of thiophene (Liquid); method: Chromatography
Temperature, K	Mole fraction of thiophene	Activity coefficient of thiophene	uncertainty
323	0	0.7	0.1

System: water + 1-butyl-3-methylimidazolium bis(trifluoromethylsulfonyl)imide; phases: Liquid, Gas
Property: Activity coefficient of water (Liquid); method: Chromatography
Temperature, K	Mole fraction of water	Activity coefficient of water	uncertainty
323	0	2.6	0.2

System: hexane + 1-butyl-3-methylimidazolium hexadecanoate; phases: Liquid, Gas
Property: Activity coefficient of hexane (Liquid); method: Chromatography
Temperature, K	Mole fraction of hexane	Activity coefficient of hexane	uncertainty
333	0	1.3	0.1

System: heptane + 1-butyl-3-methylimidazolium hexadecanoate; phases: Liquid, Gas
Property: Activity coefficient of heptane (Liquid); method: Chromatography
Temperature, K	Mole fraction of heptane	Activity coefficient of heptane	uncertainty
333	0	1.4	0.1

System: octane + 1-butyl-3-methylimidazolium hexadecanoate; phases: Liquid, Gas
Property: Activity coefficient of octane (Liquid); method: Chromatography
Temperature, K	Mole fraction of octane	Activity coefficient of octane	uncertainty
333	0	1.6	0.1

System: cyclohexane + 1-butyl-3-methylimidazolium hexadecanoate; phases: Liquid, Gas
Property: Activity coefficient of cyclohexane (Liquid); method: Chromatography
Temperature, K	Mole fraction of cyclohexane	Activity coefficient of cyclohexane	uncertainty
333	0	0.9	0.1

System: methylcyclohexane + 1-butyl-3-methylimidazolium hexadecanoate; phases: Liquid, Gas
Property: Activity coefficient of methylcyclohexane (Liquid); method: Chromatography
Temperature, K	Mole fraction of methylcyclohexane	Activity coefficient of methylcyclohexane	uncertainty
333	0	1	0.1

System: hex-1-ene + 1-butyl-3-methylimidazolium hexadecanoate; phases: Liquid, Gas
Property: Activity coefficient of hex-1-ene (Liquid); method: Chromatography
Temperature, K	Mole fraction of hex-1-ene	Activity coefficient of hex-1-ene	uncertainty
333	0	1.1	0.1

System: oct-1-ene + 1-butyl-3-methylimidazolium hexadecanoate; phases: Liquid, Gas
Property: Activity coefficient of oct-1-ene (Liquid); method: Chromatography
Temperature, K	Mole fraction of oct-1-ene	Activity coefficient of oct-1-ene	uncertainty
333	0	1.4	0.1

System: benzene + 1-butyl-3-methylimidazolium hexadecanoate; phases: Liquid, Gas
Property: Activity coefficient of benzene (Liquid); method: Chromatography
Temperature, K	Mole fraction of benzene	Activity coefficient of benzene	uncertainty
333	0	0.7	0.1

System: toluene + 1-butyl-3-methylimidazolium hexadecanoate; phases: Liquid, Gas
Property: Activity coefficient of toluene (Liquid); method: Chromatography
Temperature, K	Mole fraction of toluene	Activity coefficient of toluene	uncertainty
333	0	0.8	0.1

System: methanol + 1-butyl-3-methylimidazolium hexadecanoate; phases: Liquid, Gas
Property: Activity coefficient of methanol (Liquid); method: Chromatography
Temperature, K	Mole fraction of methanol	Activity coefficient of methanol	uncertainty
333	0	0.3	0.1

System: ethanol + 1-butyl-3-methylimidazolium hexadecanoate; phases: Liquid, Gas
Property: Activity coefficient of ethanol (Liquid); method: Chromatography
Temperature, K	Mole fraction of ethanol	Activity coefficient of ethanol	uncertainty
333	0	0.4	0.1

System: ethyl acetate + 1-butyl-3-methylimidazolium hexadecanoate; phases: Liquid, Gas
Property: Activity coefficient of ethyl acetate (Liquid); method: Chromatography
Temperature, K	Mole fraction of ethyl acetate	Activity coefficient of ethyl acetate	uncertainty
333	0	1	0.1

System: tetrahydrofuran + 1-butyl-3-methylimidazolium hexadecanoate; phases: Liquid, Gas
Property: Activity coefficient of tetrahydrofuran (Liquid); method: Chromatography
Temperature, K	Mole fraction of tetrahydrofuran	Activity coefficient of tetrahydrofuran	uncertainty
333	0	0.6	0.1

System: thiophene + 1-butyl-3-methylimidazolium hexadecanoate; phases: Liquid, Gas
Property: Activity coefficient of thiophene (Liquid); method: Chromatography
Temperature, K	Mole fraction of thiophene	Activity coefficient of thiophene	uncertainty
333	0	0.9	0.1

System: hexane + 1-butyl-3-methylimidazolium octadecanoate; phases: Liquid, Gas
Fixed: Mole fraction of hexane = 0
Property: Activity coefficient of hexane (Liquid); method: Chromatography
Temperature, K	Activity coefficient of hexane	uncertainty
323	1.7	0.1
333	1.4	0.1

System: heptane + 1-butyl-3-methylimidazolium octadecanoate; phases: Liquid, Gas
Fixed: Mole fraction of heptane = 0
Property: Activity coefficient of heptane (Liquid); method: Chromatography
Temperature, K	Activity coefficient of heptane	uncertainty
323	1.8	0.1
333	1.5	0.1

System: octane + 1-butyl-3-methylimidazolium octadecanoate; phases: Liquid, Gas
Fixed: Mole fraction of octane = 0
Property: Activity coefficient of octane (Liquid); method: Chromatography
Temperature, K	Activity coefficient of octane	uncertainty
323	2.1	0.2
333	1.6	0.1

System: cyclohexane + 1-butyl-3-methylimidazolium octadecanoate; phases: Liquid, Gas
Fixed: Mole fraction of cyclohexane = 0
Property: Activity coefficient of cyclohexane (Liquid); method: Chromatography
Temperature, K	Activity coefficient of cyclohexane	uncertainty
323	1.1	0.1
333	1.2	0.1

System: methylcyclohexane + 1-butyl-3-methylimidazolium octadecanoate; phases: Liquid, Gas
Fixed: Mole fraction of methylcyclohexane = 0
Property: Activity coefficient of methylcyclohexane (Liquid); method: Chromatography
Temperature, K	Activity coefficient of methylcyclohexane	uncertainty
323	1.3	0.1
333	1.3	0.1
