Measured thermophysical data. Measurements and Calculation of Vapor-Liquid Equilibria for the Binary Mixtures of Fluorobenzene and Alkanes at a Pressure of 101.4 kPa
Source: J. Chem. Eng. Data, 2007, 10.1021/je700207q
Compound 1: fluorobenzene, C6H5F, InChI=1S/C6H5F/c7-6-4-2-1-3-5-6/h1-5H, purity 99.7%
Compound 2: hexane, C6H14, InChI=1S/C6H14/c1-3-5-6-4-2/h3-6H2,1-2H3, purity 99.9%
Compound 3: heptane, C7H16, InChI=1S/C7H16/c1-3-5-7-6-4-2/h3-7H2,1-2H3, purity 99.9%

System: hexane + fluorobenzene; phases: Liquid, Gas
Fixed: Pressure, kPa = 101.4
Property: Boiling temperature at pressure P, K (Liquid); method: Ebulliometric method (Recirculating still)
Mole fraction of hexane	Boiling temperature at pressure P, K	uncertainty
0.039	355.8	0.4
0.152	351.7	0.4
0.239	349	0.4
0.333	347	0.4
0.463	344.9	0.4
0.581	343.7	0.4
0.667	343	0.4
0.731	342.6	0.4
0.775	342.3	0.4
0.795	342.1	0.4
0.802	342.1	0.4
0.808	342	0.4
0.829	342	0.4
0.864	342	0.4
0.954	342	0.4

System: hexane + fluorobenzene; phases: Gas, Liquid
Fixed: Pressure, kPa = 101.4
Property: Mole fraction of hexane (Gas); method: Index of refraction calibration data
Mole fraction of hexane	Mole fraction of hexane	uncertainty
0.039	0.089	0.012
0.152	0.28	0.012
0.239	0.413	0.011
0.333	0.523	0.011
0.463	0.619	0.01
0.581	0.689	0.01
0.667	0.743	0.01
0.731	0.782	0.01
0.775	0.815	0.01
0.795	0.829	0.01
0.802	0.836	0.011
0.808	0.841	0.01
0.829	0.85	0.01
0.864	0.874	0.011
0.954	0.953	0.011

System: heptane + fluorobenzene; phases: Liquid, Gas
Fixed: Pressure, kPa = 101.4
Property: Boiling temperature at pressure P, K (Liquid); method: Ebulliometric method (Recirculating still)
Mole fraction of heptane	Boiling temperature at pressure P, K	uncertainty
0.023	357.3	0.4
0.048	357.7	0.4
0.104	357.6	0.4
0.166	357.8	0.4
0.259	358.2	0.4
0.318	358.5	0.4
0.399	359	0.4
0.43	359.3	0.4
0.466	359.6	0.4
0.509	359.9	0.4
0.578	360.6	0.4
0.648	361.7	0.4
0.742	363.4	0.4
0.816	365.1	0.4
0.845	366	0.4
0.913	368.1	0.4
0.952	369.1	0.4
0.982	370.3	0.4

System: heptane + fluorobenzene; phases: Gas, Liquid
Fixed: Pressure, kPa = 101.4
Property: Mole fraction of heptane (Gas); method: Index of refraction calibration data
Mole fraction of heptane	Mole fraction of heptane	uncertainty
0.023	0.031	0.02
0.048	0.057	0.02
0.104	0.106	0.02
0.166	0.153	0.02
0.259	0.209	0.02
0.318	0.252	0.02
0.399	0.296	0.02
0.43	0.323	0.02
0.466	0.348	0.02
0.509	0.374	0.02
0.578	0.429	0.02
0.648	0.491	0.02
0.742	0.591	0.02
0.816	0.675	0.02
0.845	0.734	0.02
0.913	0.84	0.02
0.952	0.902	0.02
0.982	0.963	0.02
