Measured thermophysical data. Enthalpy of Solution of Amino Acid Ionic Liquid 1-Ethyl-3-methylimidazolium Ammonioacetate
Source: J. Chem. Eng. Data, 2008, 10.1021/je700599z
Compound 1: 1-ethyl-3-methylimidazolium ammonioacetate, C8H15N3O2, InChI=1S/C6H11N2.C2H5NO2/c1-3-8-5-4-7(2)6-8;3-1-2(4)5/h4-6H,3H2,1-2H3;1,3H2,(H,4,5)/q+1;/p-1
Compound 2: water, H2O, InChI=1S/H2O/h1H2

System: 1-ethyl-3-methylimidazolium ammonioacetate; phases: Glass, Liquid, Air at 1 atmosphere
Property: Triple point temperature, K (Glass); method: DTA
Triple point temperature, K	uncertainty
211.1	3

System: water + 1-ethyl-3-methylimidazolium ammonioacetate; phases: Liquid
Fixed: Pressure, kPa = 101
Fixed: Temperature, K = 298.15
Property: Molar enthalpy of solution, kJ/mol (Liquid); method: Flow calorimetry
Molality, mol/kg of 1-ethyl-3-methylimidazolium ammonioacetate	Molar enthalpy of solution, kJ/mol	uncertainty
0.01655	29.18	0.35
0.01898	29.08	0.35
0.02315	29.02	0.32
0.03485	28.96	0.3
0.050055	28.84	0.27

System: water + 1-ethyl-3-methylimidazolium ammonioacetate; phases: Liquid
Fixed: Pressure, kPa = 101
Fixed: Temperature, K = 298.15
Property: Molar enthalpy of solution, kJ/mol (Liquid); method: Flow calorimetry
Molality, mol/kg of 1-ethyl-3-methylimidazolium ammonioacetate	Molar enthalpy of solution, kJ/mol	uncertainty
0.01607	27.79	0.33
0.02325	27.66	0.31
0.03474	27.51	0.29
0.04053	27.41	0.25
0.05802	27.28	0.24

System: water + 1-ethyl-3-methylimidazolium ammonioacetate; phases: Liquid
Fixed: Pressure, kPa = 101
Fixed: Temperature, K = 298.15
Property: Molar enthalpy of solution, kJ/mol (Liquid); method: Flow calorimetry
Molality, mol/kg of 1-ethyl-3-methylimidazolium ammonioacetate	Molar enthalpy of solution, kJ/mol	uncertainty
0.01057	33.9	0.38
0.02126	33.88	0.35
0.03074	33.8	0.32
0.03898	33.71	0.31
0.05018	33.57	0.29
0.06025	33.36	0.27

System: water + 1-ethyl-3-methylimidazolium ammonioacetate; phases: Liquid
Fixed: Pressure, kPa = 101
Fixed: Temperature, K = 298.15
Property: Molar enthalpy of solution, kJ/mol (Liquid); method: Flow calorimetry
Molality, mol/kg of 1-ethyl-3-methylimidazolium ammonioacetate	Molar enthalpy of solution, kJ/mol	uncertainty
0.01557	31.8	0.36
0.02328	31.59	0.34
0.03014	31.35	0.31
0.03585	31.16	0.28
0.04522	31.04	0.27

System: water + 1-ethyl-3-methylimidazolium ammonioacetate; phases: Liquid
Fixed: Pressure, kPa = 101
Fixed: Temperature, K = 298.15
Property: Molar enthalpy of solution, kJ/mol (Liquid); method: Flow calorimetry
Molality, mol/kg of 1-ethyl-3-methylimidazolium ammonioacetate	Molar enthalpy of solution, kJ/mol	uncertainty
0.01814	31.16	0.34
0.02359	30.91	0.32
0.03034	30.78	0.31
0.03504	30.68	0.31
0.04802	30.4	0.29
