Measured thermophysical data. Solid-Liquid Equilibria under High Pressure of Nine Pure n-Alkylbenzenes
Source: J. Chem. Eng. Data, 2008, 10.1021/je700529y
Compound 1: undecylbenzene, C17H28, InChI=1S/C17H28/c1-2-3-4-5-6-7-8-9-11-14-17-15-12-10-13-16-17/h10,12-13,15-16H,2-9,11,14H2,1H3, purity 99.6%
Compound 2: dodecylbenzene, C18H30, InChI=1S/C18H30/c1-2-3-4-5-6-7-8-9-10-12-15-18-16-13-11-14-17-18/h11,13-14,16-17H,2-10,12,15H2,1H3, purity 99.7%
Compound 3: tridecylbenzene, C19H32, InChI=1S/C19H32/c1-2-3-4-5-6-7-8-9-10-11-13-16-19-17-14-12-15-18-19/h12,14-15,17-18H,2-11,13,16H2,1H3, purity 99.5%
Compound 4: tetradecylbenzene, C20H34, InChI=1S/C20H34/c1-2-3-4-5-6-7-8-9-10-11-12-14-17-20-18-15-13-16-19-20/h13,15-16,18-19H,2-12,14,17H2,1H3, purity 98.6%
Compound 5: 1-phenylpentadecane, C21H36, InChI=1S/C21H36/c1-2-3-4-5-6-7-8-9-10-11-12-13-15-18-21-19-16-14-17-20-21/h14,16-17,19-20H,2-13,15,18H2,1H3, purity 98.6%
Compound 6: hexadecylbenzene, C22H38, InChI=1S/C22H38/c1-2-3-4-5-6-7-8-9-10-11-12-13-14-16-19-22-20-17-15-18-21-22/h15,17-18,20-21H,2-14,16,19H2,1H3, purity 99.8%
Compound 7: heptadecane, 1-phenyl-, C23H40, InChI=1S/C23H40/c1-2-3-4-5-6-7-8-9-10-11-12-13-14-15-17-20-23-21-18-16-19-22-23/h16,18-19,21-22H,2-15,17,20H2,1H3, purity 97%
Compound 8: octadecylbenzene, C24H42, InChI=1S/C24H42/c1-2-3-4-5-6-7-8-9-10-11-12-13-14-15-16-18-21-24-22-19-17-20-23-24/h17,19-20,22-23H,2-16,18,21H2,1H3, purity 97%
Compound 9: nonadecylbenzene, C25H44, InChI=1S/C25H44/c1-2-3-4-5-6-7-8-9-10-11-12-13-14-15-16-17-19-22-25-23-20-18-21-24-25/h18,20-21,23-24H,2-17,19,22H2,1H3, purity 98.3%

System: undecylbenzene; phases: Crystal, Liquid
Property: Solid-liquid equilibrium temperature, K (Crystal); method: VISOBS
Pressure, kPa	Solid-liquid equilibrium temperature, K	uncertainty
100	256.9	0.4
20600	261.4	0.5
40400	265.5	0.5
60900	269.7	0.5
81000	273.7	0.5
99900	277.1	0.5

System: dodecylbenzene; phases: Crystal, Liquid
Property: Solid-liquid equilibrium temperature, K (Crystal); method: VISOBS
Pressure, kPa	Solid-liquid equilibrium temperature, K	uncertainty
100	269.7	0.4
20200	274.4	0.5
40100	279	0.5
60000	283.4	0.5
79900	287.8	0.5
100000	292	0.5

System: tridecylbenzene; phases: Crystal, Liquid
Property: Solid-liquid equilibrium temperature, K (Crystal); method: VISOBS
Pressure, kPa	Solid-liquid equilibrium temperature, K	uncertainty
100	272.8	0.4
20100	277.3	0.5
40300	281.6	0.5
60800	285.9	0.5
79900	289.8	0.5
100100	293.7	0.5

System: tetradecylbenzene; phases: Crystal, Liquid
Property: Solid-liquid equilibrium temperature, K (Crystal); method: VISOBS
Pressure, kPa	Solid-liquid equilibrium temperature, K	uncertainty
100	289.1	0.4
20500	293.7	0.5
40000	297.8	0.5
60300	302	0.5
80400	306	0.5
99700	309.7	0.5

System: 1-phenylpentadecane; phases: Crystal, Liquid
Property: Solid-liquid equilibrium temperature, K (Crystal); method: VISOBS
Pressure, kPa	Solid-liquid equilibrium temperature, K	uncertainty
100	285.1	0.4
21000	289.7	0.5
40100	294.1	0.5
59900	298.4	0.5
80400	302.8	0.5
100200	306.7	0.5

System: hexadecylbenzene; phases: Crystal, Liquid
Property: Solid-liquid equilibrium temperature, K (Crystal); method: VISOBS
Pressure, kPa	Solid-liquid equilibrium temperature, K	uncertainty
100	299.5	0.4
20000	304.2	0.5
40300	308.6	0.5
59900	312.6	0.5
80400	316.8	0.5
100700	320.9	0.5

System: heptadecane, 1-phenyl-; phases: Crystal, Liquid
Property: Solid-liquid equilibrium temperature, K (Crystal); method: VISOBS
Pressure, kPa	Solid-liquid equilibrium temperature, K	uncertainty
100	292.8	0.4

System: octadecylbenzene; phases: Crystal, Liquid
Property: Solid-liquid equilibrium temperature, K (Crystal); method: VISOBS
Pressure, kPa	Solid-liquid equilibrium temperature, K	uncertainty
100	307.9	0.4
20100	312.5	0.5
50300	319.5	0.5
74900	324.5	0.5
99600	329.5	0.5

System: nonadecylbenzene; phases: Crystal, Liquid
Property: Solid-liquid equilibrium temperature, K (Crystal); method: VISOBS
Pressure, kPa	Solid-liquid equilibrium temperature, K	uncertainty
100	302.6	0.4
20000	307.2	0.5
40200	311.6	0.5
80200	319.7	0.5
99600	322.9	0.5
