Measured thermophysical data. Refractive Indices of Binary Mixtures of Tetrahydrofuran with Aromatic Hydrocarbon at Temperatures from (288.15 to 318.15) K
Source: J. Chem. Eng. Data, 2008, 10.1021/je700564c
Compound 1: tetrahydrofuran, C4H8O, InChI=1S/C4H8O/c1-2-4-5-3-1/h1-4H2
Compound 2: benzene, C6H6, InChI=1S/C6H6/c1-2-4-6-5-3-1/h1-6H
Compound 3: toluene, C7H8, InChI=1S/C7H8/c1-7-5-3-2-4-6-7/h2-6H,1H3
Compound 4: 1,2-dimethylbenzene, C8H10, InChI=1S/C8H10/c1-7-5-3-4-6-8(7)2/h3-6H,1-2H3
Compound 5: 1,3-dimethylbenzene, C8H10, InChI=1S/C8H10/c1-7-4-3-5-8(2)6-7/h3-6H,1-2H3
Compound 6: 1,4-dimethylbenzene, C8H10, InChI=1S/C8H10/c1-7-3-5-8(2)6-4-7/h3-6H,1-2H3
Compound 7: 1,3,5-trimethylbenzene, C9H12, InChI=1S/C9H12/c1-7-4-8(2)6-9(3)5-7/h4-6H,1-3H3

System: tetrahydrofuran; phases: Liquid
Fixed: Pressure, kPa = 101.325
Property: Refractive index (Na D-line) (Liquid); method: Standard Abbe refractometry
Temperature, K	Refractive index (Na D-line)	uncertainty
288.15	1.4094	0.0004
293.15	1.407	0.0004
298.15	1.4046	0.0004
303.15	1.4023	0.0004
308.15	1.3999	0.0004
313.15	1.3975	0.0004
318.15	1.3951	0.0004

System: benzene; phases: Liquid
Fixed: Pressure, kPa = 101.325
Property: Refractive index (Na D-line) (Liquid); method: Standard Abbe refractometry
Temperature, K	Refractive index (Na D-line)	uncertainty
288.15	1.5042	0.0004
293.15	1.5011	0.0004
298.15	1.498	0.0004
303.15	1.4949	0.0004
308.15	1.4918	0.0004
313.15	1.4887	0.0004
318.15	1.4856	0.0004

System: toluene; phases: Liquid
Fixed: Pressure, kPa = 101.325
Property: Refractive index (Na D-line) (Liquid); method: Standard Abbe refractometry
Temperature, K	Refractive index (Na D-line)	uncertainty
288.15	1.4998	0.0004
293.15	1.497	0.0004
298.15	1.4942	0.0004
303.15	1.4913	0.0004
308.15	1.4884	0.0004
313.15	1.4855	0.0004
318.15	1.4826	0.0004

System: 1,2-dimethylbenzene; phases: Liquid
Fixed: Pressure, kPa = 101.325
Property: Refractive index (Na D-line) (Liquid); method: Standard Abbe refractometry
Temperature, K	Refractive index (Na D-line)	uncertainty
288.15	1.5083	0.0004
293.15	1.5055	0.0004
298.15	1.5029	0.0004
303.15	1.5002	0.0004
308.15	1.4975	0.0004
313.15	1.4948	0.0004
318.15	1.4921	0.0004

System: 1,3-dimethylbenzene; phases: Liquid
Fixed: Pressure, kPa = 101.325
Property: Refractive index (Na D-line) (Liquid); method: Standard Abbe refractometry
Temperature, K	Refractive index (Na D-line)	uncertainty
288.15	1.4999	0.0004
293.15	1.4974	0.0004
298.15	1.4948	0.0004
303.15	1.4922	0.0004
308.15	1.4896	0.0004
313.15	1.487	0.0004
318.15	1.4844	0.0004

System: 1,4-dimethylbenzene; phases: Liquid
Fixed: Pressure, kPa = 101.325
Property: Refractive index (Na D-line) (Liquid); method: Standard Abbe refractometry
Temperature, K	Refractive index (Na D-line)	uncertainty
288.15	1.4985	0.0004
293.15	1.4959	0.0004
298.15	1.4933	0.0004
303.15	1.4907	0.0004
308.15	1.4881	0.0004
313.15	1.4855	0.0004
318.15	1.483	0.0004

System: 1,3,5-trimethylbenzene; phases: Liquid
Fixed: Pressure, kPa = 101.325
Property: Refractive index (Na D-line) (Liquid); method: Standard Abbe refractometry
Temperature, K	Refractive index (Na D-line)	uncertainty
288.15	1.502	0.0004
293.15	1.4995	0.0004
298.15	1.4969	0.0004
303.15	1.4944	0.0004
308.15	1.4918	0.0004
313.15	1.4893	0.0004
318.15	1.4868	0.0004

System: benzene + tetrahydrofuran; phases: Liquid
Fixed: Pressure, kPa = 101
Property: Refractive index (Na D-line) (Liquid); method: Standard Abbe refractometry
Temperature, K	Mole fraction of tetrahydrofuran	Refractive index (Na D-line)	uncertainty
288.15	0	1.5042	0.0004
288.15	0.0754	1.498	0.0004
288.15	0.1518	1.4917	0.0004
288.15	0.223	1.4855	0.0004
288.15	0.2962	1.4791	0.0004
288.15	0.3556	1.4738	0.0004
288.15	0.4128	1.4686	0.0004
288.15	0.4812	1.4622	0.0004
288.15	0.5506	1.4556	0.0004
288.15	0.6219	1.4487	0.0004
288.15	0.6884	1.4421	0.0004
288.15	0.7512	1.4358	0.0004
288.15	0.8119	1.4295	0.0004
288.15	0.8792	1.4225	0.0004
288.15	0.9388	1.4161	0.0004
288.15	1	1.4094	0.0004
293.15	0	1.5011	0.0004
293.15	0.0754	1.4949	0.0004
293.15	0.1518	1.4886	0.0004
293.15	0.223	1.4825	0.0004
293.15	0.2962	1.4761	0.0004
293.15	0.3556	1.4709	0.0004
293.15	0.4128	1.4657	0.0004
293.15	0.4812	1.4593	0.0004
293.15	0.5506	1.4528	0.0004
293.15	0.6219	1.446	0.0004
293.15	0.6884	1.4394	0.0004
293.15	0.7512	1.4332	0.0004
293.15	0.8119	1.4269	0.0004
293.15	0.8792	1.42	0.0004
293.15	0.9388	1.4136	0.0004
293.15	1	1.407	0.0004
298.15	0	1.498	0.0004
298.15	0.0754	1.4918	0.0004
298.15	0.1518	1.4855	0.0004
298.15	0.223	1.4795	0.0004
298.15	0.2962	1.4732	0.0004
298.15	0.3556	1.4679	0.0004
298.15	0.4128	1.4628	0.0004
298.15	0.4812	1.4565	0.0004
298.15	0.5506	1.45	0.0004
298.15	0.6219	1.4432	0.0004
298.15	0.6884	1.4367	0.0004
298.15	0.7512	1.4305	0.0004
298.15	0.8119	1.4243	0.0004
298.15	0.8792	1.4174	0.0004
298.15	0.9388	1.4111	0.0004
298.15	1	1.4046	0.0004
303.15	0	1.4949	0.0004
303.15	0.0754	1.4888	0.0004
303.15	0.1518	1.4825	0.0004
303.15	0.223	1.4765	0.0004
303.15	0.2962	1.4702	0.0004
303.15	0.3556	1.465	0.0004
303.15	0.4128	1.4599	0.0004
303.15	0.4812	1.4537	0.0004
303.15	0.5506	1.4473	0.0004
303.15	0.6219	1.4405	0.0004
303.15	0.6884	1.4341	0.0004
303.15	0.7512	1.4279	0.0004
303.15	0.8119	1.4218	0.0004
303.15	0.8792	1.4149	0.0004
303.15	0.9388	1.4087	0.0004
303.15	1	1.4023	0.0004
308.15	0	1.4918	0.0004
308.15	0.0754	1.4857	0.0004
308.15	0.1518	1.4794	0.0004
308.15	0.223	1.4735	0.0004
308.15	0.2962	1.4672	0.0004
308.15	0.3556	1.4621	0.0004
308.15	0.4128	1.457	0.0004
308.15	0.4812	1.4509	0.0004
308.15	0.5506	1.4445	0.0004
308.15	0.6219	1.4378	0.0004
308.15	0.6884	1.4314	0.0004
308.15	0.7512	1.4253	0.0004
308.15	0.8119	1.4192	0.0004
308.15	0.8792	1.4124	0.0004
308.15	0.9388	1.4062	0.0004
308.15	1	1.3999	0.0004
313.15	0	1.4887	0.0004
313.15	0.0754	1.4826	0.0004
313.15	0.1518	1.4764	0.0004
313.15	0.223	1.4705	0.0004
313.15	0.2962	1.4642	0.0004
313.15	0.3556	1.4592	0.0004
313.15	0.4128	1.4541	0.0004
313.15	0.4812	1.448	0.0004
313.15	0.5506	1.4417	0.0004
313.15	0.6219	1.435	0.0004
313.15	0.6884	1.4287	0.0004
313.15	0.7512	1.4226	0.0004
313.15	0.8119	1.4166	0.0004
313.15	0.8792	1.4098	0.0004
313.15	0.9388	1.4037	0.0004
313.15	1	1.3975	0.0004
318.15	0	1.4856	0.0004
318.15	0.0754	1.4796	0.0004
318.15	0.1518	1.4734	0.0004
318.15	0.223	1.4675	0.0004
318.15	0.2962	1.4614	0.0004
318.15	0.3556	1.4563	0.0004
318.15	0.4128	1.4513	0.0004
318.15	0.4812	1.4452	0.0004
318.15	0.5506	1.4389	0.0004
318.15	0.6219	1.4323	0.0004
318.15	0.6884	1.426	0.0004
318.15	0.7512	1.42	0.0004
318.15	0.8119	1.414	0.0004
318.15	0.8792	1.4073	0.0004
318.15	0.9388	1.4013	0.0004
318.15	1	1.3951	0.0004

System: toluene + tetrahydrofuran; phases: Liquid
Fixed: Pressure, kPa = 101
Property: Refractive index (Na D-line) (Liquid); method: Standard Abbe refractometry
Temperature, K	Mole fraction of tetrahydrofuran	Refractive index (Na D-line)	uncertainty
288.15	0	1.4998	0.0004
288.15	0.0718	1.4952	0.0004
288.15	0.1498	1.4898	0.0004
288.15	0.2283	1.4841	0.0004
288.15	0.2902	1.4795	0.0004
288.15	0.3452	1.4751	0.0004
288.15	0.4005	1.4706	0.0004
288.15	0.4694	1.4647	0.0004
288.15	0.5368	1.4587	0.0004
288.15	0.6067	1.4522	0.0004
288.15	0.6704	1.4461	0.0004
288.15	0.7378	1.4392	0.0004
288.15	0.8018	1.4325	0.0004
288.15	0.8714	1.4248	0.0004
288.15	0.9368	1.4171	0.0004
288.15	1	1.4094	0.0004
293.15	0	1.497	0.0004
293.15	0.0718	1.4923	0.0004
293.15	0.1498	1.487	0.0004
293.15	0.2283	1.4813	0.0004
293.15	0.2902	1.4766	0.0004
293.15	0.3452	1.4723	0.0004
293.15	0.4005	1.4678	0.0004
293.15	0.4694	1.4619	0.0004
293.15	0.5368	1.456	0.0004
293.15	0.6067	1.4495	0.0004
293.15	0.6704	1.4434	0.0004
293.15	0.7378	1.4366	0.0004
293.15	0.8018	1.4298	0.0004
293.15	0.8714	1.4222	0.0004
293.15	0.9368	1.4146	0.0004
293.15	1	1.407	0.0004
298.15	0	1.4942	0.0004
298.15	0.0718	1.4895	0.0004
298.15	0.1498	1.4841	0.0004
298.15	0.2283	1.4784	0.0004
298.15	0.2902	1.4738	0.0004
298.15	0.3452	1.4695	0.0004
298.15	0.4005	1.465	0.0004
298.15	0.4694	1.4592	0.0004
298.15	0.5368	1.4533	0.0004
298.15	0.6067	1.4468	0.0004
298.15	0.6704	1.4407	0.0004
298.15	0.7378	1.4339	0.0004
298.15	0.8018	1.4272	0.0004
298.15	0.8714	1.4196	0.0004
298.15	0.9368	1.4121	0.0004
298.15	1	1.4046	0.0004
303.15	0	1.4913	0.0004
303.15	0.0718	1.4866	0.0004
303.15	0.1498	1.4812	0.0004
303.15	0.2283	1.4755	0.0004
303.15	0.2902	1.4709	0.0004
303.15	0.3452	1.4667	0.0004
303.15	0.4005	1.4623	0.0004
303.15	0.4694	1.4565	0.0004
303.15	0.5368	1.4505	0.0004
303.15	0.6067	1.4441	0.0004
303.15	0.6704	1.438	0.0004
303.15	0.7378	1.4313	0.0004
303.15	0.8018	1.4246	0.0004
303.15	0.8714	1.4171	0.0004
303.15	0.9368	1.4097	0.0004
303.15	1	1.4023	0.0004
308.15	0	1.4884	0.0004
308.15	0.0718	1.4837	0.0004
308.15	0.1498	1.4783	0.0004
308.15	0.2283	1.4727	0.0004
308.15	0.2902	1.4681	0.0004
308.15	0.3452	1.4639	0.0004
308.15	0.4005	1.4595	0.0004
308.15	0.4694	1.4537	0.0004
308.15	0.5368	1.4478	0.0004
308.15	0.6067	1.4414	0.0004
308.15	0.6704	1.4353	0.0004
308.15	0.7378	1.4286	0.0004
308.15	0.8018	1.422	0.0004
308.15	0.8714	1.4145	0.0004
308.15	0.9368	1.4072	0.0004
308.15	1	1.3999	0.0004
313.15	0	1.4855	0.0004
313.15	0.0718	1.4808	0.0004
313.15	0.1498	1.4755	0.0004
313.15	0.2283	1.4698	0.0004
313.15	0.2902	1.4652	0.0004
313.15	0.3452	1.4611	0.0004
313.15	0.4005	1.4568	0.0004
313.15	0.4694	1.451	0.0004
313.15	0.5368	1.4451	0.0004
313.15	0.6067	1.4387	0.0004
313.15	0.6704	1.4326	0.0004
313.15	0.7378	1.426	0.0004
313.15	0.8018	1.4194	0.0004
313.15	0.8714	1.4119	0.0004
313.15	0.9368	1.4047	0.0004
313.15	1	1.3975	0.0004
318.15	0	1.4826	0.0004
318.15	0.0718	1.4779	0.0004
318.15	0.1498	1.4726	0.0004
318.15	0.2283	1.467	0.0004
318.15	0.2902	1.4625	0.0004
318.15	0.3452	1.4583	0.0004
318.15	0.4005	1.4539	0.0004
318.15	0.4694	1.4482	0.0004
318.15	0.5368	1.4424	0.0004
318.15	0.6067	1.4361	0.0004
318.15	0.6704	1.43	0.0004
318.15	0.7378	1.4234	0.0004
318.15	0.8018	1.4169	0.0004
318.15	0.8714	1.4095	0.0004
318.15	0.9368	1.4023	0.0004
318.15	1	1.3951	0.0004

System: 1,2-dimethylbenzene + tetrahydrofuran; phases: Liquid
Fixed: Pressure, kPa = 101
Property: Refractive index (Na D-line) (Liquid); method: Standard Abbe refractometry
Temperature, K	Mole fraction of tetrahydrofuran	Refractive index (Na D-line)	uncertainty
288.15	0	1.5083	0.0004
288.15	0.0764	1.5032	0.0004
288.15	0.1504	1.498	0.0004
288.15	0.2243	1.4925	0.0004
288.15	0.2942	1.487	0.0004
288.15	0.366	1.481	0.0004
288.15	0.4226	1.4761	0.0004
288.15	0.4801	1.4708	0.0004
288.15	0.531	1.4659	0.0004
288.15	0.585	1.4605	0.0004
288.15	0.6578	1.4529	0.0004
288.15	0.7322	1.4445	0.0004
288.15	0.8049	1.4358	0.0004
288.15	0.8708	1.4275	0.0004
288.15	0.9392	1.4182	0.0004
288.15	1	1.4094	0.0004
293.15	0	1.5055	0.0004
293.15	0.0764	1.5004	0.0004
293.15	0.1504	1.4953	0.0004
293.15	0.2243	1.4898	0.0004
293.15	0.2942	1.4843	0.0004
293.15	0.366	1.4783	0.0004
293.15	0.4226	1.4734	0.0004
293.15	0.4801	1.4681	0.0004
293.15	0.531	1.4633	0.0004
293.15	0.585	1.4579	0.0004
293.15	0.6578	1.4503	0.0004
293.15	0.7322	1.4419	0.0004
293.15	0.8049	1.4333	0.0004
293.15	0.8708	1.425	0.0004
293.15	0.9392	1.4157	0.0004
293.15	1	1.407	0.0004
298.15	0	1.5029	0.0004
298.15	0.0764	1.4978	0.0004
298.15	0.1504	1.4926	0.0004
298.15	0.2243	1.4872	0.0004
298.15	0.2942	1.4817	0.0004
298.15	0.366	1.4757	0.0004
298.15	0.4226	1.4708	0.0004
298.15	0.4801	1.4656	0.0004
298.15	0.531	1.4607	0.0004
298.15	0.585	1.4553	0.0004
298.15	0.6578	1.4477	0.0004
298.15	0.7322	1.4394	0.0004
298.15	0.8049	1.4308	0.0004
298.15	0.8708	1.4225	0.0004
298.15	0.9392	1.4133	0.0004
298.15	1	1.4046	0.0004
303.15	0	1.5002	0.0004
303.15	0.0764	1.4951	0.0004
303.15	0.1504	1.49	0.0004
303.15	0.2243	1.4845	0.0004
303.15	0.2942	1.479	0.0004
303.15	0.366	1.4731	0.0004
303.15	0.4226	1.4682	0.0004
303.15	0.4801	1.463	0.0004
303.15	0.531	1.4582	0.0004
303.15	0.585	1.4528	0.0004
303.15	0.6578	1.4452	0.0004
303.15	0.7322	1.437	0.0004
303.15	0.8049	1.4284	0.0004
303.15	0.8708	1.4201	0.0004
303.15	0.9392	1.4109	0.0004
303.15	1	1.4023	0.0004
308.15	0	1.4975	0.0004
308.15	0.0764	1.4924	0.0004
308.15	0.1504	1.4873	0.0004
308.15	0.2243	1.4818	0.0004
308.15	0.2942	1.4764	0.0004
308.15	0.366	1.4705	0.0004
308.15	0.4226	1.4656	0.0004
308.15	0.4801	1.4604	0.0004
308.15	0.531	1.4556	0.0004
308.15	0.585	1.4502	0.0004
308.15	0.6578	1.4427	0.0004
308.15	0.7322	1.4344	0.0004
308.15	0.8049	1.4259	0.0004
308.15	0.8708	1.4176	0.0004
308.15	0.9392	1.4085	0.0004
308.15	1	1.3999	0.0004
313.15	0	1.4948	0.0004
313.15	0.0764	1.4897	0.0004
313.15	0.1504	1.4846	0.0004
313.15	0.2243	1.4791	0.0004
313.15	0.2942	1.4737	0.0004
313.15	0.366	1.4678	0.0004
313.15	0.4226	1.4629	0.0004
313.15	0.4801	1.4578	0.0004
313.15	0.531	1.453	0.0004
313.15	0.585	1.4476	0.0004
313.15	0.6578	1.4401	0.0004
313.15	0.7322	1.4319	0.0004
313.15	0.8049	1.4234	0.0004
313.15	0.8708	1.4151	0.0004
313.15	0.9392	1.4061	0.0004
313.15	1	1.3975	0.0004
318.15	0	1.4921	0.0004
318.15	0.0764	1.487	0.0004
318.15	0.1504	1.4819	0.0004
318.15	0.2243	1.4765	0.0004
318.15	0.2942	1.4711	0.0004
318.15	0.366	1.4652	0.0004
318.15	0.4226	1.4603	0.0004
318.15	0.4801	1.4551	0.0004
318.15	0.531	1.4504	0.0004
318.15	0.585	1.4451	0.0004
318.15	0.6578	1.4375	0.0004
318.15	0.7322	1.4294	0.0004
318.15	0.8049	1.4209	0.0004
318.15	0.8708	1.4127	0.0004
318.15	0.9392	1.4036	0.0004
318.15	1	1.3951	0.0004

System: 1,3-dimethylbenzene + tetrahydrofuran; phases: Liquid
Fixed: Pressure, kPa = 101
Property: Refractive index (Na D-line) (Liquid); method: Standard Abbe refractometry
Temperature, K	Mole fraction of tetrahydrofuran	Refractive index (Na D-line)	uncertainty
288.15	0	1.4999	0.0004
288.15	0.0722	1.4956	0.0004
288.15	0.1486	1.4908	0.0004
288.15	0.2134	1.4865	0.0004
288.15	0.2804	1.4818	0.0004
288.15	0.3536	1.4764	0.0004
288.15	0.4255	1.4707	0.0004
288.15	0.4864	1.4656	0.0004
288.15	0.5476	1.4602	0.0004
288.15	0.6041	1.455	0.0004
288.15	0.6751	1.448	0.0004
288.15	0.7396	1.4412	0.0004
288.15	0.8005	1.4345	0.0004
288.15	0.8722	1.426	0.0004
288.15	0.9378	1.4178	0.0004
288.15	1	1.4094	0.0004
293.15	0	1.4974	0.0004
293.15	0.0722	1.4931	0.0004
293.15	0.1486	1.4883	0.0004
293.15	0.2134	1.484	0.0004
293.15	0.2804	1.4793	0.0004
293.15	0.3536	1.4739	0.0004
293.15	0.4255	1.4682	0.0004
293.15	0.4864	1.4631	0.0004
293.15	0.5476	1.4577	0.0004
293.15	0.6041	1.4525	0.0004
293.15	0.6751	1.4455	0.0004
293.15	0.7396	1.4387	0.0004
293.15	0.8005	1.432	0.0004
293.15	0.8722	1.4236	0.0004
293.15	0.9378	1.4153	0.0004
293.15	1	1.407	0.0004
298.15	0	1.4948	0.0004
298.15	0.0722	1.4905	0.0004
298.15	0.1486	1.4857	0.0004
298.15	0.2134	1.4814	0.0004
298.15	0.2804	1.4767	0.0004
298.15	0.3536	1.4713	0.0004
298.15	0.4255	1.4656	0.0004
298.15	0.4864	1.4605	0.0004
298.15	0.5476	1.4552	0.0004
298.15	0.6041	1.4499	0.0004
298.15	0.6751	1.4429	0.0004
298.15	0.7396	1.4362	0.0004
298.15	0.8005	1.4295	0.0004
298.15	0.8722	1.4211	0.0004
298.15	0.9378	1.4129	0.0004
298.15	1	1.4046	0.0004
303.15	0	1.4922	0.0004
303.15	0.0722	1.4879	0.0004
303.15	0.1486	1.4831	0.0004
303.15	0.2134	1.4788	0.0004
303.15	0.2804	1.4741	0.0004
303.15	0.3536	1.4687	0.0004
303.15	0.4255	1.4631	0.0004
303.15	0.4864	1.458	0.0004
303.15	0.5476	1.4526	0.0004
303.15	0.6041	1.4474	0.0004
303.15	0.6751	1.4405	0.0004
303.15	0.7396	1.4338	0.0004
303.15	0.8005	1.4271	0.0004
303.15	0.8722	1.4187	0.0004
303.15	0.9378	1.4106	0.0004
303.15	1	1.4023	0.0004
308.15	0	1.4896	0.0004
308.15	0.0722	1.4853	0.0004
308.15	0.1486	1.4805	0.0004
308.15	0.2134	1.4762	0.0004
308.15	0.2804	1.4715	0.0004
308.15	0.3536	1.4661	0.0004
308.15	0.4255	1.4605	0.0004
308.15	0.4864	1.4555	0.0004
308.15	0.5476	1.4501	0.0004
308.15	0.6041	1.4449	0.0004
308.15	0.6751	1.438	0.0004
308.15	0.7396	1.4313	0.0004
308.15	0.8005	1.4246	0.0004
308.15	0.8722	1.4163	0.0004
308.15	0.9378	1.4081	0.0004
308.15	1	1.3999	0.0004
313.15	0	1.487	0.0004
313.15	0.0722	1.4827	0.0004
313.15	0.1486	1.4779	0.0004
313.15	0.2134	1.4736	0.0004
313.15	0.2804	1.4689	0.0004
313.15	0.3536	1.4636	0.0004
313.15	0.4255	1.4579	0.0004
313.15	0.4864	1.4529	0.0004
313.15	0.5476	1.4476	0.0004
313.15	0.6041	1.4424	0.0004
313.15	0.6751	1.4355	0.0004
313.15	0.7396	1.4288	0.0004
313.15	0.8005	1.4221	0.0004
313.15	0.8722	1.4138	0.0004
313.15	0.9378	1.4057	0.0004
313.15	1	1.3975	0.0004
318.15	0	1.4844	0.0004
318.15	0.0722	1.4801	0.0004
318.15	0.1486	1.4753	0.0004
318.15	0.2134	1.471	0.0004
318.15	0.2804	1.4664	0.0004
318.15	0.3536	1.461	0.0004
318.15	0.4255	1.4554	0.0004
318.15	0.4864	1.4504	0.0004
318.15	0.5476	1.445	0.0004
318.15	0.6041	1.4398	0.0004
318.15	0.6751	1.4329	0.0004
318.15	0.7396	1.4263	0.0004
318.15	0.8005	1.4197	0.0004
318.15	0.8722	1.4114	0.0004
318.15	0.9378	1.4033	0.0004
318.15	1	1.3951	0.0004

System: 1,4-dimethylbenzene + tetrahydrofuran; phases: Liquid
Fixed: Pressure, kPa = 101
Property: Refractive index (Na D-line) (Liquid); method: Standard Abbe refractometry
Temperature, K	Mole fraction of tetrahydrofuran	Refractive index (Na D-line)	uncertainty
288.15	0	1.4985	0.0004
288.15	0.084	1.4936	0.0004
288.15	0.1716	1.4881	0.0004
288.15	0.2322	1.4842	0.0004
288.15	0.2934	1.48	0.0004
288.15	0.3548	1.4755	0.0004
288.15	0.4284	1.4698	0.0004
288.15	0.4896	1.4648	0.0004
288.15	0.5518	1.4594	0.0004
288.15	0.6201	1.4531	0.0004
288.15	0.6825	1.447	0.0004
288.15	0.7414	1.4409	0.0004
288.15	0.8102	1.4333	0.0004
288.15	0.8756	1.4256	0.0004
288.15	0.9409	1.4174	0.0004
288.15	1	1.4094	0.0004
293.15	0	1.4959	0.0004
293.15	0.084	1.491	0.0004
293.15	0.1716	1.4855	0.0004
293.15	0.2322	1.4816	0.0004
293.15	0.2934	1.4774	0.0004
293.15	0.3548	1.4729	0.0004
293.15	0.4284	1.4672	0.0004
293.15	0.4896	1.4622	0.0004
293.15	0.5518	1.4568	0.0004
293.15	0.6201	1.4505	0.0004
293.15	0.6825	1.4444	0.0004
293.15	0.7414	1.4383	0.0004
293.15	0.8102	1.4308	0.0004
293.15	0.8756	1.4231	0.0004
293.15	0.9409	1.4149	0.0004
293.15	1	1.407	0.0004
298.15	0	1.4933	0.0004
298.15	0.084	1.4884	0.0004
298.15	0.1716	1.4829	0.0004
298.15	0.2322	1.479	0.0004
298.15	0.2934	1.4748	0.0004
298.15	0.3548	1.4703	0.0004
298.15	0.4284	1.4646	0.0004
298.15	0.4896	1.4596	0.0004
298.15	0.5518	1.4542	0.0004
298.15	0.6201	1.448	0.0004
298.15	0.6825	1.4419	0.0004
298.15	0.7414	1.4358	0.0004
298.15	0.8102	1.4282	0.0004
298.15	0.8756	1.4206	0.0004
298.15	0.9409	1.4125	0.0004
298.15	1	1.4046	0.0004
303.15	0	1.4907	0.0004
303.15	0.084	1.4858	0.0004
303.15	0.1716	1.4803	0.0004
303.15	0.2322	1.4764	0.0004
303.15	0.2934	1.4722	0.0004
303.15	0.3548	1.4677	0.0004
303.15	0.4284	1.4621	0.0004
303.15	0.4896	1.4571	0.0004
303.15	0.5518	1.4517	0.0004
303.15	0.6201	1.4454	0.0004
303.15	0.6825	1.4394	0.0004
303.15	0.7414	1.4333	0.0004
303.15	0.8102	1.4258	0.0004
303.15	0.8756	1.4182	0.0004
303.15	0.9409	1.4101	0.0004
303.15	1	1.4023	0.0004
308.15	0	1.4881	0.0004
308.15	0.084	1.4832	0.0004
308.15	0.1716	1.4777	0.0004
308.15	0.2322	1.4738	0.0004
308.15	0.2934	1.4696	0.0004
308.15	0.3548	1.4651	0.0004
308.15	0.4284	1.4595	0.0004
308.15	0.4896	1.4545	0.0004
308.15	0.5518	1.4491	0.0004
308.15	0.6201	1.4429	0.0004
308.15	0.6825	1.4368	0.0004
308.15	0.7414	1.4308	0.0004
308.15	0.8102	1.4233	0.0004
308.15	0.8756	1.4157	0.0004
308.15	0.9409	1.4077	0.0004
308.15	1	1.3999	0.0004
313.15	0	1.4855	0.0004
313.15	0.084	1.4806	0.0004
313.15	0.1716	1.4751	0.0004
313.15	0.2322	1.4712	0.0004
313.15	0.2934	1.467	0.0004
313.15	0.3548	1.4625	0.0004
313.15	0.4284	1.4569	0.0004
313.15	0.4896	1.4519	0.0004
313.15	0.5518	1.4465	0.0004
313.15	0.6201	1.4403	0.0004
313.15	0.6825	1.4342	0.0004
313.15	0.7414	1.4282	0.0004
313.15	0.8102	1.4207	0.0004
313.15	0.8756	1.4132	0.0004
313.15	0.9409	1.4052	0.0004
313.15	1	1.3975	0.0004
318.15	0	1.483	0.0004
318.15	0.084	1.478	0.0004
318.15	0.1716	1.4726	0.0004
318.15	0.2322	1.4686	0.0004
318.15	0.2934	1.4644	0.0004
318.15	0.3548	1.46	0.0004
318.15	0.4284	1.4544	0.0004
318.15	0.4896	1.4494	0.0004
318.15	0.5518	1.4441	0.0004
318.15	0.6201	1.4378	0.0004
318.15	0.6825	1.4318	0.0004
318.15	0.7414	1.4258	0.0004
318.15	0.8102	1.4183	0.0004
318.15	0.8756	1.4108	0.0004
318.15	0.9409	1.4028	0.0004
318.15	1	1.3951	0.0004

System: 1,3,5-trimethylbenzene + tetrahydrofuran; phases: Liquid
Fixed: Pressure, kPa = 101
Property: Refractive index (Na D-line) (Liquid); method: Standard Abbe refractometry
Temperature, K	Mole fraction of tetrahydrofuran	Refractive index (Na D-line)	uncertainty
288.15	0	1.502	0.0004
288.15	0.0735	1.4977	0.0004
288.15	0.1513	1.4928	0.0004
288.15	0.2274	1.4878	0.0004
288.15	0.2986	1.4827	0.0004
288.15	0.3672	1.4776	0.0004
288.15	0.4305	1.4726	0.0004
288.15	0.4912	1.4675	0.0004
288.15	0.5496	1.4624	0.0004
288.15	0.6055	1.4572	0.0004
288.15	0.6784	1.4499	0.0004
288.15	0.7516	1.4419	0.0004
288.15	0.828	1.433	0.0004
288.15	0.879	1.4265	0.0004
288.15	0.9412	1.4181	0.0004
288.15	1	1.4094	0.0004
293.15	0	1.4995	0.0004
293.15	0.0735	1.4952	0.0004
293.15	0.1513	1.4903	0.0004
293.15	0.2274	1.4852	0.0004
293.15	0.2986	1.4802	0.0004
293.15	0.3672	1.4751	0.0004
293.15	0.4305	1.4701	0.0004
293.15	0.4912	1.465	0.0004
293.15	0.5496	1.4599	0.0004
293.15	0.6055	1.4547	0.0004
293.15	0.6784	1.4474	0.0004
293.15	0.7516	1.4395	0.0004
293.15	0.828	1.4305	0.0004
293.15	0.879	1.4241	0.0004
293.15	0.9412	1.4157	0.0004
293.15	1	1.407	0.0004
298.15	0	1.4969	0.0004
298.15	0.0735	1.4925	0.0004
298.15	0.1513	1.4877	0.0004
298.15	0.2274	1.4826	0.0004
298.15	0.2986	1.4776	0.0004
298.15	0.3672	1.4725	0.0004
298.15	0.4305	1.4675	0.0004
298.15	0.4912	1.4625	0.0004
298.15	0.5496	1.4573	0.0004
298.15	0.6055	1.4521	0.0004
298.15	0.6784	1.4448	0.0004
298.15	0.7516	1.437	0.0004
298.15	0.828	1.428	0.0004
298.15	0.879	1.4216	0.0004
298.15	0.9412	1.4132	0.0004
298.15	1	1.4046	0.0004
303.15	0	1.4944	0.0004
303.15	0.0735	1.49	0.0004
303.15	0.1513	1.4851	0.0004
303.15	0.2274	1.4801	0.0004
303.15	0.2986	1.4751	0.0004
303.15	0.3672	1.47	0.0004
303.15	0.4305	1.465	0.0004
303.15	0.4912	1.46	0.0004
303.15	0.5496	1.4549	0.0004
303.15	0.6055	1.4497	0.0004
303.15	0.6784	1.4424	0.0004
303.15	0.7516	1.4346	0.0004
303.15	0.828	1.4256	0.0004
303.15	0.879	1.4192	0.0004
303.15	0.9412	1.4109	0.0004
303.15	1	1.4023	0.0004
308.15	0	1.4918	0.0004
308.15	0.0735	1.4874	0.0004
308.15	0.1513	1.4825	0.0004
308.15	0.2274	1.4775	0.0004
308.15	0.2986	1.4725	0.0004
308.15	0.3672	1.4674	0.0004
308.15	0.4305	1.4625	0.0004
308.15	0.4912	1.4574	0.0004
308.15	0.5496	1.4523	0.0004
308.15	0.6055	1.4471	0.0004
308.15	0.6784	1.4399	0.0004
308.15	0.7516	1.432	0.0004
308.15	0.828	1.4231	0.0004
308.15	0.879	1.4167	0.0004
308.15	0.9412	1.4084	0.0004
308.15	1	1.3999	0.0004
313.15	0	1.4893	0.0004
313.15	0.0735	1.4849	0.0004
313.15	0.1513	1.48	0.0004
313.15	0.2274	1.4749	0.0004
313.15	0.2986	1.47	0.0004
313.15	0.3672	1.4649	0.0004
313.15	0.4305	1.4599	0.0004
313.15	0.4912	1.4549	0.0004
313.15	0.5496	1.4498	0.0004
313.15	0.6055	1.4446	0.0004
313.15	0.6784	1.4374	0.0004
313.15	0.7516	1.4295	0.0004
313.15	0.828	1.4206	0.0004
313.15	0.879	1.4142	0.0004
313.15	0.9412	1.4059	0.0004
313.15	1	1.3975	0.0004
318.15	0	1.4868	0.0004
318.15	0.0735	1.4823	0.0004
318.15	0.1513	1.4774	0.0004
318.15	0.2274	1.4724	0.0004
318.15	0.2986	1.4675	0.0004
318.15	0.3672	1.4624	0.0004
318.15	0.4305	1.4574	0.0004
318.15	0.4912	1.4524	0.0004
318.15	0.5496	1.4473	0.0004
318.15	0.6055	1.4421	0.0004
318.15	0.6784	1.4349	0.0004
318.15	0.7516	1.427	0.0004
318.15	0.828	1.4181	0.0004
318.15	0.879	1.4118	0.0004
318.15	0.9412	1.4035	0.0004
318.15	1	1.3951	0.0004
