Measured thermophysical data. Solubility Differences of Halocarbon Isomers in Ionic Liquid [emim][Tf2N]
Source: J. Chem. Eng. Data, 2007, 10.1021/je700295e
Compound 1: 1,1,2-trichloro-1,2,2-trifluoroethane, C2Cl3F3, InChI=1S/C2Cl3F3/c3-1(4,6)2(5,7)8, purity 99.99%
Compound 2: 1,1,1-trichloro-2,2,2-trifluoroethane, C2Cl3F3, InChI=1S/C2Cl3F3/c3-1(4,5)2(6,7)8, purity 99.4%
Compound 3: 1,2-dichloro-1,1,2,2-tetrafluoroethane, C2Cl2F4, InChI=1S/C2Cl2F4/c3-1(5,6)2(4,7)8, purity 97.3%
Compound 4: 1,1-dichloro-1,2,2,2-tetrafluoroethane, C2Cl2F4, InChI=1S/C2Cl2F4/c3-1(4,5)2(6,7)8, purity 99.1%
Compound 5: 1,1-dichloro-2,2,2-trifluoroethane, C2HCl2F3, InChI=1S/C2HCl2F3/c3-1(4)2(5,6)7/h1H, purity 97.6%
Compound 6: 2-chloro-1,1,1,2-tetrafluoroethane, C2HClF4, InChI=1S/C2HClF4/c3-1(4)2(5,6)7/h1H, purity 98.3%
Compound 7: 1-chloro-1,1,2,2-tetrafluoroethane, C2HClF4, InChI=1S/C2HClF4/c3-2(6,7)1(4)5/h1H, purity 99.1%
Compound 8: 1,1,1,2-tetrafluoroethane, C2H2F4, InChI=1S/C2H2F4/c3-1-2(4,5)6/h1H2, purity 99%
Compound 9: 1,2-dichloro-1,1,2-trifluoroethane, C2HCl2F3, InChI=1S/C2HCl2F3/c3-1(5)2(4,6)7/h1H, purity 99%
Compound 10: 1,1,2,2-tetrafluoroethane, C2H2F4, InChI=1S/C2H2F4/c3-1(4)2(5)6/h1-2H, purity 99.6%
Compound 11: 1-ethyl-3-methylimidazolium bis((trifluoromethyl)sulfonyl)imide, C8H11F6N3O4S2, InChI=1S/C6H11N2.C2F6NO4S2/c1-3-8-5-4-7(2)6-8;3-1(4,5)14(10,11)9-15(12,13)2(6,7)8/h4-6H,3H2,1-2H3;/q+1;-1, purity 99.4%

System: 1,1,2-trichloro-1,2,2-trifluoroethane + 1-ethyl-3-methylimidazolium bis((trifluoromethyl)sulfonyl)imide; phases: Liquid mixture 1, Liquid mixture 2
Fixed: Pressure, kPa = 101
Property: Molar volume, m3/mol (Liquid mixture 1); method: Volumetric Method
Temperature, K	Molar volume, m3/mol	uncertainty
282.2	0.0001167	1.2e-06
293.8	0.0001187	1.2e-06
303.3	0.0001191	1e-06
317.8	0.0001231	1.4e-06
333.2	0.0001249	1.4e-06
343.2	0.0001275	1e-06

System: 1,1,2-trichloro-1,2,2-trifluoroethane + 1-ethyl-3-methylimidazolium bis((trifluoromethyl)sulfonyl)imide; phases: Liquid mixture 2, Liquid mixture 1
Fixed: Pressure, kPa = 101
Property: Molar volume, m3/mol (Liquid mixture 2); method: Volumetric Method
Temperature, K	Molar volume, m3/mol	uncertainty
282.2	0.0002224	5.2e-06
293.8	0.000223	6.2e-06
303.3	0.0002231	6.4e-06
317.8	0.00022	7e-06
333.2	0.0002218	9e-06
343.2	0.0002237	9.2e-06

System: 1,1,2-trichloro-1,2,2-trifluoroethane + 1-ethyl-3-methylimidazolium bis((trifluoromethyl)sulfonyl)imide; phases: Liquid mixture 1, Liquid mixture 2
Fixed: Pressure, kPa = 101
Property: Mole fraction of 1,1,2-trichloro-1,2,2-trifluoroethane (Liquid mixture 1); method: Volumetric Method
Temperature, K	Mole fraction of 1,1,2-trichloro-1,2,2-trifluoroethane	uncertainty
282.2	1	0.001
293.8	1	0.001
303.3	1	0.001
317.8	1	0.001
333.2	0.999	0.001
343.2	1	0.001

System: 1,1,2-trichloro-1,2,2-trifluoroethane + 1-ethyl-3-methylimidazolium bis((trifluoromethyl)sulfonyl)imide; phases: Liquid mixture 2, Liquid mixture 1
Fixed: Pressure, kPa = 101
Property: Mole fraction of 1,1,2-trichloro-1,2,2-trifluoroethane (Liquid mixture 2); method: Volumetric Method
Temperature, K	Mole fraction of 1,1,2-trichloro-1,2,2-trifluoroethane	uncertainty
282.2	0.22	0.036
293.8	0.23	0.04
303.3	0.23	0.05
317.8	0.233	0.056
333.2	0.237	0.04
343.2	0.237	0.04

System: 1,1,1-trichloro-2,2,2-trifluoroethane + 1-ethyl-3-methylimidazolium bis((trifluoromethyl)sulfonyl)imide; phases: Liquid mixture 1, Liquid mixture 2
Fixed: Pressure, kPa = 101
Property: Molar volume, m3/mol (Liquid mixture 1); method: Volumetric Method
Temperature, K	Molar volume, m3/mol	uncertainty
293.8	0.0001177	1.6e-06
307.2	0.0001212	2.4e-06
317.8	0.0001227	2.8e-06
333.2	0.0001253	2.8e-06
343.2	0.0001275	3e-06

System: 1,1,1-trichloro-2,2,2-trifluoroethane + 1-ethyl-3-methylimidazolium bis((trifluoromethyl)sulfonyl)imide; phases: Liquid mixture 2, Liquid mixture 1
Fixed: Pressure, kPa = 101
Property: Molar volume, m3/mol (Liquid mixture 2); method: Volumetric Method
Temperature, K	Molar volume, m3/mol	uncertainty
293.8	0.0002201	6.4e-06
307.2	0.0002211	5.4e-06
317.8	0.0002232	7e-06
333.2	0.0002235	6e-06
343.2	0.0002255	6e-06

System: 1,1,1-trichloro-2,2,2-trifluoroethane + 1-ethyl-3-methylimidazolium bis((trifluoromethyl)sulfonyl)imide; phases: Liquid mixture 1, Liquid mixture 2
Fixed: Pressure, kPa = 101
Property: Mole fraction of 1,1,1-trichloro-2,2,2-trifluoroethane (Liquid mixture 1); method: Volumetric Method
Temperature, K	Mole fraction of 1,1,1-trichloro-2,2,2-trifluoroethane	uncertainty
293.8	0.998	0.002
307.2	0.996	0.004
317.8	0.997	0.003
333.2	0.995	0.005
343.2	0.996	0.004

System: 1,1,1-trichloro-2,2,2-trifluoroethane + 1-ethyl-3-methylimidazolium bis((trifluoromethyl)sulfonyl)imide; phases: Liquid mixture 2, Liquid mixture 1
Fixed: Pressure, kPa = 101
Property: Mole fraction of 1,1,1-trichloro-2,2,2-trifluoroethane (Liquid mixture 2); method: Volumetric Method
Temperature, K	Mole fraction of 1,1,1-trichloro-2,2,2-trifluoroethane	uncertainty
293.8	0.243	0.042
307.2	0.247	0.04
317.8	0.246	0.04
333.2	0.249	0.04
343.2	0.253	0.04

System: 1,2-dichloro-1,1,2,2-tetrafluoroethane + 1-ethyl-3-methylimidazolium bis((trifluoromethyl)sulfonyl)imide; phases: Liquid mixture 1, Liquid mixture 2
Fixed: Pressure, kPa = 101
Property: Molar volume, m3/mol (Liquid mixture 1); method: Volumetric Method
Temperature, K	Molar volume, m3/mol	uncertainty
294.1	0.0002269	4e-06
313.3	0.0002293	5.4e-06

System: 1,2-dichloro-1,1,2,2-tetrafluoroethane + 1-ethyl-3-methylimidazolium bis((trifluoromethyl)sulfonyl)imide; phases: Liquid mixture 2, Liquid mixture 1
Fixed: Pressure, kPa = 101
Property: Molar volume, m3/mol (Liquid mixture 2); method: Volumetric Method
Temperature, K	Molar volume, m3/mol	uncertainty
294.1	0.0001153	2e-06
313.3	0.0001209	2e-06

System: 1,2-dichloro-1,1,2,2-tetrafluoroethane + 1-ethyl-3-methylimidazolium bis((trifluoromethyl)sulfonyl)imide; phases: Liquid mixture 1, Liquid mixture 2
Fixed: Pressure, kPa = 101
Property: Mole fraction of 1,2-dichloro-1,1,2,2-tetrafluoroethane (Liquid mixture 1); method: Volumetric Method
Temperature, K	Mole fraction of 1,2-dichloro-1,1,2,2-tetrafluoroethane	uncertainty
294.1	0.187	0.02
313.3	0.19	0.02

System: 1,2-dichloro-1,1,2,2-tetrafluoroethane + 1-ethyl-3-methylimidazolium bis((trifluoromethyl)sulfonyl)imide; phases: Liquid mixture 2, Liquid mixture 1
Fixed: Pressure, kPa = 101
Property: Mole fraction of 1,2-dichloro-1,1,2,2-tetrafluoroethane (Liquid mixture 2); method: Volumetric Method
Temperature, K	Mole fraction of 1,2-dichloro-1,1,2,2-tetrafluoroethane	uncertainty
294.1	1	0.001
313.3	1	0.001

System: 1,2-dichloro-1,1,2,2-tetrafluoroethane + 1-ethyl-3-methylimidazolium bis((trifluoromethyl)sulfonyl)imide; phases: Liquid, Gas
Property: Mole fraction of 1,2-dichloro-1,1,2,2-tetrafluoroethane (Liquid); method: Volumetric Method
Temperature, K	Pressure, kPa	Mole fraction of 1,2-dichloro-1,1,2,2-tetrafluoroethane	uncertainty
283	50.3	0.06	0.012
283.1	10.3	0.012	0.012
283.1	75.3	0.092	0.012
283.1	100.3	0.126	0.012
298	10.3	0.006	0.006
298.1	100.5	0.073	0.012
298.1	150	0.113	0.012
298.2	50.3	0.034	0.012
298.2	125.5	0.093	0.012
298.3	70.5	0.05	0.012
323	10.4	0.004	0.004
323.1	50.4	0.018	0.012
323.1	70.5	0.026	0.012
323.1	100.5	0.036	0.012
323.1	125.4	0.045	0.012
323.1	150.4	0.055	0.012
348.1	10.4	0	0.001
348.1	50.4	0.009	0.009
348.1	70.5	0.013	0.012
348.1	100.5	0.019	0.012
348.1	125.4	0.024	0.012
348.1	150.4	0.03	0.012

System: 1,1-dichloro-1,2,2,2-tetrafluoroethane + 1-ethyl-3-methylimidazolium bis((trifluoromethyl)sulfonyl)imide; phases: Liquid mixture 1, Liquid mixture 2
Fixed: Pressure, kPa = 101
Property: Molar volume, m3/mol (Liquid mixture 1); method: Volumetric Method
Temperature, K	Molar volume, m3/mol	uncertainty
294.1	0.0002274	4.8e-06
313.3	0.0002293	3e-06

System: 1,1-dichloro-1,2,2,2-tetrafluoroethane + 1-ethyl-3-methylimidazolium bis((trifluoromethyl)sulfonyl)imide; phases: Liquid mixture 2, Liquid mixture 1
Fixed: Pressure, kPa = 101
Property: Molar volume, m3/mol (Liquid mixture 2); method: Volumetric Method
Temperature, K	Molar volume, m3/mol	uncertainty
294.1	0.0001153	2e-06
313.3	0.0001209	2e-06

System: 1,1-dichloro-1,2,2,2-tetrafluoroethane + 1-ethyl-3-methylimidazolium bis((trifluoromethyl)sulfonyl)imide; phases: Liquid mixture 1, Liquid mixture 2
Fixed: Pressure, kPa = 101
Property: Mole fraction of 1,1-dichloro-1,2,2,2-tetrafluoroethane (Liquid mixture 1); method: Volumetric Method
Temperature, K	Mole fraction of 1,1-dichloro-1,2,2,2-tetrafluoroethane	uncertainty
294.1	0.179	0.02
313.3	0.186	0.02

System: 1,1-dichloro-1,2,2,2-tetrafluoroethane + 1-ethyl-3-methylimidazolium bis((trifluoromethyl)sulfonyl)imide; phases: Liquid mixture 2, Liquid mixture 1
Fixed: Pressure, kPa = 101
Property: Mole fraction of 1,1-dichloro-1,2,2,2-tetrafluoroethane (Liquid mixture 2); method: Volumetric Method
Temperature, K	Mole fraction of 1,1-dichloro-1,2,2,2-tetrafluoroethane	uncertainty
294.1	1	0.001
313.3	1	0.001

System: 1,1-dichloro-1,2,2,2-tetrafluoroethane + 1-ethyl-3-methylimidazolium bis((trifluoromethyl)sulfonyl)imide; phases: Liquid, Gas
Property: Mole fraction of 1,1-dichloro-1,2,2,2-tetrafluoroethane (Liquid); method: Volumetric Method
Temperature, K	Pressure, kPa	Mole fraction of 1,1-dichloro-1,2,2,2-tetrafluoroethane	uncertainty
283.1	50.3	0.066	0.012
283.1	75.4	0.101	0.012
283.1	100.3	0.142	0.012
283.2	10.2	0.013	0.012
298	125.4	0.095	0.012
298	150.3	0.117	0.012
298.1	50.4	0.032	0.012
298.1	70.5	0.048	0.012
298.1	100.5	0.073	0.012
298.3	10.4	0.006	0.006
323.1	10.4	0.002	0.002
323.1	50.4	0.017	0.012
323.1	70.5	0.025	0.012
323.1	100.3	0.037	0.012
323.1	125.4	0.047	0.012
323.1	150.2	0.057	0.012
348.1	10.5	0.001	0.001
348.1	50.4	0.01	0.01
348.1	70.5	0.015	0.012
348.1	100.5	0.021	0.012
348.1	125.4	0.027	0.012
348.1	150.4	0.032	0.012

System: 1,1-dichloro-2,2,2-trifluoroethane + 1-ethyl-3-methylimidazolium bis((trifluoromethyl)sulfonyl)imide; phases: Liquid mixture 1, Liquid mixture 2
Fixed: Pressure, kPa = 101
Property: Molar volume, m3/mol (Liquid mixture 1); method: Volumetric Method
Temperature, K	Molar volume, m3/mol	uncertainty
293.3	0.0001252	3.2e-06
313.2	0.0001325	4.4e-06
334.1	0.0001417	2.8e-06

System: 1,1-dichloro-2,2,2-trifluoroethane + 1-ethyl-3-methylimidazolium bis((trifluoromethyl)sulfonyl)imide; phases: Liquid mixture 2, Liquid mixture 1
Fixed: Pressure, kPa = 101
Property: Molar volume, m3/mol (Liquid mixture 2); method: Volumetric Method
Temperature, K	Molar volume, m3/mol	uncertainty
293.3	0.0001036	1e-06
313.2	0.0001074	1e-06
334.1	0.0001113	1.6e-06

System: 1,1-dichloro-2,2,2-trifluoroethane + 1-ethyl-3-methylimidazolium bis((trifluoromethyl)sulfonyl)imide; phases: Liquid mixture 1, Liquid mixture 2
Fixed: Pressure, kPa = 101
Property: Mole fraction of 1,1-dichloro-2,2,2-trifluoroethane (Liquid mixture 1); method: Volumetric Method
Temperature, K	Mole fraction of 1,1-dichloro-2,2,2-trifluoroethane	uncertainty
293.3	0.836	0.01
313.2	0.8	0.01
334.1	0.763	0.01

System: 1,1-dichloro-2,2,2-trifluoroethane + 1-ethyl-3-methylimidazolium bis((trifluoromethyl)sulfonyl)imide; phases: Liquid mixture 2, Liquid mixture 1
Fixed: Pressure, kPa = 101
Property: Mole fraction of 1,1-dichloro-2,2,2-trifluoroethane (Liquid mixture 2); method: Volumetric Method
Temperature, K	Mole fraction of 1,1-dichloro-2,2,2-trifluoroethane	uncertainty
293.3	0.999	0.001
313.2	0.999	0.001
334.1	0.998	0.002

System: 1,2-dichloro-1,1,2-trifluoroethane + 1-ethyl-3-methylimidazolium bis((trifluoromethyl)sulfonyl)imide; phases: Liquid mixture 1, Liquid mixture 2
Fixed: Pressure, kPa = 101
Property: Molar volume, m3/mol (Liquid mixture 1); method: Volumetric Method
Temperature, K	Molar volume, m3/mol	uncertainty
293.3	0.000118	3.6e-06
313.2	0.0001276	3.6e-06
334.1	0.0001374	3.6e-06

System: 1,2-dichloro-1,1,2-trifluoroethane + 1-ethyl-3-methylimidazolium bis((trifluoromethyl)sulfonyl)imide; phases: Liquid mixture 2, Liquid mixture 1
Fixed: Pressure, kPa = 101
Property: Molar volume, m3/mol (Liquid mixture 2); method: Volumetric Method
Temperature, K	Molar volume, m3/mol	uncertainty
293.3	0.0001045	2.2e-06
313.2	0.0001073	1.6e-06
334.1	0.0001112	2e-06

System: 1,2-dichloro-1,1,2-trifluoroethane + 1-ethyl-3-methylimidazolium bis((trifluoromethyl)sulfonyl)imide; phases: Liquid mixture 1, Liquid mixture 2
Fixed: Pressure, kPa = 101
Property: Mole fraction of 1,2-dichloro-1,1,2-trifluoroethane (Liquid mixture 1); method: Volumetric Method
Temperature, K	Mole fraction of 1,2-dichloro-1,1,2-trifluoroethane	uncertainty
293.3	0.882	0.012
313.2	0.837	0.014
334.1	0.792	0.01

System: 1,2-dichloro-1,1,2-trifluoroethane + 1-ethyl-3-methylimidazolium bis((trifluoromethyl)sulfonyl)imide; phases: Liquid mixture 2, Liquid mixture 1
Fixed: Pressure, kPa = 101
Property: Mole fraction of 1,2-dichloro-1,1,2-trifluoroethane (Liquid mixture 2); method: Volumetric Method
Temperature, K	Mole fraction of 1,2-dichloro-1,1,2-trifluoroethane	uncertainty
293.3	0.996	0.004
313.2	0.996	0.004
334.1	0.997	0.003

System: 2-chloro-1,1,1,2-tetrafluoroethane + 1-ethyl-3-methylimidazolium bis((trifluoromethyl)sulfonyl)imide; phases: Liquid mixture 1, Liquid mixture 2
Fixed: Pressure, kPa = 101
Property: Molar volume, m3/mol (Liquid mixture 1); method: Volumetric Method
Temperature, K	Molar volume, m3/mol	uncertainty
303.3	0.0001218	6.4e-06
313.4	0.0001267	6e-06
330.2	0.0001369	6e-06

System: 2-chloro-1,1,1,2-tetrafluoroethane + 1-ethyl-3-methylimidazolium bis((trifluoromethyl)sulfonyl)imide; phases: Liquid mixture 2, Liquid mixture 1
Fixed: Pressure, kPa = 101
Property: Molar volume, m3/mol (Liquid mixture 2); method: Volumetric Method
Temperature, K	Molar volume, m3/mol	uncertainty
303.3	0.000102	4.4e-06
313.4	0.000105	4e-06
330.2	0.0001105	3.2e-06

System: 2-chloro-1,1,1,2-tetrafluoroethane + 1-ethyl-3-methylimidazolium bis((trifluoromethyl)sulfonyl)imide; phases: Liquid mixture 1, Liquid mixture 2
Fixed: Pressure, kPa = 101
Property: Mole fraction of 2-chloro-1,1,1,2-tetrafluoroethane (Liquid mixture 1); method: Volumetric Method
Temperature, K	Mole fraction of 2-chloro-1,1,1,2-tetrafluoroethane	uncertainty
303.3	0.841	0.022
313.4	0.82	0.02
330.2	0.763	0.02

System: 2-chloro-1,1,1,2-tetrafluoroethane + 1-ethyl-3-methylimidazolium bis((trifluoromethyl)sulfonyl)imide; phases: Liquid mixture 2, Liquid mixture 1
Fixed: Pressure, kPa = 101
Property: Mole fraction of 2-chloro-1,1,1,2-tetrafluoroethane (Liquid mixture 2); method: Volumetric Method
Temperature, K	Mole fraction of 2-chloro-1,1,1,2-tetrafluoroethane	uncertainty
303.3	1	0.001
313.4	1	0.001
330.2	1	0.001

System: 2-chloro-1,1,1,2-tetrafluoroethane + 1-ethyl-3-methylimidazolium bis((trifluoromethyl)sulfonyl)imide; phases: Liquid, Gas
Property: Mole fraction of 2-chloro-1,1,1,2-tetrafluoroethane (Liquid); method: Volumetric Method
Temperature, K	Pressure, kPa	Mole fraction of 2-chloro-1,1,1,2-tetrafluoroethane	uncertainty
283	10.1	0.05	0.014
283.1	99.7	0.422	0.014
283.1	150.4	0.591	0.015
283.1	199.5	0.757	0.015
283.2	49.9	0.224	0.014
298	100	0.259	0.013
298.1	10.4	0.028	0.013
298.1	200.2	0.473	0.014
298.1	300.4	0.665	0.014
298.2	50	0.134	0.013
298.2	150	0.369	0.013
298.2	250.3	0.568	0.013
323.1	10.3	0.01	0.01
323.1	50.1	0.058	0.012
323.1	100.1	0.115	0.012
323.1	150.1	0.169	0.012
323.1	199.9	0.221	0.012
323.1	250.3	0.272	0.013
323.1	300.2	0.322	0.013
348.1	10.4	0.001	0.001
348.1	50.1	0.026	0.012
348.1	100.1	0.057	0.012
348.1	150.1	0.088	0.012
348.1	199.9	0.118	0.012
348.1	250.2	0.145	0.012
348.1	300.4	0.171	0.012

System: 1-chloro-1,1,2,2-tetrafluoroethane + 1-ethyl-3-methylimidazolium bis((trifluoromethyl)sulfonyl)imide; phases: Liquid mixture 1, Liquid mixture 2
Fixed: Pressure, kPa = 101
Property: Molar volume, m3/mol (Liquid mixture 1); method: Volumetric Method
Temperature, K	Molar volume, m3/mol	uncertainty
303.3	0.000122	7.2e-06
313.4	0.0001281	6.6e-06
330.2	0.000141	6e-06

System: 1-chloro-1,1,2,2-tetrafluoroethane + 1-ethyl-3-methylimidazolium bis((trifluoromethyl)sulfonyl)imide; phases: Liquid mixture 2, Liquid mixture 1
Fixed: Pressure, kPa = 101
Property: Molar volume, m3/mol (Liquid mixture 2); method: Volumetric Method
Temperature, K	Molar volume, m3/mol	uncertainty
303.3	0.0001019	4.4e-06
313.4	0.0001047	3.6e-06
330.2	0.0001102	3e-06

System: 1-chloro-1,1,2,2-tetrafluoroethane + 1-ethyl-3-methylimidazolium bis((trifluoromethyl)sulfonyl)imide; phases: Liquid mixture 1, Liquid mixture 2
Fixed: Pressure, kPa = 101
Property: Mole fraction of 1-chloro-1,1,2,2-tetrafluoroethane (Liquid mixture 1); method: Volumetric Method
Temperature, K	Mole fraction of 1-chloro-1,1,2,2-tetrafluoroethane	uncertainty
303.3	0.838	0.02
313.4	0.817	0.016
330.2	0.759	0.02

System: 1-chloro-1,1,2,2-tetrafluoroethane + 1-ethyl-3-methylimidazolium bis((trifluoromethyl)sulfonyl)imide; phases: Liquid mixture 2, Liquid mixture 1
Fixed: Pressure, kPa = 101
Property: Mole fraction of 1-chloro-1,1,2,2-tetrafluoroethane (Liquid mixture 2); method: Volumetric Method
Temperature, K	Mole fraction of 1-chloro-1,1,2,2-tetrafluoroethane	uncertainty
303.3	1	0.001
313.4	1	0.001
330.2	1	0.001

System: 1-chloro-1,1,2,2-tetrafluoroethane + 1-ethyl-3-methylimidazolium bis((trifluoromethyl)sulfonyl)imide; phases: Liquid, Gas
Property: Mole fraction of 1-chloro-1,1,2,2-tetrafluoroethane (Liquid); method: Volumetric Method
Temperature, K	Pressure, kPa	Mole fraction of 1-chloro-1,1,2,2-tetrafluoroethane	uncertainty
283.1	50.3	0.212	0.014
283.1	100.1	0.401	0.014
283.1	150.3	0.573	0.015
283.1	199.9	0.759	0.016
283.2	10.3	0.047	0.014
298	199.3	0.461	0.014
298.1	10.4	0.029	0.013
298.1	100.4	0.244	0.013
298.1	150.1	0.356	0.013
298.1	250.3	0.572	0.014
298.1	299.6	0.692	0.014
298.2	50.3	0.128	0.013
323	10.4	0.012	0.012
323	50.2	0.058	0.012
323.1	200.3	0.222	0.012
323.1	250.4	0.271	0.013
323.1	300.1	0.322	0.013
323.2	100.3	0.116	0.012
323.2	150.2	0.171	0.012
348	200.2	0.116	0.012
348.1	10.5	0.001	0.001
348.1	50.2	0.027	0.012
348.1	100.4	0.057	0.012
348.1	150.3	0.087	0.012
348.1	249.6	0.143	0.012
348.1	300.1	0.171	0.012

System: 1,1,2,2-tetrafluoroethane + 1-ethyl-3-methylimidazolium bis((trifluoromethyl)sulfonyl)imide; phases: Liquid, Gas
Property: Mole fraction of 1,1,2,2-tetrafluoroethane (Liquid); method: Volumetric Method
Temperature, K	Pressure, kPa	Mole fraction of 1,1,2,2-tetrafluoroethane	uncertainty
282.9	9.9	0.055	0.014
283	199.7	0.702	0.014
283.1	100.3	0.433	0.014
283.1	250	0.811	0.014
283.2	50	0.246	0.014
283.2	149.8	0.573	0.014
283.2	300.4	0.964	0.1
298	299.5	0.648	0.013
298.1	149.6	0.395	0.013
298.1	249.6	0.573	0.013
298.2	9.9	0.033	0.013
298.2	50	0.156	0.013
298.2	99.9	0.284	0.013
298.2	200.1	0.49	0.013
298.2	349.7	0.716	0.013
323	249.4	0.323	0.013
323.1	10.2	0.016	0.012
323.1	50	0.076	0.012
323.1	150.5	0.21	0.012
323.1	200.4	0.269	0.012
323.1	300.3	0.374	0.013
323.1	350.5	0.421	0.013
323.2	100.4	0.147	0.012
348.1	10.5	0.006	0.006
348.1	50.4	0.04	0.012
348.1	100.5	0.079	0.012
348.1	150.5	0.116	0.012
348.1	200.4	0.152	0.012
348.1	250	0.186	0.012
348.1	299.6	0.219	0.012
348.1	350.5	0.25	0.012

System: 1,1,1,2-tetrafluoroethane + 1-ethyl-3-methylimidazolium bis((trifluoromethyl)sulfonyl)imide; phases: Liquid mixture 1, Liquid mixture 2
Fixed: Pressure, kPa = 101
Property: Molar volume, m3/mol (Liquid mixture 1); method: Volumetric Method
Temperature, K	Molar volume, m3/mol	uncertainty
333.5	0.0001163	3.2e-06
338.3	0.0001201	3.2e-06
345.2	0.0001249	4e-06
349.1	0.0001284	4.4e-06

System: 1,1,1,2-tetrafluoroethane + 1-ethyl-3-methylimidazolium bis((trifluoromethyl)sulfonyl)imide; phases: Liquid mixture 2, Liquid mixture 1
Fixed: Pressure, kPa = 101
Property: Molar volume, m3/mol (Liquid mixture 2); method: Volumetric Method
Temperature, K	Molar volume, m3/mol	uncertainty
333.5	9.85e-05	3.4e-06
338.3	9.96e-05	3.4e-06
345.2	0.0001037	3.8e-06
349.1	0.0001064	4e-06

System: 1,1,1,2-tetrafluoroethane + 1-ethyl-3-methylimidazolium bis((trifluoromethyl)sulfonyl)imide; phases: Liquid mixture 1, Liquid mixture 2
Fixed: Pressure, kPa = 101
Property: Mole fraction of 1,1,1,2-tetrafluoroethane (Liquid mixture 1); method: Volumetric Method
Temperature, K	Mole fraction of 1,1,1,2-tetrafluoroethane	uncertainty
333.5	0.828	0.006
338.3	0.81	0.006
345.2	0.787	0.006
349.1	0.773	0.006

System: 1,1,1,2-tetrafluoroethane + 1-ethyl-3-methylimidazolium bis((trifluoromethyl)sulfonyl)imide; phases: Liquid mixture 2, Liquid mixture 1
Fixed: Pressure, kPa = 101
Property: Mole fraction of 1,1,1,2-tetrafluoroethane (Liquid mixture 2); method: Volumetric Method
Temperature, K	Mole fraction of 1,1,1,2-tetrafluoroethane	uncertainty
333.5	0.99	0.01
338.3	1	0.001
345.2	1	0.001
349.1	1	0.001

System: 1,1,1,2-tetrafluoroethane + 1-ethyl-3-methylimidazolium bis((trifluoromethyl)sulfonyl)imide; phases: Liquid, Gas
Property: Mole fraction of 1,1,1,2-tetrafluoroethane (Liquid); method: Volumetric Method
Temperature, K	Pressure, kPa	Mole fraction of 1,1,1,2-tetrafluoroethane	uncertainty
282.7	49.9	0.105	0.013
283.1	99.8	0.219	0.013
283.2	149.8	0.318	0.013
283.2	200.3	0.415	0.013
283.2	250.1	0.516	0.014
283.2	300.5	0.613	0.014
283.2	350.1	0.755	0.015
283.7	10	0.019	0.012
298.1	49.9	0.071	0.012
298.1	100	0.138	0.012
298.1	149.7	0.203	0.012
298.1	200.1	0.263	0.012
298.1	300	0.382	0.013
298.1	349.2	0.443	0.014
298.2	10.3	0.016	0.012
298.2	250.4	0.322	0.013
323	250.4	0.169	0.012
323.1	10.3	0.008	0.008
323.1	50.3	0.036	0.012
323.1	100	0.071	0.012
323.1	150.2	0.105	0.012
323.1	200.2	0.138	0.012
323.1	350.3	0.231	0.012
323.2	300.3	0.201	0.012
348.1	10.5	0	0.001
348.1	50.3	0.017	0.012
348.1	100.3	0.038	0.012
348.1	150.3	0.058	0.012
348.1	200.1	0.077	0.012
348.1	250.2	0.096	0.012
348.1	300.2	0.115	0.012
348.1	350.1	0.133	0.012
