Measured thermophysical data. Densities and Viscosities of N,N-Dimethylformamide + Formic Acid, and + Acetic Acid in the Temperature Range from (303.15 to 353.15) K
Source: J. Chem. Eng. Data, 2008, 10.1021/je700755t
Compound 1: dimethylformamide, C3H7NO, InChI=1S/C3H7NO/c1-4(2)3-5/h3H,1-2H3
Compound 2: formic acid, CH2O2, InChI=1S/CH2O2/c2-1-3/h1H,(H,2,3)
Compound 3: acetic acid, C2H4O2, InChI=1S/C2H4O2/c1-2(3)4/h1H3,(H,3,4)

System: dimethylformamide; phases: Liquid
Fixed: Pressure, kPa = 101
Property: Viscosity, Pa*s (Liquid); method: Capillary tube (Ostwald; Ubbelohde) method
Temperature, K	Viscosity, Pa*s	uncertainty
303.15	0.00076	8e-06
313.15	0.000675	7e-06
323.15	0.000608	7e-06
333.15	0.000552	7e-06
343.15	0.000502	7e-06
353.15	0.00046	7e-06

System: dimethylformamide; phases: Liquid
Fixed: Pressure, kPa = 101
Property: Mass density, kg/m3 (Liquid); method: VIBTUB::UFactor:6
Temperature, K	Mass density, kg/m3	uncertainty
303.15	939.45	0.34
313.15	929.86	0.36
323.15	920.92	0.38
333.15	910.64	0.41
343.15	901.72	0.43
353.15	891.44	0.45

System: formic acid; phases: Liquid
Fixed: Pressure, kPa = 101
Property: Viscosity, Pa*s (Liquid); method: Capillary tube (Ostwald; Ubbelohde) method
Temperature, K	Viscosity, Pa*s	uncertainty
303.15	0.001437	1.3e-05
313.15	0.001205	1.2e-05
323.15	0.001022	1e-05
333.15	0.000879	9e-06
343.15	0.000766	9e-06
353.15	0.000677	8e-06

System: formic acid; phases: Liquid
Fixed: Pressure, kPa = 101
Property: Mass density, kg/m3 (Liquid); method: VIBTUB::UFactor:6
Temperature, K	Mass density, kg/m3	uncertainty
303.15	1205.07	0.96
313.15	1192.81	0.92
323.15	1180.63	0.89
333.15	1167.44	0.85
343.15	1154.99	0.82
353.15	1142.08	0.78

System: acetic acid; phases: Liquid
Fixed: Pressure, kPa = 101
Property: Viscosity, Pa*s (Liquid); method: Capillary tube (Ostwald; Ubbelohde) method
Temperature, K	Viscosity, Pa*s	uncertainty
303.15	0.001059	9e-06
313.15	0.00092	9e-06
323.15	0.000804	8e-06
333.15	0.000709	8e-06
343.15	0.000632	7e-06
353.15	0.00057	7e-06

System: acetic acid; phases: Liquid
Fixed: Pressure, kPa = 101
Property: Mass density, kg/m3 (Liquid); method: VIBTUB::UFactor:8
Temperature, K	Mass density, kg/m3	uncertainty
303.15	1038.66	0.42
313.15	1027.37	0.39
323.15	1016.08	0.35
333.15	1005.04	0.32
343.15	993.69	0.32
353.15	982.95	0.35

System: acetic acid + dimethylformamide; phases: Liquid
Fixed: Pressure, kPa = 101
Property: Viscosity, Pa*s (Liquid); method: Capillary tube (Ostwald; Ubbelohde) method
Temperature, K	Mole fraction of acetic acid	Viscosity, Pa*s	uncertainty
303.15	0	0.00076	8e-06
303.15	0.1004	0.000847	8e-06
303.15	0.2009	0.000967	9e-06
303.15	0.3012	0.001108	9e-06
303.15	0.4014	0.001283	1e-05
303.15	0.5014	0.001457	1.1e-05
303.15	0.6014	0.001613	1.2e-05
303.15	0.7011	0.001656	1.2e-05
303.15	0.8008	0.001582	1.2e-05
303.15	0.9006	0.001375	1.1e-05
303.15	1	0.001059	9e-06
313.15	0	0.000675	7e-06
313.15	0.1004	0.00075	8e-06
313.15	0.2009	0.000848	8e-06
313.15	0.3012	0.000973	9e-06
313.15	0.4014	0.001112	9e-06
313.15	0.5014	0.001249	1e-05
313.15	0.6014	0.001357	1.1e-05
313.15	0.7011	0.00139	1.1e-05
313.15	0.8008	0.001331	1.1e-05
313.15	0.9006	0.001166	1e-05
313.15	1	0.00092	9e-06
323.15	0	0.000608	7e-06
323.15	0.1004	0.000669	7e-06
323.15	0.2009	0.000752	8e-06
323.15	0.3012	0.00085	8e-06
323.15	0.4014	0.000965	9e-06
323.15	0.5014	0.001071	9e-06
323.15	0.6014	0.001157	1e-05
323.15	0.7011	0.00118	1e-05
323.15	0.8008	0.001132	1e-05
323.15	0.9006	0.001002	9e-06
323.15	1	0.000804	8e-06
333.15	0	0.000552	7e-06
333.15	0.1004	0.000597	7e-06
333.15	0.2009	0.000673	7e-06
333.15	0.3012	0.000755	8e-06
333.15	0.4014	0.000843	8e-06
333.15	0.5014	0.000935	9e-06
333.15	0.6014	0.000998	9e-06
333.15	0.7011	0.001015	9e-06
333.15	0.8008	0.000976	9e-06
333.15	0.9006	0.00087	8e-06
333.15	1	0.000709	8e-06
343.15	0	0.000502	7e-06
343.15	0.1004	0.000547	7e-06
343.15	0.2009	0.000607	7e-06
343.15	0.3012	0.000674	7e-06
343.15	0.4014	0.000749	8e-06
343.15	0.5014	0.000824	8e-06
343.15	0.6014	0.000873	8e-06
343.15	0.7011	0.000885	8e-06
343.15	0.8008	0.000852	8e-06
343.15	0.9006	0.000764	8e-06
343.15	1	0.000632	7e-06
353.15	0	0.00046	7e-06
353.15	0.1004	0.000499	7e-06
353.15	0.2009	0.000551	7e-06
353.15	0.3012	0.000608	7e-06
353.15	0.4014	0.00067	7e-06
353.15	0.5014	0.00073	8e-06
353.15	0.6014	0.000771	8e-06
353.15	0.7011	0.00078	8e-06
353.15	0.8008	0.000751	8e-06
353.15	0.9006	0.000677	8e-06
353.15	1	0.00057	7e-06

System: acetic acid + dimethylformamide; phases: Liquid
Fixed: Pressure, kPa = 101
Property: Mass density, kg/m3 (Liquid); method: VIBTUB:UFactor:8
Temperature, K	Mole fraction of acetic acid	Mass density, kg/m3	uncertainty
303.15	0	939.45	0.45
303.15	0.1004	950.1	0.42
303.15	0.2009	961.18	0.38
303.15	0.3012	972.65	0.35
303.15	0.4014	984.49	0.32
303.15	0.5014	996.33	0.29
303.15	0.6014	1007.74	0.3
303.15	0.7011	1018.12	0.34
303.15	0.8008	1027.13	0.38
303.15	0.9006	1034.47	0.4
303.15	1	1038.66	0.42
313.15	0	929.86	0.48
313.15	0.1004	940.75	0.45
313.15	0.2009	951.76	0.41
313.15	0.3012	963.18	0.38
313.15	0.4014	974.95	0.35
313.15	0.5014	986.68	0.32
313.15	0.6014	997.98	0.29
313.15	0.7011	1008.11	0.31
313.15	0.8008	1016.84	0.34
313.15	0.9006	1023.84	0.37
313.15	1	1027.37	0.39
323.15	0	920.92	0.5
323.15	0.1004	931.27	0.47
323.15	0.2009	942.27	0.44
323.15	0.3012	953.63	0.41
323.15	0.4014	965.33	0.38
323.15	0.5014	976.95	0.35
323.15	0.6014	988.11	0.32
323.15	0.7011	998.02	0.29
323.15	0.8008	1006.49	0.31
323.15	0.9006	1013.13	0.34
323.15	1	1016.08	0.35
333.15	0	910.64	0.54
333.15	0.1004	921.19	0.51
333.15	0.2009	932.18	0.47
333.15	0.3012	943.49	0.44
333.15	0.4014	955.11	0.41
333.15	0.5014	966.55	0.38
333.15	0.6014	977.59	0.35
333.15	0.7011	987.28	0.32
333.15	0.8008	995.48	0.3
333.15	0.9006	1001.78	0.3
333.15	1	1005.04	0.32
343.15	0	901.72	0.56
343.15	0.1004	911.56	0.54
343.15	0.2009	922.54	0.51
343.15	0.3012	933.82	0.47
343.15	0.4014	945.35	0.44
343.15	0.5014	956.68	0.41
343.15	0.6014	967.55	0.38
343.15	0.7011	977.06	0.36
343.15	0.8008	984.99	0.34
343.15	0.9006	990.93	0.32
343.15	1	993.69	0.32
353.15	0	891.44	0.6
353.15	0.1004	901.58	0.57
353.15	0.2009	912.55	0.54
353.15	0.3012	923.82	0.5
353.15	0.4014	935.28	0.47
353.15	0.5014	946.48	0.44
353.15	0.6014	957.19	0.41
353.15	0.7011	966.49	0.39
353.15	0.8008	974.17	0.37
353.15	0.9006	979.73	0.36
353.15	1	982.95	0.35

System: formic acid + dimethylformamide; phases: Liquid
Fixed: Pressure, kPa = 101
Property: Viscosity, Pa*s (Liquid); method: Capillary tube (Ostwald; Ubbelohde) method
Temperature, K	Mole fraction of formic acid	Viscosity, Pa*s	uncertainty
303.15	0	0.00076	8e-06
303.15	0.1001	0.000831	8e-06
303.15	0.2	0.00093	9e-06
303.15	0.3001	0.001048	9e-06
303.15	0.4	0.001186	1e-05
303.15	0.4999	0.001324	1.1e-05
303.15	0.6003	0.001466	1.2e-05
303.15	0.7005	0.001555	1.3e-05
303.15	0.7998	0.001562	1.3e-05
303.15	0.9002	0.001533	1.3e-05
303.15	1	0.001437	1.3e-05
313.15	0	0.000675	7e-06
313.15	0.1001	0.000738	8e-06
313.15	0.2	0.000815	8e-06
313.15	0.3001	0.00092	9e-06
313.15	0.4	0.001028	9e-06
313.15	0.4999	0.001143	1e-05
313.15	0.6003	0.001253	1.1e-05
313.15	0.7005	0.001313	1.1e-05
313.15	0.7998	0.001342	1.2e-05
313.15	0.9002	0.00133	1.2e-05
313.15	1	0.001205	1.2e-05
323.15	0	0.000608	7e-06
323.15	0.1001	0.000662	7e-06
323.15	0.2	0.000725	8e-06
323.15	0.3001	0.000808	8e-06
323.15	0.4	0.000898	9e-06
323.15	0.4999	0.000992	9e-06
323.15	0.6003	0.001076	1e-05
323.15	0.7005	0.001121	1e-05
323.15	0.7998	0.00114	1.1e-05
323.15	0.9002	0.001117	1.1e-05
323.15	1	0.001022	1e-05
333.15	0	0.000552	7e-06
333.15	0.1001	0.00059	7e-06
333.15	0.2	0.000649	7e-06
333.15	0.3001	0.00072	8e-06
333.15	0.4	0.000793	8e-06
333.15	0.4999	0.000867	9e-06
333.15	0.6003	0.000933	9e-06
333.15	0.7005	0.000971	9e-06
333.15	0.7998	0.000982	1e-05
333.15	0.9002	0.000959	1e-05
333.15	1	0.000879	9e-06
343.15	0	0.000502	7e-06
343.15	0.1001	0.000538	7e-06
343.15	0.2	0.000587	7e-06
343.15	0.3001	0.000643	7e-06
343.15	0.4	0.000708	8e-06
343.15	0.4999	0.000768	8e-06
343.15	0.6003	0.000823	8e-06
343.15	0.7005	0.00085	9e-06
343.15	0.7998	0.000857	9e-06
343.15	0.9002	0.000835	9e-06
343.15	1	0.000766	9e-06
353.15	0	0.00046	7e-06
353.15	0.1001	0.000492	7e-06
353.15	0.2	0.000534	7e-06
353.15	0.3001	0.000582	7e-06
353.15	0.4	0.000635	7e-06
353.15	0.4999	0.000693	8e-06
353.15	0.6003	0.000732	8e-06
353.15	0.7005	0.000754	8e-06
353.15	0.7998	0.000756	8e-06
353.15	0.9002	0.000736	8e-06
353.15	1	0.000677	8e-06

System: formic acid + dimethylformamide; phases: Liquid
Fixed: Pressure, kPa = 101
Property: Mass density, kg/m3 (Liquid); method: VIBTUB:UFactor:6
Temperature, K	Mole fraction of formic acid	Mass density, kg/m3	uncertainty
303.15	0	939.45	0.34
303.15	0.1001	953.65	0.31
303.15	0.2	969.23	0.29
303.15	0.3001	986.66	0.26
303.15	0.4	1006.16	0.26
303.15	0.4999	1027.99	0.33
303.15	0.6003	1053.17	0.42
303.15	0.7005	1081.71	0.52
303.15	0.7998	1115.25	0.64
303.15	0.9002	1157.02	0.79
303.15	1	1205.07	0.96
313.15	0	929.86	0.36
313.15	0.1001	943.97	0.34
313.15	0.2	959.57	0.31
313.15	0.3001	977.07	0.28
313.15	0.4	996.43	0.25
313.15	0.4999	1018.12	0.31
313.15	0.6003	1043.03	0.39
313.15	0.7005	1071.28	0.49
313.15	0.7998	1104.39	0.61
313.15	0.9002	1145.58	0.75
313.15	1	1192.81	0.92
323.15	0	920.92	0.38
323.15	0.1001	934.86	0.36
323.15	0.2	950.34	0.33
323.15	0.3001	967.77	0.3
323.15	0.4	986.86	0.28
323.15	0.4999	1008.39	0.29
323.15	0.6003	1033.04	0.37
323.15	0.7005	1060.99	0.46
323.15	0.7998	1093.73	0.58
323.15	0.9002	1134.05	0.72
323.15	1	1180.63	0.89
333.15	0	910.64	0.41
333.15	0.1001	924.58	0.38
333.15	0.2	939.91	0.35
333.15	0.3001	957.33	0.33
333.15	0.4	976.15	0.3
333.15	0.4999	997.5	0.27
333.15	0.6003	1021.94	0.34
333.15	0.7005	1049.51	0.44
333.15	0.7998	1081.77	0.55
333.15	0.9002	1121.74	0.69
333.15	1	1167.44	0.85
343.15	0	901.72	0.43
343.15	0.1001	915.36	0.4
343.15	0.2	930.7	0.38
343.15	0.3001	947.93	0.35
343.15	0.4	966.58	0.32
343.15	0.4999	987.75	0.29
343.15	0.6003	1011.92	0.32
343.15	0.7005	1039.13	0.41
343.15	0.7998	1070.96	0.52
343.15	0.9002	1110.03	0.66
343.15	1	1154.99	0.82
353.15	0	891.44	0.45
353.15	0.1001	905.11	0.43
353.15	0.2	920.26	0.4
353.15	0.3001	937.3	0.37
353.15	0.4	955.9	0.34
353.15	0.4999	976.91	0.32
353.15	0.6003	1000.84	0.29
353.15	0.7005	1027.78	0.38
353.15	0.7998	1059.18	0.49
353.15	0.9002	1097.86	0.63
353.15	1	1142.08	0.78
