Measured thermophysical data. Fusion Curves and Enthalpy and Internal Energy Changes of Benzene, Nitrobenzene, Bromobenzene, and Chlorobenzene at Pressures up to 3500 MPa
Source: J. Chem. Eng. Data, 2007, 10.1021/je700276z
Compound 1: benzene, C6H6, InChI=1S/C6H6/c1-2-4-6-5-3-1/h1-6H
Compound 2: nitrobenzene, C6H5NO2, InChI=1S/C6H5NO2/c8-7(9)6-4-2-1-3-5-6/h1-5H
Compound 3: bromobenzene, C6H5Br, InChI=1S/C6H5Br/c7-6-4-2-1-3-5-6/h1-5H
Compound 4: chlorobenzene, C6H5Cl, InChI=1S/C6H5Cl/c7-6-4-2-1-3-5-6/h1-5H

System: benzene; phases: Crystal, Liquid
Property: Solid-liquid equilibrium temperature, K (Crystal); method: LSTA:UFactor:4
Pressure, kPa	Solid-liquid equilibrium temperature, K	uncertainty
100000	306.44	1.62
200000	329.93	1.83
300000	351.25	1.99
400000	370.85	2.16
500000	389.07	2.32
600000	406.15	2.47
700000	422.25	2.62
800000	437.52	2.77
900000	452.06	2.91
1000000	465.96	3.06
1500000	538.73	10
2000000	584.85	10
2500000	625.73	10
3000000	663.67	10

System: nitrobenzene; phases: Crystal, Liquid
Property: Solid-liquid equilibrium temperature, K (Crystal); method: LSTA:UFactor:4
Pressure, kPa	Solid-liquid equilibrium temperature, K	uncertainty
100000	299.74	1.54
200000	320.77	1.74
300000	340.02	1.93
400000	360.41	2.11
500000	378.61	2.26
600000	395.9	2.4
700000	412.3	2.6
800000	427.24	2.71
900000	442.98	2.89
1000000	462.61	10
1500000	516.38	10
2000000	565.62	10
2500000	595.88	10
3000000	614.38	10

System: bromobenzene; phases: Crystal, Liquid
Property: Solid-liquid equilibrium temperature, K (Crystal); method: LSTA:UFactor:4
Pressure, kPa	Solid-liquid equilibrium temperature, K	uncertainty
100000	259.05	1.31
200000	276.45	1.49
300000	292.45	1.66
400000	310.05	1.79
500000	322.55	1.9
600000	336.15	2.04
700000	349.25	2.17
800000	361.85	2.29
900000	374.75	2.41
1000000	382.85	10
1500000	430.05	10
2000000	473.67	10
2500000	514.22	10
3000000	553.94	10
3500000	587.21	10

System: chlorobenzene; phases: Crystal, Liquid
Property: Solid-liquid equilibrium temperature, K (Crystal); method: LSTA:UFactor:4
Pressure, kPa	Solid-liquid equilibrium temperature, K	uncertainty
100000	246.4	1.25
200000	263.03	1.38
300000	273.46	1.5
400000	288.44	1.66
500000	301.03	1.79
600000	315.62	1.91
700000	325.56	2.01
800000	336.87	2.13
900000	348.81	2.23
1000000	354.76	10
1500000	403.44	10
2000000	440.81	10
2500000	473.28	10
3000000	503.63	10
3500000	530.87	10
