Measured thermophysical data. Determination of the Relative Permittivity, E , of Methylbenzene at Temperatures between (290 and 406) K and Pressures below 20 MPa with a Radio Frequency Re-Entrant Cavity and Evaluation of a MEMS Capacitor for the Measurement of E
Source: J. Chem. Eng. Data, 2008, 10.1021/je7006692
Compound 1: toluene, C7H8, InChI=1S/C7H8/c1-7-5-3-2-4-6-7/h2-6H,1H3, purity 99.5%

System: toluene; phases: Liquid
Property: Relative permittivity at zero frequency (Liquid); method: Reentrant cavity resonator
Temperature, K	Pressure, kPa	Relative permittivity at zero frequency	uncertainty
290.63	100	2.40453	0.00602
290.65	100	2.40448	0.00602
290.69	2170	2.41272	0.00061
290.77	4240	2.41409	0.00061
290.81	6310	2.41721	0.00061
290.83	8370	2.4202	0.00061
290.87	12510	2.42629	0.00061
290.88	16100	2.43136	0.00061
290.9	16650	2.4322	0.00061
291.15	100	2.3983	0.006
292.65	100	2.40346	0.006
294.8	100	2.39092	0.006
310.68	100	2.35675	0.006
310.79	100	2.35646	0.006
311.94	100	2.35363	0.006
314.47	100	2.3479	0.006
315.68	100	2.34035	0.00601
315.77	100	2.33999	0.006
315.78	1140	2.34185	0.00061
315.78	8370	2.35428	0.00061
315.79	2170	2.34366	0.00061
315.79	3200	2.34545	0.00061
315.79	4240	2.34729	0.00061
315.79	6310	2.35078	0.00061
315.79	12510	2.36095	0.00061
315.79	16650	2.3674	0.00061
315.79	19410	2.37152	0.00061
320.64	100	2.32926	0.006
320.66	1140	2.33114	0.00061
324.52	100	2.32053	0.006
324.53	1140	2.32241	0.00061
324.54	2170	2.32435	0.00061
324.54	3200	2.32625	0.00061
324.54	4240	2.32811	0.00061
324.54	6310	2.33179	0.00061
324.58	8370	2.33528	0.00061
324.61	12510	2.34222	0.00061
324.62	16650	2.34897	0.00061
339.31	100	2.28784	0.006
339.35	2170	2.2919	0.00061
339.38	4240	2.29596	0.00061
339.38	6310	2.29992	0.00061
339.39	8370	2.3038	0.00061
339.41	12510	2.31127	0.00061
339.41	16650	2.31844	0.00061
357.44	6310	2.26156	0.00061
357.45	2170	2.25261	0.00061
357.45	4240	2.25717	0.00061
357.46	100	2.24793	0.006
357.52	8370	2.26578	0.00061
357.54	12510	2.274	0.00061
357.55	16650	2.28185	0.00061
390.53	170	2.17781	0.00064
390.53	2170	2.18342	0.00061
390.59	100	2.17698	0.006
390.59	4240	2.18899	0.00061
390.61	6310	2.19431	0.00061
390.63	8370	2.19969	0.00061
390.65	12510	2.20969	0.00061
390.68	16650	2.21925	0.00061
405.84	2170	2.14947	0.00061
406.3	6310	2.16081	0.00061
406.32	4240	2.15467	0.00061
406.37	8370	2.16653	0.00061
406.54	12510	2.17721	0.00061
406.64	16650	2.18731	0.00061

System: toluene; phases: Liquid
Property: Relative permittivity at zero frequency (Liquid); method: MEMS
Temperature, K	Pressure, kPa	Relative permittivity at zero frequency	uncertainty
297.37	34905	2.443	0.004
297.37	41879	2.4564	0.004
297.38	27906	2.4276	0.004
297.39	20942	2.4127	0.004
297.4	13927	2.3962	0.004
297.41	6919	2.3777	0.004
