Measured thermophysical data. Relative Permittivities of 1,1,1,2,3,3,3-Heptafluoropropane (HFC-227ea), 1,1,1,2,3,3-Hexafluoropropane (HFC-236ea), and 1,1,1,3,3-Pentafluorobutane (HFC-365mfc) in the Liquid Phase
Source: J. Chem. Eng. Data, 2007, 10.1021/je700343t
Compound 1: 1,1,1,2,3,3,3-heptafluoropropane, C3HF7, InChI=1S/C3HF7/c4-1(2(5,6)7)3(8,9)10/h1H
Compound 2: 1,1,1,2,3,3-hexafluoropropane, C3H2F6, InChI=1S/C3H2F6/c4-1(2(5)6)3(7,8)9/h1-2H
Compound 3: 1,1,1,3,3-pentafluorobutane, C4H5F5, InChI=1S/C4H5F5/c1-3(5,6)2-4(7,8)9/h2H2,1H3

System: 1,1,1,2,3,3,3-heptafluoropropane; phases: Liquid
Property: Relative permittivity at zero frequency (Liquid); method: Parallel plate capacitor
Temperature, K	Pressure, kPa	Relative permittivity at zero frequency	uncertainty
223.02	1000	6.2689	0.011
223.02	2000	6.2819	0.011
223.03	3000	6.2941	0.011
223.03	4000	6.3073	0.011
223.03	5000	6.3186	0.011
223.03	6000	6.3306	0.011
223.03	7000	6.3422	0.011
223.03	8000	6.353	0.011
223.04	9000	6.364	0.011
223.04	11000	6.3856	0.011
223.05	10000	6.3748	0.011
223.05	12000	6.3981	0.011
223.05	13000	6.4093	0.011
223.05	14000	6.4191	0.011
223.05	15000	6.4283	0.011
223.05	16000	6.4357	0.011
233.26	1000	5.8696	0.011
233.26	2000	5.8828	0.011
233.26	3000	5.8971	0.011
233.26	4000	5.9093	0.011
233.26	5000	5.9217	0.011
233.26	6000	5.9336	0.011
233.26	7000	5.9463	0.011
233.26	9000	5.9716	0.011
233.27	8000	5.9598	0.011
233.27	10000	5.9845	0.011
233.27	11000	5.9957	0.011
233.27	12000	6.0081	0.011
233.27	13000	6.0185	0.011
233.27	14000	6.029	0.011
233.27	15000	6.0407	0.011
233.27	16000	6.0505	0.011
243.63	1000	5.5056	0.011
243.64	2000	5.5192	0.011
243.64	3000	5.5324	0.011
243.64	4000	5.5465	0.011
243.64	9000	5.6127	0.011
243.65	5000	5.5604	0.011
243.65	6000	5.5742	0.011
243.65	7000	5.5865	0.011
243.65	8000	5.599	0.011
243.65	10000	5.6248	0.011
243.65	11000	5.6376	0.011
243.65	12000	5.6494	0.011
243.65	13000	5.6622	0.011
243.65	14000	5.6731	0.011
243.65	16000	5.696	0.011
243.66	15000	5.6842	0.011
253.08	1000	5.1993	0.011
253.09	2000	5.215	0.011
253.1	3000	5.2301	0.011
253.11	4000	5.2439	0.011
253.12	5000	5.2584	0.011
253.13	6000	5.2721	0.011
253.14	7000	5.2848	0.011
253.17	8000	5.2979	0.011
253.19	9000	5.31	0.011
253.26	10000	5.3213	0.011
253.3	11000	5.3323	0.011
253.37	12000	5.3426	0.011
253.51	13000	5.3514	0.011
253.59	14000	5.3603	0.011
253.71	15000	5.3683	0.011
253.85	16000	5.3768	0.011
262.7	16000	5.1264	0.011
262.78	15000	5.1145	0.011
262.84	14000	5.0998	0.011
262.91	13000	5.0849	0.011
262.96	12000	5.0701	0.011
263.04	11000	5.0518	0.011
263.06	10000	5.0388	0.011
263.1	9000	5.0228	0.011
263.11	8000	5.0093	0.011
263.12	7000	4.9942	0.011
263.13	5000	4.964	0.011
263.13	6000	4.9801	0.011
263.14	4000	4.9485	0.011
263.15	3000	4.9316	0.011
263.16	2000	4.9147	0.011
263.17	1000	4.8983	0.011
273.23	2000	4.6243	0.011
273.23	3000	4.6514	0.011
273.23	4000	4.6687	0.011
273.23	5000	4.6859	0.011
273.23	6000	4.7014	0.011
273.23	7000	4.7171	0.011
273.24	8000	4.733	0.011
273.24	9000	4.7486	0.011
273.24	10000	4.7629	0.011
273.24	11000	4.7775	0.011
273.25	12000	4.7915	0.011
273.25	13000	4.8056	0.011
273.25	14000	4.8194	0.011
273.26	15000	4.8325	0.011
273.26	16000	4.8448	0.011
273.33	1000	4.6147	0.011
283.28	1000	4.3488	0.011
283.28	2000	4.3692	0.011
283.29	3000	4.3874	0.011
283.29	4000	4.4064	0.011
283.29	5000	4.4246	0.011
283.29	7000	4.4605	0.011
283.29	8000	4.4772	0.011
283.3	6000	4.4424	0.011
283.3	10000	4.5085	0.011
283.3	11000	4.5242	0.011
283.3	12000	4.5383	0.011
283.31	9000	4.4934	0.011
283.31	13000	4.5531	0.011
283.31	14000	4.5675	0.011
283.31	15000	4.5818	0.011
283.32	16000	4.5951	0.011
293.14	1000	4.0971	0.011
293.14	2000	4.121	0.011
293.14	3000	4.1421	0.011
293.15	4000	4.1628	0.011
293.16	5000	4.1815	0.011
293.16	6000	4.2018	0.011
293.16	7000	4.2197	0.011
293.17	8000	4.2381	0.011
293.17	9000	4.2554	0.011
293.18	10000	4.2716	0.011
293.19	11000	4.2886	0.011
293.21	12000	4.3034	0.011
293.21	13000	4.3191	0.011
293.21	14000	4.3353	0.011
293.21	16000	4.3635	0.011
293.3	15000	4.3494	0.011
302.84	12000	4.0857	0.011
302.85	11000	4.0692	0.011
302.85	13000	4.1022	0.011
302.85	14000	4.1204	0.011
302.85	15000	4.1348	0.011
302.85	16000	4.1496	0.011
302.89	5000	3.9506	0.011
302.9	4000	3.9276	0.011
302.9	6000	3.9715	0.011
302.91	2000	3.8793	0.011
302.91	3000	3.904	0.011
302.91	7000	3.9919	0.011
302.92	1000	3.8527	0.011
302.93	8000	4.011	0.011
302.96	10000	4.0486	0.011
302.98	9000	4.0294	0.011

System: 1,1,1,2,3,3-hexafluoropropane; phases: Liquid
Property: Relative permittivity at zero frequency (Liquid); method: Parallel plate capacitor
Temperature, K	Pressure, kPa	Relative permittivity at zero frequency	uncertainty
223.02	1000	8.1984	0.011
223.02	2000	8.2188	0.011
223.03	3000	8.2387	0.011
223.03	4000	8.2595	0.011
223.03	5000	8.2788	0.011
223.03	6000	8.298	0.011
223.03	7000	8.3163	0.011
223.03	8000	8.3348	0.011
223.04	9000	8.3552	0.011
223.04	11000	8.3926	0.011
223.05	10000	8.3745	0.011
223.05	12000	8.4116	0.011
223.05	13000	8.4292	0.011
223.05	14000	8.4459	0.011
223.05	15000	8.4644	0.011
223.05	16000	8.481	0.011
233.26	1000	7.5923	0.011
233.26	2000	7.6138	0.011
233.26	3000	7.6328	0.011
233.26	4000	7.653	0.011
233.26	5000	7.672	0.011
233.26	6000	7.6876	0.011
233.26	7000	7.7079	0.011
233.26	9000	7.7448	0.011
233.27	8000	7.7271	0.011
233.27	10000	7.7649	0.011
233.27	11000	7.7826	0.011
233.27	12000	7.8021	0.011
233.27	13000	7.8204	0.011
233.27	14000	7.8373	0.011
233.27	15000	7.8543	0.011
233.27	16000	7.8701	0.0111
243.6	1000	7.1496	0.011
243.6	2000	7.1577	0.011
243.6	3000	7.19	0.011
243.6	4000	7.2089	0.011
243.6	5000	7.2305	0.011
243.6	6000	7.2472	0.011
243.6	7000	7.2611	0.011
243.6	8000	7.2827	0.011
243.6	9000	7.3014	0.011
243.6	10000	7.3184	0.011
243.6	11000	7.3379	0.011
243.6	12000	7.3585	0.011
243.6	13000	7.3775	0.011
243.6	14000	7.3924	0.011
243.6	15000	7.4187	0.011
243.6	16000	7.434	0.011
252.91	1000	6.7535	0.011
252.91	2000	6.7729	0.011
252.91	3000	6.794	0.011
252.91	4000	6.8142	0.011
252.91	5000	6.8327	0.011
252.91	6000	6.8529	0.011
252.91	7000	6.8717	0.011
252.91	8000	6.8913	0.011
252.91	9000	6.9106	0.011
252.91	10000	6.9286	0.011
252.91	11000	6.9461	0.011
252.91	12000	6.9644	0.011
252.91	13000	6.983	0.011
252.91	14000	7.0015	0.011
252.91	15000	7.0168	0.011
252.91	16000	7.0345	0.011
262.7	16000	6.6328	0.011
262.78	15000	6.6143	0.011
262.84	14000	6.596	0.011
262.91	13000	6.5791	0.011
262.96	12000	6.5594	0.011
263.04	11000	6.5419	0.011
263.06	10000	6.5245	0.011
263.1	9000	6.5051	0.011
263.11	8000	6.4868	0.011
263.12	7000	6.4671	0.011
263.13	5000	6.4265	0.011
263.13	6000	6.4462	0.011
263.14	4000	6.4062	0.011
263.15	3000	6.3835	0.011
263.16	2000	6.3645	0.011
263.17	1000	6.3443	0.011
273.23	2000	6.0065	0.011
273.23	3000	6.0289	0.011
273.23	4000	6.0495	0.011
273.23	5000	6.0683	0.011
273.23	6000	6.0874	0.011
273.23	7000	6.1061	0.011
273.24	8000	6.1283	0.011
273.24	9000	6.146	0.011
273.24	10000	6.1646	0.011
273.24	11000	6.1843	0.011
273.25	12000	6.2033	0.011
273.25	13000	6.2214	0.011
273.25	14000	6.2381	0.011
273.26	15000	6.2557	0.011
273.26	16000	6.2732	0.011
273.33	1000	5.9827	0.011
283.28	1000	5.6364	0.011
283.28	2000	5.6571	0.011
283.29	3000	5.6797	0.011
283.29	4000	5.7027	0.011
283.29	5000	5.7233	0.011
283.29	7000	5.7657	0.011
283.29	8000	5.7838	0.011
283.3	6000	5.7446	0.011
283.3	10000	5.8249	0.011
283.3	11000	5.8436	0.011
283.3	12000	5.8618	0.011
283.31	9000	5.8042	0.011
283.31	13000	5.8796	0.011
283.31	14000	5.8993	0.011
283.31	15000	5.9189	0.011
283.32	16000	5.9362	0.011
293.14	1000	5.3249	0.011
293.14	2000	5.3498	0.011
293.14	3000	5.372	0.011
293.15	4000	5.395	0.011
293.16	5000	5.4153	0.011
293.16	6000	5.4372	0.011
293.16	7000	5.459	0.011
293.17	8000	5.4787	0.011
293.17	9000	5.4987	0.011
293.18	10000	5.517	0.011
293.19	11000	5.5386	0.011
293.21	12000	5.5585	0.011
293.21	13000	5.5774	0.011
293.21	14000	5.5968	0.011
293.21	16000	5.6327	0.011
293.3	15000	5.6151	0.011
302.84	12000	5.2518	0.011
302.85	11000	5.2311	0.011
302.85	13000	5.2714	0.011
302.85	14000	5.2919	0.011
302.85	15000	5.3105	0.011
302.85	16000	5.3286	0.011
302.89	5000	5.1028	0.011
302.9	4000	5.0809	0.011
302.9	6000	5.1272	0.011
302.91	2000	5.0343	0.011
302.91	3000	5.0572	0.011
302.91	7000	5.1479	0.011
302.92	1000	5.0076	0.011
302.93	8000	5.1687	0.011
302.96	10000	5.2109	0.011
302.98	9000	5.1886	0.011

System: 1,1,1,3,3-pentafluorobutane; phases: Liquid
Property: Relative permittivity at zero frequency (Liquid); method: Parallel plate capacitor
Temperature, K	Pressure, kPa	Relative permittivity at zero frequency	uncertainty
263.14	1000	14.8991	0.0111
263.14	2000	14.9339	0.0111
263.14	3000	14.9675	0.0111
263.14	5000	15.0355	0.0111
263.14	9000	15.1666	0.0111
263.14	11000	15.2295	0.0111
263.14	12000	15.2606	0.0111
263.15	4000	15.001	0.0111
263.15	6000	15.0681	0.0111
263.15	7000	15.0997	0.0111
263.15	8000	15.1352	0.0111
263.15	10000	15.1979	0.0111
263.15	13000	15.2925	0.0111
263.15	14000	15.3179	0.0111
263.15	15000	15.3453	0.0111
263.16	16000	15.376	0.0111
273.18	1000	13.8707	0.0111
273.18	2000	13.907	0.0111
273.18	3000	13.9444	0.0111
273.18	4000	13.9789	0.0111
273.18	5000	14.0155	0.0111
273.18	7000	14.0864	0.0111
273.18	8000	14.1193	0.0111
273.19	6000	14.0488	0.0111
273.19	9000	14.151	0.0111
273.19	10000	14.1868	0.0111
273.19	11000	14.2212	0.0111
273.19	12000	14.252	0.0111
273.19	13000	14.2819	0.0111
273.19	14000	14.3131	0.0111
273.19	15000	14.3437	0.0111
273.2	16000	14.3733	0.0111
283.1	1000	12.8983	0.011
283.1	2000	12.9424	0.0111
283.1	4000	13.0232	0.0111
283.1	5000	13.0635	0.0111
283.1	9000	13.2072	0.0111
283.1	10000	13.2519	0.0111
283.11	3000	12.9815	0.0111
283.11	6000	13.1003	0.0111
283.11	7000	13.1372	0.0111
283.11	8000	13.1743	0.0111
283.11	11000	13.2847	0.0111
283.11	12000	13.3213	0.0111
283.11	13000	13.3541	0.0111
283.11	15000	13.4183	0.0111
283.11	16000	13.4493	0.0111
283.12	14000	13.3889	0.0111
293.22	5000	12.1498	0.0111
293.22	6000	12.1866	0.0111
293.23	1000	11.9936	0.011
293.23	2000	12.0329	0.0111
293.23	3000	12.0713	0.0111
293.23	4000	12.1135	0.0111
293.23	7000	12.226	0.0111
293.23	8000	12.2608	0.0111
293.23	9000	12.2974	0.0111
293.23	10000	12.3321	0.0111
293.23	11000	12.3672	0.0111
293.23	12000	12.4025	0.0111
293.23	13000	12.4364	0.0111
293.23	14000	12.469	0.0111
293.23	15000	12.5018	0.0111
293.23	16000	12.5349	0.0111
303	1000	11.2337	0.0111
303	2000	11.275	0.0111
303	3000	11.3146	0.0111
303	4000	11.3535	0.0111
303	5000	11.3908	0.0111
303	6000	11.429	0.0111
303.01	7000	11.4659	0.0111
303.01	8000	11.5028	0.0111
303.01	9000	11.5382	0.0111
303.01	10000	11.5749	0.011
303.01	11000	11.6078	0.011
303.01	12000	11.6429	0.011
303.01	13000	11.6764	0.011
303.01	14000	11.7115	0.011
303.01	15000	11.745	0.011
303.01	16000	11.7786	0.011
