Measured thermophysical data. Solid-Liquid Equilibria for the CO2 + R152a and N2O + R152a Systems
Source: J. Chem. Eng. Data, 2007, 10.1021/je700384e
Compound 1: carbon dioxide, CO2, InChI=1S/CO2/c2-1-3
Compound 2: nitrous oxide, N2O, InChI=1S/N2O/c1-2-3
Compound 3: 1,1-difluoroethane, C2H4F2, InChI=1S/C2H4F2/c1-2(3)4/h2H,1H3

System: carbon dioxide; phases: Crystal, Liquid, Gas
Property: Vapor or sublimation pressure, kPa (Crystal); method: closed cell
Vapor or sublimation pressure, kPa	uncertainty
514	6

System: carbon dioxide; phases: Crystal, Liquid, Gas
Property: Triple point temperature, K (Crystal); method: DTA
Triple point temperature, K	uncertainty
216.56	0.5

System: nitrous oxide; phases: Crystal, Liquid, Gas
Property: Vapor or sublimation pressure, kPa (Crystal); method: closed cell
Vapor or sublimation pressure, kPa	uncertainty
92	6

System: nitrous oxide; phases: Crystal, Liquid, Gas
Property: Triple point temperature, K (Crystal); method: DTA
Triple point temperature, K	uncertainty
181.99	0.5

System: 1,1-difluoroethane; phases: Crystal, Liquid, Gas
Property: Triple point temperature, K (Crystal); method: DTA
Triple point temperature, K	uncertainty
154.3	0.5

System: 1,1-difluoroethane + carbon dioxide; phases: Liquid, Crystal, Gas
Property: Triple point temperature, K (Liquid); method: enthalpy/time analysis
Mole fraction of carbon dioxide	Triple point temperature, K	uncertainty
0	153.2	1.5
0.03	152.2	1.5
0.055	147.48	1.5
0.064	146.37	1.5

System: 1,1-difluoroethane + carbon dioxide; phases: Liquid, Crystal, Gas
Property: Triple point temperature, K (Liquid); method: enthalpy/time analysis
Mole fraction of carbon dioxide	Triple point temperature, K	uncertainty
0.094	148.65	1.5
0.15	158.15	1.5
0.185	161.54	1.5
0.315	176.52	1.5
0.457	187.51	1.5
0.559	193.95	1.5
0.668	199.5	1.5
0.755	205.77	1.5
0.769	205.38	1.5
0.86	209.38	1.5
0.901	211.27	1.5
1	216.52	1.5

System: 1,1-difluoroethane + nitrous oxide; phases: Liquid, Crystal, Gas
Property: Triple point temperature, K (Liquid); method: enthalpy/time analysis
Mole fraction of nitrous oxide	Triple point temperature, K	uncertainty
0	153.2	1.5
0.039	150.34	1.5
0.081	143.95	1.5
0.133	138.58	1.5
0.186	132.3	1.5

System: 1,1-difluoroethane + nitrous oxide; phases: Liquid, Crystal, Gas
Property: Triple point temperature, K (Liquid); method: enthalpy/time analysis
Mole fraction of nitrous oxide	Triple point temperature, K	uncertainty
0.223	135.05	1
0.289	140.85	1
0.436	151.87	1
0.489	155.24	1
0.632	164.08	1
0.719	169.51	1
0.819	174.38	1
0.879	177.87	1
1	181.9	1
