Measured thermophysical data. Measurement of Activity Coefficient at Infinite Dilution of Hydrocarbons in Sulfolane Using Gas-Liquid Chromatography
Source: J. Chem. Eng. Data, 2007, 10.1021/je700139p
Compound 1: benzene, C6H6, InChI=1S/C6H6/c1-2-4-6-5-3-1/h1-6H
Compound 2: toluene, C7H8, InChI=1S/C7H8/c1-7-5-3-2-4-6-7/h2-6H,1H3
Compound 3: ethylbenzene, C8H10, InChI=1S/C8H10/c1-2-8-6-4-3-5-7-8/h3-7H,2H2,1H3
Compound 4: 1,2-dimethylbenzene, C8H10, InChI=1S/C8H10/c1-7-5-3-4-6-8(7)2/h3-6H,1-2H3
Compound 5: 1,3-dimethylbenzene, C8H10, InChI=1S/C8H10/c1-7-4-3-5-8(2)6-7/h3-6H,1-2H3
Compound 6: 1,4-dimethylbenzene, C8H10, InChI=1S/C8H10/c1-7-3-5-8(2)6-4-7/h3-6H,1-2H3
Compound 7: heptane, C7H16, InChI=1S/C7H16/c1-3-5-7-6-4-2/h3-7H2,1-2H3
Compound 8: octane, C8H18, InChI=1S/C8H18/c1-3-5-7-8-6-4-2/h3-8H2,1-2H3
Compound 9: nonane, C9H20, InChI=1S/C9H20/c1-3-5-7-9-8-6-4-2/h3-9H2,1-2H3
Compound 10: decane, C10H22, InChI=1S/C10H22/c1-3-5-7-9-10-8-6-4-2/h3-10H2,1-2H3
Compound 11: sulfolane, C4H8O2S, InChI=1S/C4H8O2S/c5-7(6)3-1-2-4-7/h1-4H2

System: benzene + sulfolane; phases: Liquid
Fixed: Pressure, kPa = 101
Fixed: Mole fraction of benzene = 0
Property: Activity coefficient of benzene (Liquid); method: Chromatography
Temperature, K	Activity coefficient of benzene	uncertainty
333.15	2.316	0.158
343.15	2.297	0.156
353.15	2.281	0.155
363.15	2.26	0.154
373.15	2.249	0.153

System: toluene + sulfolane; phases: Liquid
Fixed: Pressure, kPa = 101
Fixed: Mole fraction of toluene = 0
Property: Activity coefficient of toluene (Liquid); method: Chromatography
Temperature, K	Activity coefficient of toluene	uncertainty
333.15	3.457	0.235
343.15	3.382	0.23
353.15	3.291	0.224
363.15	3.228	0.22
373.15	3.197	0.218

System: ethylbenzene + sulfolane; phases: Liquid
Fixed: Pressure, kPa = 101
Fixed: Mole fraction of ethylbenzene = 0
Property: Activity coefficient of ethylbenzene (Liquid); method: Chromatography
Temperature, K	Activity coefficient of ethylbenzene	uncertainty
333.15	4.819	0.328
343.15	4.646	0.317
353.15	4.483	0.305
363.15	4.353	0.297
373.15	4.26	0.29

System: 1,2-dimethylbenzene + sulfolane; phases: Liquid
Fixed: Pressure, kPa = 101
Fixed: Mole fraction of 1,2-dimethylbenzene = 0
Property: Activity coefficient of 1,2-dimethylbenzene (Liquid); method: Chromatography
Temperature, K	Activity coefficient of 1,2-dimethylbenzene	uncertainty
333.15	4.568	0.311
343.15	4.388	0.299
353.15	4.281	0.292
363.15	4.174	0.284
373.15	4.035	0.275

System: 1,3-dimethylbenzene + sulfolane; phases: Liquid
Fixed: Pressure, kPa = 101
Fixed: Mole fraction of 1,3-dimethylbenzene = 0
Property: Activity coefficient of 1,3-dimethylbenzene (Liquid); method: Chromatography
Temperature, K	Activity coefficient of 1,3-dimethylbenzene	uncertainty
333.15	5.354	0.365
343.15	5.13	0.35
353.15	4.978	0.339
363.15	4.769	0.325
373.15	4.65	0.317

System: 1,4-dimethylbenzene + sulfolane; phases: Liquid
Fixed: Pressure, kPa = 101
Fixed: Mole fraction of 1,4-dimethylbenzene = 0
Property: Activity coefficient of 1,4-dimethylbenzene (Liquid); method: Chromatography
Temperature, K	Activity coefficient of 1,4-dimethylbenzene	uncertainty
333.15	5.508	0.375
343.15	5.249	0.358
353.15	5.105	0.348
363.15	4.877	0.332
373.15	4.761	0.324

System: sulfolane + heptane; phases: Liquid
Fixed: Pressure, kPa = 101
Fixed: Mole fraction of heptane = 0
Property: Activity coefficient of heptane (Liquid); method: Chromatography
Temperature, K	Activity coefficient of heptane	uncertainty
333.15	60.256	4.128
343.15	53.102	3.636
353.15	47.647	3.262
363.15	41.204	2.82
373.15	38.543	2.637

System: octane + sulfolane; phases: Liquid
Fixed: Pressure, kPa = 101
Fixed: Mole fraction of octane = 0
Property: Activity coefficient of octane (Liquid); method: Chromatography
Temperature, K	Activity coefficient of octane	uncertainty
333.15	80.699	5.532
343.15	70.45	4.828
353.15	61.712	4.228
363.15	54.252	3.715
373.15	48.632	3.33

System: nonane + sulfolane; phases: Liquid
Fixed: Pressure, kPa = 101
Fixed: Mole fraction of nonane = 0
Property: Activity coefficient of nonane (Liquid); method: Chromatography
Temperature, K	Activity coefficient of nonane	uncertainty
333.15	333.15	22.9
343.15	343.15	23.59
353.15	353.15	24.28
363.15	363.15	24.97
373.15	373.15	25.66

System: decane + sulfolane; phases: Liquid
Fixed: Pressure, kPa = 101
Fixed: Mole fraction of decane = 0
Property: Activity coefficient of decane (Liquid); method: Chromatography
Temperature, K	Activity coefficient of decane	uncertainty
333.15	147.362	10.115
343.15	125.839	8.635
353.15	106.628	7.314
363.15	92.151	6.319
373.15	79.825	5.472
