Measured thermophysical data. Solubility of Dioxopromethazine Hydrochloride in Different Solvents
Source: J. Chem. Eng. Data, 2008, 10.1021/je700453v
Compound 1: dioxopromethazine hydrochloride, C17H21ClN2O2S, InChI=1S/C17H20N2O2S.ClH/c1-13(18(2)3)12-19-14-8-4-6-10-16(14)22(20,21)17-11-7-5-9-15(17)19;/h4-11,13H,12H2,1-3H3;1H, purity 99.4%
Compound 2: dimethylformamide, C3H7NO, InChI=1S/C3H7NO/c1-4(2)3-5/h3H,1-2H3
Compound 3: acetone, C3H6O, InChI=1S/C3H6O/c1-3(2)4/h1-2H3
Compound 4: N-methylpyrrolidone, C5H9NO, InChI=1S/C5H9NO/c1-6-4-2-3-5(6)7/h2-4H2,1H3
Compound 5: water, H2O, InChI=1S/H2O/h1H2
Compound 6: ethanol, C2H6O, InChI=1S/C2H6O/c1-2-3/h3H,2H2,1H3
Compound 7: acetic acid, C2H4O2, InChI=1S/C2H4O2/c1-2(3)4/h1H3,(H,3,4)
Compound 8: methanol, CH4O, InChI=1S/CH4O/c1-2/h2H,1H3

System: dimethylformamide + dioxopromethazine hydrochloride; phases: Liquid, Crystal
Fixed: Pressure, kPa = 101
Property: Mole fraction of dioxopromethazine hydrochloride (Liquid); method: Laser Monitoring observation technique.
Temperature, K	Mole fraction of dioxopromethazine hydrochloride	uncertainty
278.2	0.003806	9.8e-05
283.2	0.004184	0.000108
288.27	0.00448	0.000115
293.18	0.004744	0.000122
298.17	0.005139	0.000132
303.19	0.005537	0.000143
308.23	0.006014	0.000155
313.17	0.00658	0.000169
318.23	0.007163	0.000184
323.18	0.007827	0.000202

System: acetone + dioxopromethazine hydrochloride; phases: Liquid, Crystal
Fixed: Pressure, kPa = 101
Property: Mole fraction of dioxopromethazine hydrochloride (Liquid); method: Laser Monitoring observation technique.
Temperature, K	Mole fraction of dioxopromethazine hydrochloride	uncertainty
278.2	0.0001029	2.8e-06
283.16	0.0001236	3.4e-06
288.16	0.0001502	4.1e-06
293.17	0.000177	4.8e-06
298.18	0.0001991	5.4e-06
303.17	0.0002163	5.8e-06
308.21	0.0002366	6.4e-06
313.2	0.0002585	6.9e-06
318.18	0.0002783	7.5e-06
323.17	0.0002984	8e-06

System: N-methylpyrrolidone + dioxopromethazine hydrochloride; phases: Liquid, Crystal
Fixed: Pressure, kPa = 101
Property: Mole fraction of dioxopromethazine hydrochloride (Liquid); method: Laser Monitoring observation technique.
Temperature, K	Mole fraction of dioxopromethazine hydrochloride	uncertainty
278.16	0.006413	0.000159
283.2	0.006924	0.000172
288.24	0.007468	0.000185
293.16	0.007905	0.000196
298.17	0.008426	0.000209
308.17	0.009755	0.000242
313.21	0.01041	0.00026
318.23	0.01111	0.00028
323.27	0.01192	0.0003

System: water + dioxopromethazine hydrochloride; phases: Liquid, Crystal
Fixed: Pressure, kPa = 101
Property: Mole fraction of dioxopromethazine hydrochloride (Liquid); method: Laser Monitoring observation technique.
Temperature, K	Mole fraction of dioxopromethazine hydrochloride	uncertainty
278.28	0.001364	6.5e-05
283.27	0.001627	7.8e-05
288.27	0.002001	9.6e-05
293.24	0.002459	0.000118
298.18	0.003025	0.000145
303.18	0.00379	0.000182
308.16	0.004842	0.000233
313.22	0.006248	0.000301

System: ethanol + dioxopromethazine hydrochloride; phases: Liquid, Crystal
Fixed: Pressure, kPa = 101
Property: Mole fraction of dioxopromethazine hydrochloride (Liquid); method: Laser Monitoring observation technique.
Temperature, K	Mole fraction of dioxopromethazine hydrochloride	uncertainty
278.16	0.0002686	7.7e-06
283.21	0.0002961	8.5e-06
288.22	0.0003225	9.2e-06
293.18	0.000365	1.05e-05
298.21	0.000419	1.21e-05
303.22	0.0004999	1.44e-05
308.18	0.0005887	1.69e-05
313.17	0.000686	1.98e-05
318.2	0.0008286	2.39e-05

System: acetic acid + dioxopromethazine hydrochloride; phases: Liquid, Crystal
Fixed: Pressure, kPa = 101
Property: Mole fraction of dioxopromethazine hydrochloride (Liquid); method: Laser Monitoring observation technique.
Temperature, K	Mole fraction of dioxopromethazine hydrochloride	uncertainty
293.16	0.00208	5.7e-05
298.18	0.002769	7.5e-05
303.18	0.003475	9.4e-05
308.2	0.004334	0.000117
313.17	0.005479	0.000148
318.22	0.006886	0.000186
328.23	0.01002	0.00027
333.19	0.01228	0.00033
338.2	0.01486	0.0004

System: methanol + dioxopromethazine hydrochloride; phases: Liquid, Crystal
Fixed: Pressure, kPa = 101
Property: Mole fraction of dioxopromethazine hydrochloride (Liquid); method: Laser Monitoring observation technique.
Temperature, K	Mole fraction of dioxopromethazine hydrochloride	uncertainty
278.17	0.0007593	2.54e-05
283.22	0.0009251	3.09e-05
288.19	0.001122	3.7e-05
293.26	0.001366	4.6e-05
298.17	0.001558	5.2e-05
303.19	0.001852	6.2e-05
308.21	0.00225	7.5e-05
313.21	0.00284	9.5e-05
318.18	0.003397	0.000113
