Measured thermophysical data. Excess Molar Enthalpies of Acetophenone + (Methanol, + Ethanol, + 1-Propanol, and + 2-Propanol) at Different Temperatures and Pressures
Source: J. Chem. Eng. Data, 2008, 10.1021/je7006633
Compound 1: acetophenone, C8H8O, InChI=1S/C8H8O/c1-7(9)8-5-3-2-4-6-8/h2-6H,1H3, purity 99.8%
Compound 2: ethanol, C2H6O, InChI=1S/C2H6O/c1-2-3/h3H,2H2,1H3, purity 99.7%
Compound 3: propan-1-ol, C3H8O, InChI=1S/C3H8O/c1-2-3-4/h4H,2-3H2,1H3, purity 99.7%
Compound 4: propan-2-ol, C3H8O, InChI=1S/C3H8O/c1-3(2)4/h3-4H,1-2H3, purity 99.7%
Compound 5: methanol, CH4O, InChI=1S/CH4O/c1-2/h2H,1H3, purity 99.7%

System: methanol + acetophenone; phases: Liquid
Property: Excess molar enthalpy (molar enthalpy of mixing), kJ/mol (Liquid); method: Flow calorimetry
Temperature, K	Pressure, kPa	Mole fraction of acetophenone	Excess molar enthalpy (molar enthalpy of mixing), kJ/mol	uncertainty
298.15	100	0.0999	0.3637	0.0084
298.15	100	0.1999	0.6135	0.0135
298.15	100	0.2997	0.7755	0.0169
298.15	100	0.3506	0.8337	0.0181
298.15	100	0.4001	0.8765	0.019
298.15	100	0.4496	0.9054	0.0196
298.15	100	0.4998	0.9211	0.0199
298.15	100	0.55	0.9242	0.02
298.15	100	0.5995	0.9127	0.0198
298.15	100	0.6992	0.841	0.0183
298.15	100	0.799	0.6817	0.0151
298.15	100	0.9003	0.4037	0.0093
298.15	10000	0.0997	0.3736	0.0086
298.15	10000	0.1996	0.6239	0.0138
298.15	10000	0.2993	0.7934	0.0173
298.15	10000	0.3501	0.8559	0.0185
298.15	10000	0.3996	0.8988	0.0194
298.15	10000	0.4491	0.9299	0.0201
298.15	10000	0.4993	0.9475	0.0205
298.15	10000	0.5495	0.9531	0.0206
298.15	10000	0.599	0.9441	0.0204
298.15	10000	0.6988	0.8715	0.0189
298.15	10000	0.7986	0.7158	0.0157
298.15	10000	0.9001	0.435	0.0099
313.15	100	0.0999	0.4102	0.0094
313.15	100	0.1999	0.6962	0.0153
313.15	100	0.2997	0.8974	0.0194
313.15	100	0.3506	0.9704	0.021
313.15	100	0.4001	1.0233	0.0221
313.15	100	0.4496	1.0611	0.0229
313.15	100	0.4998	1.087	0.0234
313.15	100	0.55	1.1015	0.0237
313.15	100	0.5995	1.0991	0.0237
313.15	100	0.6992	1.0133	0.0219
313.15	100	0.799	0.819	0.0179
313.15	100	0.9003	0.4937	0.0113
313.15	10000	0.0997	0.4277	0.0098
313.15	10000	0.1996	0.7237	0.0158
313.15	10000	0.2993	0.9259	0.02
313.15	10000	0.3501	1.0006	0.0216
313.15	10000	0.3996	1.0541	0.0227
313.15	10000	0.4491	1.0907	0.0235
313.15	10000	0.4993	1.1098	0.0239
313.15	10000	0.5495	1.112	0.0239
313.15	10000	0.599	1.1019	0.0237
313.15	10000	0.6988	1.0168	0.0219
313.15	10000	0.7986	0.8236	0.0179
313.15	10000	0.9001	0.4966	0.0113
328.15	100	0.0999	0.4802	0.011
328.15	100	0.1999	0.8027	0.0175
328.15	100	0.2997	1.0243	0.0221
328.15	100	0.3506	1.1093	0.0239
328.15	100	0.4001	1.1714	0.0252
328.15	100	0.4496	1.2115	0.026
328.15	100	0.4998	1.2335	0.0265
328.15	100	0.55	1.2359	0.0265
328.15	100	0.5995	1.2185	0.0261
328.15	100	0.6992	1.1091	0.0238
328.15	100	0.799	0.8764	0.0191
328.15	100	0.9003	0.502	0.0115
328.15	10000	0.0997	0.4821	0.011
328.15	10000	0.1996	0.8096	0.0177
328.15	10000	0.2993	1.0307	0.0222
328.15	10000	0.3501	1.1146	0.024
328.15	10000	0.3996	1.1742	0.0252
328.15	10000	0.4491	1.2142	0.0261
328.15	10000	0.4993	1.2355	0.0265
328.15	10000	0.5495	1.2398	0.0266
328.15	10000	0.599	1.2221	0.0262
328.15	10000	0.6988	1.1103	0.0239
328.15	10000	0.7986	0.8775	0.0191
328.15	10000	0.9001	0.5037	0.0115

System: ethanol + acetophenone; phases: Liquid
Property: Excess molar enthalpy (molar enthalpy of mixing), kJ/mol (Liquid); method: Flow calorimetry
Temperature, K	Pressure, kPa	Mole fraction of acetophenone	Excess molar enthalpy (molar enthalpy of mixing), kJ/mol	uncertainty
298.15	100	0.1003	0.4805	0.011
298.15	100	0.2002	0.7909	0.0174
298.15	100	0.3006	0.9995	0.0217
298.15	100	0.35	1.0699	0.0231
298.15	100	0.4009	1.1238	0.0243
298.15	100	0.4504	1.1587	0.025
298.15	100	0.5007	1.1774	0.0254
298.15	100	0.5502	1.1768	0.0254
298.15	100	0.5998	1.1574	0.025
298.15	100	0.7002	1.0629	0.023
298.15	100	0.7996	0.8684	0.019
298.15	100	0.9002	0.5275	0.012
298.15	10000	0.1002	0.4849	0.011
298.15	10000	0.2	0.7925	0.0174
298.15	10000	0.3004	1.0006	0.0217
298.15	10000	0.3498	1.0712	0.0232
298.15	10000	0.4006	1.1252	0.0243
298.15	10000	0.4501	1.1594	0.025
298.15	10000	0.5004	1.1788	0.0254
298.15	10000	0.5499	1.1793	0.0254
298.15	10000	0.5995	1.1644	0.0251
298.15	10000	0.6999	1.0741	0.0233
298.15	10000	0.7995	0.8875	0.0194
298.15	10000	0.9001	0.5418	0.0123
313.15	100	0.1003	0.5579	0.0127
313.15	100	0.2002	0.9324	0.0203
313.15	100	0.3006	1.184	0.0256
313.15	100	0.35	1.2705	0.0273
313.15	100	0.4009	1.3286	0.0286
313.15	100	0.4504	1.3695	0.0294
313.15	100	0.5007	1.3916	0.0299
313.15	100	0.5502	1.3972	0.03
313.15	100	0.5998	1.3777	0.0296
313.15	100	0.7002	1.2586	0.0271
313.15	100	0.7996	1.0215	0.0222
313.15	100	0.9002	0.6085	0.0139
313.15	10000	0.1002	0.5591	0.0127
313.15	10000	0.2	0.9333	0.0204
313.15	10000	0.3004	1.1843	0.0256
313.15	10000	0.3498	1.2716	0.0274
313.15	10000	0.4006	1.3307	0.0286
313.15	10000	0.4501	1.3701	0.0294
313.15	10000	0.5004	1.3928	0.0299
313.15	10000	0.5499	1.3994	0.03
313.15	10000	0.5995	1.3784	0.0296
313.15	10000	0.6999	1.2615	0.0271
313.15	10000	0.7995	1.0219	0.0222
313.15	10000	0.9001	0.6097	0.0139
328.15	100	0.1003	0.6123	0.0139
328.15	100	0.2002	1.0369	0.0226
328.15	100	0.3006	1.3289	0.0286
328.15	100	0.35	1.4254	0.0306
328.15	100	0.4009	1.4976	0.0321
328.15	100	0.4504	1.5443	0.0331
328.15	100	0.5007	1.5652	0.0335
328.15	100	0.5502	1.5598	0.0334
328.15	100	0.5998	1.5275	0.0327
328.15	100	0.7002	1.3755	0.0295
328.15	100	0.7996	1.0819	0.0235
328.15	100	0.9002	0.63	0.0144
328.15	10000	0.1002	0.6133	0.0139
328.15	10000	0.2	1.0377	0.0226
328.15	10000	0.3004	1.3293	0.0286
328.15	10000	0.3498	1.4258	0.0306
328.15	10000	0.4006	1.498	0.0321
328.15	10000	0.4501	1.5457	0.0331
328.15	10000	0.5004	1.5671	0.0336
328.15	10000	0.5499	1.5611	0.0334
328.15	10000	0.5995	1.5301	0.0328
328.15	10000	0.6999	1.38	0.0296
328.15	10000	0.7995	1.0943	0.0238
328.15	10000	0.9001	0.6356	0.0145
338.15	100	0.1003	0.6703	0.0152
338.15	100	0.2002	1.1228	0.0244
338.15	100	0.3006	1.4306	0.0308
338.15	100	0.35	1.5341	0.0329
338.15	100	0.4009	1.6082	0.0344
338.15	100	0.4504	1.6518	0.0353
338.15	100	0.5007	1.6694	0.0357
338.15	100	0.5502	1.6573	0.0354
338.15	100	0.5998	1.6143	0.0345
338.15	100	0.7002	1.4375	0.0308
338.15	100	0.7996	1.1197	0.0243
338.15	100	0.9002	0.6361	0.0146
338.15	10000	0.1002	0.6717	0.0152
338.15	10000	0.2	1.1229	0.0244
338.15	10000	0.3004	1.4318	0.0308
338.15	10000	0.3498	1.5352	0.0329
338.15	10000	0.4006	1.6102	0.0345
338.15	10000	0.4501	1.653	0.0354
338.15	10000	0.5004	1.6714	0.0357
338.15	10000	0.5499	1.6582	0.0355
338.15	10000	0.5995	1.6164	0.0346
338.15	10000	0.6999	1.4409	0.0309
338.15	10000	0.7995	1.1235	0.0244
338.15	10000	0.9001	0.6396	0.0146

System: propan-1-ol + acetophenone; phases: Liquid
Fixed: Pressure, kPa = 100
Property: Excess molar enthalpy (molar enthalpy of mixing), kJ/mol (Liquid); method: Flow calorimetry
Temperature, K	Mole fraction of acetophenone	Excess molar enthalpy (molar enthalpy of mixing), kJ/mol	uncertainty
298.15	0.0997	0.5895	0.0133
298.15	0.2003	0.9521	0.0208
298.15	0.3002	1.1776	0.0255
298.15	0.3505	1.2573	0.0271
298.15	0.3998	1.3133	0.0283
298.15	0.4501	1.3491	0.029
298.15	0.5003	1.3644	0.0293
298.15	0.5499	1.3621	0.0293
298.15	0.6004	1.3361	0.0287
298.15	0.7003	1.2181	0.0263
298.15	0.8006	0.9913	0.0216
298.15	0.9002	0.6015	0.0136
313.15	0.0997	0.6603	0.0149
313.15	0.2003	1.0913	0.0237
313.15	0.3002	1.3682	0.0295
313.15	0.3505	1.4627	0.0314
313.15	0.3998	1.5257	0.0328
313.15	0.4501	1.5651	0.0336
313.15	0.5003	1.5791	0.0339
313.15	0.5499	1.569	0.0336
313.15	0.6004	1.5311	0.0329
313.15	0.7003	1.3732	0.0295
313.15	0.8006	1.0825	0.0235
313.15	0.9002	0.6307	0.0143
328.15	0.0997	0.7287	0.0165
328.15	0.2003	1.2339	0.0268
328.15	0.3002	1.565	0.0337
328.15	0.3505	1.6726	0.0359
328.15	0.3998	1.745	0.0374
328.15	0.4501	1.7893	0.0383
328.15	0.5003	1.8062	0.0386
328.15	0.5499	1.7863	0.0382
328.15	0.6004	1.7419	0.0373
328.15	0.7003	1.551	0.0333
328.15	0.8006	1.2073	0.0262
328.15	0.9002	0.6944	0.0159
338.15	0.0997	0.7847	0.0178
338.15	0.2003	1.3162	0.0285
338.15	0.3002	1.6557	0.0355
338.15	0.3505	1.7699	0.0379
338.15	0.3998	1.8467	0.0395
338.15	0.4501	1.8895	0.0404
338.15	0.5003	1.8999	0.0406
338.15	0.5499	1.8795	0.0401
338.15	0.6004	1.8219	0.039
338.15	0.7003	1.6077	0.0345
338.15	0.8006	1.2418	0.027
338.15	0.9002	0.7053	0.0161
348.15	0.0997	0.8029	0.0181
348.15	0.2003	1.3547	0.0293
348.15	0.3002	1.7143	0.0368
348.15	0.3505	1.8279	0.0391
348.15	0.3998	1.9042	0.0407
348.15	0.4501	1.9463	0.0415
348.15	0.5003	1.9543	0.0417
348.15	0.5499	1.9287	0.0412
348.15	0.6004	1.8673	0.0399
348.15	0.7003	1.6394	0.0352
348.15	0.8006	1.2586	0.0273
348.15	0.9002	0.7203	0.0164

System: propan-2-ol + acetophenone; phases: Liquid
Fixed: Pressure, kPa = 100
Property: Excess molar enthalpy (molar enthalpy of mixing), kJ/mol (Liquid); method: Flow calorimetry
Temperature, K	Mole fraction of acetophenone	Excess molar enthalpy (molar enthalpy of mixing), kJ/mol	uncertainty
298.15	0.1	0.7093	0.016
298.15	0.2001	1.1352	0.0248
298.15	0.2996	1.3877	0.03
298.15	0.3502	1.4709	0.0317
298.15	0.3995	1.5273	0.0329
298.15	0.4497	1.5608	0.0336
298.15	0.4996	1.5703	0.0338
298.15	0.5503	1.5602	0.0335
298.15	0.6003	1.5235	0.0328
298.15	0.7006	1.3758	0.0297
298.15	0.7994	1.1123	0.0242
298.15	0.9005	0.6733	0.0152
313.15	0.1	0.8232	0.0185
313.15	0.2001	1.3219	0.0287
313.15	0.2996	1.6348	0.0351
313.15	0.3502	1.7328	0.0371
313.15	0.3995	1.7981	0.0385
313.15	0.4497	1.8356	0.0393
313.15	0.4996	1.8433	0.0395
313.15	0.5503	1.8234	0.039
313.15	0.6003	1.7723	0.038
313.15	0.7006	1.5823	0.034
313.15	0.7994	1.2467	0.0271
313.15	0.9005	0.7258	0.0165
328.15	0.1	0.886	0.0199
328.15	0.2001	1.4488	0.0313
328.15	0.2996	1.788	0.0383
328.15	0.3502	1.9026	0.0407
328.15	0.3995	1.9737	0.0422
328.15	0.4497	2.0141	0.043
328.15	0.4996	2.0188	0.0431
328.15	0.5503	1.9915	0.0425
328.15	0.6003	1.9277	0.0412
328.15	0.7006	1.701	0.0365
328.15	0.7994	1.323	0.0287
328.15	0.9005	0.7516	0.0172
338.15	0.1	0.888	0.02
338.15	0.2001	1.477	0.0319
338.15	0.2996	1.8338	0.0393
338.15	0.3502	1.952	0.0417
338.15	0.3995	2.0259	0.0432
338.15	0.4497	2.0663	0.0441
338.15	0.4996	2.0703	0.0442
338.15	0.5503	2.0375	0.0435
338.15	0.6003	1.9724	0.0421
338.15	0.7006	1.7326	0.0371
338.15	0.7994	1.3375	0.029
338.15	0.9005	0.7594	0.0173
348.15	0.1	0.8907	0.02
348.15	0.2001	1.4805	0.032
348.15	0.2996	1.8456	0.0395
348.15	0.3502	1.9621	0.0419
348.15	0.3995	2.0371	0.0435
348.15	0.4497	2.0756	0.0443
348.15	0.4996	2.0779	0.0443
348.15	0.5503	2.0449	0.0436
348.15	0.6003	1.9743	0.0422
348.15	0.7006	1.7343	0.0372
348.15	0.7994	1.3422	0.0291
348.15	0.9005	0.7625	0.0174
