Measured thermophysical data. Solubilities of Hexanal, Benzaldehyde, 2-Furfural, 2-Phenylethanol, Phenylethanal, and c-Nonalactone in Water at Temperatures between (50 and 100) deg C
Source: J. Chem. Eng. Data, 2007, 10.1021/je700122y
Compound 1: hexanal, C6H12O, InChI=1S/C6H12O/c1-2-3-4-5-6-7/h6H,2-5H2,1H3
Compound 2: benzaldehyde, C7H6O, InChI=1S/C7H6O/c8-6-7-4-2-1-3-5-7/h1-6H
Compound 3: 2-furaldehyde, C5H4O2, InChI=1S/C5H4O2/c6-4-5-2-1-3-7-5/h1-4H
Compound 4: 2-phenylethanol, C8H10O, InChI=1S/C8H10O/c9-7-6-8-4-2-1-3-5-8/h1-5,9H,6-7H2
Compound 5: .alpha.-tolualdehyde, C8H8O, InChI=1S/C8H8O/c9-7-6-8-4-2-1-3-5-8/h1-5,7H,6H2
Compound 6: 2(3H)-furanone, dihydro-5-pentyl-, C9H16O2, InChI=1S/C9H16O2/c1-2-3-4-5-8-6-7-9(10)11-8/h8H,2-7H2,1H3
Compound 7: water, H2O, InChI=1S/H2O/h1H2, purity 99%

System: hexanal + water; phases: Liquid mixture 1, Liquid mixture 2
Fixed: Pressure, kPa = 101.3
Property: Mole fraction of hexanal (Liquid mixture 1); method: spectrophotometer
Temperature, K	Mole fraction of hexanal	uncertainty
353.15	0.000591	6.4e-05
363.15	0.000682	6.8e-05
373.1	0.00119	0.00012

System: benzaldehyde + water; phases: Liquid mixture 1, Liquid mixture 2
Fixed: Pressure, kPa = 101.3
Property: Mole fraction of benzaldehyde (Liquid mixture 1); method: spectrophotometer
Temperature, K	Mole fraction of benzaldehyde	uncertainty
353.15	0.00236	0.00058
363.15	0.00261	0.00036
373.1	0.0036	0.00044

System: 2-furaldehyde + water; phases: Liquid mixture 1, Liquid mixture 2
Fixed: Pressure, kPa = 101.3
Property: Mole fraction of 2-furaldehyde (Liquid mixture 1); method: spectrophotometer
Temperature, K	Mole fraction of 2-furaldehyde	uncertainty
353.15	0.028	0.0018
363.15	0.0314	0.0022
373.1	0.034	0.002

System: 2-phenylethanol + water; phases: Liquid mixture 1, Liquid mixture 2
Fixed: Pressure, kPa = 101.3
Property: Mole fraction of 2-phenylethanol (Liquid mixture 1); method: spectrophotometer
Temperature, K	Mole fraction of 2-phenylethanol	uncertainty
333.15	0.0051	0.00031
343.15	0.0056	0.00034
353.15	0.0055	0.00033
363.15	0.0065	0.00039
373.1	0.0065	0.00068

System: .alpha.-tolualdehyde + water; phases: Liquid mixture 1, Liquid mixture 2
Fixed: Pressure, kPa = 101.3
Property: Mole fraction of .alpha.-tolualdehyde (Liquid mixture 1); method: spectrophotometer
Temperature, K	Mole fraction of .alpha.-tolualdehyde	uncertainty
323.15	0.0018	0.00011
333.15	0.0019	0.00014
343.15	0.0023	0.00014
353.15	0.0026	0.00016
363.15	0.003	0.00018
373.1	0.004	0.00024

System: 2(3H)-furanone, dihydro-5-pentyl- + water; phases: Liquid mixture 1, Liquid mixture 2
Fixed: Pressure, kPa = 101.3
Property: Mole fraction of 2(3H)-furanone, dihydro-5-pentyl- (Liquid mixture 1); method: spectrophotometer
Temperature, K	Mole fraction of 2(3H)-furanone, dihydro-5-pentyl-	uncertainty
323.15	0.00072	0.00018
333.15	0.00087	0.00014
343.15	0.00109	8e-05
353.15	0.00099	0.00014
363.15	0.00118	8e-05
373.1	0.00128	8e-05
