Measured thermophysical data. Solubility of Losartan Potassium in Different Binary Solvents from (293.15 to 343.15) K
Source: J. Chem. Eng. Data, 2008, 10.1021/je700724r
Compound 1: Losartan potassium, C22H22ClKN6O, InChI=1S/C22H22ClN6O.K/c1-2-3-8-20-24-21(23)19(14-30)29(20)13-15-9-11-16(12-10-15)17-6-4-5-7-18(17)22-25-27-28-26-22;/h4-7,9-12,30H,2-3,8,13-14H2,1H3;/q-1;+1, purity 96%
Compound 2: propan-2-ol, C3H8O, InChI=1S/C3H8O/c1-3(2)4/h3-4H,1-2H3, purity 99.5%
Compound 3: cyclohexane, C6H12, InChI=1S/C6H12/c1-2-4-6-5-3-1/h1-6H2, purity 99.5%
Compound 4: water, H2O, InChI=1S/H2O/h1H2

System: propan-2-ol + water + Losartan potassium; phases: Liquid, Crystal
Fixed: Pressure, kPa = 101
Property: Mole fraction of Losartan potassium (Liquid); method: Laser Monitoring
Temperature, K	Solvent: Mole fraction of water	Mole fraction of Losartan potassium	uncertainty
293.15	0.0936	0.01485	0.00124
293.15	0.1221	0.02144	0.00179
293.15	0.1495	0.02881	0.00239
293.15	0.1757	0.03278	0.00273
293.15	0.2008	0.04034	0.00336
293.15	0.225	0.04425	0.00367
293.15	0.2482	0.04842	0.00404
293.15	0.2706	0.05415	0.00454
303.15	0.0936	0.01832	0.00152
303.15	0.1221	0.02462	0.00204
303.15	0.1495	0.02985	0.00247
303.15	0.1757	0.03378	0.00282
303.15	0.2008	0.04351	0.00365
303.15	0.225	0.05085	0.00422
303.15	0.2482	0.05273	0.00439
303.15	0.2706	0.06021	0.00505
313.15	0.0936	0.02014	0.00166
313.15	0.1221	0.02627	0.00218
313.15	0.1495	0.03418	0.00283
313.15	0.1757	0.03791	0.00315
313.15	0.2008	0.04574	0.00381
313.15	0.225	0.05149	0.00428
313.15	0.2482	0.05604	0.00468
313.15	0.2706	0.06325	0.0053
323.15	0.0936	0.02345	0.00193
323.15	0.1221	0.03037	0.00252
323.15	0.1495	0.03885	0.00322
323.15	0.1757	0.04394	0.00364
323.15	0.2008	0.0492	0.0041
323.15	0.225	0.05474	0.00454
323.15	0.2482	0.05671	0.00472
323.15	0.2706	0.06478	0.00554
333.15	0.0936	0.03149	0.0026
333.15	0.1221	0.03832	0.00316
333.15	0.1495	0.04629	0.00382
333.15	0.1757	0.04928	0.00409
333.15	0.2008	0.06023	0.005
333.15	0.225	0.0628	0.0052
333.15	0.2482	0.0692	0.0058
333.15	0.2706	0.0759	0.0063
343.15	0.0936	0.0358	0.0029
343.15	0.1221	0.03941	0.00325
343.15	0.1495	0.0477	0.004
343.15	0.1757	0.05591	0.00464
343.15	0.2008	0.06243	0.00518
343.15	0.225	0.06887	0.00572
343.15	0.2482	0.07422	0.00618
343.15	0.2706	0.08014	0.00669

System: propan-2-ol + cyclohexane + Losartan potassium; phases: Liquid, Crystal
Fixed: Pressure, kPa = 101
Property: Mole fraction of Losartan potassium (Liquid); method: Laser Monitoring
Temperature, K	Solvent: Mole fraction of cyclohexane	Mole fraction of Losartan potassium	uncertainty
293.15	0.4166	0.00125	0.000202
293.15	0.5882	0.0002346	4.78e-05
293.15	0.641	0.0001965	3.28e-05
293.15	0.6818	9.891e-05	1.953e-05
293.15	0.7142	7.683e-05	1.301e-05
293.15	0.7407	6.509e-05	1.096e-05
293.15	0.7812	4.691e-05	8.16e-06
293.15	0.8108	3.713e-05	6.54e-06
303.15	0.4166	0.001268	0.000205
303.15	0.5882	0.0003172	5.93e-05
303.15	0.641	0.000188	3.3e-05
303.15	0.6818	0.0001135	2.04e-05
303.15	0.7142	9.254e-05	1.572e-05
303.15	0.7407	7.067e-05	1.21e-05
303.15	0.7812	5.393e-05	8.93e-06
303.15	0.8108	5.146e-05	8.33e-06
313.15	0.4166	0.001396	0.000226
313.15	0.5882	0.0003542	6.57e-05
313.15	0.641	0.000195	3.5e-05
313.15	0.6818	0.0001382	2.35e-05
313.15	0.7142	0.0001131	1.91e-05
313.15	0.7407	8.83e-05	1.47e-05
313.15	0.7812	7.35e-05	1.22e-05
313.15	0.8108	6.18e-05	1.08e-05
323.15	0.4166	0.001722	0.000278
323.15	0.5882	0.000452	8.3e-05
323.15	0.641	0.000224	4.2e-05
323.15	0.6818	0.0001436	2.51e-05
323.15	0.7142	0.0001178	1.96e-05
323.15	0.7407	9.98e-05	1.63e-05
323.15	0.7812	8.99e-05	1.5e-05
323.15	0.8108	6.12e-05	1.18e-05
333.15	0.4166	0.001886	0.000305
333.15	0.5882	0.0005055	9.23e-05
333.15	0.641	0.0003019	5.26e-05
333.15	0.6818	0.0002146	3.66e-05
333.15	0.7142	0.0001714	2.91e-05
333.15	0.7407	0.0001369	2.33e-05
333.15	0.7812	9.98e-05	1.74e-05
333.15	0.8108	7.529e-05	1.387e-05
343.15	0.4166	0.002061	0.000333
343.15	0.5882	0.0005313	9.7e-05
343.15	0.641	0.0003892	6.43e-05
343.15	0.6818	0.0003124	5.24e-05
343.15	0.7142	0.0002256	3.97e-05
343.15	0.7407	0.0001789	3.1e-05
343.15	0.7812	0.0001198	2.18e-05
343.15	0.8108	8.842e-05	1.659e-05
