Measured thermophysical data. Temperature and Composition Dependence of the Densities, Viscosities, and Speeds of Sound of Binary Liquid Mixtures of 1-Butanol with Hexadecane and Squalane
Source: J. Chem. Eng. Data, 2008, 10.1021/je7007654
Compound 1: butan-1-ol, C4H10O, InChI=1S/C4H10O/c1-2-3-4-5/h5H,2-4H2,1H3
Compound 2: hexadecane, C16H34, InChI=1S/C16H34/c1-3-5-7-9-11-13-15-16-14-12-10-8-6-4-2/h3-16H2,1-2H3
Compound 3: 2,6,10,15,19,23-hexamethyltetracosane, C30H62, InChI=1S/C30H62/c1-25(2)15-11-19-29(7)23-13-21-27(5)17-9-10-18-28(6)22-14-24-30(8)20-12-16-26(3)4/h25-30H,9-24H2,1-8H3

System: butan-1-ol; phases: Liquid
Fixed: Pressure, kPa = 101
Property: Viscosity, Pa*s (Liquid); method: Capillary tube (Ostwald; Ubbelohde) method
Temperature, K	Viscosity, Pa*s	uncertainty
298.15	0.002573	1.6e-05
303.15	0.002275	1.4e-05
308.15	0.001981	1.3e-05

System: butan-1-ol; phases: Liquid
Fixed: Pressure, kPa = 101
Property: Speed of sound, m/s (Liquid); method: Sing-around technique in a fixed-path interferometer
Temperature, K	Speed of sound, m/s	uncertainty
298.15	1240.5	0.8
303.15	1226.5	0.8
308.15	1209.8	0.8

System: butan-1-ol; phases: Liquid
Fixed: Pressure, kPa = 101
Property: Mass density, kg/m3 (Liquid); method: VIBTUB:UFactor:6
Temperature, K	Mass density, kg/m3	uncertainty
298.15	805.907	0.673
303.15	803.155	0.679
308.15	799.249	0.688

System: hexadecane; phases: Liquid
Fixed: Pressure, kPa = 101
Property: Viscosity, Pa*s (Liquid); method: Capillary tube (Ostwald; Ubbelohde) method
Temperature, K	Viscosity, Pa*s	uncertainty
298.15	0.003041	2.3e-05
303.15	0.002706	2e-05
308.15	0.002409	1.8e-05

System: hexadecane; phases: Liquid
Fixed: Pressure, kPa = 101
Property: Speed of sound, m/s (Liquid); method: Sing-around technique in a fixed-path interferometer
Temperature, K	Speed of sound, m/s	uncertainty
298.15	1338.6	1.2
303.15	1320	1.2
308.15	1301.7	1.2

System: hexadecane; phases: Liquid
Fixed: Pressure, kPa = 101
Property: Mass density, kg/m3 (Liquid); method: VIBTUB::UFactor:6
Temperature, K	Mass density, kg/m3	uncertainty
298.15	770.456	0.842
303.15	766.981	0.849
308.15	763.52	0.856

System: 2,6,10,15,19,23-hexamethyltetracosane; phases: Liquid
Fixed: Pressure, kPa = 101
Property: Viscosity, Pa*s (Liquid); method: Capillary tube (Ostwald; Ubbelohde) method
Temperature, K	Viscosity, Pa*s	uncertainty
298.15	0.028257	0.000184
303.15	0.022087	0.000145
308.15	0.017774	0.000117

System: 2,6,10,15,19,23-hexamethyltetracosane; phases: Liquid
Fixed: Pressure, kPa = 101
Property: Speed of sound, m/s (Liquid); method: Sing-around technique in a fixed-path interferometer
Temperature, K	Speed of sound, m/s	uncertainty
298.15	1381.9	1.2
303.15	1364.1	1.2
308.15	1346.5	1.2

System: 2,6,10,15,19,23-hexamethyltetracosane; phases: Liquid
Fixed: Pressure, kPa = 101
Property: Mass density, kg/m3 (Liquid); method: Vibrating tube method
Temperature, K	Mass density, kg/m3	uncertainty
298.15	805.122	0.235
303.15	801.912	0.236
308.15	798.709	0.236

System: butan-1-ol + hexadecane; phases: Liquid
Fixed: Pressure, kPa = 101
Property: Viscosity, Pa*s (Liquid); method: Capillary tube (Ostwald; Ubbelohde) method
Temperature, K	Mole fraction of butan-1-ol	Viscosity, Pa*s	uncertainty
298.15	0	0.003041	2.3e-05
298.15	0.0899	0.002957	2.2e-05
298.15	0.1048	0.002937	2.2e-05
298.15	0.1516	0.002899	2.1e-05
298.15	0.2017	0.002846	2e-05
298.15	0.2494	0.002811	2e-05
298.15	0.3382	0.002753	1.9e-05
298.15	0.4147	0.002704	1.9e-05
298.15	0.5057	0.002665	1.8e-05
298.15	0.5845	0.002635	1.8e-05
298.15	0.698	0.002594	1.7e-05
298.15	0.7945	0.002568	1.6e-05
298.15	0.8497	0.002558	1.6e-05
298.15	0.8963	0.002551	1.6e-05
298.15	0.953	0.002556	1.6e-05
298.15	1	0.002573	1.6e-05
303.15	0	0.002706	2e-05
303.15	0.0899	0.0026	1.9e-05
303.15	0.1048	0.002582	1.9e-05
303.15	0.1516	0.002546	1.9e-05
303.15	0.2017	0.002515	1.8e-05
303.15	0.2494	0.002478	1.8e-05
303.15	0.3382	0.002432	1.7e-05
303.15	0.4147	0.002394	1.7e-05
303.15	0.5057	0.002344	1.6e-05
303.15	0.5845	0.002306	1.6e-05
303.15	0.698	0.002256	1.5e-05
303.15	0.7945	0.002223	1.5e-05
303.15	0.8497	0.002218	1.5e-05
303.15	0.8963	0.002219	1.4e-05
303.15	0.953	0.002228	1.4e-05
303.15	1	0.002275	1.4e-05
308.15	0	0.002409	1.8e-05
308.15	0.0899	0.002302	1.7e-05
308.15	0.1048	0.002287	1.7e-05
308.15	0.1516	0.002254	1.7e-05
308.15	0.2017	0.002223	1.6e-05
308.15	0.2494	0.002189	1.6e-05
308.15	0.3382	0.002146	1.6e-05
308.15	0.4147	0.002112	1.5e-05
308.15	0.5057	0.002068	1.5e-05
308.15	0.5845	0.002029	1.4e-05
308.15	0.698	0.00199	1.4e-05
308.15	0.7945	0.00196	1.3e-05
308.15	0.8497	0.001953	1.3e-05
308.15	0.8963	0.001948	1.3e-05
308.15	0.953	0.001953	1.3e-05
308.15	1	0.001981	1.3e-05

System: butan-1-ol + hexadecane; phases: Liquid
Fixed: Pressure, kPa = 101
Property: Speed of sound, m/s (Liquid); method: Sing-around technique in a fixed-path interferometer
Temperature, K	Mole fraction of butan-1-ol	Speed of sound, m/s	uncertainty
298.15	0	1338.6	1.2
298.15	0.0899	1332.4	1.2
298.15	0.1048	1331.2	1.2
298.15	0.1516	1328.2	1.1
298.15	0.2017	1324.9	1.1
298.15	0.2494	1321.9	1.1
298.15	0.3382	1315.8	1.1
298.15	0.4147	1310.6	1
298.15	0.5057	1303.9	1
298.15	0.5845	1297.6	1
298.15	0.698	1287.4	0.9
298.15	0.7945	1276.8	0.9
298.15	0.8497	1269.5	0.9
298.15	0.8963	1262.7	0.9
298.15	0.953	1252.3	0.8
298.15	1	1240.5	0.8
303.15	0	1320	1.2
303.15	0.0899	1313.4	1.2
303.15	0.1048	1312.2	1.2
303.15	0.1516	1309.2	1.1
303.15	0.2017	1305.8	1.1
303.15	0.2494	1302.9	1.1
303.15	0.3382	1296.9	1.1
303.15	0.4147	1291.6	1
303.15	0.5057	1285.5	1
303.15	0.5845	1279.2	1
303.15	0.698	1269.2	0.9
303.15	0.7945	1258.5	0.9
303.15	0.8497	1251.4	0.9
303.15	0.8963	1244.8	0.8
303.15	0.953	1235.8	0.8
303.15	1	1226.5	0.8
308.15	0	1301.7	1.2
308.15	0.0899	1294.9	1.2
308.15	0.1048	1293.8	1.2
308.15	0.1516	1290.3	1.1
308.15	0.2017	1287.3	1.1
308.15	0.2494	1284.4	1.1
308.15	0.3382	1278.2	1.1
308.15	0.4147	1273.1	1
308.15	0.5057	1266.9	1
308.15	0.5845	1260.9	1
308.15	0.698	1251.1	0.9
308.15	0.7945	1240.6	0.9
308.15	0.8497	1233.7	0.9
308.15	0.8963	1227.4	0.8
308.15	0.953	1218.5	0.8
308.15	1	1209.8	0.8

System: butan-1-ol + hexadecane; phases: Liquid
Fixed: Pressure, kPa = 101
Property: Mass density, kg/m3 (Liquid); method: VIBTUB:UFactor:6
Temperature, K	Mole fraction of butan-1-ol	Mass density, kg/m3	uncertainty
298.15	0	770.456	0.842
298.15	0.0899	770.953	0.831
298.15	0.1048	771.053	0.829
298.15	0.1516	771.517	0.823
298.15	0.2017	772.074	0.816
298.15	0.2494	772.705	0.81
298.15	0.3382	774.083	0.798
298.15	0.4147	775.524	0.787
298.15	0.5057	777.651	0.774
298.15	0.5845	779.95	0.762
298.15	0.698	784.249	0.744
298.15	0.7945	789.246	0.725
298.15	0.8497	792.847	0.713
298.15	0.8963	796.346	0.702
298.15	0.953	801.232	0.687
298.15	1	805.907	0.673
303.15	0	766.981	0.849
303.15	0.0899	767.402	0.838
303.15	0.1048	767.499	0.836
303.15	0.1516	767.916	0.83
303.15	0.2017	768.482	0.823
303.15	0.2494	769.093	0.817
303.15	0.3382	770.439	0.805
303.15	0.4147	771.883	0.795
303.15	0.5057	773.952	0.782
303.15	0.5845	776.223	0.77
303.15	0.698	780.452	0.752
303.15	0.7945	785.434	0.734
303.15	0.8497	789.093	0.721
303.15	0.8963	792.717	0.71
303.15	0.953	797.973	0.695
303.15	1	803.155	0.679
308.15	0	763.52	0.856
308.15	0.0899	763.863	0.845
308.15	0.1048	763.961	0.843
308.15	0.1516	764.36	0.837
308.15	0.2017	764.874	0.831
308.15	0.2494	765.462	0.825
308.15	0.3382	766.796	0.813
308.15	0.4147	768.201	0.803
308.15	0.5057	770.24	0.79
308.15	0.5845	772.472	0.779
308.15	0.698	776.653	0.76
308.15	0.7945	781.597	0.742
308.15	0.8497	785.172	0.73
308.15	0.8963	788.76	0.719
308.15	0.953	794.054	0.703
308.15	1	799.249	0.688

System: butan-1-ol + 2,6,10,15,19,23-hexamethyltetracosane; phases: Liquid
Fixed: Pressure, kPa = 101
Property: Viscosity, Pa*s (Liquid); method: Capillary tube (Ostwald; Ubbelohde) method
Temperature, K	Mole fraction of butan-1-ol	Viscosity, Pa*s	uncertainty
298.15	0	0.028257	0.000184
298.15	0.0451	0.026655	0.000171
298.15	0.1077	0.024689	0.000156
298.15	0.1346	0.023925	0.00015
298.15	0.1888	0.022478	0.000139
298.15	0.2231	0.021622	0.000133
298.15	0.3059	0.019666	0.000118
298.15	0.4052	0.017395	0.000102
298.15	0.5039	0.015106	8.7e-05
298.15	0.6118	0.012474	7.1e-05
298.15	0.7056	0.010056	5.7e-05
298.15	0.7998	0.007573	4.4e-05
298.15	0.8546	0.006128	3.6e-05
298.15	0.9035	0.004873	3e-05
298.15	0.9669	0.003325	2.1e-05
298.15	1	0.002573	1.6e-05
303.15	0	0.022087	0.000145
303.15	0.0451	0.020877	0.000135
303.15	0.1077	0.019417	0.000124
303.15	0.1346	0.018855	0.000119
303.15	0.1888	0.01778	0.000111
303.15	0.2231	0.017138	0.000106
303.15	0.3059	0.015643	9.5e-05
303.15	0.4052	0.0139	8.3e-05
303.15	0.5039	0.012136	7.1e-05
303.15	0.6118	0.010119	5.9e-05
303.15	0.7056	0.008276	4.8e-05
303.15	0.7998	0.006348	3.8e-05
303.15	0.8546	0.0052	3.2e-05
303.15	0.9035	0.004186	2.6e-05
303.15	0.9669	0.002912	1.8e-05
303.15	1	0.002275	1.4e-05
308.15	0	0.017774	0.000117
308.15	0.0451	0.016806	0.00011
308.15	0.1077	0.01562	0.000101
308.15	0.1346	0.015162	9.7e-05
308.15	0.1888	0.014294	9e-05
308.15	0.2231	0.013789	8.7e-05
308.15	0.3059	0.012617	7.8e-05
308.15	0.4052	0.011385	6.9e-05
308.15	0.5039	0.009903	5.9e-05
308.15	0.6118	0.008307	4.9e-05
308.15	0.7056	0.006824	4.1e-05
308.15	0.7998	0.005267	3.2e-05
308.15	0.8546	0.004344	2.7e-05
308.15	0.9035	0.003527	2.2e-05
308.15	0.9669	0.002497	1.6e-05
308.15	1	0.001981	1.3e-05

System: butan-1-ol + 2,6,10,15,19,23-hexamethyltetracosane; phases: Liquid
Fixed: Pressure, kPa = 101
Property: Speed of sound, m/s (Liquid); method: Sing-around technique in a fixed-path interferometer
Temperature, K	Mole fraction of butan-1-ol	Speed of sound, m/s	uncertainty
298.15	0	1381.9	1.2
298.15	0.0451	1379.5	1.2
298.15	0.1077	1376.1	1.2
298.15	0.1346	1374.8	1.2
298.15	0.1888	1371.7	1.1
298.15	0.2231	1369.7	1.1
298.15	0.3059	1365.1	1.1
298.15	0.4052	1358.8	1.1
298.15	0.5039	1350.9	1
298.15	0.6118	1340.5	1
298.15	0.7056	1328.8	0.9
298.15	0.7998	1312.5	0.9
298.15	0.8546	1299.5	0.9
298.15	0.9035	1284.3	0.9
298.15	0.9669	1258.5	0.8
298.15	1	1240.5	0.8
303.15	0	1364.1	1.2
303.15	0.0451	1361.7	1.2
303.15	0.1077	1358.3	1.2
303.15	0.1346	1356.5	1.2
303.15	0.1888	1353.8	1.1
303.15	0.2231	1351.8	1.1
303.15	0.3059	1347.1	1.1
303.15	0.4052	1340.8	1
303.15	0.5039	1332.6	1
303.15	0.6118	1322.5	1
303.15	0.7056	1310.9	0.9
303.15	0.7998	1294.8	0.9
303.15	0.8546	1281.8	0.9
303.15	0.9035	1266.8	0.9
303.15	0.9669	1241.4	0.8
303.15	1	1226.5	0.8
308.15	0	1346.5	1.2
308.15	0.0451	1343	1.2
308.15	0.1077	1340.2	1.2
308.15	0.1346	1338.9	1.2
308.15	0.1888	1335.9	1.1
308.15	0.2231	1333.9	1.1
308.15	0.3059	1329.3	1.1
308.15	0.4052	1322.8	1
308.15	0.5039	1314.8	1
308.15	0.6118	1304.6	1
308.15	0.7056	1293.1	0.9
308.15	0.7998	1277.1	0.9
308.15	0.8546	1264.2	0.9
308.15	0.9035	1249.1	0.8
308.15	0.9669	1224.4	0.8
308.15	1	1209.8	0.8

System: butan-1-ol + 2,6,10,15,19,23-hexamethyltetracosane; phases: Liquid
Fixed: Pressure, kPa = 101
Property: Mass density, kg/m3 (Liquid); method: Vibrating tube method
Temperature, K	Mole fraction of butan-1-ol	Mass density, kg/m3	uncertainty
298.15	0	805.122	0.235
298.15	0.0451	804.881	0.23
298.15	0.1077	804.649	0.222
298.15	0.1346	804.573	0.219
298.15	0.1888	804.447	0.212
298.15	0.2231	804.377	0.208
298.15	0.3059	804.273	0.199
298.15	0.4052	804.097	0.189
298.15	0.5039	803.949	0.179
298.15	0.6118	803.817	0.169
298.15	0.7056	803.732	0.161
298.15	0.7998	803.836	0.153
298.15	0.8546	803.989	0.149
298.15	0.9035	804.336	0.146
298.15	0.9669	805.126	0.141
298.15	1	805.907	0.139
303.15	0	801.912	0.236
303.15	0.0451	801.658	0.23
303.15	0.1077	801.402	0.222
303.15	0.1346	801.318	0.219
303.15	0.1888	801.16	0.213
303.15	0.2231	801.07	0.209
303.15	0.3059	800.898	0.2
303.15	0.4052	800.714	0.189
303.15	0.5039	800.528	0.18
303.15	0.6118	800.347	0.17
303.15	0.7056	800.179	0.162
303.15	0.7998	800.194	0.154
303.15	0.8546	800.335	0.15
303.15	0.9035	800.708	0.147
303.15	0.9669	801.896	0.142
303.15	1	803.155	0.14
308.15	0	798.709	0.236
308.15	0.0451	798.397	0.23
308.15	0.1077	798.084	0.223
308.15	0.1346	797.991	0.219
308.15	0.1888	797.826	0.213
308.15	0.2231	797.731	0.209
308.15	0.3059	797.543	0.2
308.15	0.4052	797.32	0.19
308.15	0.5039	797.098	0.18
308.15	0.6118	796.857	0.171
308.15	0.7056	796.621	0.163
308.15	0.7998	796.558	0.155
308.15	0.8546	796.66	0.151
308.15	0.9035	796.979	0.148
308.15	0.9669	798.06	0.143
308.15	1	799.249	0.141
