Measured thermophysical data. Solubilities of 2,2'-Bipyridine and 4,4'-Dimethyl-2,2'-bipyridine in Supercritical Carbon Dioxide
Source: J. Chem. Eng. Data, 2007, 10.1021/je700269m
Compound 1: carbon dioxide, CO2, InChI=1S/CO2/c2-1-3, purity 99.99%
Compound 2: 2,2'-bipyridine, C10H8N2, InChI=1S/C10H8N2/c1-3-7-11-9(5-1)10-6-2-4-8-12-10/h1-8H, purity 99.5%
Compound 3: 2,2'-bipyridine, 4,4'-dimethyl-, C12H12N2, InChI=1S/C12H12N2/c1-9-3-5-13-11(7-9)12-8-10(2)4-6-14-12/h3-8H,1-2H3, purity 99%

System: carbon dioxide + 2,2'-bipyridine; phases: Fluid (supercritical or subcritical phases), Crystal
Property: Vapor or sublimation pressure, kPa (Fluid (supercritical or subcritical phases)); method: Closed cell (Static) method
Temperature, K	Mole fraction of 2,2'-bipyridine	Vapor or sublimation pressure, kPa	uncertainty
313	0.00107	8100	1000
313	0.00406	8900	1000
313	0.00613	9200	1000
313	0.00843	9600	1000
313	0.0123	10200	1000
318	0.00116	8700	1000
318	0.00485	9400	1000
318	0.00703	9700	1000
318	0.0093	10100	1000
318	0.0135	10900	1000
323	0.0014	9100	1000
323	0.00546	9800	1000
323	0.00769	10100	1000
323	0.0102	10500	1000
323	0.0148	11400	1000

System: carbon dioxide + 2,2'-bipyridine, 4,4'-dimethyl-; phases: Fluid (supercritical or subcritical phases), Crystal
Property: Vapor or sublimation pressure, kPa (Fluid (supercritical or subcritical phases)); method: Closed cell (Static) method
Temperature, K	Mole fraction of 2,2'-bipyridine, 4,4'-dimethyl-	Vapor or sublimation pressure, kPa	uncertainty
308	0.00547	9600	1000
308	0.00672	11900	1000
308	0.00842	14500	1000
308	0.0104	16500	1000
308	0.0115	23900	1000
313	0.00509	11200	1000
313	0.0068	13400	1000
313	0.00869	15500	1000
313	0.0106	17500	1000
313	0.0118	25000	1000
318	0.0053	12000	1000
318	0.00707	14100	1000
318	0.00896	16000	1000
318	0.0105	18900	1000
318	0.0118	25900	1000
