Measured thermophysical data. Densities, Refractive Indices, and Viscosities of the Ionic Liquids 1-Methyl-3-octylimidazolium Tetrafluoroborate and 1-Methyl-3-butylimidazolium Perchlorate and Their Binary Mixtures with Ethanol at Several Temperatures
Source: J. Chem. Eng. Data, 2008, 10.1021/je700521t
Compound 1: ethanol, C2H6O, InChI=1S/C2H6O/c1-2-3/h3H,2H2,1H3
Compound 2: 1-methyl-3-octylimidazolium tetrafluoroborate, C12H23BF4N2, InChI=1S/C12H23N2.BF4/c1-3-4-5-6-7-8-9-14-11-10-13(2)12-14;2-1(3,4)5/h10-12H,3-9H2,1-2H3;/q+1;-1
Compound 3: 1-butyl-3-methylimidazolium perchlorate, C8H15ClN2O4, InChI=1S/C8H15N2.ClHO4/c1-3-4-5-10-7-6-9(2)8-10;2-1(3,4)5/h6-8H,3-5H2,1-2H3;(H,2,3,4,5)/q+1;/p-1

System: 1-methyl-3-octylimidazolium tetrafluoroborate; phases: Liquid
Fixed: Pressure, kPa = 101.325
Property: Viscosity, Pa*s (Liquid); method: Falling or rolling sphere viscometry
Temperature, K	Viscosity, Pa*s	uncertainty
283.15	1.03698	0.10704
288.15	0.71875	0.06586
293.15	0.4629	0.0358
298.15	0.33417	0.02205
303.15	0.24618	0.01373
308.15	0.19195	0.0093
313.15	0.14792	0.00669
318.15	0.11638	0.00527
323.15	0.09195	0.00453
328.15	0.07479	0.00422
333.15	0.06095	0.00409
338.15	0.05088	0.00405
343.15	0.04206	0.00404
348.15	0.03578	0.00403
353.15	0.03011	0.00402
358.15	0.02587	0.00402
363.15	0.02157	0.00401

System: 1-methyl-3-octylimidazolium tetrafluoroborate; phases: Liquid
Fixed: Pressure, kPa = 101.325
Property: Refractive index (Na D-line) (Liquid); method: ABBE:UFactor:2
Temperature, K	Refractive index (Na D-line)	uncertainty
283.15	1.4363	0.0008
288.15	1.435	0.0008
293.15	1.4336	0.0008
298.15	1.4322	0.0008
303.15	1.431	0.0008
308.15	1.4288	0.0008
313.15	1.4271	0.0008
318.15	1.426	0.0008
323.15	1.425	0.0008
328.15	1.4235	0.0008
333.15	1.4222	0.0008
338.15	1.421	0.0008
343.15	1.4195	0.0008
348.15	1.418	0.0008
353.15	1.4167	0.0008
358.15	1.4155	0.0008
363.15	1.4142	0.0008

System: 1-methyl-3-octylimidazolium tetrafluoroborate; phases: Liquid
Fixed: Pressure, kPa = 101.325
Property: Mass density, kg/m3 (Liquid); method: VIBTUB:UFactor:8
Temperature, K	Mass density, kg/m3	uncertainty
283.15	1124.9	1.7
288.15	1121.4	1.7
293.15	1117.9	1.6
298.15	1114.4	1.6
303.15	1110.9	1.6
308.15	1107.5	1.6
313.15	1104.1	1.6
318.15	1100.7	1.5
323.15	1097.3	1.5
328.15	1093.9	1.5
333.15	1090.6	1.5
338.15	1087.2	1.5
343.15	1083.9	1.5
348.15	1080.5	1.5
353.15	1077.2	1.4
358.15	1073.8	1.4
363.15	1070.5	1.4

System: 1-butyl-3-methylimidazolium perchlorate; phases: Liquid
Fixed: Pressure, kPa = 101.325
Property: Viscosity, Pa*s (Liquid); method: Falling or rolling sphere viscometry
Temperature, K	Viscosity, Pa*s	uncertainty
283.15	0.46636	0.03732
288.15	0.3308	0.023
293.15	0.24156	0.01447
298.15	0.18026	0.00954
303.15	0.13785	0.00696
308.15	0.10728	0.00553
313.15	0.08575	0.00481
318.15	0.06952	0.00445
323.15	0.05722	0.00428
328.15	0.04778	0.0042
333.15	0.0399	0.0041
338.15	0.03414	0.0041
343.15	0.02949	0.00408
348.15	0.02574	0.00406
353.15	0.02264	0.00404

System: 1-butyl-3-methylimidazolium perchlorate; phases: Liquid
Fixed: Pressure, kPa = 101.325
Property: Refractive index (Na D-line) (Liquid); method: ABBE:UFactor:2
Temperature, K	Refractive index (Na D-line)	uncertainty
283.15	1.4763	0.0012
288.15	1.4751	0.0012
293.15	1.474	0.0012
298.15	1.4725	0.0012
303.15	1.4712	0.0012
308.15	1.4696	0.0012
313.15	1.4685	0.0012
318.15	1.4667	0.0012
323.15	1.4655	0.0012
328.15	1.4642	0.0012
333.15	1.4627	0.0012
338.15	1.4615	0.0012
343.15	1.4602	0.0012
348.15	1.459	0.0012
353.15	1.4577	0.0012

System: 1-butyl-3-methylimidazolium perchlorate; phases: Liquid
Fixed: Pressure, kPa = 101.325
Property: Mass density, kg/m3 (Liquid); method: Vibrating tube method
Temperature, K	Mass density, kg/m3	uncertainty
283.15	1263.5	8.7
288.15	1259.9	8.6
293.15	1256.2	8.6
298.15	1252.7	8.5
303.15	1249.2	8.5
308.15	1245.7	8.5
313.15	1242.2	8.4
318.15	1238.8	8.4
323.15	1235.3	8.3
328.15	1231.9	8.3
333.15	1228.4	8.2
338.15	1225	8.2
343.15	1221.6	8.1
348.15	1218.2	8.1
353.15	1214.8	8

System: ethanol + 1-methyl-3-octylimidazolium tetrafluoroborate; phases: Liquid
Fixed: Pressure, kPa = 101
Property: Viscosity, Pa*s (Liquid); method: SPHERE:UFactor:2
Mole fraction of ethanol	Temperature, K	Viscosity, Pa*s	uncertainty
0.081	283.15	0.71847	0.12929
0.081	288.15	0.50718	0.07952
0.081	293.15	0.36659	0.04949
0.081	298.15	0.26893	0.03073
0.081	303.15	0.20335	0.01942
0.081	308.15	0.15629	0.01218
0.081	313.15	0.12327	0.00809
0.081	318.15	0.09769	0.00581
0.081	323.15	0.07943	0.0047
0.081	328.15	0.06503	0.00421
0.081	333.15	0.05415	0.00406
0.081	338.15	0.04546	0.00409
0.081	343.15	0.03903	0.00406
0.161	283.15	0.49273	0.07626
0.161	288.15	0.35489	0.04714
0.161	293.15	0.26154	0.02939
0.161	298.15	0.19474	0.01804
0.161	303.15	0.15036	0.01133
0.161	308.15	0.11736	0.0075
0.161	313.15	0.0932	0.00549
0.161	318.15	0.07537	0.00453
0.161	323.15	0.06166	0.00415
0.161	328.15	0.05112	0.00405
0.161	333.15	0.04299	0.00408
0.161	338.15	0.03647	0.00405
0.161	343.15	0.03151	0.00404
0.315	283.15	0.16749	0.01461
0.315	288.15	0.12769	0.00855
0.315	293.15	0.09892	0.00591
0.315	298.15	0.07863	0.00466
0.315	303.15	0.06333	0.00418
0.315	308.15	0.05159	0.00405
0.315	313.15	0.04248	0.00407
0.315	318.15	0.03584	0.00405
0.315	323.15	0.03038	0.00404
0.315	328.15	0.02604	0.00403
0.315	333.15	0.02254	0.00402
0.315	338.15	0.01973	0.00401
0.315	343.15	0.01742	0.00401
0.511	283.15	0.05157	0.00415
0.511	288.15	0.04143	0.00407
0.511	293.15	0.03528	0.00405
0.511	298.15	0.02887	0.00403
0.511	303.15	0.02394	0.00402
0.511	308.15	0.02013	0.00402
0.511	313.15	0.01709	0.00401
0.511	318.15	0.01467	0.00401
0.511	323.15	0.01272	0.00401
0.511	328.15	0.0111	0.004
0.511	333.15	0.00977	0.004
0.511	338.15	0.00865	0.004
0.511	343.15	0.00774	0.004
0.612	283.15	0.02712	0.00404
0.612	288.15	0.02205	0.00402
0.612	293.15	0.01824	0.00401
0.612	298.15	0.01535	0.00401
0.612	303.15	0.01298	0.00401
0.612	308.15	0.01116	0.004
0.612	313.15	0.00961	0.004
0.612	318.15	0.00839	0.004
0.612	323.15	0.00739	0.004
0.612	328.15	0.00655	0.004
0.612	333.15	0.0058	0.004
0.612	338.15	0.00518	0.004
0.612	343.15	0.0047	0.004
0.753	283.15	0.01245	0.00401
0.753	288.15	0.01036	0.004
0.753	293.15	0.00879	0.004
0.753	298.15	0.00753	0.004
0.753	303.15	0.00651	0.004
0.753	308.15	0.00566	0.004
0.753	313.15	0.00496	0.004
0.753	318.15	0.00438	0.004
0.753	323.15	0.00389	0.004
0.753	328.15	0.0035	0.004
0.753	333.15	0.00317	0.004
0.753	338.15	0.00289	0.004
0.753	343.15	0.00265	0.004

System: ethanol + 1-methyl-3-octylimidazolium tetrafluoroborate; phases: Liquid
Fixed: Pressure, kPa = 101
Property: Refractive index (Na D-line) (Liquid); method: Standard Abbe refractometry
Mole fraction of ethanol	Temperature, K	Refractive index (Na D-line)	uncertainty
0.081	283.15	1.4335	0.0006
0.081	288.15	1.4323	0.0006
0.081	293.15	1.431	0.0006
0.081	298.15	1.4295	0.0006
0.081	303.15	1.4284	0.0006
0.081	308.15	1.4268	0.0006
0.081	313.15	1.4255	0.0006
0.081	318.15	1.424	0.0006
0.081	323.15	1.4225	0.0006
0.081	328.15	1.4213	0.0006
0.081	333.15	1.4205	0.0006
0.081	338.15	1.419	0.0006
0.081	343.15	1.4175	0.0006
0.161	283.15	1.4315	0.0006
0.161	288.15	1.4305	0.0006
0.161	293.15	1.4292	0.0006
0.161	298.15	1.428	0.0006
0.161	303.15	1.427	0.0006
0.161	308.15	1.4255	0.0006
0.161	313.15	1.424	0.0006
0.161	318.15	1.4225	0.0006
0.161	323.15	1.421	0.0006
0.161	328.15	1.42	0.0006
0.161	333.15	1.4188	0.0006
0.161	338.15	1.4173	0.0006
0.161	343.15	1.416	0.0006
0.315	283.15	1.43	0.0006
0.315	288.15	1.4288	0.0006
0.315	293.15	1.4273	0.0006
0.315	298.15	1.426	0.0006
0.315	303.15	1.4245	0.0006
0.315	308.15	1.423	0.0006
0.315	313.15	1.4219	0.0006
0.315	318.15	1.4205	0.0006
0.315	323.15	1.419	0.0006
0.315	328.15	1.4178	0.0006
0.315	333.15	1.416	0.0006
0.315	338.15	1.4145	0.0006
0.315	343.15	1.4132	0.0006
0.511	283.15	1.4265	0.0006
0.511	288.15	1.425	0.0006
0.511	293.15	1.4237	0.0006
0.511	298.15	1.423	0.0006
0.511	303.15	1.4208	0.0006
0.511	308.15	1.4195	0.0006
0.511	313.15	1.418	0.0006
0.511	318.15	1.4168	0.0006
0.511	323.15	1.415	0.0006
0.511	328.15	1.4137	0.0006
0.511	333.15	1.4125	0.0006
0.511	338.15	1.4118	0.0006
0.511	343.15	1.411	0.0006
0.612	283.15	1.4225	0.0006
0.612	288.15	1.4212	0.0006
0.612	293.15	1.42	0.0006
0.612	298.15	1.4185	0.0006
0.612	303.15	1.4172	0.0006
0.612	308.15	1.416	0.0006
0.612	313.15	1.4143	0.0006
0.612	318.15	1.413	0.0006
0.612	323.15	1.4115	0.0006
0.612	328.15	1.41	0.0006
0.612	333.15	1.4085	0.0006
0.612	338.15	1.4078	0.0006
0.612	343.15	1.4065	0.0006
0.753	283.15	1.4132	0.0006
0.753	288.15	1.4125	0.0006
0.753	293.15	1.411	0.0006
0.753	298.15	1.4098	0.0006
0.753	303.15	1.4085	0.0006
0.753	308.15	1.4072	0.0006
0.753	313.15	1.407	0.0006
0.753	318.15	1.4065	0.0006
0.753	323.15	1.4055	0.0006
0.753	328.15	1.4045	0.0006
0.753	333.15	1.404	0.0006
0.753	338.15	1.4033	0.0006
0.753	343.15	1.402	0.0006

System: ethanol + 1-methyl-3-octylimidazolium tetrafluoroborate; phases: Liquid
Fixed: Pressure, kPa = 101
Property: Mass density, kg/m3 (Liquid); method: VIBTUB:UFactor:8
Mole fraction of ethanol	Temperature, K	Mass density, kg/m3	uncertainty
0.081	283.15	1122.9	1.6
0.081	288.15	1119.4	1.6
0.081	293.15	1115.9	1.5
0.081	298.15	1112.4	1.5
0.081	303.15	1108.9	1.5
0.081	308.15	1105.5	1.5
0.081	313.15	1102.2	1.5
0.081	318.15	1098.8	1.5
0.081	323.15	1095.4	1.4
0.081	328.15	1092.1	1.4
0.081	333.15	1088.7	1.4
0.081	338.15	1085.4	1.4
0.081	343.15	1082.1	1.4
0.161	283.15	1118	1.5
0.161	288.15	1114.5	1.5
0.161	293.15	1111	1.4
0.161	298.15	1107.5	1.4
0.161	303.15	1104	1.4
0.161	308.15	1100.7	1.4
0.161	313.15	1097.3	1.4
0.161	318.15	1093.9	1.4
0.161	323.15	1090.5	1.3
0.161	328.15	1087.1	1.3
0.161	333.15	1083.7	1.3
0.161	338.15	1080.3	1.3
0.161	343.15	1077	1.3
0.315	283.15	1098.7	1.2
0.315	288.15	1095.2	1.2
0.315	293.15	1091.8	1.2
0.315	298.15	1088.3	1.2
0.315	303.15	1084.8	1.2
0.315	308.15	1081.3	1.2
0.315	313.15	1077.8	1.2
0.315	318.15	1074.3	1.1
0.315	323.15	1070.9	1.1
0.315	328.15	1067.4	1.1
0.315	333.15	1064	1.1
0.315	338.15	1060.5	1.1
0.315	343.15	1057.1	1.1
0.511	283.15	1064.7	1
0.511	288.15	1061.3	0.9
0.511	293.15	1057.8	0.9
0.511	298.15	1054.2	0.9
0.511	303.15	1050.6	0.9
0.511	308.15	1046.9	0.9
0.511	313.15	1043.2	0.9
0.511	318.15	1039.3	0.9
0.511	323.15	1034.9	0.8
0.511	328.15	1030.3	0.8
0.511	333.15	1028.7	0.8
0.511	338.15	1025.2	0.8
0.511	343.15	1021.3	0.8
0.612	283.15	1039.7	0.8
0.612	288.15	1036	0.8
0.612	293.15	1032.2	0.8
0.612	298.15	1028.4	0.8
0.612	303.15	1024.7	0.7
0.612	308.15	1020.9	0.7
0.612	313.15	1017.2	0.7
0.612	318.15	1013.4	0.7
0.612	323.15	1009.7	0.7
0.612	328.15	1005.9	0.7
0.612	333.15	1002.2	0.7
0.612	338.15	998.5	0.7
0.612	343.15	994.7	0.7
0.753	283.15	991.3	0.6
0.753	288.15	987.5	0.6
0.753	293.15	983.6	0.6
0.753	298.15	979.7	0.6
0.753	303.15	975.7	0.6
0.753	308.15	971.8	0.6
0.753	313.15	968	0.6
0.753	318.15	964.1	0.7
0.753	323.15	960.2	0.7
0.753	328.15	956.4	0.7
0.753	333.15	952.5	0.7
0.753	338.15	948.6	0.7
0.753	343.15	944.7	0.7

System: ethanol + 1-butyl-3-methylimidazolium perchlorate; phases: Liquid
Fixed: Pressure, kPa = 101
Property: Viscosity, Pa*s (Liquid); method: SPHERE:UFactor:2
Mole fraction of ethanol	Temperature, K	Viscosity, Pa*s	uncertainty
0.1	283.15	0.25552	0.02878
0.1	288.15	0.18852	0.01753
0.1	293.15	0.1422	0.01064
0.1	298.15	0.10999	0.00721
0.1	303.15	0.08643	0.00539
0.1	308.15	0.06974	0.00458
0.1	313.15	0.05698	0.00426
0.1	318.15	0.04698	0.00421
0.1	323.15	0.03945	0.00415
0.1	328.15	0.03369	0.00411
0.1	333.15	0.02886	0.00408
0.1	338.15	0.02494	0.00406
0.1	343.15	0.02169	0.00404
0.165	283.15	0.18183	0.01643
0.165	288.15	0.13686	0.00994
0.165	293.15	0.10592	0.0068
0.165	298.15	0.08335	0.00517
0.165	303.15	0.06648	0.00445
0.165	308.15	0.05425	0.0042
0.165	313.15	0.04476	0.00418
0.165	318.15	0.0372	0.00412
0.165	323.15	0.03156	0.00409
0.165	328.15	0.02702	0.00406
0.165	333.15	0.0235	0.00405
0.165	338.15	0.02045	0.00404
0.165	343.15	0.01812	0.00403
0.291	283.15	0.08742	0.00546
0.291	288.15	0.06804	0.00445
0.291	293.15	0.0549	0.00418
0.291	298.15	0.04484	0.00416
0.291	303.15	0.03675	0.0041
0.291	308.15	0.03063	0.00407
0.291	313.15	0.02613	0.00405
0.291	318.15	0.02214	0.00404
0.291	323.15	0.01951	0.00403
0.291	328.15	0.01716	0.00402
0.291	333.15	0.01543	0.00402
0.291	338.15	0.01379	0.00401
0.401	283.15	0.05026	0.00413
0.401	288.15	0.04089	0.00412
0.401	293.15	0.03349	0.00408
0.401	298.15	0.02792	0.00405
0.401	303.15	0.02338	0.00404
0.401	308.15	0.02006	0.00403
0.401	313.15	0.01738	0.00402
0.479	283.15	0.03548	0.00408
0.479	288.15	0.02917	0.00405
0.479	293.15	0.02441	0.00404
0.479	298.15	0.02067	0.00403
0.479	303.15	0.01756	0.00402
0.592	293.15	0.01298	0.00401
0.592	298.15	0.01113	0.00401
0.592	303.15	0.0096	0.004
0.592	308.15	0.00848	0.004
0.592	313.15	0.00743	0.004
0.637	293.15	0.01166	0.00401
0.637	298.15	0.01006	0.004
0.637	303.15	0.00871	0.004
0.637	308.15	0.00752	0.004
0.637	313.15	0.00666	0.004
0.79	293.15	0.00538	0.004
0.79	298.15	0.00462	0.004
0.79	303.15	0.00403	0.004
0.79	308.15	0.00374	0.004
0.79	313.15	0.00346	0.004
0.86	293.15	0.00496	0.004
0.86	298.15	0.00422	0.004
0.86	303.15	0.00359	0.004
0.86	308.15	0.00316	0.004
0.86	313.15	0.0028	0.004

System: ethanol + 1-butyl-3-methylimidazolium perchlorate; phases: Liquid
Fixed: Pressure, kPa = 101
Property: Refractive index (Na D-line) (Liquid); method: Standard Abbe refractometry
Mole fraction of ethanol	Temperature, K	Refractive index (Na D-line)	uncertainty
0.1	283.15	1.475	0.001
0.1	288.15	1.4738	0.001
0.1	293.15	1.4725	0.001
0.1	298.15	1.471	0.001
0.1	303.15	1.4697	0.001
0.1	308.15	1.4685	0.001
0.1	313.15	1.467	0.0011
0.1	318.15	1.4655	0.001
0.1	323.15	1.4645	0.001
0.1	328.15	1.463	0.0011
0.1	333.15	1.4615	0.001
0.1	338.15	1.4603	0.001
0.1	343.15	1.459	0.001
0.165	283.15	1.4725	0.001
0.165	288.15	1.4715	0.001
0.165	293.15	1.47	0.001
0.165	298.15	1.4687	0.001
0.165	303.15	1.4673	0.001
0.165	308.15	1.466	0.001
0.165	313.15	1.4648	0.001
0.165	318.15	1.4637	0.001
0.165	323.15	1.462	0.001
0.165	328.15	1.4608	0.001
0.165	333.15	1.4595	0.001
0.165	338.15	1.458	0.001
0.165	343.15	1.4565	0.001
0.291	283.15	1.468	0.0009
0.291	288.15	1.4667	0.0009
0.291	293.15	1.4655	0.0009
0.291	298.15	1.464	0.0009
0.291	303.15	1.4627	0.0009
0.291	308.15	1.4615	0.0009
0.291	313.15	1.46	0.0009
0.291	318.15	1.4587	0.0009
0.291	323.15	1.457	0.0009
0.291	328.15	1.456	0.0009
0.291	333.15	1.4545	0.0009
0.291	338.15	1.4532	0.0009
0.291	343.15	1.4518	0.0009
0.401	283.15	1.4625	0.0008
0.401	288.15	1.4612	0.0008
0.401	293.15	1.4595	0.0008
0.401	298.15	1.458	0.0008
0.401	303.15	1.4568	0.0008
0.401	308.15	1.4555	0.0008
0.401	313.15	1.454	0.0008
0.479	283.15	1.459	0.0008
0.479	288.15	1.4575	0.0008
0.479	293.15	1.4563	0.0008
0.479	298.15	1.455	0.0008
0.479	303.15	1.4535	0.0008

System: ethanol + 1-butyl-3-methylimidazolium perchlorate; phases: Liquid
Fixed: Pressure, kPa = 101
Property: Mass density, kg/m3 (Liquid); method: Vibrating tube method
Mole fraction of ethanol	Temperature, K	Mass density, kg/m3	uncertainty
0.1	283.15	1249.3	7.2
0.1	288.15	1245.7	7.1
0.1	293.15	1242.1	7.1
0.1	298.15	1238.6	7
0.1	303.15	1235.1	7
0.1	308.15	1231.7	7
0.1	313.15	1228.2	6.9
0.1	318.15	1224.7	6.9
0.1	323.15	1221.3	6.8
0.1	328.15	1217.8	6.8
0.1	333.15	1214.4	6.8
0.1	338.15	1211	6.7
0.1	343.15	1207.5	6.7
0.165	283.15	1239.4	6.2
0.165	288.15	1235.7	6.2
0.165	293.15	1231.9	6.2
0.165	298.15	1228	6.1
0.165	303.15	1224.1	6.1
0.165	308.15	1220.3	6.1
0.165	313.15	1216.2	6
0.165	318.15	1211.2	6
0.165	323.15	1207.2	5.9
0.165	328.15	1201	5.9
0.165	333.15	1198.7	5.8
0.165	338.15	1195.4	5.8
0.165	343.15	1190.3	5.8
0.291	283.15	1216.6	4.7
0.291	288.15	1212.8	4.6
0.291	293.15	1208.9	4.6
0.291	298.15	1205	4.6
0.291	303.15	1199.8	4.5
0.291	308.15	1195.8	4.5
0.291	313.15	1193.1	4.5
0.291	318.15	1188.9	4.5
0.291	323.15	1184.7	4.4
0.291	328.15	1180.1	4.4
0.291	333.15	1175.2	4.4
0.291	338.15	1169.3	4.3
0.291	343.15	1159.4	4.2
0.401	283.15	1192	3.5
0.401	288.15	1188.3	3.5
0.401	293.15	1184.6	3.5
0.401	298.15	1180.9	3.4
0.401	303.15	1177.2	3.4
0.401	308.15	1173.6	3.4
0.401	313.15	1169.9	3.4
0.479	283.15	1173.6	2.8
0.479	288.15	1169.8	2.8
0.479	293.15	1166.1	2.8
0.479	298.15	1162.2	2.7
0.479	303.15	1158.3	2.7
0.592	293.15	1129.6	1.9
0.592	298.15	1125.8	1.9
0.592	303.15	1122	1.9
0.592	308.15	1117.5	1.9
0.592	313.15	1114.8	1.8
0.637	293.15	1110.4	1.6
0.637	298.15	1104.6	1.6
0.637	303.15	1102.7	1.6
0.637	308.15	1100.6	1.6
0.637	313.15	1096.7	1.6
0.79	293.15	1022.6	0.8
0.79	298.15	1018.7	0.8
0.79	303.15	1014.8	0.8
0.79	308.15	1011	1
0.79	313.15	1007	1
0.86	293.15	960.5	0.5
0.86	298.15	956.7	0.5
0.86	303.15	952.7	0.5
0.86	308.15	948.7	0.5
0.86	313.15	944.6	0.5
