Measured thermophysical data. Ternary Liquid-Liquid Equilibria for Six Systems Containing Ethylacetate + Ethanol or Acetic Acid + an Imidazolium-Based Ionic Liquid with a Hydrogen Sulfate Anion at 313.2 K
Source: J. Chem. Eng. Data, 2007, 10.1021/je700342k
Compound 1: 1-methylimidazolium hydrogen sulfate, C4H8N2O4S, InChI=1S/C4H6N2.H2O4S/c1-6-3-2-5-4-6;1-5(2,3)4/h2-4H,1H3;(H2,1,2,3,4)
Compound 2: 1-ethyl-3-methylimidazolium hydrogen sulfate, C6H12N2O4S, InChI=1S/C6H11N2.H2O4S/c1-3-8-5-4-7(2)6-8;1-5(2,3)4/h4-6H,3H2,1-2H3;(H2,1,2,3,4)/q+1;/p-1
Compound 3: 1-butyl-3-methylimidazolium hydrogen sulfate, C8H16N2O4S, InChI=1S/C8H15N2.H2O4S/c1-3-4-5-10-7-6-9(2)8-10;1-5(2,3)4/h6-8H,3-5H2,1-2H3;(H2,1,2,3,4)/q+1;/p-1
Compound 4: ethyl acetate, C4H8O2, InChI=1S/C4H8O2/c1-3-6-4(2)5/h3H2,1-2H3
Compound 5: acetic acid, C2H4O2, InChI=1S/C2H4O2/c1-2(3)4/h1H3,(H,3,4)
Compound 6: ethanol, C2H6O, InChI=1S/C2H6O/c1-2-3/h3H,2H2,1H3

System: ethanol + ethyl acetate + 1-methylimidazolium hydrogen sulfate; phases: Liquid mixture 1, Liquid mixture 2
Fixed: Pressure, kPa = 101
Fixed: Temperature, K = 313
Property: Mass density, kg/m3 (Liquid mixture 1); method: Vibrating tube method
Mass fraction of ethyl acetate	Mass density, kg/m3	uncertainty
0.204	890.92	6.29
0.265	853.06	5.78
0.282	848.03	2.65
0.317	840.16	2.13
0.321	839.91	2.13
0.34	837.38	1.72
0.363	834.1	1.33
0.417	830.46	1.16
0.451	829.24	1.03
0.502	829.4	1.04
0.54	831.09	1.19
0.572	833.73	1.18
0.646	837.53	1.27
0.651	839.14	1.26
0.741	846.27	1.62
0.749	847.26	1.63
0.762	848.92	1.63
0.818	854.54	1.48
0.833	856.7	1.46
0.85	857.93	1.55
0.896	863.89	1.62
0.913	865.8	1.62
0.938	869.14	1.6
0.998	876.39	1.05

System: ethanol + ethyl acetate + 1-methylimidazolium hydrogen sulfate; phases: Liquid mixture 2, Liquid mixture 1
Fixed: Pressure, kPa = 101
Fixed: Temperature, K = 313
Property: Mass density, kg/m3 (Liquid mixture 2); method: Vibrating tube method
Mass fraction of ethyl acetate	Mass density, kg/m3	uncertainty
0.01	1462.94	84.37
0.014	1423.26	70.45
0.016	1402.56	59.81
0.019	1402.96	78.15
0.022	1361.7	60.78
0.025	1345.78	67.71
0.029	1324.82	73.92
0.031	1299.52	74.43
0.034	1317.09	54.83
0.041	1240.11	47.93
0.043	1231.35	48.32
0.047	1225.22	61.64
0.059	1163.34	41.3
0.06	1154.79	41.31
0.078	1095.49	23.21
0.141	961.52	19.57
0.17	918.77	13.59
0.182	907.07	10.13
0.194	894.57	8.28
0.211	882.95	3.86
0.221	885.52	7.35
0.235	866.52	13.61

System: ethanol + ethyl acetate + 1-methylimidazolium hydrogen sulfate; phases: Liquid mixture 1, Liquid mixture 2
Fixed: Pressure, kPa = 101
Fixed: Temperature, K = 313
Property: Mass fraction of ethanol (Liquid mixture 1); method: Titration method
Mass fraction of ethyl acetate	Mass fraction of ethanol	uncertainty
0.265	0.618	0.015
0.282	0.614	0.015
0.317	0.602	0.016
0.321	0.602	0.016
0.34	0.589	0.016
0.363	0.579	0.017
0.417	0.546	0.018
0.451	0.519	0.019
0.502	0.478	0.019
0.54	0.444	0.018
0.572	0.416	0.018
0.646	0.348	0.017
0.651	0.342	0.017
0.749	0.248	0.016
0.762	0.235	0.016
0.833	0.164	0.015
0.85	0.148	0.015
0.913	0.085	0.014
0.998	0	0.001

System: ethanol + ethyl acetate + 1-methylimidazolium hydrogen sulfate; phases: Liquid mixture 2, Liquid mixture 1
Fixed: Pressure, kPa = 101
Fixed: Temperature, K = 313
Property: Mass fraction of ethanol (Liquid mixture 2); method: Titration method
Mass fraction of ethyl acetate	Mass fraction of ethanol	uncertainty
0.01	0	0.001
0.019	0.052	0.052
0.029	0.128	0.073
0.031	0.149	0.073
0.034	0.133	0.063
0.041	0.211	0.049
0.043	0.219	0.05
0.047	0.225	0.062
0.059	0.286	0.044
0.078	0.358	0.03
0.141	0.512	0.028
0.17	0.565	0.023
0.182	0.577	0.02
0.194	0.595	0.017
0.211	0.6	0.015
0.221	0.586	0.017
0.235	0.615	0.025

System: ethanol + ethyl acetate + 1-methylimidazolium hydrogen sulfate; phases: Liquid mixture 1, Liquid mixture 2
Fixed: Pressure, kPa = 101.3
Fixed: Temperature, K = 313
Property: Mass fraction of ethanol (Liquid mixture 1); method: Density calibration data
Property: Mass fraction of ethyl acetate (Liquid mixture 2); method: Density calibration data
Property: Mass fraction of ethanol (Liquid mixture 2); method: Density calibration data
Mass fraction of ethyl acetate	Mass fraction of ethanol	uncertainty	Mass fraction of ethyl acetate	uncertainty	Mass fraction of ethanol	uncertainty
0.741	0.256	0.028	0.025	0.02	0.108	
0.204	0.59	0.02	0.06	0.02	0.296	
0.896	0.102	0.028	0.016	0.016	0.056	
0.331	0.595	0.024	0.045	0.02	0.213	
0.938	0.06	0.028	0.014	0.014	0.036	
0.818	0.18	0.028	0.022	0.02	0.094	

System: acetic acid + ethyl acetate + 1-methylimidazolium hydrogen sulfate; phases: Liquid mixture 1, Liquid mixture 2
Fixed: Pressure, kPa = 101
Fixed: Temperature, K = 313
Property: Mass density, kg/m3 (Liquid mixture 1); method: Vibrating tube method
Mass fraction of ethyl acetate	Mass density, kg/m3	uncertainty
0.339	1001.9	4.07
0.403	976.67	3.88
0.42	972.14	2.64
0.481	957.55	2.07
0.494	955.2	2.16
0.543	945.79	2.08
0.586	938.55	1.93
0.586	938.36	1.93
0.591	937.62	1.93
0.665	925.72	1.87
0.667	925.42	1.87
0.735	915.1	1.71
0.745	913.73	1.71
0.819	902.94	1.78
0.841	899.72	1.78
0.897	891.51	1.79
0.943	884.74	1.79
0.999	876.46	1.03

System: acetic acid + ethyl acetate + 1-methylimidazolium hydrogen sulfate; phases: Liquid mixture 2, Liquid mixture 1
Fixed: Pressure, kPa = 101
Fixed: Temperature, K = 313
Property: Mass density, kg/m3 (Liquid mixture 2); method: Vibrating tube method
Mass fraction of ethyl acetate	Mass density, kg/m3	uncertainty
0.01	1462.94	34.36
0.019	1429.11	35.91
0.025	1411.43	36.39
0.025	1409.77	36.43
0.027	1392.55	37
0.037	1364.51	30.57
0.038	1358.27	30.54
0.048	1328.48	27.52
0.048	1328.63	27.53
0.061	1294.83	21.29
0.063	1292.95	21.48
0.063	1293.84	21.51
0.087	1244.35	17.16
0.09	1240.29	17.25
0.125	1185.69	13.78
0.126	1186.79	13.82
0.171	1128.41	10.92
0.224	1079.74	8.35
0.282	1036.32	7.56

System: acetic acid + ethyl acetate + 1-methylimidazolium hydrogen sulfate; phases: Liquid mixture 1, Liquid mixture 2
Fixed: Pressure, kPa = 101
Fixed: Temperature, K = 313
Property: Mass fraction of acetic acid (Liquid mixture 1); method: Titration method
Mass fraction of ethyl acetate	Mass fraction of acetic acid	uncertainty
0.339	0.589	0.016
0.42	0.549	0.017
0.481	0.499	0.019
0.543	0.446	0.018
0.586	0.406	0.018
0.665	0.33	0.017
0.735	0.261	0.016
0.819	0.178	0.015
0.897	0.101	0.014
0.999	0	0.001

System: acetic acid + ethyl acetate + 1-methylimidazolium hydrogen sulfate; phases: Liquid mixture 2, Liquid mixture 1
Fixed: Pressure, kPa = 101
Fixed: Temperature, K = 313
Property: Mass fraction of acetic acid (Liquid mixture 2); method: Titration method
Mass fraction of ethyl acetate	Mass fraction of acetic acid	uncertainty
0.01	0	0.001
0.025	0.071	0.064
0.025	0.088	0.065
0.037	0.173	0.071
0.048	0.232	0.048
0.061	0.284	0.034
0.09	0.365	0.027
0.126	0.435	0.024
0.171	0.507	0.021
0.224	0.546	0.018
0.282	0.579	0.017

System: acetic acid + ethyl acetate + 1-methylimidazolium hydrogen sulfate; phases: Liquid mixture 1, Liquid mixture 2
Fixed: Pressure, kPa = 101.3
Fixed: Temperature, K = 313
Property: Mass fraction of acetic acid (Liquid mixture 1); method: Density calibration data
Property: Mass fraction of ethyl acetate (Liquid mixture 2); method: Density calibration data
Property: Mass fraction of acetic acid (Liquid mixture 2); method: Density calibration data
Mass fraction of ethyl acetate	Mass fraction of acetic acid	uncertainty	Mass fraction of ethyl acetate	uncertainty	Mass fraction of acetic acid	uncertainty
0.841	0.156	0.028	0.027	0.02	0.125	
0.586	0.405	0.027	0.063	0.021	0.287	
0.667	0.328	0.028	0.048	0.021	0.231	
0.494	0.489	0.026	0.087	0.022	0.359	
0.403	0.56	0.025	0.125	0.022	0.438	
0.745	0.251	0.028	0.038	0.02	0.182	
0.591	0.401	0.027	0.063	0.021	0.286	
0.943	0.055	0.028	0.019	0.019	0.053	

System: ethanol + ethyl acetate + 1-ethyl-3-methylimidazolium hydrogen sulfate; phases: Liquid mixture 2, Liquid mixture 1
Fixed: Pressure, kPa = 101
Fixed: Temperature, K = 313
Property: Mass density, kg/m3 (Liquid mixture 2); method: Vibrating tube method
Mass fraction of ethyl acetate	Mass density, kg/m3	uncertainty
0.017	1340	45.92
0.033	1266.57	34.16
0.039	1249.38	34.95
0.058	1197.53	23.58
0.075	1164.94	14.54
0.119	1107.2	12.84
0.134	1090.2	10.19
0.171	1054.19	9.36
0.187	1041.57	7.99
0.277	978.67	7.09

System: ethanol + ethyl acetate + 1-ethyl-3-methylimidazolium hydrogen sulfate; phases: Liquid mixture 1, Liquid mixture 2
Fixed: Pressure, kPa = 101
Fixed: Temperature, K = 313
Property: Mass density, kg/m3 (Liquid mixture 1); method: Vibrating tube method
Mass fraction of ethyl acetate	Mass density, kg/m3	uncertainty
0.455	891.46	3.53
0.508	873.79	3.24
0.537	867.03	2.38
0.584	857.84	2.23
0.606	853.9	1.96
0.628	850.86	1.3
0.687	848.5	1.16
0.734	849.18	1.2
0.771	851.61	1.3
0.785	852.21	1.23
0.883	861.61	1.72
0.893	862.89	1.72
1	876.65	1.16

System: ethanol + ethyl acetate + 1-ethyl-3-methylimidazolium hydrogen sulfate; phases: Liquid mixture 1, Liquid mixture 2
Fixed: Pressure, kPa = 101
Fixed: Temperature, K = 313
Property: Mass fraction of ethanol (Liquid mixture 1); method: Titration method
Mass fraction of ethyl acetate	Mass fraction of ethanol	uncertainty
0.455	0.375	0.015
0.537	0.368	0.015
0.606	0.342	0.014
0.628	0.332	0.015
0.687	0.294	0.015
0.734	0.256	0.015
0.785	0.211	0.015
0.893	0.107	0.014
1	0	0.001

System: ethanol + ethyl acetate + 1-ethyl-3-methylimidazolium hydrogen sulfate; phases: Liquid mixture 2, Liquid mixture 1
Fixed: Pressure, kPa = 101
Fixed: Temperature, K = 313
Property: Mass fraction of ethanol (Liquid mixture 2); method: Titration method
Mass fraction of ethyl acetate	Mass fraction of ethanol	uncertainty
0.017	0	0.001
0.039	0.103	0.034
0.075	0.192	0.021
0.119	0.243	0.016
0.171	0.286	0.014
0.277	0.337	0.015

System: ethanol + ethyl acetate + 1-ethyl-3-methylimidazolium hydrogen sulfate; phases: Liquid mixture 1, Liquid mixture 2
Fixed: Pressure, kPa = 101.3
Fixed: Temperature, K = 313
Property: Mass fraction of ethanol (Liquid mixture 1); method: Density calibration data
Property: Mass fraction of ethanol (Liquid mixture 2); method: Density calibration data
Property: Mass fraction of ethyl acetate (Liquid mixture 2); method: Density calibration data
Mass fraction of ethyl acetate	Mass fraction of ethanol	uncertainty	Mass fraction of ethanol	uncertainty	Mass fraction of ethyl acetate	uncertainty
0.771	0.223	0.025	0.159	0.038	0.058	
0.883	0.116	0.028	0.085	0.062	0.033	
0.508	0.375	0.021	0.295	0.025	0.187	
0.584	0.351	0.023	0.257	0.029	0.134	

System: acetic acid + ethyl acetate + 1-ethyl-3-methylimidazolium hydrogen sulfate; phases: Liquid mixture 1, Liquid mixture 2
Fixed: Pressure, kPa = 101
Fixed: Temperature, K = 313
Property: Mass density, kg/m3 (Liquid mixture 1); method: Vibrating tube method
Mass fraction of ethyl acetate	Mass density, kg/m3	uncertainty
0.424	1012.63	4.01
0.482	990.49	4.04
0.571	955.97	3.87
0.578	952.94	3.89
0.61	943.86	2.95
0.642	935.69	2.64
0.667	930.47	2.45
0.694	924.53	2.18
0.767	911.82	2.05
0.791	908.33	1.96
0.838	900.7	1.94
0.907	890.34	1.9
0.926	887.51	1.87
1	876.65	1.16

System: acetic acid + ethyl acetate + 1-ethyl-3-methylimidazolium hydrogen sulfate; phases: Liquid mixture 2, Liquid mixture 1
Fixed: Pressure, kPa = 101
Fixed: Temperature, K = 313
Property: Mass density, kg/m3 (Liquid mixture 2); method: Vibrating tube method
Mass fraction of ethyl acetate	Mass density, kg/m3	uncertainty
0.017	1340	22.92
0.036	1296.57	19.54
0.044	1284.1	19.76
0.057	1261.91	14.03
0.08	1233.22	11.15
0.12	1191.74	9.34
0.129	1186.84	9.39
0.178	1142.25	8.34
0.197	1132.41	6.27
0.249	1099.27	6.13
0.257	1095.74	6.12
0.287	1078.79	5.7
0.314	1064.09	5.59

System: acetic acid + ethyl acetate + 1-ethyl-3-methylimidazolium hydrogen sulfate; phases: Liquid mixture 2, Liquid mixture 1
Fixed: Pressure, kPa = 101
Fixed: Temperature, K = 313
Property: Mass fraction of acetic acid (Liquid mixture 2); method: Titration method
Mass fraction of ethyl acetate	Mass fraction of acetic acid	uncertainty
0.017	0	0.001
0.036	0.096	0.042
0.057	0.165	0.022
0.129	0.285	0.019
0.178	0.333	0.015
0.257	0.364	0.015
0.314	0.38	0.015

System: acetic acid + ethyl acetate + 1-ethyl-3-methylimidazolium hydrogen sulfate; phases: Liquid mixture 1, Liquid mixture 2
Fixed: Pressure, kPa = 101
Fixed: Temperature, K = 313
Property: Mass fraction of acetic acid (Liquid mixture 1); method: Titration method
Mass fraction of ethyl acetate	Mass fraction of acetic acid	uncertainty
0.424	0.39	0.015
0.482	0.383	0.015
0.571	0.368	0.015
0.642	0.325	0.015
0.694	0.284	0.015
0.791	0.202	0.015
0.907	0.092	0.014
1	0	0.001

System: acetic acid + ethyl acetate + 1-ethyl-3-methylimidazolium hydrogen sulfate; phases: Liquid mixture 1, Liquid mixture 2
Fixed: Temperature, K = 313
Fixed: Pressure, kPa = 101.3
Property: Mass fraction of acetic acid (Liquid mixture 1); method: Density calibration data
Property: Mass fraction of acetic acid (Liquid mixture 2); method: Density calibration data
Property: Mass fraction of ethyl acetate (Liquid mixture 2); method: Density calibration data
Mass fraction of ethyl acetate	Mass fraction of acetic acid	uncertainty	Mass fraction of acetic acid	uncertainty	Mass fraction of ethyl acetate	uncertainty
0.926	0.073	0.028	0.122	0.056	0.044	
0.838	0.158	0.028	0.217	0.045	0.08	
0.767	0.223	0.027	0.278	0.029	0.12	
0.667	0.307	0.026	0.34	0.024	0.197	
0.61	0.347	0.024	0.363	0.021	0.249	
0.578	0.364	0.023	0.373	0.021	0.287	

System: ethanol + ethyl acetate + 1-butyl-3-methylimidazolium hydrogen sulfate; phases: Liquid mixture 1, Liquid mixture 2
Fixed: Pressure, kPa = 101
Fixed: Temperature, K = 313
Property: Mass density, kg/m3 (Liquid mixture 1); method: Vibrating tube method
Mass fraction of ethyl acetate	Mass density, kg/m3	uncertainty
0.555	906.41	2.76
0.556	905.16	2.55
0.599	895.43	2.97
0.604	894.36	2.96
0.67	874.34	3.05
0.675	874.9	2.99
0.688	871.31	2.99
0.752	862.91	1.7
0.773	860.79	1.24
0.816	859.67	1.15
0.848	860.92	1.29
0.877	863.24	1.43
0.915	866.6	1.47
0.927	867.79	1.52
0.998	877	1.19

System: ethanol + ethyl acetate + 1-butyl-3-methylimidazolium hydrogen sulfate; phases: Liquid mixture 2, Liquid mixture 1
Fixed: Pressure, kPa = 101
Fixed: Temperature, K = 313
Property: Mass density, kg/m3 (Liquid mixture 2); method: Vibrating tube method
Mass fraction of ethyl acetate	Mass density, kg/m3	uncertainty
0.057	1242.38	17
0.097	1174.67	15.82
0.12	1144.01	11.98
0.128	1128.02	12.32
0.147	1114.98	9.16
0.151	1109.87	9.06
0.179	1082.46	8.05
0.215	1058.63	6.68
0.258	1030.65	6.05
0.339	984.7	5.72
0.372	967.08	5.47

System: ethanol + ethyl acetate + 1-butyl-3-methylimidazolium hydrogen sulfate; phases: Liquid mixture 1, Liquid mixture 2
Fixed: Pressure, kPa = 101
Fixed: Temperature, K = 313
Property: Mass fraction of ethanol (Liquid mixture 1); method: Titration method
Mass fraction of ethyl acetate	Mass fraction of ethanol	uncertainty
0.555	0.25	0.012
0.556	0.251	0.012
0.599	0.242	0.012
0.604	0.242	0.012
0.675	0.235	0.012
0.688	0.235	0.012
0.752	0.211	0.012
0.773	0.199	0.013
0.816	0.169	0.013
0.848	0.143	0.014
0.927	0.069	0.014
0.998	0	0.001

System: ethanol + ethyl acetate + 1-butyl-3-methylimidazolium hydrogen sulfate; phases: Liquid mixture 2, Liquid mixture 1
Fixed: Pressure, kPa = 101
Fixed: Temperature, K = 313
Property: Mass fraction of ethanol (Liquid mixture 2); method: Titration method
Mass fraction of ethyl acetate	Mass fraction of ethanol	uncertainty
0.057	0	0.001
0.097	0.076	0.02
0.128	0.124	0.016
0.151	0.143	0.014
0.179	0.167	0.013
0.215	0.187	0.012
0.258	0.208	0.012
0.372	0.249	0.013

System: ethanol + ethyl acetate + 1-butyl-3-methylimidazolium hydrogen sulfate; phases: Liquid mixture 1, Liquid mixture 2
Fixed: Temperature, K = 313
Fixed: Pressure, kPa = 101.3
Property: Mass fraction of ethanol (Liquid mixture 1); method: Density calibration data
Property: Mass fraction of ethanol (Liquid mixture 2); method: Density calibration data
Property: Mass fraction of ethyl acetate (Liquid mixture 2); method: Density calibration data
Mass fraction of ethyl acetate	Mass fraction of ethanol	uncertainty	Mass fraction of ethanol	uncertainty	Mass fraction of ethyl acetate	uncertainty
0.915	0.081	0.027	0.109	0.029	0.12	
0.877	0.116	0.026	0.138	0.027	0.147	
0.67	0.24	0.021	0.238	0.022	0.339	
0.826	0.158	0.025	0.18	0.023	0.2	
0.753	0.21	0.02	0.214	0.022	0.281	

System: acetic acid + ethyl acetate + 1-butyl-3-methylimidazolium hydrogen sulfate; phases: Liquid mixture 1, Liquid mixture 2
Fixed: Pressure, kPa = 101
Fixed: Temperature, K = 313
Property: Mass density, kg/m3 (Liquid mixture 1); method: Vibrating tube method
Mass fraction of ethyl acetate	Mass density, kg/m3	uncertainty
0.55	982.7	3.49
0.645	951.64	3.36
0.647	951.75	3.36
0.736	924.34	2.77
0.757	919.08	2.58
0.764	917.83	2.58
0.782	913.77	2.49
0.811	907.48	2.3
0.857	898.84	2.13
0.894	892.77	2.04
0.895	892.89	2.03
0.917	888.81	2
0.955	883.07	1.86
0.998	877	1.19

System: acetic acid + ethyl acetate + 1-butyl-3-methylimidazolium hydrogen sulfate; phases: Liquid mixture 2, Liquid mixture 1
Fixed: Pressure, kPa = 101
Fixed: Temperature, K = 313
Property: Mass density, kg/m3 (Liquid mixture 2); method: Vibrating tube method
Mass fraction of ethyl acetate	Mass density, kg/m3	uncertainty
0.057	1242.38	11.24
0.094	1201.16	10.9
0.098	1198.92	10.79
0.109	1186.64	7.76
0.138	1167.41	6.06
0.142	1165.14	6.07
0.209	1127.19	5.42
0.264	1101.35	4.78
0.32	1076.22	4.7
0.346	1064.26	4.91
0.403	1036.97	4.95

System: acetic acid + ethyl acetate + 1-butyl-3-methylimidazolium hydrogen sulfate; phases: Liquid mixture 1, Liquid mixture 2
Fixed: Pressure, kPa = 101
Fixed: Temperature, K = 313
Property: Mass fraction of acetic acid (Liquid mixture 1); method: Titration method
Mass fraction of ethyl acetate	Mass fraction of acetic acid	uncertainty
0.55	0.238	0.012
0.645	0.229	0.012
0.647	0.237	0.012
0.736	0.212	0.012
0.757	0.203	0.013
0.811	0.169	0.013
0.894	0.099	0.014
0.895	0.1	0.014
0.998	0	0.001

System: acetic acid + ethyl acetate + 1-butyl-3-methylimidazolium hydrogen sulfate; phases: Liquid mixture 2, Liquid mixture 1
Fixed: Pressure, kPa = 101
Fixed: Temperature, K = 313
Property: Mass fraction of acetic acid (Liquid mixture 2); method: Titration method
Mass fraction of ethyl acetate	Mass fraction of acetic acid	uncertainty
0.057	0	0.001
0.098	0.083	0.023
0.109	0.109	0.017
0.142	0.145	0.013
0.264	0.218	0.012
0.403	0.242	0.012

System: acetic acid + ethyl acetate + 1-butyl-3-methylimidazolium hydrogen sulfate; phases: Liquid mixture 1, Liquid mixture 2
Fixed: Temperature, K = 313
Fixed: Pressure, kPa = 101.3
Property: Mass fraction of acetic acid (Liquid mixture 1); method: Density calibration data
Property: Mass fraction of acetic acid (Liquid mixture 2); method: Density calibration data
Property: Mass fraction of ethyl acetate (Liquid mixture 2); method: Density calibration data
Mass fraction of ethyl acetate	Mass fraction of acetic acid	uncertainty	Mass fraction of acetic acid	uncertainty	Mass fraction of ethyl acetate	uncertainty
0.955	0.044	0.028	0.079	0.035	0.094	
0.857	0.133	0.025	0.197	0.022	0.209	
0.782	0.186	0.024	0.23	0.02	0.32	
0.917	0.081	0.027	0.142	0.028	0.138	
0.764	0.196	0.024	0.234	0.02	0.346	
