Measured thermophysical data. Densities of r-Tocopherol + Supercritical Carbon Dioxide Mixtures
Source: J. Chem. Eng. Data, 2008, 10.1021/je7005538
Compound 1: carbon dioxide, CO2, InChI=1S/CO2/c2-1-3
Compound 2: (+)-.alpha.-tocopherol, C29H50O2, InChI=1S/C29H50O2/c1-20(2)12-9-13-21(3)14-10-15-22(4)16-11-18-29(8)19-17-26-25(7)27(30)23(5)24(6)28(26)31-29/h20-22,30H,9-19H2,1-8H3/t21-,22-,29-/m1/s1

System: (+)-.alpha.-tocopherol + carbon dioxide; phases: Fluid (supercritical or subcritical phases)
Property: Mass density, kg/m3 (Fluid (supercritical or subcritical phases)); method: Vibrating tube method
Temperature, K	Mole fraction of (+)-.alpha.-tocopherol	Pressure, kPa	Mass density, kg/m3	uncertainty
308.15	0.0004	10000	720.4	2.1
308.15	0.0004	15000	817.8	13
308.15	0.0004	20000	867.2	6.5
308.15	0.0004	30000	929.5	5.4
308.15	0.0004	40000	971.9	0.7
308.15	0.00042	10000	720.9	2.2
308.15	0.00042	15000	818.1	17.1
308.15	0.00042	20000	867.6	8.5
308.15	0.00042	30000	929.6	7.1
308.15	0.00042	40000	972	0.7
308.15	0.00043	10000	720.6	2.1
308.15	0.00043	15000	818.2	8.6
308.15	0.00043	20000	867.5	4.3
308.15	0.00043	30000	929.6	3.6
308.15	0.00043	40000	972	0.7
308.15	0.0005	10000	720.3	2.1
308.15	0.0005	15000	817.9	1.7
308.15	0.0005	20000	867.4	1
308.15	0.0005	30000	929.6	0.8
308.15	0.0005	40000	972	0.7
308.15	0.00059	10000	720.2	2.1
308.15	0.00059	15000	817.8	2.4
308.15	0.00059	20000	867.3	1.4
308.15	0.00059	30000	929.6	1.1
308.15	0.00059	40000	972	0.7
308.15	0.00074	10000	721.2	2.1
308.15	0.00074	15000	818.6	8.3
308.15	0.00074	20000	868	4
308.15	0.00074	30000	930	3.4
308.15	0.00074	40000	972.2	0.8
308.15	0.00081	10000	720.9	2.1
308.15	0.00081	15000	818.7	5.8
308.15	0.00081	20000	868.2	2.7
308.15	0.00081	30000	930.1	2.3
308.15	0.00081	40000	972.3	0.8
308.15	0.00042	10000	718.9	2.5
308.15	0.00042	15000	816.9	17.2
308.15	0.00042	20000	866.7	8.7
308.15	0.00042	30000	929.3	7.2
308.15	0.00042	40000	971.9	0.8
313.15	0.0004	10000	639	14
313.15	0.0004	15000	782.3	15.4
313.15	0.0004	20000	841	5.6
313.15	0.0004	30000	910.2	4.2
313.15	0.0004	40000	955.9	0.8
313.15	0.00042	10000	639	18.5
313.15	0.00042	15000	782.6	9248
313.15	0.00042	20000	841.2	7
313.15	0.00042	30000	910.3	293.6
313.15	0.00042	40000	955.9	0.8
313.15	0.00043	10000	638.7	9.5
313.15	0.00043	15000	782.5	9.7
313.15	0.00043	20000	841.2	3.6
313.15	0.00043	30000	910.3	2.7
313.15	0.00043	40000	955.9	0.8
313.15	0.0005	10000	639.4	3.2
313.15	0.0005	15000	782.8	2.2
313.15	0.0005	20000	841.3	1.1
313.15	0.0005	30000	910.4	0.9
313.15	0.0005	40000	955.9	0.8
313.15	0.00059	10000	638.9	3.7
313.15	0.00059	15000	782.4	3.2
313.15	0.00059	20000	841.1	1.4
313.15	0.00059	30000	910.3	1.1
313.15	0.00059	40000	956	0.8
313.15	0.00074	10000	640	9
313.15	0.00074	15000	783.3	9.8
313.15	0.00074	20000	841.7	3.3
313.15	0.00074	30000	910.7	2.6
313.15	0.00074	40000	956.1	0.8
313.15	0.00081	10000	639.8	6.7
313.15	0.00081	15000	783.1	6.9
313.15	0.00081	20000	841.6	2.4
313.15	0.00081	30000	910.6	1.9
313.15	0.00081	40000	956	0.8
313.15	0.00042	10000	638.8	18.5
313.15	0.00042	15000	782.3	9248
313.15	0.00042	20000	840.9	7
313.15	0.00042	30000	910.1	293.6
313.15	0.00042	40000	955.7	0.8
323.15	0.0004	10000	398.5	37.6
323.15	0.0004	15000	703.6	38.3
323.15	0.0004	20000	786.2	8.9
323.15	0.0004	30000	871.2	5.6
323.15	0.0004	40000	923.3	0.8
323.15	0.00042	10000	398.5	49.5
323.15	0.00042	15000	703.4	31270
323.15	0.00042	20000	786	11.2
323.15	0.00042	30000	871.1	104.9
323.15	0.00042	40000	923.3	0.8
323.15	0.00043	10000	398.3	25
323.15	0.00043	15000	703.4	24.4
323.15	0.00043	20000	786	5.8
323.15	0.00043	30000	871	3.6
323.15	0.00043	40000	923.3	0.8
323.15	0.0005	10000	398.4	5.8
323.15	0.0005	15000	703.5	4.4
323.15	0.0005	20000	786	1.3
323.15	0.0005	30000	871.1	1
323.15	0.0005	40000	923.3	0.8
323.15	0.00059	10000	398.8	7
323.15	0.00059	15000	703.4	6.9
323.15	0.00059	20000	786	1.9
323.15	0.00059	30000	871.1	1.3
323.15	0.00059	40000	923.2	0.8
323.15	0.00074	10000	398.9	25.5
323.15	0.00074	15000	704.1	25.4
323.15	0.00074	20000	786.6	5.8
323.15	0.00074	30000	871.5	3.6
323.15	0.00074	40000	923.6	0.8
323.15	0.00081	10000	398.7	17.7
323.15	0.00081	15000	704.1	17.5
323.15	0.00081	20000	786.6	4
323.15	0.00081	30000	871.6	2.5
323.15	0.00081	40000	923.6	0.8
323.15	0.00042	10000	398.3	49.5
323.15	0.00042	15000	703.1	31270
323.15	0.00042	20000	785.8	11.2
323.15	0.00042	30000	870.9	104.9
323.15	0.00042	40000	923.1	0.8
333.15	0.0004	10000	297.2	6.3
333.15	0.0004	15000	608.6	52.1
333.15	0.0004	20000	725.7	22.3
333.15	0.0004	30000	830.3	12
333.15	0.0004	40000	890.2	0.9
333.15	0.00042	10000	297.1	6.3
333.15	0.00042	15000	608.9	68.8
333.15	0.00042	20000	725.6	29.8
333.15	0.00042	30000	830.3	15.8
333.15	0.00042	40000	890.2	0.9
333.15	0.00043	10000	296.9	6.3
333.15	0.00043	15000	608.7	34.9
333.15	0.00043	20000	725.5	15
333.15	0.00043	30000	830.2	8.1
333.15	0.00043	40000	890.1	0.9
333.15	0.0005	10000	297.1	6.3
333.15	0.0005	15000	608.7	4.9
333.15	0.0005	20000	725.7	1.8
333.15	0.0005	30000	830.3	1.2
333.15	0.0005	40000	890.1	0.9
333.15	0.00059	10000	297.3	6.3
333.15	0.00059	15000	609.3	7.8
333.15	0.00059	20000	725.8	3.1
333.15	0.00059	30000	830.5	1.9
333.15	0.00059	40000	890.3	0.9
333.15	0.00074	10000	297.7	6.3
333.15	0.00074	15000	609.3	34.9
333.15	0.00074	20000	726.1	14.7
333.15	0.00074	30000	830.7	7.9
333.15	0.00074	40000	890.5	0.9
333.15	0.00081	10000	297.7	6.3
333.15	0.00081	15000	609.4	24
333.15	0.00081	20000	726.2	10
333.15	0.00081	30000	830.7	5.4
333.15	0.00081	40000	890.5	0.9
333.15	0.00042	10000	296.8	6.3
333.15	0.00042	15000	608.8	68.8
333.15	0.00042	20000	725.5	29.8
333.15	0.00042	30000	830.2	15.8
333.15	0.00042	40000	890.1	0.9
