Measured thermophysical data. Molar Excess Volume of sec- and tert-Butyl Chloride with Aromatic Hydrocarbons at T = 298.15 K
Source: J. Chem. Eng. Data, 2007, 10.1021/je7002918
Compound 1: 2-chlorobutane, C4H9Cl, InChI=1S/C4H9Cl/c1-3-4(2)5/h4H,3H2,1-2H3
Compound 2: 2-chloro-2-methylpropane, C4H9Cl, InChI=1S/C4H9Cl/c1-4(2,3)5/h1-3H3
Compound 3: benzene, C6H6, InChI=1S/C6H6/c1-2-4-6-5-3-1/h1-6H
Compound 4: toluene, C7H8, InChI=1S/C7H8/c1-7-5-3-2-4-6-7/h2-6H,1H3
Compound 5: 1,2-dimethylbenzene, C8H10, InChI=1S/C8H10/c1-7-5-3-4-6-8(7)2/h3-6H,1-2H3
Compound 6: 1,4-dimethylbenzene, C8H10, InChI=1S/C8H10/c1-7-3-5-8(2)6-4-7/h3-6H,1-2H3
Compound 7: 1,3-dimethylbenzene, C8H10, InChI=1S/C8H10/c1-7-4-3-5-8(2)6-7/h3-6H,1-2H3

System: benzene + 2-chlorobutane; phases: Liquid
Fixed: Pressure, kPa = 101
Fixed: Temperature, K = 298.15
Property: Excess molar volume, m3/mol (Liquid); method: DIRDIL:UFactor:4
Mole fraction of 2-chlorobutane	Excess molar volume, m3/mol	uncertainty
0.0696	1e-09	9e-09
0.084	2e-09	9e-09
0.1122	1e-09	9e-09
0.1524	2e-09	9e-09
0.1983	-2e-09	9e-09
0.2184	-5e-09	9e-09
0.2744	-5e-09	9e-09
0.3652	-1.8e-08	9e-09
0.4665	-2.6e-08	9e-09
0.5692	-4.4e-08	9e-09
0.6062	-4.8e-08	9e-09
0.752	-5.4e-08	9e-09
0.8041	-4.6e-08	9e-09
0.8573	-4e-08	9e-09
0.9032	-3.5e-08	9e-09
0.9405	-2.5e-08	9e-09

System: 2-chlorobutane + toluene; phases: Liquid
Fixed: Pressure, kPa = 101
Fixed: Temperature, K = 298.15
Property: Excess molar volume, m3/mol (Liquid); method: DIRDIL:UFactor:4
Mole fraction of 2-chlorobutane	Excess molar volume, m3/mol	uncertainty
0.0856	-6.6e-08	1e-08
0.1276	-9.6e-08	1e-08
0.2495	-1.73e-07	1e-08
0.3441	-2.12e-07	1e-08
0.4723	-2.32e-07	1e-08
0.5018	-2.34e-07	1e-08
0.5569	-2.32e-07	1e-08
0.6025	-2.21e-07	1e-08
0.6712	-2.06e-07	1e-08
0.7991	-1.46e-07	1e-08
0.9046	-7.2e-08	1e-08
0.9432	-4.4e-08	9e-09

System: 2-chlorobutane + 1,2-dimethylbenzene; phases: Liquid
Fixed: Pressure, kPa = 101
Fixed: Temperature, K = 298.15
Property: Excess molar volume, m3/mol (Liquid); method: DIRDIL:UFactor:4
Mole fraction of 2-chlorobutane	Excess molar volume, m3/mol	uncertainty
0.0784	-6.6e-08	1e-08
0.121	-1.12e-07	1e-08
0.1509	-1.34e-07	1e-08
0.166	-1.47e-07	1e-08
0.2243	-2.01e-07	1e-08
0.314	-2.62e-07	1.1e-08
0.3921	-2.92e-07	1.1e-08
0.4879	-3.1e-07	1.1e-08
0.5552	-2.95e-07	1.1e-08
0.669	-2.46e-07	1e-08
0.7282	-2.12e-07	1e-08
0.8091	-1.42e-07	1e-08
0.8816	-8.6e-08	1e-08
0.9052	-6.4e-08	1e-08

System: 2-chlorobutane + 1,4-dimethylbenzene; phases: Liquid
Fixed: Pressure, kPa = 101
Fixed: Temperature, K = 298.15
Property: Excess molar volume, m3/mol (Liquid); method: DIRDIL:UFactor:4
Mole fraction of 2-chlorobutane	Excess molar volume, m3/mol	uncertainty
0.0881	-6.5e-08	1e-08
0.163	-1.26e-07	1e-08
0.3481	-2.26e-07	1e-08
0.4012	-2.48e-07	1e-08
0.4742	-2.54e-07	1.1e-08
0.5001	-2.58e-07	1.1e-08
0.5534	-2.52e-07	1.1e-08
0.6264	-2.34e-07	1e-08
0.6784	-2.06e-07	1e-08
0.738	-1.75e-07	1e-08
0.7871	-1.46e-07	1e-08
0.8758	-8.6e-08	1e-08
0.9179	-5.2e-08	9e-09

System: 2-chlorobutane + 1,3-dimethylbenzene; phases: Liquid
Fixed: Pressure, kPa = 101
Fixed: Temperature, K = 298.15
Property: Excess molar volume, m3/mol (Liquid); method: DIRDIL:UFactor:4
Mole fraction of 2-chlorobutane	Excess molar volume, m3/mol	uncertainty
0.0694	-5.4e-08	9e-09
0.1004	-7.8e-08	1e-08
0.139	-9.4e-08	1e-08
0.2117	-1.22e-07	1e-08
0.2712	-1.43e-07	1e-08
0.3438	-1.5e-07	1e-08
0.4061	-1.56e-07	1e-08
0.4884	-1.62e-07	1e-08
0.5442	-1.62e-07	1e-08
0.601	-1.56e-07	1e-08
0.7408	-1.34e-07	1e-08
0.8431	-1.06e-07	1e-08
0.9249	-6.2e-08	1e-08

System: benzene + 2-chloro-2-methylpropane; phases: Liquid
Fixed: Pressure, kPa = 101
Fixed: Temperature, K = 298.15
Property: Excess molar volume, m3/mol (Liquid); method: DIRDIL:UFactor:4
Mole fraction of 2-chloro-2-methylpropane	Excess molar volume, m3/mol	uncertainty
0.0821	-9.4e-08	1e-08
0.1115	-1.22e-07	1e-08
0.2016	-1.8e-07	1e-08
0.2989	-2.31e-07	1e-08
0.314	-2.4e-07	1e-08
0.3587	-2.46e-07	1e-08
0.3959	-2.52e-07	1.1e-08
0.446	-2.58e-07	1.1e-08
0.5551	-2.45e-07	1e-08
0.6721	-2.06e-07	1e-08
0.7422	-1.74e-07	1e-08
0.828	-1.28e-07	1e-08
0.914	-6.6e-08	1e-08

System: toluene + 2-chloro-2-methylpropane; phases: Liquid
Fixed: Pressure, kPa = 101
Fixed: Temperature, K = 298.15
Property: Excess molar volume, m3/mol (Liquid); method: DIRDIL:UFactor:4
Mole fraction of 2-chloro-2-methylpropane	Excess molar volume, m3/mol	uncertainty
0.0932	-1.14e-07	1e-08
0.1243	-1.48e-07	1e-08
0.1832	-2.11e-07	1e-08
0.2556	-2.75e-07	1.1e-08
0.3342	-3.28e-07	1.1e-08
0.3895	-3.54e-07	1.2e-08
0.428	-3.68e-07	1.2e-08
0.4952	-3.81e-07	1.2e-08
0.5467	-3.76e-07	1.2e-08
0.5985	-3.64e-07	1.2e-08
0.6356	-3.53e-07	1.2e-08
0.6889	-3.2e-07	1.1e-08
0.8102	-2.26e-07	1e-08
0.8961	-1.3e-07	1e-08
0.9405	-7.4e-08	1e-08

System: 1,2-dimethylbenzene + 2-chloro-2-methylpropane; phases: Liquid
Fixed: Pressure, kPa = 101
Fixed: Temperature, K = 298.15
Property: Excess molar volume, m3/mol (Liquid); method: DIRDIL:UFactor:4
Mole fraction of 2-chloro-2-methylpropane	Excess molar volume, m3/mol	uncertainty
0.0698	-1.32e-07	1e-08
0.1023	-1.86e-07	1e-08
0.1642	-2.64e-07	1.1e-08
0.209	-3.06e-07	1.1e-08
0.2653	-3.54e-07	1.2e-08
0.3321	-3.88e-07	1.2e-08
0.4187	-4.22e-07	1.3e-08
0.4979	-4.32e-07	1.3e-08
0.5984	-4.28e-07	1.3e-08
0.6627	-4.16e-07	1.3e-08
0.7452	-3.72e-07	1.2e-08
0.8056	-3.22e-07	1.1e-08
0.9113	-1.88e-07	1e-08
0.9453	-1.24e-07	1e-08

System: 1,4-dimethylbenzene + 2-chloro-2-methylpropane; phases: Liquid
Fixed: Pressure, kPa = 101
Fixed: Temperature, K = 298.15
Property: Excess molar volume, m3/mol (Liquid); method: DIRDIL:UFactor:4
Mole fraction of 2-chloro-2-methylpropane	Excess molar volume, m3/mol	uncertainty
0.0816	-1.02e-07	1e-08
0.1212	-1.48e-07	1e-08
0.1874	-2.12e-07	1e-08
0.2585	-2.68e-07	1.1e-08
0.308	-3.04e-07	1.1e-08
0.3746	-3.32e-07	1.2e-08
0.4539	-3.56e-07	1.2e-08
0.5117	-3.57e-07	1.2e-08
0.5918	-3.44e-07	1.2e-08
0.6635	-3.18e-07	1.1e-08
0.7516	-2.62e-07	1.1e-08
0.8683	-1.56e-07	1e-08
0.9321	-8.2e-08	1e-08

System: 1,3-dimethylbenzene + 2-chloro-2-methylpropane; phases: Liquid
Fixed: Pressure, kPa = 101
Fixed: Temperature, K = 298.15
Property: Excess molar volume, m3/mol (Liquid); method: DIRDIL:UFactor:4
Mole fraction of 2-chloro-2-methylpropane	Excess molar volume, m3/mol	uncertainty
0.0875	-8.4e-08	1e-08
0.1216	-1.16e-07	1e-08
0.1973	-1.76e-07	1e-08
0.2724	-2.22e-07	1e-08
0.3516	-2.58e-07	1.1e-08
0.4307	-2.84e-07	1.1e-08
0.4832	-2.9e-07	1.1e-08
0.5214	-2.94e-07	1.1e-08
0.5768	-2.86e-07	1.1e-08
0.658	-2.66e-07	1.1e-08
0.7305	-2.38e-07	1e-08
0.8543	-1.52e-07	1e-08
0.9112	-9.8e-08	1e-08
