Measured thermophysical data. Vapor Liquid Equilibrium for the Systems trans-2-Butene + Methanol, + 1-Propanol, + 2-Propanol, + 2-Butanol, and + 2-Methyl-2-propanol at 364.5 K
Source: J. Chem. Eng. Data, 2008, 10.1021/je700690q
Compound 1: (E)-2-butene, C4H8, InChI=1S/C4H8/c1-3-4-2/h3-4H,1-2H3/b4-3+, purity 99.4%
Compound 2: methanol, CH4O, InChI=1S/CH4O/c1-2/h2H,1H3, purity 99.8%
Compound 3: propan-1-ol, C3H8O, InChI=1S/C3H8O/c1-2-3-4/h4H,2-3H2,1H3, purity 99.8%
Compound 4: propan-2-ol, C3H8O, InChI=1S/C3H8O/c1-3(2)4/h3-4H,1-2H3, purity 99.8%
Compound 5: butan-2-ol, C4H10O, InChI=1S/C4H10O/c1-3-4(2)5/h4-5H,3H2,1-2H3, purity 99.8%
Compound 6: 2-methylpropan-2-ol, C4H10O, InChI=1S/C4H10O/c1-4(2,3)5/h5H,1-3H3, purity 99.7%

System: (E)-2-butene; phases: Liquid, Gas
Fixed: Temperature, K = 364.52
Property: Vapor or sublimation pressure, kPa (Liquid); method: Closed cell (Static) method
Vapor or sublimation pressure, kPa	uncertainty
1268.9	5.7
1268	5.7
1268.7	5.7
1270.1	5.7
1268.1	5.7

System: methanol; phases: Liquid, Gas
Property: Vapor or sublimation pressure, kPa (Liquid); method: Closed cell (Static) method
Temperature, K	Vapor or sublimation pressure, kPa	uncertainty
364.52	267.6	1.4

System: propan-1-ol; phases: Liquid, Gas
Property: Vapor or sublimation pressure, kPa (Liquid); method: Closed cell (Static) method
Temperature, K	Vapor or sublimation pressure, kPa	uncertainty
364.53	81.2	0.9

System: propan-2-ol; phases: Liquid, Gas
Property: Vapor or sublimation pressure, kPa (Liquid); method: Closed cell (Static) method
Temperature, K	Vapor or sublimation pressure, kPa	uncertainty
364.51	144.1	1

System: butan-2-ol; phases: Liquid, Gas
Property: Vapor or sublimation pressure, kPa (Liquid); method: Closed cell (Static) method
Temperature, K	Vapor or sublimation pressure, kPa	uncertainty
364.52	75.4	0.9

System: 2-methylpropan-2-ol; phases: Liquid, Gas
Property: Vapor or sublimation pressure, kPa (Liquid); method: Closed cell (Static) method
Temperature, K	Vapor or sublimation pressure, kPa	uncertainty
364.52	143.3	1

System: methanol + (E)-2-butene; phases: Liquid, Gas
Property: Azeotropic pressure, kPa (Liquid); method: By X=Y
Mole fraction of (E)-2-butene	Azeotropic pressure, kPa	uncertainty
0.854	1385.1	8.5

System: methanol + (E)-2-butene; phases: Liquid, Gas
Property: Azeotropic temperature, K (Liquid); method: By X=Y
Mole fraction of (E)-2-butene	Azeotropic temperature, K	uncertainty
0.854	364.52	0.3

System: methanol + (E)-2-butene; phases: Liquid, Gas
Property: Vapor or sublimation pressure, kPa (Liquid); method: Closed cell (Static) method
Temperature, K	Mole fraction of (E)-2-butene	Vapor or sublimation pressure, kPa	uncertainty
364.51	0.9886	1296.8	5.8
364.52	0	267.6	1.4
364.52	0.0115	362.3	1.7
364.52	0.0267	472.9	2.1
364.52	0.0427	575.5	2.5
364.52	0.0851	790.9	3.4
364.52	0.13	950.5	4.1
364.52	0.1797	1071	4.7
364.52	0.2823	1213.1	5.3
364.52	0.3352	1254	5.5
364.52	0.3884	1283.5	5.6
364.52	0.4414	1305.1	5.7
364.52	0.494	1321.8	5.8
364.52	0.4978	1322.7	5.8
364.52	0.5462	1334.7	5.9
364.52	0.6456	1354.4	6
364.52	0.6956	1362.8	6
364.52	0.7462	1370.4	6.1
364.52	0.8465	1381	6.1
364.52	0.8974	1379.5	6.2
364.52	0.9489	1358.1	6.1
364.52	0.9772	1320.6	5.9
364.52	1	1268.9	5.7
364.53	0.23	1154.3	5
364.53	0.5956	1345.3	5.9
364.53	0.7959	1376.8	6.1
364.53	0.9688	1335.2	6

System: propan-1-ol + (E)-2-butene; phases: Liquid, Gas
Property: Vapor or sublimation pressure, kPa (Liquid); method: Closed cell (Static) method
Temperature, K	Mole fraction of (E)-2-butene	Vapor or sublimation pressure, kPa	uncertainty
364.51	0.051	255.3	1.3
364.51	0.0989	395	1.8
364.51	0.4975	985.6	4.3
364.51	0.8963	1200.8	5.4
364.52	0.0365	208.5	1.2
364.52	0.1448	510.4	2.3
364.52	0.1926	612.7	2.7
364.52	0.242	702	3.1
364.52	0.3434	844	3.7
364.52	0.3938	898.1	3.9
364.52	0.4457	945.3	4.2
364.52	0.4986	986.3	4.3
364.52	0.5467	1019	4.5
364.52	0.5958	1048.7	4.6
364.52	0.6448	1075.7	4.8
364.52	0.694	1100.8	4.9
364.52	0.7936	1149.2	5.1
364.52	0.8446	1173.9	5.2
364.52	0.9476	1231.2	5.5
364.52	0.9682	1245.2	5.6
364.52	0.9806	1254.1	5.6
364.52	1	1268	5.7
364.53	0	81.2	0.9
364.53	0.2928	779.4	3.4
364.53	0.7435	1125.3	5
364.53	0.9885	1259.9	5.6

System: propan-2-ol + (E)-2-butene; phases: Liquid, Gas
Property: Vapor or sublimation pressure, kPa (Liquid); method: Closed cell (Static) method
Temperature, K	Mole fraction of (E)-2-butene	Vapor or sublimation pressure, kPa	uncertainty
364.51	0	144.1	1
364.52	0.0208	212.7	1.2
364.52	0.0357	258.3	1.3
364.52	0.0558	317.6	1.6
364.52	0.1014	437	2
364.52	0.1474	540.7	2.4
364.52	0.195	632.9	2.8
364.52	0.244	714.1	3.1
364.52	0.2944	785.9	3.4
364.52	0.3444	847	3.7
364.52	0.3954	901	4
364.52	0.4455	947.5	4.2
364.52	0.497	989.6	4.4
364.52	0.4989	990.5	4.4
364.52	0.5472	1025.8	4.5
364.52	0.5961	1058.5	4.7
364.52	0.6451	1088.4	4.8
364.52	0.6943	1116.4	4.9
364.52	0.7438	1143	5.1
364.52	0.8441	1194.5	5.3
364.52	0.8947	1219.3	5.4
364.52	0.9484	1246	5.6
364.52	0.9678	1255.3	5.6
364.52	0.978	1259.9	5.6
364.52	1	1268.7	5.7
364.53	0.7942	1169.4	5.2
364.53	0.9885	1264.5	5.7

System: butan-2-ol + (E)-2-butene; phases: Liquid, Gas
Property: Vapor or sublimation pressure, kPa (Liquid); method: Closed cell (Static) method
Temperature, K	Mole fraction of (E)-2-butene	Vapor or sublimation pressure, kPa	uncertainty
364.51	0.0538	211	1.2
364.51	0.7943	1100.5	4.9
364.51	0.8959	1172.7	5.2
364.52	0	75.4	0.9
364.52	0.0167	119.7	0.9
364.52	0.0355	167.1	1.1
364.52	0.102	319.2	1.6
364.52	0.1486	412.9	1.9
364.52	0.1971	500.4	2.2
364.52	0.2454	578.8	2.6
364.52	0.295	650.6	2.8
364.52	0.3453	716.1	3.1
364.52	0.3963	776.1	3.4
364.52	0.4483	831.8	3.7
364.52	0.4982	880.1	3.9
364.52	0.4988	880	3.9
364.52	0.5475	921.5	4.1
364.52	0.6449	997.1	4.4
364.52	0.6941	1032.2	4.6
364.52	0.7444	1066.8	4.7
364.52	0.8449	1135.6	5.1
364.52	0.9478	1216.7	5.4
364.52	0.9688	1237	5.5
364.52	0.9792	1247.5	5.6
364.52	1	1270.1	5.7
364.53	0.5959	960.6	4.2
364.53	0.9894	1258.5	5.6

System: 2-methylpropan-2-ol + (E)-2-butene; phases: Liquid, Gas
Property: Vapor or sublimation pressure, kPa (Liquid); method: Closed cell (Static) method
Temperature, K	Mole fraction of (E)-2-butene	Vapor or sublimation pressure, kPa	uncertainty
364.51	0.3476	728.4	3.2
364.51	0.3983	786.7	3.5
364.51	0.4491	840.3	3.7
364.51	0.5002	890.3	3.9
364.51	0.744	1084.8	4.8
364.52	0	143.3	1
364.52	0.0237	196.8	1.2
364.52	0.043	238.8	1.3
364.52	0.0592	272.7	1.4
364.52	0.1049	362.5	1.7
364.52	0.1511	445.6	2
364.52	0.1992	524.7	2.3
364.52	0.248	597.8	2.6
364.52	0.2979	666.2	2.9
364.52	0.4987	889.1	3.9
364.52	0.5469	932.4	4.1
364.52	0.5955	973.3	4.3
364.52	0.6445	1011.9	4.5
364.52	0.6945	1049.5	4.7
364.52	0.7941	1119.7	5
364.52	0.8444	1154.4	5.2
364.52	0.9694	1244.3	5.6
364.52	0.9792	1251.8	5.6
364.52	1	1268.1	5.7
364.53	0.8963	1190.5	5.3
364.53	0.9488	1228.7	5.5
364.53	0.9898	1260.5	5.7
