Measured thermophysical data. Solubility of Tetrahydroxybenzophenone (THBP) in Acetone
Source: J. Chem. Eng. Data, 2007, 10.1021/je700434b
Compound 1: 2,3,4,4'-tetrahydroxybenzophenone, C13H10O5, InChI=1S/C13H10O5/c14-8-3-1-7(2-4-8)11(16)9-5-6-10(15)13(18)12(9)17/h1-6,14-15,17-18H
Compound 2: acetone, C3H6O, InChI=1S/C3H6O/c1-3(2)4/h1-2H3, purity 99.8%

System: acetone + 2,3,4,4'-tetrahydroxybenzophenone; phases: Liquid, Crystal 1
Fixed: Pressure, kPa = 101
Property: Mole fraction of 2,3,4,4'-tetrahydroxybenzophenone (Liquid); method: Phase equilibration
Temperature, K	Mole fraction of 2,3,4,4'-tetrahydroxybenzophenone	uncertainty
283.15	0.1004	0.0012
288.15	0.1016	0.0012
293.15	0.1024	0.0012
298.15	0.1033	0.0012
303.15	0.1043	0.0012
308.15	0.106	0.0012
313.15	0.1081	0.0012
318.15	0.1096	0.0013
323.15	0.1115	0.0013

System: acetone + 2,3,4,4'-tetrahydroxybenzophenone; phases: Liquid, Crystal 2
Fixed: Pressure, kPa = 101
Property: Mole fraction of 2,3,4,4'-tetrahydroxybenzophenone (Liquid); method: Phase equilibration
Temperature, K	Mole fraction of 2,3,4,4'-tetrahydroxybenzophenone	uncertainty
288.15	0.0623	0.0015
293.15	0.0687	0.0012
298.15	0.0744	0.0018
303.15	0.0835	0.0043
308.15	0.0913	0.0019
313.15	0.102	0.003
318.15	0.118	0.0021
