Measured thermophysical data. Phase Behavior Studies of 2-Hydroxyethyl Methacrylate and Methyl Methacrylate in High-Pressure Carbon Dioxide
Source: J. Chem. Eng. Data, 2007, 10.1021/je700272y
Compound 1: methyl methacrylate, C5H8O2, InChI=1S/C5H8O2/c1-4(2)5(6)7-3/h1H2,2-3H3
Compound 2: 2-hydroxyethyl 2-methyl-2-propenoate, C6H10O3, InChI=1S/C6H10O3/c1-5(2)6(8)9-4-3-7/h7H,1,3-4H2,2H3
Compound 3: carbon dioxide, CO2, InChI=1S/CO2/c2-1-3

System: methyl methacrylate + carbon dioxide; phases: Liquid, Gas
Property: Critical pressure, kPa (Liquid); method: DIRECT:UFactor:4
Temperature, K	Critical pressure, kPa	uncertainty
323.15	9120	600

System: methyl methacrylate + carbon dioxide; phases: Liquid, Gas
Property: Critical temperature, K (Liquid); method: Visual observation in an unstirred cell
Mole fraction of carbon dioxide	Critical temperature, K	uncertainty
0.9738	323.15	0.2

System: methyl methacrylate + carbon dioxide; phases: Liquid, Gas
Property: Vapor or sublimation pressure, kPa (Liquid); method: CCELL:UFactor:16
Temperature, K	Mole fraction of carbon dioxide	Vapor or sublimation pressure, kPa	uncertainty
313.15	0.8173	6380	320
313.15	0.8494	6550	330
313.15	0.9103	7220	360
313.15	0.9309	7390	370
313.15	0.9567	7780	390
313.15	0.966	7930	390
313.15	0.9738	7950	390
323.15	0.8173	7460	370
323.15	0.8494	7810	390
323.15	0.9103	8500	420
323.15	0.9309	8690	430
323.15	0.9567	9050	450
323.15	0.966	9100	450
338.15	0.8173	8970	440
338.15	0.8494	9410	470
338.15	0.9103	10340	510
338.15	0.9309	10470	520

System: carbon dioxide + 2-hydroxyethyl 2-methyl-2-propenoate; phases: Liquid, Gas
Property: Critical pressure, kPa (Liquid); method: DIRECT:UFactor:4
Temperature, K	Critical pressure, kPa	uncertainty
313.15	14260	150
323.15	16650	150
338.15	21040	150

System: carbon dioxide + 2-hydroxyethyl 2-methyl-2-propenoate; phases: Liquid, Gas
Fixed: Mole fraction of carbon dioxide = 0.9074
Property: Critical temperature, K (Liquid); method: Visual observation in an unstirred cell
Critical temperature, K	uncertainty
313.15	0.2
323.15	0.2
338.15	0.2

System: carbon dioxide + 2-hydroxyethyl 2-methyl-2-propenoate; phases: Gas, Liquid
Property: Vapor or sublimation pressure, kPa (Gas); method: CCELL:UFactor:32
Temperature, K	Mole fraction of carbon dioxide	Vapor or sublimation pressure, kPa	uncertainty
313.15	0.945	14000	1390
313.15	0.9584	12980	1290
313.15	0.965	12090	1200
313.15	0.9702	11480	1140
313.15	0.9745	10990	1090
323.15	0.945	16320	1620
323.15	0.9584	15330	1520
323.15	0.965	14630	1450
323.15	0.9702	13870	1380
323.15	0.9745	13430	1330
338.15	0.945	19390	1920
338.15	0.9584	18350	1820
338.15	0.965	17760	1760
338.15	0.9702	16890	1680
338.15	0.9745	16410	1630

System: carbon dioxide + 2-hydroxyethyl 2-methyl-2-propenoate; phases: Liquid, Gas
Property: Vapor or sublimation pressure, kPa (Liquid); method: CCELL:UFactor:32
Temperature, K	Mole fraction of carbon dioxide	Vapor or sublimation pressure, kPa	uncertainty
313.15	0.421	5300	530
313.15	0.5338	6800	670
313.15	0.6134	7590	750
313.15	0.6772	8480	840
313.15	0.715	9950	990
313.15	0.8196	11290	1120
313.15	0.8464	12550	1240
313.15	0.8778	13870	1380
323.15	0.1491	2880	290
323.15	0.421	5830	580
323.15	0.5338	7450	740
323.15	0.6134	8810	870
323.15	0.6772	10610	1050
323.15	0.715	11920	1180
323.15	0.8196	13640	1350
323.15	0.8464	15060	1490
323.15	0.8778	16300	1620
338.15	0.1491	2750	270
338.15	0.421	7000	690
338.15	0.5338	8890	880
338.15	0.6134	10710	1060
338.15	0.6772	14120	1400
338.15	0.715	16900	1680
338.15	0.8196	17250	1710
338.15	0.8464	18270	1810
338.15	0.8778	19420	1930
