Measured thermophysical data. Partial Molar Volumes and Viscosity B-Coefficient of N-Phenylbenzohydroxamic Acid in Dimethylsulfoxide at Different Temperatures
Source: J. Chem. Eng. Data, 2008, 10.1021/je7006956
Compound 1: N-phenylbenzohydroxamic acid, C13H11NO2, InChI=1S/C13H11NO2/c15-13(11-7-3-1-4-8-11)14(16)12-9-5-2-6-10-12/h1-10,16H
Compound 2: dimethyl sulfoxide, C2H6OS, InChI=1S/C2H6OS/c1-4(2)3/h1-2H3, purity 97%

System: N-phenylbenzohydroxamic acid; phases: Crystal, Liquid, Air at 1 atmosphere
Property: Normal melting temperature, K (Crystal); method: VISOBS
Normal melting temperature, K	uncertainty
394.15	1

System: dimethyl sulfoxide; phases: Liquid, Gas
Property: Viscosity, Pa*s (Liquid); method: CAPTUB:UFactor:8
Temperature, K	Viscosity, Pa*s	uncertainty
298.15	0.0019932	9.64e-05
303.15	0.0018006	8.78e-05
308.15	0.001652	8.11e-05
313.15	0.001516	7.49e-05
318.15	0.001398	6.96e-05

System: dimethyl sulfoxide; phases: Liquid
Fixed: Pressure, kPa = 101.325
Property: Mass density, kg/m3 (Liquid); method: Pycnometric method
Temperature, K	Mass density, kg/m3	uncertainty
298.15	1094.75	2.56
303.15	1090.76	2.56
308.15	1086.06	2.58
313.15	1080.45	2.58
318.15	1075.26	2.56

System: dimethyl sulfoxide + N-phenylbenzohydroxamic acid; phases: Liquid
Fixed: Pressure, kPa = 101
Property: Viscosity, Pa*s (Liquid); method: CAPTUB:UFactor:8
Mole fraction of N-phenylbenzohydroxamic acid	Temperature, K	Viscosity, Pa*s	uncertainty
0.0469	298.15	0.002491	0.000118
0.0469	303.15	0.0021026	0.00010104
0.0469	308.15	0.0018667	9.05e-05
0.0469	313.15	0.0016653	8.14e-05
0.0469	318.15	0.0012957	6.48e-05
0.0938	298.15	0.0025739	0.0001217
0.0938	303.15	0.0021314	0.00010204
0.0938	308.15	0.0019207	9.26e-05
0.0938	313.15	0.0017068	8.31e-05
0.0938	318.15	0.0013124	6.54e-05
0.1408	298.15	0.0027135	0.0001275
0.1408	303.15	0.002294	0.00010896
0.1408	308.15	0.0020651	9.88e-05
0.1408	313.15	0.0017989	8.69e-05
0.1408	318.15	0.0013777	6.81e-05
0.1877	298.15	0.0027519	0.0001289
0.1877	303.15	0.0023247	0.00011002
0.1877	308.15	0.0020711	9.88e-05
0.1877	313.15	0.001826	8.8e-05
0.1877	318.15	0.0014186	6.98e-05
0.2347	298.15	0.0027752	0.0001295
0.2347	303.15	0.0024027	0.00011316
0.2347	308.15	0.0020879	9.93e-05
0.2347	313.15	0.001838	8.8e-05
0.2347	318.15	0.0014293	7.01e-05
0.2816	298.15	0.0028596	0.0001329
0.2816	303.15	0.0024166	0.00011347
0.2816	308.15	0.0021468	0.0001016
0.2816	313.15	0.0018906	9.03e-05
0.2816	318.15	0.0014712	7.18e-05
0.3286	298.15	0.0029875	0.0001381
0.3286	303.15	0.002478	0.00011587
0.3286	308.15	0.002228	0.000105
0.3286	313.15	0.001958	9.3e-05
0.3286	318.15	0.00152	7e-05
0.3755	298.15	0.0030235	0.0001393
0.3755	303.15	0.0025097	0.00011697
0.3755	308.15	0.0022478	0.0001055
0.3755	313.15	0.0019974	9.46e-05
0.3755	318.15	0.0015425	7.46e-05
0.4225	298.15	0.0030857	0.0001417
0.4225	303.15	0.0025372	0.00011788
0.4225	308.15	0.0022754	0.0001065
0.4225	313.15	0.0020043	9.47e-05
0.4225	318.15	0.0015497	7.47e-05
0.4694	298.15	0.0031369	0.0001435
0.4694	303.15	0.002582	0.00011956
0.4694	308.15	0.0023327	0.0001087
0.4694	313.15	0.0020149	9.49e-05
0.4694	318.15	0.0015652	7.53e-05

System: dimethyl sulfoxide + N-phenylbenzohydroxamic acid; phases: Liquid
Fixed: Pressure, kPa = 101
Property: Mass density, kg/m3 (Liquid); method: Pycnometric method
Amount concentration (molarity), mol/dm3 of N-phenylbenzohydroxamic acid	Temperature, K	Mass density, kg/m3	uncertainty
0.0469	298.15	1097.23	2.52
0.0469	303.15	1093.69	2.54
0.0469	308.15	1089.07	2.54
0.0469	313.15	1084.72	2.56
0.0469	318.15	1078.8	2.58
0.0938	298.15	1098.39	2.51
0.0938	303.15	1094.33	2.51
0.0938	308.15	1090.08	2.5
0.0938	313.15	1086.26	2.52
0.0938	318.15	1080.58	2.56
0.1408	298.15	1098.59	2.48
0.1408	303.15	1094.95	2.47
0.1408	308.15	1091.61	2.48
0.1408	313.15	1086.93	2.51
0.1408	318.15	1081.55	2.51
0.1877	298.15	1099.36	2.44
0.1877	303.15	1096.03	2.45
0.1877	308.15	1091.83	2.46
0.1877	313.15	1087.56	2.47
0.1877	318.15	1082.82	2.48
0.2347	298.15	1100.14	2.41
0.2347	303.15	1097.27	2.42
0.2347	308.15	1093.14	2.45
0.2347	313.15	1088.34	2.46
0.2347	318.15	1083.33	2.45
0.2816	298.15	1100.75	2.38
0.2816	303.15	1098.29	2.4
0.2816	308.15	1094.08	2.42
0.2816	313.15	1089.59	2.44
0.2816	318.15	1084.33	2.44
0.3286	298.15	1101.46	2.35
0.3286	303.15	1098.91	2.36
0.3286	308.15	1095.64	2.4
0.3286	313.15	1090.74	2.42
0.3286	318.15	1085.8	2.42
0.3755	298.15	1102.02	2.32
0.3755	303.15	1099.88	2.34
0.3755	308.15	1096.52	2.37
0.3755	313.15	1091.97	2.4
0.3755	318.15	1086.86	2.4
0.4225	298.15	1102.75	2.3
0.4225	303.15	1100.55	2.31
0.4225	308.15	1097.67	2.34
0.4225	313.15	1093.11	2.38
0.4225	318.15	1087.92	2.38
0.4694	298.15	1102.8	2.27
0.4694	303.15	1100.96	2.28
0.4694	308.15	1098.81	2.31
0.4694	313.15	1094.24	2.36
0.4694	318.15	1089.02	2.37
