Measured thermophysical data. Liquid-Liquid Equilibrium of Ternary Systems of Cyclohexane + (Benzene, + Toluene, + Ethylbenzene, or + o-Xylene) + 4-Methyl-N-butyl Pyridinium Tetrafluoroborate Ionic Liquid at 303.15 K
Source: J. Chem. Eng. Data, 2008, 10.1021/je7007268
Compound 1: 1-butyl-4-methylpyridinium tetrafluoroborate, C10H16BF4N, InChI=1S/C10H16N.BF4/c1-3-4-7-11-8-5-10(2)6-9-11;2-1(3,4)5/h5-6,8-9H,3-4,7H2,1-2H3;/q+1;-1, purity 99.5%
Compound 2: benzene, C6H6, InChI=1S/C6H6/c1-2-4-6-5-3-1/h1-6H, purity 99%
Compound 3: toluene, C7H8, InChI=1S/C7H8/c1-7-5-3-2-4-6-7/h2-6H,1H3, purity 99.5%
Compound 4: ethylbenzene, C8H10, InChI=1S/C8H10/c1-2-8-6-4-3-5-7-8/h3-7H,2H2,1H3, purity 99%
Compound 5: 1,2-dimethylbenzene, C8H10, InChI=1S/C8H10/c1-7-5-3-4-6-8(7)2/h3-6H,1-2H3, purity 98.1%
Compound 6: cyclohexane, C6H12, InChI=1S/C6H12/c1-2-4-6-5-3-1/h1-6H2, purity 99.5%

System: benzene + cyclohexane + 1-butyl-4-methylpyridinium tetrafluoroborate; phases: Liquid mixture 1, Liquid mixture 2
Fixed: Temperature, K = 303.15
Fixed: Pressure, kPa = 101.3
Property: Mole fraction of benzene (Liquid mixture 1); method: Chromatography
Property: Mole fraction of cyclohexane (Liquid mixture 2); method: Chromatography
Property: Mole fraction of benzene (Liquid mixture 2); method: Chromatography
Mole fraction of cyclohexane	Mole fraction of benzene	uncertainty	Mole fraction of cyclohexane	uncertainty	Mole fraction of benzene	uncertainty
0.9778	0	0.0001	0.0119	0.0004	0	
0.901	0.0777	0.0311	0.0117	0.0004	0.0285	
0.8459	0.1523	0.0296	0.0103	0.0003	0.0487	
0.7673	0.2327	0.024	0.0126	0.0004	0.081	
0.7051	0.2925	0.0199	0.0129	0.0004	0.1029	
0.6452	0.3347	0.0215	0.0145	0.0005	0.1173	
0.6187	0.3813	0.0233	0.0139	0.0005	0.1332	
0.566	0.4241	0.0194	0.0137	0.0004	0.143	
0.5255	0.4603	0.0199	0.0144	0.0005	0.1538	
0.4914	0.4903	0.0204	0.0135	0.0005	0.1723	
0.4052	0.5718	0.0204	0.0124	0.0004	0.1923	
0.3476	0.616	0.0216	0.0125	0.0004	0.2017	
0.2818	0.6999	0.0231	0.012	0.0004	0.2427	
0.2089	0.7698	0.0239	0.0102	0.0006	0.2696	

System: benzene + cyclohexane + 1-butyl-4-methylpyridinium tetrafluoroborate; phases: Liquid
Fixed: Temperature, K = 303.15
Fixed: Pressure, kPa = 101.3
Property: Mass density, kg/m3 (Liquid); method: Pycnometric method
Mole fraction of cyclohexane	Mole fraction of benzene	Mass density, kg/m3	uncertainty
0.0102	0.2696	10.669	0.153
0.0103	0.0487	11.487	0.051
0.0117	0.0285	11.588	0.051
0.0119	0	11.672	0.05
0.012	0.2427	11.146	0.051
0.0124	0.1923	11.145	0.065
0.0125	0.2017	10.749	0.26
0.0126	0.081	11.434	0.051
0.0129	0.1029	11.357	0.053
0.0135	0.1723	11.028	0.054
0.0137	0.143	11.141	0.065
0.0139	0.1332	11.201	0.052
0.0144	0.1538	11.006	0.053
0.0145	0.1173	11.231	0.053
0.2089	0.7698	8.398	0.055
0.2818	0.6999	8.316	0.057
0.3476	0.616	8.217	0.054
0.4052	0.5718	8.127	0.143
0.4914	0.4903	8.089	0.054
0.5255	0.4603	8.061	0.054
0.566	0.4241	8.027	0.093
0.6187	0.3813	7.975	0.053
0.6452	0.3347	7.929	0.097
0.7051	0.2925	7.897	0.055
0.7673	0.2327	7.839	0.117
0.8459	0.1523	7.787	0.112
0.901	0.0777	7.742	0.124
0.9778	0	7.678	0.105

System: toluene + cyclohexane + 1-butyl-4-methylpyridinium tetrafluoroborate; phases: Liquid mixture 1, Liquid mixture 2
Fixed: Temperature, K = 303.15
Fixed: Pressure, kPa = 101.3
Property: Mole fraction of toluene (Liquid mixture 1); method: Chromatography
Property: Mole fraction of cyclohexane (Liquid mixture 2); method: Chromatography
Property: Mole fraction of toluene (Liquid mixture 2); method: Chromatography
Mole fraction of cyclohexane	Mole fraction of toluene	uncertainty	Mole fraction of cyclohexane	uncertainty	Mole fraction of toluene	uncertainty
0.9784	0	0.0001	0.0133	0.0004	0	
0.9	0.0848	0.0238	0.012	0.0004	0.0182	
0.8133	0.1453	0.0215	0.012	0.0004	0.0301	
0.7572	0.2103	0.0286	0.0097	0.0003	0.0407	
0.7129	0.2689	0.0315	0.0117	0.0004	0.0533	
0.6807	0.3193	0.0272	0.0101	0.0003	0.0615	
0.6436	0.3556	0.0208	0.0105	0.0007	0.0743	
0.5983	0.3949	0.0216	0.01	0.0007	0.076	
0.5702	0.4298	0.0177	0.01	0.0003	0.0883	
0.4946	0.47	0.0205	0.01	0.0003	0.0927	
0.2938	0.6901	0.0231	0.0078	0.0065	0.1536	
0.2557	0.7337	0.0232	0.0064	0.0064	0.1546	
0.1815	0.7948	0.0242	0.0064	0.0002	0.1904	
0.1097	0.8378	0.0252	0.0049	0.0004	0.2184	

System: toluene + cyclohexane + 1-butyl-4-methylpyridinium tetrafluoroborate; phases: Liquid
Fixed: Temperature, K = 303.15
Fixed: Pressure, kPa = 101.3
Property: Mass density, kg/m3 (Liquid); method: Pycnometric method
Mole fraction of cyclohexane	Mole fraction of toluene	Mass density, kg/m3	uncertainty
0.0049	0.2184	8.417	0.054
0.0064	0.1546	8.264	0.053
0.0064	0.1904	8.344	0.053
0.0078	0.1536	8.225	0.053
0.0097	0.0407	7.829	0.052
0.01	0.076	7.958	0.06
0.01	0.0883	7.99	0.053
0.01	0.0927	8.031	0.058
0.0101	0.0615	7.887	0.052
0.0105	0.0743	7.934	0.06
0.0117	0.0533	7.849	0.052
0.012	0.0182	7.707	0.052
0.012	0.0301	7.765	0.052
0.0133	0	7.675	0.052
0.1097	0.8378	8.417	0.052
0.1815	0.7948	8.344	0.052
0.2557	0.7337	8.264	0.052
0.2938	0.6901	8.225	0.052
0.4946	0.47	8.031	0.053
0.5702	0.4298	7.99	0.053
0.5983	0.3949	7.958	0.054
0.6436	0.3556	7.934	0.059
0.6807	0.3193	7.887	0.059
0.7129	0.2689	7.849	0.054
0.7572	0.2103	7.829	0.054
0.8133	0.1453	7.765	0.053
0.9	0.0848	7.707	0.06
0.9784	0	7.675	0.052

System: ethylbenzene + cyclohexane + 1-butyl-4-methylpyridinium tetrafluoroborate; phases: Liquid mixture 1, Liquid mixture 2
Fixed: Pressure, kPa = 101.3
Fixed: Temperature, K = 303.15
Property: Mole fraction of ethylbenzene (Liquid mixture 1); method: Chromatography
Property: Mole fraction of cyclohexane (Liquid mixture 2); method: Chromatography
Property: Mole fraction of ethylbenzene (Liquid mixture 2); method: Chromatography
Mole fraction of cyclohexane	Mole fraction of ethylbenzene	uncertainty	Mole fraction of cyclohexane	uncertainty	Mole fraction of ethylbenzene	uncertainty
0.984	0	0.0001	0.0126	0.0004	0	
0.8527	0.1214	0.0245	0.0114	0.0004	0.0131	
0.7752	0.1985	0.0244	0.0105	0.0003	0.0202	
0.7049	0.2719	0.0208	0.0101	0.0003	0.0292	
0.6304	0.3294	0.0209	0.0098	0.0003	0.0334	
0.5988	0.3792	0.0243	0.0128	0.0007	0.0466	
0.5573	0.4171	0.0174	0.0102	0.0009	0.049	
0.5003	0.4495	0.0543	0.0083	0.0034	0.0448	
0.4872	0.4953	0.0533	0.0088	0.0003	0.0535	
0.3994	0.5929	0.022	0.0077	0.0003	0.0714	
0.3244	0.6656	0.0217	0.0071	0.0004	0.0777	
0.278	0.6934	0.0229	0.0064	0.0007	0.0801	
0.2384	0.7618	0.0245	0.0059	0.0002	0.0937	
0.1825	0.813	0.0249	0.0051	0.0003	0.1022	

System: ethylbenzene + cyclohexane + 1-butyl-4-methylpyridinium tetrafluoroborate; phases: Liquid
Fixed: Temperature, K = 303.15
Fixed: Pressure, kPa = 101.3
Property: Mass density, kg/m3 (Liquid); method: Pycnometric method
Mole fraction of cyclohexane	Mole fraction of ethylbenzene	Mass density, kg/m3	uncertainty
0.0051	0.1022	11.224	0.059
0.0059	0.0937	11.304	0.052
0.0064	0.0801	11.148	0.051
0.0071	0.0777	11.304	0.07
0.0077	0.0714	11.352	0.052
0.0083	0.0448	11.123	0.055
0.0088	0.0535	11.458	0.051
0.0098	0.0334	11.227	0.055
0.0101	0.0292	11.516	0.05
0.0102	0.049	11.402	0.054
0.0105	0.0202	11.29	0.051
0.0114	0.0131	11.562	0.051
0.0126	0	11.599	0.05
0.0128	0.0466	11.486	0.058
0.1825	0.813	8.355	0.054
0.2383	0.7617	8.304	0.054
0.278	0.6934	8.245	0.054
0.3244	0.6656	8.215	0.054
0.3994	0.5929	8.141	0.053
0.4872	0.4953	8.083	0.053
0.5003	0.4495	8.067	0.053
0.5573	0.4171	8.016	0.053
0.5988	0.3792	7.963	0.054
0.6304	0.3294	7.919	0.053
0.7049	0.2719	7.876	0.053
0.7752	0.1985	7.814	0.109
0.8527	0.1214	7.761	0.115
0.984	0	7.676	0.083

System: 1,2-dimethylbenzene + cyclohexane + 1-butyl-4-methylpyridinium tetrafluoroborate; phases: Liquid mixture 1, Liquid mixture 2
Fixed: Pressure, kPa = 101.5
Fixed: Temperature, K = 303.15
Property: Mole fraction of 1,2-dimethylbenzene (Liquid mixture 1); method: Chromatography
Property: Mole fraction of cyclohexane (Liquid mixture 2); method: Chromatography
Property: Mole fraction of 1,2-dimethylbenzene (Liquid mixture 2); method: Chromatography
Mole fraction of cyclohexane	Mole fraction of 1,2-dimethylbenzene	uncertainty	Mole fraction of cyclohexane	uncertainty	Mole fraction of 1,2-dimethylbenzene	uncertainty
0.9679	0	0.0001	0.01	0.001	0	
0.8726	0.0833	0.0269	0.01	0.001	0.013	
0.8083	0.1652	0.0264	0.01	0.001	0.025	
0.748	0.2159	0.0231	0.01	0.001	0.034	
0.704	0.2688	0.0306	0.009	0.001	0.041	
0.6703	0.3252	0.0246	0.009	0.001	0.051	
0.6176	0.3677	0.0196	0.011	0.001	0.057	
0.5771	0.4057	0.0226	0.009	0.001	0.052	
0.5436	0.4564	0.0361	0.01	0.001	0.072	
0.551	0.4413	0.0279	0.01	0.001	0.066	
0.4949	0.4995	0.0213	0.01	0.001	0.077	
0.3227	0.6746	0.0231	0.007	0.003	0.099	
0.3015	0.6985	0.0231	0.007	0.001	0.115	
0.2651	0.7349	0.0235	0.005	0.003	0.101	
0.1662	0.8338	0.0255	0.004	0.001	0.144	
0.1267	0.8692	0.0261	0.004	0.001	0.15	
0.1237	0.8703	0.0262	0.005	0.001	0.144	

System: 1,2-dimethylbenzene + cyclohexane + 1-butyl-4-methylpyridinium tetrafluoroborate; phases: Liquid
Fixed: Temperature, K = 303.15
Fixed: Pressure, kPa = 101.3
Property: Mass density, kg/m3 (Liquid); method: Pycnometric method
Mole fraction of cyclohexane	Mole fraction of 1,2-dimethylbenzene	Mass density, kg/m3	uncertainty
0.004	0.144	11.166	0.051
0.004	0.15	11.158	0.051
0.005	0.101	11.198	0.051
0.005	0.144	11.157	0.051
0.007	0.099	11.275	0.051
0.007	0.115	11.251	0.051
0.009	0.041	11.5	0.051
0.009	0.051	11.474	0.073
0.009	0.052	11.44	0.073
0.01	0	11.634	0.051
0.01	0.013	11.571	0.051
0.01	0.025	11.516	0.051
0.01	0.034	11.504	0.051
0.01	0.066	11.412	0.051
0.01	0.072	11.437	0.051
0.01	0.077	11.362	0.061
0.011	0.057	11.457	0.051
0.1237	0.005	8.513	0.051
0.1267	0.004	8.494	0.051
0.1662	0.004	8.456	0.052
0.2651	0.005	8.338	0.053
0.3015	0.007	8.322	0.055
0.3227	0.007	8.276	0.056
0.4949	0.01	8.103	0.053
0.5436	0.01	8.022	0.054
0.551	0.01	8.044	0.054
0.5771	0.009	8.005	0.056
0.6176	0.011	7.97	0.054
0.6703	0.009	7.925	0.057
0.704	0.009	7.847	0.076
0.748	0.01	7.847	0.056
0.8083	0.01	7.793	0.055
0.8726	0.01	7.785	0.057
0.9679	0.01	7.652	0.066
