Measured thermophysical data. Phase Equilibrium of Aqueous Systems Containing 3-Methyl-1-vinylimidazolium Methyl Sulfate
Source: J. Chem. Eng. Data, 2007, 10.1021/je700253k
Compound 1: 3-ethenyl-1-methyl-1H-imidazol-3-ium methyl sulfate, C7H12N2O4S, InChI=1S/C6H9N2.CH4O4S/c1-3-8-5-4-7(2)6-8;1-5-6(2,3)4/h3-6H,1H2,2H3;1H3,(H,2,3,4)/q+1;/p-1
Compound 2: sodium sulfate, Na2O4S, InChI=1S/2Na.H2O4S/c;;1-5(2,3)4/h;;(H2,1,2,3,4)/q2*+1;/p-2, purity 99%
Compound 3: water, H2O, InChI=1S/H2O/h1H2

System: water + 3-ethenyl-1-methyl-1H-imidazol-3-ium methyl sulfate; phases: Liquid, Gas
Property: (Relative) activity of water (Liquid); method: isopiestic method
Temperature, K	Mass fraction of 3-ethenyl-1-methyl-1H-imidazol-3-ium methyl sulfate	(Relative) activity of water	uncertainty
298	0.1055	0.9856	0.006
298	0.1169	0.9822	0.006
298	0.1561	0.9772	0.006
298	0.1772	0.9732	0.006
298	0.1893	0.9694	0.006
298	0.2179	0.9677	0.006
298	0.2272	0.9644	0.006
298	0.2469	0.9578	0.006
298	0.2478	0.9599	0.006
298	0.269	0.9555	0.006
298	0.2904	0.9509	0.006
298	0.2954	0.9511	0.006
298	0.3388	0.9405	0.006
298	0.3584	0.9286	0.006
298	0.3853	0.9269	0.006
298	0.4015	0.9226	0.006
388	0.1257	0.9806	0.006
388	0.1303	0.9807	0.006
388	0.1476	0.9767	0.006
388	0.2277	0.9638	0.006
388	0.2749	0.9533	0.006
388	0.3155	0.9446	0.006
388	0.3482	0.9364	0.006

System: water + sodium sulfate + 3-ethenyl-1-methyl-1H-imidazol-3-ium methyl sulfate; phases: Liquid, Crystal
Fixed: Temperature, K = 338
Fixed: Pressure, kPa = 101
Property: Mass fraction of sodium sulfate (Liquid); method: Titration method
Mass fraction of 3-ethenyl-1-methyl-1H-imidazol-3-ium methyl sulfate	Mass fraction of sodium sulfate	uncertainty
0.0327	0.2951	0.0915
0.0794	0.2381	0.074
0.0951	0.2383	0.0741
0.1125	0.2133	0.067
0.1156	0.2092	0.0658
0.1583	0.1606	0.0928
0.1627	0.19	0.0997
0.196	0.1685	0.0548
0.2048	0.1337	0.0443
0.2246	0.1331	0.0413
0.3103	0.1033	0.0438
0.3215	0.0887	0.0414
0.3755	0.0745	0.0244
0.4253	0.0588	0.0208

System: water + sodium sulfate + 3-ethenyl-1-methyl-1H-imidazol-3-ium methyl sulfate; phases: Liquid, Crystal of intercomponent compound 1
Fixed: Temperature, K = 298
Fixed: Pressure, kPa = 101
Property: Mass fraction of sodium sulfate (Liquid); method: Titration method
Mass fraction of 3-ethenyl-1-methyl-1H-imidazol-3-ium methyl sulfate	Mass fraction of sodium sulfate	uncertainty
0.0322	0.2595	0.0805
0.0844	0.2074	0.0646
0.1165	0.1803	0.0567
0.1325	0.154	0.0483
0.178	0.1306	0.0414
0.204	0.1059	0.0345
0.2304	0.0934	0.0298
0.2717	0.0773	0.0773
0.2728	0.0943	0.0943
0.3206	0.0748	0.0259
0.3333	0.0633	0.0198
0.3733	0.0658	0.0212
0.432	0.0443	0.018
