Measured thermophysical data. High-Pressure Phase Behavior of Ethane with 1-Hexyl-3-methylimidazolium Bis(trifluoromethylsulfonyl)imide
Source: J. Chem. Eng. Data, 2008, 10.1021/je700691m
Compound 1: ethane, C2H6, InChI=1S/C2H6/c1-2/h1-2H3
Compound 2: 1-hexyl-3-methylimidazolium bis[(trifluoromethyl)sulfonyl]imide, C12H19F6N3O4S2, InChI=1S/C10H19N2.C2F6NO4S2/c1-3-4-5-6-7-12-9-8-11(2)10-12;3-1(4,5)14(10,11)9-15(12,13)2(6,7)8/h8-10H,3-7H2,1-2H3;/q+1;-1

System: ethane + 1-hexyl-3-methylimidazolium bis[(trifluoromethyl)sulfonyl]imide; phases: Liquid, Gas
Property: Vapor or sublimation pressure, kPa (Liquid); method: Closed cell (Static) method
Mole fraction of ethane	Temperature, K	Vapor or sublimation pressure, kPa	uncertainty
0.0501	298.17	388	16
0.0501	308.19	443	19
0.0501	318.15	493	21
0.0501	323.14	528	24
0.0501	328.25	558	26
0.0501	330.71	568	26
0.0501	338.19	618	28
0.0501	348.21	683	31
0.0501	358.2	748	33
0.0501	368.23	818	37
0.0995	293.37	738	19
0.0995	303.33	853	21
0.0995	313.39	973	27
0.0995	323.36	1093	28
0.0995	330.87	1193	30
0.0995	333.39	1223	30
0.0995	338.37	1288	33
0.0995	348.34	1423	36
0.0995	358.4	1558	41
0.0995	368.39	1708	43
0.2005	293.17	1648	20
0.2005	300.65	1853	23
0.2005	308.22	2078	25
0.2005	315.63	2303	29
0.2005	315.73	2303	29
0.2005	323.21	2513	31
0.2005	323.22	2513	31
0.2005	330.76	2748	34
0.2005	338.23	2998	38
0.2005	345.7	3238	41
0.2005	345.73	3228	41
0.2005	353.17	3478	51
0.2005	353.21	3478	51
0.2005	360.69	3718	47
0.2005	360.7	3708	47
0.2005	368.27	3963	51
0.2662	293.19	2253	23
0.2662	300.68	2553	27
0.2662	308.14	2853	31
0.2662	315.65	3213	35
0.2662	323.19	3573	41
0.2662	323.2	3573	41
0.2662	330.65	3933	46
0.2662	338.2	4313	51
0.2662	345.72	4693	57
0.2662	353.18	5093	63
0.2662	360.68	5453	68
0.2662	368.26	5833	74
0.3306	293.33	3031	28
0.3306	300.81	3496	33
0.3306	308.4	3991	41
0.3306	315.88	4501	48
0.3306	323.38	5066	56
0.3306	330.9	5631	65
0.3306	338.37	6210	74
0.3306	345.89	6810	82
0.3306	353.3	7415	90
0.3306	360.83	8015	98
0.3306	368.4	8611	90
0.3678	293.37	3562	111
0.3678	300.81	4172	118
0.3678	308.39	4853	126
0.3678	315.81	5608	132
0.3678	323.37	6412	138
0.3678	330.9	7243	144
0.3678	338.36	8083	150
0.3678	345.85	8893	155
0.3678	353.39	9683	161
0.3678	360.85	10433	134
0.4016	293.3	7000	205
0.4016	300.83	7755	213
0.4016	308.38	8506	218
0.4016	315.92	9236	216
0.4016	323.41	9981	214
0.4016	330.88	10736	210
0.4016	338.31	11491	206
0.4016	345.93	12280	204
0.4016	353.32	13066	205
0.4016	353.36	13070	205
0.4016	338.31	11501	206
