Measured thermophysical data. Ternary Liquid-Liquid Equilibria Ethanol + 2-Butanone + 1-Butyl-3-methylimidazolium Hexafluorophosphate, 2-Propanol + 2-Butanone + 1-Butyl-3-methylimidazolium Hexafluorophosphate, and 2-Butanone + 2-Propanol + 1,3-Dimethylimidazolium Methyl Sulfate at 298.15 K
Source: J. Chem. Eng. Data, 2007, 10.1021/je700119m
Compound 1: ethanol, C2H6O, InChI=1S/C2H6O/c1-2-3/h3H,2H2,1H3, purity 99.8%
Compound 2: butanone, C4H8O, InChI=1S/C4H8O/c1-3-4(2)5/h3H2,1-2H3, purity 99.5%
Compound 3: propan-2-ol, C3H8O, InChI=1S/C3H8O/c1-3(2)4/h3-4H,1-2H3, purity 99.7%
Compound 4: 1-butyl-3-methylimidazolium hexafluorophosphate, C8H15F6N2P, InChI=1S/C8H15N2.F6P/c1-3-4-5-10-7-6-9(2)8-10;1-7(2,3,4,5)6/h6-8H,3-5H2,1-2H3;/q+1;-1, purity 98%
Compound 5: 1,3-dimethylimidazolium methylsulfate, C6H12N2O4S, InChI=1S/C5H9N2.CH4O4S/c1-6-3-4-7(2)5-6;1-5-6(2,3)4/h3-5H,1-2H3;1H3,(H,2,3,4)/q+1;/p-1, purity 98%

System: ethanol; phases: Liquid
Property: Refractive index (Na D-line) (Liquid); method: Standard Abbe refractometry
Temperature, K	Pressure, kPa	Refractive index (Na D-line)	uncertainty
298.15	101.325	1.35929	0.00068

System: ethanol; phases: Liquid
Property: Mass density, kg/m3 (Liquid); method: VIBTUB:UFactor:2
Temperature, K	Pressure, kPa	Mass density, kg/m3	uncertainty
298.15	101.325	785.1	0.5

System: butanone; phases: Liquid
Property: Refractive index (Na D-line) (Liquid); method: Standard Abbe refractometry
Temperature, K	Pressure, kPa	Refractive index (Na D-line)	uncertainty
298.15	101.325	1.37618	0.00068

System: butanone; phases: Liquid
Property: Mass density, kg/m3 (Liquid); method: VIBTUB:UFactor:4
Temperature, K	Pressure, kPa	Mass density, kg/m3	uncertainty
298.15	101.325	799.7	0.6

System: propan-2-ol; phases: Liquid
Property: Refractive index (Na D-line) (Liquid); method: Standard Abbe refractometry
Temperature, K	Pressure, kPa	Refractive index (Na D-line)	uncertainty
298.15	101.325	1.37496	0.00068

System: propan-2-ol; phases: Liquid
Property: Mass density, kg/m3 (Liquid); method: Vibrating tube method
Temperature, K	Pressure, kPa	Mass density, kg/m3	uncertainty
298.15	101.325	781	0.4

System: 1-butyl-3-methylimidazolium hexafluorophosphate; phases: Liquid
Property: Refractive index (Na D-line) (Liquid); method: Standard Abbe refractometry
Temperature, K	Pressure, kPa	Refractive index (Na D-line)	uncertainty
298.15	101.325	1.40937	0.00078

System: 1-butyl-3-methylimidazolium hexafluorophosphate; phases: Liquid
Property: Mass density, kg/m3 (Liquid); method: VIBTUB:UFactor:8
Temperature, K	Pressure, kPa	Mass density, kg/m3	uncertainty
298.15	101.325	1367.3	2.9

System: 1,3-dimethylimidazolium methylsulfate; phases: Liquid
Property: Refractive index (Na D-line) (Liquid); method: Standard Abbe refractometry
Temperature, K	Pressure, kPa	Refractive index (Na D-line)	uncertainty
298.15	101.325	1.4827	0.00078

System: 1,3-dimethylimidazolium methylsulfate; phases: Liquid
Property: Mass density, kg/m3 (Liquid); method: VIBTUB:UFactor:8
Temperature, K	Pressure, kPa	Mass density, kg/m3	uncertainty
298.15	101.325	1327.2	2.7

System: propan-2-ol + butanone + 1-butyl-3-methylimidazolium hexafluorophosphate; phases: Liquid mixture 1, Liquid mixture 2
Fixed: Temperature, K = 298.15
Fixed: Pressure, kPa = 101.3
Property: Mole fraction of butanone (Liquid mixture 1); method: Chromatography
Property: Mole fraction of butanone (Liquid mixture 2); method: Chromatography
Property: Mole fraction of propan-2-ol (Liquid mixture 2); method: Chromatography
Mole fraction of propan-2-ol	Mole fraction of butanone	uncertainty	Mole fraction of butanone	uncertainty	Mole fraction of propan-2-ol	uncertainty
0.967	0.033	0.01	0.041	0.01	0.344	
0.949	0.049	0.013	0.07	0.01	0.347	
0.938	0.059	0.014	0.104	0.01	0.351	
0.928	0.069	0.014	0.131	0.067	0.355	
0.91	0.086	0.014	0.165	0.046	0.362	
0.889	0.105	0.014	0.179	0.043	0.365	
0.871	0.122	0.014	0.218	0.017	0.376	
0.851	0.14	0.012	0.243	0.014	0.407	
0.821	0.159	0.012	0.273	0.011	0.435	
0.776	0.185	0.012	0.28	0.01	0.489	
0.718	0.221	0.01	0.281	0.01	0.561	

System: propan-2-ol + butanone + 1,3-dimethylimidazolium methylsulfate; phases: Liquid mixture 1, Liquid mixture 2
Fixed: Temperature, K = 298.15
Fixed: Pressure, kPa = 101.3
Property: Mole fraction of propan-2-ol (Liquid mixture 1); method: Chromatography
Property: Mole fraction of propan-2-ol (Liquid mixture 2); method: Chromatography
Property: Mole fraction of butanone (Liquid mixture 2); method: Chromatography
Mole fraction of butanone	Mole fraction of propan-2-ol	uncertainty	Mole fraction of propan-2-ol	uncertainty	Mole fraction of butanone	uncertainty
0.936	0.058	0.01	0.025	0.01	0.29	
0.878	0.112	0.014	0.058	0.01	0.294	
0.835	0.153	0.013	0.084	0.016	0.314	
0.81	0.172	0.012	0.11	0.016	0.337	
0.778	0.189	0.011	0.145	0.012	0.365	
0.73	0.207	0.011	0.174	0.011	0.424	
0.687	0.22	0.01	0.204	0.01	0.494	

System: ethanol + butanone + 1-butyl-3-methylimidazolium hexafluorophosphate; phases: Liquid mixture 1, Liquid mixture 2
Fixed: Temperature, K = 298.15
Fixed: Pressure, kPa = 101.3
Property: Mole fraction of butanone (Liquid mixture 1); method: Chromatography
Property: Mole fraction of butanone (Liquid mixture 2); method: Chromatography
Property: Mole fraction of ethanol (Liquid mixture 2); method: Chromatography
Mole fraction of ethanol	Mole fraction of butanone	uncertainty	Mole fraction of butanone	uncertainty	Mole fraction of ethanol	uncertainty
0.973	0.019	0.01	0.025	0.01	0.533	
0.965	0.024	0.01	0.041	0.013	0.543	
0.957	0.031	0.012	0.054	0.012	0.568	
0.946	0.037	0.012	0.067	0.011	0.585	
0.91	0.062	0.011	0.087	0.01	0.647	
0.869	0.076	0.01	0.104	0.01	0.718	
