Measured thermophysical data. Surface Tension of Binary Mixtures of N-Methyldiethanolamine and Triethanolamine with Ethanol
Source: J. Chem. Eng. Data, 2008, 10.1021/je700647x
Compound 1: N-methyldiethanolamine, C5H13NO2, InChI=1S/C5H13NO2/c1-6(2-4-7)3-5-8/h7-8H,2-5H2,1H3
Compound 2: triethanolamine, C6H15NO3, InChI=1S/C6H15NO3/c8-4-1-7(2-5-9)3-6-10/h8-10H,1-6H2
Compound 3: ethanol, C2H6O, InChI=1S/C2H6O/c1-2-3/h3H,2H2,1H3

System: N-methyldiethanolamine; phases: Liquid, Air at 1 atmosphere
Property: Surface tension liquid-gas, N/m (Liquid); method: Ring tensiometer
Temperature, K	Surface tension liquid-gas, N/m	uncertainty
288.15	0.03999	0.00067
293.15	0.03926	0.00066
298.15	0.03892	0.00066
303.15	0.03808	0.00064
308.15	0.03763	0.00064
313.15	0.03725	0.00063

System: triethanolamine; phases: Liquid, Air at 1 atmosphere
Property: Surface tension liquid-gas, N/m (Liquid); method: Ring tensiometer
Temperature, K	Surface tension liquid-gas, N/m	uncertainty
288.15	0.04764	0.00079
293.15	0.04677	0.00078
298.15	0.04588	0.00076
303.15	0.04516	0.00075
308.15	0.04442	0.00074
313.15	0.0434	0.00073

System: ethanol; phases: Liquid, Air at 1 atmosphere
Property: Surface tension liquid-gas, N/m (Liquid); method: Ring tensiometer
Temperature, K	Surface tension liquid-gas, N/m	uncertainty
298.15	0.02185	0.00035

System: ethanol + N-methyldiethanolamine; phases: Liquid, Air at 1 atmosphere
Property: Surface tension liquid-gas, N/m (Liquid); method: Ring tensiometer
Temperature, K	Mole fraction of N-methyldiethanolamine	Surface tension liquid-gas, N/m	uncertainty
288.15	0.0253	0.02345	0.00038
288.15	0.0321	0.02358	0.00038
288.15	0.1033	0.02492	0.0004
288.15	0.1629	0.02603	0.00042
288.15	0.1705	0.02618	0.00042
288.15	0.2474	0.02758	0.00044
288.15	0.3713	0.02985	0.00048
288.15	0.4806	0.0318	0.00051
288.15	0.5506	0.03302	0.00053
288.15	0.7035	0.03558	0.00058
288.15	0.7452	0.03625	0.00059
288.15	0.8227	0.03751	0.00062
288.15	0.9368	0.03911	0.00066
288.15	1	0.03999	0.00067
293.15	0.0253	0.02311	0.00037
293.15	0.0321	0.02324	0.00038
293.15	0.1033	0.02459	0.0004
293.15	0.1629	0.0257	0.00041
293.15	0.1705	0.02583	0.00042
293.15	0.2474	0.02724	0.00044
293.15	0.3713	0.02947	0.00047
293.15	0.4806	0.0314	0.0005
293.15	0.5506	0.0326	0.00053
293.15	0.7035	0.03506	0.00057
293.15	0.7452	0.03571	0.00059
293.15	0.8227	0.03691	0.00061
293.15	0.9368	0.03842	0.00065
293.15	1	0.03926	0.00066
298.15	0	0.02185	0.00035
298.15	0.0253	0.02279	0.00039
298.15	0.0321	0.02292	0.00037
298.15	0.1033	0.02432	0.00039
298.15	0.1629	0.02545	0.00041
298.15	0.1705	0.02559	0.00041
298.15	0.2474	0.02702	0.00043
298.15	0.3713	0.02928	0.00047
298.15	0.4806	0.03118	0.0005
298.15	0.5506	0.03239	0.00052
298.15	0.7035	0.03492	0.00057
298.15	0.7452	0.03558	0.00058
298.15	0.8227	0.03671	0.00061
298.15	0.9368	0.0381	0.00064
298.15	1	0.03892	0.00066
303.15	0.0253	0.02249	0.00037
303.15	0.0321	0.02263	0.00037
303.15	0.1033	0.02406	0.00039
303.15	0.1629	0.02526	0.00041
303.15	0.1705	0.02538	0.0004
303.15	0.2474	0.02679	0.00043
303.15	0.3713	0.02895	0.00046
303.15	0.4806	0.03084	0.0005
303.15	0.5506	0.03201	0.00052
303.15	0.7035	0.03448	0.00056
303.15	0.7452	0.03508	0.00058
303.15	0.8227	0.03609	0.0006
303.15	0.9368	0.03739	0.00063
303.15	1	0.03808	0.00064
308.15	0.0253	0.02216	0.00036
308.15	0.0321	0.02227	0.00037
308.15	0.1033	0.02377	0.00039
308.15	0.1629	0.02494	0.0004
308.15	0.1705	0.02508	0.00041
308.15	0.2474	0.02653	0.00043
308.15	0.3713	0.02875	0.00046
308.15	0.4806	0.03062	0.00049
308.15	0.5506	0.03178	0.00051
308.15	0.7035	0.03424	0.00056
308.15	0.7452	0.03484	0.00057
308.15	0.8227	0.0358	0.00059
308.15	0.9368	0.037	0.00062
308.15	1	0.03763	0.00064
313.15	0.0253	0.02192	0.00036
313.15	0.0321	0.02204	0.00036
313.15	0.1033	0.02358	0.00038
313.15	0.1629	0.02481	0.0004
313.15	0.1705	0.02498	0.00041
313.15	0.2474	0.02644	0.00042
313.15	0.3713	0.02863	0.00046
313.15	0.4806	0.03049	0.00049
313.15	0.5506	0.03166	0.00051
313.15	0.7035	0.03407	0.00056
313.15	0.7452	0.03466	0.00057
313.15	0.8227	0.03557	0.00059
313.15	0.9368	0.03673	0.00062
313.15	1	0.03725	0.00063

System: ethanol + triethanolamine; phases: Liquid, Air at 1 atmosphere
Property: Surface tension liquid-gas, N/m (Liquid); method: Ring tensiometer
Temperature, K	Mole fraction of triethanolamine	Surface tension liquid-gas, N/m	uncertainty
288.15	0.0795	0.0241	0.00039
288.15	0.1461	0.0254	0.00041
288.15	0.2209	0.02712	0.00044
288.15	0.3266	0.02968	0.00048
288.15	0.4581	0.03317	0.00053
288.15	0.6263	0.03765	0.00061
288.15	0.7725	0.04156	0.00068
288.15	0.8489	0.04357	0.00072
288.15	0.9304	0.04578	0.00076
288.15	1	0.04764	0.00079
293.15	0.0795	0.02369	0.00038
293.15	0.1461	0.02502	0.0004
293.15	0.2209	0.02677	0.00043
293.15	0.3266	0.02934	0.00047
293.15	0.4581	0.03272	0.00053
293.15	0.6263	0.03711	0.0006
293.15	0.7725	0.04089	0.00067
293.15	0.8489	0.04286	0.00071
293.15	0.9304	0.04496	0.00075
293.15	1	0.04677	0.00078
298.15	0	0.02185	0.00035
298.15	0.0795	0.02332	0.00038
298.15	0.1461	0.0247	0.0004
298.15	0.2209	0.02642	0.00043
298.15	0.3266	0.02897	0.00047
298.15	0.4581	0.03229	0.00052
298.15	0.6263	0.03657	0.00059
298.15	0.7725	0.04024	0.00066
298.15	0.8489	0.04216	0.0007
298.15	0.9304	0.04422	0.00074
298.15	1	0.04588	0.00076
303.15	0.0795	0.02302	0.00038
303.15	0.1461	0.02441	0.0004
303.15	0.2209	0.02611	0.00042
303.15	0.3266	0.02861	0.00046
303.15	0.4581	0.03187	0.00051
303.15	0.6263	0.03602	0.00058
303.15	0.7725	0.03961	0.00065
303.15	0.8489	0.04147	0.00069
303.15	0.9304	0.04347	0.00073
303.15	1	0.04516	0.00075
308.15	0.0795	0.02271	0.00037
308.15	0.1461	0.02412	0.00039
308.15	0.2209	0.02578	0.00042
308.15	0.3266	0.02821	0.00046
308.15	0.4581	0.03142	0.00051
308.15	0.6263	0.03548	0.00058
308.15	0.7725	0.039	0.00064
308.15	0.8489	0.04083	0.00068
308.15	0.9304	0.04277	0.00071
308.15	1	0.04442	0.00074
313.15	0.0795	0.02235	0.00037
313.15	0.1461	0.02381	0.00039
313.15	0.2209	0.02546	0.00041
313.15	0.3266	0.02779	0.00045
313.15	0.4581	0.03089	0.0005
313.15	0.6263	0.03482	0.00057
313.15	0.7725	0.03821	0.00063
313.15	0.8489	0.03997	0.00066
313.15	0.9304	0.04184	0.0007
313.15	1	0.0434	0.00073
