Measured thermophysical data. Solubility of 1-Alkyl-3-ethylimidazolium-Based Ionic Liquids in Water and 1-Octanol
Source: J. Chem. Eng. Data, 2008, 10.1021/je700693z
Compound 1: 1,3-diethylimidazolium bis[(trifluoromethyl)sulfonyl]imide, C9H13F6N3O4S2, InChI=1S/C7H13N2.C2F6NO4S2/c1-3-8-5-6-9(4-2)7-8;3-1(4,5)14(10,11)9-15(12,13)2(6,7)8/h5-7H,3-4H2,1-2H3;/q+1;-1
Compound 2: 1-butyl-3-ethylimidazolium bis[(trifluoromethyl)sulfonyl]imide, C11H17F6N3O4S2, InChI=1S/C9H17N2.C2F6NO4S2/c1-3-5-6-11-8-7-10(4-2)9-11;3-1(4,5)14(10,11)9-15(12,13)2(6,7)8/h7-9H,3-6H2,1-2H3;/q+1;-1
Compound 3: 1-hexyl-3-ethylimidazolium bis(trifluoromethylsulfonyl)imide, C13H21F6N3O4S2, InChI=1S/C11H21N2.C2F6NO4S2/c1-3-5-6-7-8-13-10-9-12(4-2)11-13;3-1(4,5)14(10,11)9-15(12,13)2(6,7)8/h9-11H,3-8H2,1-2H3;/q+1;-1
Compound 4: 1-butyl-3-ethylimidazolium hexafluorophosphate, C9H17F6N2P, InChI=1S/C9H17N2.F6P/c1-3-5-6-11-8-7-10(4-2)9-11;1-7(2,3,4,5)6/h7-9H,3-6H2,1-2H3;/q+1;-1
Compound 5: water, H2O, InChI=1S/H2O/h1H2
Compound 6: octan-1-ol, C8H18O, InChI=1S/C8H18O/c1-2-3-4-5-6-7-8-9/h9H,2-8H2,1H3

System: 1,3-diethylimidazolium bis[(trifluoromethyl)sulfonyl]imide; phases: Crystal, Liquid, Air at 1 atmosphere
Property: Molar enthalpy of transition or fusion, kJ/mol (Crystal); method: DSC
Molar enthalpy of transition or fusion, kJ/mol	uncertainty
20.4	0.8

System: 1,3-diethylimidazolium bis[(trifluoromethyl)sulfonyl]imide; phases: Glass, Liquid, Air at 1 atmosphere
Property: Triple point temperature, K (Glass); method: DTA
Triple point temperature, K	uncertainty
205.9	3

System: 1,3-diethylimidazolium bis[(trifluoromethyl)sulfonyl]imide; phases: Crystal, Liquid, Air at 1 atmosphere
Property: Normal melting temperature, K (Crystal); method: DTA
Normal melting temperature, K	uncertainty
262.6	0.4

System: 1,3-diethylimidazolium bis[(trifluoromethyl)sulfonyl]imide; phases: Liquid
Property: Mass density, kg/m3 (Liquid); method: Vibrating tube method
Temperature, K	Pressure, kPa	Mass density, kg/m3	uncertainty
298.15	101.325	1476	15.4

System: 1-butyl-3-ethylimidazolium bis[(trifluoromethyl)sulfonyl]imide; phases: Glass, Liquid, Air at 1 atmosphere
Property: Triple point temperature, K (Glass); method: DTA
Triple point temperature, K	uncertainty
180.9	3

System: 1-butyl-3-ethylimidazolium bis[(trifluoromethyl)sulfonyl]imide; phases: Liquid
Property: Mass density, kg/m3 (Liquid); method: Vibrating tube method
Temperature, K	Pressure, kPa	Mass density, kg/m3	uncertainty
298.15	101.325	1401.8	13.9

System: 1-hexyl-3-ethylimidazolium bis(trifluoromethylsulfonyl)imide; phases: Glass, Liquid, Air at 1 atmosphere
Property: Triple point temperature, K (Glass); method: DTA
Triple point temperature, K	uncertainty
184.8	3

System: 1-hexyl-3-ethylimidazolium bis(trifluoromethylsulfonyl)imide; phases: Liquid
Property: Mass density, kg/m3 (Liquid); method: Vibrating tube method
Temperature, K	Pressure, kPa	Mass density, kg/m3	uncertainty
298.15	101.325	1345.4	12.8

System: 1-butyl-3-ethylimidazolium hexafluorophosphate; phases: Glass, Liquid, Air at 1 atmosphere
Property: Triple point temperature, K (Glass); method: DTA
Triple point temperature, K	uncertainty
192.9	3

System: 1-butyl-3-ethylimidazolium hexafluorophosphate; phases: Liquid
Property: Mass density, kg/m3 (Liquid); method: Vibrating tube method
Temperature, K	Pressure, kPa	Mass density, kg/m3	uncertainty
298.15	101.325	1327.6	12.4

System: water + 1,3-diethylimidazolium bis[(trifluoromethyl)sulfonyl]imide; phases: Liquid mixture 1, Liquid mixture 2
Fixed: Pressure, kPa = 101
Property: Liquid-liquid equilibrium temperature, K (Liquid mixture 1); method: VISOBS:UFactor:128
Mole fraction of 1,3-diethylimidazolium bis[(trifluoromethyl)sulfonyl]imide	Liquid-liquid equilibrium temperature, K	uncertainty
0.0247	372.5	22.2
0.0321	446.6	22.2
0.1193	441.9	19.8
0.1335	437.1	19.8
0.1468	432.6	19.8
0.164	424.5	19.8
0.1815	417	19.8
0.2173	410.6	19.8
0.2307	407.4	19.8
0.2838	397.8	19.8
0.3137	388.2	19.8
0.3496	377.1	19.8
0.3699	364.8	19.8
0.3958	354.6	19.8
0.4131	349.9	19.8
0.4613	347.5	19.8
0.4937	345.3	19.8
0.5487	340.7	19.8
0.5771	338.4	19.8
0.6019	333.2	19.8
0.6483	325.9	19.8
0.6707	323	19.8
0.6991	320.3	19.8
0.8154	284.5	19.8
0.8797	268.8	19.8

System: water + 1-butyl-3-ethylimidazolium bis[(trifluoromethyl)sulfonyl]imide; phases: Liquid mixture 1, Liquid mixture 2
Fixed: Pressure, kPa = 101
Property: Liquid-liquid equilibrium temperature, K (Liquid mixture 1); method: VISOBS:UFactor:8
Mole fraction of 1-butyl-3-ethylimidazolium bis[(trifluoromethyl)sulfonyl]imide	Liquid-liquid equilibrium temperature, K	uncertainty
0.00015	308.35	1.51
0.00019	319.65	1.51
0.00023	332.25	1.51
0.00027	343.55	1.51
0.00033	353.35	1.51
0.4945	366.75	1.53
0.5437	355.71	1.53
0.5955	343.79	1.53
0.6496	332.2	1.5
0.6983	320.05	1.53
0.7531	305.04	1.53
0.7764	298.75	1.53

System: water + 1-hexyl-3-ethylimidazolium bis(trifluoromethylsulfonyl)imide; phases: Liquid mixture 1, Liquid mixture 2
Fixed: Pressure, kPa = 101
Property: Liquid-liquid equilibrium temperature, K (Liquid mixture 1); method: VISOBS:UFactor:8
Mole fraction of 1-hexyl-3-ethylimidazolium bis(trifluoromethylsulfonyl)imide	Liquid-liquid equilibrium temperature, K	uncertainty
4.1e-05	321.05	1.51
5.4e-05	331.05	1.51
7.2e-05	340.35	1.51
8.8e-05	349.45	1.51
0.000131	368.65	1.51
0.5877	367.95	1.53
0.6334	356.75	1.53
0.6796	345.45	1.53
0.7196	335.95	1.53
0.7365	331.05	1.54
0.7716	321.05	1.54
0.8171	306.65	1.55
0.8327	300.85	1.56

System: water + 1-butyl-3-ethylimidazolium hexafluorophosphate; phases: Liquid mixture 1, Liquid mixture 2
Fixed: Pressure, kPa = 101
Property: Liquid-liquid equilibrium temperature, K (Liquid mixture 1); method: VISOBS:UFactor:48
Mole fraction of 1-butyl-3-ethylimidazolium hexafluorophosphate	Liquid-liquid equilibrium temperature, K	uncertainty
0.3245	426	7.4
0.3758	409.6	7.4
0.4355	384.6	7.4
0.4896	374.3	7.4
0.5368	363.3	7.4
0.5953	343.6	7.4
0.6735	331.6	7.4
0.7814	318.9	7.4
0.834	303.8	7.4
0.9086	294.9	7.4

System: octan-1-ol + 1,3-diethylimidazolium bis[(trifluoromethyl)sulfonyl]imide; phases: Liquid mixture 1, Liquid mixture 2
Fixed: Pressure, kPa = 101
Property: Liquid-liquid equilibrium temperature, K (Liquid mixture 1); method: VISOBS:UFactor:8
Mole fraction of 1,3-diethylimidazolium bis[(trifluoromethyl)sulfonyl]imide	Liquid-liquid equilibrium temperature, K	uncertainty
0.0392	335.4	1.7
0.1035	381.1	1.6
0.1456	381.8	1.5
0.1893	382	1.5
0.2195	382.2	1.5
0.2611	381.9	1.5
0.2873	381.3	1.5
0.3133	380.8	1.5
0.3502	379.9	1.5
0.4053	376.7	1.5
0.4546	373.8	1.5
0.5227	367.3	1.5
0.6051	358.2	1.5
0.76	328.4	1.5
0.8247	310.8	1.5
0.9269	293.5	1.5

System: octan-1-ol + 1-butyl-3-ethylimidazolium bis[(trifluoromethyl)sulfonyl]imide; phases: Liquid mixture 1, Liquid mixture 2
Fixed: Pressure, kPa = 101
Property: Liquid-liquid equilibrium temperature, K (Liquid mixture 1); method: VISOBS:UFactor:8
Mole fraction of 1-butyl-3-ethylimidazolium bis[(trifluoromethyl)sulfonyl]imide	Liquid-liquid equilibrium temperature, K	uncertainty
0.0376	346.3	1.5
0.0689	350.8	1.5
0.1176	353.3	1.5
0.1695	353.2	1.5
0.2231	352.3	1.5
0.2785	350.9	1.5
0.3273	349.1	1.5
0.369	346.7	1.5
0.424	343.4	1.5
0.4961	338.5	1.5
0.5198	336.1	1.5
0.5756	329.6	1.5
0.6442	317.9	1.5
0.71	299.6	1.5
0.778	284.6	1.5

System: octan-1-ol + 1-hexyl-3-ethylimidazolium bis(trifluoromethylsulfonyl)imide; phases: Liquid mixture 1, Liquid mixture 2
Fixed: Pressure, kPa = 101
Property: Liquid-liquid equilibrium temperature, K (Liquid mixture 1); method: VISOBS:UFactor:8
Mole fraction of 1-hexyl-3-ethylimidazolium bis(trifluoromethylsulfonyl)imide	Liquid-liquid equilibrium temperature, K	uncertainty
0.0467	325.1	1.5
0.0557	327	1.5
0.0766	327.8	1.5
0.1275	328.4	1.5
0.1988	327.5	1.5
0.242	326.5	1.5
0.2658	326.1	1.5
0.2911	325.1	1.5
0.3314	323.6	1.5
0.3667	321.9	1.5
0.4268	318.5	1.5
0.4578	316.4	1.5
0.5058	313.5	1.5
0.5653	309.1	1.5
0.6165	302	1.5
0.6355	293	1.6
0.6494	282.5	1.6
0.6898	259.6	1.6

System: octan-1-ol + 1-butyl-3-ethylimidazolium hexafluorophosphate; phases: Liquid mixture 1, Liquid mixture 2
Fixed: Pressure, kPa = 101
Property: Liquid-liquid equilibrium temperature, K (Liquid mixture 1); method: VISOBS:UFactor:8
Mole fraction of 1-butyl-3-ethylimidazolium hexafluorophosphate	Liquid-liquid equilibrium temperature, K	uncertainty
0.0395	342.7	1.5
0.0503	346.3	1.5
0.0659	348.3	1.5
0.0866	350.4	1.5
0.1074	351.9	1.5
0.1232	353.3	1.5
0.1564	354.5	1.5
0.2341	356	1.5
0.2935	356.1	1.5
0.3385	355.3	1.5
0.387	354.6	1.5
0.4383	353	1.5
0.5005	349.7	1.5
0.5674	344.2	1.5
0.6406	336.8	1.5
0.7049	330.4	1.5
0.8163	310.9	1.5
0.8724	289.3	1.6
0.9181	270.1	1.6
