Measured thermophysical data. Experimental Densities of Hexane + Benzothiophene Mixtures from (313 to 363) K and up to 20 MPa
Source: J. Chem. Eng. Data, 2007, 10.1021/je7003929
Compound 1: hexane, C6H14, InChI=1S/C6H14/c1-3-5-6-4-2/h3-6H2,1-2H3
Compound 2: benzo[b]thiophene, C8H6S, InChI=1S/C8H6S/c1-2-4-8-7(3-1)5-6-9-8/h1-6H

System: hexane; phases: Liquid
Property: Mass density, kg/m3 (Liquid); method: Vibrating tube method
Temperature, K	Pressure, kPa	Mass density, kg/m3	uncertainty
313.12	1019	642.2	0.4
313.12	2044	643.5	0.5
313.12	3023	644.6	0.5
313.12	4018	645.8	0.5
313.12	5016	647	0.5
313.12	6012	648.1	0.5
313.12	7016	649.2	0.5
313.12	8016	650.3	0.5
313.12	9020	651.4	0.5
313.12	10018	652.5	0.5
313.12	11020	653.5	0.5
313.12	12004	654.6	0.5
313.12	13007	655.6	0.5
313.12	14015	656.6	0.5
313.12	15006	657.6	0.5
313.12	16023	658.6	0.5
313.12	17015	659.6	0.6
313.12	18011	660.5	0.6
313.12	19009	661.4	0.6
313.12	20016	662.4	0.6
313.12	20995	663.3	0.6
313.12	22018	664.2	0.6
313.12	23018	665.1	0.6
313.12	24013	666	0.6
313.12	25002	666.8	0.6
323.05	1030	633	0.5
323.05	2010	634.3	0.5
323.05	3021	635.6	0.5
323.05	4018	636.9	0.5
323.05	5014	638.1	0.5
323.05	6007	639.4	0.5
323.05	7010	640.6	0.5
323.05	8012	641.8	0.5
323.05	9020	643	0.5
323.05	10008	644.1	0.5
323.05	11021	645.2	0.5
323.05	12011	646.4	0.5
323.05	13007	647.4	0.5
323.05	14007	648.5	0.5
323.05	15035	649.6	0.5
323.05	16011	650.6	0.5
323.05	17021	651.6	0.6
323.05	18020	652.7	0.6
323.05	19013	653.7	0.6
323.05	20001	654.6	0.6
323.05	21028	655.6	0.6
323.05	22004	656.6	0.6
323.05	23010	657.5	0.6
323.05	24021	658.5	0.6
323.05	25018	659.4	0.6
332.85	1020	623.5	0.5
332.85	2021	625	0.5
332.85	3022	626.5	0.5
332.85	4020	627.8	0.5
332.85	5011	629.2	0.5
332.85	6016	630.6	0.5
332.85	7012	631.9	0.5
332.85	8025	633.3	0.5
332.85	9012	634.5	0.5
332.85	10010	635.7	0.5
332.85	11012	636.9	0.5
332.85	12019	638.1	0.5
332.85	13007	639.2	0.5
332.85	14021	640.4	0.5
332.85	15014	641.6	0.5
332.85	16025	642.8	0.6
332.85	17011	643.8	0.6
332.85	18035	644.9	0.6
332.85	19014	646	0.6
332.85	20011	647.1	0.6
332.85	21015	648.1	0.6
332.85	22000	649.1	0.6
332.85	23012	650.1	0.6
332.85	24022	651.2	0.6
332.85	25030	652.2	0.6
342.73	1010	613.9	0.5
342.73	2010	615.5	0.5
342.73	3011	617.1	0.5
342.73	4010	618.6	0.5
342.73	5005	620	0.5
342.73	6031	621.6	0.5
342.73	7020	623	0.5
342.73	8009	624.4	0.5
342.73	9015	625.7	0.5
342.73	10012	627	0.5
342.73	11006	628.4	0.5
342.73	12014	629.7	0.5
342.73	13011	630.9	0.5
342.73	14014	632.2	0.5
342.73	15008	633.4	0.6
342.73	16006	634.6	0.6
342.73	17021	635.7	0.6
342.73	18016	636.9	0.6
342.73	19025	638	0.6
342.73	20037	639.2	0.6
342.73	21025	640.3	0.6
342.73	22016	641.3	0.6
342.73	23010	642.5	0.6
342.73	24023	643.5	0.6
342.73	25006	644.5	0.6
352.56	1017	604	0.5
352.56	2028	605.8	0.5
352.56	3030	607.6	0.5
352.56	4024	609.2	0.5
352.56	5022	610.9	0.5
352.56	6024	612.5	0.5
352.56	7027	614	0.5
352.56	8021	615.5	0.5
352.56	9022	617	0.5
352.56	10020	618.4	0.5
352.56	11023	619.9	0.5
352.56	12003	621.2	0.5
352.56	13021	622.6	0.5
352.56	14012	623.9	0.5
352.56	15007	625.2	0.6
352.56	16016	626.5	0.6
352.56	17012	627.7	0.6
352.56	18015	629	0.6
352.56	19003	630.2	0.6
352.56	20040	631.4	0.6
352.56	21005	632.5	0.6
352.56	22035	633.8	0.6
352.56	23002	634.8	0.6
352.56	24039	636	0.6
352.56	25000	637.1	0.6
362.4	1029	593.8	0.5
362.4	2020	595.8	0.5
362.4	3028	597.6	0.5
362.4	4029	599.5	0.5
362.4	5040	601.3	0.5
362.4	6026	602.9	0.5
362.4	7026	604.7	0.5
362.4	8004	606.3	0.5
362.4	9007	607.9	0.5
362.4	10009	609.4	0.5
362.4	11009	610.9	0.5
362.4	12010	612.5	0.5
362.4	13000	614	0.5
362.4	14028	615.5	0.6
362.4	15017	616.8	0.6
362.4	16014	618.1	0.6
362.4	17004	619.5	0.6
362.4	18002	620.9	0.6
362.4	18988	622.1	0.6
362.4	20027	623.4	0.6
362.4	21002	624.7	0.6
362.4	22018	625.9	0.6
362.4	23013	627.1	0.6
362.4	24001	628.4	0.6
362.4	25000	629.5	0.6

System: benzo[b]thiophene + hexane; phases: Liquid
Property: Mass density, kg/m3 (Liquid); method: Vibrating tube method
Mole fraction of hexane	Temperature, K	Pressure, kPa	Mass density, kg/m3	uncertainty
0.0629	313	1011	1112.7	0.5
0.0629	313	2027	1113.3	0.5
0.0629	313	3046	1113.9	0.5
0.0629	313	4018	1114.5	0.5
0.0629	313	5014	1115.2	0.5
0.0629	313	6016	1115.7	0.5
0.0629	313	7014	1116.3	0.5
0.0629	313	8008	1116.9	0.5
0.0629	313	9013	1117.6	0.5
0.0629	313	10003	1118.1	0.5
0.0629	313	11005	1118.7	0.5
0.0629	313	12017	1119.3	0.5
0.0629	313	13017	1119.9	0.5
0.0629	313	14023	1120.5	0.5
0.0629	313	15024	1121	0.5
0.0629	313	16016	1121.6	0.5
0.0629	313	17014	1122.3	0.6
0.0629	313	18019	1122.8	0.6
0.0629	313	19014	1123.4	0.6
0.0629	313	20000	1124	0.6
0.0629	322.95	1028	1103.4	0.5
0.0629	322.95	2021	1104.1	0.5
0.0629	322.95	3029	1104.7	0.5
0.0629	322.95	4021	1105.4	0.5
0.0629	322.95	5037	1106.1	0.5
0.0629	322.95	6021	1106.7	0.5
0.0629	322.95	7021	1107.4	0.5
0.0629	322.95	8029	1108.1	0.5
0.0629	322.95	9018	1108.7	0.5
0.0629	322.95	10003	1109.3	0.5
0.0629	322.95	10998	1109.9	0.5
0.0629	322.95	12016	1110.6	0.5
0.0629	322.95	13012	1111.2	0.5
0.0629	322.95	14019	1111.8	0.5
0.0629	322.95	15018	1112.5	0.5
0.0629	322.95	16018	1113.1	0.5
0.0629	322.95	17024	1113.7	0.5
0.0629	322.95	18018	1114.4	0.5
0.0629	322.95	19024	1115	0.6
0.0629	322.95	20012	1115.6	0.6
0.0629	332.77	1019	1094.5	0.5
0.0629	332.77	2029	1095.3	0.5
0.0629	332.77	3030	1096	0.5
0.0629	332.77	4019	1096.7	0.5
0.0629	332.77	5026	1097.4	0.5
0.0629	332.77	6037	1098.1	0.5
0.0629	332.77	7035	1098.8	0.5
0.0629	332.77	8021	1099.5	0.5
0.0629	332.77	9012	1100.1	0.5
0.0629	332.77	10008	1100.8	0.5
0.0629	332.77	11026	1101.5	0.5
0.0629	332.77	12020	1102.2	0.5
0.0629	332.77	13012	1102.8	0.5
0.0629	332.77	14016	1103.4	0.5
0.0629	332.77	15015	1104.2	0.5
0.0629	332.77	16015	1104.7	0.5
0.0629	332.77	17020	1105.4	0.5
0.0629	332.77	18020	1106.1	0.5
0.0629	332.77	19022	1106.7	0.5
0.0629	332.77	20017	1107.3	0.5
0.0629	342.63	1018	1085.6	0.5
0.0629	342.63	2039	1086.3	0.5
0.0629	342.63	3009	1087	0.5
0.0629	342.63	4022	1087.8	0.5
0.0629	342.63	5025	1088.5	0.5
0.0629	342.63	5925	1089.1	0.5
0.0629	342.63	7031	1089.9	0.5
0.0629	342.63	8009	1090.6	0.5
0.0629	342.63	9007	1091.3	0.5
0.0629	342.63	10024	1092	0.5
0.0629	342.63	11013	1092.7	0.5
0.0629	342.63	12012	1093.4	0.5
0.0629	342.63	13000	1094.1	0.5
0.0629	342.63	14019	1094.8	0.5
0.0629	342.63	15027	1095.4	0.5
0.0629	342.63	16019	1096.1	0.5
0.0629	342.63	17009	1096.8	0.5
0.0629	342.63	18015	1097.5	0.5
0.0629	342.63	19019	1098.2	0.5
0.0629	342.63	20018	1098.8	0.5
0.0629	352.41	1015	1076.7	0.5
0.0629	352.41	2020	1077.4	0.5
0.0629	352.41	3016	1078.1	0.5
0.0629	352.41	4038	1078.8	0.5
0.0629	352.41	5000	1079.5	0.5
0.0629	352.41	6001	1080.4	0.5
0.0629	352.41	7017	1081.1	0.5
0.0629	352.41	8008	1082	0.5
0.0629	352.41	9017	1082.6	0.5
0.0629	352.41	10026	1083.4	0.5
0.0629	352.41	11018	1084.1	0.5
0.0629	352.41	12014	1084.7	0.5
0.0629	352.41	13014	1085.4	0.5
0.0629	352.41	14022	1086.2	0.5
0.0629	352.41	15028	1086.8	0.5
0.0629	352.41	16020	1087.6	0.5
0.0629	352.41	17023	1088.2	0.5
0.0629	352.41	18015	1088.8	0.5
0.0629	352.41	19016	1089.5	0.5
0.0629	352.41	20019	1090.2	0.5
0.2588	312.99	1009	1009	0.5
0.2588	312.99	2023	1009.7	0.5
0.2588	312.99	3016	1010.5	0.5
0.2588	312.99	4029	1011.2	0.5
0.2588	312.99	5004	1011.9	0.5
0.2588	312.99	6021	1012.6	0.5
0.2588	312.99	7031	1013.3	0.5
0.2588	312.99	8005	1014	0.5
0.2588	312.99	9022	1014.8	0.5
0.2588	312.99	10016	1015.4	0.5
0.2588	312.99	11004	1016.1	0.5
0.2588	312.99	12015	1016.8	0.5
0.2588	312.99	13015	1017.5	0.5
0.2588	312.99	14003	1018.2	0.5
0.2588	312.99	15011	1018.9	0.5
0.2588	312.99	16003	1019.5	0.5
0.2588	312.99	17010	1020.2	0.5
0.2588	312.99	18002	1020.9	0.5
0.2588	312.99	19029	1021.5	0.5
0.2588	312.99	20017	1022.2	0.5
0.2588	322.89	1017	1000	0.5
0.2588	322.89	2023	1000.8	0.5
0.2588	322.89	3021	1001.5	0.5
0.2588	322.89	4016	1002.3	0.5
0.2588	322.89	5026	1003.1	0.5
0.2588	322.89	6030	1003.8	0.5
0.2588	322.89	7028	1004.6	0.5
0.2588	322.89	8018	1005.3	0.5
0.2588	322.89	9014	1006	0.5
0.2588	322.89	10021	1006.7	0.5
0.2588	322.89	11005	1007.5	0.5
0.2588	322.89	12022	1008.2	0.5
0.2588	322.89	13013	1008.9	0.5
0.2588	322.89	14012	1009.6	0.5
0.2588	322.89	15017	1010.3	0.5
0.2588	322.89	16016	1011	0.5
0.2588	322.89	17002	1011.7	0.5
0.2588	322.89	18014	1012.4	0.5
0.2588	322.89	19024	1013.1	0.5
0.2588	322.89	20016	1013.8	0.5
0.2588	332.66	1020	991.1	0.5
0.2588	332.66	2021	991.9	0.5
0.2588	332.66	3022	992.7	0.5
0.2588	332.66	4018	993.5	0.5
0.2588	332.66	5021	994.3	0.5
0.2588	332.66	6012	995	0.5
0.2588	332.66	7018	995.8	0.5
0.2588	332.66	8005	996.6	0.5
0.2588	332.66	9012	997.3	0.5
0.2588	332.66	10011	998.2	0.5
0.2588	332.66	11013	998.9	0.5
0.2588	332.66	12006	999.7	0.5
0.2588	332.66	13011	1000.4	0.5
0.2588	332.66	14000	1001.2	0.5
0.2588	332.66	15025	1002	0.5
0.2588	332.66	16005	1002.6	0.5
0.2588	332.66	17000	1003.3	0.5
0.2588	332.66	18002	1004.1	0.5
0.2588	332.66	19009	1004.8	0.5
0.2588	332.66	20016	1005.5	0.5
0.2588	342.55	1028	982.2	0.5
0.2588	342.55	2013	983.1	0.5
0.2588	342.55	3013	983.8	0.5
0.2588	342.55	4017	984.7	0.5
0.2588	342.55	5024	985.5	0.5
0.2588	342.55	6012	986.3	0.5
0.2588	342.55	7004	987.1	0.5
0.2588	342.55	8017	987.9	0.5
0.2588	342.55	9012	988.7	0.5
0.2588	342.55	10016	989.5	0.5
0.2588	342.55	11015	990.4	0.5
0.2588	342.55	12022	991.2	0.5
0.2588	342.55	13030	992	0.5
0.2588	342.55	14011	992.8	0.5
0.2588	342.55	15020	993.6	0.5
0.2588	342.55	16020	994.3	0.5
0.2588	342.55	17017	995.1	0.5
0.2588	342.55	18008	995.8	0.5
0.2588	342.55	19011	996.6	0.5
0.2588	342.55	20013	997.4	0.5
0.2588	352.33	1030	973.2	0.5
0.2588	352.33	2012	973.9	0.5
0.2588	352.33	3021	974.8	0.5
0.2588	352.33	4018	975.8	0.5
0.2588	352.33	5020	976.6	0.5
0.2588	352.33	6024	977.6	0.5
0.2588	352.33	7016	978.5	0.5
0.2588	352.33	8000	979.3	0.5
0.2588	352.33	9020	980.2	0.5
0.2588	352.33	10010	981	0.5
0.2588	352.33	11018	981.9	0.5
0.2588	352.33	12012	982.7	0.5
0.2588	352.33	13013	983.5	0.5
0.2588	352.33	14007	984.3	0.5
0.2588	352.33	15016	985.2	0.5
0.2588	352.33	16012	986	0.5
0.2588	352.33	17013	986.8	0.5
0.2588	352.33	18003	987.6	0.5
0.2588	352.33	19011	988.4	0.5
0.2588	352.33	20014	989.1	0.5
0.4495	313.15	1025	910.7	0.4
0.4495	313.15	2010	911.5	0.4
0.4495	313.15	3028	912.4	0.5
0.4495	313.15	4011	913.2	0.5
0.4495	313.15	5013	914	0.5
0.4495	313.15	6021	914.8	0.5
0.4495	313.15	7010	915.6	0.5
0.4495	313.15	8033	916.4	0.5
0.4495	313.15	9029	917.2	0.5
0.4495	313.15	10015	918	0.5
0.4495	313.15	11018	918.8	0.5
0.4495	313.15	12012	919.5	0.5
0.4495	313.15	13010	920.3	0.5
0.4495	313.15	14022	921	0.5
0.4495	313.15	15019	921.8	0.5
0.4495	313.15	16008	922.6	0.5
0.4495	313.15	17018	923.3	0.5
0.4495	313.15	18027	924.1	0.5
0.4495	313.15	19006	924.8	0.5
0.4495	313.15	20006	925.5	0.5
0.4495	322.05	1026	901.9	0.4
0.4495	322.05	2020	902.8	0.4
0.4495	322.05	3015	903.7	0.4
0.4495	322.05	4003	904.5	0.5
0.4495	322.05	5014	905.4	0.5
0.4495	322.05	6021	906.3	0.5
0.4495	322.05	7015	907.2	0.5
0.4495	322.05	8009	908	0.5
0.4495	322.05	9028	908.9	0.5
0.4495	322.05	10013	909.7	0.5
0.4495	322.05	11021	910.5	0.5
0.4495	322.05	12023	911.3	0.5
0.4495	322.05	13008	912.1	0.5
0.4495	322.05	14021	913	0.5
0.4495	322.05	15012	913.7	0.5
0.4495	322.05	16018	914.5	0.5
0.4495	322.05	17012	915.3	0.5
0.4495	322.05	18012	916.1	0.5
0.4495	322.05	19007	916.9	0.5
0.4495	322.05	20015	917.7	0.5
0.4495	332.9	1028	892.5	0.4
0.4495	332.9	2010	893.2	0.4
0.4495	332.9	3021	894.1	0.5
0.4495	332.9	4018	895.3	0.5
0.4495	332.9	5018	896.2	0.5
0.4495	332.9	6008	897	0.5
0.4495	332.9	7019	897.9	0.5
0.4495	332.9	8016	898.8	0.5
0.4495	332.9	9023	899.8	0.5
0.4495	332.9	10018	900.7	0.5
0.4495	332.9	11007	901.6	0.5
0.4495	332.9	12010	902.4	0.5
0.4495	332.9	13019	903.3	0.5
0.4495	332.9	14015	904.2	0.5
0.4495	332.9	15019	905	0.5
0.4495	332.9	16002	905.9	0.5
0.4495	332.9	17014	906.7	0.5
0.4495	332.9	18017	907.5	0.5
0.4495	332.9	19023	908.3	0.5
0.4495	332.9	20028	909.1	0.5
0.4495	342.79	1022	883.3	0.4
0.4495	342.79	2032	884.3	0.5
0.4495	342.79	3024	885.3	0.5
0.4495	342.79	4029	886.4	0.5
0.4495	342.79	5019	887.3	0.5
0.4495	342.79	6019	888.3	0.5
0.4495	342.79	7035	889.3	0.5
0.4495	342.79	8022	890.2	0.5
0.4495	342.79	9016	891.1	0.5
0.4495	342.79	10010	892	0.5
0.4495	342.79	11010	893	0.5
0.4495	342.79	12024	893.9	0.5
0.4495	342.79	13001	894.8	0.5
0.4495	342.79	14017	895.7	0.5
0.4495	342.79	15021	896.6	0.5
0.4495	342.79	16020	897.4	0.5
0.4495	342.79	17009	898.3	0.5
0.4495	342.79	18009	899.2	0.5
0.4495	342.79	19011	900	0.5
0.4495	342.79	20011	900.9	0.5
0.4495	352.63	1037	874.2	0.4
0.4495	352.63	2029	875.3	0.5
0.4495	352.63	3026	876.4	0.5
0.4495	352.63	4032	877.5	0.5
0.4495	352.63	5015	878.5	0.5
0.4495	352.63	6024	879.5	0.5
0.4495	352.63	7028	880.5	0.5
0.4495	352.63	8017	881.5	0.5
0.4495	352.63	9003	882.5	0.5
0.4495	352.63	10022	883.5	0.5
0.4495	352.63	11024	884.5	0.5
0.4495	352.63	12013	885.4	0.5
0.4495	352.63	13038	886.4	0.5
0.4495	352.63	14000	887.3	0.5
0.4495	352.63	15021	888.2	0.5
0.4495	352.63	16012	889.1	0.5
0.4495	352.63	17010	890	0.5
0.4495	352.63	18015	890.9	0.5
0.4495	352.63	19022	891.8	0.5
0.4495	352.63	20005	892.7	0.5
0.4495	362.5	1028	864.8	0.5
0.4495	362.5	2025	866	0.5
0.4495	362.5	3020	867.1	0.5
0.4495	362.5	4000	868.2	0.5
0.4495	362.5	5045	869.3	0.5
0.4495	362.5	6017	870.4	0.5
0.4495	362.5	7018	871.5	0.5
0.4495	362.5	8013	872.5	0.5
0.4495	362.5	9024	873.6	0.5
0.4495	362.5	10011	874.6	0.5
0.4495	362.5	11008	875.6	0.5
0.4495	362.5	12025	876.6	0.5
0.4495	362.5	13004	877.6	0.5
0.4495	362.5	14014	878.6	0.5
0.4495	362.5	15011	879.6	0.5
0.4495	362.5	16027	880.6	0.5
0.4495	362.5	17017	881.5	0.5
0.4495	362.5	18030	882.5	0.5
0.4495	362.5	19022	883.4	0.5
0.4495	362.5	20002	884.3	0.5
0.7491	313.13	1017	761.8	0.5
0.7491	313.13	2027	762.9	0.5
0.7491	313.13	3031	764	0.5
0.7491	313.13	4039	764.9	0.5
0.7491	313.13	5021	765.9	0.5
0.7491	313.13	6027	766.9	0.5
0.7491	313.13	7021	767.9	0.5
0.7491	313.13	8054	768.9	0.5
0.7491	313.13	9007	769.8	0.5
0.7491	313.13	10018	770.7	0.5
0.7491	313.13	11018	771.6	0.5
0.7491	313.13	12036	772.6	0.5
0.7491	313.13	13021	773.5	0.5
0.7491	313.13	14007	774.3	0.5
0.7491	313.13	15006	775.2	0.5
0.7491	313.13	16012	776	0.5
0.7491	313.13	17016	776.9	0.5
0.7491	313.13	18000	777.8	0.5
0.7491	313.13	19017	778.6	0.5
0.7491	313.13	20030	779.5	0.5
0.7491	323.02	1017	752.7	0.5
0.7491	323.02	2013	753.8	0.5
0.7491	323.02	3014	754.9	0.5
0.7491	323.02	4012	756	0.5
0.7491	323.02	5008	757.1	0.5
0.7491	323.02	6010	758.1	0.5
0.7491	323.02	7025	759.2	0.5
0.7491	323.02	8028	760.2	0.5
0.7491	323.02	9009	761.2	0.5
0.7491	323.02	10010	762.2	0.5
0.7491	323.02	11002	763.2	0.5
0.7491	323.02	12017	764.1	0.5
0.7491	323.02	13019	765.1	0.5
0.7491	323.02	14006	766	0.5
0.7491	323.02	15015	767	0.5
0.7491	323.02	16022	767.9	0.5
0.7491	323.02	17019	768.8	0.5
0.7491	323.02	18016	769.8	0.5
0.7491	323.02	19024	770.6	0.5
0.7491	323.02	20021	771.5	0.5
0.7491	332.86	1031	743.7	0.5
0.7491	332.86	2024	744.9	0.5
0.7491	332.86	3019	746.1	0.5
0.7491	332.86	4001	747.2	0.5
0.7491	332.86	5002	748.4	0.5
0.7491	332.86	6020	749.5	0.5
0.7491	332.86	7005	750.6	0.5
0.7491	332.86	8013	751.7	0.5
0.7491	332.86	9004	752.8	0.5
0.7491	332.86	10000	753.8	0.5
0.7491	332.86	11019	754.9	0.5
0.7491	332.86	12006	755.9	0.5
0.7491	332.86	13014	757	0.5
0.7491	332.86	14008	757.9	0.5
0.7491	332.86	15007	758.9	0.5
0.7491	332.86	16009	759.9	0.5
0.7491	332.86	17002	760.9	0.5
0.7491	332.86	18026	761.8	0.5
0.7491	332.86	19007	762.8	0.5
0.7491	332.86	20017	763.7	0.5
0.7491	342.72	1034	734.5	0.5
0.7491	342.72	2000	735.8	0.5
0.7491	342.72	3023	737	0.5
0.7491	342.72	4016	738.2	0.5
0.7491	342.72	5014	739.5	0.5
0.7491	342.72	6014	740.7	0.5
0.7491	342.72	7019	741.8	0.5
0.7491	342.72	8012	743	0.5
0.7491	342.72	9010	744.1	0.5
0.7491	342.72	10013	745.3	0.5
0.7491	342.72	11016	746.4	0.5
0.7491	342.72	12016	747.5	0.5
0.7491	342.72	13011	748.6	0.5
0.7491	342.72	14001	749.6	0.5
0.7491	342.72	15003	750.7	0.5
0.7491	342.72	16025	751.7	0.5
0.7491	342.72	17012	752.8	0.5
0.7491	342.72	18018	753.8	0.5
0.7491	342.72	19008	754.7	0.5
0.7491	342.72	20017	755.8	0.5
0.7491	352.53	1026	725.1	0.5
0.7491	352.53	2026	726.5	0.5
0.7491	352.53	3024	727.8	0.5
0.7491	352.53	4034	729.2	0.5
0.7491	352.53	5014	730.5	0.5
0.7491	352.53	6040	731.8	0.5
0.7491	352.53	7028	733	0.5
0.7491	352.53	8017	734.3	0.5
0.7491	352.53	9003	735.5	0.5
0.7491	352.53	10008	736.7	0.5
0.7491	352.53	11016	737.9	0.5
0.7491	352.53	12002	739	0.5
0.7491	352.53	13020	740.2	0.5
0.7491	352.53	14016	741.3	0.5
0.7491	352.53	15037	742.5	0.5
0.7491	352.53	16035	743.6	0.5
0.7491	352.53	17020	744.6	0.5
0.7491	352.53	18020	745.7	0.5
0.7491	352.53	19008	746.7	0.5
0.7491	352.53	20019	747.8	0.5
0.7491	362.33	1020	715.3	0.5
0.7491	362.33	2034	716.8	0.5
0.7491	362.33	3013	718.3	0.5
0.7491	362.33	4007	719.7	0.5
0.7491	362.33	5015	721.2	0.5
0.7491	362.33	6018	722.5	0.5
0.7491	362.33	7015	723.9	0.5
0.7491	362.33	8017	725.2	0.5
0.7491	362.33	9024	726.5	0.5
0.7491	362.33	10010	727.8	0.5
0.7491	362.33	10996	729.1	0.5
0.7491	362.33	12027	730.4	0.5
0.7491	362.33	13022	731.6	0.5
0.7491	362.33	14016	732.8	0.5
0.7491	362.33	15023	734	0.5
0.7491	362.33	16012	735.1	0.5
0.7491	362.33	17011	736.3	0.5
0.7491	362.33	18012	737.4	0.5
0.7491	362.33	19030	738.6	0.5
0.7491	362.33	20017	739.7	0.5
0.9432	313.11	1023	669	0.5
0.9432	313.11	2023	670	0.5
0.9432	313.11	3037	671	0.5
0.9432	313.11	4019	672.2	0.5
0.9432	313.11	5025	673.3	0.5
0.9432	313.11	6058	674.4	0.5
0.9432	313.11	7008	675.5	0.5
0.9432	313.11	8047	676.6	0.5
0.9432	313.11	9025	677.6	0.5
0.9432	313.11	10040	678.6	0.5
0.9432	313.11	11000	679.6	0.5
0.9432	313.11	12016	680.7	0.5
0.9432	313.11	13019	681.6	0.5
0.9432	313.11	14016	682.6	0.5
0.9432	313.11	15029	683.6	0.5
0.9432	313.11	16024	684.5	0.5
0.9432	313.11	17011	685.5	0.5
0.9432	313.11	18015	686.4	0.6
0.9432	313.11	19046	687.4	0.6
0.9432	313.11	20016	688.2	0.6
0.9432	323.09	1017	659.3	0.5
0.9432	323.09	2024	660.6	0.5
0.9432	323.09	3024	661.9	0.5
0.9432	323.09	4016	663.1	0.5
0.9432	323.09	5024	664.2	0.5
0.9432	323.09	6021	665.5	0.5
0.9432	323.09	7018	666.6	0.5
0.9432	323.09	8020	667.8	0.5
0.9432	323.09	9019	668.9	0.5
0.9432	323.09	10010	670	0.5
0.9432	323.09	11012	671.1	0.5
0.9432	323.09	12013	672.2	0.5
0.9432	323.09	13021	673.3	0.5
0.9432	323.09	14023	674.3	0.5
0.9432	323.09	15015	675.3	0.5
0.9432	323.09	16001	676.3	0.5
0.9432	323.09	17028	677.3	0.6
0.9432	323.09	18003	678.3	0.6
0.9432	323.09	19001	679.3	0.6
0.9432	323.09	20017	680.3	0.6
0.9432	332.82	1026	650.1	0.5
0.9432	332.82	2016	651.4	0.5
0.9432	332.82	3016	652.8	0.5
0.9432	332.82	4023	654.1	0.5
0.9432	332.82	5004	655.4	0.5
0.9432	332.82	6016	656.7	0.5
0.9432	332.82	7012	658	0.5
0.9432	332.82	8018	659.2	0.5
0.9432	332.82	9014	660.5	0.5
0.9432	332.82	10014	661.6	0.5
0.9432	332.82	11009	662.8	0.5
0.9432	332.82	12005	664	0.5
0.9432	332.82	13020	665.1	0.5
0.9432	332.82	14007	666.3	0.5
0.9432	332.82	15005	667.3	0.5
0.9432	332.82	16012	668.4	0.5
0.9432	332.82	17015	669.5	0.6
0.9432	332.82	18010	670.6	0.6
0.9432	332.82	19000	671.6	0.6
0.9432	332.82	20001	672.6	0.6
0.9432	342.71	1025	640.4	0.5
0.9432	342.71	2014	641.8	0.5
0.9432	342.71	3011	643.3	0.5
0.9432	342.71	4027	644.8	0.5
0.9432	342.71	5014	646.2	0.5
0.9432	342.71	6027	647.6	0.5
0.9432	342.71	7019	649	0.5
0.9432	342.71	8015	650.3	0.5
0.9432	342.71	9010	651.6	0.5
0.9432	342.71	10003	652.9	0.5
0.9432	342.71	11017	654.2	0.5
0.9432	342.71	12006	655.4	0.5
0.9432	342.71	13024	656.7	0.5
0.9432	342.71	14021	657.8	0.5
0.9432	342.71	15006	659	0.5
0.9432	342.71	16015	660.2	0.6
0.9432	342.71	17016	661.3	0.6
0.9432	342.71	18000	662.4	0.6
0.9432	342.71	19034	663.6	0.6
0.9432	342.71	20012	664.6	0.6
0.9432	352.53	1025	630.4	0.5
0.9432	352.53	2023	632.1	0.5
0.9432	352.53	3030	633.8	0.5
0.9432	352.53	4018	635.4	0.5
0.9432	352.53	5021	637	0.5
0.9432	352.53	6018	638.5	0.5
0.9432	352.53	7010	639.9	0.5
0.9432	352.53	8018	641.4	0.5
0.9432	352.53	9044	642.8	0.5
0.9432	352.53	10011	644.2	0.5
0.9432	352.53	11022	645.5	0.5
0.9432	352.53	12013	646.9	0.5
0.9432	352.53	13005	648.2	0.5
0.9432	352.53	14000	649.5	0.5
0.9432	352.53	15021	650.8	0.6
0.9432	352.53	16022	652	0.6
0.9432	352.53	17001	653.2	0.6
0.9432	352.53	18013	654.4	0.6
0.9432	352.53	19007	655.6	0.6
0.9432	352.53	20039	656.7	0.6
0.9432	362.31	1028	620.3	0.5
0.9432	362.31	2031	622.2	0.5
0.9432	362.31	3031	624	0.5
0.9432	362.31	4012	625.7	0.5
0.9432	362.31	5026	627.4	0.5
0.9432	362.31	6013	629.1	0.5
0.9432	362.31	7022	630.7	0.5
0.9432	362.31	8014	632.3	0.5
0.9432	362.31	9000	633.7	0.5
0.9432	362.31	10011	635.3	0.5
0.9432	362.31	11007	636.7	0.5
0.9432	362.31	12007	638.2	0.5
0.9432	362.31	13008	639.6	0.5
0.9432	362.31	14024	640.9	0.5
0.9432	362.31	15002	642.3	0.6
0.9432	362.31	16016	643.6	0.6
0.9432	362.31	17000	644.9	0.6
0.9432	362.31	18008	646.3	0.6
0.9432	362.31	19018	647.5	0.6
0.9432	362.31	20028	648.8	0.6
