Measured thermophysical data. Densities and Derived Thermodynamic Properties of 2-Amino-2-methyl-1-propanol + Water Mixtures at Temperatures from (313 to 363) K and Pressures up to 24 MPa
Source: J. Chem. Eng. Data, 2008, 10.1021/je700406p
Compound 1: 2-amino-2-methylpropan-1-ol, C4H11NO, InChI=1S/C4H11NO/c1-4(2,5)3-6/h6H,3,5H2,1-2H3, purity 95%
Compound 2: water, H2O, InChI=1S/H2O/h1H2, purity 99.95%

System: 2-amino-2-methylpropan-1-ol; phases: Liquid
Property: Mass density, kg/m3 (Liquid); method: Vibrating tube method
Temperature, K	Pressure, kPa	Mass density, kg/m3	uncertainty
313.06	1000	931.4	4.7
313.06	2000	931.9	4.7
313.06	3000	932.4	4.7
313.06	4000	932.9	4.7
313.06	5000	933.5	4.7
313.06	6000	933.9	4.8
313.06	7000	934.5	4.8
313.06	8000	935	4.8
313.06	9007	935.5	4.8
313.06	10003	936	4.8
313.06	11000	936.6	4.8
313.06	12000	937	4.8
313.06	13000	937.6	4.8
313.06	14000	938.1	4.8
313.06	15002	938.6	4.8
313.06	16000	939.1	4.8
313.06	17001	939.7	4.8
313.06	18002	940.2	4.8
313.06	19000	940.6	4.8
313.06	20029	941.1	4.9
313.06	21004	941.7	4.9
313.06	22004	942.1	4.9
313.06	24004	943.1	4.9
322.98	500	922.7	4.6
322.98	1000	922.8	4.6
322.98	2000	923.4	4.6
322.98	3000	924	4.6
322.98	4000	924.5	4.7
322.98	5000	925.1	4.7
322.98	6000	925.7	4.7
322.98	7000	926.2	4.7
322.98	8000	926.8	4.7
322.98	9007	927.4	4.7
322.98	10002	927.8	4.7
322.98	11000	928.4	4.7
322.98	12000	928.9	4.7
322.98	13000	929.5	4.7
322.98	14000	930.1	4.7
322.98	15003	930.6	4.7
322.98	16006	931.1	4.8
322.98	17001	931.6	4.8
322.98	18002	932.1	4.8
322.98	19000	932.6	4.8
322.98	20030	933.2	4.8
322.98	21005	933.7	4.8
322.98	22004	934.1	4.8
322.98	24004	935.2	4.8
332.91	500	914	4.5
332.91	1000	914.4	4.6
332.91	2000	915	4.6
332.91	3000	915.6	4.6
332.91	4000	916.1	4.6
332.91	5000	916.7	4.6
332.91	6000	917.3	4.6
332.91	7000	918	4.6
332.91	8000	918.5	4.6
332.91	9009	919.1	4.6
332.91	10003	919.7	4.6
332.91	11002	920.2	4.6
332.91	12001	920.8	4.6
332.91	13000	921.3	4.7
332.91	14000	921.9	4.7
332.91	15002	922.4	4.7
332.91	16001	923	4.7
332.91	17001	923.5	4.7
332.91	18002	924.1	4.7
332.91	19000	924.6	4.7
332.91	20030	925.2	4.7
332.91	21002	925.6	4.7
332.91	22004	926.2	4.7
332.91	23000	926.7	4.7
332.91	24004	927.3	4.7
342.84	500	905.4	4.5
342.84	1000	905.7	4.5
342.84	2000	906.4	4.5
342.84	3000	907	4.5
342.84	4000	907.6	4.5
342.84	5000	908.3	4.5
342.84	6000	908.9	4.5
342.84	7000	909.5	4.5
342.84	8001	910.1	4.5
342.84	9009	910.7	4.5
342.84	10003	911.3	4.6
342.84	11001	911.9	4.6
342.84	12000	912.5	4.6
342.84	13000	913.1	4.6
342.84	14000	913.6	4.6
342.84	15003	914.3	4.6
342.84	16001	914.8	4.6
342.84	17001	915.3	4.6
342.84	18002	915.9	4.6
342.84	19000	916.5	4.6
342.84	20030	917.1	4.6
342.84	21005	917.6	4.6
342.84	22004	918.1	4.7
342.84	23000	918.7	4.7
342.84	24004	919.2	4.7
352.79	500	896.8	4.4
352.79	1000	897.2	4.4
352.79	2000	897.9	4.4
352.79	3000	898.5	4.4
352.79	4001	899.2	4.4
352.79	5000	899.9	4.4
352.79	6000	900.5	4.4
352.79	7001	901.2	4.5
352.79	8000	901.8	4.5
352.79	9009	902.4	4.5
352.79	10003	903.1	4.5
352.79	11001	903.7	4.5
352.79	12000	904.3	4.5
352.79	13001	904.9	4.5
352.79	14000	905.5	4.5
352.79	15002	906.1	4.5
352.79	16001	906.7	4.5
352.79	17001	907.4	4.5
352.79	18002	907.9	4.6
352.79	18997	908.5	4.6
352.79	20030	909.1	4.6
352.79	21001	909.7	4.6
352.79	22004	910.3	4.6
352.79	23000	910.9	4.6
352.79	24004	911.4	4.6
362.65	504	888	4.3
362.65	1002	888.4	4.3
362.65	2000	889	4.3
362.65	3000	889.7	4.3
362.65	4000	890.5	4.3
362.65	5000	891.2	4.4
362.65	6000	891.8	4.4
362.65	7000	892.5	4.4
362.65	8001	893.2	4.4
362.65	9010	893.9	4.4
362.65	10003	894.6	4.4
362.65	11001	895.2	4.4
362.65	12000	895.8	4.4
362.65	13001	896.5	4.4
362.65	14000	897.1	4.4
362.65	15003	897.8	4.5
362.65	16001	898.4	4.5
362.65	17000	899.1	4.5
362.65	18002	899.7	4.5
362.65	19000	900.3	4.5
362.65	20030	901	4.5
362.65	21004	901.6	4.5
362.65	22004	902.2	4.5
362.65	23000	902.8	4.5
362.65	24003	903.3	4.5

System: 2-amino-2-methylpropan-1-ol + water; phases: Liquid
Property: Mass density, kg/m3 (Liquid); method: Vibrating tube method
Temperature, K	Pressure, kPa	Mass fraction of 2-amino-2-methylpropan-1-ol	Mass density, kg/m3	uncertainty
313.13	500	0.1997	989.5	0.5
313.13	995	0.2821	988.9	0.6
313.13	998	0.4002	985.4	0.9
313.13	999	0.4976	978.1	1.3
313.13	1000	0.1997	989.8	0.5
313.13	2000	0.1997	990.1	0.5
313.13	2002	0.2821	989.2	0.6
313.13	2006	0.4002	985.8	0.9
313.13	2014	0.4976	978.5	1.3
313.13	2993	0.2821	989.6	0.6
313.13	2995	0.4002	986.2	0.9
313.13	3000	0.1997	990.5	0.5
313.13	3001	0.4976	978.9	1.3
313.13	3995	0.4002	986.6	0.9
313.13	4000	0.1997	990.9	0.5
313.13	4001	0.2821	990	0.6
313.13	4001	0.4976	979.3	1.3
313.13	4995	0.2821	990.4	0.6
313.13	4999	0.4002	986.9	0.9
313.13	4999	0.4976	979.7	1.3
313.13	5000	0.1997	991.2	0.5
313.13	5999	0.4002	987.3	0.9
313.13	6000	0.1997	991.6	0.5
313.13	6000	0.4976	980.2	1.3
313.13	6005	0.2821	990.8	0.6
313.13	6987	0.2821	991.1	0.6
313.13	6994	0.4002	987.7	0.9
313.13	6995	0.4976	980.6	1.3
313.13	7000	0.1997	992	0.5
313.13	7986	0.4002	988.1	0.9
313.13	7991	0.2821	991.5	0.6
313.13	8000	0.1997	992.4	0.5
313.13	8003	0.4976	980.9	1.3
313.13	8992	0.4002	988.5	0.9
313.13	8997	0.2821	991.9	0.6
313.13	8997	0.4976	981.4	1.3
313.13	9007	0.1997	992.8	0.5
313.13	9992	0.4002	988.9	0.9
313.13	9995	0.2821	992.3	0.6
313.13	9999	0.4976	981.8	1.3
313.13	10002	0.1997	993.2	0.5
313.13	10989	0.4976	982.1	1.3
313.13	10990	0.2821	992.6	0.6
313.13	10993	0.4002	989.2	0.9
313.13	11000	0.1997	993.6	0.5
313.13	11991	0.2821	993	0.6
313.13	11992	0.4002	989.6	0.9
313.13	11996	0.4976	982.6	1.3
313.13	12000	0.1997	994	0.5
313.13	12982	0.2821	993.4	0.6
313.13	13000	0.1997	994.4	0.5
313.13	13002	0.4002	990	0.9
313.13	13006	0.4976	983	1.3
313.13	13991	0.2821	993.8	0.6
313.13	13999	0.4002	990.4	0.9
313.13	14000	0.1997	994.7	0.5
313.13	14001	0.4976	983.4	1.3
313.13	14997	0.2821	994.2	0.6
313.13	14999	0.4002	990.8	0.9
313.13	15001	0.4976	983.8	1.3
313.13	15002	0.1997	995.1	0.5
313.13	15990	0.2821	994.5	0.6
313.13	15992	0.4002	991.2	0.9
313.13	15992	0.4976	984.2	1.3
313.13	16000	0.1997	995.5	0.5
313.13	16989	0.2821	994.9	0.6
313.13	16992	0.4976	984.6	1.3
313.13	16994	0.4002	991.5	0.9
313.13	17001	0.1997	995.9	0.5
313.13	17985	0.4976	985	1.3
313.13	17988	0.2821	995.3	0.6
313.13	17989	0.4002	991.9	0.9
313.13	18002	0.1997	996.3	0.5
313.13	18987	0.2821	995.6	0.6
313.13	18990	0.4002	992.3	0.9
313.13	18990	0.4976	985.4	1.3
313.13	19000	0.1997	996.7	0.5
313.13	19992	0.4002	992.7	0.9
313.13	19992	0.4976	985.8	1.3
313.13	19996	0.2821	996	0.6
313.13	20030	0.1997	997.1	0.5
313.13	20495	0.4976	986	1.3
313.13	20691	0.4002	993	0.9
313.13	20955	0.2821	996.4	0.6
313.13	21004	0.1997	997.4	0.5
313.13	22004	0.1997	997.8	0.5
313.13	23000	0.1997	998.2	0.5
313.13	24004	0.1997	998.5	0.5
323.08	1026	0.2821	982.8	0.6
323.08	2026	0.2821	983.2	0.6
323.08	2996	0.2821	983.5	0.6
323.08	4009	0.2821	983.9	0.6
323.08	5006	0.2821	984.3	0.6
323.08	6002	0.2821	984.7	0.6
323.08	6993	0.2821	985.1	0.6
323.08	7994	0.2821	985.5	0.6
323.08	9012	0.2821	985.9	0.6
323.08	9998	0.2821	986.3	0.6
323.08	11009	0.2821	986.6	0.6
323.08	11995	0.2821	987	0.6
323.08	12991	0.2821	987.4	0.6
323.08	14001	0.2821	987.8	0.6
323.08	14989	0.2821	988.2	0.6
323.08	15999	0.2821	988.5	0.6
323.08	16987	0.2821	988.9	0.6
323.08	17980	0.2821	989.3	0.6
323.08	18996	0.2821	989.7	0.6
323.08	19986	0.2821	990.1	0.6
323.08	20987	0.2821	990.4	0.6
323.09	1002	0.4976	970.1	1.3
323.09	1995	0.4976	970.5	1.3
323.09	3001	0.4976	971	1.3
323.09	4009	0.4976	971.4	1.3
323.09	5001	0.4976	971.8	1.3
323.09	5995	0.4976	972.2	1.3
323.09	7011	0.4976	972.6	1.3
323.09	7990	0.4976	973	1.3
323.09	9002	0.4976	973.5	1.3
323.09	9974	0.4976	973.9	1.3
323.09	10992	0.4976	974.3	1.3
323.09	11993	0.4976	974.7	1.3
323.09	12991	0.4976	975.1	1.3
323.09	13986	0.4976	975.6	1.3
323.09	14991	0.4976	976	1.3
323.09	15999	0.4976	976.4	1.3
323.09	16994	0.4976	976.8	1.3
323.09	18003	0.4976	977.2	1.3
323.09	18986	0.4976	977.6	1.3
323.09	19985	0.4976	978	1.3
323.09	20939	0.4976	978.4	1.3
323.1	513	0.1997	984.2	0.5
323.1	1002	0.4002	978	0.9
323.1	1007	0.1997	984.4	0.5
323.1	2005	0.1997	984.8	0.5
323.1	2023	0.4002	978.4	0.9
323.1	3001	0.4002	978.9	0.9
323.1	3005	0.1997	985.1	0.5
323.1	4001	0.1997	985.5	0.5
323.1	4011	0.4002	979.2	0.9
323.1	5000	0.1997	986	0.5
323.1	5000	0.4002	979.7	0.9
323.1	6002	0.4002	980	0.9
323.1	6003	0.1997	986.3	0.5
323.1	6999	0.4002	980.4	0.9
323.1	7003	0.1997	986.8	0.5
323.1	7990	0.4002	980.8	0.9
323.1	8001	0.1997	987.1	0.5
323.1	9002	0.4002	981.2	0.9
323.1	9013	0.1997	987.5	0.5
323.1	9990	0.4002	981.6	0.9
323.1	10002	0.1997	987.9	0.5
323.1	10992	0.4002	982	0.9
323.1	11001	0.1997	988.3	0.5
323.1	11996	0.4002	982.5	0.9
323.1	12004	0.1997	988.7	0.5
323.1	12990	0.4002	982.8	0.9
323.1	13009	0.1997	989	0.5
323.1	13994	0.4002	983.2	0.9
323.1	13999	0.1997	989.4	0.5
323.1	14992	0.4002	983.6	0.9
323.1	15001	0.1997	989.8	0.5
323.1	15995	0.4002	984	0.9
323.1	16002	0.1997	990.2	0.5
323.1	16986	0.4002	984.4	0.9
323.1	17001	0.1997	990.6	0.5
323.1	17993	0.4002	984.8	0.9
323.1	18004	0.1997	991	0.5
323.1	18995	0.4002	985.1	0.9
323.1	19000	0.1997	991.4	0.5
323.1	19992	0.4002	985.5	0.9
323.1	20030	0.1997	991.7	0.5
323.1	21005	0.1997	992.1	0.5
323.1	21297	0.4002	986	0.9
323.1	22004	0.1997	992.5	0.5
323.1	22998	0.1997	992.9	0.5
323.1	24004	0.1997	993.3	0.5
332.01	1005	0.2821	976.1	0.6
332.01	2004	0.2821	976.5	0.6
332.01	2997	0.2821	977	0.6
332.01	4002	0.2821	977.4	0.6
332.01	5002	0.2821	977.8	0.6
332.01	5997	0.2821	978.2	0.6
332.01	6999	0.2821	978.6	0.6
332.01	7996	0.2821	979	0.6
332.01	8992	0.2821	979.4	0.6
332.01	9994	0.2821	979.8	0.6
332.01	11040	0.2821	980.2	0.6
332.01	11992	0.2821	980.6	0.6
332.01	12990	0.2821	981	0.6
332.01	13989	0.2821	981.4	0.6
332.01	14989	0.2821	981.8	0.6
332.01	15990	0.2821	982.2	0.6
332.01	17000	0.2821	982.5	0.6
332.01	17987	0.2821	982.9	0.6
332.01	18991	0.2821	983.3	0.6
332.01	19984	0.2821	983.7	0.6
332.01	20986	0.2821	984.1	0.6
332.99	503	0.1997	978.2	0.5
332.99	1000	0.1997	978.5	0.5
332.99	2000	0.1997	978.7	0.5
332.99	3000	0.1997	979.2	0.5
332.99	4000	0.1997	979.6	0.5
332.99	5001	0.1997	979.9	0.5
332.99	6000	0.1997	980.4	0.5
332.99	7001	0.1997	980.8	0.5
332.99	8001	0.1997	981.2	0.5
332.99	9009	0.1997	981.5	0.5
332.99	10003	0.1997	982	0.5
332.99	11001	0.1997	982.3	0.5
332.99	12000	0.1997	982.8	0.5
332.99	13000	0.1997	983.2	0.5
332.99	14000	0.1997	983.6	0.5
332.99	14999	0.1997	984	0.5
332.99	16001	0.1997	984.3	0.5
332.99	17001	0.1997	984.8	0.5
332.99	18006	0.1997	985.2	0.5
332.99	19001	0.1997	985.5	0.5
332.99	20029	0.1997	985.9	0.5
332.99	21005	0.1997	986.3	0.5
332.99	22004	0.1997	986.7	0.5
332.99	23000	0.1997	987	0.5
332.99	24008	0.1997	987.4	0.5
333.04	1029	0.4976	961.9	1.2
333.04	1994	0.4976	962.4	1.2
333.04	3005	0.4976	962.8	1.2
333.04	4012	0.4976	963.3	1.2
333.04	4995	0.4976	963.7	1.3
333.04	5995	0.4976	964.1	1.3
333.04	7056	0.4976	964.6	1.3
333.04	7994	0.4976	965	1.3
333.04	8994	0.4976	965.5	1.3
333.04	9997	0.4976	965.9	1.3
333.04	10996	0.4976	966.3	1.3
333.04	11991	0.4976	966.7	1.3
333.04	12988	0.4976	967.2	1.3
333.04	13992	0.4976	967.6	1.3
333.04	14999	0.4976	968	1.3
333.04	15982	0.4976	968.4	1.3
333.04	16996	0.4976	968.9	1.3
333.04	17988	0.4976	969.3	1.3
333.04	18986	0.4976	969.7	1.3
333.04	19987	0.4976	970.1	1.3
333.04	21093	0.4976	970.6	1.3
333.05	1028	0.4002	970.4	0.9
333.05	1998	0.4002	970.8	0.9
333.05	3001	0.4002	971.2	0.9
333.05	4010	0.4002	971.6	0.9
333.05	5003	0.4002	972.1	0.9
333.05	5997	0.4002	972.5	0.9
333.05	7000	0.4002	972.9	0.9
333.05	8010	0.4002	973.3	0.9
333.05	8996	0.4002	973.7	0.9
333.05	9998	0.4002	974.2	0.9
333.05	10998	0.4002	974.6	0.9
333.05	12011	0.4002	975	0.9
333.05	13000	0.4002	975.4	0.9
333.05	13987	0.4002	975.8	0.9
333.05	14990	0.4002	976.2	0.9
333.05	15984	0.4002	976.6	0.9
333.05	16990	0.4002	977	0.9
333.05	18003	0.4002	977.4	0.9
333.05	18986	0.4002	977.8	0.9
333.05	19988	0.4002	978.2	0.9
333.05	21502	0.4002	978.8	0.9
342.91	1020	0.2821	969	0.6
342.91	2011	0.2821	969.5	0.6
342.91	3009	0.2821	969.9	0.6
342.91	4010	0.2821	970.3	0.6
342.91	4994	0.2821	970.8	0.6
342.91	5994	0.2821	971.2	0.6
342.91	7035	0.2821	971.6	0.6
342.91	7995	0.2821	972	0.6
342.91	8990	0.2821	972.4	0.6
342.91	9998	0.2821	972.9	0.6
342.91	10992	0.2821	973.3	0.6
342.91	11994	0.2821	973.7	0.6
342.91	12992	0.2821	974.1	0.6
342.91	13990	0.2821	974.5	0.6
342.91	14992	0.2821	974.9	0.6
342.91	15993	0.2821	975.4	0.6
342.91	16987	0.2821	975.8	0.6
342.91	17985	0.2821	976.2	0.6
342.91	18987	0.2821	976.6	0.6
342.91	19984	0.2821	977	0.6
342.91	20986	0.2821	977.4	0.6
342.92	509	0.1997	971.6	0.5
342.92	1001	0.1997	971.8	0.5
342.92	1008	0.4976	953.4	1.2
342.92	2000	0.1997	972.2	0.5
342.92	2004	0.4976	953.8	1.2
342.92	3000	0.1997	972.7	0.5
342.92	3006	0.4976	954.3	1.2
342.92	4000	0.1997	973.1	0.5
342.92	4000	0.4976	954.8	1.2
342.92	4997	0.4976	955.3	1.2
342.92	5000	0.1997	973.6	0.5
342.92	5996	0.4976	955.7	1.2
342.92	6000	0.1997	974	0.5
342.92	6996	0.4976	956.2	1.2
342.92	7001	0.1997	974.4	0.5
342.92	7993	0.4976	956.7	1.2
342.92	8000	0.1997	974.8	0.5
342.92	8988	0.4976	957.2	1.2
342.92	9009	0.1997	975.2	0.5
342.92	9983	0.4976	957.6	1.2
342.92	10002	0.1997	975.6	0.5
342.92	10990	0.4976	958.1	1.2
342.92	11001	0.1997	976	0.5
342.92	12000	0.1997	976.5	0.5
342.92	12003	0.4976	958.5	1.3
342.92	12992	0.4976	958.9	1.3
342.92	13000	0.1997	976.9	0.5
342.92	13996	0.4976	959.4	1.3
342.92	14000	0.1997	977.3	0.5
342.92	14988	0.4976	959.9	1.3
342.92	15002	0.1997	977.7	0.5
342.92	15995	0.4976	960.3	1.3
342.92	16002	0.1997	978.2	0.5
342.92	16984	0.4976	960.8	1.3
342.92	17001	0.1997	978.6	0.5
342.92	17995	0.4976	961.2	1.3
342.92	18002	0.1997	979	0.5
342.92	18994	0.4976	961.7	1.3
342.92	18999	0.1997	979.2	0.5
342.92	19993	0.4976	962.1	1.3
342.92	20029	0.1997	979.8	0.5
342.92	21004	0.1997	980.2	0.5
342.92	21021	0.4976	962.5	1.3
342.92	22004	0.1997	980.6	0.5
342.92	23001	0.1997	981	0.5
342.92	24005	0.1997	981.5	0.5
342.93	1004	0.4002	962.4	0.9
342.93	2006	0.4002	962.8	0.9
342.93	3009	0.4002	963.3	0.9
342.93	4013	0.4002	963.7	0.9
342.93	4998	0.4002	964.2	0.9
342.93	5995	0.4002	964.6	0.9
342.93	6996	0.4002	965	0.9
342.93	7995	0.4002	965.5	0.9
342.93	8994	0.4002	965.9	0.9
342.93	10004	0.4002	966.3	0.9
342.93	10993	0.4002	966.8	0.9
342.93	12000	0.4002	967.2	0.9
342.93	12990	0.4002	967.6	0.9
342.93	13993	0.4002	968	0.9
342.93	14985	0.4002	968.5	0.9
342.93	15999	0.4002	968.9	0.9
342.93	16987	0.4002	969.3	0.9
342.93	17994	0.4002	969.8	0.9
342.93	18984	0.4002	970.2	0.9
342.93	19987	0.4002	970.6	0.9
342.93	20996	0.4002	971	0.9
352.84	1007	0.4002	954.4	0.8
352.84	2012	0.4002	954.9	0.8
352.84	3000	0.4002	955.3	0.8
352.84	4011	0.4002	955.8	0.8
352.84	5007	0.4002	956.3	0.9
352.84	6009	0.4002	956.7	0.9
352.84	7008	0.4002	957.2	0.9
352.84	8014	0.4002	957.6	0.9
352.84	8988	0.4002	958.1	0.9
352.84	9986	0.4002	958.5	0.9
352.84	11001	0.4002	959	0.9
352.84	12004	0.4002	959.5	0.9
352.84	12991	0.4002	959.8	0.9
352.84	13986	0.4002	960.3	0.9
352.84	14991	0.4002	960.8	0.9
352.84	15997	0.4002	961.2	0.9
352.84	16988	0.4002	961.6	0.9
352.84	17995	0.4002	962	0.9
352.84	18987	0.4002	962.5	0.9
352.84	19995	0.4002	962.9	0.9
352.84	20986	0.4002	963.3	0.9
352.85	997	0.2821	961.9	0.6
352.85	2011	0.2821	962.4	0.6
352.85	2994	0.2821	962.8	0.6
352.85	4000	0.2821	963.2	0.6
352.85	5006	0.2821	963.7	0.6
352.85	6000	0.2821	964.1	0.6
352.85	6999	0.2821	964.5	0.6
352.85	7996	0.2821	965	0.6
352.85	8992	0.2821	965.4	0.6
352.85	9994	0.2821	965.8	0.6
352.85	10987	0.2821	966.2	0.6
352.85	12010	0.2821	966.7	0.6
352.85	12992	0.2821	967.1	0.6
352.85	13990	0.2821	967.5	0.6
352.85	14990	0.2821	968	0.6
352.85	15988	0.2821	968.4	0.6
352.85	16991	0.2821	968.8	0.6
352.85	17991	0.2821	969.2	0.6
352.85	18988	0.2821	969.6	0.6
352.85	19987	0.2821	970.1	0.6
352.85	20985	0.2821	970.5	0.6
352.86	500	0.1997	965	0.5
352.86	1000	0.1997	965.2	0.5
352.86	2000	0.1997	965.7	0.5
352.86	3000	0.1997	966.2	0.5
352.86	4000	0.1997	966.5	0.5
352.86	5000	0.1997	966.9	0.5
352.86	6000	0.1997	967.3	0.5
352.86	7000	0.1997	967.8	0.5
352.86	8000	0.1997	968.2	0.5
352.86	9009	0.1997	968.6	0.5
352.86	10002	0.1997	969.1	0.5
352.86	11001	0.1997	969.5	0.5
352.86	12000	0.1997	970	0.5
352.86	13000	0.1997	970.4	0.5
352.86	14000	0.1997	970.8	0.5
352.86	15003	0.1997	971.2	0.5
352.86	16001	0.1997	971.6	0.5
352.86	17001	0.1997	972.1	0.5
352.86	18002	0.1997	972.5	0.5
352.86	19001	0.1997	972.9	0.5
352.86	20029	0.1997	973.3	0.5
352.86	21004	0.1997	973.8	0.5
352.86	22004	0.1997	974.1	0.5
352.86	23000	0.1997	974.5	0.5
352.86	24004	0.1997	975	0.5
352.87	1039	0.4976	945	1.2
352.87	2018	0.4976	945.5	1.2
352.87	3005	0.4976	946	1.2
352.87	4018	0.4976	946.5	1.2
352.87	5000	0.4976	946.9	1.2
352.87	5997	0.4976	947.4	1.2
352.87	7007	0.4976	947.9	1.2
352.87	7999	0.4976	948.4	1.2
352.87	8994	0.4976	948.9	1.2
352.87	9996	0.4976	949.4	1.2
352.87	10996	0.4976	949.8	1.2
352.87	12002	0.4976	950.3	1.2
352.87	13000	0.4976	950.8	1.2
352.87	13993	0.4976	951.2	1.2
352.87	15004	0.4976	951.7	1.2
352.87	16002	0.4976	952.2	1.2
352.87	16989	0.4976	952.6	1.3
352.87	18011	0.4976	953.1	1.3
352.87	18989	0.4976	953.5	1.3
352.87	20010	0.4976	954	1.3
352.87	20989	0.4976	954.4	1.3
362.73	999	0.2821	954.1	0.6
362.73	1015	0.4976	936.3	1.2
362.73	1999	0.2821	954.5	0.6
362.73	2010	0.4976	936.7	1.2
362.73	2998	0.2821	955.1	0.6
362.73	3022	0.4976	937.3	1.2
362.73	3996	0.2821	955.4	0.6
362.73	3997	0.4976	937.8	1.2
362.73	4996	0.2821	955.9	0.6
362.73	5010	0.4976	938.3	1.2
362.73	5993	0.2821	956.3	0.6
362.73	6002	0.4976	938.8	1.2
362.73	6993	0.2821	956.8	0.6
362.73	6999	0.4976	939.3	1.2
362.73	7992	0.4976	939.8	1.2
362.73	8006	0.2821	957.3	0.6
362.73	8992	0.2821	957.7	0.6
362.73	8997	0.4976	940.3	1.2
362.73	9994	0.2821	958.1	0.6
362.73	10028	0.4976	940.9	1.2
362.73	10990	0.4976	941.3	1.2
362.73	10992	0.2821	958.6	0.6
362.73	11992	0.2821	959.1	0.6
362.73	11996	0.4976	941.8	1.2
362.73	12991	0.2821	959.5	0.6
362.73	13002	0.4976	942.3	1.2
362.73	13992	0.2821	959.9	0.6
362.73	13994	0.4976	942.8	1.2
362.73	14986	0.4976	943.3	1.2
362.73	14988	0.2821	960.4	0.6
362.73	15987	0.2821	960.8	0.6
362.73	15995	0.4976	943.8	1.2
362.73	16985	0.4976	944.3	1.2
362.73	16990	0.2821	961.3	0.6
362.73	18007	0.4976	944.8	1.2
362.73	18019	0.2821	961.7	0.6
362.73	18985	0.2821	962.1	0.6
362.73	18989	0.4976	945.2	1.2
362.73	19985	0.2821	962.6	0.6
362.73	19988	0.4976	945.7	1.2
362.73	21004	0.4976	946.2	1.3
362.74	532	0.1997	957.9	0.5
362.74	1001	0.1997	958	0.5
362.74	1014	0.4002	946.1	0.8
362.74	1992	0.4002	946.6	0.8
362.74	2000	0.1997	958.5	0.5
362.74	3000	0.1997	959	0.5
362.74	3010	0.4002	947.1	0.8
362.74	4000	0.1997	959.4	0.5
362.74	4009	0.4002	947.5	0.8
362.74	5000	0.1997	960.1	0.5
362.74	5001	0.4002	948	0.8
362.74	6000	0.1997	960.4	0.5
362.74	6003	0.4002	948.5	0.8
362.74	6999	0.4002	949	0.8
362.74	7000	0.1997	960.7	0.5
362.74	7990	0.4002	949.4	0.9
362.74	8001	0.1997	961.2	0.5
362.74	8995	0.4002	949.9	0.9
362.74	9009	0.1997	961.6	0.5
362.74	10004	0.1997	962.1	0.5
362.74	10039	0.4002	950.4	0.9
362.74	10986	0.4002	950.8	0.9
362.74	11001	0.1997	962.4	0.5
362.74	11991	0.4002	951.3	0.9
362.74	12999	0.4002	951.8	0.9
362.74	13999	0.4002	952.2	0.9
362.74	14990	0.4002	952.7	0.9
362.74	15993	0.4002	953.2	0.9
362.74	16984	0.4002	953.6	0.9
362.74	18005	0.4002	954.1	0.9
362.74	18993	0.4002	954.5	0.9
362.74	19978	0.4002	955	0.9
362.74	21014	0.4002	955.4	0.9
