Measured thermophysical data. Viscosities of Liquid Fluorocompounds
Source: J. Chem. Eng. Data, 2008, 10.1021/je700632z
Compound 1: perfluorohexane, C6F14, InChI=1S/C6F14/c7-1(8,3(11,12)5(15,16)17)2(9,10)4(13,14)6(18,19)20
Compound 2: hexadecafluoroheptane, C7F16, InChI=1S/C7F16/c8-1(9,2(10,11)4(14,15)6(18,19)20)3(12,13)5(16,17)7(21,22)23
Compound 3: octadecafluorooctane, C8F18, InChI=1S/C8F18/c9-1(10,3(13,14)5(17,18)7(21,22)23)2(11,12)4(15,16)6(19,20)8(24,25)26
Compound 4: eicosafluorononane, C9F20, InChI=1S/C9F20/c10-1(11,2(12,13)4(16,17)6(20,21)8(24,25)26)3(14,15)5(18,19)7(22,23)9(27,28)29
Compound 5: 1-bromoperfluorooctane, C8BrF17, InChI=1S/C8BrF17/c9-7(22,23)5(18,19)3(14,15)1(10,11)2(12,13)4(16,17)6(20,21)8(24,25)26
Compound 6: perfluoro(methylcyclohexane), C7F14, InChI=1S/C7F14/c8-1(7(19,20)21)2(9,10)4(13,14)6(17,18)5(15,16)3(1,11)12
Compound 7: perfluorodecalin, C10F18, InChI=1S/C10F18/c11-1-2(12,5(17,18)9(25,26)7(21,22)3(1,13)14)6(19,20)10(27,28)8(23,24)4(1,15)16, purity 97.75%
Compound 8: hexafluorobenzene, C6F6, InChI=1S/C6F6/c7-1-2(8)4(10)6(12)5(11)3(1)9
Compound 9: octafluorotoluene, C7F8, InChI=1S/C7F8/c8-2-1(7(13,14)15)3(9)5(11)6(12)4(2)10

System: perfluorohexane; phases: Liquid
Fixed: Pressure, kPa = 101.325
Property: Kinematic viscosity, m2/s (Liquid); method: Capillary tube (Ostwald; Ubbelohde) method
Temperature, K	Kinematic viscosity, m2/s	uncertainty
298.15	4.17e-07	5e-09
303.15	3.97e-07	9e-09
308.15	3.72e-07	4e-09
313.15	3.57e-07	5e-09
318.15	3.43e-07	4e-09

System: hexadecafluoroheptane; phases: Liquid
Fixed: Pressure, kPa = 101.325
Property: Kinematic viscosity, m2/s (Liquid); method: Capillary tube (Ostwald; Ubbelohde) method
Temperature, K	Kinematic viscosity, m2/s	uncertainty
298.15	5.43e-07	4e-09
303.15	5.12e-07	9e-09
308.15	4.82e-07	1.1e-08
313.15	4.48e-07	7e-09
318.15	4.34e-07	7e-09

System: octadecafluorooctane; phases: Liquid
Fixed: Pressure, kPa = 101.325
Property: Kinematic viscosity, m2/s (Liquid); method: Capillary tube (Ostwald; Ubbelohde) method
Temperature, K	Kinematic viscosity, m2/s	uncertainty
298.15	7.115e-07	7.4e-09
303.15	6.562e-07	6.9e-09
308.15	6.081e-07	6.4e-09
313.15	5.652e-07	6e-09
318.15	5.273e-07	5.6e-09

System: eicosafluorononane; phases: Liquid
Fixed: Pressure, kPa = 101.325
Property: Kinematic viscosity, m2/s (Liquid); method: Capillary tube (Ostwald; Ubbelohde) method
Temperature, K	Kinematic viscosity, m2/s	uncertainty
298.15	1.001e-06	1.2e-08
303.15	9.11e-07	9e-09
308.15	8.33e-07	8e-09
313.15	7.73e-07	6e-09
318.15	7.14e-07	7e-09

System: 1-bromoperfluorooctane; phases: Liquid
Fixed: Pressure, kPa = 101.325
Property: Kinematic viscosity, m2/s (Liquid); method: Capillary tube (Ostwald; Ubbelohde) method
Temperature, K	Kinematic viscosity, m2/s	uncertainty
298.15	1.065e-06	1e-08
303.15	9.96e-07	1e-08
308.15	9.05e-07	1.1e-08
313.15	8.37e-07	6e-09
318.15	7.51e-07	1.1e-08

System: perfluoro(methylcyclohexane); phases: Liquid
Fixed: Pressure, kPa = 101.325
Property: Kinematic viscosity, m2/s (Liquid); method: Capillary tube (Ostwald; Ubbelohde) method
Temperature, K	Kinematic viscosity, m2/s	uncertainty
298.15	9.31e-07	8e-09
303.15	8.43e-07	9e-09
308.15	7.72e-07	8e-09
313.15	7.22e-07	9e-09
318.15	6.84e-07	9e-09

System: perfluorodecalin; phases: Liquid
Fixed: Pressure, kPa = 101.325
Property: Kinematic viscosity, m2/s (Liquid); method: Capillary tube (Ostwald; Ubbelohde) method
Temperature, K	Kinematic viscosity, m2/s	uncertainty
298.15	2.803e-06	1.6e-08
303.15	2.448e-06	1.4e-08
308.15	2.159e-06	1.4e-08
313.15	1.917e-06	1.1e-08
318.15	1.709e-06	1e-08

System: hexafluorobenzene; phases: Liquid
Fixed: Pressure, kPa = 101.325
Property: Kinematic viscosity, m2/s (Liquid); method: Capillary tube (Ostwald; Ubbelohde) method
Temperature, K	Kinematic viscosity, m2/s	uncertainty
298.15	5.81e-07	9e-09
303.15	5.35e-07	1.1e-08
308.15	4.91e-07	4e-09
313.15	4.5e-07	7e-09
318.15	4.23e-07	9e-09

System: octafluorotoluene; phases: Liquid
Fixed: Pressure, kPa = 101.325
Property: Kinematic viscosity, m2/s (Liquid); method: Capillary tube (Ostwald; Ubbelohde) method
Temperature, K	Kinematic viscosity, m2/s	uncertainty
298.15	5.88e-07	4e-09
303.15	5.51e-07	5e-09
308.15	5.16e-07	4e-09
313.15	4.84e-07	4e-09
318.15	4.57e-07	4e-09
