Measured thermophysical data. Isobaric Vapor Liquid Equilibrium of Binary Mixtures of Vinyl Acetate and Ethyl Formate with Cumene at 97.3 kPa
Source: J. Chem. Eng. Data, 2008, 10.1021/je7004402
Compound 1: isopropylbenzene, C9H12, InChI=1S/C9H12/c1-8(2)9-6-4-3-5-7-9/h3-8H,1-2H3
Compound 2: vinyl acetate, C4H6O2, InChI=1S/C4H6O2/c1-3-6-4(2)5/h3H,1H2,2H3
Compound 3: ethyl methanoate, C3H6O2, InChI=1S/C3H6O2/c1-2-5-3-4/h3H,2H2,1H3

System: isopropylbenzene; phases: Liquid, Gas
Property: Normal boiling temperature, K (Liquid); method: Ebulliometric method (Recirculating still)
Normal boiling temperature, K	uncertainty
425.44	0.2

System: isopropylbenzene; phases: Liquid
Property: Refractive index (Na D-line) (Liquid); method: Standard Abbe refractometry
Temperature, K	Pressure, kPa	Refractive index (Na D-line)	uncertainty
298.15	101.325	1.488292	0.00053

System: vinyl acetate; phases: Liquid, Gas
Property: Normal boiling temperature, K (Liquid); method: Ebulliometric method (Recirculating still)
Normal boiling temperature, K	uncertainty
345.95	0.2

System: vinyl acetate; phases: Liquid
Property: Refractive index (Na D-line) (Liquid); method: Standard Abbe refractometry
Temperature, K	Pressure, kPa	Refractive index (Na D-line)	uncertainty
298.15	101.325	1.392364	0.00053

System: ethyl methanoate; phases: Liquid, Gas
Property: Normal boiling temperature, K (Liquid); method: Ebulliometric method (Recirculating still)
Normal boiling temperature, K	uncertainty
327.32	0.2

System: ethyl methanoate; phases: Liquid
Property: Refractive index (Na D-line) (Liquid); method: Standard Abbe refractometry
Temperature, K	Pressure, kPa	Refractive index (Na D-line)	uncertainty
298.15	101.325	1.35901	0.000633

System: isopropylbenzene + ethyl methanoate; phases: Liquid, Gas
Fixed: Pressure, kPa = 97.3
Property: Boiling temperature at pressure P, K (Liquid); method: EBULLIO:UFactor:8
Mole fraction of ethyl methanoate	Boiling temperature at pressure P, K	uncertainty
0.0014	423.17	0.71
0.0095	419.05	0.71
0.018	414.65	0.71
0.0355	406.72	0.7
0.0541	399.78	0.7
0.1036	385.15	0.69
0.144	377.05	0.69
0.214	366.58	0.69
0.2654	360.86	0.69
0.3408	354.75	0.69
0.4146	349.27	0.69
0.443	348.35	0.69
0.5224	343.15	0.69
0.5869	339.79	0.69
0.6422	337.15	0.69
0.709	334.35	0.69
0.8	331.2	0.69
0.8435	329.94	0.69
0.9004	328.48	0.69
0.9412	327.31	0.69
0.9791	326.43	0.69
0.993	326.15	0.69

System: isopropylbenzene + ethyl methanoate; phases: Gas, Liquid
Fixed: Pressure, kPa = 97.3
Property: Mole fraction of ethyl methanoate (Gas); method: Chromatography
Mole fraction of ethyl methanoate	Mole fraction of ethyl methanoate	uncertainty
0.0014	0.0198	0.0051
0.0095	0.1223	0.0049
0.018	0.2172	0.0044
0.0355	0.3746	0.0055
0.0541	0.4948	0.0075
0.1036	0.6963	0.0064
0.144	0.7789	0.0052
0.214	0.8592	0.0037
0.2654	0.893	0.003
0.3408	0.9224	0.0023
0.4146	0.9436	0.0017
0.443	0.9485	0.0016
0.5224	0.9621	0.0012
0.5869	0.9701	0.0009
0.6422	0.9757	0.0008
0.709	0.9815	0.0007
0.8	0.9877	0.0005
0.8435	0.9903	0.0005
0.9004	0.9937	0.0004
0.9412	0.9959	0.0004
0.9791	0.9985	0.0004
0.993	0.9995	0.0004

System: isopropylbenzene + vinyl acetate; phases: Liquid, Gas
Fixed: Pressure, kPa = 97.3
Property: Boiling temperature at pressure P, K (Liquid); method: EBULLIO:UFactor:8
Mole fraction of vinyl acetate	Boiling temperature at pressure P, K	uncertainty
0.005	421.85	0.71
0.0135	418.24	0.71
0.0209	415.15	0.7
0.0282	412.86	0.7
0.0493	406.25	0.69
0.0758	399.35	0.69
0.1054	393.17	0.69
0.1218	390.15	0.69
0.1594	384.25	0.69
0.2335	375.34	0.69
0.3115	369.25	0.69
0.3933	364.06	0.68
0.4476	361.35	0.68
0.4937	359.15	0.68
0.5581	357.46	0.68
0.6341	355.05	0.68
0.6892	353.15	0.68
0.7559	351.36	0.68
0.8132	349.67	0.68
0.8388	349.04	0.68
0.8812	347.87	0.68
0.923	346.64	0.68
0.9683	345.46	0.68

System: isopropylbenzene + vinyl acetate; phases: Gas, Liquid
Fixed: Pressure, kPa = 97.3
Property: Mole fraction of vinyl acetate (Gas); method: Chromatography
Mole fraction of vinyl acetate	Mole fraction of vinyl acetate	uncertainty
0.005	0.0563	0.0041
0.0135	0.1422	0.0039
0.0209	0.2027	0.0036
0.0282	0.2531	0.0036
0.0493	0.3814	0.0047
0.0758	0.4989	0.0062
0.1054	0.5952	0.0054
0.1218	0.6357	0.005
0.1594	0.7065	0.0042
0.2335	0.7898	0.0033
0.3115	0.8449	0.0025
0.3933	0.8836	0.0019
0.4476	0.903	0.0016
0.4937	0.9142	0.0015
0.5581	0.9284	0.0012
0.6341	0.9412	0.001
0.6892	0.9501	0.0009
0.7559	0.959	0.0008
0.8132	0.967	0.0007
0.8388	0.9709	0.0006
0.8812	0.978	0.0005
0.923	0.985	0.0005
0.9683	0.9937	0.0004
