Measured thermophysical data. Heat Capacities of Chloroanilines and Chloronitrobenzenes
Source: J. Chem. Eng. Data, 2007, 10.1021/je700080k
Compound 1: 2-chlorobenzeneamine, C6H6ClN, InChI=1S/C6H6ClN/c7-5-3-1-2-4-6(5)8/h1-4H,8H2, purity 99.9%
Compound 2: 3-chlorobenzenamine, C6H6ClN, InChI=1S/C6H6ClN/c7-5-2-1-3-6(8)4-5/h1-4H,8H2, purity 99.6%
Compound 3: 4-chlorobenzenamine, C6H6ClN, InChI=1S/C6H6ClN/c7-5-1-3-6(8)4-2-5/h1-4H,8H2, purity 99.9%
Compound 4: 1-chloro-2-nitrobenzene, C6H4ClNO2, InChI=1S/C6H4ClNO2/c7-5-3-1-2-4-6(5)8(9)10/h1-4H, purity 99.9%
Compound 5: 1-chloro-3-nitrobenzene, C6H4ClNO2, InChI=1S/C6H4ClNO2/c7-5-2-1-3-6(4-5)8(9)10/h1-4H, purity 99.9%
Compound 6: 1-chloro-4-nitrobenzene, C6H4ClNO2, InChI=1S/C6H4ClNO2/c7-5-1-3-6(4-2-5)8(9)10/h1-4H, purity 99.9%

System: 2-chlorobenzeneamine; phases: Crystal, Liquid, Gas
Property: Molar enthalpy of transition or fusion, kJ/mol (Crystal); method: DSC
Molar enthalpy of transition or fusion, kJ/mol	uncertainty
12.38	0.41

System: 2-chlorobenzeneamine; phases: Crystal, Liquid, Air at 1 atmosphere
Property: Molar enthalpy of transition or fusion, kJ/mol (Crystal); method: DSC
Molar enthalpy of transition or fusion, kJ/mol	uncertainty
12.27	0.41

System: 2-chlorobenzeneamine; phases: Crystal, Liquid, Air at 1 atmosphere
Property: Normal melting temperature, K (Crystal); method: DTA
Normal melting temperature, K	uncertainty
269.5	0.5

System: 2-chlorobenzeneamine; phases: Crystal, Liquid, Air at 1 atmosphere
Property: Normal melting temperature, K (Crystal); method: DTA
Normal melting temperature, K	uncertainty
269.2	0.5

System: 2-chlorobenzeneamine; phases: Crystal
Property: Molar heat capacity at constant pressure, J/K/mol (Crystal); method: Tian-Calvet differential scanning calorimeter
Temperature, K	Pressure, kPa	Molar heat capacity at constant pressure, J/K/mol	uncertainty
258.09	101.325	153	3.076

System: 2-chlorobenzeneamine; phases: Liquid
Fixed: Pressure, kPa = 101.325
Property: Molar heat capacity at constant pressure, J/K/mol (Liquid); method: Tian-Calvet differential scanning calorimeter
Temperature, K	Molar heat capacity at constant pressure, J/K/mol	uncertainty
258.1	194.3	3.908
278.51	197.1	3.908
288.72	197.9	3.991
288.72	198.1	3.991
298.93	200.5	3.991
298.93	200	3.991
298.93	200.6	3.991
298.93	200	3.991
309.14	201.3	3.991
309.14	201.5	3.991
309.14	201.5	3.991
309.14	201.2	3.991
319.35	203.4	4.074
319.35	203.4	4.074
319.35	203.3	4.074
319.35	203.5	4.074
329.56	205.4	4.074
329.56	205.2	4.074
329.56	205.3	4.074
329.56	205.5	4.074
339.77	207.1	4.157
339.77	207.4	4.157
339.77	207.3	4.157
339.77	207.1	4.157
349.98	209.3	4.157
349.98	209	4.157
349.98	209.1	4.157
349.98	209.4	4.157

System: 3-chlorobenzenamine; phases: Liquid
Fixed: Pressure, kPa = 101.325
Property: Molar heat capacity at constant pressure, J/K/mol (Liquid); method: Tian-Calvet differential scanning calorimeter
Temperature, K	Molar heat capacity at constant pressure, J/K/mol	uncertainty
278.51	200.3	3.991
278.51	199.9	3.991
288.72	201.8	4.074
288.72	201.5	3.991
298.93	204	4.074
298.93	203.9	4.074
298.93	203.5	4.074
309.14	205.5	4.074
309.14	205.3	4.074
309.14	205.2	4.074
319.35	207.6	4.157
319.35	207.4	4.157
319.35	207.4	4.157
329.56	209.6	4.157
329.56	209.4	4.157
329.56	209.4	4.157
339.77	211.1	4.24
339.77	210.8	4.24
339.77	210.9	4.24
349.98	213.4	4.24
349.98	213	4.24
349.98	212.9	4.24

System: 4-chlorobenzenamine; phases: Crystal, Liquid, Air at 1 atmosphere
Property: Molar enthalpy of transition or fusion, kJ/mol (Crystal); method: DSC
Molar enthalpy of transition or fusion, kJ/mol	uncertainty
20.47	0.61

System: 4-chlorobenzenamine; phases: Crystal, Liquid, Air at 1 atmosphere
Property: Normal melting temperature, K (Crystal); method: DTA
Normal melting temperature, K	uncertainty
342.8	1.1

System: 4-chlorobenzenamine; phases: Crystal
Fixed: Pressure, kPa = 101.325
Property: Molar heat capacity at constant pressure, J/K/mol (Crystal); method: Tian-Calvet differential scanning calorimeter
Temperature, K	Molar heat capacity at constant pressure, J/K/mol	uncertainty
278.51	142.5	2.827
278.51	142.3	2.827
278.51	142.3	2.827
288.72	146.3	2.91
288.72	146.3	2.91
288.72	146.4	2.91
298.93	151.2	2.993
298.93	151.4	2.993
298.93	151.2	2.993
309.14	155.6	3.076
309.14	155.5	3.076
309.14	155.5	3.076
319.35	160.3	3.243
319.35	160.1	3.243
319.35	160.2	3.243
329.56	165.5	3.326
329.56	165.5	3.326
329.56	165	3.326

System: 1-chloro-2-nitrobenzene; phases: Crystal, Liquid, Air at 1 atmosphere
Property: Molar enthalpy of transition or fusion, kJ/mol (Crystal); method: DSC
Molar enthalpy of transition or fusion, kJ/mol	uncertainty
18.11	0.55

System: 1-chloro-2-nitrobenzene; phases: Crystal, Liquid, Air at 1 atmosphere
Property: Normal melting temperature, K (Crystal); method: DTA
Normal melting temperature, K	uncertainty
305.3	1.1

System: 1-chloro-2-nitrobenzene; phases: Crystal
Fixed: Pressure, kPa = 101.325
Property: Molar heat capacity at constant pressure, J/K/mol (Crystal); method: Tian-Calvet differential scanning calorimeter
Temperature, K	Molar heat capacity at constant pressure, J/K/mol	uncertainty
278.51	172.6	3.492
278.51	171.4	3.409
278.51	171.4	3.409
278.51	172.1	3.409
278.51	172.2	3.409
288.72	186.7	3.742
288.72	186.3	3.742
288.72	186.5	3.742
288.72	187.2	3.742
288.72	186.7	3.742
298.93	210.5	4.24
298.93	211.7	4.24
298.93	212.3	4.24

System: 1-chloro-2-nitrobenzene; phases: Liquid
Fixed: Pressure, kPa = 101.325
Property: Molar heat capacity at constant pressure, J/K/mol (Liquid); method: Tian-Calvet differential scanning calorimeter
Temperature, K	Molar heat capacity at constant pressure, J/K/mol	uncertainty
319.35	211.4	4.24
319.35	211.7	4.24
319.35	212	4.24
319.35	211.9	4.24
329.56	214.3	4.324
329.56	214.1	4.324
329.56	214.3	4.324
329.56	214.4	4.324
339.77	216	4.324
339.77	216.6	4.324
349.98	218.6	4.407
349.98	218.8	4.407

System: 1-chloro-3-nitrobenzene; phases: Crystal, Liquid, Air at 1 atmosphere
Property: Molar enthalpy of transition or fusion, kJ/mol (Crystal); method: DSC
Molar enthalpy of transition or fusion, kJ/mol	uncertainty
19.52	0.59

System: 1-chloro-3-nitrobenzene; phases: Crystal, Liquid, Air at 1 atmosphere
Property: Normal melting temperature, K (Crystal); method: DTA
Normal melting temperature, K	uncertainty
316.9	1.1

System: 1-chloro-3-nitrobenzene; phases: Liquid
Fixed: Pressure, kPa = 101.325
Property: Molar heat capacity at constant pressure, J/K/mol (Liquid); method: Tian-Calvet differential scanning calorimeter
Temperature, K	Molar heat capacity at constant pressure, J/K/mol	uncertainty
298.93	208.8	4.157
298.93	209.5	4.157
309.14	211.4	4.24
309.14	211.8	4.24
319.35	214.6	4.324
319.35	214.3	4.324
329.56	217.3	4.324
329.56	217.1	4.324
329.56	217.3	4.324
329.56	217.4	4.324
329.56	217.2	4.324
339.77	219.8	4.407
339.77	219.8	4.407
339.77	219.4	4.407
339.77	219.5	4.407
339.77	219.6	4.407
349.98	222.6	4.49
349.98	222.6	4.49
349.98	222.4	4.49
349.98	222.3	4.407
349.98	222.3	4.407

System: 1-chloro-3-nitrobenzene; phases: Crystal
Fixed: Pressure, kPa = 101.325
Property: Molar heat capacity at constant pressure, J/K/mol (Crystal); method: Tian-Calvet differential scanning calorimeter
Temperature, K	Molar heat capacity at constant pressure, J/K/mol	uncertainty
278.51	154.9	3.076
288.72	160.1	3.243
298.93	168.2	3.326
298.93	170.2	3.409

System: 1-chloro-4-nitrobenzene; phases: Crystal, Liquid, Air at 1 atmosphere
Property: Molar enthalpy of transition or fusion, kJ/mol (Crystal); method: DSC
Molar enthalpy of transition or fusion, kJ/mol	uncertainty
15.03	0.48

System: 1-chloro-4-nitrobenzene; phases: Crystal, Liquid, Air at 1 atmosphere
Property: Normal melting temperature, K (Crystal); method: DTA
Normal melting temperature, K	uncertainty
355.1	1.1

System: 1-chloro-4-nitrobenzene; phases: Crystal
Fixed: Pressure, kPa = 101.325
Property: Molar heat capacity at constant pressure, J/K/mol (Crystal); method: Tian-Calvet differential scanning calorimeter
Temperature, K	Molar heat capacity at constant pressure, J/K/mol	uncertainty
278.51	161.2	3.243
278.51	160.9	3.243
288.72	164.5	3.326
288.72	164	3.243
298.93	169.9	3.409
298.93	169.9	3.409
298.93	169.9	3.409
298.93	170.1	3.409
298.93	169.8	3.409
309.14	174.9	3.492
309.14	175.3	3.492
309.14	175.2	3.492
309.14	175.1	3.492
309.14	175.7	3.492
319.35	179.9	3.575
319.35	181	3.658
319.35	180.8	3.575
319.35	180.8	3.658
319.35	180.7	3.575
329.56	186.9	3.742
329.56	188.6	3.742
329.56	188.3	3.742
329.56	188.6	3.742
329.56	188.2	3.742
339.77	199	3.991
339.77	203.5	4.074
339.77	203.5	4.074
339.77	203.5	4.074
339.77	203.1	4.074
