Measured thermophysical data. Vapor Liquid Equilibria for the Ternary System Ethanol + Water + 1-Ethyl-3-methylimidazolium Ethylsulfate and the Corresponding Binary Systems Containing the Ionic Liquid at 101.3 kPa
Source: J. Chem. Eng. Data, 2008, 10.1021/je700710d
Compound 1: ethanol, C2H6O, InChI=1S/C2H6O/c1-2-3/h3H,2H2,1H3
Compound 2: water, H2O, InChI=1S/H2O/h1H2
Compound 3: 1-ethyl-3-methylimidazolium ethyl sulfate, C8H16N2O4S, InChI=1S/C6H11N2.C2H6O4S/c1-3-8-5-4-7(2)6-8;1-2-6-7(3,4)5/h4-6H,3H2,1-2H3;2H2,1H3,(H,3,4,5)/q+1;/p-1

System: ethanol; phases: Liquid
Property: Mass density, kg/m3 (Liquid); method: VIBTUB:UFactor:4
Temperature, K	Pressure, kPa	Mass density, kg/m3	uncertainty
298.15	101.325	785.46	0.47

System: ethanol; phases: Liquid
Property: Viscosity, Pa*s (Liquid); method: Capillary tube (Ostwald; Ubbelohde) method
Temperature, K	Pressure, kPa	Viscosity, Pa*s	uncertainty
298.15	101.325	0.001082	9e-06

System: 1-ethyl-3-methylimidazolium ethyl sulfate; phases: Liquid
Property: Mass density, kg/m3 (Liquid); method: Vibrating tube method
Temperature, K	Pressure, kPa	Mass density, kg/m3	uncertainty
298.15	101.325	1237.63	8.34

System: 1-ethyl-3-methylimidazolium ethyl sulfate; phases: Liquid
Property: Viscosity, Pa*s (Liquid); method: Capillary tube (Ostwald; Ubbelohde) method
Temperature, K	Pressure, kPa	Viscosity, Pa*s	uncertainty
298.15	101.325	0.09758	0.00399

System: ethanol + 1-ethyl-3-methylimidazolium ethyl sulfate; phases: Liquid, Gas
Fixed: Pressure, kPa = 101.3
Property: Boiling temperature at pressure P, K (Liquid); method: EBULLIO:UFactor:4
Mole fraction of ethanol	Boiling temperature at pressure P, K	uncertainty
0.338	402.88	0.48
0.443	386.38	0.44
0.572	373.05	0.4
0.618	369.6	0.38
0.649	366.92	0.37
0.708	363.32	0.37
0.742	361.25	0.36
0.789	358.92	0.36
0.832	356.89	0.35
0.863	355.65	0.35
0.889	354.67	0.35
0.912	353.77	0.35
0.936	353.15	0.35
0.96	352.49	0.34
0.98	351.99	0.34
1	351.44	0.34

System: ethanol + 1-ethyl-3-methylimidazolium ethyl sulfate; phases: Gas, Liquid
Fixed: Pressure, kPa = 101.3
Property: Mole fraction of ethanol (Gas); method: Density calibration data
Mole fraction of ethanol	Mole fraction of ethanol	uncertainty
0.338	0.521	0.019
0.443	0.656	0.016
0.572	0.789	0.014
0.618	0.823	0.014
0.649	0.861	0.013
0.708	0.899	0.012
0.742	0.926	0.012
0.789	0.95	0.011
0.832	0.973	0.011
0.863	0.984	0.011
0.889	0.992	0.008
0.912	1	0.001
0.936	0.999	0.001
0.96	1	0.001
0.98	0.999	0.001
1	1	0.001

System: water + 1-ethyl-3-methylimidazolium ethyl sulfate; phases: Liquid, Gas
Fixed: Pressure, kPa = 101.3
Property: Boiling temperature at pressure P, K (Liquid); method: EBULLIO:UFactor:4
Mole fraction of water	Boiling temperature at pressure P, K	uncertainty
0.58	410.58	0.4
0.634	405.32	0.4
0.648	403.64	0.43
0.658	402.33	0.42
0.677	400.29	0.4
0.705	397.52	0.41
0.747	392.9	0.4
0.787	389.07	0.4
0.82	385.42	0.39
0.855	382.72	0.38
0.875	381	0.38
0.893	379.36	0.37
0.915	378.02	0.36
0.932	376.85	0.37
0.945	376.02	0.36
0.958	375.34	0.36
0.967	374.86	0.36
0.973	374.5	0.36
0.98	374.16	0.35
0.987	373.83	0.35
0.995	373.54	0.36
1	373.15	0.34

System: water + 1-ethyl-3-methylimidazolium ethyl sulfate; phases: Gas, Liquid
Fixed: Pressure, kPa = 101.3
Property: Mole fraction of water (Gas); method: Density calibration data
Mole fraction of water	Mole fraction of water	uncertainty
0.58	0.52	0.015
0.634	0.555	0.015
0.648	0.571	0.017
0.658	0.584	0.017
0.677	0.604	0.016
0.705	0.631	0.017
0.747	0.689	0.017
0.787	0.74	0.019
0.82	0.8	0.018
0.855	0.839	0.016
0.875	0.869	0.019
0.893	0.901	0.016
0.915	0.921	0.014
0.932	0.942	0.015
0.945	0.956	0.014
0.958	0.966	0.013
0.967	0.973	0.013
0.973	0.98	0.013
0.98	0.984	0.012
0.987	0.989	0.011
0.995	0.991	0.009
1	1	0.001

System: ethanol + water + 1-ethyl-3-methylimidazolium ethyl sulfate; phases: Liquid, Gas
Fixed: Pressure, kPa = 101.3
Property: Boiling temperature at pressure P, K (Liquid); method: EBULLIO:UFactor:4
Mole fraction of ethanol	Mole fraction of water	Boiling temperature at pressure P, K	uncertainty
0.053	0.836	370.4	1.94
0.06	0.755	375.6	1.19
0.062	0.906	364.45	2.17
0.062	0.922	362.41	2.17
0.074	0.84	366.52	1.87
0.082	0.88	362.69	1.55
0.089	0.847	363.79	1.53
0.102	0.866	360.81	1.14
0.104	0.851	361.5	1.34
0.119	0.754	370.46	1.75
0.137	0.81	360.4	1.07
0.137	0.852	358.4	1.09
0.152	0.811	359.01	0.94
0.175	0.813	357.4	0.84
0.179	0.755	359.34	1.69
0.21	0.756	357.2	0.76
0.229	0.755	356.54	0.6
0.232	0.69	358.58	0.77
0.262	0.706	356.23	0.79
0.268	0.518	365.11	1.04
0.301	0.53	361.72	1.04
0.346	0.545	357.34	0.73
0.347	0.521	359.24	1.13
0.347	0.623	355.2	0.48
0.347	0.635	355.12	0.48
0.374	0.52	357.32	0.89
0.387	0.366	364.48	0.99
0.408	0.513	356	0.66
0.415	0.464	357.32	0.66
0.43	0.542	354.48	0.57
0.446	0.375	359.48	0.94
0.456	0.453	355.81	0.63
0.495	0.394	356.35	0.72
0.51	0.352	357.33	0.78
0.518	0.42	354.6	0.52
0.52	0.445	354.18	0.45
0.531	0.264	360.05	0.65
0.538	0.435	353.93	0.49
0.546	0.347	355.71	0.56
0.606	0.355	353.79	0.64
0.638	0.336	353.65	0.48

System: ethanol + water + 1-ethyl-3-methylimidazolium ethyl sulfate; phases: Gas, Liquid
Fixed: Pressure, kPa = 101.3
Property: Mole fraction of ethanol (Gas); method: Density calibration data
Mole fraction of ethanol	Mole fraction of water	Mole fraction of ethanol	uncertainty
0.053	0.836	0.351	0.034
0.06	0.755	0.37	0.011
0.062	0.906	0.39	0.058
0.062	0.922	0.444	0.058
0.074	0.84	0.42	0.034
0.082	0.88	0.464	0.023
0.089	0.847	0.465	0.029
0.102	0.866	0.498	0.018
0.104	0.851	0.507	0.021
0.119	0.754	0.379	0.024
0.137	0.81	0.544	0.014
0.137	0.852	0.55	0.018
0.152	0.811	0.534	0.013
0.175	0.813	0.561	0.017
0.179	0.755	0.581	0.027
0.21	0.756	0.574	0.012
0.229	0.755	0.586	0.013
0.232	0.69	0.604	0.012
0.262	0.706	0.61	0.013
0.268	0.518	0.689	0.012
0.301	0.53	0.693	0.012
0.346	0.545	0.69	0.013
0.347	0.521	0.696	0.011
0.347	0.623	0.629	0.013
0.347	0.635	0.623	0.013
0.374	0.52	0.695	0.013
0.387	0.366	0.787	0.018
0.408	0.513	0.689	0.015
0.415	0.464	0.643	0.027
0.43	0.542	0.645	0.013
0.446	0.375	0.777	0.013
0.456	0.453	0.717	0.017
0.495	0.394	0.743	0.013
0.51	0.352	0.762	0.014
0.518	0.42	0.707	0.017
0.52	0.445	0.672	0.02
0.531	0.264	0.835	0.016
0.538	0.435	0.668	0.018
0.546	0.347	0.761	0.016
0.606	0.355	0.694	0.017
0.638	0.336	0.673	0.02
