Measured thermophysical data. Thermal Conductivity of Aqueous Na2CO3 at High Temperatures and High Pressures
Source: J. Chem. Eng. Data, 2008, 10.1021/je7005506
Compound 1: water, H2O, InChI=1S/H2O/h1H2
Compound 2: sodium carbonate, CNa2O3, InChI=1S/CH2O3.2Na/c2-1(3)4;;/h(H2,2,3,4);;/q;2*+1/p-2

System: sodium carbonate + water; phases: Liquid
Property: Thermal conductivity, W/m/K (Liquid); method: Coaxial cylinder method
Pressure, kPa	Molality, mol/kg of sodium carbonate	Temperature, K	Thermal conductivity, W/m/K	uncertainty
100	0.4966	308.4	0.617	0.028
100	0.4966	329.2	0.643	0.029
100	0.4966	366.5	0.666	0.03
100	1.0483	308.1	0.612	0.027
100	1.0483	327.3	0.639	0.029
100	1.0483	366.3	0.661	0.029
100	1.665	307.5	0.607	0.027
100	1.665	328.1	0.634	0.028
100	1.665	366.8	0.656	0.029
10000	0.4966	307.3	0.625	0.028
10000	0.4966	328.7	0.65	0.029
10000	0.4966	366.1	0.676	0.03
10000	0.4966	384.2	0.68	0.03
10000	0.4966	409.1	0.684	0.03
10000	0.4966	439.2	0.681	0.03
10000	0.4966	464.8	0.673	0.03
10000	0.4966	507.3	0.64	0.029
10000	0.4966	528.1	0.621	0.028
10000	0.4966	553.7	0.583	0.026
10000	1.0483	308.9	0.619	0.028
10000	1.0483	330.1	0.646	0.029
10000	1.0483	365.3	0.672	0.03
10000	1.0483	379.1	0.677	0.03
10000	1.0483	407.8	0.68	0.03
10000	1.0483	438.1	0.675	0.03
10000	1.0483	463.5	0.665	0.03
10000	1.0483	507.2	0.636	0.028
10000	1.0483	528.1	0.612	0.027
10000	1.0483	553.2	0.577	0.026
10000	1.665	308.5	0.614	0.027
10000	1.665	329.2	0.641	0.029
10000	1.665	365.7	0.667	0.03
10000	1.665	382.7	0.672	0.03
10000	1.665	407.5	0.675	0.03
10000	1.665	439.2	0.67	0.03
10000	1.665	464.9	0.667	0.03
10000	1.665	506.7	0.631	0.028
10000	1.665	529.3	0.607	0.027
10000	1.665	555.8	0.572	0.026
30000	0.4966	309.4	0.635	0.028
30000	0.4966	328.5	0.655	0.029
30000	0.4966	367.5	0.681	0.03
30000	0.4966	383.8	0.69	0.031
30000	0.4966	408.9	0.697	0.031
30000	0.4966	439.7	0.69	0.031
30000	0.4966	464.2	0.689	0.031
30000	0.4966	507.7	0.667	0.03
30000	0.4966	529.3	0.637	0.028
30000	0.4966	554.3	0.616	0.027
30000	0.4966	602.8	0.538	0.024
30000	0.4966	627.6	0.486	0.022
30000	1.0483	307.2	0.631	0.028
30000	1.0483	328.7	0.651	0.029
30000	1.0483	365.9	0.676	0.03
30000	1.0483	382.5	0.685	0.031
30000	1.0483	409.3	0.692	0.031
30000	1.0483	438.4	0.685	0.031
30000	1.0483	464.9	0.684	0.03
30000	1.0483	508.3	0.662	0.03
30000	1.0483	528.7	0.633	0.028
30000	1.0483	553.5	0.611	0.027
30000	1.0483	603.4	0.534	0.024
30000	1.0483	628.6	0.483	0.022
30000	1.665	309.7	0.623	0.028
30000	1.665	328.5	0.645	0.029
30000	1.665	365.1	0.671	0.03
30000	1.665	382.8	0.68	0.03
30000	1.665	408.7	0.687	0.031
30000	1.665	439	0.68	0.03
30000	1.665	463.7	0.679	0.03
30000	1.665	507.7	0.657	0.029
30000	1.665	529.4	0.628	0.028
30000	1.665	553.9	0.606	0.027
30000	1.665	602.8	0.53	0.024
30000	1.665	627.5	0.479	0.021
