Measured thermophysical data. PVTx Properties of Gaseous Mixtures of Difluoromethane and 1,1,1,2,3,3,3-Heptafluoropropane
Source: J. Chem. Eng. Data, 2007, 10.1021/je7000667
Compound 1: difluoromethane, CH2F2, InChI=1S/CH2F2/c2-1-3/h1H2, purity 99.95%
Compound 2: 1,1,1,2,3,3,3-heptafluoropropane, C3HF7, InChI=1S/C3HF7/c4-1(2(5,6)7)3(8,9)10/h1H, purity 99.9%

System: difluoromethane + 1,1,1,2,3,3,3-heptafluoropropane; phases: Gas
Property: Mass density, kg/m3 (Gas); method: Burnett expansion method
Temperature, K	Pressure, kPa	Mole fraction of difluoromethane	Mass density, kg/m3	uncertainty
310	149.52	0.2648	8.291	0.013
310	189.1	0.5155	8.255	0.011
310	204.07	0.2648	11.439	0.014
310	207.98	0.7809	6.449	0.008
310	258.01	0.5155	11.389	0.012
310	277.27	0.2648	15.782	0.015
310	284.06	0.7809	8.897	0.009
310	350.46	0.5155	15.712	0.013
310	374.4	0.2648	21.774	0.018
310	386.48	0.7809	12.274	0.01
310	473.07	0.5155	21.676	0.016
310	501.26	0.2648	30.041	0.022
310	523.12	0.7809	16.934	0.013
310	633.01	0.5155	29.904	0.021
310	662.59	0.2648	41.446	0.028
310	702.73	0.7809	23.363	0.016
310	836.5	0.5155	41.255	0.026
310	932.7	0.7809	32.232	0.022
310	1221.26	0.7809	44.426	0.03
310	1562.63	0.7809	61.291	0.038
320	154.66	0.2648	8.285	0.012
320	195.61	0.5155	8.251	0.01
320	211.27	0.2648	11.431	0.013
320	215.08	0.7809	6.445	0.008
320	267.14	0.5155	11.383	0.011
320	287.44	0.2648	15.771	0.015
320	294.06	0.7809	8.892	0.009
320	363.38	0.5155	15.704	0.013
320	388.88	0.2648	21.758	0.018
320	400.53	0.7809	12.268	0.01
320	491.5	0.5155	21.665	0.016
320	522.08	0.2648	30.019	0.022
320	543.05	0.7809	16.926	0.013
320	659.5	0.5155	29.889	0.02
320	693.04	0.2648	41.416	0.028
320	731.28	0.7809	23.351	0.016
320	875.19	0.5155	41.235	0.027
320	904.5	0.2648	57.14	0.036
320	974.36	0.7809	32.216	0.021
320	1142.48	0.5155	56.888	0.034
320	1282.18	0.7809	44.404	0.029
320	1653.92	0.7809	61.261	0.041
320	2072.72	0.7809	84.517	0.053
330	159.77	0.2648	8.281	0.012
330	202.1	0.5155	8.247	0.01
330	218.42	0.2648	11.425	0.013
330	222.17	0.7809	6.442	0.008
330	276.22	0.5155	11.377	0.011
330	297.52	0.2648	15.763	0.015
330	303.95	0.7809	8.888	0.008
330	376.17	0.5155	15.696	0.013
330	403.18	0.2648	21.748	0.017
330	414.44	0.7809	12.262	0.01
330	509.64	0.5155	21.654	0.016
330	542.59	0.2648	30.004	0.021
330	562.74	0.7809	16.917	0.012
330	685.57	0.5155	29.874	0.02
330	722.83	0.2648	41.396	0.027
330	759.44	0.7809	23.34	0.016
330	913.06	0.5155	41.214	0.026
330	948.75	0.2648	57.112	0.036
330	1015.2	0.7809	32.2	0.021
330	1198.36	0.5155	56.859	0.035
330	1218.71	0.2648	78.795	0.048
330	1341.66	0.7809	44.382	0.028
330	1539.99	0.5155	78.443	0.047
330	1742.4	0.7809	61.23	0.04
330	2206.83	0.7809	84.475	0.054
340	164.86	0.2648	8.277	0.012
340	208.54	0.5155	8.243	0.01
340	225.54	0.2648	11.42	0.013
340	229.21	0.7809	6.439	0.007
340	285.24	0.5155	11.372	0.011
340	307.52	0.2648	15.755	0.014
340	313.78	0.7809	8.884	0.008
340	388.85	0.5155	15.688	0.013
340	417.35	0.2648	21.737	0.017
340	428.24	0.7809	12.256	0.01
340	527.64	0.5155	21.643	0.016
340	562.85	0.2648	29.989	0.021
340	582.27	0.7809	16.909	0.012
340	711.31	0.5155	29.859	0.02
340	752.13	0.2648	41.375	0.027
340	787.28	0.7809	23.328	0.016
340	950.24	0.5155	41.194	0.026
340	991.76	0.2648	57.084	0.035
340	1055.37	0.7809	32.184	0.021
340	1252.91	0.5155	56.831	0.035
340	1283.14	0.2648	78.756	0.049
340	1399.94	0.7809	44.36	0.028
340	1614.05	0.2648	108.656	0.065
340	1621.43	0.5155	78.404	0.048
340	1828.54	0.7809	61.2	0.039
340	2042.81	0.5155	108.166	0.065
340	2336.21	0.7809	84.433	0.053
350	169.93	0.2648	8.273	0.011
350	214.96	0.5155	8.239	0.01
350	232.62	0.2648	11.414	0.012
350	236.22	0.7809	6.436	0.007
350	294.24	0.5155	11.366	0.011
350	317.47	0.2648	15.747	0.014
350	323.59	0.7809	8.879	0.008
350	401.46	0.5155	15.68	0.012
350	431.39	0.2648	21.726	0.017
350	441.97	0.7809	12.25	0.01
350	545.49	0.5155	21.633	0.015
350	582.86	0.2648	29.974	0.02
350	601.65	0.7809	16.901	0.012
350	736.76	0.5155	29.844	0.02
350	780.99	0.2648	41.355	0.026
350	814.82	0.7809	23.317	0.016
350	986.94	0.5155	41.173	0.026
350	1033.94	0.2648	57.055	0.035
350	1094.95	0.7809	32.168	0.021
350	1306.47	0.5155	56.803	0.035
350	1345.81	0.2648	78.717	0.048
350	1457.22	0.7809	44.338	0.028
350	1700.78	0.5155	78.365	0.048
350	1709.09	0.2648	108.602	0.067
350	1912.81	0.7809	61.169	0.039
350	2092.92	0.2648	149.834	0.091
350	2162.67	0.5155	108.113	0.069
350	2461.96	0.7809	84.391	0.059
350	2654.54	0.5155	149.152	0.091
360	174.96	0.2648	8.269	0.011
360	221.36	0.5155	8.234	0.009
360	239.67	0.2648	11.408	0.012
360	243.21	0.7809	6.433	0.007
360	303.15	0.5155	11.36	0.01
360	327.36	0.2648	15.74	0.014
360	333.32	0.7809	8.875	0.008
360	414	0.5155	15.673	0.012
360	445.38	0.2648	21.715	0.016
360	455.62	0.7809	12.244	0.01
360	563.21	0.5155	21.622	0.015
360	602.72	0.2648	29.96	0.02
360	620.87	0.7809	16.892	0.012
360	761.94	0.5155	29.83	0.019
360	809.48	0.2648	41.334	0.026
360	842.09	0.7809	23.305	0.016
360	1023.13	0.5155	41.153	0.025
360	1075.41	0.2648	57.027	0.034
360	1134.08	0.7809	32.152	0.021
360	1359.13	0.5155	56.775	0.034
360	1407.12	0.2648	78.678	0.047
360	1513.67	0.7809	44.316	0.028
360	1778.47	0.5155	78.326	0.047
360	1801.25	0.2648	108.549	0.066
360	1995.52	0.7809	61.139	0.038
360	2234.41	0.2648	149.76	0.096
360	2279.03	0.5155	108.059	0.067
360	2584.71	0.7809	84.349	0.058
360	2647.82	0.2648	206.618	0.123
360	2834.79	0.5155	149.078	0.097
370	180	0.2648	8.265	0.011
370	227.73	0.5155	8.23	0.009
370	246.7	0.2648	11.403	0.012
370	250.16	0.7809	6.429	0.007
370	312.04	0.5155	11.355	0.01
370	337.19	0.2648	15.732	0.013
370	343.02	0.7809	8.87	0.008
370	426.48	0.5155	15.665	0.012
370	459.23	0.2648	21.704	0.016
370	469.2	0.7809	12.238	0.01
370	580.8	0.5155	21.611	0.015
370	622.4	0.2648	29.945	0.02
370	639.98	0.7809	16.884	0.012
370	786.9	0.5155	29.815	0.019
370	837.7	0.2648	41.314	0.026
370	869.16	0.7809	23.293	0.015
370	1058.9	0.5155	41.133	0.025
370	1116.32	0.2648	56.999	0.034
370	1172.78	0.7809	32.136	0.021
370	1411.02	0.5155	56.746	0.034
370	1467.26	0.2648	78.639	0.046
370	1569.39	0.7809	44.294	0.028
370	1854.71	0.5155	78.287	0.046
370	1891.19	0.2648	108.495	0.063
370	2076.94	0.7809	61.109	0.038
370	2371.09	0.2648	149.686	0.087
370	2392.59	0.5155	108.005	0.064
370	2705.17	0.7809	84.308	0.057
370	2859.18	0.2648	206.516	0.12
370	3006.52	0.5155	149.004	0.086
390	190.02	0.2648	8.257	0.01
390	240.4	0.5155	8.222	0.009
390	260.65	0.2648	11.392	0.011
390	264.02	0.7809	6.423	0.007
390	329.74	0.5155	11.344	0.01
390	356.74	0.2648	15.716	0.013
390	362.31	0.7809	8.862	0.008
390	451.27	0.5155	15.65	0.012
390	486.71	0.2648	21.683	0.016
390	496.17	0.7809	12.226	0.009
390	615.63	0.5155	21.59	0.015
390	661.34	0.2648	29.916	0.02
390	677.89	0.7809	16.867	0.012
390	836.32	0.5155	29.786	0.019
390	893.34	0.2648	41.274	0.025
390	922.76	0.7809	23.271	0.015
390	1129.55	0.5155	41.093	0.025
390	1196.66	0.2648	56.943	0.034
390	1249.85	0.7809	32.105	0.02
390	1513.03	0.5155	56.692	0.034
390	1584.77	0.2648	78.563	0.046
390	1679.09	0.7809	44.251	0.027
390	2003.73	0.5155	78.212	0.047
390	2065.64	0.2648	108.39	0.064
390	2236.42	0.7809	61.05	0.038
390	2613.57	0.5155	107.901	0.064
390	2633.96	0.2648	149.541	0.091
390	2940.03	0.7809	84.226	0.052
390	3260.41	0.2648	206.316	0.117
390	3338.36	0.5155	148.86	0.088
410	105.73	0.2648	4.333	0.009
410	106.47	0.7809	2.443	0.005
410	133.75	0.5155	4.316	0.007
410	145.48	0.2648	5.979	0.009
410	146.65	0.7809	3.371	0.005
410	184.04	0.5155	5.954	0.008
410	199.99	0.2648	8.248	0.01
410	201.86	0.7809	4.651	0.006
410	253.05	0.5155	8.214	0.008
410	274.54	0.2648	11.38	0.011
410	277.79	0.7809	6.417	0.006
410	347.32	0.5155	11.332	0.01
410	376.14	0.2648	15.701	0.013
410	381.49	0.7809	8.853	0.008
410	475.89	0.5155	15.634	0.012
410	513.94	0.2648	21.661	0.015
410	522.95	0.7809	12.214	0.009
410	650.2	0.5155	21.568	0.014
410	699.84	0.2648	29.885	0.019
410	715.45	0.7809	16.85	0.012
410	885.1	0.5155	29.756	0.019
410	948.18	0.2648	41.232	0.025
410	975.71	0.7809	23.247	0.015
410	1199.1	0.5155	41.051	0.025
410	1275.55	0.2648	56.886	0.033
410	1325.09	0.7809	32.073	0.02
410	1613.03	0.5155	56.634	0.033
410	1699.56	0.2648	78.483	0.045
410	1786.74	0.7809	44.206	0.027
410	2149.18	0.5155	78.132	0.045
410	2234.99	0.2648	108.28	0.061
410	2392.39	0.7809	60.988	0.037
410	2827.96	0.5155	107.791	0.062
410	2887.09	0.2648	149.389	0.085
410	3168.33	0.7809	84.141	0.051
410	3641.58	0.2648	206.107	0.118
410	3658.2	0.5155	148.709	0.087
