Measured thermophysical data. Molar Heat Capacities, Densities, Viscosities, and Refractive Indices of Poly(ethylene glycols) + 2-Methyltetrahydrofuran at (293.15, 303.15, and 313.15) K
Source: J. Chem. Eng. Data, 2007, 10.1021/je7003066
Compound 1: 2-methyltetrahydrofuran, C5H10O, InChI=1S/C5H10O/c1-5-3-2-4-6-5/h5H,2-4H2,1H3

System: 2-methyltetrahydrofuran; phases: Liquid
Fixed: Pressure, kPa = 101.325
Property: Molar heat capacity at constant pressure, J/K/mol (Liquid); method: Small sample (50 mg) DSC
Temperature, K	Molar heat capacity at constant pressure, J/K/mol	uncertainty
293.15	155.3	3.1
303.15	158.6	3.2
313.15	162.1	3.2

System: 2-methyltetrahydrofuran; phases: Liquid
Fixed: Pressure, kPa = 101.325
Property: Viscosity, Pa*s (Liquid); method: Capillary tube (Ostwald; Ubbelohde) method
Temperature, K	Viscosity, Pa*s	uncertainty
293.15	0.000492	4e-05
303.15	0.000443	4e-05
313.15	0.000416	4e-05

System: 2-methyltetrahydrofuran; phases: Liquid
Fixed: Pressure, kPa = 101.325
Property: Refractive index (Na D-line) (Liquid); method: Standard Abbe refractometry
Temperature, K	Refractive index (Na D-line)	uncertainty
293.15	1.4085	0.0008
303.15	1.4017	0.0007
313.15	1.3959	0.0007

System: 2-methyltetrahydrofuran; phases: Liquid
Fixed: Pressure, kPa = 101.325
Property: Mass density, kg/m3 (Liquid); method: VIBTUB:UFactor:6
Temperature, K	Mass density, kg/m3	uncertainty
293.15	852.95	0.68
303.15	842.8	0.7
313.15	832.38	0.72
