Measured thermophysical data. Vapor Pressures and Sublimation Enthalpies of Copper Difluoride and Silver (I, II) Fluorides by the Torsion-Effusion Method
Source: J. Chem. Eng. Data, 2008, 10.1021/je700542v
Compound 1: copper difluoride, CuF2, InChI=1S/Cu.2FH/h;2*1H/q+2;;/p-2
Compound 2: silver fluoride, AgF, InChI=1S/Ag.FH/h;1H/q+1;/p-1

System: copper difluoride; phases: Crystal, Gas
Property: Vapor or sublimation pressure, kPa (Crystal); method: KNUDSEN:UFactor:2
Temperature, K	Vapor or sublimation pressure, kPa	uncertainty
881	2.1878e-05	2.208e-06
886	2.9512e-05	2.972e-06
886	2.9512e-05	2.972e-06
895	4.3652e-05	4.388e-06
896	3.7154e-05	3.736e-06
896	4.3652e-05	4.386e-06
897	4.3652e-05	4.386e-06
897	4.3652e-05	4.386e-06
900	4.3652e-05	4.386e-06
901	5.1286e-05	5.15e-06
902	5.1286e-05	5.15e-06
903	5.8884e-05	5.91e-06
906	5.8884e-05	5.91e-06
908	5.8884e-05	5.911e-06
908	5.8884e-05	5.911e-06
908	5.8884e-05	5.911e-06
909	8.1283e-05	8.15e-06
911	6.6069e-05	6.628e-06
912	8.9125e-05	8.935e-06
913	7.4131e-05	7.435e-06
914	8.1283e-05	8.151e-06
915	8.9125e-05	8.934e-06
915	7.4131e-05	7.435e-06
918	7.4131e-05	7.435e-06
919	0.00010233	1.026e-05
921	0.00011749	1.177e-05
922	0.00010233	1.026e-05
922	9.5499e-05	9.572e-06
924	0.00011749	1.177e-05
925	0.00010965	1.099e-05
928	0.00011749	1.177e-05
929	0.00013183	1.321e-05
930	0.00013183	1.321e-05
930	0.00014791	1.482e-05
930	0.00016218	1.624e-05
931	0.00010965	1.099e-05
932	0.00016218	1.624e-05
934	0.00014791	1.481e-05
939	0.00019055	1.908e-05
939	0.00017783	1.781e-05
940	0.00019055	1.908e-05
940	0.00021878	2.19e-05
941	0.00017783	1.781e-05
942	0.00020417	2.044e-05
943	0.00020417	2.044e-05
944	0.00019055	1.908e-05
948	0.00025119	2.515e-05
948	0.00023442	2.347e-05
949	0.00025119	2.515e-05
950	0.00030903	3.093e-05
952	0.00028184	2.821e-05
952	0.00026303	2.633e-05
953	0.00028184	2.821e-05
955	0.00030903	3.093e-05
956	0.00029512	2.954e-05
956	0.00028184	2.821e-05
959	0.00037154	3.718e-05
959	0.00035481	3.551e-05
960	0.00038019	3.805e-05
961	0.00043652	4.368e-05
964	0.00042658	4.269e-05
965	0.00038019	3.805e-05
965	0.00040738	4.077e-05
969	0.00048978	4.901e-05
969	0.00050119	5.015e-05
969	0.00052481	5.252e-05
969	0.00040738	4.077e-05
970	0.00058884	5.892e-05
973	0.00054954	5.499e-05
973	0.00051286	5.132e-05
974	0.00051286	5.132e-05
976	0.0006166	6.17e-05
978	0.00066069	6.61e-05
979	0.00066069	6.611e-05
979	0.00074131	7.417e-05
982	0.00066069	6.61e-05
982	0.00066069	6.61e-05
983	0.00074131	7.417e-05
984	0.00067608	6.764e-05
986	0.00081283	8.132e-05
986	0.00083176	8.322e-05
988	0.00083176	8.321e-05
989	0.00079433	7.947e-05
990	0.00085114	8.516e-05
990	0.00085114	8.516e-05
992	0.00097724	9.777e-05
993	0.0010233	0.0002057
996	0.001122	0.00023
996	0.0010965	0.0002237
998	0.001122	0.00023
998	0.0010233	0.0002057
999	0.0010965	0.0002237
1002	0.0012882	0.0002718
1003	0.0012303	0.0002572
1005	0.0014454	0.0003122
1005	0.0014125	0.0003037
1006	0.0014125	0.0003037
1007	0.001349	0.0002874
1008	0.0014454	0.0003122
1011	0.0016982	0.0003787
1013	0.0018197	0.0004113
1014	0.0018621	0.0004227
1015	0.0019055	0.0004345
1015	0.0017783	0.0004002
1016	0.0017378	0.0003893
1020	0.0021878	0.000512
1020	0.0019953	0.000459
1023	0.0024547	0.0005867
1024	0.0024547	0.0005867
1025	0.0025704	0.0006195
1025	0.0024547	0.0005867
1025	0.0022387	0.0005262
1030	0.0026303	0.0006366
1032	0.0030903	0.0007695
1033	0.0031623	0.0007906
1051	0.0051286	0.00139

System: silver fluoride; phases: Crystal, Gas
Property: Vapor or sublimation pressure, kPa (Crystal); method: KNUDSEN:UFactor:2
Temperature, K	Vapor or sublimation pressure, kPa	uncertainty
880	5.7544e-05	5.774e-06
891	5.2481e-05	5.268e-06
894	7.7625e-05	7.783e-06
897	7.7625e-05	7.783e-06
904	8.3176e-05	8.338e-06
910	0.00015488	1.551e-05
910	9.7724e-05	9.793e-06
910	0.00010471	1.049e-05
912	0.00010471	1.049e-05
913	0.0001349	1.352e-05
914	0.00015488	1.551e-05
917	0.00015488	1.551e-05
920	0.00022909	2.293e-05
920	0.00015488	1.551e-05
920	0.00016596	1.662e-05
921	0.00017378	1.74e-05
925	0.00016596	1.662e-05
928	0.00023442	2.346e-05
929	0.00019498	1.952e-05
929	0.00020893	2.092e-05
931	0.00017378	1.74e-05
931	0.00025119	2.514e-05
933	0.00020893	2.092e-05
936	0.00026915	2.694e-05
938	0.00026915	2.694e-05
939	0.00037154	3.718e-05
941	0.00023988	2.402e-05
942	0.00026915	2.694e-05
947	0.00040738	4.081e-05
948	0.00030903	3.095e-05
948	0.00042658	4.269e-05
949	0.00052481	5.268e-05
949	0.00034674	3.47e-05
949	0.00037154	3.72e-05
955	0.00037154	3.719e-05
956	0.00042658	4.269e-05
958	0.00050119	5.014e-05
958	0.00050119	5.014e-05
958	0.00046774	4.679e-05
958	0.00050119	5.014e-05
965	0.00053703	5.381e-05
965	0.00050119	5.028e-05
966	0.00069183	6.922e-05
967	0.00067608	6.766e-05
968	0.00089125	8.925e-05
974	0.00064565	6.459e-05
975	0.00067608	6.763e-05
977	0.00072444	7.247e-05
977	0.00077625	7.765e-05
978	0.00085114	8.515e-05
979	0.00089125	8.915e-05
984	0.0010471	0.0002116
985	0.00087096	8.721e-05
985	0.00091201	9.131e-05
985	0.00097724	9.783e-05
986	0.0014454	0.0003122
987	0.00089125	8.915e-05
990	0.0011749	0.0002432
994	0.0010965	0.0002237
994	0.0010965	0.0002237
994	0.0011749	0.0002432
995	0.0016982	0.0003787
996	0.001349	0.0002874
996	0.0010715	0.0002175
1000	0.0014791	0.000321
1000	0.0015849	0.0003487
1004	0.0014454	0.0003122
1005	0.0012303	0.0002572
1008	0.0022387	0.0005261
1010	0.0018621	0.0004227
1012	0.0016596	0.0003685
1012	0.0017783	0.0004001
1013	0.0019953	0.0004589
1013	0.0014125	0.0003037
1014	0.0017378	0.0003893
1017	0.0026303	0.0006366
1019	0.0023988	0.0005709
1022	0.0020893	0.0004847
1022	0.0022387	0.0005261
1025	0.0023442	0.0005556
1026	0.0019953	0.000459
1031	0.0024547	0.0005867
1031	0.0026303	0.0006366
1034	0.0025704	0.0006195
1036	0.0033113	0.0008345
1037	0.0035481	0.0009048
1040	0.0030903	0.0007695
1040	0.0033113	0.0008345
1049	0.0037154	0.0009549
1049	0.0039811	0.001035
1057	0.0044668	0.001184
1057	0.0047863	0.001283
