Measured thermophysical data. Solubility of Terephthalic Acid in Aqueous N-Methyl Pyrrolidone and N,N-Dimethyl Acetamide Solvents at (303.2 to 363.2) K
Source: J. Chem. Eng. Data, 2008, 10.1021/je700635r
Compound 1: water, H2O, InChI=1S/H2O/h1H2
Compound 2: 1,4-benzenedicarboxylic acid, C8H6O4, InChI=1S/C8H6O4/c9-7(10)5-1-2-6(4-3-5)8(11)12/h1-4H,(H,9,10)(H,11,12), purity 99.5%
Compound 3: N-methylpyrrolidone, C5H9NO, InChI=1S/C5H9NO/c1-6-4-2-3-5(6)7/h2-4H2,1H3, purity 99.5%
Compound 4: N,N-dimethylethanamide, C4H9NO, InChI=1S/C4H9NO/c1-4(6)5(2)3/h1-3H3, purity 99.5%

System: 1,4-benzenedicarboxylic acid + N-methylpyrrolidone; phases: Liquid, Crystal
Fixed: Pressure, kPa = 101
Property: Mole fraction of 1,4-benzenedicarboxylic acid (Liquid); method: Chromatography
Temperature, K	Mole fraction of 1,4-benzenedicarboxylic acid	uncertainty
303.2	0.01334	0.00134
313.2	0.01552	0.00155
323.2	0.01885	0.00189
333.2	0.02165	0.00217
343.2	0.02559	0.00256
353.2	0.02869	0.00287
363.2	0.03276	0.00328

System: 1,4-benzenedicarboxylic acid + N,N-dimethylethanamide; phases: Liquid, Crystal
Fixed: Pressure, kPa = 101
Property: Mole fraction of 1,4-benzenedicarboxylic acid (Liquid); method: Chromatography
Temperature, K	Mole fraction of 1,4-benzenedicarboxylic acid	uncertainty
303.2	0.01597	0.0016
313.2	0.02109	0.00211
323.2	0.0269	0.0027
333.2	0.03311	0.00332
343.2	0.0385	0.00386
353.2	0.04516	0.00452
363.2	0.05237	0.00524

System: 1,4-benzenedicarboxylic acid + N-methylpyrrolidone + water; phases: Liquid, Crystal
Fixed: Pressure, kPa = 101
Property: Mole fraction of 1,4-benzenedicarboxylic acid (Liquid); method: Chromatography
Temperature, K	Mole fraction of water	Mole fraction of 1,4-benzenedicarboxylic acid	uncertainty
303.2	0	0.01334	0.00134
303.2	0.216	0.005764	0.000577
303.2	0.3804	0.00377	0.000378
303.2	0.5791	0.002877	0.000289
313.2	0	0.01552	0.00155
313.2	0.216	0.008077	0.00081
313.2	0.3804	0.005223	0.000524
313.2	0.5791	0.004024	0.000405
323.2	0	0.01885	0.00189
323.2	0.216	0.01052	0.00105
323.2	0.3804	0.007397	0.000743
323.2	0.5791	0.006036	0.000606
333.2	0	0.02165	0.00217
333.2	0.216	0.01373	0.00138
333.2	0.3804	0.01039	0.00104
333.2	0.5791	0.006634	0.000665
343.2	0	0.02559	0.00256
343.2	0.216	0.01677	0.00168
343.2	0.3804	0.01255	0.00126
343.2	0.5791	0.007879	0.000791
353.2	0	0.02869	0.00287
353.2	0.216	0.02081	0.00209
353.2	0.3804	0.01652	0.00166
353.2	0.5791	0.01015	0.00102
363.2	0	0.03276	0.00328
363.2	0.216	0.02595	0.0026
363.2	0.3804	0.02061	0.00207
363.2	0.5791	0.01323	0.00133

System: 1,4-benzenedicarboxylic acid + N,N-dimethylethanamide + water; phases: Liquid, Crystal
Fixed: Pressure, kPa = 101
Property: Mole fraction of 1,4-benzenedicarboxylic acid (Liquid); method: Chromatography
Temperature, K	Mole fraction of water	Mole fraction of 1,4-benzenedicarboxylic acid	uncertainty
303.2	0	0.01597	0.0016
303.2	0.2032	0.009282	0.000931
303.2	0.3498	0.006965	0.000698
303.2	0.5477	0.002658	0.000267
313.2	0	0.02109	0.00211
313.2	0.2032	0.01315	0.00132
313.2	0.3498	0.008022	0.000805
313.2	0.5477	0.003799	0.000382
323.2	0	0.0269	0.0027
323.2	0.2032	0.01744	0.00175
323.2	0.3498	0.01162	0.00117
323.2	0.5477	0.005015	0.000504
333.2	0	0.03311	0.00332
333.2	0.2032	0.02094	0.0021
333.2	0.3498	0.0138	0.00138
333.2	0.5477	0.006449	0.000648
343.2	0	0.0385	0.00386
343.2	0.2032	0.02738	0.00274
343.2	0.3498	0.01778	0.00178
343.2	0.5477	0.00883	0.000887
353.2	0	0.04516	0.00452
353.2	0.2032	0.03378	0.00338
353.2	0.3498	0.0222	0.00223
353.2	0.5477	0.01141	0.00115
363.2	0	0.05237	0.00524
363.2	0.2032	0.0402	0.00403
363.2	0.3498	0.02894	0.0029
363.2	0.5477	0.0147	0.00148
