Measured thermophysical data. Density of Some 1-Chloroalkanes within the Temperature Range from (253.15 to 423.15) K
Source: J. Chem. Eng. Data, 2007, 10.1021/je700325c
Compound 1: 1-chlorobutane, C4H9Cl, InChI=1S/C4H9Cl/c1-2-3-4-5/h2-4H2,1H3, purity 99.9%
Compound 2: 1-chloropentane, C5H11Cl, InChI=1S/C5H11Cl/c1-2-3-4-5-6/h2-5H2,1H3, purity 99.8%
Compound 3: 1-chloroheptane, C7H15Cl, InChI=1S/C7H15Cl/c1-2-3-4-5-6-7-8/h2-7H2,1H3, purity 99.8%
Compound 4: 1-chlorooctane, C8H17Cl, InChI=1S/C8H17Cl/c1-2-3-4-5-6-7-8-9/h2-8H2,1H3, purity 99.9%
Compound 5: 1-chlorodecane, C10H21Cl, InChI=1S/C10H21Cl/c1-2-3-4-5-6-7-8-9-10-11/h2-10H2,1H3, purity 98.4%
Compound 6: 1-chlorotetradecane, C14H29Cl, InChI=1S/C14H29Cl/c1-2-3-4-5-6-7-8-9-10-11-12-13-14-15/h2-14H2,1H3, purity 98.6%

System: 1-chlorobutane; phases: Liquid
Fixed: Pressure, kPa = 101.325
Property: Mass density, kg/m3 (Liquid); method: PYCNOM:UFactor:2
Temperature, K	Mass density, kg/m3	uncertainty
253.15	925.8	0.6
263.15	917.4	0.6
273.15	907.3	0.5
283.15	896.6	0.5
293.15	885.9	0.4
298.15	880.4	0.4
303.15	874.9	0.4
313.15	863.9	0.5
323.15	852.1	0.5
338.15	835.3	0.6

System: 1-chloropentane; phases: Liquid
Fixed: Pressure, kPa = 101.325
Property: Mass density, kg/m3 (Liquid); method: PYCNOM:UFactor:2
Temperature, K	Mass density, kg/m3	uncertainty
253.15	917.5	0.6
263.15	910.2	0.6
273.15	900.7	0.5
283.15	891	0.5
293.15	881.3	0.4
298.15	876.2	0.4
323.15	851.3	0.5
343.15	830.6	0.6
363.15	809.1	0.7

System: 1-chloroheptane; phases: Liquid
Fixed: Pressure, kPa = 101.325
Property: Mass density, kg/m3 (Liquid); method: PYCNOM:UFactor:2
Temperature, K	Mass density, kg/m3	uncertainty
253.15	908.3	0.6
263.15	900.4	0.6
273.15	891.7	0.5
283.15	883.4	0.4
293.15	874.5	0.4
298.15	870.4	0.4
323.65	848.2	0.5
343.15	830.6	0.6
363.15	812.6	0.7
393.15	784.4	0.8

System: 1-chlorooctane; phases: Liquid
Fixed: Pressure, kPa = 101.325
Property: Mass density, kg/m3 (Liquid); method: PYCNOM:UFactor:2
Temperature, K	Mass density, kg/m3	uncertainty
253.15	905.5	0.6
263.15	897.1	0.5
273.15	889	0.5
283.15	880.6	0.4
293.15	872.3	0.4
298.15	868.3	0.4
323.15	847.4	0.5
343.15	830.5	0.6
363.15	813.2	0.7
393.15	786.8	0.8

System: 1-chlorodecane; phases: Liquid
Fixed: Pressure, kPa = 101.325
Property: Mass density, kg/m3 (Liquid); method: PYCNOM:UFactor:2
Temperature, K	Mass density, kg/m3	uncertainty
253.15	899.9	1
263.15	892.3	0.9
273.15	884.2	0.9
283.15	876.8	0.8
293.15	868.9	0.8
298.15	865	0.8
323.15	845.6	0.9
343.15	830	0.9
363.15	814.2	1
393.15	789.5	1.1
423.15	764.6	1.2

System: 1-chlorotetradecane; phases: Liquid
Fixed: Pressure, kPa = 101.325
Property: Mass density, kg/m3 (Liquid); method: PYCNOM:UFactor:2
Temperature, K	Mass density, kg/m3	uncertainty
288.15	868.5	0.7
293.15	864.9	0.7
298.15	861	0.7
303.15	857.5	0.7
323.15	843.3	0.8
343.15	829	0.9
363.15	814.3	0.9
393.15	792.5	1
423.15	770.1	1.2
