Measured thermophysical data. Densities, Isothermal Compressibilities, and Isobaric Thermal Expansivities of Hexan-2-ol, Octan-1-ol, and Decan-1-ol from (313 to 363) K and Pressures up to 22 MPa
Source: J. Chem. Eng. Data, 2007, 10.1021/je700145e
Compound 1: 2-hexanol, C6H14O, InChI=1S/C6H14O/c1-3-4-5-6(2)7/h6-7H,3-5H2,1-2H3
Compound 2: octan-1-ol, C8H18O, InChI=1S/C8H18O/c1-2-3-4-5-6-7-8-9/h9H,2-8H2,1H3
Compound 3: decan-1-ol, C10H22O, InChI=1S/C10H22O/c1-2-3-4-5-6-7-8-9-10-11/h11H,2-10H2,1H3

System: 2-hexanol; phases: Liquid
Property: Mass density, kg/m3 (Liquid); method: VIBTUB:UFactor:4
Temperature, K	Pressure, kPa	Mass density, kg/m3	uncertainty
313.13	1010	799.26	0.62
313.13	2006	800.05	0.64
313.13	2999	800.83	0.66
313.13	4008	801.59	0.68
313.13	4999	802.35	0.7
313.13	5986	803.12	0.72
313.13	7000	803.86	0.74
313.13	8010	804.64	0.77
313.13	9026	805.38	0.79
313.13	10004	806.09	0.81
313.13	11005	806.84	0.83
313.13	12001	807.56	0.85
313.13	13010	808.28	0.88
313.13	14002	808.98	0.9
313.13	14998	809.67	0.92
313.13	16001	810.39	0.94
313.13	17006	811.08	0.97
313.13	18000	811.7	0.99
313.13	19005	812.39	1.01
313.13	20015	813.1	1.04
313.13	21029	813.74	1.07
313.13	22004	814.4	1.09
323.09	1037	791	0.63
323.09	2000	791.79	0.65
323.09	3010	792.63	0.67
323.09	4029	793.48	0.69
323.09	5004	794.27	0.71
323.09	6020	795.1	0.74
323.09	7007	795.84	0.76
323.09	8009	796.68	0.78
323.09	9017	797.48	0.81
323.09	10003	798.25	0.83
323.09	11001	799	0.85
323.09	12000	799.77	0.88
323.09	13021	800.56	0.9
323.09	14001	801.3	0.92
323.09	15002	802	0.94
323.09	16000	802.74	0.97
323.09	17004	803.48	0.99
323.09	18008	804.21	1.02
323.09	19001	804.9	1.05
323.09	20011	805.62	1.07
323.09	21003	806.31	1.1
323.09	22004	807.01	1.13
333.04	1055	782.56	0.64
333.04	2007	783.43	0.66
333.04	3005	784.28	0.68
333.04	4007	785.21	0.71
333.04	5015	786.06	0.73
333.04	6009	786.93	0.75
333.04	7006	787.77	0.78
333.04	7998	788.61	0.8
333.04	9006	789.47	0.82
333.04	10004	790.32	0.85
333.04	11007	791.11	0.87
333.04	12012	791.93	0.9
333.04	13003	792.72	0.92
333.04	14008	793.51	0.95
333.04	15005	794.3	0.97
333.04	16001	795.06	1
333.04	17006	795.85	1.02
333.04	18010	796.61	1.05
333.04	19002	797.35	1.08
333.04	20000	798.08	1.11
333.04	21000	798.82	1.14
333.04	22004	799.56	1.16
342.98	1032	774.05	0.65
342.98	2015	775.01	0.67
342.98	3012	775.95	0.69
342.98	4017	776.87	0.72
342.98	5013	777.79	0.74
342.98	6012	778.72	0.77
342.98	7025	779.62	0.79
342.98	8000	780.47	0.82
342.98	9000	781.35	0.84
342.98	9996	782.25	0.87
342.98	11020	783.12	0.89
342.98	11999	783.92	0.92
342.98	12996	784.76	0.94
342.98	14007	785.6	0.97
342.98	15003	786.41	1
342.98	16005	787.17	1.03
342.98	17002	787.98	1.06
342.98	18010	788.76	1.09
342.98	19005	789.49	1.12
342.98	20010	790.27	1.14
342.98	21006	791	1.17
342.98	22005	791.75	1.2
352.86	1053	765.06	0.66
352.86	2014	766.05	0.68
352.86	3019	767.09	0.71
352.86	4033	768.08	0.73
352.86	4996	769.01	0.76
352.86	6006	770.06	0.78
352.86	7013	771.02	0.81
352.86	8004	771.95	0.84
352.86	9035	772.93	0.86
352.86	10009	773.84	0.89
352.86	11007	774.75	0.92
352.86	12007	775.66	0.94
352.86	12999	776.54	0.97
352.86	14012	777.47	1
352.86	15010	778.33	1.03
352.86	16003	779.21	1.06
352.86	17002	780.07	1.09
352.86	18017	780.92	1.12
352.86	19005	781.75	1.15
352.86	20014	782.58	1.18
352.86	21013	783.39	1.21
352.86	22010	784.18	1.24
362.73	1075	754.97	0.67
362.73	2006	756.02	0.7
362.73	3018	757.16	0.72
362.73	4034	758.26	0.75
362.73	5016	759.29	0.78
362.73	6066	760.41	0.81
362.73	6998	761.37	0.83
362.73	8041	762.44	0.86
362.73	9014	763.43	0.89
362.73	10001	764.37	0.91
362.73	11026	765.39	0.94
362.73	12000	766.35	0.97
362.73	13010	767.31	1
362.73	13999	768.28	1.03
362.73	15006	769.21	1.06
362.73	16006	770.12	1.09
362.73	17005	771.02	1.13
362.73	18000	771.92	1.16
362.73	19003	772.82	1.19
362.73	20017	773.7	1.22
362.73	21006	774.56	1.25
362.73	22010	775.42	1.28

System: octan-1-ol; phases: Liquid
Property: Mass density, kg/m3 (Liquid); method: VIBTUB:UFactor:4
Temperature, K	Pressure, kPa	Mass density, kg/m3	uncertainty
313.14	1004	811.26	0.59
313.14	2019	811.95	0.61
313.14	3000	812.59	0.63
313.14	4020	813.22	0.65
313.14	4995	813.89	0.67
313.14	6000	814.53	0.69
313.14	7007	815.21	0.71
313.14	8012	815.83	0.73
313.14	8994	816.51	0.75
313.14	10014	817.19	0.77
313.14	11007	817.79	0.79
313.14	12000	818.42	0.81
313.14	12997	819.05	0.83
313.14	14001	819.67	0.86
313.14	14997	820.27	0.88
313.14	16002	820.89	0.9
313.14	17001	821.48	0.92
313.14	17997	822.1	0.94
313.14	19004	822.69	0.96
313.14	20007	823.28	0.98
313.14	21004	823.86	1
323.09	1007	804.26	0.6
323.09	2016	804.97	0.62
323.09	3019	805.7	0.64
323.09	4025	806.4	0.66
323.09	5012	807.07	0.68
323.09	6093	807.82	0.71
323.09	7143	808.56	0.73
323.09	8009	809.12	0.75
323.09	8989	809.77	0.77
323.09	10014	810.47	0.79
323.09	11031	811.14	0.81
323.09	12010	811.82	0.83
323.09	13005	812.44	0.85
323.09	14003	813.11	0.87
323.09	15012	813.76	0.9
323.09	16009	814.4	0.92
323.09	17005	815.04	0.94
323.09	18013	815.66	0.96
323.09	19003	816.26	0.98
323.09	20025	816.9	1.01
323.09	21081	817.56	1.04
323.09	22009	818.09	1.06
333.05	1038	797.31	0.61
333.05	2029	798.03	0.63
333.05	2999	798.76	0.65
333.05	4033	799.51	0.67
333.05	5020	800.25	0.69
333.05	6014	800.97	0.72
333.05	7029	801.69	0.74
333.05	8011	802.44	0.76
333.05	9005	803.11	0.78
333.05	10022	803.83	0.81
333.05	11011	804.55	0.83
333.05	12021	805.23	0.85
333.05	13022	805.92	0.87
333.05	14031	806.61	0.89
333.05	15010	807.28	0.92
333.05	16023	807.92	0.94
333.05	17012	808.59	0.96
333.05	18035	809.23	0.99
333.05	19009	809.87	1.01
333.05	20002	810.51	1.04
333.05	21011	811.15	1.06
333.05	22019	811.82	1.09
343.03	1049	790.6	0.62
343.03	2003	791.16	0.64
343.03	2981	791.93	0.66
343.03	4017	792.68	0.68
343.03	5000	793.37	0.71
343.03	6005	794.05	0.73
343.03	7018	794.88	0.75
343.03	8104	795.68	0.78
343.03	9014	796.44	0.8
343.03	10022	797.1	0.82
343.03	11028	797.87	0.84
343.03	11997	798.58	0.87
343.03	13030	799.3	0.89
343.03	14005	800	0.91
343.03	15002	800.66	0.94
343.03	16032	801.38	0.96
343.03	17016	801.99	0.99
343.03	18012	802.68	1.01
343.03	19005	803.29	1.04
343.03	20018	803.98	1.07
343.03	21014	804.61	1.1
343.03	22004	805.23	1.12
352.89	1023	782.71	0.63
352.89	2011	783.55	0.65
352.89	3032	784.42	0.67
352.89	4022	785.42	0.7
352.89	5005	786.18	0.72
352.89	6026	787.13	0.74
352.89	7003	787.9	0.77
352.89	8016	788.71	0.79
352.89	9007	789.47	0.81
352.89	10003	790.22	0.84
352.89	11022	791	0.86
352.89	12170	791.78	0.89
352.89	13015	792.51	0.91
352.89	14018	793.24	0.94
352.89	15009	794	0.96
352.89	16023	794.74	0.98
352.89	17010	795.48	1.01
352.89	18002	796.16	1.04
352.89	19029	796.9	1.07
352.89	20046	797.63	1.1
352.89	21023	798.3	1.13
362.77	1051	775.67	0.64
362.77	2025	776.41	0.66
362.77	3016	777.19	0.68
362.77	4009	778.05	0.71
362.77	4974	778.77	0.73
362.77	6005	779.51	0.76
362.77	7006	780.3	0.78
362.77	8011	780.95	0.81
362.77	9008	781.79	0.83
362.77	10034	782.62	0.86
362.77	11013	783.32	0.88
362.77	11987	784.03	0.91
362.77	13015	784.77	0.93
362.77	14006	785.51	0.96
362.77	14997	786.3	0.98
362.77	16001	787.03	1.01
362.77	17013	787.79	1.04
362.77	17997	788.55	1.07
362.77	19000	789.33	1.1
362.77	20023	790.04	1.13
362.77	21004	790.83	1.16

System: decan-1-ol; phases: Liquid
Property: Mass density, kg/m3 (Liquid); method: VIBTUB:UFactor:4
Temperature, K	Pressure, kPa	Mass density, kg/m3	uncertainty
313.12	1025	816.79	0.61
313.12	2002	817.46	0.63
313.12	2995	817.98	0.65
313.12	4013	818.58	0.67
313.12	5004	819.21	0.69
313.12	5994	819.86	0.71
313.12	7003	820.47	0.73
313.12	7997	821.19	0.75
313.12	9000	821.73	0.77
313.12	9994	822.38	0.79
313.12	10995	823.02	0.81
313.12	11995	823.67	0.83
313.12	12997	824.2	0.85
313.12	13996	824.82	0.87
313.12	14998	825.42	0.89
313.12	15990	826.01	0.91
313.12	16995	826.61	0.93
313.12	17986	827.14	0.95
313.12	18992	827.76	0.97
313.12	19993	828.31	0.99
313.12	20999	828.88	1.01
313.12	21509	829.19	1.02
323.09	1002	809.87	0.62
323.09	2011	810.59	0.64
323.09	3019	811.21	0.66
323.09	4014	811.83	0.68
323.09	5006	812.47	0.7
323.09	6012	813.18	0.72
323.09	7002	813.8	0.74
323.09	8003	814.42	0.76
323.09	9008	815.1	0.78
323.09	10006	815.7	0.8
323.09	11000	816.38	0.82
323.09	12002	816.97	0.84
323.09	13002	817.64	0.86
323.09	14000	818.21	0.89
323.09	15017	818.84	0.91
323.09	16003	819.4	0.93
323.09	17015	820.02	0.95
323.09	18006	820.61	0.97
323.09	19007	821.24	0.99
323.09	20007	821.84	1.02
323.09	21002	822.41	1.04
323.09	22014	823.01	1.07
333.04	1046	802.82	0.62
333.04	2018	803.5	0.64
333.04	3008	804.21	0.67
333.04	4012	804.88	0.69
333.04	5059	805.62	0.71
333.04	6016	806.29	0.73
333.04	7022	807	0.75
333.04	8014	807.64	0.77
333.04	9015	808.34	0.8
333.04	10015	808.97	0.82
333.04	11019	809.64	0.84
333.04	12007	810.31	0.86
333.04	13019	810.96	0.88
333.04	14019	811.6	0.91
333.04	15014	812.24	0.93
333.04	16021	812.88	0.95
333.04	17026	813.5	0.97
333.04	18023	814.11	1
333.04	19018	814.72	1.02
333.04	20025	815.35	1.05
333.04	21020	815.94	1.07
333.04	22032	816.58	1.1
342.98	1058	795.63	0.63
342.98	2045	796.4	0.65
342.98	3022	797.12	0.68
342.98	4035	797.9	0.7
342.98	5028	798.63	0.72
342.98	6030	799.37	0.74
342.98	7023	800.07	0.77
342.98	8028	800.78	0.79
342.98	9062	801.51	0.81
342.98	10035	802.22	0.83
342.98	11029	802.92	0.86
342.98	12064	803.64	0.88
342.98	13023	804.31	0.9
342.98	14042	805	0.93
342.98	15022	805.66	0.95
342.98	16022	806.36	0.97
342.98	17021	807	1
342.98	18034	807.7	1.02
342.98	19025	808.35	1.05
342.98	20038	808.98	1.08
342.98	21018	809.62	1.1
342.98	22035	810.28	1.13
352.86	1069	788.44	0.64
352.86	2043	789.24	0.66
352.86	3040	790.04	0.69
352.86	4048	790.78	0.71
352.86	5038	791.59	0.73
352.86	6043	792.34	0.76
352.86	7038	793.09	0.78
352.86	8039	793.84	0.8
352.86	9040	794.57	0.83
352.86	10038	795.32	0.85
352.86	11032	796.04	0.87
352.86	12032	796.74	0.9
352.86	13040	797.47	0.92
352.86	14046	798.18	0.95
352.86	15043	798.89	0.97
352.86	16037	799.59	1
352.86	17040	800.26	1.02
352.86	18046	800.95	1.05
352.86	19040	801.63	1.08
352.86	20064	802.32	1.11
352.86	21048	802.96	1.14
352.86	22049	803.62	1.16
362.89	1077	781.02	0.65
362.89	2027	781.83	0.67
362.89	3089	782.69	0.7
362.89	4047	783.49	0.72
362.89	5061	784.29	0.75
362.89	6060	785.12	0.77
362.89	7041	785.91	0.79
362.89	8049	786.7	0.82
362.89	9049	787.47	0.84
362.89	10052	788.25	0.87
362.89	11045	788.99	0.89
362.89	12044	789.75	0.92
362.89	13054	790.54	0.94
362.89	14053	791.25	0.97
362.89	15052	792	0.99
362.89	16056	792.77	1.02
362.89	17063	793.47	1.05
362.89	18062	794.2	1.08
362.89	19062	794.91	1.11
362.89	20068	795.64	1.14
362.89	21072	796.35	1.17
362.89	22063	797.03	1.2
