Measured thermophysical data. Volumetric Properties of Potassium Dihydrogen Citrate and Tripotassium Citrate in Water and in Aqueous Solutions of Alanine at T ) (283.15 to 308.15) K
Source: J. Chem. Eng. Data, 2008, 10.1021/je700288s
Compound 1: (S)-2-aminopropanoic acid, C3H7NO2, InChI=1S/C3H7NO2/c1-2(4)3(5)6/h2H,4H2,1H3,(H,5,6)/t2-/m0/s1, purity 98%
Compound 2: potassium dihydrogen citrate, C6H7KO7, InChI=1S/C6H8O7.K/c7-3(8)1-6(13,5(11)12)2-4(9)10;/h13H,1-2H2,(H,7,8)(H,9,10)(H,11,12);/q;+1/p-1, purity 98%
Compound 3: water, H2O, InChI=1S/H2O/h1H2
Compound 4: potassium citrate, C6H5K3O7, InChI=1S/C6H8O7.3K/c7-3(8)1-6(13,5(11)12)2-4(9)10;;;/h13H,1-2H2,(H,7,8)(H,9,10)(H,11,12);;;/q;3*+1/p-3

System: water; phases: Liquid
Fixed: Pressure, kPa = 101
Property: Speed of sound, m/s (Liquid); method: Sing-around technique in a fixed-path interferometer
Temperature, K	Speed of sound, m/s	uncertainty
283.15	1447.59	1.11
288.15	1466.25	1.12
293.15	1482.66	1.11
298.15	1497	1.11
303.15	1509.44	1.1
308.15	1520.12	1.1

System: water; phases: Liquid
Fixed: Pressure, kPa = 101
Property: Mass density, kg/m3 (Liquid); method: Vibrating tube method
Temperature, K	Mass density, kg/m3	uncertainty
283.15	999.699	0.103
288.15	999.099	0.104
293.15	998.203	0.104
298.15	997.043	0.105
303.15	995.645	0.106
308.15	994.029	0.106

System: (S)-2-aminopropanoic acid + potassium dihydrogen citrate + water; phases: Liquid
Fixed: Pressure, kPa = 101
Property: Speed of sound, m/s (Liquid); method: Sing-around technique in a fixed-path interferometer
Temperature, K	Solvent: Molality, mol/kg of (S)-2-aminopropanoic acid	Molality, mol/kg of potassium dihydrogen citrate	Speed of sound, m/s	uncertainty
283.15	0	0	1447.59	1.8
283.15	0	0.0063	1448.79	1.8
283.15	0	0.0186	1450.1	1.8
283.15	0	0.0314	1451.49	1.8
283.15	0	0.0407	1452.55	1.8
283.15	0	0.0561	1454.17	1.8
283.15	0	0.0574	1454.33	1.8
283.15	0	0.0868	1457.2	1.8
283.15	0	0.0905	1457.87	1.8
283.15	0	0.1399	1462.88	1.8
283.15	0	0.1655	1465.42	1.8
283.15	0	0.284	1477.02	1.8
283.15	0	0.396	1487.37	1.8
283.15	0	0.4766	1494.58	1.8
283.15	0	0.5861	1504.06	1.8
283.15	0	0.5922	1504.67	1.8
283.15	0	0.7578	1518.53	1.8
283.15	0.23	0	1464.37	1.8
283.15	0.23	0.01	1465.69	1.8
283.15	0.23	0.0397	1468.81	1.8
283.15	0.23	0.0586	1470.73	1.8
283.15	0.23	0.1	1475.26	1.8
283.15	0.23	0.1475	1479.57	1.8
283.15	0.23	0.201	1484.97	1.8
283.15	0.23	0.2855	1493.07	1.8
283.15	0.23	0.3944	1502.82	1.8
283.15	0.23	0.5999	1520.81	1.81
283.15	0.23	0.7854	1535.76	1.81
283.15	0.47	0	1480.42	1.8
283.15	0.47	0.041	1484.8	1.8
283.15	0.47	0.0609	1486.86	1.8
283.15	0.47	0.1011	1490.91	1.8
283.15	0.47	0.1014	1490.83	1.8
283.15	0.47	0.15	1495.1	1.8
283.15	0.47	0.1501	1495.58	1.8
283.15	0.47	0.1996	1500.45	1.8
283.15	0.47	0.3015	1509.65	1.8
283.15	0.47	0.3975	1518.27	1.8
283.15	0.47	0.6004	1535.49	1.81
283.15	0.47	0.8065	1552.1	1.81
283.15	0.72	0	1496.71	1.8
283.15	0.72	0.0202	1498.82	1.8
283.15	0.72	0.0604	1502.92	1.8
283.15	0.72	0.1008	1506.72	1.8
283.15	0.72	0.1474	1511.21	1.81
283.15	0.72	0.2013	1516.27	1.81
283.15	0.72	0.3053	1525.73	1.8
283.15	0.72	0.3984	1535.25	1.81
283.15	0.72	0.6005	1550.72	1.81
283.15	0.72	0.7882	1565.6	1.81
288.15	0	0	1466.25	1.8
288.15	0	0.0063	1466.92	1.8
288.15	0	0.0186	1468.23	1.8
288.15	0	0.0314	1469.53	1.8
288.15	0	0.0407	1470.4	1.8
288.15	0	0.0561	1472.02	1.8
288.15	0	0.0574	1472.12	1.8
288.15	0	0.0868	1475.03	1.8
288.15	0	0.0905	1475.39	1.8
288.15	0	0.1399	1480.14	1.8
288.15	0	0.1655	1482.51	1.8
288.15	0	0.284	1493.42	1.8
288.15	0	0.396	1503.11	1.8
288.15	0	0.4766	1509.81	1.8
288.15	0	0.5861	1518.86	1.8
288.15	0	0.5922	1519.37	1.8
288.15	0	0.7578	1532.54	1.8
288.15	0.23	0	1482.04	1.8
288.15	0.23	0.01	1483.15	1.8
288.15	0.23	0.0397	1486.06	1.8
288.15	0.23	0.0586	1487.92	1.8
288.15	0.23	0.1	1492.24	1.8
288.15	0.23	0.1475	1496.24	1.8
288.15	0.23	0.201	1501.23	1.8
288.15	0.23	0.2855	1508.74	1.8
288.15	0.23	0.3944	1518	1.8
288.15	0.23	0.5999	1534.88	1.8
288.15	0.23	0.7854	1548.98	1.81
288.15	0.47	0	1497.41	1.8
288.15	0.47	0.041	1501.43	1.8
288.15	0.47	0.0609	1503.39	1.8
288.15	0.47	0.1011	1507.13	1.8
288.15	0.47	0.1014	1507.07	1.8
288.15	0.47	0.15	1511.01	1.8
288.15	0.47	0.1501	1511.55	1.8
288.15	0.47	0.1996	1516.08	1.8
288.15	0.47	0.3015	1524.7	1.8
288.15	0.47	0.3975	1532.8	1.81
288.15	0.47	0.6004	1549.02	1.81
288.15	0.47	0.8065	1564.73	1.81
288.15	0.72	0	1513.02	1.81
288.15	0.72	0.0202	1514.97	1.81
288.15	0.72	0.0604	1518.8	1.81
288.15	0.72	0.1008	1522.34	1.81
288.15	0.72	0.1474	1526.55	1.81
288.15	0.72	0.2013	1531.23	1.81
288.15	0.72	0.3053	1540.13	1.81
288.15	0.72	0.3984	1549.19	1.81
288.15	0.72	0.6005	1563.66	1.81
288.15	0.72	0.7882	1577.69	1.81
293.15	0	0	1482.66	1.8
293.15	0	0.0063	1483.11	1.8
293.15	0	0.0186	1484.32	1.8
293.15	0	0.0314	1485.54	1.8
293.15	0	0.0407	1486.36	1.8
293.15	0	0.0561	1487.86	1.8
293.15	0	0.0574	1487.95	1.8
293.15	0	0.0868	1490.67	1.8
293.15	0	0.0905	1491.02	1.8
293.15	0	0.1399	1495.46	1.8
293.15	0	0.1655	1497.68	1.8
293.15	0	0.284	1507.85	1.8
293.15	0	0.396	1516.97	1.8
293.15	0	0.4766	1523.31	1.8
293.15	0	0.5861	1531.83	1.8
293.15	0	0.5922	1532.32	1.8
293.15	0	0.7578	1544.73	1.8
293.15	0.23	0	1497.71	1.8
293.15	0.23	0.01	1498.73	1.8
293.15	0.23	0.0397	1501.43	1.8
293.15	0.23	0.0586	1503.16	1.8
293.15	0.23	0.1	1507.23	1.8
293.15	0.23	0.1475	1510.91	1.8
293.15	0.23	0.201	1515.59	1.8
293.15	0.23	0.2855	1522.64	1.8
293.15	0.23	0.3944	1531.34	1.8
293.15	0.23	0.5999	1547.23	1.8
293.15	0.23	0.7854	1560.58	1.8
293.15	0.47	0	1512.44	1.8
293.15	0.47	0.041	1516.19	1.8
293.15	0.47	0.0609	1518.02	1.8
293.15	0.47	0.1011	1521.52	1.8
293.15	0.47	0.1014	1521.45	1.8
293.15	0.47	0.15	1525.1	1.8
293.15	0.47	0.1501	1525.68	1.8
293.15	0.47	0.1996	1529.9	1.8
293.15	0.47	0.3015	1537.93	1.8
293.15	0.47	0.3975	1545.54	1.8
293.15	0.47	0.6004	1560.86	1.81
293.15	0.47	0.8065	1575.67	1.81
293.15	0.72	0	1527.48	1.8
293.15	0.72	0.0202	1529.3	1.8
293.15	0.72	0.0604	1532.86	1.8
293.15	0.72	0.1008	1536.13	1.8
293.15	0.72	0.1474	1540.05	1.8
293.15	0.72	0.2013	1544.44	1.8
293.15	0.72	0.3053	1552.78	1.81
293.15	0.72	0.3984	1561.19	1.81
293.15	0.72	0.6005	1574.91	1.81
293.15	0.72	0.7882	1588.17	1.81
298.15	0	0	1497	1.79
298.15	0	0.0063	1497.32	1.79
298.15	0	0.0186	1498.46	1.79
298.15	0	0.0314	1499.59	1.79
298.15	0	0.0407	1500.36	1.79
298.15	0	0.0561	1501.76	1.8
298.15	0	0.0574	1501.86	1.8
298.15	0	0.0868	1504.37	1.8
298.15	0	0.0905	1504.69	1.8
298.15	0	0.1399	1508.83	1.8
298.15	0	0.1655	1510.9	1.8
298.15	0	0.284	1520.45	1.8
298.15	0	0.396	1529.04	1.8
298.15	0	0.4766	1534.98	1.8
298.15	0	0.5861	1543.01	1.8
298.15	0	0.5922	1543.47	1.8
298.15	0	0.7578	1555.24	1.8
298.15	0.23	0	1511.4	1.8
298.15	0.23	0.01	1512.36	1.8
298.15	0.23	0.0397	1514.85	1.8
298.15	0.23	0.0586	1516.49	1.8
298.15	0.23	0.1	1520.33	1.8
298.15	0.23	0.1475	1523.77	1.8
298.15	0.23	0.201	1528.12	1.8
298.15	0.23	0.2855	1534.71	1.8
298.15	0.23	0.3944	1542.87	1.8
298.15	0.23	0.5999	1557.9	1.8
298.15	0.23	0.7854	1570.47	1.8
298.15	0.47	0	1525.64	1.8
298.15	0.47	0.041	1529.13	1.8
298.15	0.47	0.0609	1530.81	1.8
298.15	0.47	0.1011	1534.08	1.8
298.15	0.47	0.1014	1534	1.8
298.15	0.47	0.15	1537.35	1.8
298.15	0.47	0.1501	1537.95	1.8
298.15	0.47	0.1996	1541.9	1.8
298.15	0.47	0.3015	1549.42	1.8
298.15	0.47	0.3975	1556.58	1.8
298.15	0.47	0.6004	1570.99	1.8
298.15	0.47	0.8065	1584.99	1.81
298.15	0.72	0	1540.1	1.8
298.15	0.72	0.0202	1541.78	1.8
298.15	0.72	0.0604	1545.1	1.8
298.15	0.72	0.1008	1548.16	1.8
298.15	0.72	0.1474	1551.8	1.8
298.15	0.72	0.2013	1555.94	1.8
298.15	0.72	0.3053	1563.78	1.8
298.15	0.72	0.3984	1571.73	1.81
298.15	0.72	0.6005	1584.56	1.81
298.15	0.72	0.7882	1597.07	1.81
303.15	0	0	1509.44	1.79
303.15	0	0.0063	1509.69	1.79
303.15	0	0.0186	1510.74	1.79
303.15	0	0.0314	1511.79	1.79
303.15	0	0.0407	1512.53	1.79
303.15	0	0.0561	1513.83	1.79
303.15	0	0.0574	1513.93	1.79
303.15	0	0.0868	1516.28	1.79
303.15	0	0.0905	1516.59	1.79
303.15	0	0.1399	1520.47	1.79
303.15	0	0.1655	1522.42	1.79
303.15	0	0.284	1531.38	1.8
303.15	0	0.396	1539.43	1.8
303.15	0	0.4766	1545.03	1.8
303.15	0	0.5861	1552.6	1.8
303.15	0	0.5922	1553.03	1.8
303.15	0	0.7578	1564.18	1.8
303.15	0.23	0	1523.35	1.8
303.15	0.23	0.01	1524.23	1.8
303.15	0.23	0.0397	1526.56	1.8
303.15	0.23	0.0586	1528.08	1.8
303.15	0.23	0.1	1531.76	1.8
303.15	0.23	0.1475	1534.9	1.8
303.15	0.23	0.201	1538.97	1.8
303.15	0.23	0.2855	1545.13	1.8
303.15	0.23	0.3944	1552.8	1.8
303.15	0.23	0.5999	1566.98	1.8
303.15	0.23	0.7854	1578.84	1.8
303.15	0.47	0	1537.07	1.8
303.15	0.47	0.041	1540.33	1.8
303.15	0.47	0.0609	1541.89	1.8
303.15	0.47	0.1011	1544.94	1.8
303.15	0.47	0.1014	1544.86	1.8
303.15	0.47	0.15	1547.96	1.8
303.15	0.47	0.1501	1548.58	1.8
303.15	0.47	0.1996	1552.27	1.8
303.15	0.47	0.3015	1559.32	1.8
303.15	0.47	0.3975	1566.05	1.8
303.15	0.47	0.6004	1579.61	1.8
303.15	0.47	0.8065	1592.85	1.81
303.15	0.72	0	1551.04	1.8
303.15	0.72	0.0202	1552.6	1.8
303.15	0.72	0.0604	1555.71	1.8
303.15	0.72	0.1008	1558.58	1.8
303.15	0.72	0.1474	1561.99	1.8
303.15	0.72	0.2013	1565.86	1.8
303.15	0.72	0.3053	1573.17	1.8
303.15	0.72	0.3984	1580.7	1.81
303.15	0.72	0.6005	1592.73	1.81
303.15	0.72	0.7882	1604.56	1.81
308.15	0	0	1520.12	1.79
308.15	0	0.0063	1520.35	1.79
308.15	0	0.0186	1521.33	1.79
308.15	0	0.0314	1522.32	1.79
308.15	0	0.0407	1523.01	1.79
308.15	0	0.0561	1524.23	1.79
308.15	0	0.0574	1524.32	1.79
308.15	0	0.0868	1526.53	1.79
308.15	0	0.0905	1526.8	1.79
308.15	0	0.1399	1530.44	1.79
308.15	0	0.1655	1532.27	1.8
308.15	0	0.284	1540.67	1.8
308.15	0	0.396	1548.24	1.8
308.15	0	0.4766	1553.52	1.8
308.15	0	0.5861	1560.69	1.8
308.15	0	0.5922	1561.11	1.8
308.15	0	0.7578	1571.63	1.8
308.15	0.23	0	1533.61	1.8
308.15	0.23	0.01	1534.42	1.8
308.15	0.23	0.0397	1536.59	1.8
308.15	0.23	0.0586	1538.02	1.8
308.15	0.23	0.1	1541.48	1.8
308.15	0.23	0.1475	1544.39	1.8
308.15	0.23	0.201	1548.2	1.8
308.15	0.23	0.2855	1554	1.8
308.15	0.23	0.3944	1561.22	1.8
308.15	0.23	0.5999	1574.58	1.8
308.15	0.23	0.7854	1585.79	1.8
308.15	0.47	0	1546.87	1.8
308.15	0.47	0.041	1549.9	1.8
308.15	0.47	0.0609	1551.38	1.8
308.15	0.47	0.1011	1554.21	1.8
308.15	0.47	0.1014	1554.13	1.8
308.15	0.47	0.15	1557	1.8
308.15	0.47	0.1501	1557.62	1.8
308.15	0.47	0.1996	1561.11	1.8
308.15	0.47	0.3015	1567.7	1.8
308.15	0.47	0.3975	1574	1.8
308.15	0.47	0.6004	1586.8	1.81
308.15	0.47	0.8065	1599.34	1.81
308.15	0.72	0	1560.41	1.8
308.15	0.72	0.0202	1561.85	1.8
308.15	0.72	0.0604	1564.76	1.8
308.15	0.72	0.1008	1567.42	1.8
308.15	0.72	0.1474	1570.62	1.8
308.15	0.72	0.2013	1574.21	1.8
308.15	0.72	0.3053	1581.09	1.81
308.15	0.72	0.3984	1588.23	1.8
308.15	0.72	0.6005	1599.52	1.81
308.15	0.72	0.7882	1610.69	1.81

System: (S)-2-aminopropanoic acid + potassium dihydrogen citrate + water; phases: Liquid
Fixed: Pressure, kPa = 101
Property: Mass density, kg/m3 (Liquid); method: Vibrating tube method
Temperature, K	Solvent: Molality, mol/kg of (S)-2-aminopropanoic acid	Molality, mol/kg of potassium dihydrogen citrate	Mass density, kg/m3	uncertainty
283.15	0	0	999.699	0.632
283.15	0	0.0063	1000.472	0.632
283.15	0	0.0186	1001.971	0.635
283.15	0	0.0314	1003.529	0.637
283.15	0	0.0407	1004.651	0.639
283.15	0	0.0561	1006.516	0.641
283.15	0	0.0574	1006.666	0.641
283.15	0	0.0868	1010.19	0.649
283.15	0	0.0905	1010.651	0.65
283.15	0	0.1399	1016.401	0.658
283.15	0	0.1655	1019.362	0.662
283.15	0	0.284	1032.786	0.684
283.15	0	0.396	1044.96	0.704
283.15	0	0.4766	1053.369	0.718
283.15	0	0.5861	1064.692	0.736
283.15	0	0.5922	1065.268	0.737
283.15	0	0.7578	1081.711	0.766
283.15	0.23	0	1006.295	0.645
283.15	0.23	0.01	1007.517	0.644
283.15	0.23	0.0397	1011.089	0.649
283.15	0.23	0.0586	1013.353	0.653
283.15	0.23	0.1	1018.25	0.661
283.15	0.23	0.1475	1023.712	0.67
283.15	0.23	0.201	1029.873	0.68
283.15	0.23	0.2855	1039.292	0.695
283.15	0.23	0.3944	1051.073	0.714
283.15	0.23	0.5999	1072.368	0.75
283.15	0.23	0.7854	1090.428	0.781
283.15	0.47	0	1012.689	0.653
283.15	0.47	0.041	1017.618	0.66
283.15	0.47	0.0609	1019.957	0.664
283.15	0.47	0.1011	1024.706	0.671
283.15	0.47	0.1014	1024.752	0.671
283.15	0.47	0.15	1030.309	0.68
283.15	0.47	0.1501	1030.388	0.68
283.15	0.47	0.1996	1035.904	0.689
283.15	0.47	0.3015	1047.233	0.708
283.15	0.47	0.3975	1057.504	0.725
283.15	0.47	0.6004	1078.224	0.76
283.15	0.47	0.8065	1098.105	0.795
283.15	0.72	0	1019.089	0.663
283.15	0.72	0.0202	1021.512	0.667
283.15	0.72	0.0604	1026.264	0.674
283.15	0.72	0.1008	1030.957	0.682
283.15	0.72	0.1474	1036.323	0.69
283.15	0.72	0.2013	1042.326	0.7
283.15	0.72	0.3053	1053.761	0.719
283.15	0.72	0.3984	1063.74	0.736
283.15	0.72	0.6005	1084.229	0.771
283.15	0.72	0.7882	1102.308	0.802
288.15	0	0	999.099	0.634
288.15	0	0.0063	999.861	0.632
288.15	0	0.0186	1001.338	0.634
288.15	0	0.0314	1002.874	0.636
288.15	0	0.0407	1003.984	0.638
288.15	0	0.0561	1005.822	0.656
288.15	0	0.0574	1005.968	0.631
288.15	0	0.0868	1009.446	0.652
288.15	0	0.0905	1009.899	0.644
288.15	0	0.1399	1015.575	0.656
288.15	0	0.1655	1018.497	0.66
288.15	0	0.284	1031.761	0.682
288.15	0	0.396	1043.803	0.702
288.15	0	0.4766	1052.126	0.716
288.15	0	0.5861	1063.335	0.735
288.15	0	0.5922	1063.904	0.733
288.15	0	0.7578	1080.195	0.763
288.15	0.23	0	1005.608	0.644
288.15	0.23	0.01	1006.815	0.643
288.15	0.23	0.0397	1010.337	0.648
288.15	0.23	0.0586	1012.573	0.652
288.15	0.23	0.1	1017.406	0.659
288.15	0.23	0.1475	1022.8	0.668
288.15	0.23	0.201	1028.887	0.678
288.15	0.23	0.2855	1038.201	0.693
288.15	0.23	0.3944	1049.853	0.712
288.15	0.23	0.5999	1070.941	0.748
288.15	0.23	0.7854	1088.842	0.778
288.15	0.47	0	1011.923	0.651
288.15	0.47	0.041	1016.787	0.658
288.15	0.47	0.0609	1019.099	0.662
288.15	0.47	0.1011	1023.787	0.67
288.15	0.47	0.1014	1023.832	0.67
288.15	0.47	0.15	1029.324	0.678
288.15	0.47	0.1501	1029.4	0.679
288.15	0.47	0.1996	1034.852	0.687
288.15	0.47	0.3015	1046.059	0.706
288.15	0.47	0.3975	1056.225	0.723
288.15	0.47	0.6004	1076.747	0.757
288.15	0.47	0.8065	1096.457	0.792
288.15	0.72	0	1018.244	0.662
288.15	0.72	0.0202	1020.635	0.665
288.15	0.72	0.0604	1025.329	0.672
288.15	0.72	0.1008	1029.967	0.68
288.15	0.72	0.1474	1035.273	0.688
288.15	0.72	0.2013	1041.207	0.698
288.15	0.72	0.3053	1052.52	0.717
288.15	0.72	0.3984	1062.4	0.733
288.15	0.72	0.6005	1082.703	0.768
288.15	0.72	0.7882	1100.63	0.799
293.15	0	0	998.203	0.633
293.15	0	0.0063	998.956	0.631
293.15	0	0.0186	1000.414	0.632
293.15	0	0.0314	1001.931	0.634
293.15	0	0.0407	1003.026	0.636
293.15	0	0.0561	1004.843	0.652
293.15	0	0.0574	1004.987	0.63
293.15	0	0.0868	1008.423	0.65
293.15	0	0.0905	1008.87	0.642
293.15	0	0.1399	1014.48	0.654
293.15	0	0.1655	1017.37	0.658
293.15	0	0.284	1030.491	0.68
293.15	0	0.396	1042.412	0.699
293.15	0	0.4766	1050.655	0.713
293.15	0	0.5861	1061.762	0.732
293.15	0	0.5922	1062.326	0.731
293.15	0	0.7578	1078.48	0.76
293.15	0.23	0	1004.641	0.642
293.15	0.23	0.01	1005.835	0.641
293.15	0.23	0.0397	1009.314	0.646
293.15	0.23	0.0586	1011.523	0.65
293.15	0.23	0.1	1016.302	0.657
293.15	0.23	0.1475	1021.633	0.666
293.15	0.23	0.201	1027.658	0.676
293.15	0.23	0.2855	1036.873	0.69
293.15	0.23	0.3944	1048.411	0.709
293.15	0.23	0.5999	1069.312	0.745
293.15	0.23	0.7854	1087.066	0.775
293.15	0.47	0	1010.89	0.649
293.15	0.47	0.041	1015.698	0.656
293.15	0.47	0.0609	1017.983	0.66
293.15	0.47	0.1011	1022.621	0.668
293.15	0.47	0.1014	1022.665	0.668
293.15	0.47	0.15	1028.097	0.676
293.15	0.47	0.1501	1028.173	0.676
293.15	0.47	0.1996	1033.566	0.685
293.15	0.47	0.3015	1044.662	0.704
293.15	0.47	0.3975	1054.732	0.72
293.15	0.47	0.6004	1075.076	0.754
293.15	0.47	0.8065	1094.629	0.788
293.15	0.72	0	1017.145	0.66
293.15	0.72	0.0202	1019.511	0.663
293.15	0.72	0.0604	1024.153	0.67
293.15	0.72	0.1008	1028.74	0.678
293.15	0.72	0.1474	1033.99	0.686
293.15	0.72	0.2013	1039.866	0.696
293.15	0.72	0.3053	1051.07	0.714
293.15	0.72	0.3984	1060.86	0.73
293.15	0.72	0.6005	1080.988	0.765
293.15	0.72	0.7882	1098.777	0.796
298.15	0	0	997.043	0.632
298.15	0	0.0063	997.788	0.63
298.15	0	0.0186	999.232	0.63
298.15	0	0.0314	1000.729	0.632
298.15	0	0.0407	1001.815	0.634
298.15	0	0.0561	1003.61	0.648
298.15	0	0.0574	1003.753	0.628
298.15	0	0.0868	1007.152	0.647
298.15	0	0.0905	1007.595	0.64
298.15	0	0.1399	1013.146	0.652
298.15	0	0.1655	1016.004	0.656
298.15	0	0.284	1029	0.677
298.15	0	0.396	1040.81	0.697
298.15	0	0.4766	1048.983	0.71
298.15	0	0.5861	1059.998	0.729
298.15	0	0.5922	1060.556	0.728
298.15	0	0.7578	1076.586	0.757
298.15	0.23	0	1003.426	0.639
298.15	0.23	0.01	1004.606	0.639
298.15	0.23	0.0397	1008.049	0.644
298.15	0.23	0.0586	1010.234	0.647
298.15	0.23	0.1	1014.962	0.655
298.15	0.23	0.1475	1020.242	0.663
298.15	0.23	0.201	1026.205	0.673
298.15	0.23	0.2855	1035.334	0.688
298.15	0.23	0.3944	1046.772	0.706
298.15	0.23	0.5999	1067.499	0.741
298.15	0.23	0.7854	1085.121	0.772
298.15	0.47	0	1009.62	0.647
298.15	0.47	0.041	1014.379	0.654
298.15	0.47	0.0609	1016.638	0.658
298.15	0.47	0.1011	1021.23	0.665
298.15	0.47	0.1014	1021.273	0.665
298.15	0.47	0.15	1026.653	0.674
298.15	0.47	0.1501	1026.727	0.674
298.15	0.47	0.1996	1032.072	0.683
298.15	0.47	0.3015	1043.067	0.701
298.15	0.47	0.3975	1053.048	0.717
298.15	0.47	0.6004	1073.229	0.751
298.15	0.47	0.8065	1092.64	0.785
298.15	0.72	0	1015.823	0.657
298.15	0.72	0.0202	1018.165	0.66
298.15	0.72	0.0604	1022.759	0.668
298.15	0.72	0.1008	1027.302	0.675
298.15	0.72	0.1474	1032.503	0.683
298.15	0.72	0.2013	1038.324	0.693
298.15	0.72	0.3053	1049.429	0.712
298.15	0.72	0.3984	1059.135	0.727
298.15	0.72	0.6005	1079.107	0.761
298.15	0.72	0.7882	1096.767	0.792
303.15	0	0	995.645	0.63
303.15	0	0.0063	996.385	0.629
303.15	0	0.0186	997.809	0.629
303.15	0	0.0314	999.297	0.63
303.15	0	0.0407	1000.37	0.631
303.15	0	0.0561	1002.147	0.645
303.15	0	0.0574	1002.289	0.626
303.15	0	0.0868	1005.655	0.644
303.15	0	0.0905	1006.094	0.638
303.15	0	0.1399	1011.593	0.649
303.15	0	0.1655	1014.426	0.653
303.15	0	0.284	1027.306	0.674
303.15	0	0.396	1039.02	0.694
303.15	0	0.4766	1047.125	0.707
303.15	0	0.5861	1058.06	0.726
303.15	0	0.5922	1058.614	0.724
303.15	0	0.7578	1074.528	0.753
303.15	0.23	0	1001.982	0.637
303.15	0.23	0.01	1003.152	0.636
303.15	0.23	0.0397	1006.558	0.641
303.15	0.23	0.0586	1008.722	0.645
303.15	0.23	0.1	1013.407	0.652
303.15	0.23	0.1475	1018.64	0.66
303.15	0.23	0.201	1024.551	0.67
303.15	0.23	0.2855	1033.603	0.685
303.15	0.23	0.3944	1044.946	0.703
303.15	0.23	0.5999	1065.518	0.738
303.15	0.23	0.7854	1083.017	0.768
303.15	0.47	0	1008.131	0.644
303.15	0.47	0.041	1012.844	0.651
303.15	0.47	0.0609	1015.086	0.655
303.15	0.47	0.1011	1019.633	0.662
303.15	0.47	0.1014	1019.679	0.662
303.15	0.47	0.15	1025.009	0.671
303.15	0.47	0.1501	1025.083	0.671
303.15	0.47	0.1996	1030.382	0.68
303.15	0.47	0.3015	1041.285	0.698
303.15	0.47	0.3975	1051.188	0.714
303.15	0.47	0.6004	1071.219	0.748
303.15	0.47	0.8065	1090.498	0.781
303.15	0.72	0	1014.291	0.655
303.15	0.72	0.0202	1016.612	0.658
303.15	0.72	0.0604	1021.164	0.665
303.15	0.72	0.1008	1025.668	0.672
303.15	0.72	0.1474	1030.823	0.681
303.15	0.72	0.2013	1036.595	0.69
303.15	0.72	0.3053	1047.611	0.708
303.15	0.72	0.3984	1057.242	0.724
303.15	0.72	0.6005	1077.069	0.758
303.15	0.72	0.7882	1094.612	0.788
308.15	0	0	994.029	0.627
308.15	0	0.0063	994.762	0.627
308.15	0	0.0186	996.176	0.628
308.15	0	0.0314	997.649	0.629
308.15	0	0.0407	998.709	0.63
308.15	0	0.0561	1000.472	0.63
308.15	0	0.0574	1000.612	0.63
308.15	0	0.0868	1003.95	0.637
308.15	0	0.0905	1004.385	0.638
308.15	0	0.1399	1009.837	0.646
308.15	0	0.1655	1012.648	0.65
308.15	0	0.284	1025.424	0.671
308.15	0	0.396	1037.047	0.69
308.15	0	0.4766	1045.096	0.703
308.15	0	0.5861	1055.951	0.721
308.15	0	0.5922	1056.504	0.722
308.15	0	0.7578	1072.311	0.75
308.15	0.23	0	1000.329	0.634
308.15	0.23	0.01	1001.487	0.633
308.15	0.23	0.0397	1004.867	0.638
308.15	0.23	0.0586	1007.013	0.642
308.15	0.23	0.1	1011.658	0.649
308.15	0.23	0.1475	1016.844	0.657
308.15	0.23	0.201	1022.708	0.667
308.15	0.23	0.2855	1031.69	0.681
308.15	0.23	0.3944	1042.949	0.7
308.15	0.23	0.5999	1063.378	0.734
308.15	0.23	0.7854	1080.764	0.764
308.15	0.47	0	1006.443	0.641
308.15	0.47	0.041	1011.118	0.648
308.15	0.47	0.0609	1013.338	0.652
308.15	0.47	0.1011	1017.849	0.659
308.15	0.47	0.1014	1017.891	0.659
308.15	0.47	0.15	1023.182	0.668
308.15	0.47	0.1501	1023.256	0.668
308.15	0.47	0.1996	1028.51	0.676
308.15	0.47	0.3015	1039.332	0.694
308.15	0.47	0.3975	1049.163	0.71
308.15	0.47	0.6004	1069.058	0.744
308.15	0.47	0.8065	1088.213	0.777
308.15	0.72	0	1012.566	0.651
308.15	0.72	0.0202	1014.868	0.655
308.15	0.72	0.0604	1019.383	0.662
308.15	0.72	0.1008	1023.85	0.669
308.15	0.72	0.1474	1028.966	0.677
308.15	0.72	0.2013	1034.693	0.687
308.15	0.72	0.3053	1045.626	0.705
308.15	0.72	0.3984	1055.189	0.721
308.15	0.72	0.6005	1074.885	0.754
308.15	0.72	0.7882	1092.316	0.784

System: (S)-2-aminopropanoic acid + potassium citrate + water; phases: Liquid
Fixed: Pressure, kPa = 101
Property: Speed of sound, m/s (Liquid); method: Sing-around technique in a fixed-path interferometer
Temperature, K	Solvent: Molality, mol/kg of (S)-2-aminopropanoic acid	Molality, mol/kg of potassium citrate	Speed of sound, m/s	uncertainty
283.15	0.23	0	1464.06	2.69
283.15	0.23	0.0278	1470.95	2.69
283.15	0.23	0.0392	1473.07	2.69
283.15	0.23	0.0394	1473.43	2.69
283.15	0.23	0.0469	1474.57	2.69
283.15	0.23	0.0628	1478.09	2.69
283.15	0.23	0.0936	1484.52	2.69
283.15	0.23	0.1286	1491.97	2.69
283.15	0.23	0.1552	1497.56	2.69
283.15	0.23	0.186	1503.66	2.69
283.15	0.23	0.2438	1515.12	2.7
283.15	0.23	0.3215	1530.47	2.7
283.15	0.23	0.4163	1549.02	2.7
283.15	0.23	0.4965	1564.29	2.7
283.15	0.23	0.6035	1584.22	2.7
283.15	0.23	0.6986	1602.78	2.71
283.15	0.23	0.7586	1612.92	2.71
283.15	0.47	0	1480.49	2.69
283.15	0.47	0.0093	1482.8	2.69
283.15	0.47	0.0186	1484.96	2.69
283.15	0.47	0.028	1486.9	2.69
283.15	0.47	0.0476	1491.15	2.69
283.15	0.47	0.0628	1494.4	2.69
283.15	0.47	0.0959	1501.34	2.7
283.15	0.47	0.1284	1507.88	2.7
283.15	0.47	0.1303	1508.31	2.7
283.15	0.47	0.1527	1512.76	2.7
283.15	0.47	0.1858	1519.52	2.7
283.15	0.47	0.2483	1531.92	2.7
283.15	0.47	0.3198	1545.94	2.7
283.15	0.47	0.4196	1564.93	2.7
283.15	0.47	0.4948	1579.27	2.7
283.15	0.47	0.5974	1598.53	2.71
283.15	0.47	0.7036	1617.65	2.71
283.15	0.47	0.7569	1627.36	2.71
283.15	0.72	0	1495.79	2.69
283.15	0.72	0.0123	1498.6	2.69
283.15	0.72	0.0187	1500.02	2.69
283.15	0.72	0.0398	1504.49	2.69
283.15	0.72	0.0629	1509.38	2.7
283.15	0.72	0.0951	1516.08	2.7
283.15	0.72	0.1274	1522.74	2.7
283.15	0.72	0.1512	1527.43	2.7
283.15	0.72	0.1872	1534.54	2.7
283.15	0.72	0.2586	1548.71	2.7
283.15	0.72	0.3222	1560.98	2.7
283.15	0.72	0.4153	1578.83	2.7
283.15	0.72	0.4952	1593.88	2.71
283.15	0.72	0.6124	1615.63	2.71
283.15	0.72	0.7035	1632.03	2.71
283.15	0.72	0.7557	1641.42	2.71
288.15	0.23	0	1481.75	2.69
288.15	0.23	0.0278	1488.38	2.69
288.15	0.23	0.0392	1490.43	2.69
288.15	0.23	0.0394	1490.79	2.69
288.15	0.23	0.0469	1491.96	2.69
288.15	0.23	0.0628	1495.27	2.69
288.15	0.23	0.0936	1501.45	2.69
288.15	0.23	0.1286	1508.58	2.69
288.15	0.23	0.1552	1513.99	2.7
288.15	0.23	0.186	1519.86	2.7
288.15	0.23	0.2438	1530.93	2.7
288.15	0.23	0.3215	1545.79	2.7
288.15	0.23	0.4163	1563.63	2.7
288.15	0.23	0.4965	1578.33	2.7
288.15	0.23	0.6035	1597.45	2.7
288.15	0.23	0.6986	1615.49	2.71
288.15	0.23	0.7586	1625.23	2.71
288.15	0.47	0	1497.56	2.69
288.15	0.47	0.0093	1499.8	2.69
288.15	0.47	0.0186	1501.81	2.69
288.15	0.47	0.028	1503.74	2.69
288.15	0.47	0.0476	1507.73	2.69
288.15	0.47	0.0628	1510.9	2.69
288.15	0.47	0.0959	1517.62	2.7
288.15	0.47	0.1284	1523.94	2.7
288.15	0.47	0.1303	1524.36	2.7
288.15	0.47	0.1527	1528.63	2.7
288.15	0.47	0.1858	1535.13	2.7
288.15	0.47	0.2483	1547.08	2.7
288.15	0.47	0.3198	1560.64	2.7
288.15	0.47	0.4196	1578.93	2.7
288.15	0.47	0.4948	1592.75	2.7
288.15	0.47	0.5974	1611.3	2.71
288.15	0.47	0.7036	1629.75	2.71
288.15	0.47	0.7569	1639.09	2.71
288.15	0.72	0	1512.17	2.69
288.15	0.72	0.0123	1514.88	2.69
288.15	0.72	0.0187	1516.26	2.69
288.15	0.72	0.0398	1520.63	2.7
288.15	0.72	0.0629	1525.32	2.7
288.15	0.72	0.0951	1531.77	2.7
288.15	0.72	0.1274	1538.19	2.7
288.15	0.72	0.1512	1542.67	2.7
288.15	0.72	0.1872	1549.58	2.7
288.15	0.72	0.2586	1563.27	2.7
288.15	0.72	0.3222	1575.05	2.7
288.15	0.72	0.4153	1592.28	2.7
288.15	0.72	0.4952	1606.74	2.71
288.15	0.72	0.6124	1627.79	2.71
288.15	0.72	0.7035	1643.56	2.71
288.15	0.72	0.7557	1652.67	2.71
293.15	0.23	0	1497.44	2.69
293.15	0.23	0.0278	1503.83	2.69
293.15	0.23	0.0392	1505.77	2.69
293.15	0.23	0.0394	1506.14	2.69
293.15	0.23	0.0469	1507.26	2.69
293.15	0.23	0.0628	1510.44	2.69
293.15	0.23	0.0936	1516.41	2.69
293.15	0.23	0.1286	1523.33	2.69
293.15	0.23	0.1552	1528.58	2.69
293.15	0.23	0.186	1534.23	2.69
293.15	0.23	0.2438	1544.89	2.7
293.15	0.23	0.3215	1559.29	2.7
293.15	0.23	0.4163	1576.48	2.7
293.15	0.23	0.4965	1590.69	2.7
293.15	0.23	0.6035	1609.15	2.7
293.15	0.23	0.6986	1626.68	2.71
293.15	0.23	0.7586	1636.04	2.71
293.15	0.47	0	1512.6	2.69
293.15	0.47	0.0093	1514.79	2.69
293.15	0.47	0.0186	1516.71	2.69
293.15	0.47	0.028	1518.62	2.69
293.15	0.47	0.0476	1522.52	2.69
293.15	0.47	0.0628	1525.54	2.69
293.15	0.47	0.0959	1532.02	2.69
293.15	0.47	0.1284	1538.09	2.7
293.15	0.47	0.1303	1538.5	2.69
293.15	0.47	0.1527	1542.62	2.7
293.15	0.47	0.1858	1548.9	2.7
293.15	0.47	0.2483	1560.49	2.7
293.15	0.47	0.3198	1573.54	2.7
293.15	0.47	0.4196	1591.25	2.7
293.15	0.47	0.4948	1604.6	2.7
293.15	0.47	0.5974	1622.52	2.71
293.15	0.47	0.7036	1640.34	2.71
293.15	0.47	0.7569	1649.37	2.71
293.15	0.72	0	1526.68	2.69
293.15	0.72	0.0123	1529.3	2.69
293.15	0.72	0.0187	1530.63	2.69
293.15	0.72	0.0398	1534.84	2.69
293.15	0.72	0.0629	1539.38	2.69
293.15	0.72	0.0951	1545.61	2.7
293.15	0.72	0.1274	1551.81	2.7
293.15	0.72	0.1512	1556.16	2.7
293.15	0.72	0.1872	1562.83	2.7
293.15	0.72	0.2586	1576.05	2.7
293.15	0.72	0.3222	1587.44	2.7
293.15	0.72	0.4153	1604.09	2.7
293.15	0.72	0.4952	1618.06	2.71
293.15	0.72	0.6124	1638.42	2.71
293.15	0.72	0.7035	1653.65	2.71
293.15	0.72	0.7557	1662.48	2.71
298.15	0.23	0	1511.12	2.69
298.15	0.23	0.0278	1517.33	2.69
298.15	0.23	0.0392	1519.2	2.69
298.15	0.23	0.0394	1519.6	2.69
298.15	0.23	0.0469	1520.66	2.69
298.15	0.23	0.0628	1523.74	2.69
298.15	0.23	0.0936	1529.51	2.69
298.15	0.23	0.1286	1536.21	2.69
298.15	0.23	0.1552	1541.3	2.69
298.15	0.23	0.186	1546.74	2.69
298.15	0.23	0.2438	1557.09	2.69
298.15	0.23	0.3215	1571.03	2.7
298.15	0.23	0.4163	1587.67	2.7
298.15	0.23	0.4965	1601.43	2.7
298.15	0.23	0.6035	1619.27	2.7
298.15	0.23	0.6986	1636.33	2.71
298.15	0.23	0.7586	1645.35	2.71
298.15	0.47	0	1525.79	2.69
298.15	0.47	0.0093	1527.9	2.69
298.15	0.47	0.0186	1529.81	2.69
298.15	0.47	0.028	1531.64	2.69
298.15	0.47	0.0476	1535.36	2.69
298.15	0.47	0.0628	1538.28	2.69
298.15	0.47	0.0959	1544.57	2.69
298.15	0.47	0.1284	1550.45	2.69
298.15	0.47	0.1303	1550.88	2.69
298.15	0.47	0.1527	1554.85	2.69
298.15	0.47	0.1858	1560.94	2.7
298.15	0.47	0.2483	1572.13	2.7
298.15	0.47	0.3198	1584.77	2.7
298.15	0.47	0.4196	1601.93	2.7
298.15	0.47	0.4948	1614.83	2.7
298.15	0.47	0.5974	1632.2	2.71
298.15	0.47	0.7036	1649.47	2.71
298.15	0.47	0.7569	1658.2	2.71
298.15	0.72	0	1539.36	2.69
298.15	0.72	0.0123	1541.88	2.69
298.15	0.72	0.0187	1543.17	2.69
298.15	0.72	0.0398	1547.28	2.69
298.15	0.72	0.0629	1551.62	2.69
298.15	0.72	0.0951	1557.69	2.69
298.15	0.72	0.1274	1563.68	2.7
298.15	0.72	0.1512	1567.92	2.7
298.15	0.72	0.1872	1574.34	2.7
298.15	0.72	0.2586	1587.18	2.7
298.15	0.72	0.3222	1598.2	2.7
298.15	0.72	0.4153	1614.29	2.7
298.15	0.72	0.4952	1627.84	2.71
298.15	0.72	0.6124	1647.58	2.71
298.15	0.72	0.7035	1662.32	2.71
298.15	0.72	0.7557	1670.91	2.71
303.15	0.23	0	1523.08	2.69
303.15	0.23	0.0278	1529.12	2.69
303.15	0.23	0.0392	1530.91	2.69
303.15	0.23	0.0394	1531.29	2.69
303.15	0.23	0.0469	1532.32	2.69
303.15	0.23	0.0628	1535.28	2.69
303.15	0.23	0.0936	1540.87	2.69
303.15	0.23	0.1286	1547.41	2.69
303.15	0.23	0.1552	1552.34	2.69
303.15	0.23	0.186	1557.63	2.69
303.15	0.23	0.2438	1567.65	2.69
303.15	0.23	0.3215	1581.19	2.7
303.15	0.23	0.4163	1597.33	2.7
303.15	0.23	0.4965	1610.66	2.7
303.15	0.23	0.6035	1627.99	2.7
303.15	0.23	0.6986	1644.63	2.71
303.15	0.23	0.7586	1653.34	2.71
303.15	0.47	0	1537.24	2.69
303.15	0.47	0.0093	1539.28	2.69
303.15	0.47	0.0186	1541.1	2.69
303.15	0.47	0.028	1542.89	2.69
303.15	0.47	0.0476	1546.49	2.69
303.15	0.47	0.0628	1549.36	2.69
303.15	0.47	0.0959	1555.45	2.69
303.15	0.47	0.1284	1561.17	2.69
303.15	0.47	0.1303	1561.58	2.69
303.15	0.47	0.1527	1565.45	2.69
303.15	0.47	0.1858	1571.35	2.69
303.15	0.47	0.2483	1582.18	2.7
303.15	0.47	0.3198	1594.47	2.7
303.15	0.47	0.4196	1611.11	2.7
303.15	0.47	0.4948	1623.62	2.7
303.15	0.47	0.5974	1640.51	2.71
303.15	0.47	0.7036	1657.25	2.71
303.15	0.47	0.7569	1665.76	2.71
303.15	0.72	0	1550.32	2.69
303.15	0.72	0.0123	1552.78	2.69
303.15	0.72	0.0187	1554.04	2.69
303.15	0.72	0.0398	1558.03	2.69
303.15	0.72	0.0629	1562.26	2.69
303.15	0.72	0.0951	1568.14	2.69
303.15	0.72	0.1274	1573.95	2.69
303.15	0.72	0.1512	1578.04	2.7
303.15	0.72	0.1872	1584.28	2.7
303.15	0.72	0.2586	1596.78	2.7
303.15	0.72	0.3222	1607.43	2.7
303.15	0.72	0.4153	1623.05	2.7
303.15	0.72	0.4952	1636.22	2.71
303.15	0.72	0.6124	1655.36	2.71
303.15	0.72	0.7035	1669.69	2.71
303.15	0.72	0.7557	1678.06	2.71
308.15	0.23	0	1533.33	2.69
308.15	0.23	0.0278	1539.23	2.69
308.15	0.23	0.0392	1540.92	2.69
308.15	0.23	0.0394	1541.32	2.69
308.15	0.23	0.0469	1542.29	2.69
308.15	0.23	0.0628	1545.18	2.69
308.15	0.23	0.0936	1550.62	2.69
308.15	0.23	0.1286	1557	2.69
308.15	0.23	0.1552	1561.79	2.69
308.15	0.23	0.186	1566.93	2.69
308.15	0.23	0.2438	1576.64	2.69
308.15	0.23	0.3215	1589.83	2.7
308.15	0.23	0.4163	1605.54	2.7
308.15	0.23	0.4965	1618.5	2.7
308.15	0.23	0.6035	1635.36	2.7
308.15	0.23	0.6986	1651.61	2.71
308.15	0.23	0.7586	1660.02	2.71
308.15	0.47	0	1547.04	2.69
308.15	0.47	0.0093	1549.01	2.69
308.15	0.47	0.0186	1550.78	2.69
308.15	0.47	0.028	1552.52	2.69
308.15	0.47	0.0476	1556.05	2.69
308.15	0.47	0.0628	1558.84	2.69
308.15	0.47	0.0959	1564.76	2.69
308.15	0.47	0.1284	1570.32	2.69
308.15	0.47	0.1303	1570.72	2.69
308.15	0.47	0.1527	1574.45	2.69
308.15	0.47	0.1858	1580.18	2.69
308.15	0.47	0.2483	1590.72	2.7
308.15	0.47	0.3198	1602.67	2.7
308.15	0.47	0.4196	1618.86	2.7
308.15	0.47	0.4948	1631.05	2.7
308.15	0.47	0.5974	1647.47	2.71
308.15	0.47	0.7036	1663.77	2.71
308.15	0.47	0.7569	1672.04	2.71
308.15	0.72	0	1559.72	2.69
308.15	0.72	0.0123	1562.11	2.69
308.15	0.72	0.0187	1563.33	2.69
308.15	0.72	0.0398	1567.21	2.69
308.15	0.72	0.0629	1571.31	2.69
308.15	0.72	0.0951	1577.01	2.69
308.15	0.72	0.1274	1582.66	2.7
308.15	0.72	0.1512	1586.65	2.7
308.15	0.72	0.1872	1592.73	2.7
308.15	0.72	0.2586	1604.91	2.7
308.15	0.72	0.3222	1615.21	2.7
308.15	0.72	0.4153	1630.42	2.7
308.15	0.72	0.4952	1643.23	2.71
308.15	0.72	0.6124	1661.86	2.71
308.15	0.72	0.7035	1675.83	2.71
308.15	0.72	0.7557	1683.97	2.71

System: (S)-2-aminopropanoic acid + potassium citrate + water; phases: Liquid
Fixed: Pressure, kPa = 101
Property: Mass density, kg/m3 (Liquid); method: Vibrating tube method
Temperature, K	Solvent: Molality, mol/kg of (S)-2-aminopropanoic acid	Molality, mol/kg of potassium citrate	Mass density, kg/m3	uncertainty
283.15	0.23	0	1006.338	1.72
283.15	0.23	0.0278	1012.105	1.742
283.15	0.23	0.0392	1014.446	1.751
283.15	0.23	0.0394	1014.452	1.751
283.15	0.23	0.0469	1015.977	1.756
283.15	0.23	0.0628	1019.202	1.768
283.15	0.23	0.0936	1025.322	1.792
283.15	0.23	0.1286	1032.144	1.818
283.15	0.23	0.1552	1037.349	1.838
283.15	0.23	0.186	1043.224	1.86
283.15	0.23	0.2438	1053.987	1.902
283.15	0.23	0.3215	1068.308	1.959
283.15	0.23	0.4163	1085.15	2.026
283.15	0.23	0.4965	1098.838	2.081
283.15	0.23	0.6035	1116.323	2.153
283.15	0.23	0.6986	1131.531	2.217
283.15	0.23	0.7586	1141.083	2.257
283.15	0.47	0	1012.738	1.748
283.15	0.47	0.0093	1014.684	1.753
283.15	0.47	0.0186	1016.591	1.758
283.15	0.47	0.028	1018.497	1.767
283.15	0.47	0.0476	1022.474	1.781
283.15	0.47	0.0628	1025.528	1.793
283.15	0.47	0.0959	1032.084	1.817
283.15	0.47	0.1284	1038.281	1.851
283.15	0.47	0.1303	1038.635	1.853
283.15	0.47	0.1527	1042.945	1.86
283.15	0.47	0.1858	1049.366	1.884
283.15	0.47	0.2483	1061.02	1.93
283.15	0.47	0.3198	1074.022	1.981
283.15	0.47	0.4196	1091.333	2.051
283.15	0.47	0.4948	1104.246	2.104
283.15	0.47	0.5974	1121.327	2.174
283.15	0.47	0.7036	1137.728	2.242
283.15	0.47	0.7569	1145.91	2.277
283.15	0.72	0	1018.714	1.767
283.15	0.72	0.0123	1021.24	1.777
283.15	0.72	0.0187	1022.545	1.782
283.15	0.72	0.0398	1026.829	1.798
283.15	0.72	0.0629	1031.393	1.815
283.15	0.72	0.0951	1037.756	1.84
283.15	0.72	0.1274	1044.054	1.864
283.15	0.72	0.1512	1048.551	1.881
283.15	0.72	0.1872	1055.294	1.907
283.15	0.72	0.2586	1068.444	1.959
283.15	0.72	0.3222	1079.965	2.005
283.15	0.72	0.4153	1096.25	2.071
283.15	0.72	0.4952	1109.674	2.126
283.15	0.72	0.6124	1129.049	2.206
283.15	0.72	0.7035	1143.269	2.266
283.15	0.72	0.7557	1151.377	2.301
288.15	0.23	0	1005.647	1.718
288.15	0.23	0.0278	1011.357	1.739
288.15	0.23	0.0392	1013.676	1.747
288.15	0.23	0.0394	1013.681	1.747
288.15	0.23	0.0469	1015.191	1.753
288.15	0.23	0.0628	1018.385	1.765
288.15	0.23	0.0936	1024.451	1.788
288.15	0.23	0.1286	1031.215	1.814
288.15	0.23	0.1552	1036.376	1.834
288.15	0.23	0.186	1042.202	1.856
288.15	0.23	0.2438	1052.881	1.898
288.15	0.23	0.3215	1067.097	1.954
288.15	0.23	0.4163	1083.824	2.021
288.15	0.23	0.4965	1097.427	2.075
288.15	0.23	0.6035	1114.808	2.147
288.15	0.23	0.6986	1129.933	2.21
288.15	0.23	0.7586	1139.435	2.25
288.15	0.47	0	1011.964	1.744
288.15	0.47	0.0093	1013.891	1.75
288.15	0.47	0.0186	1015.782	1.755
288.15	0.47	0.028	1017.67	1.763
288.15	0.47	0.0476	1021.611	1.778
288.15	0.47	0.0628	1024.639	1.789
288.15	0.47	0.0959	1031.139	1.814
288.15	0.47	0.1284	1037.284	1.847
288.15	0.47	0.1303	1037.636	1.843
288.15	0.47	0.1527	1041.912	1.856
288.15	0.47	0.1858	1048.28	1.88
288.15	0.47	0.2483	1059.847	1.925
288.15	0.47	0.3198	1072.758	1.976
288.15	0.47	0.4196	1089.957	2.045
288.15	0.47	0.4948	1102.79	2.098
288.15	0.47	0.5974	1119.771	2.167
288.15	0.47	0.7036	1136.088	2.236
288.15	0.47	0.7569	1144.231	2.27
288.15	0.72	0	1017.869	1.765
288.15	0.72	0.0123	1020.371	1.773
288.15	0.72	0.0187	1021.665	1.778
288.15	0.72	0.0398	1025.91	1.794
288.15	0.72	0.0629	1030.435	1.811
288.15	0.72	0.0951	1036.747	1.836
288.15	0.72	0.1274	1042.992	1.86
288.15	0.72	0.1512	1047.458	1.877
288.15	0.72	0.1872	1054.15	1.903
288.15	0.72	0.2586	1067.205	1.954
288.15	0.72	0.3222	1078.648	2
288.15	0.72	0.4153	1094.831	2.065
288.15	0.72	0.4952	1108.177	2.12
288.15	0.72	0.6124	1127.444	2.2
288.15	0.72	0.7035	1141.595	2.259
288.15	0.72	0.7557	1149.664	2.293
293.15	0.23	0	1004.677	1.714
293.15	0.23	0.0278	1010.337	1.735
293.15	0.23	0.0392	1012.638	1.743
293.15	0.23	0.0394	1012.642	1.743
293.15	0.23	0.0469	1014.141	1.749
293.15	0.23	0.0628	1017.31	1.761
293.15	0.23	0.0936	1023.33	1.784
293.15	0.23	0.1286	1030.042	1.809
293.15	0.23	0.1552	1035.166	1.829
293.15	0.23	0.186	1040.953	1.851
293.15	0.23	0.2438	1051.559	1.892
293.15	0.23	0.3215	1065.685	1.948
293.15	0.23	0.4163	1082.314	2.014
293.15	0.23	0.4965	1095.839	2.069
293.15	0.23	0.6035	1113.131	2.14
293.15	0.23	0.6986	1128.184	2.203
293.15	0.23	0.7586	1137.644	2.242
293.15	0.47	0	1010.93	1.74
293.15	0.47	0.0093	1012.839	1.745
293.15	0.47	0.0186	1014.714	1.75
293.15	0.47	0.028	1016.586	1.759
293.15	0.47	0.0476	1020.496	1.773
293.15	0.47	0.0628	1023.502	1.785
293.15	0.47	0.0959	1029.954	1.809
293.15	0.47	0.1284	1036.056	1.842
293.15	0.47	0.1303	1036.403	1.838
293.15	0.47	0.1527	1040.65	1.85
293.15	0.47	0.1858	1046.977	1.875
293.15	0.47	0.2483	1058.469	1.92
293.15	0.47	0.3198	1071.301	1.97
293.15	0.47	0.4196	1088.403	2.039
293.15	0.47	0.4948	1101.167	2.091
293.15	0.47	0.5974	1118.065	2.16
293.15	0.47	0.7036	1134.308	2.228
293.15	0.47	0.7569	1142.415	2.262
293.15	0.72	0	1016.772	1.76
293.15	0.72	0.0123	1019.251	1.769
293.15	0.72	0.0187	1020.537	1.774
293.15	0.72	0.0398	1024.749	1.789
293.15	0.72	0.0629	1029.243	1.807
293.15	0.72	0.0951	1035.51	1.831
293.15	0.72	0.1274	1041.71	1.854
293.15	0.72	0.1512	1046.146	1.871
293.15	0.72	0.1872	1052.795	1.897
293.15	0.72	0.2586	1065.771	1.949
293.15	0.72	0.3222	1077.148	1.994
293.15	0.72	0.4153	1093.241	2.059
293.15	0.72	0.4952	1106.519	2.113
293.15	0.72	0.6124	1125.694	2.192
293.15	0.72	0.7035	1139.783	2.251
293.15	0.72	0.7557	1147.818	2.285
298.15	0.23	0	1003.459	1.709
298.15	0.23	0.0278	1009.077	1.73
298.15	0.23	0.0392	1011.361	1.738
298.15	0.23	0.0394	1011.365	1.738
298.15	0.23	0.0469	1012.854	1.744
298.15	0.23	0.0628	1016.002	1.756
298.15	0.23	0.0936	1021.982	1.778
298.15	0.23	0.1286	1028.653	1.804
298.15	0.23	0.1552	1033.745	1.823
298.15	0.23	0.186	1039.497	1.845
298.15	0.23	0.2438	1050.04	1.886
298.15	0.23	0.3215	1064.09	1.942
298.15	0.23	0.4163	1080.632	2.008
298.15	0.23	0.4965	1094.097	2.062
298.15	0.23	0.6035	1111.309	2.132
298.15	0.23	0.6986	1126.3	2.195
298.15	0.23	0.7586	1135.725	2.234
298.15	0.47	0	1009.657	1.735
298.15	0.47	0.0093	1011.551	1.74
298.15	0.47	0.0186	1013.412	1.745
298.15	0.47	0.028	1015.272	1.754
298.15	0.47	0.0476	1019.157	1.768
298.15	0.47	0.0628	1022.141	1.779
298.15	0.47	0.0959	1028.554	1.803
298.15	0.47	0.1284	1034.617	1.836
298.15	0.47	0.1303	1034.963	1.833
298.15	0.47	0.1527	1039.187	1.845
298.15	0.47	0.1858	1045.475	1.869
298.15	0.47	0.2483	1056.902	1.913
298.15	0.47	0.3198	1069.668	1.964
298.15	0.47	0.4196	1086.685	2.032
298.15	0.47	0.4948	1099.391	2.084
298.15	0.47	0.5974	1116.218	2.152
298.15	0.47	0.7036	1132.394	2.22
298.15	0.47	0.7569	1140.471	2.254
298.15	0.72	0	1015.448	1.755
298.15	0.72	0.0123	1017.91	1.763
298.15	0.72	0.0187	1019.186	1.768
298.15	0.72	0.0398	1023.372	1.784
298.15	0.72	0.0629	1027.836	1.801
298.15	0.72	0.0951	1034.066	1.825
298.15	0.72	0.1274	1040.232	1.849
298.15	0.72	0.1512	1044.64	1.865
298.15	0.72	0.1872	1051.252	1.891
298.15	0.72	0.2586	1064.159	1.942
298.15	0.72	0.3222	1075.477	1.987
298.15	0.72	0.4153	1091.496	2.051
298.15	0.72	0.4952	1104.714	2.105
298.15	0.72	0.6124	1123.811	2.184
298.15	0.72	0.7035	1137.846	2.243
298.15	0.72	0.7557	1145.853	2.277
303.15	0.23	0	1002.013	1.704
303.15	0.23	0.0278	1007.596	1.724
303.15	0.23	0.0392	1009.868	1.732
303.15	0.23	0.0394	1009.872	1.732
303.15	0.23	0.0469	1011.351	1.738
303.15	0.23	0.0628	1014.481	1.75
303.15	0.23	0.0936	1020.426	1.772
303.15	0.23	0.1286	1027.062	1.798
303.15	0.23	0.1552	1032.127	1.817
303.15	0.23	0.186	1037.848	1.839
303.15	0.23	0.2438	1048.341	1.88
303.15	0.23	0.3215	1062.324	1.935
303.15	0.23	0.4163	1078.797	2
303.15	0.23	0.4965	1092.202	2.054
303.15	0.23	0.6035	1109.348	2.124
303.15	0.23	0.6986	1124.285	2.186
303.15	0.23	0.7586	1133.679	2.226
303.15	0.47	0	1008.167	1.729
303.15	0.47	0.0093	1010.047	1.735
303.15	0.47	0.0186	1011.899	1.739
303.15	0.47	0.028	1013.747	1.748
303.15	0.47	0.0476	1017.609	1.762
303.15	0.47	0.0628	1020.579	1.773
303.15	0.47	0.0959	1026.956	1.797
303.15	0.47	0.1284	1032.987	1.829
303.15	0.47	0.1303	1033.332	1.826
303.15	0.47	0.1527	1037.534	1.838
303.15	0.47	0.1858	1043.79	1.862
303.15	0.47	0.2483	1055.164	1.906
303.15	0.47	0.3198	1067.872	1.956
303.15	0.47	0.4196	1084.817	2.024
303.15	0.47	0.4948	1097.473	2.076
303.15	0.47	0.5974	1114.235	2.144
303.15	0.47	0.7036	1130.357	2.211
303.15	0.47	0.7569	1138.407	2.245
303.15	0.72	0	1013.917	1.749
303.15	0.72	0.0123	1016.363	1.757
303.15	0.72	0.0187	1017.632	1.762
303.15	0.72	0.0398	1021.795	1.778
303.15	0.72	0.0629	1026.235	1.795
303.15	0.72	0.0951	1032.432	1.819
303.15	0.72	0.1274	1038.567	1.842
303.15	0.72	0.1512	1042.952	1.859
303.15	0.72	0.1872	1049.532	1.884
303.15	0.72	0.2586	1062.382	1.935
303.15	0.72	0.3222	1073.649	1.98
303.15	0.72	0.4153	1089.602	2.044
303.15	0.72	0.4952	1102.769	2.097
303.15	0.72	0.6124	1121.798	2.176
303.15	0.72	0.7035	1135.786	2.234
303.15	0.72	0.7557	1143.766	2.268
308.15	0.23	0	1000.357	1.697
308.15	0.23	0.0278	1005.91	1.718
308.15	0.23	0.0392	1008.171	1.726
308.15	0.23	0.0394	1008.175	1.726
308.15	0.23	0.0469	1009.647	1.732
308.15	0.23	0.0628	1012.763	1.743
308.15	0.23	0.0936	1018.68	1.765
308.15	0.23	0.1286	1025.284	1.791
308.15	0.23	0.1552	1030.328	1.81
308.15	0.23	0.186	1036.022	1.832
308.15	0.23	0.2438	1046.473	1.872
308.15	0.23	0.3215	1060.4	1.927
308.15	0.23	0.4163	1076.81	1.992
308.15	0.23	0.4965	1090.168	2.046
308.15	0.23	0.6035	1107.257	2.115
308.15	0.23	0.6986	1122.148	2.177
308.15	0.23	0.7586	1131.515	2.216
308.15	0.47	0	1006.475	1.723
308.15	0.47	0.0093	1008.346	1.728
308.15	0.47	0.0186	1010.187	1.733
308.15	0.47	0.028	1012.028	1.741
308.15	0.47	0.0476	1015.871	1.755
308.15	0.47	0.0628	1018.824	1.766
308.15	0.47	0.0959	1025.174	1.79
308.15	0.47	0.1284	1031.18	1.822
308.15	0.47	0.1303	1031.519	1.824
308.15	0.47	0.1527	1035.702	1.831
308.15	0.47	0.1858	1041.934	1.855
308.15	0.47	0.2483	1053.262	1.899
308.15	0.47	0.3198	1065.923	1.949
308.15	0.47	0.4196	1082.803	2.016
308.15	0.47	0.4948	1095.416	2.067
308.15	0.47	0.5974	1112.127	2.135
308.15	0.47	0.7036	1128.199	2.202
308.15	0.47	0.7569	1136.227	2.236
308.15	0.72	0	1012.194	1.741
308.15	0.72	0.0123	1014.626	1.751
308.15	0.72	0.0187	1015.888	1.755
308.15	0.72	0.0398	1020.031	1.771
308.15	0.72	0.0629	1024.45	1.788
308.15	0.72	0.0951	1030.62	1.811
308.15	0.72	0.1274	1036.728	1.835
308.15	0.72	0.1512	1041.095	1.851
308.15	0.72	0.1872	1047.647	1.877
308.15	0.72	0.2586	1060.445	1.927
308.15	0.72	0.3222	1071.674	1.972
308.15	0.72	0.4153	1087.569	2.035
308.15	0.72	0.4952	1100.695	2.089
308.15	0.72	0.6124	1119.665	2.167
308.15	0.72	0.7035	1133.612	2.225
308.15	0.72	0.7557	1141.571	2.259

System: (S)-2-aminopropanoic acid + water; phases: Liquid
Fixed: Pressure, kPa = 101
Property: Speed of sound, m/s (Liquid); method: Sing-around technique in a fixed-path interferometer
Temperature, K	Molality, mol/kg of (S)-2-aminopropanoic acid	Speed of sound, m/s	uncertainty
283.15	0.23	1464.37	1.13
283.15	0.47	1480.42	1.15
283.15	0.72	1496.71	1.16
283.15	0.23	1464.06	1.13
283.15	0.47	1480.49	1.15
283.15	0.72	1495.79	1.17
288.15	0.23	1482.04	1.13
288.15	0.47	1497.41	1.15
288.15	0.72	1513.02	1.17
288.15	0.23	1481.75	1.13
288.15	0.47	1497.56	1.15
288.15	0.72	1512.17	1.17
293.15	0.23	1497.71	1.13
293.15	0.47	1512.44	1.14
293.15	0.72	1527.48	1.16
293.15	0.23	1497.44	1.13
293.15	0.47	1512.6	1.14
293.15	0.72	1526.68	1.16
298.15	0.23	1511.4	1.12
298.15	0.47	1525.64	1.14
298.15	0.72	1540.1	1.16
298.15	0.23	1511.12	1.12
298.15	0.47	1525.79	1.14
298.15	0.72	1539.36	1.16
303.15	0.23	1523.35	1.12
303.15	0.47	1537.07	1.14
303.15	0.72	1551.04	1.16
303.15	0.23	1523.08	1.12
303.15	0.47	1537.24	1.14
303.15	0.72	1550.32	1.16
308.15	0.23	1533.61	1.12
308.15	0.47	1546.87	1.14
308.15	0.72	1560.41	1.16
308.15	0.23	1533.33	1.12
308.15	0.47	1547.04	1.14
308.15	0.72	1559.72	1.16

System: (S)-2-aminopropanoic acid + water; phases: Liquid
Fixed: Pressure, kPa = 101
Property: Mass density, kg/m3 (Liquid); method: Vibrating tube method
Temperature, K	Molality, mol/kg of (S)-2-aminopropanoic acid	Mass density, kg/m3	uncertainty
283.15	0.23	1006.295	0.118
283.15	0.47	1012.689	0.131
283.15	0.72	1019.089	0.144
288.15	0.23	1005.608	0.118
288.15	0.47	1011.923	0.13
288.15	0.72	1018.244	0.143
293.15	0.23	1004.641	0.117
293.15	0.47	1010.89	0.13
293.15	0.72	1017.145	0.142
298.15	0.23	1003.426	0.117
298.15	0.47	1009.62	0.129
298.15	0.72	1015.823	0.142
303.15	0.23	1001.982	0.116
303.15	0.47	1008.131	0.128
303.15	0.72	1014.291	0.141
308.15	0.23	1000.329	0.115
308.15	0.47	1006.443	0.127
308.15	0.72	1012.566	0.14
283.15	0.23	1006.338	0.118
283.15	0.47	1012.738	0.131
283.15	0.72	1018.714	0.143
288.15	0.23	1005.647	0.118
288.15	0.47	1011.964	0.13
288.15	0.72	1017.869	0.143
293.15	0.23	1004.677	0.117
293.15	0.47	1010.93	0.13
293.15	0.72	1016.772	0.142
298.15	0.23	1003.459	0.117
298.15	0.47	1009.657	0.129
298.15	0.72	1015.448	0.141
303.15	0.23	1002.013	0.116
303.15	0.47	1008.167	0.128
303.15	0.72	1013.917	0.141
308.15	0.23	1000.357	0.115
308.15	0.47	1006.475	0.127
308.15	0.72	1012.194	0.14

System: potassium dihydrogen citrate + water; phases: Liquid
Fixed: Pressure, kPa = 101
Property: Speed of sound, m/s (Liquid); method: Sing-around technique in a fixed-path interferometer
Temperature, K	Molality, mol/kg of potassium dihydrogen citrate	Speed of sound, m/s	uncertainty
283.15	0.0063	1448.79	1.11
283.15	0.0186	1450.1	1.12
283.15	0.0314	1451.49	1.12
283.15	0.0407	1452.55	1.12
283.15	0.0561	1454.17	1.12
283.15	0.0574	1454.33	1.12
283.15	0.0868	1457.2	1.13
283.15	0.0905	1457.87	1.13
283.15	0.1399	1462.88	1.13
283.15	0.1655	1465.42	1.14
283.15	0.284	1477.02	1.16
283.15	0.396	1487.37	1.18
283.15	0.4766	1494.58	1.19
283.15	0.5861	1504.06	1.21
283.15	0.5922	1504.67	1.21
283.15	0.7578	1518.53	1.23
288.15	0.0063	1466.92	1.11
288.15	0.0186	1468.23	1.12
288.15	0.0314	1469.53	1.12
288.15	0.0407	1470.4	1.12
288.15	0.0561	1472.02	1.12
288.15	0.0574	1472.12	1.12
288.15	0.0868	1475.03	1.13
288.15	0.0905	1475.39	1.13
288.15	0.1399	1480.14	1.14
288.15	0.1655	1482.51	1.14
288.15	0.284	1493.42	1.16
288.15	0.396	1503.11	1.18
288.15	0.4766	1509.81	1.19
288.15	0.5861	1518.86	1.21
288.15	0.5922	1519.37	1.21
288.15	0.7578	1532.54	1.23
293.15	0.0063	1483.11	1.11
293.15	0.0186	1484.32	1.11
293.15	0.0314	1485.54	1.11
293.15	0.0407	1486.36	1.12
293.15	0.0561	1487.86	1.12
293.15	0.0574	1487.95	1.12
293.15	0.0868	1490.67	1.12
293.15	0.0905	1491.02	1.12
293.15	0.1399	1495.46	1.13
293.15	0.1655	1497.68	1.14
293.15	0.284	1507.85	1.16
293.15	0.396	1516.97	1.17
293.15	0.4766	1523.31	1.19
293.15	0.5861	1531.83	1.21
293.15	0.5922	1532.32	1.21
293.15	0.7578	1544.73	1.23
298.15	0.0063	1497.32	1.11
298.15	0.0186	1498.46	1.11
298.15	0.0314	1499.59	1.11
298.15	0.0407	1500.36	1.11
298.15	0.0561	1501.76	1.11
298.15	0.0574	1501.86	1.11
298.15	0.0868	1504.37	1.12
298.15	0.0905	1504.69	1.12
298.15	0.1399	1508.83	1.13
298.15	0.1655	1510.9	1.13
298.15	0.284	1520.45	1.15
298.15	0.396	1529.04	1.17
298.15	0.4766	1534.98	1.19
298.15	0.5861	1543.01	1.2
298.15	0.5922	1543.47	1.2
298.15	0.7578	1555.24	1.23
303.15	0.0063	1509.69	1.1
303.15	0.0186	1510.74	1.11
303.15	0.0314	1511.79	1.11
303.15	0.0407	1512.53	1.11
303.15	0.0561	1513.83	1.11
303.15	0.0574	1513.93	1.11
303.15	0.0868	1516.28	1.12
303.15	0.0905	1516.59	1.12
303.15	0.1399	1520.47	1.13
303.15	0.1655	1522.42	1.13
303.15	0.284	1531.38	1.15
303.15	0.396	1539.43	1.17
303.15	0.4766	1545.03	1.18
303.15	0.5861	1552.6	1.2
303.15	0.5922	1553.03	1.2
303.15	0.7578	1564.18	1.23
308.15	0.0063	1520.35	1.1
308.15	0.0186	1521.33	1.11
308.15	0.0314	1522.32	1.11
308.15	0.0407	1523.01	1.11
308.15	0.0561	1524.23	1.11
308.15	0.0574	1524.32	1.11
308.15	0.0868	1526.53	1.12
308.15	0.0905	1526.8	1.12
308.15	0.1399	1530.44	1.13
308.15	0.1655	1532.27	1.13
308.15	0.284	1540.67	1.15
308.15	0.396	1548.24	1.17
308.15	0.4766	1553.52	1.18
308.15	0.5861	1560.69	1.2
308.15	0.5922	1561.11	1.2
308.15	0.7578	1571.63	1.23

System: potassium dihydrogen citrate + water; phases: Liquid
Fixed: Pressure, kPa = 101
Property: Mass density, kg/m3 (Liquid); method: Vibrating tube method
Temperature, K	Molality, mol/kg of potassium dihydrogen citrate	Mass density, kg/m3	uncertainty
283.15	0.0063	1000.472	0.16
283.15	0.0186	1001.971	0.162
283.15	0.0314	1003.529	0.163
283.15	0.0407	1004.651	0.163
283.15	0.0561	1006.516	0.161
283.15	0.0574	1006.666	0.161
283.15	0.0868	1010.19	0.171
283.15	0.0905	1010.651	0.172
283.15	0.1399	1016.401	0.172
283.15	0.1655	1019.362	0.175
283.15	0.284	1032.786	0.188
283.15	0.396	1044.96	0.202
283.15	0.4766	1053.369	0.212
283.15	0.5861	1064.692	0.226
283.15	0.5922	1065.268	0.227
283.15	0.7578	1081.711	0.257
288.15	0.0063	999.861	0.165
288.15	0.0186	1001.338	0.16
288.15	0.0314	1002.874	0.161
288.15	0.0407	1003.984	0.163
288.15	0.0561	1005.822	0.217
288.15	0.0574	1005.968	0.119
288.15	0.0868	1009.446	0.188
288.15	0.0905	1009.899	0.153
288.15	0.1399	1015.575	0.17
288.15	0.1655	1018.497	0.171
288.15	0.284	1031.761	0.187
288.15	0.396	1043.803	0.201
288.15	0.4766	1052.126	0.211
288.15	0.5861	1063.335	0.23
288.15	0.5922	1063.904	0.221
288.15	0.7578	1080.195	0.255
293.15	0.0063	998.956	0.163
293.15	0.0186	1000.414	0.159
293.15	0.0314	1001.931	0.159
293.15	0.0407	1003.026	0.161
293.15	0.0561	1004.843	0.208
293.15	0.0574	1004.987	0.121
293.15	0.0868	1008.423	0.185
293.15	0.0905	1008.87	0.153
293.15	0.1399	1014.48	0.169
293.15	0.1655	1017.37	0.17
293.15	0.284	1030.491	0.185
293.15	0.396	1042.412	0.199
293.15	0.4766	1050.655	0.21
293.15	0.5861	1061.762	0.228
293.15	0.5922	1062.326	0.22
293.15	0.7578	1078.48	0.254
298.15	0.0063	997.788	0.162
298.15	0.0186	999.232	0.158
298.15	0.0314	1000.729	0.158
298.15	0.0407	1001.815	0.16
298.15	0.0561	1003.61	0.202
298.15	0.0574	1003.753	0.122
298.15	0.0868	1007.152	0.182
298.15	0.0905	1007.595	0.153
298.15	0.1399	1013.146	0.168
298.15	0.1655	1016.004	0.169
298.15	0.284	1029	0.184
298.15	0.396	1040.81	0.198
298.15	0.4766	1048.983	0.209
298.15	0.5861	1059.998	0.226
298.15	0.5922	1060.556	0.219
298.15	0.7578	1076.586	0.252
303.15	0.0063	996.385	0.161
303.15	0.0186	997.809	0.158
303.15	0.0314	999.297	0.157
303.15	0.0407	1000.37	0.159
303.15	0.0561	1002.147	0.197
303.15	0.0574	1002.289	0.123
303.15	0.0868	1005.655	0.179
303.15	0.0905	1006.094	0.153
303.15	0.1399	1011.593	0.166
303.15	0.1655	1014.426	0.168
303.15	0.284	1027.306	0.183
303.15	0.396	1039.02	0.197
303.15	0.4766	1047.125	0.207
303.15	0.5861	1058.06	0.224
303.15	0.5922	1058.614	0.218
303.15	0.7578	1074.528	0.25
308.15	0.0063	994.762	0.157
308.15	0.0186	996.176	0.157
308.15	0.0314	997.649	0.157
308.15	0.0407	998.709	0.157
308.15	0.0561	1000.472	0.154
308.15	0.0574	1000.612	0.154
308.15	0.0868	1003.95	0.164
308.15	0.0905	1004.385	0.164
308.15	0.1399	1009.837	0.165
308.15	0.1655	1012.648	0.168
308.15	0.284	1025.424	0.181
308.15	0.396	1037.047	0.195
308.15	0.4766	1045.096	0.206
308.15	0.5861	1055.951	0.219
308.15	0.5922	1056.504	0.22
308.15	0.7578	1072.311	0.249
