Measured thermophysical data. Densities, Excess Molar Volumes, Isothermal Compressibilities, and Isobaric Thermal Expansivities of the N-Methyldiethanolamine (1) + Water (2) System at Temperatures between (313 and 363) K and Pressures up to 20 MPa
Source: J. Chem. Eng. Data, 2007, 10.1021/je700287u
Compound 1: N-methyldiethanolamine, C5H13NO2, InChI=1S/C5H13NO2/c1-6(2-4-7)3-5-8/h7-8H,2-5H2,1H3, purity 99%
Compound 2: water, H2O, InChI=1S/H2O/h1H2, purity 99.95%

System: N-methyldiethanolamine; phases: Liquid
Property: Mass density, kg/m3 (Liquid); method: VIBTUB:UFactor:6
Temperature, K	Pressure, kPa	Mass density, kg/m3	uncertainty
313.09	1007	1025.3	0.6
313.09	1989	1025.8	0.6
313.09	3027	1026.4	0.6
313.09	4003	1026.9	0.6
313.09	5004	1027.3	0.6
313.09	6004	1027.8	0.6
313.09	6996	1028.3	0.6
313.09	8006	1028.8	0.6
313.09	9066	1029.4	0.6
313.09	10021	1029.8	0.6
313.09	11008	1030.3	0.6
313.09	11995	1030.8	0.6
313.09	13024	1031.3	0.7
313.09	13984	1031.7	0.7
313.09	14994	1032.2	0.7
313.09	15992	1032.7	0.7
313.09	16977	1033.1	0.7
313.09	17994	1033.6	0.7
313.09	19000	1034	0.7
313.09	19985	1034.5	0.7
323.01	1003	1017.6	0.6
323.01	2020	1018.2	0.6
323.01	3006	1018.7	0.6
323.01	4031	1019.2	0.6
323.01	5002	1019.7	0.6
323.01	6020	1020.2	0.6
323.01	7003	1020.7	0.6
323.01	8000	1021.2	0.6
323.01	9006	1021.7	0.6
323.01	9991	1022.2	0.6
323.01	11005	1022.7	0.6
323.01	12000	1023.2	0.6
323.01	13010	1023.7	0.6
323.01	14000	1024.2	0.6
323.01	14987	1024.7	0.6
323.01	15987	1025.2	0.6
323.01	17012	1025.6	0.6
323.01	17991	1026.1	0.7
323.01	18995	1026.6	0.7
323.01	20012	1027.1	0.7
332.95	1045	1009.9	0.6
332.95	2032	1010.5	0.6
332.95	2995	1011	0.6
332.95	3991	1011.6	0.6
332.95	4983	1012.1	0.6
332.95	6016	1012.6	0.6
332.95	6998	1013.2	0.6
332.95	8009	1013.7	0.6
332.95	8993	1014.2	0.6
332.95	9991	1014.7	0.6
332.95	10985	1015.3	0.6
332.95	12014	1015.8	0.6
332.95	13079	1016.3	0.6
332.95	13992	1016.8	0.6
332.95	14999	1017.3	0.6
332.95	15997	1017.8	0.6
332.95	16989	1018.3	0.6
332.95	17997	1018.8	0.6
332.95	19011	1019.3	0.6
332.95	19963	1019.7	0.6
342.78	1004	1002	0.5
342.78	1998	1002.6	0.5
342.78	3050	1003.2	0.5
342.78	4015	1003.7	0.5
342.78	4998	1004.3	0.5
342.78	6020	1004.9	0.5
342.78	7011	1005.4	0.6
342.78	8034	1006	0.6
342.78	9001	1006.5	0.6
342.78	10000	1007.1	0.6
342.78	11000	1007.6	0.6
342.78	12012	1008.2	0.6
342.78	12947	1008.7	0.6
342.78	13991	1009.2	0.6
342.78	15001	1009.8	0.6
342.78	15987	1010.3	0.6
342.78	16998	1010.8	0.6
342.78	18005	1011.3	0.6
342.78	18981	1011.9	0.6
342.78	19980	1012.4	0.6
352.68	1013	994.4	0.5
352.68	2013	995	0.5
352.68	3004	995.6	0.5
352.68	3999	996.1	0.5
352.68	5003	996.8	0.5
352.68	6019	997.3	0.5
352.68	7005	997.8	0.5
352.68	8001	998.4	0.5
352.68	8984	999	0.5
352.68	9981	999.5	0.5
352.68	11029	1000.2	0.5
352.68	11980	1000.7	0.5
352.68	13051	1001.3	0.5
352.68	14000	1001.8	0.5
352.68	14988	1002.4	0.5
352.68	16018	1002.9	0.5
352.68	16978	1003.4	0.6
352.68	17977	1004	0.6
352.68	19003	1004.5	0.6
352.68	19990	1005.1	0.6
362.52	1005	986.7	0.6
362.52	2045	987.3	0.6
362.52	2982	987.8	0.6
362.52	4026	988.4	0.6
362.52	5007	988.9	0.6
362.52	6014	989.5	0.6
362.52	7015	990.2	0.6
362.52	7998	990.8	0.6
362.52	9003	991.3	0.6
362.52	9986	991.9	0.6
362.52	10996	992.5	0.6
362.52	12008	993.1	0.6
362.52	13004	993.7	0.6
362.52	13985	994.2	0.6
362.52	15010	994.8	0.6
362.52	15983	995.4	0.6
362.52	17007	995.7	0.6
362.52	17985	996.3	0.6
362.52	18994	996.9	0.5
362.52	19994	997.4	0.5

System: N-methyldiethanolamine + water; phases: Liquid
Property: Mass density, kg/m3 (Liquid); method: VIBTUB:UFactor:4
Temperature, K	Mole fraction of N-methyldiethanolamine	Pressure, kPa	Mass density, kg/m3	uncertainty
313.12	0.0369	1001	1005.7	0.4
313.12	0.0369	2015	1006.1	0.4
313.12	0.0369	2986	1006.5	0.4
313.12	0.0369	3994	1006.9	0.4
313.12	0.0369	5003	1007.3	0.4
313.12	0.0369	6002	1007.7	0.4
313.12	0.0369	6994	1008.1	0.4
313.12	0.0369	7995	1008.5	0.4
313.12	0.0369	8996	1008.9	0.4
313.12	0.0369	9983	1009.3	0.4
313.12	0.0369	10989	1009.7	0.4
313.12	0.0369	11991	1010.1	0.4
313.12	0.0369	12991	1010.5	0.4
313.12	0.0369	13988	1010.9	0.4
313.12	0.0369	14989	1011.4	0.4
313.12	0.0369	15985	1011.7	0.4
313.12	0.0369	16984	1012.1	0.4
313.12	0.0369	17985	1012.5	0.4
313.12	0.0369	18989	1012.9	0.4
313.12	0.0369	19945	1013.3	0.5
313.13	0.0893	1011	1025.9	0.4
313.13	0.0893	1994	1026.2	0.4
313.13	0.0893	3002	1026.6	0.4
313.13	0.0893	3998	1027	0.4
313.13	0.0893	4998	1027.4	0.4
313.13	0.0893	6001	1027.8	0.4
313.13	0.0893	6994	1028.1	0.4
313.13	0.0893	8000	1028.5	0.4
313.13	0.0893	8999	1028.9	0.5
313.13	0.0893	9995	1029.2	0.5
313.13	0.0893	10990	1029.6	0.5
313.13	0.0893	12001	1030	0.5
313.13	0.0893	12989	1030.3	0.5
313.13	0.0893	14000	1030.7	0.5
313.13	0.0893	14999	1031.1	0.5
313.13	0.0893	15995	1031.4	0.5
313.13	0.0893	17013	1031.8	0.5
313.13	0.0893	17993	1032.2	0.5
313.13	0.0893	18991	1032.6	0.5
313.13	0.0893	19991	1032.9	0.5
313.13	0.1302	1003	1033.5	0.4
313.13	0.1302	1993	1033.9	0.4
313.13	0.1302	2999	1034.3	0.4
313.13	0.1302	3994	1034.6	0.4
313.13	0.1302	4984	1035	0.5
313.13	0.1302	6001	1035.4	0.5
313.13	0.1302	6993	1035.8	0.5
313.13	0.1302	8003	1036.1	0.5
313.13	0.1302	8996	1036.5	0.5
313.13	0.1302	9989	1036.8	0.5
313.13	0.1302	10983	1037.2	0.5
313.13	0.1302	11992	1037.6	0.5
313.13	0.1302	12980	1037.9	0.5
313.13	0.1302	14000	1038.3	0.5
313.13	0.1302	15002	1038.7	0.5
313.13	0.1302	16001	1039.1	0.5
313.13	0.1302	16998	1039.5	0.5
313.13	0.1302	17991	1039.8	0.5
313.13	0.1302	18996	1040.2	0.5
313.13	0.1302	19990	1040.5	0.5
313.14	0.0607	999	1018.1	0.4
313.14	0.0607	2000	1018.5	0.4
313.14	0.0607	3028	1018.9	0.4
313.14	0.0607	4020	1019.3	0.4
313.14	0.0607	5011	1019.7	0.4
313.14	0.0607	6015	1020.1	0.4
313.14	0.0607	7003	1020.4	0.4
313.14	0.0607	8009	1020.8	0.4
313.14	0.0607	9014	1021.2	0.4
313.14	0.0607	10000	1021.5	0.4
313.14	0.0607	10977	1022	0.4
313.14	0.0607	12029	1022.3	0.5
313.14	0.0607	13022	1022.7	0.5
313.14	0.0607	13988	1023	0.5
313.14	0.0607	15009	1023.4	0.5
313.14	0.0607	16003	1023.8	0.5
313.14	0.0607	16995	1024.2	0.5
313.14	0.0607	18007	1024.6	0.5
313.14	0.0607	19000	1024.9	0.5
313.14	0.0607	19950	1025.3	0.5
323.08	0.0607	1011	1012.5	0.4
323.08	0.0607	2015	1012.9	0.4
323.08	0.0607	3015	1013.2	0.4
323.08	0.0607	4025	1013.7	0.4
323.08	0.0607	4995	1014	0.4
323.08	0.0607	6015	1014.4	0.4
323.08	0.0607	7015	1014.8	0.4
323.08	0.0607	7992	1015.2	0.4
323.08	0.0607	9006	1015.6	0.4
323.08	0.0607	10014	1016	0.4
323.08	0.0607	11000	1016.3	0.4
323.08	0.0607	12064	1016.8	0.4
323.08	0.0607	13004	1017.1	0.4
323.08	0.0607	13990	1017.5	0.4
323.08	0.0607	14997	1017.9	0.4
323.08	0.0607	15999	1018.2	0.4
323.08	0.0607	16993	1018.6	0.5
323.08	0.0607	18008	1019	0.5
323.08	0.0607	19017	1019.4	0.5
323.08	0.0607	19961	1019.7	0.5
323.09	0.0369	1034	1001.1	0.4
323.09	0.0369	2004	1001.5	0.4
323.09	0.0369	2993	1001.9	0.4
323.09	0.0369	3997	1002.4	0.4
323.09	0.0369	4998	1002.7	0.4
323.09	0.0369	6003	1003.1	0.4
323.09	0.0369	6993	1003.5	0.4
323.09	0.0369	7994	1004	0.4
323.09	0.0369	8996	1004.4	0.4
323.09	0.0369	9997	1004.8	0.4
323.09	0.0369	10986	1005.2	0.4
323.09	0.0369	11988	1005.6	0.4
323.09	0.0369	12997	1006	0.4
323.09	0.0369	13999	1006.4	0.4
323.09	0.0369	14989	1006.8	0.4
323.09	0.0369	16002	1007.1	0.4
323.09	0.0369	16988	1007.6	0.4
323.09	0.0369	17990	1007.9	0.4
323.09	0.0369	18996	1008.3	0.4
323.09	0.0369	19995	1008.7	0.4
323.09	0.1302	1017	1026.6	0.4
323.09	0.1302	2001	1027	0.4
323.09	0.1302	3015	1027.4	0.4
323.09	0.1302	4003	1027.8	0.4
323.09	0.1302	4999	1028.1	0.4
323.09	0.1302	5998	1028.5	0.4
323.09	0.1302	6998	1028.9	0.4
323.09	0.1302	7999	1029.3	0.5
323.09	0.1302	8998	1029.7	0.5
323.09	0.1302	9995	1030.1	0.5
323.09	0.1302	10997	1030.4	0.5
323.09	0.1302	11998	1030.8	0.5
323.09	0.1302	13005	1031.2	0.5
323.09	0.1302	14003	1031.6	0.5
323.09	0.1302	14990	1032	0.5
323.09	0.1302	15996	1032.3	0.5
323.09	0.1302	16999	1032.7	0.5
323.09	0.1302	17996	1033.1	0.5
323.09	0.1302	18988	1033.4	0.5
323.09	0.1302	20004	1033.8	0.5
323.1	0.0893	1009	1019.6	0.4
323.1	0.0893	2006	1020	0.4
323.1	0.0893	3012	1020.4	0.4
323.1	0.0893	4011	1020.8	0.4
323.1	0.0893	5002	1021.2	0.4
323.1	0.0893	5996	1021.6	0.4
323.1	0.0893	7006	1022	0.4
323.1	0.0893	8004	1022.3	0.4
323.1	0.0893	8991	1022.7	0.4
323.1	0.0893	9999	1023.1	0.4
323.1	0.0893	10993	1023.5	0.4
323.1	0.0893	11992	1023.8	0.4
323.1	0.0893	13001	1024.2	0.5
323.1	0.0893	13990	1024.6	0.5
323.1	0.0893	14980	1025	0.5
323.1	0.0893	16002	1025.3	0.5
323.1	0.0893	16990	1025.7	0.5
323.1	0.0893	17994	1026.1	0.5
323.1	0.0893	18999	1026.5	0.5
323.1	0.0893	20002	1026.8	0.5
333.03	0.0607	1015	1006.4	0.4
333.03	0.0607	1998	1006.8	0.4
333.03	0.0607	3013	1007.2	0.4
333.03	0.0607	4037	1007.6	0.4
333.03	0.0607	5116	1008.1	0.4
333.03	0.0607	6004	1008.4	0.4
333.03	0.0607	6992	1008.8	0.4
333.03	0.0607	8003	1009.1	0.4
333.03	0.0607	8975	1009.6	0.4
333.03	0.0607	9983	1009.9	0.4
333.03	0.0607	11029	1010.4	0.4
333.03	0.0607	12015	1010.7	0.4
333.03	0.0607	13028	1011.1	0.4
333.03	0.0607	14020	1011.5	0.4
333.03	0.0607	15022	1011.9	0.4
333.03	0.0607	16006	1012.3	0.4
333.03	0.0607	16996	1012.7	0.4
333.03	0.0607	18013	1013.1	0.4
333.03	0.0607	19018	1013.4	0.4
333.03	0.0607	19965	1013.8	0.4
333.03	0.1302	1009	1019.4	0.4
333.03	0.1302	2002	1019.8	0.4
333.03	0.1302	2997	1020.2	0.4
333.03	0.1302	3993	1020.6	0.4
333.03	0.1302	4997	1021	0.4
333.03	0.1302	6002	1021.4	0.4
333.03	0.1302	6992	1021.8	0.4
333.03	0.1302	8013	1022.2	0.4
333.03	0.1302	9016	1022.6	0.4
333.03	0.1302	9993	1023	0.4
333.03	0.1302	10989	1023.4	0.4
333.03	0.1302	12007	1023.8	0.5
333.03	0.1302	13003	1024.1	0.5
333.03	0.1302	13995	1024.5	0.5
333.03	0.1302	15011	1024.9	0.5
333.03	0.1302	15996	1025.3	0.5
333.03	0.1302	17011	1025.7	0.5
333.03	0.1302	17985	1026.1	0.5
333.03	0.1302	18991	1026.4	0.5
333.03	0.1302	19993	1026.8	0.5
333.04	0.0369	1012	995.9	0.4
333.04	0.0369	1999	996.3	0.4
333.04	0.0369	2995	996.7	0.4
333.04	0.0369	4008	997.2	0.4
333.04	0.0369	4992	997.6	0.4
333.04	0.0369	5983	998	0.4
333.04	0.0369	6994	998.4	0.4
333.04	0.0369	7997	998.8	0.4
333.04	0.0369	8994	999.2	0.4
333.04	0.0369	9994	999.6	0.4
333.04	0.0369	10996	1000	0.4
333.04	0.0369	11991	1000.4	0.4
333.04	0.0369	12996	1000.8	0.4
333.04	0.0369	13988	1001.2	0.4
333.04	0.0369	14991	1001.6	0.4
333.04	0.0369	15994	1002	0.4
333.04	0.0369	16992	1002.4	0.4
333.04	0.0369	17985	1002.8	0.4
333.04	0.0369	18990	1003.2	0.4
333.04	0.0369	19977	1003.6	0.4
333.05	0.0893	1013	1013	0.4
333.05	0.0893	2006	1013.4	0.4
333.05	0.0893	2994	1013.8	0.4
333.05	0.0893	4031	1014.2	0.4
333.05	0.0893	4999	1014.6	0.4
333.05	0.0893	6000	1015	0.4
333.05	0.0893	6995	1015.4	0.4
333.05	0.0893	8005	1015.8	0.4
333.05	0.0893	9000	1016.2	0.4
333.05	0.0893	9992	1016.5	0.4
333.05	0.0893	10993	1017	0.4
333.05	0.0893	11998	1017.3	0.4
333.05	0.0893	13000	1017.7	0.4
333.05	0.0893	14008	1018.1	0.4
333.05	0.0893	14983	1018.5	0.4
333.05	0.0893	16002	1018.9	0.4
333.05	0.0893	17032	1019.3	0.4
333.05	0.0893	17945	1019.6	0.5
333.05	0.0893	18989	1020	0.5
333.05	0.0893	19994	1020.4	0.5
342.91	0.1302	1008	1011.7	0.4
342.91	0.1302	1996	1012.1	0.4
342.91	0.1302	3044	1012.5	0.4
342.91	0.1302	4015	1012.9	0.4
342.91	0.1302	5006	1013.4	0.4
342.91	0.1302	5995	1013.8	0.4
342.91	0.1302	7010	1014.2	0.4
342.91	0.1302	8001	1014.6	0.4
342.91	0.1302	8996	1015	0.4
342.91	0.1302	9995	1015.5	0.4
342.91	0.1302	10992	1015.9	0.4
342.91	0.1302	12029	1016.3	0.4
342.91	0.1302	12993	1016.7	0.4
342.91	0.1302	13996	1017.1	0.4
342.91	0.1302	14997	1017.5	0.4
342.91	0.1302	15998	1017.9	0.4
342.91	0.1302	16997	1018.3	0.4
342.91	0.1302	18033	1018.8	0.5
342.91	0.1302	18977	1019.2	0.5
342.91	0.1302	19980	1019.6	0.5
342.94	0.0893	1029	1005.9	0.4
342.94	0.0893	1996	1006.3	0.4
342.94	0.0893	3018	1006.7	0.4
342.94	0.0893	3995	1007.1	0.4
342.94	0.0893	5000	1007.5	0.4
342.94	0.0893	5992	1007.9	0.4
342.94	0.0893	7008	1008.3	0.4
342.94	0.0893	7994	1008.8	0.4
342.94	0.0893	9001	1009.1	0.4
342.94	0.0893	9994	1009.6	0.4
342.94	0.0893	10983	1010	0.4
342.94	0.0893	12000	1010.4	0.4
342.94	0.0893	12996	1010.8	0.4
342.94	0.0893	14014	1011.2	0.4
342.94	0.0893	14994	1011.6	0.4
342.94	0.0893	15989	1012	0.4
342.94	0.0893	16991	1012.4	0.4
342.94	0.0893	17989	1012.8	0.4
342.94	0.0893	18984	1013.2	0.4
342.94	0.0893	19988	1013.6	0.4
342.96	0.0607	1042	999.5	0.4
342.96	0.0607	2006	999.8	0.4
342.96	0.0607	3028	1000.3	0.4
342.96	0.0607	4013	1000.7	0.4
342.96	0.0607	5003	1001.2	0.4
342.96	0.0607	5994	1001.6	0.4
342.96	0.0607	7004	1002	0.4
342.96	0.0607	8063	1002.5	0.4
342.96	0.0607	9140	1003	0.4
342.96	0.0607	10022	1003.4	0.4
342.96	0.0607	11032	1003.7	0.4
342.96	0.0607	11997	1004.1	0.4
342.96	0.0607	13009	1004.5	0.4
342.96	0.0607	14001	1004.9	0.4
342.96	0.0607	15005	1005.3	0.4
342.96	0.0607	16002	1005.7	0.4
342.96	0.0607	17011	1006.1	0.4
342.96	0.0607	17988	1006.5	0.4
342.96	0.0607	18992	1006.9	0.4
342.96	0.0607	20154	1007.3	0.4
352.84	0.1302	1009	1004	0.4
352.84	0.1302	2026	1004.3	0.4
352.84	0.1302	3005	1004.8	0.4
352.84	0.1302	4006	1005.3	0.4
352.84	0.1302	5004	1005.7	0.4
352.84	0.1302	5993	1006.1	0.4
352.84	0.1302	6991	1006.5	0.4
352.84	0.1302	7992	1006.9	0.4
352.84	0.1302	8994	1007.4	0.4
352.84	0.1302	9980	1007.8	0.4
352.84	0.1302	10971	1008.2	0.4
352.84	0.1302	11987	1008.7	0.4
352.84	0.1302	13040	1009.1	0.4
352.84	0.1302	13997	1009.5	0.4
352.84	0.1302	14981	1009.9	0.4
352.84	0.1302	15989	1010.4	0.4
352.84	0.1302	16976	1010.8	0.4
352.84	0.1302	17977	1011.2	0.4
352.84	0.1302	18979	1011.6	0.4
352.84	0.1302	19995	1012	0.4
352.85	0.0369	1004	983.9	0.4
352.85	0.0369	2037	984.4	0.4
352.85	0.0369	2962	984.8	0.4
352.85	0.0369	4014	985.2	0.4
352.85	0.0369	4994	985.6	0.4
352.85	0.0369	6034	986.1	0.4
352.85	0.0369	6999	986.5	0.4
352.85	0.0369	8019	987	0.4
352.85	0.0369	8987	987.3	0.4
352.85	0.0369	9992	987.8	0.4
352.85	0.0369	10987	988.2	0.4
352.85	0.0369	11994	988.6	0.4
352.85	0.0369	12978	989.1	0.4
352.85	0.0369	13987	989.4	0.4
352.85	0.0369	14998	989.9	0.4
352.85	0.0369	15956	990.2	0.4
352.85	0.0369	16987	990.7	0.4
352.85	0.0369	17991	991.1	0.4
352.85	0.0369	18986	991.5	0.4
352.85	0.0369	19988	991.9	0.4
352.88	0.0893	1037	998.6	0.4
352.88	0.0893	2010	999	0.4
352.88	0.0893	3005	999.5	0.4
352.88	0.0893	4010	999.9	0.4
352.88	0.0893	4999	1000.3	0.4
352.88	0.0893	5993	1000.7	0.4
352.88	0.0893	7000	1001.1	0.4
352.88	0.0893	7998	1001.6	0.4
352.88	0.0893	8982	1002	0.4
352.88	0.0893	9977	1002.4	0.4
352.88	0.0893	10995	1002.8	0.4
352.88	0.0893	11987	1003.3	0.4
352.88	0.0893	12999	1003.7	0.4
352.88	0.0893	13990	1004.1	0.4
352.88	0.0893	14969	1004.5	0.4
352.88	0.0893	15990	1004.9	0.4
352.88	0.0893	16991	1005.3	0.4
352.88	0.0893	18009	1005.8	0.4
352.88	0.0893	18994	1006.2	0.4
352.88	0.0893	20015	1006.6	0.4
362.71	0.0369	1012	977.3	0.4
362.71	0.0369	2054	977.8	0.4
362.71	0.0369	3004	978.2	0.4
362.71	0.0369	3981	978.6	0.4
362.71	0.0369	4997	979.1	0.4
362.71	0.0369	6006	979.5	0.4
362.71	0.0369	7005	979.9	0.4
362.71	0.0369	7962	980.3	0.4
362.71	0.0369	8999	980.8	0.4
362.71	0.0369	9999	981.2	0.4
362.71	0.0369	10997	981.6	0.4
362.71	0.0369	11979	982	0.4
362.71	0.0369	12988	982.5	0.4
362.71	0.0369	13990	982.9	0.4
362.71	0.0369	14982	983.4	0.4
362.71	0.0369	15982	983.8	0.4
362.71	0.0369	16992	984.2	0.4
362.71	0.0369	17958	984.6	0.4
362.71	0.0369	18984	985.1	0.4
362.71	0.0369	19984	985.5	0.4
362.72	0.1302	1043	995.9	0.4
362.72	0.1302	2117	996.4	0.4
362.72	0.1302	3008	996.8	0.4
362.72	0.1302	3995	997.3	0.4
362.72	0.1302	5002	997.8	0.4
362.72	0.1302	5994	998.2	0.4
362.72	0.1302	6994	998.6	0.4
362.72	0.1302	8003	999.1	0.4
362.72	0.1302	8988	999.6	0.4
362.72	0.1302	9991	1000	0.4
362.72	0.1302	11003	1000.4	0.4
362.72	0.1302	12036	1000.9	0.4
362.72	0.1302	13005	1001.3	0.4
362.72	0.1302	13983	1001.7	0.4
362.72	0.1302	14984	1002.2	0.4
362.72	0.1302	15981	1002.6	0.4
362.72	0.1302	16993	1003	0.4
362.72	0.1302	17988	1003.5	0.4
362.72	0.1302	18994	1003.9	0.4
362.72	0.1302	19995	1004.4	0.4
362.75	0.0893	993	990.9	0.4
362.75	0.0893	2025	991.3	0.4
362.75	0.0893	3013	991.8	0.4
362.75	0.0893	3995	992.2	0.4
362.75	0.0893	5018	992.7	0.4
362.75	0.0893	6003	993.1	0.4
362.75	0.0893	6988	993.6	0.4
362.75	0.0893	8002	994	0.4
362.75	0.0893	8996	994.4	0.4
362.75	0.0893	10040	994.9	0.4
362.75	0.0893	11000	995.3	0.4
362.75	0.0893	11988	995.7	0.4
362.75	0.0893	12992	996.1	0.4
362.75	0.0893	13990	996.6	0.4
362.75	0.0893	14990	997	0.4
362.75	0.0893	15993	997.5	0.4
362.75	0.0893	17004	997.9	0.4
362.75	0.0893	17984	998.3	0.4
362.75	0.0893	19022	998.7	0.4
362.75	0.0893	19984	999.2	0.4
