Measured thermophysical data. Liquid-Liquid Equilibria in Binary Mixtures of 1,3-Propanediol + Ionic Liquids [bmim][PF6], [bmim][BF4], and [emim][BF4]
Source: J. Chem. Eng. Data, 2007, 10.1021/je700037z
Compound 1: propan-1,3-diol, C3H8O2, InChI=1S/C3H8O2/c4-2-1-3-5/h4-5H,1-3H2
Compound 2: 1-butyl-3-methylimidazolium hexafluorophosphate, C8H15F6N2P, InChI=1S/C8H15N2.F6P/c1-3-4-5-10-7-6-9(2)8-10;1-7(2,3,4,5)6/h6-8H,3-5H2,1-2H3;/q+1;-1
Compound 3: 1-butyl-3-methylimidazolium tetrafluoroborate, C8H15BF4N2, InChI=1S/C8H15N2.BF4/c1-3-4-5-10-7-6-9(2)8-10;2-1(3,4)5/h6-8H,3-5H2,1-2H3;/q+1;-1
Compound 4: 1-ethyl-3-methylimidazolium tetrafluoroborate, C6H11BF4N2, InChI=1S/C6H11N2.BF4/c1-3-8-5-4-7(2)6-8;2-1(3,4)5/h4-6H,3H2,1-2H3;/q+1;-1

System: 1-ethyl-3-methylimidazolium tetrafluoroborate; phases: Liquid
Fixed: Pressure, kPa = 101.325
Property: Mass density, kg/m3 (Liquid); method: Pycnometric method
Temperature, K	Mass density, kg/m3	uncertainty
285	1290	7
290	1286	7
295	1282	7
300	1279	7
305	1275	7

System: propan-1,3-diol + 1-butyl-3-methylimidazolium hexafluorophosphate; phases: Liquid mixture 1, Liquid mixture 2
Fixed: Pressure, kPa = 101
Property: Liquid-liquid equilibrium temperature, K (Liquid mixture 1); method: VISOBS
Mole fraction of propan-1,3-diol	Liquid-liquid equilibrium temperature, K	uncertainty
0.501	353.2	4
0.701	357.2	4
0.904	353.2	4

System: propan-1,3-diol + 1-butyl-3-methylimidazolium hexafluorophosphate; phases: Liquid mixture 1, Liquid mixture 2
Fixed: Pressure, kPa = 101
Property: Molar volume, m3/mol (Liquid mixture 1); method: Pycnometric method
Temperature, K	Molar volume, m3/mol	uncertainty
286.6	0.0001845	4.4e-06
287.8	0.0001842	6e-06
288.2	0.0001834	4.2e-06
291.9	0.0001826	4.8e-06
298.3	0.0001811	6.2e-06
303.3	0.0001809	4e-06
313.5	0.0001768	4.8e-06
323.4	0.0001712	3.8e-06

System: propan-1,3-diol + 1-butyl-3-methylimidazolium hexafluorophosphate; phases: Liquid mixture 2, Liquid mixture 1
Fixed: Pressure, kPa = 101
Property: Molar volume, m3/mol (Liquid mixture 2); method: Pycnometric method
Temperature, K	Molar volume, m3/mol	uncertainty
286.6	7.15e-05	4e-07
287.8	7.16e-05	2e-07
288.2	7.18e-05	4e-07
291.9	7.23e-05	2e-07
298.3	7.26e-05	2e-07
303.3	7.3e-05	4e-07
313.5	7.41e-05	2e-07
323.4	7.55e-05	2e-07

System: propan-1,3-diol + 1-butyl-3-methylimidazolium hexafluorophosphate; phases: Liquid mixture 1, Liquid mixture 2
Fixed: Pressure, kPa = 101
Property: Mole fraction of propan-1,3-diol (Liquid mixture 1); method: volumetric method
Temperature, K	Mole fraction of propan-1,3-diol	uncertainty
286.6	0.109	0.034
287.8	0.114	0.046
288.2	0.118	0.032
291.9	0.133	0.038
298.3	0.15	0.048
303.3	0.155	0.03
313.5	0.19	0.038
323.4	0.243	0.03

System: propan-1,3-diol + 1-butyl-3-methylimidazolium hexafluorophosphate; phases: Liquid mixture 2, Liquid mixture 1
Fixed: Pressure, kPa = 101
Property: Mole fraction of propan-1,3-diol (Liquid mixture 2); method: volumetric method
Temperature, K	Mole fraction of propan-1,3-diol	uncertainty
286.6	0.994	0.002
287.8	0.994	0.002
288.2	0.994	0.002
291.9	0.991	0.002
298.3	0.99	0.002
303.3	0.988	0.002
313.5	0.985	0.002
323.4	0.978	0.002

System: propan-1,3-diol + 1-butyl-3-methylimidazolium tetrafluoroborate; phases: Liquid mixture 1, Liquid mixture 2
Property: Liquid-liquid equilibrium temperature, K (Liquid mixture 1); method: VISOBS
Mole fraction of propan-1,3-diol	Pressure, kPa	Liquid-liquid equilibrium temperature, K	uncertainty
0.701	101	298.2	4

System: propan-1,3-diol + 1-butyl-3-methylimidazolium tetrafluoroborate; phases: Liquid mixture 1, Liquid mixture 2
Fixed: Pressure, kPa = 101
Property: Molar volume, m3/mol (Liquid mixture 1); method: Pycnometric method
Temperature, K	Molar volume, m3/mol	uncertainty
286.7	0.000144	4e-07
287.9	0.0001418	8e-07
289.1	0.0001407	1e-06
291.9	0.0001316	1e-06

System: propan-1,3-diol + 1-butyl-3-methylimidazolium tetrafluoroborate; phases: Liquid mixture 2, Liquid mixture 1
Fixed: Pressure, kPa = 101
Property: Molar volume, m3/mol (Liquid mixture 2); method: Pycnometric method
Temperature, K	Molar volume, m3/mol	uncertainty
286.7	7.52e-05	4e-07
287.9	7.57e-05	4e-07
289.1	7.6e-05	6e-07
291.9	7.89e-05	2e-07

System: propan-1,3-diol + 1-butyl-3-methylimidazolium tetrafluoroborate; phases: Liquid mixture 1, Liquid mixture 2
Fixed: Pressure, kPa = 101
Property: Mole fraction of propan-1,3-diol (Liquid mixture 1); method: volumetric method
Temperature, K	Mole fraction of propan-1,3-diol	uncertainty
286.7	0.368	0.007
287.9	0.384	0.009
289.1	0.397	0.012
291.9	0.47	0.014

System: propan-1,3-diol + 1-butyl-3-methylimidazolium tetrafluoroborate; phases: Liquid mixture 2, Liquid mixture 1
Fixed: Pressure, kPa = 101
Property: Mole fraction of propan-1,3-diol (Liquid mixture 2); method: volumetric method
Temperature, K	Mole fraction of propan-1,3-diol	uncertainty
286.7	0.958	0.042
287.9	0.952	0.048
289.1	0.949	0.051
291.9	0.931	0.069

System: propan-1,3-diol + 1-ethyl-3-methylimidazolium tetrafluoroborate; phases: Liquid mixture 1, Liquid mixture 2
Fixed: Pressure, kPa = 101
Property: Liquid-liquid equilibrium temperature, K (Liquid mixture 1); method: VISOBS
Mole fraction of propan-1,3-diol	Liquid-liquid equilibrium temperature, K	uncertainty
0.701	308.2	4
0.903	304.2	4

System: propan-1,3-diol + 1-ethyl-3-methylimidazolium tetrafluoroborate; phases: Liquid mixture 1, Liquid mixture 2
Fixed: Pressure, kPa = 101
Property: Molar volume, m3/mol (Liquid mixture 1); method: Pycnometric method
Temperature, K	Molar volume, m3/mol	uncertainty
286.6	0.0001295	8e-07
287.8	0.0001292	8e-07
288.2	0.0001289	8e-07
291.9	0.0001239	6e-07
298.3	0.0001208	6e-07
303.3	0.0001146	4e-07

System: propan-1,3-diol + 1-ethyl-3-methylimidazolium tetrafluoroborate; phases: Liquid mixture 2, Liquid mixture 1
Fixed: Pressure, kPa = 101
Property: Molar volume, m3/mol (Liquid mixture 2); method: Pycnometric method
Temperature, K	Molar volume, m3/mol	uncertainty
286.6	7.25e-05	4e-07
287.8	7.27e-05	4e-07
288.2	7.29e-05	4e-07
291.9	7.47e-05	4e-07
298.3	7.6e-05	2.4e-06
303.3	7.75e-05	2e-07

System: propan-1,3-diol + 1-ethyl-3-methylimidazolium tetrafluoroborate; phases: Liquid mixture 1, Liquid mixture 2
Fixed: Pressure, kPa = 101
Property: Mole fraction of propan-1,3-diol (Liquid mixture 1); method: OTHER
Temperature, K	Mole fraction of propan-1,3-diol	uncertainty
286.6	0.238	0.01
287.8	0.245	0.01
288.2	0.249	0.009
291.9	0.309	0.009
298.3	0.358	0.009
303.3	0.435	0.009

System: propan-1,3-diol + 1-ethyl-3-methylimidazolium tetrafluoroborate; phases: Liquid mixture 2, Liquid mixture 1
Fixed: Pressure, kPa = 101
Property: Mole fraction of propan-1,3-diol (Liquid mixture 2); method: volumetric method
Temperature, K	Mole fraction of propan-1,3-diol	uncertainty
286.6	0.97	0.004
287.8	0.97	0.004
288.2	0.968	0.005
291.9	0.958	0.004
298.3	0.945	0.004
303.3	0.922	0.003
