Measured thermophysical data. Measurement and Correlation of Liquid-Liquid Equilibria of Methylcyclohexane + Toluene + N-Formylmorpholine at (293, 303, 313, and 323) K
Source: J. Chem. Eng. Data, 2007, 10.1021/je700036v
Compound 1: N-formylmorpholine, C5H9NO2, InChI=1S/C5H9NO2/c7-5-6-1-3-8-4-2-6/h5H,1-4H2, purity 99.5325%
Compound 2: methylcyclohexane, C7H14, InChI=1S/C7H14/c1-7-5-3-2-4-6-7/h7H,2-6H2,1H3, purity 99.737%
Compound 3: toluene, C7H8, InChI=1S/C7H8/c1-7-5-3-2-4-6-7/h2-6H,1H3, purity 99.8457%

System: N-formylmorpholine; phases: Liquid
Property: Refractive index (Na D-line) (Liquid); method: Standard Abbe refractometry
Temperature, K	Pressure, kPa	Refractive index (Na D-line)	uncertainty
293.1	101.325	1.484	0.0007

System: methylcyclohexane; phases: Liquid
Property: Refractive index (Na D-line) (Liquid); method: Standard Abbe refractometry
Temperature, K	Pressure, kPa	Refractive index (Na D-line)	uncertainty
293.1	101.325	1.423	0.0007

System: toluene; phases: Liquid
Property: Refractive index (Na D-line) (Liquid); method: Standard Abbe refractometry
Temperature, K	Pressure, kPa	Refractive index (Na D-line)	uncertainty
293.1	101.325	1.4873	0.0007

System: methylcyclohexane + N-formylmorpholine; phases: Liquid mixture 1, Liquid mixture 2
Fixed: Pressure, kPa = 101
Property: Mole fraction of methylcyclohexane (Liquid mixture 1); method: CHROM:UFactor:4
Temperature, K	Mole fraction of methylcyclohexane	uncertainty
293	0.9797	0.0012
303	0.9705	0.0014
313	0.9613	0.0015
323	0.9531	0.0017

System: methylcyclohexane + N-formylmorpholine; phases: Liquid mixture 2, Liquid mixture 1
Fixed: Pressure, kPa = 101
Property: Mole fraction of methylcyclohexane (Liquid mixture 2); method: CHROM:UFactor:4
Temperature, K	Mole fraction of methylcyclohexane	uncertainty
293	0.0231	0.001
303	0.0276	0.0011
313	0.0311	0.0015
323	0.0497	0.0024

System: methylcyclohexane + toluene + N-formylmorpholine; phases: Liquid mixture 2, Liquid mixture 1
Fixed: Pressure, kPa = 101
Property: Mole fraction of methylcyclohexane (Liquid mixture 2); method: Chromatography
Property: Mole fraction of toluene (Liquid mixture 1); method: Chromatography
Property: Mole fraction of methylcyclohexane (Liquid mixture 1); method: Chromatography
Temperature, K	Mole fraction of toluene	Mole fraction of methylcyclohexane	uncertainty	Mole fraction of toluene	uncertainty	Mole fraction of methylcyclohexane	uncertainty
293.15	0.0106	0.0222	0.0006	0.0773	0.001	0.8991	
293.15	0.0278	0.0227	0.0006	0.1399	0.0013	0.8288	
293.15	0.0514	0.0244	0.0006	0.1945	0.0016	0.7652	
293.15	0.0857	0.0278	0.0006	0.2499	0.002	0.6974	
293.15	0.1511	0.0371	0.0007	0.3242	0.0025	0.5981	
293.15	0.1983	0.0462	0.0007	0.365	0.0029	0.5368	
293.15	0.2694	0.0653	0.0008	0.4135	0.0032	0.4505	
303.15	0.0116	0.0249	0.0006	0.0766	0.001	0.8964	
303.15	0.0297	0.0256	0.0006	0.1386	0.0013	0.8261	
303.15	0.0541	0.0275	0.0006	0.1928	0.0016	0.7623	
303.15	0.0889	0.0314	0.0006	0.2479	0.002	0.6939	
303.15	0.1328	0.0377	0.0007	0.2999	0.0024	0.6246	
303.15	0.2025	0.0517	0.0007	0.3623	0.0028	0.5307	
303.15	0.2705	0.0715	0.0008	0.4079	0.0032	0.4467	
313.15	0.0126	0.0278	0.0006	0.0758	0.001	0.8935	
313.15	0.0316	0.0287	0.0006	0.1373	0.0013	0.8231	
313.15	0.0566	0.031	0.0006	0.1911	0.0016	0.759	
313.15	0.092	0.0353	0.0007	0.2458	0.002	0.6901	
313.15	0.1364	0.0423	0.0007	0.2976	0.0023	0.6198	
313.15	0.2064	0.0577	0.0007	0.3595	0.0028	0.5241	
313.15	0.2734	0.079	0.0008	0.4033	0.0031	0.4399	
323.15	0.0136	0.0309	0.0006	0.075	0.001	0.8903	
323.15	0.0335	0.0321	0.0006	0.136	0.0012	0.8198	
323.15	0.0591	0.0347	0.0007	0.1893	0.0015	0.7554	
323.15	0.1135	0.0424	0.0007	0.2664	0.0021	0.6552	
323.15	0.1626	0.052	0.0007	0.3171	0.0025	0.5819	
323.15	0.211	0.0642	0.0008	0.3567	0.0028	0.5168	
323.15	0.27	0.0846	0.0009	0.3951	0.0031	0.4405	
