Measured thermophysical data. Infinite Dilution Binary Diffusion Coefficients of Hydrotreating Compounds in Tetradecane in the Temperature Range from (310 to 475) K
Source: J. Chem. Eng. Data, 2008, 10.1021/je700535q
Compound 1: benzo[b]thiophene, C8H6S, InChI=1S/C8H6S/c1-2-4-8-7(3-1)5-6-9-8/h1-6H
Compound 2: dibenzothiophene, C12H8S, InChI=1S/C12H8S/c1-3-7-11-9(5-1)10-6-2-4-8-12(10)13-11/h1-8H
Compound 3: acridine, C13H9N, InChI=1S/C13H9N/c1-3-7-12-10(5-1)9-11-6-2-4-8-13(11)14-12/h1-9H
Compound 4: naphthalene, C10H8, InChI=1S/C10H8/c1-2-6-10-8-4-3-7-9(10)5-1/h1-8H
Compound 5: anthracene, C14H10, InChI=1S/C14H10/c1-2-6-12-10-14-8-4-3-7-13(14)9-11(12)5-1/h1-10H
Compound 6: tetradecane, C14H30, InChI=1S/C14H30/c1-3-5-7-9-11-13-14-12-10-8-6-4-2/h3-14H2,1-2H3

System: benzo[b]thiophene + tetradecane; phases: Liquid
Fixed: Pressure, kPa = 101
Fixed: Mole fraction of benzo[b]thiophene = 0
Property: Binary diffusion coefficient, m2/s (Liquid); method: TAYLOR:UFactor:4
Temperature, K	Binary diffusion coefficient, m2/s	uncertainty
333.2	1.19e-09	0.19
353.2	1.65e-09	0.14
373.2	2.1e-09	0.4
393.2	2.51e-09	0.24
413.2	3.19e-09	0.37
423.2	3.83e-09	0.51
453.2	4.77e-09	0.33

System: dibenzothiophene + tetradecane; phases: Liquid
Fixed: Pressure, kPa = 101
Fixed: Mole fraction of dibenzothiophene = 0
Property: Binary diffusion coefficient, m2/s (Liquid); method: TAYLOR:UFactor:4
Temperature, K	Binary diffusion coefficient, m2/s	uncertainty
333.2	1.06e-09	0.13
353.2	1.41e-09	0.15
393.2	2.13e-09	0.28
413.2	2.61e-09	0.2
423.2	3.14e-09	0.37
433.2	3.41e-09	0.24
453.2	3.96e-09	0.52
463.2	5.01e-09	0.8

System: acridine + tetradecane; phases: Liquid
Fixed: Pressure, kPa = 101
Fixed: Mole fraction of acridine = 0
Property: Binary diffusion coefficient, m2/s (Liquid); method: TAYLOR:UFactor:4
Temperature, K	Binary diffusion coefficient, m2/s	uncertainty
333.2	1.27e-09	0.16
353.2	1.55e-09	0.2
373.2	2e-09	0.17
393.2	2.4e-09	0.29
413.2	2.93e-09	0.53
423.2	3.74e-09	0.88
453.2	3.96e-09	0.49
473.2	5.08e-09	1.45

System: naphthalene + tetradecane; phases: Liquid
Fixed: Pressure, kPa = 101
Fixed: Mole fraction of naphthalene = 0
Property: Binary diffusion coefficient, m2/s (Liquid); method: TAYLOR:UFactor:4
Temperature, K	Binary diffusion coefficient, m2/s	uncertainty
313.2	1.03e-09	0.11
333.2	1.42e-09	0.16
353.2	1.86e-09	0.15
373.2	2.28e-09	0.21
418.2	3.69e-09	0.34
433.2	4.64e-09	0.32
453.2	5.56e-09	0.83

System: anthracene + tetradecane; phases: Liquid
Fixed: Pressure, kPa = 101
Fixed: Mole fraction of anthracene = 0
Property: Binary diffusion coefficient, m2/s (Liquid); method: TAYLOR:UFactor:8
Temperature, K	Binary diffusion coefficient, m2/s	uncertainty
333.2	9.4e-10	0.18
353.2	1.36e-09	0.3
373.2	1.38e-09	0.23
393.2	2.03e-09	0.41
433.2	3.43e-09	0.49
443.2	4.57e-09	0.64
453.2	5.56e-09	1.02
