Measured thermophysical data. Isobaric Vapor-Liquid Equilibria for Three Ternary Systems: Water + 2-Propanol + 1-Ethyl-3-methylimidazolium Tetrafluoroborate, Water + 1-Propanol + 1-Ethyl-3-methylimidazolium Tetrafluoroborate, and Water + 1-Propanol + 1-Butyl-3-methylimidazolium Tetrafluoroborate
Source: J. Chem. Eng. Data, 2007, 10.1021/je700092d
Compound 1: water, H2O, InChI=1S/H2O/h1H2
Compound 2: propan-1-ol, C3H8O, InChI=1S/C3H8O/c1-2-3-4/h4H,2-3H2,1H3
Compound 3: propan-2-ol, C3H8O, InChI=1S/C3H8O/c1-3(2)4/h3-4H,1-2H3
Compound 4: 1-ethyl-3-methylimidazolium tetrafluoroborate, C6H11BF4N2, InChI=1S/C6H11N2.BF4/c1-3-8-5-4-7(2)6-8;2-1(3,4)5/h4-6H,3H2,1-2H3;/q+1;-1
Compound 5: 1-butyl-3-methylimidazolium tetrafluoroborate, C8H15BF4N2, InChI=1S/C8H15N2.BF4/c1-3-4-5-10-7-6-9(2)8-10;2-1(3,4)5/h6-8H,3-5H2,1-2H3;/q+1;-1

System: water + 1-butyl-3-methylimidazolium tetrafluoroborate; phases: Liquid, Gas
Fixed: Pressure, kPa = 100
Property: Boiling temperature at pressure P, K (Liquid); method: EBULLIO:UFactor:8
Mass fraction of 1-butyl-3-methylimidazolium tetrafluoroborate	Boiling temperature at pressure P, K	uncertainty
0.3711	373.86	0.69
0.4905	374.27	0.69
0.5892	374.71	0.69
0.6725	375.45	0.7
0.7324	375.98	0.7
0.7979	377.19	0.7
0.8474	379.19	0.7

System: water + 1-ethyl-3-methylimidazolium tetrafluoroborate; phases: Liquid, Gas
Fixed: Pressure, kPa = 100
Property: Boiling temperature at pressure P, K (Liquid); method: EBULLIO:UFactor:8
Mass fraction of 1-ethyl-3-methylimidazolium tetrafluoroborate	Boiling temperature at pressure P, K	uncertainty
0.1004	373.26	0.68
0.2005	373.68	0.68
0.3276	374.22	0.69
0.4001	374.61	0.69
0.5029	375.3	0.69
0.6043	376.29	0.69
0.6978	377.91	0.7
0.7475	379.35	0.7
0.7826	380.64	0.7

System: propan-2-ol + 1-butyl-3-methylimidazolium tetrafluoroborate; phases: Liquid, Gas
Fixed: Pressure, kPa = 100
Property: Boiling temperature at pressure P, K (Liquid); method: EBULLIO:UFactor:8
Mass fraction of 1-butyl-3-methylimidazolium tetrafluoroborate	Boiling temperature at pressure P, K	uncertainty
0.3006	355.69	0.68
0.3475	355.8	0.69
0.386	355.88	0.69
0.4234	355.98	0.69
0.4593	356.1	0.69
0.4971	356.31	0.69
0.5376	356.54	0.69
0.5797	356.9	0.69
0.6249	357.4	0.69
0.6554	357.64	0.69
0.679	358.07	0.7
0.7033	358.43	0.7
0.73	359.19	0.7
0.7909	361.4	0.7
0.8302	363.56	0.7

System: propan-2-ol + 1-ethyl-3-methylimidazolium tetrafluoroborate; phases: Liquid, Gas
Fixed: Pressure, kPa = 100
Property: Boiling temperature at pressure P, K (Liquid); method: EBULLIO:UFactor:8
Mass fraction of 1-ethyl-3-methylimidazolium tetrafluoroborate	Boiling temperature at pressure P, K	uncertainty
0.326	355.45	0.69
0.418	355.48	0.69
0.5218	355.53	0.69
0.5979	355.62	0.69
0.659	355.9	0.69
0.7397	356.76	0.7
0.8068	357.68	0.7

System: propan-1-ol + 1-butyl-3-methylimidazolium tetrafluoroborate; phases: Liquid, Gas
Fixed: Pressure, kPa = 100
Property: Boiling temperature at pressure P, K (Liquid); method: EBULLIO:UFactor:8
Mass fraction of 1-butyl-3-methylimidazolium tetrafluoroborate	Boiling temperature at pressure P, K	uncertainty
0.2077	370.6	0.68
0.2769	370.74	0.68
0.3683	370.99	0.69
0.4853	371.82	0.69
0.5857	372.57	0.69
0.6704	373.93	0.69
0.7526	376.19	0.7
0.819	380.08	0.7

System: propan-1-ol + 1-ethyl-3-methylimidazolium tetrafluoroborate; phases: Liquid, Gas
Fixed: Pressure, kPa = 100
Property: Boiling temperature at pressure P, K (Liquid); method: EBULLIO:UFactor:8
Mass fraction of 1-ethyl-3-methylimidazolium tetrafluoroborate	Boiling temperature at pressure P, K	uncertainty
0.4422	370.11	0.69
0.5663	370.66	0.69
0.6276	371.2	0.69
0.6898	371.87	0.7
0.8009	374.77	0.7

System: propan-2-ol + water + 1-ethyl-3-methylimidazolium tetrafluoroborate; phases: Liquid, Gas
Fixed: Pressure, kPa = 100
Property: Boiling temperature at pressure P, K (Liquid); method: EBULLIO:UFactor:8
Mole fraction of water	Mole fraction of propan-2-ol	Boiling temperature at pressure P, K	uncertainty
0.0016	0.8302	355.46	0.68
0.0066	0.682	355.6	0.69
0.0088	0.4462	358.12	0.69
0.0108	0.875	355.37	0.68
0.0167	0.8169	355.35	0.68
0.0224	0.6697	355.54	0.69
0.0238	0.4369	358.36	0.69
0.0378	0.8501	355.08	0.68
0.0414	0.7952	355.17	0.68
0.0462	0.4231	358.52	0.69
0.0499	0.839	355.05	0.68
0.0612	0.6394	355.44	0.69
0.075	0.4054	358.72	0.69
0.0837	0.7579	354.92	0.68
0.101	0.792	354.75	0.68
0.1064	0.604	355.33	0.69
0.1121	0.3825	358.94	0.69
0.1272	0.7195	354.72	0.68
0.1536	0.357	359.61	0.69
0.1584	0.7392	354.44	0.68
0.17	0.6817	354.53	0.68
0.1705	0.554	355.21	0.69
0.206	0.3248	359.97	0.69
0.2171	0.6402	354.4	0.68
0.2182	0.6843	354.18	0.68
0.2415	0.4985	355.16	0.68
0.2682	0.5951	354.3	0.68
0.2786	0.28	360.62	0.69
0.2929	0.6156	354.04	0.68
0.3119	0.5566	354.25	0.68
0.3271	0.4317	355.23	0.68
0.3502	0.2359	361.48	0.69
0.3527	0.5206	354.24	0.68
0.3714	0.5435	354.01	0.68
0.3893	0.4882	354.26	0.68
0.418	0.3607	355.54	0.69
0.4325	0.1852	363.03	0.69
0.4654	0.457	354.11	0.68
0.4756	0.4121	354.43	0.68
0.5033	0.2941	356.08	0.69
0.5259	0.1275	365.73	0.7
0.5654	0.3329	354.79	0.68
0.5656	0.3649	354.43	0.68
0.5764	0.0964	367.87	0.7
0.6209	0.2022	357.54	0.69
0.6632	0.2466	355.48	0.68
0.6671	0.2715	354.82	0.68
0.7077	0.1344	359.75	0.69
0.7453	0.105	361.29	0.7
0.7663	0.1557	356.94	0.69
0.7729	0.1742	355.89	0.69
0.8252	0.1037	358.8	0.7
0.842	0.1108	357.37	0.71

System: propan-2-ol + water + 1-ethyl-3-methylimidazolium tetrafluoroborate; phases: Gas, Liquid
Fixed: Pressure, kPa = 100
Property: Mole fraction of propan-2-ol (Gas); method: CHROM:UFactor:4
Mole fraction of water	Mole fraction of propan-2-ol	Mole fraction of propan-2-ol	uncertainty
0.0016	0.8302	0.9981	0.0018
0.0066	0.682	0.9942	0.0037
0.0088	0.4462	0.9946	0.0027
0.0108	0.875	0.9869	0.0047
0.0167	0.8169	0.9811	0.0044
0.0224	0.6697	0.9806	0.0038
0.0238	0.4369	0.9846	0.0031
0.0378	0.8501	0.9559	0.0052
0.0414	0.7952	0.9549	0.005
0.0462	0.4231	0.9697	0.0035
0.0499	0.839	0.943	0.0056
0.0612	0.6394	0.9476	0.0046
0.075	0.4054	0.95	0.0042
0.0837	0.7579	0.9125	0.0063
0.101	0.792	0.8914	0.0075
0.1064	0.604	0.9103	0.0061
0.1121	0.3825	0.9216	0.0053
0.1272	0.7195	0.8767	0.0079
0.1536	0.357	0.8928	0.0068
0.1584	0.7392	0.8435	0.0096
0.17	0.6817	0.8433	0.0095
0.1705	0.554	0.867	0.0081
0.206	0.3248	0.8555	0.0085
0.2171	0.6402	0.8108	0.0111
0.2182	0.6843	0.7966	0.0119
0.2415	0.4985	0.8192	0.0105
0.2682	0.5951	0.7794	0.0126
0.2786	0.28	0.7963	0.0115
0.2929	0.6156	0.7498	0.0142
0.3119	0.5566	0.755	0.0138
0.3271	0.4317	0.7606	0.0134
0.3502	0.2359	0.746	0.014
0.3527	0.5206	0.7286	0.0151
0.3714	0.5435	0.7105	0.0159
0.3893	0.4882	0.7096	0.016
0.418	0.3607	0.7187	0.0153
0.4325	0.1852	0.6857	0.0169
0.4654	0.457	0.6673	0.018
0.4756	0.4121	0.6781	0.0174
0.5033	0.2941	0.6787	0.0173
0.5259	0.1275	0.5885	0.0215
0.5654	0.3329	0.6424	0.019
0.5656	0.3649	0.6397	0.0192
0.5764	0.0964	0.5461	0.0234
0.6209	0.2022	0.637	0.0192
0.6632	0.2466	0.6179	0.0201
0.6671	0.2715	0.6219	0.0199
0.7077	0.1344	0.61	0.0205
0.7453	0.105	0.5751	0.0221
0.7663	0.1557	0.5971	0.0211
0.7729	0.1742	0.5917	0.0214
0.8252	0.1037	0.5786	0.0219
0.842	0.1108	0.573	0.0222

System: propan-1-ol + water + 1-ethyl-3-methylimidazolium tetrafluoroborate; phases: Liquid, Gas
Fixed: Pressure, kPa = 100
Property: Boiling temperature at pressure P, K (Liquid); method: EBULLIO:UFactor:8
Mole fraction of water	Mole fraction of propan-1-ol	Boiling temperature at pressure P, K	uncertainty
0.0044	0.5823	372.09	0.69
0.0169	0.674	370.95	0.69
0.0475	0.5517	371.44	0.69
0.0682	0.6339	369.98	0.69
0.0856	0.5246	370.82	0.69
0.1118	0.5998	369.18	0.69
0.1481	0.4802	369.88	0.69
0.1931	0.5363	367.79	0.69
0.2163	0.4319	369.01	0.69
0.2834	0.4658	366.56	0.69
0.284	0.3838	368.25	0.69
0.3536	0.4109	365.86	0.69
0.3724	0.3211	367.49	0.69
0.4374	0.3455	365.14	0.69
0.4524	0.2642	367.09	0.69
0.5275	0.2752	364.72	0.69
0.5599	0.1879	367.19	0.69
0.6246	0.1993	364.84	0.69
0.6495	0.1243	368.24	0.7
0.6877	0.0972	369.3	0.7
0.7138	0.1297	365.79	0.69
0.7471	0.1036	366.55	0.7

System: propan-1-ol + water + 1-ethyl-3-methylimidazolium tetrafluoroborate; phases: Gas, Liquid
Fixed: Pressure, kPa = 100
Property: Mole fraction of propan-1-ol (Gas); method: CHROM:UFactor:4
Mole fraction of water	Mole fraction of propan-1-ol	Mole fraction of propan-1-ol	uncertainty
0.0044	0.5823	0.994	0.006
0.0169	0.674	0.9719	0.0066
0.0475	0.5517	0.9368	0.0066
0.0682	0.6339	0.8909	0.0088
0.0856	0.5246	0.8859	0.0083
0.1118	0.5998	0.8292	0.0113
0.1481	0.4802	0.8135	0.0114
0.1931	0.5363	0.7417	0.015
0.2163	0.4319	0.7423	0.0147
0.2834	0.4658	0.658	0.0188
0.284	0.3838	0.6632	0.0183
0.3536	0.4109	0.5984	0.0214
0.3724	0.3211	0.5937	0.0214
0.4374	0.3455	0.5465	0.0236
0.4524	0.2642	0.5301	0.0242
0.5275	0.2752	0.497	0.0254
0.5599	0.1879	0.4627	0.0234
0.6246	0.1993	0.4487	0.0227
0.6495	0.1243	0.4204	0.0211
0.6877	0.0972	0.4113	0.0206
0.7138	0.1297	0.4165	0.0209
0.7471	0.1036	0.4107	0.0206

System: propan-1-ol + water + 1-butyl-3-methylimidazolium tetrafluoroborate; phases: Liquid, Gas
Fixed: Pressure, kPa = 100
Property: Boiling temperature at pressure P, K (Liquid); method: EBULLIO:UFactor:8
Mole fraction of water	Mole fraction of propan-1-ol	Boiling temperature at pressure P, K	uncertainty
0.0027	0.6149	374.81	0.69
0.0176	0.8813	370.39	0.7
0.0178	0.7747	371.51	0.7
0.0359	0.8643	369.76	0.7
0.0634	0.8388	368.86	0.71
0.0771	0.7241	369.78	0.7
0.087	0.5532	372.97	0.7
0.127	0.7797	367.11	0.7
0.1449	0.5108	371.55	0.7
0.1538	0.6587	367.92	0.7
0.2075	0.705	365.32	0.7
0.2084	0.4643	370.36	0.7
0.2421	0.5833	366.37	0.7
0.274	0.4163	369.38	0.7
0.3039	0.6155	363.75	0.69
0.3234	0.514	365.23	0.7
0.3445	0.3647	368.43	0.69
0.4025	0.5239	362.76	0.69
0.4191	0.4324	364.35	0.69
0.4214	0.3084	367.81	0.69
0.5025	0.2491	367.41	0.69
0.5068	0.4271	362.21	0.69
0.5088	0.3558	363.73	0.69
0.5834	0.1899	367.32	0.69
0.5972	0.2804	363.58	0.69
0.6032	0.3377	362.04	0.69
0.6692	0.1271	367.95	0.69
0.6945	0.1975	363.93	0.69
0.6967	0.2508	362.18	0.69
0.7269	0.0849	369.17	0.69
0.7641	0.0577	370.56	0.7
0.7783	0.126	365.14	0.69
0.7873	0.1668	362.67	0.69
0.8285	0.0832	366.32	0.69
0.8494	0.1091	363.7	0.7

System: propan-1-ol + water + 1-butyl-3-methylimidazolium tetrafluoroborate; phases: Gas, Liquid
Fixed: Pressure, kPa = 100
Property: Mole fraction of propan-1-ol (Gas); method: CHROM:UFactor:4
Mole fraction of water	Mole fraction of propan-1-ol	Mole fraction of propan-1-ol	uncertainty
0.0027	0.6149	0.995	0.0049
0.0176	0.8813	0.9564	0.0102
0.0178	0.7747	0.9613	0.0082
0.0359	0.8643	0.9121	0.0111
0.0634	0.8388	0.8543	0.0122
0.0771	0.7241	0.8424	0.0109
0.087	0.5532	0.8473	0.0104
0.127	0.7797	0.741	0.0162
0.1449	0.5108	0.7531	0.0142
0.1538	0.6587	0.7186	0.016
0.2075	0.705	0.6366	0.0203
0.2084	0.4643	0.6658	0.0181
0.2421	0.5833	0.6134	0.0212
0.274	0.4163	0.6021	0.021
0.3039	0.6155	0.5428	0.0239
0.3234	0.514	0.5569	0.0233
0.3445	0.3647	0.5371	0.0239
0.4025	0.5239	0.4787	0.0246
0.4191	0.4324	0.5141	0.025
0.4214	0.3084	0.5014	0.0255
0.5025	0.2491	0.4511	0.0228
0.5068	0.4271	0.4491	0.0229
0.5088	0.3558	0.4584	0.0232
0.5834	0.1899	0.4307	0.0217
0.5972	0.2804	0.4408	0.0222
0.6032	0.3377	0.4345	0.0219
0.6692	0.1271	0.3978	0.0199
0.6945	0.1975	0.4195	0.021
0.6967	0.2508	0.4247	0.0213
0.7269	0.0849	0.3352	0.0167
0.7641	0.0577	0.2889	0.0149
0.7783	0.126	0.4028	0.0201
0.7873	0.1668	0.4264	0.0214
0.8285	0.0832	0.3977	0.02
0.8494	0.1091	0.4178	0.021
