Measured thermophysical data. Solubility of Irbesartan (Form A) in Different Solvents between 278 K and 323 K
Source: J. Chem. Eng. Data, 2007, 10.1021/je700296x
Compound 1: irbesartan, C25H28N6O, InChI=1S/C25H28N6O/c1-2-3-10-22-26-25(15-6-7-16-25)24(32)31(22)17-18-11-13-19(14-12-18)20-8-4-5-9-21(20)23-27-29-30-28-23/h4-5,8-9,11-14H,2-3,6-7,10,15-17H2,1H3,(H,27,28,29,30)
Compound 2: ethanol, C2H6O, InChI=1S/C2H6O/c1-2-3/h3H,2H2,1H3
Compound 3: acetone, C3H6O, InChI=1S/C3H6O/c1-3(2)4/h1-2H3
Compound 4: trichloromethane, CHCl3, InChI=1S/CHCl3/c2-1(3)4/h1H
Compound 5: 1,4-dioxane, C4H8O2, InChI=1S/C4H8O2/c1-2-6-4-3-5-1/h1-4H2
Compound 6: tetrahydrofuran, C4H8O, InChI=1S/C4H8O/c1-2-4-5-3-1/h1-4H2

System: ethanol + irbesartan; phases: Liquid, Crystal
Fixed: Pressure, kPa = 101
Property: Mole fraction of irbesartan (Liquid); method: Laser monitoring
Temperature, K	Mole fraction of irbesartan	uncertainty
278.6	0.0003328	3.41e-05
283.55	0.000489	5e-05
288.5	0.000627	6.4e-05
292.7	0.000809	8.3e-05
297.8	0.001059	0.000108
303.05	0.00122	0.000124
308.5	0.001593	0.000163
313.3	0.002098	0.000214
318.5	0.00263	0.000268
323.6	0.003411	0.000348

System: acetone + irbesartan; phases: Liquid, Crystal
Fixed: Pressure, kPa = 101
Property: Mole fraction of irbesartan (Liquid); method: Laser monitoring
Temperature, K	Mole fraction of irbesartan	uncertainty
278.35	0.0002837	2.88e-05
283.15	0.000364	3.69e-05
288.35	0.000444	4.5e-05
293.6	0.00053	5.4e-05
298.25	0.000678	6.9e-05
302.95	0.000861	8.7e-05
308.4	0.001047	0.000106
312.75	0.001291	0.000131
318.55	0.001579	0.00016
323.1	0.001921	0.000195

System: trichloromethane + irbesartan; phases: Liquid, Crystal
Fixed: Pressure, kPa = 101
Property: Mole fraction of irbesartan (Liquid); method: Laser monitoring
Temperature, K	Mole fraction of irbesartan	uncertainty
277.7	0.001195	0.00012
283.3	0.001309	0.000131
287.7	0.001457	0.000146
292.7	0.001615	0.000162
297.75	0.001794	0.00018
302.85	0.002012	0.000202
307.8	0.002252	0.000226
313.4	0.002592	0.00026
317.8	0.002935	0.000294
323	0.003351	0.000336

System: 1,4-dioxane + irbesartan; phases: Liquid, Crystal
Fixed: Pressure, kPa = 101
Property: Mole fraction of irbesartan (Liquid); method: Laser monitoring
Temperature, K	Mole fraction of irbesartan	uncertainty
287.9	0.000466	4.7e-05
293.45	0.000634	6.4e-05
298	0.000832	8.4e-05
303.65	0.001115	0.000112
308.2	0.001421	0.000143
312.9	0.00183	0.000184
318.05	0.002269	0.000228
322.85	0.002778	0.000279

System: tetrahydrofuran + irbesartan; phases: Liquid, Crystal
Fixed: Pressure, kPa = 101
Property: Mole fraction of irbesartan (Liquid); method: Laser monitoring
Temperature, K	Mole fraction of irbesartan	uncertainty
278.3	0.001269	0.000128
282.85	0.001524	0.000154
288.1	0.001842	0.000186
292.95	0.002294	0.000231
297.7	0.002765	0.000279
303.15	0.003316	0.000334
308.05	0.003965	0.0004
312.7	0.004792	0.000483
318.35	0.005815	0.000587
322.75	0.006867	0.000693
