Measured thermophysical data. Densities, Excess Molar Volumes, Speeds of Sound at (293.15, 298.15, and 303.15) K and Isentropic Compressibilities at 298.15 K for 1-Butanol, 1-Pentanol, or 1-Hexanol + Dibutylether Systems
Source: J. Chem. Eng. Data, 2008, 10.1021/je7005727
Compound 1: butan-1-ol, C4H10O, InChI=1S/C4H10O/c1-2-3-4-5/h5H,2-4H2,1H3
Compound 2: pentan-1-ol, C5H12O, InChI=1S/C5H12O/c1-2-3-4-5-6/h6H,2-5H2,1H3
Compound 3: hexan-1-ol, C6H14O, InChI=1S/C6H14O/c1-2-3-4-5-6-7/h7H,2-6H2,1H3
Compound 4: dibutyl ether, C8H18O, InChI=1S/C8H18O/c1-3-5-7-9-8-6-4-2/h3-8H2,1-2H3

System: butan-1-ol; phases: Liquid
Fixed: Pressure, kPa = 101.325
Property: Speed of sound, m/s (Liquid); method: Sing-around technique in a fixed-path interferometer
Temperature, K	Speed of sound, m/s	uncertainty
293.15	1256.74	0.82
298.15	1239.19	0.81
303.15	1222.7	0.81

System: butan-1-ol; phases: Liquid
Fixed: Pressure, kPa = 101.325
Property: Mass density, kg/m3 (Liquid); method: VIBTUB:UFactor:4
Temperature, K	Mass density, kg/m3	uncertainty
293.15	809.644	0.46
298.15	805.842	0.466
303.15	801.995	0.472

System: pentan-1-ol; phases: Liquid
Fixed: Pressure, kPa = 101.325
Property: Speed of sound, m/s (Liquid); method: Sing-around technique in a fixed-path interferometer
Temperature, K	Speed of sound, m/s	uncertainty
293.15	1292.52	1.2
298.15	1275.08	1.19
303.15	1258.46	1.19

System: pentan-1-ol; phases: Liquid
Fixed: Pressure, kPa = 101.325
Property: Mass density, kg/m3 (Liquid); method: VIBTUB:UFactor:6
Temperature, K	Mass density, kg/m3	uncertainty
293.15	814.738	0.76
298.15	811.067	0.768
303.15	807.366	0.776

System: hexan-1-ol; phases: Liquid
Fixed: Pressure, kPa = 101.325
Property: Speed of sound, m/s (Liquid); method: Sing-around technique in a fixed-path interferometer
Temperature, K	Speed of sound, m/s	uncertainty
293.15	1320.32	1.2
298.15	1303.03	1.2
303.15	1286.34	1.2

System: hexan-1-ol; phases: Liquid
Fixed: Pressure, kPa = 101.325
Property: Mass density, kg/m3 (Liquid); method: VIBTUB:UFactor:6
Temperature, K	Mass density, kg/m3	uncertainty
293.15	768.468	0.857
298.15	764.17	0.866
303.15	759.829	0.875

System: dibutyl ether; phases: Liquid
Fixed: Pressure, kPa = 101.325
Property: Speed of sound, m/s (Liquid); method: Sing-around technique in a fixed-path interferometer
Temperature, K	Speed of sound, m/s	uncertainty
293.15	1181.82	0.8
298.15	1161.19	0.79
303.15	1142.07	0.78

System: dibutyl ether; phases: Liquid
Fixed: Pressure, kPa = 101.325
Property: Mass density, kg/m3 (Liquid); method: VIBTUB:UFactor:4
Temperature, K	Mass density, kg/m3	uncertainty
293.15	768.468	0.522
298.15	764.17	0.529
303.15	759.829	0.536

System: butan-1-ol + dibutyl ether; phases: Liquid
Fixed: Pressure, kPa = 101
Property: Speed of sound, m/s (Liquid); method: Sing-around technique in a fixed-path interferometer
Temperature, K	Mole fraction of butan-1-ol	Speed of sound, m/s	uncertainty
293.15	0.0547	-1.046	0.557
293.15	0.1046	-2.817	0.557
293.15	0.1516	-4.631	0.556
293.15	0.2005	-6.421	0.556
293.15	0.2514	-8.065	0.556
293.15	0.3016	-9.427	0.556
293.15	0.3518	-10.517	0.556
293.15	0.4012	-11.368	0.556
293.15	0.4519	-11.934	0.556
293.15	0.5008	-12.296	0.556
293.15	0.5997	-12.117	0.556
293.15	0.65	-11.553	0.556
293.15	0.6984	-10.792	0.556
293.15	0.7464	-9.727	0.556
293.15	0.8488	-6.633	0.557
293.15	0.898	-4.714	0.557
293.15	0.9493	-2.433	0.557
298.15	0.0517	-0.981	0.557
298.15	0.1047	-2.909	0.557
298.15	0.1499	-4.65	0.556
298.15	0.2024	-6.605	0.556
298.15	0.2519	-8.255	0.556
298.15	0.2992	-9.597	0.556
298.15	0.354	-10.923	0.556
298.15	0.3987	-11.7	0.556
298.15	0.4511	-12.359	0.556
298.15	0.5037	-12.748	0.556
298.15	0.5514	-12.766	0.556
298.15	0.5983	-12.599	0.556
298.15	0.6481	-12.079	0.556
298.15	0.6993	-11.233	0.556
298.15	0.7489	-10.079	0.556
298.15	0.8004	-8.64	0.556
298.15	0.8501	-6.889	0.556
298.15	0.8974	-4.956	0.556
298.15	0.9492	-2.543	0.557
303.15	0.0544	-1.138	0.557
303.15	0.1019	-2.835	0.557
303.15	0.1509	-4.793	0.556
303.15	0.2038	-6.779	0.556
303.15	0.2505	-8.395	0.556
303.15	0.3025	-9.942	0.556
303.15	0.3542	-11.238	0.556
303.15	0.3972	-12.062	0.556
303.15	0.4501	-12.807	0.556
303.15	0.5002	-13.188	0.556
303.15	0.5493	-13.28	0.556
303.15	0.6069	-12.997	0.556
303.15	0.6491	-12.537	0.556
303.15	0.7005	-11.695	0.556
303.15	0.7451	-10.555	0.556
303.15	0.8001	-8.908	0.556
303.15	0.8482	-7.242	0.556
303.15	0.899	-5.083	0.556
303.15	0.9494	-2.69	0.557

System: butan-1-ol + dibutyl ether; phases: Liquid
Fixed: Pressure, kPa = 101
Property: Mass density, kg/m3 (Liquid); method: VIBTUB:UFactor:6
Temperature, K	Mole fraction of butan-1-ol	Mass density, kg/m3	uncertainty
293.15	0.0547	770.042	0.755
293.15	0.1046	771.461	0.752
293.15	0.1516	772.81	0.749
293.15	0.2005	774.247	0.745
293.15	0.2514	775.785	0.742
293.15	0.3016	777.369	0.738
293.15	0.3518	779.033	0.734
293.15	0.4012	780.726	0.731
293.15	0.4519	782.556	0.726
293.15	0.5008	784.403	0.722
293.15	0.5997	788.444	0.713
293.15	0.65	790.668	0.708
293.15	0.6984	792.9	0.703
293.15	0.7464	795.233	0.698
293.15	0.8488	800.592	0.686
293.15	0.898	803.384	0.679
293.15	0.9493	806.449	0.672
298.15	0.0517	765.646	0.765
298.15	0.1047	767.168	0.761
298.15	0.1499	768.464	0.758
298.15	0.2024	770.022	0.755
298.15	0.2519	771.537	0.751
298.15	0.2992	773.045	0.748
298.15	0.354	774.86	0.744
298.15	0.3987	776.425	0.74
298.15	0.4511	778.326	0.736
298.15	0.5037	780.345	0.732
298.15	0.5514	782.295	0.727
298.15	0.5983	784.258	0.723
298.15	0.6481	786.487	0.718
298.15	0.6993	788.884	0.712
298.15	0.7489	791.361	0.707
298.15	0.8004	794.002	0.701
298.15	0.8501	796.724	0.694
298.15	0.8974	799.453	0.688
298.15	0.9492	802.596	0.681
303.15	0.0544	761.363	0.775
303.15	0.1019	762.717	0.772
303.15	0.1509	764.148	0.768
303.15	0.2038	765.743	0.765
303.15	0.2505	767.184	0.761
303.15	0.3025	768.842	0.758
303.15	0.3542	770.576	0.754
303.15	0.3972	772.093	0.75
303.15	0.4501	774.032	0.746
303.15	0.5002	775.97	0.741
303.15	0.5493	777.978	0.737
303.15	0.6069	780.477	0.731
303.15	0.6491	782.394	0.727
303.15	0.7005	784.812	0.721
303.15	0.7451	787.095	0.716
303.15	0.8001	789.991	0.71
303.15	0.8482	792.622	0.704
303.15	0.899	795.603	0.697
303.15	0.9494	798.7	0.69

System: pentan-1-ol + dibutyl ether; phases: Liquid
Fixed: Pressure, kPa = 101
Property: Speed of sound, m/s (Liquid); method: Sing-around technique in a fixed-path interferometer
Temperature, K	Mole fraction of pentan-1-ol	Speed of sound, m/s	uncertainty
293.15	0.0993	-3.015	0.602
293.15	0.1509	-5.244	0.625
293.15	0.1989	-7.193	0.647
293.15	0.2498	-9.011	0.671
293.15	0.2983	-10.535	0.693
293.15	0.3468	-11.731	0.716
293.15	0.3961	-12.663	0.739
293.15	0.4504	-13.328	0.765
293.15	0.5527	-13.687	0.814
293.15	0.5997	-13.418	0.836
293.15	0.651	-12.764	0.861
293.15	0.6975	-11.904	0.883
293.15	0.7501	-10.599	0.908
293.15	0.7985	-9.137	0.932
293.15	0.8506	-7.182	0.957
293.15	0.9	-5.067	0.981
298.15	0.0486	-0.988	0.579
298.15	0.0986	-2.983	0.601
298.15	0.1521	-5.299	0.626
298.15	0.2022	-7.238	0.649
298.15	0.252	-9.199	0.672
298.15	0.2996	-10.694	0.694
298.15	0.3515	-11.996	0.718
298.15	0.3997	-12.961	0.741
298.15	0.4497	-13.657	0.764
298.15	0.4986	-13.992	0.788
298.15	0.4987	-13.744	0.788
298.15	0.5487	-14.082	0.811
298.15	0.5982	-13.838	0.835
298.15	0.6496	-13.202	0.86
298.15	0.6966	-12.283	0.882
298.15	0.7484	-10.982	0.907
298.15	0.799	-9.324	0.932
298.15	0.8506	-7.408	0.957
298.15	0.9002	-5.199	0.981
298.15	0.949	-2.717	1.005
298.15	0.9491	-2.666	1.005
303.15	0.0495	-1.077	0.579
303.15	0.1034	-3.228	0.603
303.15	0.1526	-5.394	0.626
303.15	0.2049	-7.584	0.65
303.15	0.2523	-9.264	0.672
303.15	0.2985	-10.776	0.693
303.15	0.3486	-12.138	0.717
303.15	0.399	-13.123	0.74
303.15	0.4497	-13.811	0.764
303.15	0.4978	-14.318	0.787
303.15	0.5493	-14.301	0.812
303.15	0.6003	-13.983	0.836
303.15	0.6499	-13.464	0.86
303.15	0.6988	-12.585	0.883
303.15	0.7492	-11.257	0.908
303.15	0.8001	-9.589	0.932
303.15	0.851	-7.596	0.957
303.15	0.8974	-5.49	0.98
303.15	0.9493	-2.775	1.005

System: pentan-1-ol + dibutyl ether; phases: Liquid
Fixed: Pressure, kPa = 101
Property: Mass density, kg/m3 (Liquid); method: VIBTUB:UFactor:6
Temperature, K	Mole fraction of pentan-1-ol	Mass density, kg/m3	uncertainty
293.15	0.0993	772.147	0.756
293.15	0.1509	774.059	0.755
293.15	0.1989	775.841	0.755
293.15	0.2498	777.791	0.754
293.15	0.2983	779.683	0.754
293.15	0.3468	781.629	0.753
293.15	0.3961	783.67	0.753
293.15	0.4504	785.99	0.752
293.15	0.5527	790.629	0.752
293.15	0.5997	792.852	0.752
293.15	0.651	795.356	0.751
293.15	0.6975	797.695	0.751
293.15	0.7501	800.433	0.751
293.15	0.7985	803.03	0.751
293.15	0.8506	805.928	0.751
293.15	0.9	808.751	0.752
298.15	0.0486	766.003	0.767
298.15	0.0986	767.846	0.766
298.15	0.1521	769.844	0.765
298.15	0.2022	771.744	0.764
298.15	0.252	773.657	0.763
298.15	0.2996	775.544	0.763
298.15	0.3515	777.661	0.762
298.15	0.3997	779.682	0.762
298.15	0.4497	781.857	0.761
298.15	0.4986	784.078	0.761
298.15	0.4987	788.132	0.752
298.15	0.5487	786.388	0.76
298.15	0.5982	788.753	0.76
298.15	0.6496	791.307	0.76
298.15	0.6966	793.726	0.76
298.15	0.7484	796.453	0.759
298.15	0.799	799.243	0.759
298.15	0.8506	802.115	0.759
298.15	0.9002	805.013	0.759
298.15	0.949	807.933	0.759
298.15	0.9491	811.645	0.752
303.15	0.0495	761.694	0.777
303.15	0.1034	763.696	0.776
303.15	0.1526	765.548	0.775
303.15	0.2049	767.554	0.774
303.15	0.2523	769.408	0.773
303.15	0.2985	771.264	0.772
303.15	0.3486	773.336	0.772
303.15	0.399	775.471	0.771
303.15	0.4497	777.705	0.77
303.15	0.4978	779.891	0.77
303.15	0.5493	782.353	0.769
303.15	0.6003	784.842	0.769
303.15	0.6499	787.293	0.768
303.15	0.6988	789.821	0.768
303.15	0.7492	792.539	0.768
303.15	0.8001	795.362	0.768
303.15	0.851	798.284	0.767
303.15	0.8974	801.027	0.767
303.15	0.9493	804.201	0.767

System: hexan-1-ol + dibutyl ether; phases: Liquid
Fixed: Pressure, kPa = 101
Property: Speed of sound, m/s (Liquid); method: Sing-around technique in a fixed-path interferometer
Temperature, K	Mole fraction of hexan-1-ol	Speed of sound, m/s	uncertainty
293.15	0.1135	-3.3	0.608
293.15	0.1548	-5.036	0.627
293.15	0.1968	-6.684	0.646
293.15	0.2469	-8.435	0.669
293.15	0.2969	-9.909	0.693
293.15	0.347	-11.04	0.716
293.15	0.4017	-11.949	0.742
293.15	0.4491	-12.491	0.764
293.15	0.4976	-12.842	0.787
293.15	0.5487	-12.851	0.811
293.15	0.6	-12.499	0.836
293.15	0.6466	-11.767	0.858
293.15	0.6987	-10.914	0.884
293.15	0.7487	-9.718	0.908
293.15	0.8001	-8.21	0.932
293.15	0.8478	-6.605	0.956
293.15	0.8994	-4.588	0.981
293.15	0.95	-2.327	1.005
298.15	0.0541	-1.002	0.581
298.15	0.0997	-2.74	0.602
298.15	0.15	-4.847	0.625
298.15	0.1969	-6.651	0.646
298.15	0.2918	-9.814	0.69
298.15	0.3499	-11.26	0.717
298.15	0.3992	-12.115	0.74
298.15	0.4465	-12.622	0.763
298.15	0.4986	-13.01	0.788
298.15	0.5482	-13.019	0.811
298.15	0.5981	-12.771	0.835
298.15	0.6444	-12.097	0.857
298.15	0.6961	-11.237	0.882
298.15	0.7483	-9.996	0.907
298.15	0.799	-8.438	0.932
298.15	0.8524	-6.578	0.958
298.15	0.9	-4.697	0.981
298.15	0.9492	-2.466	1.005
303.15	0.0543	-1.009	0.581
303.15	0.099	-2.656	0.601
303.15	0.2007	-6.763	0.648
303.15	0.251	-8.525	0.671
303.15	0.3035	-10.119	0.696
303.15	0.3511	-11.294	0.718
303.15	0.3985	-12.113	0.74
303.15	0.4482	-12.711	0.764
303.15	0.4989	-13.161	0.788
303.15	0.5501	-13.167	0.812
303.15	0.5984	-12.842	0.835
303.15	0.6564	-12.122	0.863
303.15	0.6982	-11.348	0.883
303.15	0.7491	-10.111	0.908
303.15	0.7991	-8.611	0.932
303.15	0.849	-6.846	0.956
303.15	0.8961	-4.913	0.979
303.15	0.9505	-2.488	1.005

System: hexan-1-ol + dibutyl ether; phases: Liquid
Fixed: Pressure, kPa = 101
Property: Mass density, kg/m3 (Liquid); method: VIBTUB:UFactor:6
Temperature, K	Mole fraction of hexan-1-ol	Mass density, kg/m3	uncertainty
293.15	0.1135	773.646	0.754
293.15	0.1548	775.499	0.752
293.15	0.1968	777.383	0.751
293.15	0.2469	779.653	0.75
293.15	0.2969	781.94	0.748
293.15	0.347	784.277	0.747
293.15	0.4017	786.883	0.746
293.15	0.4491	789.183	0.745
293.15	0.4976	791.595	0.744
293.15	0.5487	794.145	0.744
293.15	0.6	796.77	0.743
293.15	0.6466	799.236	0.743
293.15	0.6987	802	0.742
293.15	0.7487	804.703	0.742
293.15	0.8001	807.53	0.742
293.15	0.8478	810.199	0.742
293.15	0.8994	813.126	0.742
293.15	0.95	816.052	0.743
298.15	0.0541	766.673	0.766
298.15	0.0997	768.754	0.764
298.15	0.15	771.046	0.762
298.15	0.1969	773.192	0.76
298.15	0.2918	777.553	0.758
298.15	0.3499	780.298	0.756
298.15	0.3992	782.683	0.755
298.15	0.4465	785.027	0.754
298.15	0.4986	787.645	0.753
298.15	0.5482	790.177	0.752
298.15	0.5981	792.753	0.752
298.15	0.6444	795.225	0.751
298.15	0.6961	798.006	0.75
298.15	0.7483	800.877	0.75
298.15	0.799	803.718	0.75
298.15	0.8524	806.753	0.75
298.15	0.9	809.499	0.75
298.15	0.9492	812.385	0.75
303.15	0.0543	762.348	0.776
303.15	0.099	764.409	0.774
303.15	0.2007	769.103	0.77
303.15	0.251	771.443	0.768
303.15	0.3035	773.93	0.767
303.15	0.3511	776.214	0.765
303.15	0.3985	778.537	0.764
303.15	0.4482	781.018	0.763
303.15	0.4989	783.601	0.762
303.15	0.5501	786.255	0.761
303.15	0.5984	788.815	0.76
303.15	0.6564	791.951	0.759
303.15	0.6982	794.233	0.759
303.15	0.7491	797.128	0.758
303.15	0.7991	799.914	0.758
303.15	0.849	802.8	0.758
303.15	0.8961	805.567	0.758
303.15	0.9505	808.803	0.758
