Measured thermophysical data. Solubility of 4-Nitrotoluene, 2,6-Dinitrotoluene, 2,3-Dinitrotoluene, and 1,3,5-Trinitrobenzene in Pure Water and Seawater
Source: J. Chem. Eng. Data, 2007, 10.1021/je700374j
Compound 1: 2,6-dinitrotoluene, C7H6N2O4, InChI=1S/C7H6N2O4/c1-5-6(8(10)11)3-2-4-7(5)9(12)13/h2-4H,1H3
Compound 2: 2,3-dinitrotoluene, C7H6N2O4, InChI=1S/C7H6N2O4/c1-5-3-2-4-6(8(10)11)7(5)9(12)13/h2-4H,1H3
Compound 3: 1,3,5-trinitrobenzene, C6H3N3O6, InChI=1S/C6H3N3O6/c10-7(11)4-1-5(8(12)13)3-6(2-4)9(14)15/h1-3H
Compound 4: 1-methyl-4-nitrobenzene, C7H7NO2, InChI=1S/C7H7NO2/c1-6-2-4-7(5-3-6)8(9)10/h2-5H,1H3
Compound 5: water, H2O, InChI=1S/H2O/h1H2

System: 1-methyl-4-nitrobenzene + water; phases: Liquid, Crystal
Fixed: Pressure, kPa = 101
Property: Mass concentration, kg/m3 (Liquid); method: Chromatography
Temperature, K	Mass concentration, kg/m3	uncertainty
278.5	0.19	0.011
281	0.219	0.013
292	0.295	0.018
297.6	0.361	0.022
303.4	0.422	0.025
308.9	0.495	0.03
313.6	0.578	0.035

System: 2,6-dinitrotoluene + water; phases: Liquid, Crystal
Fixed: Pressure, kPa = 101
Property: Mass concentration, kg/m3 (Liquid); method: Chromatography
Temperature, K	Mass concentration, kg/m3	uncertainty
278	0.074	0.004
280.7	0.09	0.005
292.1	0.147	0.009
297.5	0.204	0.012
303.4	0.266	0.016
308.7	0.338	0.02
314	0.423	0.025

System: 2,3-dinitrotoluene + water; phases: Liquid, Crystal
Fixed: Pressure, kPa = 101
Property: Mass concentration, kg/m3 (Liquid); method: Chromatography
Temperature, K	Mass concentration, kg/m3	uncertainty
278.1	0.067	0.004
280.6	0.08	0.005
292.1	0.122	0.007
297.5	0.161	0.01
303.4	0.202	0.012
308.7	0.249	0.015
313.6	0.313	0.019

System: 1,3,5-trinitrobenzene + water; phases: Liquid, Crystal
Fixed: Pressure, kPa = 101
Property: Mass concentration, kg/m3 (Liquid); method: Chromatography
Temperature, K	Mass concentration, kg/m3	uncertainty
277.5	0.27	0.016
290.1	0.39	0.023
297.7	0.492	0.03
304	0.565	0.034
308.5	0.667	0.04
313.6	0.749	0.045
