Measured thermophysical data. Activity Coefficients at Infinite Dilution of Polar Solutes in 1-Butyl-3-methylimidazolium Trifluoromethanesulfonate Using Gas Liquid Chromatography
Source: J. Chem. Eng. Data, 2008, 10.1021/je700560s
Compound 1: methanol, CH4O, InChI=1S/CH4O/c1-2/h2H,1H3, purity 99%
Compound 2: ethanol, C2H6O, InChI=1S/C2H6O/c1-2-3/h3H,2H2,1H3, purity 99%
Compound 3: propan-1-ol, C3H8O, InChI=1S/C3H8O/c1-2-3-4/h4H,2-3H2,1H3, purity 99%
Compound 4: butan-1-ol, C4H10O, InChI=1S/C4H10O/c1-2-3-4-5/h5H,2-4H2,1H3, purity 99%
Compound 5: pentan-1-ol, C5H12O, InChI=1S/C5H12O/c1-2-3-4-5-6/h6H,2-5H2,1H3, purity 99%
Compound 6: propan-2-ol, C3H8O, InChI=1S/C3H8O/c1-3(2)4/h3-4H,1-2H3, purity 99%
Compound 7: 2-methyl-1-propanol, C4H10O, InChI=1S/C4H10O/c1-4(2)3-5/h4-5H,3H2,1-2H3, purity 99%
Compound 8: butan-2-ol, C4H10O, InChI=1S/C4H10O/c1-3-4(2)5/h4-5H,3H2,1-2H3, purity 99%
Compound 9: 3-methylbutan-1-ol, C5H12O, InChI=1S/C5H12O/c1-5(2)3-4-6/h5-6H,3-4H2,1-2H3, purity 99%
Compound 10: acetonitrile, C2H3N, InChI=1S/C2H3N/c1-2-3/h1H3, purity 99%
Compound 11: acetone, C3H6O, InChI=1S/C3H6O/c1-3(2)4/h1-2H3, purity 99%
Compound 12: 1,4-dioxane, C4H8O2, InChI=1S/C4H8O2/c1-2-6-4-3-5-1/h1-4H2, purity 99%
Compound 13: tetrahydrofuran, C4H8O, InChI=1S/C4H8O/c1-2-4-5-3-1/h1-4H2, purity 99%
Compound 14: ethyl acetate, C4H8O2, InChI=1S/C4H8O2/c1-3-6-4(2)5/h3H2,1-2H3, purity 99%
Compound 15: dichloromethane, CH2Cl2, InChI=1S/CH2Cl2/c2-1-3/h1H2, purity 99%
Compound 16: trichloromethane, CHCl3, InChI=1S/CHCl3/c2-1(3)4/h1H, purity 99%
Compound 17: tetrachloromethane, CCl4, InChI=1S/CCl4/c2-1(3,4)5, purity 99%
Compound 18: 1-butyl-3-methylimidazolium trifluoromethanesulfonate, C9H15F3N2O3S, InChI=1S/C8H15N2.CHF3O3S/c1-3-4-5-10-7-6-9(2)8-10;2-1(3,4)8(5,6)7/h6-8H,3-5H2,1-2H3;(H,5,6,7)/q+1;/p-1, purity 99%

System: 2-methyl-1-propanol + 1-butyl-3-methylimidazolium trifluoromethanesulfonate; phases: Liquid, Gas
Fixed: Mole fraction of 2-methyl-1-propanol = 0
Property: Activity coefficient of 2-methyl-1-propanol (Liquid); method: Chromatography
Temperature, K	Activity coefficient of 2-methyl-1-propanol	uncertainty
303.15	1.843	0.158
313.15	1.743	0.149
323.15	1.636	0.139
333.15	1.507	0.127
343.15	1.383	0.116
353.15	1.292	0.108
363.15	1.199	0.1

System: butan-2-ol + 1-butyl-3-methylimidazolium trifluoromethanesulfonate; phases: Liquid, Gas
Fixed: Mole fraction of butan-2-ol = 0
Property: Activity coefficient of butan-2-ol (Liquid); method: Chromatography
Temperature, K	Activity coefficient of butan-2-ol	uncertainty
303.15	1.967	0.169
313.15	1.815	0.155
323.15	1.69	0.144
333.15	1.603	0.136
343.15	1.554	0.132
353.15	1.488	0.126
363.15	1.425	0.12

System: 3-methylbutan-1-ol + 1-butyl-3-methylimidazolium trifluoromethanesulfonate; phases: Liquid, Gas
Fixed: Mole fraction of 3-methylbutan-1-ol = 0
Property: Activity coefficient of 3-methylbutan-1-ol (Liquid); method: Chromatography
Temperature, K	Activity coefficient of 3-methylbutan-1-ol	uncertainty
323.15	2.005	0.173
333.15	1.897	0.163
343.15	1.806	0.154
353.15	1.754	0.15
363.15	1.635	0.139

System: acetonitrile + 1-butyl-3-methylimidazolium trifluoromethanesulfonate; phases: Liquid, Gas
Fixed: Mole fraction of acetonitrile = 0
Property: Activity coefficient of acetonitrile (Liquid); method: Chromatography
Temperature, K	Activity coefficient of acetonitrile	uncertainty
303.15	0.784	0.066
313.15	0.771	0.065
323.15	0.755	0.064
333.15	0.741	0.063
343.15	0.73	0.062
353.15	0.717	0.061
363.15	0.701	0.06

System: acetone + 1-butyl-3-methylimidazolium trifluoromethanesulfonate; phases: Liquid, Gas
Fixed: Mole fraction of acetone = 0
Property: Activity coefficient of acetone (Liquid); method: Chromatography
Temperature, K	Activity coefficient of acetone	uncertainty
303.15	0.864	0.072
313.15	0.887	0.073
323.15	0.902	0.075
333.15	0.919	0.076
343.15	0.946	0.078
353.15	0.971	0.08
363.15	1.01	0.083

System: 1,4-dioxane + 1-butyl-3-methylimidazolium trifluoromethanesulfonate; phases: Liquid, Gas
Fixed: Mole fraction of 1,4-dioxane = 0
Property: Activity coefficient of 1,4-dioxane (Liquid); method: Chromatography
Temperature, K	Activity coefficient of 1,4-dioxane	uncertainty
303.15	1.103	0.091
313.15	1.132	0.094
323.15	1.176	0.098
333.15	1.201	0.1
343.15	1.237	0.103
353.15	1.269	0.106
363.15	1.293	0.108

System: tetrahydrofuran + 1-butyl-3-methylimidazolium trifluoromethanesulfonate; phases: Liquid, Gas
Fixed: Mole fraction of tetrahydrofuran = 0
Property: Activity coefficient of tetrahydrofuran (Liquid); method: Chromatography
Temperature, K	Activity coefficient of tetrahydrofuran	uncertainty
303.15	1.238	0.103
313.15	1.319	0.11
323.15	1.383	0.116
333.15	1.45	0.122
343.15	1.494	0.126
353.15	1.549	0.131
363.15	1.604	0.136

System: ethyl acetate + 1-butyl-3-methylimidazolium trifluoromethanesulfonate; phases: Liquid, Gas
Fixed: Mole fraction of ethyl acetate = 0
Property: Activity coefficient of ethyl acetate (Liquid); method: Chromatography
Temperature, K	Activity coefficient of ethyl acetate	uncertainty
303.15	1.889	0.162
313.15	1.938	0.167
323.15	1.962	0.169
333.15	2.015	0.174
343.15	2.068	0.178
353.15	2.106	0.181
363.15	2.143	0.185

System: dichloromethane + 1-butyl-3-methylimidazolium trifluoromethanesulfonate; phases: Liquid, Gas
Fixed: Mole fraction of dichloromethane = 0
Property: Activity coefficient of dichloromethane (Liquid); method: Chromatography
Temperature, K	Activity coefficient of dichloromethane	uncertainty
303.15	0.932	0.077
313.15	1.023	0.084
323.15	1.077	0.089
333.15	1.103	0.091
343.15	1.132	0.094
353.15	1.174	0.097
363.15	1.2	0.1

System: trichloromethane + 1-butyl-3-methylimidazolium trifluoromethanesulfonate; phases: Liquid, Gas
Fixed: Mole fraction of trichloromethane = 0
Property: Activity coefficient of trichloromethane (Liquid); method: Chromatography
Temperature, K	Activity coefficient of trichloromethane	uncertainty
303.15	0.827	0.069
313.15	0.865	0.072
323.15	0.924	0.076
333.15	0.98	0.08
343.15	1.042	0.086
353.15	1.101	0.091
363.15	1.162	0.096

System: tetrachloromethane + 1-butyl-3-methylimidazolium trifluoromethanesulfonate; phases: Liquid, Gas
Fixed: Mole fraction of tetrachloromethane = 0
Property: Activity coefficient of tetrachloromethane (Liquid); method: Chromatography
Temperature, K	Activity coefficient of tetrachloromethane	uncertainty
303.15	3.653	0.315
313.15	3.772	0.325
323.15	3.906	0.337
333.15	3.987	0.344
343.15	4.085	0.352
353.15	4.172	0.36
363.15	4.266	0.368

System: methanol + 1-butyl-3-methylimidazolium trifluoromethanesulfonate; phases: Liquid, Gas
Fixed: Mole fraction of methanol = 0
Property: Activity coefficient of methanol (Liquid); method: Chromatography
Temperature, K	Activity coefficient of methanol	uncertainty
313.15	0.675	0.058
323.15	0.665	0.057
333.15	0.654	0.057
343.15	0.645	0.056
353.15	0.63	0.055
363.15	0.615	0.054

System: ethanol + 1-butyl-3-methylimidazolium trifluoromethanesulfonate; phases: Liquid, Gas
Fixed: Mole fraction of ethanol = 0
Property: Activity coefficient of ethanol (Liquid); method: Chromatography
Temperature, K	Activity coefficient of ethanol	uncertainty
303.15	1.142	0.095
313.15	1.085	0.089
323.15	1.027	0.084
333.15	0.972	0.08
343.15	0.954	0.078
353.15	0.926	0.076
363.15	0.892	0.074

System: propan-1-ol + 1-butyl-3-methylimidazolium trifluoromethanesulfonate; phases: Liquid, Gas
Fixed: Mole fraction of propan-1-ol = 0
Property: Activity coefficient of propan-1-ol (Liquid); method: Chromatography
Temperature, K	Activity coefficient of propan-1-ol	uncertainty
303.15	1.475	0.124
313.15	1.401	0.118
323.15	1.349	0.113
333.15	1.289	0.108
343.15	1.234	0.103
353.15	1.181	0.098
363.15	1.125	0.093

System: butan-1-ol + 1-butyl-3-methylimidazolium trifluoromethanesulfonate; phases: Liquid, Gas
Fixed: Mole fraction of butan-1-ol = 0
Property: Activity coefficient of butan-1-ol (Liquid); method: Chromatography
Temperature, K	Activity coefficient of butan-1-ol	uncertainty
313.15	1.854	0.159
323.15	1.776	0.152
333.15	1.709	0.146
343.15	1.57	0.133
353.15	1.51	0.128
363.15	1.453	0.122

System: pentan-1-ol + 1-butyl-3-methylimidazolium trifluoromethanesulfonate; phases: Liquid, Gas
Fixed: Mole fraction of pentan-1-ol = 0
Property: Activity coefficient of pentan-1-ol (Liquid); method: Chromatography
Temperature, K	Activity coefficient of pentan-1-ol	uncertainty
323.15	2.341	0.202
333.15	2.157	0.186
343.15	2.065	0.178
353.15	1.965	0.169
363.15	1.887	0.162

System: propan-2-ol + 1-butyl-3-methylimidazolium trifluoromethanesulfonate; phases: Liquid, Gas
Fixed: Mole fraction of propan-2-ol = 0
Property: Activity coefficient of propan-2-ol (Liquid); method: Chromatography
Temperature, K	Activity coefficient of propan-2-ol	uncertainty
303.15	1.445	0.122
313.15	1.371	0.115
323.15	1.308	0.109
333.15	1.26	0.105
343.15	1.212	0.101
353.15	1.162	0.096
363.15	1.123	0.093
