Measured thermophysical data. Solubility of 2,6-Diaminopyridine in Toluene, o-Xylene, Ethylbenzene, Methanol, Ethanol, 2-Propanol, and Sodium Hydroxide Solutions
Source: J. Chem. Eng. Data, 2007, 10.1021/je700221w
Compound 1: pyridine-2,6-diamine, C5H7N3, InChI=1S/C5H7N3/c6-4-2-1-3-5(7)8-4/h1-3H,(H4,6,7,8)
Compound 2: toluene, C7H8, InChI=1S/C7H8/c1-7-5-3-2-4-6-7/h2-6H,1H3
Compound 3: 1,2-dimethylbenzene, C8H10, InChI=1S/C8H10/c1-7-5-3-4-6-8(7)2/h3-6H,1-2H3
Compound 4: ethylbenzene, C8H10, InChI=1S/C8H10/c1-2-8-6-4-3-5-7-8/h3-7H,2H2,1H3
Compound 5: methanol, CH4O, InChI=1S/CH4O/c1-2/h2H,1H3
Compound 6: ethanol, C2H6O, InChI=1S/C2H6O/c1-2-3/h3H,2H2,1H3
Compound 7: propan-2-ol, C3H8O, InChI=1S/C3H8O/c1-3(2)4/h3-4H,1-2H3
Compound 8: sodium hydroxide, HNaO, InChI=1S/Na.H2O/h;1H2/q+1;/p-1
Compound 9: water, H2O, InChI=1S/H2O/h1H2

System: toluene + pyridine-2,6-diamine; phases: Liquid, Crystal
Fixed: Pressure, kPa = 101
Property: Mole fraction of pyridine-2,6-diamine (Liquid); method: Chromatography
Temperature, K	Mole fraction of pyridine-2,6-diamine	uncertainty
273.25	0.00149	9e-05
277.15	0.00191	0.00012
281.25	0.00214	0.00013
285.55	0.0027	0.00016
289.45	0.00304	0.00018
293.65	0.00375	0.00023
297.55	0.00417	0.00025
301.45	0.0051	0.00031
305.35	0.00558	0.00034
309.55	0.00704	0.00042
313.45	0.00733	0.00044
317.35	0.00919	0.00055
321.25	0.00942	0.00057
325.55	0.01242	0.00075
329.45	0.0127	0.00076
333.35	0.01619	0.00097
337.25	0.01645	0.00099
341.15	0.02072	0.00125
345.65	0.02204	0.00133
349.55	0.02768	0.00166
353.45	0.02825	0.0017
357.35	0.0355	0.00213
361.25	0.03671	0.0022

System: 1,2-dimethylbenzene + pyridine-2,6-diamine; phases: Liquid, Crystal
Fixed: Pressure, kPa = 101
Property: Mole fraction of pyridine-2,6-diamine (Liquid); method: Chromatography
Temperature, K	Mole fraction of pyridine-2,6-diamine	uncertainty
273.35	0.00128	8e-05
277.15	0.0014	8e-05
282.25	0.00185	0.00011
285.55	0.00201	0.00012
289.45	0.00252	0.00015
293.65	0.00283	0.00017
297.55	0.00351	0.00021
302.25	0.00395	0.00024
305.35	0.00469	0.00028
309.55	0.00517	0.00031
314.15	0.0064	0.00038
317.35	0.00695	0.00042
321.25	0.00838	0.0005
325.95	0.00937	0.00056
329.45	0.01104	0.00066
333.35	0.01208	0.00073
336.95	0.01439	0.00086
341.15	0.01534	0.00092
346.25	0.01942	0.00117
349.55	0.02264	0.00136
353.45	0.02401	0.00144
357.05	0.02922	0.00176
361.05	0.03403	0.00205

System: ethylbenzene + pyridine-2,6-diamine; phases: Liquid, Crystal
Fixed: Pressure, kPa = 101
Property: Mole fraction of pyridine-2,6-diamine (Liquid); method: Chromatography
Temperature, K	Mole fraction of pyridine-2,6-diamine	uncertainty
273.25	0.00022	2e-05
277.15	0.00026	2e-05
282.25	0.00033	2e-05
285.55	0.00035	2e-05
289.45	0.00046	3e-05
293.05	0.00049	3e-05
298.65	0.00066	4e-05
302.25	0.00069	4e-05
305.35	0.00086	5e-05
309.55	0.0009	5e-05
313.15	0.00113	7e-05
317.35	0.0012	0.0001
321.25	0.0015	9e-05
326.15	0.00164	0.0001
329.45	0.00197	0.00012
333.35	0.00212	0.00013
336.95	0.00252	0.00015
341.05	0.00288	0.00017
346.25	0.0033	0.0002
349.55	0.00385	0.00023
353.05	0.0043	0.00026
357.05	0.00474	0.00029
361.15	0.00577	0.00035

System: methanol + pyridine-2,6-diamine; phases: Liquid, Crystal
Fixed: Pressure, kPa = 101
Property: Mole fraction of pyridine-2,6-diamine (Liquid); method: Chromatography
Temperature, K	Mole fraction of pyridine-2,6-diamine	uncertainty
266.15	0.05984	0.00362
269.95	0.066	0.004
274.15	0.07786	0.00472
278.05	0.08883	0.00538
281.15	0.09331	0.00566
285.95	0.11146	0.00676
290.15	0.12519	0.00759
293.35	0.13135	0.00796
297.15	0.14964	0.00908
301.15	0.16484	0.01
304.55	0.17823	0.01081
307.95	0.18758	0.01139
311.15	0.20739	0.01259
317.85	0.23324	0.01417

System: ethanol + pyridine-2,6-diamine; phases: Liquid, Crystal
Fixed: Pressure, kPa = 101
Property: Mole fraction of pyridine-2,6-diamine (Liquid); method: Chromatography
Temperature, K	Mole fraction of pyridine-2,6-diamine	uncertainty
266.95	0.07515	0.00454
266.95	0.07515	0.00454
270.35	0.08533	0.00515
270.35	0.08533	0.00515
274.15	0.09924	0.00599
274.15	0.09924	0.00599
277.45	0.10832	0.00654
277.45	0.10832	0.00654
281.15	0.12261	0.0074
281.15	0.12261	0.0074
286.35	0.14793	0.00893
286.35	0.14793	0.00893
290.15	0.16553	0.00999
290.15	0.16553	0.00999
293.55	0.18231	0.01101
293.55	0.18231	0.01101

System: propan-2-ol + pyridine-2,6-diamine; phases: Liquid, Crystal
Fixed: Pressure, kPa = 101
Property: Mole fraction of pyridine-2,6-diamine (Liquid); method: Chromatography
Temperature, K	Mole fraction of pyridine-2,6-diamine	uncertainty
266.25	0.02221	0.00134
269.95	0.02796	0.00168
274.15	0.03024	0.00182
277.55	0.03793	0.00229
281.15	0.04009	0.00242
285.65	0.05116	0.00308
290.15	0.05648	0.0034
293.65	0.06799	0.0041
297.25	0.07325	0.00441
301.15	0.08868	0.00534
305.15	0.0976	0.0059
308.25	0.11392	0.00686
311.15	0.12011	0.00724
315.85	0.14734	0.00888
319.25	0.15935	0.0096

System: pyridine-2,6-diamine + water; phases: Liquid, Crystal
Fixed: Pressure, kPa = 101
Property: Mole fraction of pyridine-2,6-diamine (Liquid); method: Chromatography
Temperature, K	Mole fraction of pyridine-2,6-diamine	uncertainty
273.65	0.0103	0.00062
277.15	0.01114	0.00067
280.55	0.01378	0.00083
283.95	0.01509	0.00091
287.15	0.01849	0.00111
290.55	0.02131	0.00128
294.15	0.02312	0.00139
297.55	0.02903	0.00175
300.95	0.03169	0.00191
304.35	0.0393	0.00237
307.75	0.0439	0.0026
311.15	0.05521	0.00333
314.55	0.06408	0.00387
317.95	0.08305	0.00503
321.35	0.10912	0.00666
324.75	0.16531	0.01007

System: pyridine-2,6-diamine + sodium hydroxide + water; phases: Liquid, Crystal
Fixed: Pressure, kPa = 101
Property: Mole fraction of pyridine-2,6-diamine (Liquid); method: Chromatography
Temperature, K	Mass fraction of sodium hydroxide	Mole fraction of pyridine-2,6-diamine	uncertainty
273.55	0.09217	0.00354	0.00021
273.55	0.12455	0.00176	0.00011
273.65	0	0.0103	0.00062
273.65	0.02814	0.00733	0.00044
273.65	0.05914	0.00542	0.00033
273.75	0.17308	0.00054	3e-05
277.15	0	0.01114	0.00067
277.15	0.02814	0.0083	0.0005
277.15	0.05914	0.00695	0.00042
277.15	0.09217	0.00412	0.00025
277.15	0.12455	0.002	0.00012
277.15	0.17308	0.00058	4e-05
279.85	0.17308	0.00069	4e-05
280.25	0.12455	0.00231	0.00014
280.35	0.05914	0.00795	0.00048
280.35	0.09217	0.00467	0.00028
280.45	0.02814	0.00962	0.00058
280.55	0	0.01378	0.00083
283.65	0.17308	0.00079	5e-05
283.95	0	0.01509	0.00091
283.95	0.02814	0.01146	0.00069
283.95	0.05914	0.00926	0.00056
283.95	0.09217	0.00525	0.00032
283.95	0.12455	0.00261	0.00016
287.15	0	0.01849	0.00111
287.15	0.02814	0.01316	0.00079
287.15	0.05914	0.0106	0.0006
287.15	0.09217	0.00621	0.00037
287.15	0.12455	0.00304	0.00018
287.15	0.17308	0.00086	5e-05
290.55	0	0.02131	0.00128
290.55	0.02814	0.01499	0.0009
290.55	0.05914	0.01223	0.00074
290.55	0.09217	0.00708	0.00043
290.55	0.12455	0.00337	0.0002
290.55	0.17308	0.00102	6e-05
294.15	0	0.02312	0.00139
294.15	0.02814	0.01743	0.00105
294.15	0.05914	0.01423	0.00086
294.15	0.09217	0.00832	0.0005
294.15	0.12455	0.00395	0.00024
294.15	0.17308	0.00112	7e-05
297.25	0.17308	0.00125	8e-05
297.35	0.05914	0.0163	0.001
297.35	0.09217	0.00917	0.00055
297.55	0	0.02903	0.00175
297.85	0.12455	0.00442	0.00027
298.15	0.02814	0.02131	0.00128
300.85	0.09217	0.01072	0.00065
300.85	0.12455	0.00506	0.0003
300.95	0	0.03169	0.00191
301.05	0.02814	0.02373	0.00143
301.05	0.05914	0.01909	0.00115
301.05	0.17308	0.00147	9e-05
304.35	0	0.0393	0.00237
304.35	0.02814	0.02809	0.00169
304.35	0.05914	0.02205	0.00133
304.35	0.09217	0.01221	0.00073
304.35	0.12455	0.00562	0.00034
304.35	0.17308	0.00166	0.0001
307.75	0	0.0439	0.0026
307.75	0.02814	0.03297	0.00199
307.75	0.05914	0.02568	0.00155
307.75	0.09217	0.01409	0.00085
307.75	0.12455	0.00648	0.00039
307.75	0.17308	0.00178	0.00011
310.65	0.02814	0.03735	0.00225
310.85	0.05914	0.02966	0.00179
311.15	0	0.05521	0.00333
311.15	0.09217	0.01609	0.00097
311.15	0.12455	0.00717	0.00043
311.45	0.17308	0.00209	0.00013
314.55	0	0.06408	0.00387
314.55	0.02814	0.04644	0.0028
314.55	0.05914	0.03558	0.00214
314.55	0.09217	0.01858	0.00112
314.55	0.12455	0.00826	0.0005
314.55	0.17308	0.00221	0.00013
317.85	0.05914	0.04295	0.00259
317.85	0.09217	0.02106	0.00127
317.85	0.12455	0.00911	0.00055
317.95	0	0.08305	0.00503
317.95	0.02814	0.05585	0.00337
318.05	0.17308	0.00259	0.00016
321.15	0.05914	0.05284	0.00322
321.35	0	0.10912	0.00666
321.55	0.02814	0.07205	0.00436
321.55	0.12455	0.01058	0.00064
321.65	0.17308	0.00278	0.00017
321.85	0.09217	0.02506	0.00151
324.75	0	0.16531	0.01007
324.75	0.02814	0.09553	0.00589
325.05	0.17308	0.00321	0.00019
326.15	0.05914	0.08494	0.00512
326.15	0.09217	0.03103	0.00191
326.35	0.12455	0.01235	0.00075
