Measured thermophysical data. Solubility of Fluorene in Different Solvents from 278.98 K to 338.35 K
Source: J. Chem. Eng. Data, 2007, 10.1021/je700179q
Compound 1: fluorene, C13H10, InChI=1S/C13H10/c1-3-7-12-10(5-1)9-11-6-2-4-8-13(11)12/h1-8H,9H2, purity 99.5%
Compound 2: toluene, C7H8, InChI=1S/C7H8/c1-7-5-3-2-4-6-7/h2-6H,1H3, purity 99.8%
Compound 3: ethanol, C2H6O, InChI=1S/C2H6O/c1-2-3/h3H,2H2,1H3, purity 99.8%
Compound 4: propan-2-ol, C3H8O, InChI=1S/C3H8O/c1-3(2)4/h3-4H,1-2H3, purity 99.8%
Compound 5: butan-1-ol, C4H10O, InChI=1S/C4H10O/c1-2-3-4-5/h5H,2-4H2,1H3, purity 99.8%

System: fluorene; phases: Crystal, Liquid, Air at 1 atmosphere
Property: Normal melting temperature, K (Crystal); method: VISOBS
Normal melting temperature, K	uncertainty
389.15	1

System: fluorene + toluene; phases: Liquid, Crystal
Fixed: Pressure, kPa = 101
Property: Mole fraction of fluorene (Liquid); method: calculated from known mass of components added
Temperature, K	Mole fraction of fluorene	uncertainty
283.27	0.06341	0.00129
288.77	0.08185	0.00167
293.72	0.1019	0.0021
298.89	0.1295	0.0027
303.17	0.1545	0.0032
308.81	0.2005	0.0041
314.04	0.2521	0.0052
319.01	0.3077	0.0064
323.28	0.3671	0.0077

System: ethanol + fluorene; phases: Liquid, Crystal
Fixed: Pressure, kPa = 101
Property: Mole fraction of fluorene (Liquid); method: calculated from known mass of components added
Temperature, K	Mole fraction of fluorene	uncertainty
278.98	0.00372	0.0004
283.99	0.00455	0.0004
289.01	0.00554	0.0004
294.08	0.00668	0.0004
298.35	0.00802	0.0004
303.36	0.00973	0.00041
308.77	0.01185	0.00041
313.17	0.01387	0.00041
319.27	0.01766	0.00042
324.95	0.02161	0.00046

System: propan-2-ol + fluorene; phases: Liquid, Crystal
Fixed: Pressure, kPa = 101
Property: Mole fraction of fluorene (Liquid); method: calculated from known mass of components added
Temperature, K	Mole fraction of fluorene	uncertainty
288.28	0.00221	0.0004
293.69	0.00313	0.0004
299.5	0.00453	0.0004
303.17	0.00565	0.0004
309.06	0.00802	0.0004
313.78	0.01047	0.0004
318.24	0.01355	0.00041
323.17	0.01787	0.00041
328.25	0.02368	0.00049
333.45	0.03136	0.00066

System: butan-1-ol + fluorene; phases: Liquid, Crystal
Fixed: Pressure, kPa = 101
Property: Mole fraction of fluorene (Liquid); method: calculated from known mass of components added
Temperature, K	Mole fraction of fluorene	uncertainty
284.27	0.0059	0.0004
288.82	0.00724	0.0004
293.76	0.00906	0.0004
298.88	0.0113	0.0004
304.06	0.0139	0.00041
308.28	0.01679	0.00041
313.93	0.02122	0.00044
318.16	0.0251	0.00052
323.16	0.03038	0.00063
328.25	0.03703	0.00076
333.35	0.04578	0.00094
338.35	0.05584	0.00115
