Measured thermophysical data. Solubility of p-Methylbenzene Sulfonic Acid in Pure and Modified Supercritical Carbon Dioxide
Source: J. Chem. Eng. Data, 2008, 10.1021/je700639s
Compound 1: carbon dioxide, CO2, InChI=1S/CO2/c2-1-3
Compound 2: 4-methylbenzenesulfonic acid, C7H8O3S, InChI=1S/C7H8O3S/c1-6-2-4-7(5-3-6)11(8,9)10/h2-5H,1H3,(H,8,9,10)
Compound 3: ethanol, C2H6O, InChI=1S/C2H6O/c1-2-3/h3H,2H2,1H3
Compound 4: acetone, C3H6O, InChI=1S/C3H6O/c1-3(2)4/h1-2H3
Compound 5: ethyl acetate, C4H8O2, InChI=1S/C4H8O2/c1-3-6-4(2)5/h3H2,1-2H3

System: 4-methylbenzenesulfonic acid + carbon dioxide; phases: Fluid (supercritical or subcritical phases), Crystal
Property: Mole fraction of 4-methylbenzenesulfonic acid (Fluid (supercritical or subcritical phases)); method: Phase equilibration
Temperature, K	Pressure, kPa	Mole fraction of 4-methylbenzenesulfonic acid	uncertainty
308	8000	2.57e-05	2.6e-06
308	11000	4.12e-05	4.2e-06
308	13000	4.28e-05	4.3e-06
308	17000	4.81e-05	4.8e-06
308	21000	5.06e-05	5.1e-06
318	8000	2.09e-05	2.2e-06
318	11000	3.99e-05	4.1e-06
318	13000	5.18e-05	5.2e-06
318	17000	5.88e-05	5.9e-06
318	21000	6.21e-05	6.2e-06
328	8000	2e-05	2.1e-06
328	11000	3.72e-05	3.8e-06
328	13000	5.79e-05	5.8e-06
328	17000	6.6e-05	6.6e-06
328	21000	7.38e-05	7.4e-06

System: ethanol + 4-methylbenzenesulfonic acid + carbon dioxide; phases: Fluid (supercritical or subcritical phases), Crystal
Fixed: Solvent: Mole fraction of ethanol = 0.015
Fixed: Temperature, K = 308
Property: Mole fraction of 4-methylbenzenesulfonic acid (Fluid (supercritical or subcritical phases)); method: Phase equilibration
Pressure, kPa	Mole fraction of 4-methylbenzenesulfonic acid	uncertainty
8000	3.27e-05	3.3e-06
11000	4.46e-05	4.5e-06
13000	4.64e-05	4.7e-06
17000	5.01e-05	5e-06
21000	5.25e-05	5.3e-06

System: 4-methylbenzenesulfonic acid + carbon dioxide + ethyl acetate; phases: Fluid (supercritical or subcritical phases), Crystal
Fixed: Solvent: Mole fraction of ethyl acetate = 0.015
Fixed: Temperature, K = 308
Property: Mole fraction of 4-methylbenzenesulfonic acid (Fluid (supercritical or subcritical phases)); method: Phase equilibration
Pressure, kPa	Mole fraction of 4-methylbenzenesulfonic acid	uncertainty
8000	4.28e-05	4.3e-06
11000	5.7e-05	5.7e-06
13000	5.93e-05	6e-06
17000	6.29e-05	6.3e-06
21000	6.66e-05	6.7e-06

System: acetone + 4-methylbenzenesulfonic acid + carbon dioxide; phases: Fluid (supercritical or subcritical phases), Crystal
Fixed: Solvent: Mole fraction of acetone = 0.015
Fixed: Temperature, K = 308
Property: Mole fraction of 4-methylbenzenesulfonic acid (Fluid (supercritical or subcritical phases)); method: Phase equilibration
Pressure, kPa	Mole fraction of 4-methylbenzenesulfonic acid	uncertainty
8000	3.17e-05	3.2e-06
11000	4.37e-05	4.4e-06
13000	4.48e-05	4.5e-06
17000	4.9e-05	4.9e-06
21000	5.11e-05	5.1e-06
