Measured thermophysical data. Solid-Liquid Equilibria of Dibenzothiophene and Dibenzothiophene Sulfone in Organic Solvents
Source: J. Chem. Eng. Data, 2007, 10.1021/je700234e
Compound 1: cyclohexane, C6H12, InChI=1S/C6H12/c1-2-4-6-5-3-1/h1-6H2
Compound 2: tetradecane, C14H30, InChI=1S/C14H30/c1-3-5-7-9-11-13-14-12-10-8-6-4-2/h3-14H2,1-2H3
Compound 3: hexadecane, C16H34, InChI=1S/C16H34/c1-3-5-7-9-11-13-15-16-14-12-10-8-6-4-2/h3-16H2,1-2H3
Compound 4: .gamma.-butyrolactone, C4H6O2, InChI=1S/C4H6O2/c5-4-2-1-3-6-4/h1-3H2
Compound 5: dibenzothiophene, C12H8S, InChI=1S/C12H8S/c1-3-7-11-9(5-1)10-6-2-4-8-12(10)13-11/h1-8H
Compound 6: propan-1-ol, C3H8O, InChI=1S/C3H8O/c1-2-3-4/h4H,2-3H2,1H3
Compound 7: 2-ethoxyethan-1-ol, C4H10O2, InChI=1S/C4H10O2/c1-2-6-4-3-5/h5H,2-4H2,1H3
Compound 8: dimethylformamide, C3H7NO, InChI=1S/C3H7NO/c1-4(2)3-5/h3H,1-2H3
Compound 9: acetonitrile, C2H3N, InChI=1S/C2H3N/c1-2-3/h1H3
Compound 10: dibenzothiophene sulfone, C12H8O2S, InChI=1S/C12H8O2S/c13-15(14)11-7-3-1-5-9(11)10-6-2-4-8-12(10)15/h1-8H, purity 99.43%

System: dibenzothiophene sulfone; phases: Crystal, Liquid, Air at 1 atmosphere
Property: Molar enthalpy of transition or fusion, kJ/mol (Crystal); method: DSC
Molar enthalpy of transition or fusion, kJ/mol	uncertainty
27.17	0.82

System: dibenzothiophene sulfone; phases: Crystal, Liquid, Air at 1 atmosphere
Property: Normal melting temperature, K (Crystal); method: DTA
Normal melting temperature, K	uncertainty
509.2	0.5

System: cyclohexane + dibenzothiophene; phases: Liquid, Crystal
Fixed: Pressure, kPa = 101
Property: Solid-liquid equilibrium temperature, K (Liquid); method: VISOBS
Mole fraction of dibenzothiophene	Solid-liquid equilibrium temperature, K	uncertainty
0.0496	309.3	0.2
0.0871	321.1	0.2
0.1291	328.8	0.2
0.1989	335.6	0.2
0.4924	349.6	0.2
0.593	353.5	0.2

System: dibenzothiophene + tetradecane; phases: Liquid, Crystal
Fixed: Pressure, kPa = 101
Property: Solid-liquid equilibrium temperature, K (Liquid); method: VISOBS
Mole fraction of dibenzothiophene	Solid-liquid equilibrium temperature, K	uncertainty
0.023	278.2	0.2
0.03	283.9	0.2
0.04	291	0.2
0.0525	298.3	0.2
0.0959	316.1	0.2
0.2035	337.2	0.2
0.2982	346.7	0.2
0.4007	352.6	0.2
0.4965	356.2	0.2

System: dibenzothiophene + hexadecane; phases: Liquid, Crystal
Fixed: Pressure, kPa = 101
Property: Solid-liquid equilibrium temperature, K (Liquid); method: VISOBS
Mole fraction of dibenzothiophene	Solid-liquid equilibrium temperature, K	uncertainty
0.0463	291	0.2
0.0475	292.2	0.2
0.0487	293	0.2
0.0504	293.7	0.2
0.0726	304.4	0.2
0.1008	315	0.2
0.1201	319.9	0.2
0.1783	331.5	0.2
0.2	334.7	0.2
0.2565	341.5	0.2
0.3737	350.9	0.2
0.5021	356.9	0.2
0.5094	357	0.2
0.6047	360.1	0.2
0.6954	362.7	0.2

System: dibenzothiophene + hexadecane; phases: Liquid, Crystal
Fixed: Pressure, kPa = 101
Property: Solid-liquid equilibrium temperature, K (Liquid); method: VISOBS
Mole fraction of dibenzothiophene	Solid-liquid equilibrium temperature, K	uncertainty
0.0061	291.1	0.2
0.0184	290.9	0.2
0.0305	290.8	0.2
0.0427	290.6	0.2
0.0439	290.6	0.2
0.0451	290.7	0.2

System: .gamma.-butyrolactone + dibenzothiophene; phases: Liquid, Crystal
Fixed: Pressure, kPa = 101
Property: Solid-liquid equilibrium temperature, K (Liquid); method: VISOBS:UFactor:2
Mole fraction of dibenzothiophene	Solid-liquid equilibrium temperature, K	uncertainty
0.0599	281.3	0.4
0.0762	289.7	0.4
0.1047	300.1	0.4
0.1348	307.9	0.4
0.1668	314.6	0.4
0.2011	320.2	0.4
0.2376	325.2	0.4
0.2743	329.4	0.4
0.363	337.6	0.4
0.4635	344.6	0.4
0.5833	351.5	0.4
0.6503	354.8	0.4
0.8076	362.4	0.4

System: acetonitrile + dibenzothiophene; phases: Liquid, Crystal
Fixed: Pressure, kPa = 101
Property: Solid-liquid equilibrium temperature, K (Liquid); method: VISOBS:UFactor:2
Mole fraction of dibenzothiophene	Solid-liquid equilibrium temperature, K	uncertainty
0.0199	303.7	0.4
0.0522	323.1	0.4
0.1021	332	0.4
0.1986	338.1	0.4
0.3092	341.8	0.4
0.3956	344.8	0.4
0.4604	347.1	0.4

System: propan-1-ol + dibenzothiophene sulfone; phases: Liquid, Crystal
Fixed: Pressure, kPa = 101
Property: Solid-liquid equilibrium temperature, K (Liquid); method: VISOBS:UFactor:2
Mole fraction of dibenzothiophene sulfone	Solid-liquid equilibrium temperature, K	uncertainty
0.0039	344	0.4
0.0048	349	0.4
0.0056	353	0.4
0.0064	356.6	0.4
0.0076	361.2	0.4
0.0083	363.6	0.4
0.0087	364.9	0.4
0.0093	366.7	0.4
0.0094	367	0.4

System: 2-ethoxyethan-1-ol + dibenzothiophene sulfone; phases: Liquid, Crystal
Fixed: Pressure, kPa = 101
Property: Solid-liquid equilibrium temperature, K (Liquid); method: VISOBS:UFactor:4
Mole fraction of dibenzothiophene sulfone	Solid-liquid equilibrium temperature, K	uncertainty
0.0106	323.4	0.8
0.0127	332.1	0.8
0.0159	340.5	0.8
0.017	343.8	0.8
0.02	350.3	0.8
0.0215	353.8	0.8
0.0223	355.5	0.8
0.0232	357.4	0.8
0.0254	361.9	0.8
0.0286	368.3	0.8

System: acetonitrile + dibenzothiophene sulfone; phases: Liquid, Crystal
Fixed: Pressure, kPa = 101
Property: Solid-liquid equilibrium temperature, K (Liquid); method: VISOBS:UFactor:2
Mole fraction of dibenzothiophene sulfone	Solid-liquid equilibrium temperature, K	uncertainty
0.0123	330.2	0.4
0.0152	338.3	0.4
0.0173	342.6	0.4
0.0206	348.8	0.4
0.0226	352.5	0.4
0.0256	357.3	0.4
0.0284	361.4	0.4
0.0317	366.1	0.4
0.0335	368.5	0.4

System: .gamma.-butyrolactone + dibenzothiophene sulfone; phases: Liquid, Crystal
Fixed: Pressure, kPa = 101
Property: Solid-liquid equilibrium temperature, K (Liquid); method: VISOBS:UFactor:4
Mole fraction of dibenzothiophene sulfone	Solid-liquid equilibrium temperature, K	uncertainty
0.0379	320.3	0.8
0.0515	334.8	0.8
0.0653	346.9	0.8
0.076	351.6	0.8
0.078	352.7	0.8
0.0853	355.9	0.8
0.0921	358.2	0.8
0.1013	360.8	0.8
0.1134	363.2	0.8
0.1166	363.7	0.8

System: dimethylformamide + dibenzothiophene sulfone; phases: Liquid, Crystal
Fixed: Pressure, kPa = 101
Property: Solid-liquid equilibrium temperature, K (Liquid); method: VISOBS:UFactor:6
Mole fraction of dibenzothiophene sulfone	Solid-liquid equilibrium temperature, K	uncertainty
0.0556	319.5	1.2
0.0663	329.7	1.2
0.0774	338.8	1.2
0.0875	346.2	1.2
0.1013	352	1.2
0.1123	357.3	1.2
0.1234	361.5	1.2
0.1302	363.8	1.2
0.1401	366.7	1.2
0.1502	369.4	1.2
