Measured thermophysical data. Phase Diagram Data for Several Salt + Salt Aqueous Biphasic Systems at 298.15 K
Source: J. Chem. Eng. Data, 2007, 10.1021/je7000478
Compound 1: tripotassium phosphate, K3O4P, InChI=1S/3K.H3O4P/c;;;1-5(2,3)4/h;;;(H3,1,2,3,4)/q3*+1;/p-3
Compound 2: potassium carbonate, CK2O3, InChI=1S/CH2O3.2K/c2-1(3)4;;/h(H2,2,3,4);;/q;2*+1/p-2
Compound 3: 1-methyl-3-octylimidazolium chloride, C12H23ClN2, InChI=1S/C12H23N2.ClH/c1-3-4-5-6-7-8-9-14-11-10-13(2)12-14;/h10-12H,3-9H2,1-2H3;1H/q+1;/p-1
Compound 4: 1-hexyl-3-methylimidazolium chloride, C10H19ClN2, InChI=1S/C10H19N2.ClH/c1-3-4-5-6-7-12-9-8-11(2)10-12;/h8-10H,3-7H2,1-2H3;1H/q+1;/p-1
Compound 5: 1-butyl-3-methylimidazolium chloride, C8H15ClN2, InChI=1S/C8H15N2.ClH/c1-3-4-5-10-7-6-9(2)8-10;/h6-8H,3-5H2,1-2H3;1H/q+1;/p-1
Compound 6: water, H2O, InChI=1S/H2O/h1H2

System: water + tripotassium phosphate + 1-butyl-3-methylimidazolium chloride; phases: Liquid mixture 1, Liquid mixture 2
Fixed: Pressure, kPa = 101
Fixed: Temperature, K = 298.15
Property: Mass fraction of 1-butyl-3-methylimidazolium chloride (Liquid mixture 1); method: TITR:UFactor:2
Mass fraction of tripotassium phosphate	Mass fraction of 1-butyl-3-methylimidazolium chloride	uncertainty
0.1548	0.1873	0.015
0.1668	0.1668	0.0133
0.1784	0.1538	0.0123
0.1912	0.1372	0.011
0.2037	0.1219	0.0098
0.2139	0.1099	0.0088
0.2236	0.0997	0.008
0.2265	0.0957	0.0077
0.2376	0.0853	0.0068
0.2441	0.0784	0.0063
0.2485	0.0746	0.006
0.2549	0.0681	0.0054
0.2598	0.0632	0.0051
0.2637	0.0602	0.0048
0.2703	0.0551	0.0044
0.2733	0.0529	0.0042
0.2787	0.0487	0.0039
0.2808	0.0469	0.0038
0.287	0.0427	0.0034
0.2934	0.0388	0.0031
0.297	0.0362	0.0029
0.2999	0.0346	0.0028
0.3065	0.0311	0.0025
0.3096	0.0295	0.0024
0.3188	0.0251	0.002

System: potassium carbonate + water + 1-butyl-3-methylimidazolium chloride; phases: Liquid mixture 1, Liquid mixture 2
Fixed: Pressure, kPa = 101
Fixed: Temperature, K = 298.15
Property: Mass fraction of 1-butyl-3-methylimidazolium chloride (Liquid mixture 1); method: TITR:UFactor:2
Mass fraction of potassium carbonate	Mass fraction of 1-butyl-3-methylimidazolium chloride	uncertainty
0.1369	0.2548	0.0204
0.1662	0.2089	0.0167
0.1895	0.1767	0.0141
0.2073	0.1519	0.0122
0.2198	0.1334	0.0107
0.2377	0.1119	0.009
0.2518	0.0969	0.0078
0.2649	0.0834	0.0067
0.2764	0.0725	0.0058
0.2865	0.0635	0.0051
0.2952	0.0561	0.0045
0.3038	0.0495	0.004
0.3174	0.0408	0.0033
0.3328	0.0319	0.0026

System: water + tripotassium phosphate + 1-hexyl-3-methylimidazolium chloride; phases: Liquid mixture 1, Liquid mixture 2
Fixed: Pressure, kPa = 101
Fixed: Temperature, K = 298.15
Property: Mass fraction of 1-hexyl-3-methylimidazolium chloride (Liquid mixture 1); method: TITR:UFactor:2
Mass fraction of tripotassium phosphate	Mass fraction of 1-hexyl-3-methylimidazolium chloride	uncertainty
0.0741	0.4194	0.0336
0.0944	0.3563	0.0285
0.1322	0.2527	0.0202
0.1402	0.226	0.0181
0.1584	0.1947	0.0156
0.172	0.1705	0.0136
0.1804	0.1517	0.0121
0.1924	0.1353	0.0108
0.2041	0.1189	0.0095
0.2121	0.1098	0.0088
0.216	0.1023	0.0082
0.2196	0.0957	0.0077
0.2289	0.0863	0.0069
0.2399	0.078	0.0062
0.245	0.0734	0.0059
0.2484	0.069	0.0055
0.2512	0.0652	0.0052
0.2615	0.0555	0.0044
0.2634	0.0525	0.0042
0.2684	0.0471	0.0038
0.2766	0.0412	0.0033
0.2807	0.0378	0.003

System: potassium carbonate + water + 1-hexyl-3-methylimidazolium chloride; phases: Liquid mixture 1, Liquid mixture 2
Fixed: Pressure, kPa = 101
Fixed: Temperature, K = 298.15
Property: Mass fraction of 1-hexyl-3-methylimidazolium chloride (Liquid mixture 1); method: TITR:UFactor:2
Mass fraction of potassium carbonate	Mass fraction of 1-hexyl-3-methylimidazolium chloride	uncertainty
0.0841	0.4451	0.0356
0.1044	0.3657	0.0293
0.1355	0.2966	0.0237
0.1452	0.2625	0.021
0.1691	0.2197	0.0176
0.185	0.1909	0.0153
0.1953	0.1686	0.0135
0.2116	0.1457	0.0117
0.2231	0.1277	0.0102
0.2335	0.1132	0.0091
0.2377	0.1042	0.0083
0.2454	0.0945	0.0076
0.253	0.0855	0.0068
0.2604	0.0776	0.0062
0.268	0.0703	0.0056
0.2714	0.0661	0.0053
0.277	0.0611	0.0049
0.2872	0.0523	0.0042
0.2963	0.0451	0.0036
0.3044	0.0396	0.0032
0.3118	0.0345	0.0028
0.3206	0.0296	0.0024
0.3277	0.0258	0.0021
0.3367	0.0212	0.0017

System: water + tripotassium phosphate + 1-methyl-3-octylimidazolium chloride; phases: Liquid mixture 1, Liquid mixture 2
Fixed: Pressure, kPa = 101
Fixed: Temperature, K = 298.15
Property: Mass fraction of 1-methyl-3-octylimidazolium chloride (Liquid mixture 1); method: TITR:UFactor:2
Mass fraction of tripotassium phosphate	Mass fraction of 1-methyl-3-octylimidazolium chloride	uncertainty
0.1355	0.2883	0.0231
0.1466	0.2524	0.0202
0.1687	0.2163	0.0173
0.1837	0.1884	0.0151
0.2004	0.1603	0.0128
0.2126	0.1439	0.0115
0.2215	0.1295	0.0104
0.2333	0.1143	0.0091
0.2438	0.1012	0.0081
0.2566	0.0875	0.007
0.2652	0.0778	0.0062
0.2716	0.0707	0.0057
0.2787	0.0639	0.0051
0.2873	0.057	0.0046
0.2936	0.0516	0.0041
0.299	0.0472	0.0038
0.3074	0.0416	0.0033
0.3165	0.0361	0.0029
0.3256	0.0313	0.0025
0.3431	0.0231	0.0018
0.3553	0.0178	0.0014

System: potassium carbonate + water + 1-methyl-3-octylimidazolium chloride; phases: Liquid mixture 1, Liquid mixture 2
Fixed: Pressure, kPa = 101
Fixed: Temperature, K = 298.15
Property: Mass fraction of 1-methyl-3-octylimidazolium chloride (Liquid mixture 1); method: TITR:UFactor:2
Mass fraction of potassium carbonate	Mass fraction of 1-methyl-3-octylimidazolium chloride	uncertainty
0.0922	0.409	0.0327
0.1156	0.3423	0.0274
0.1334	0.2927	0.0234
0.1551	0.2474	0.0198
0.1709	0.2153	0.0172
0.1828	0.1904	0.0152
0.1961	0.1697	0.0136
0.2016	0.1598	0.0128
0.2129	0.142	0.0114
0.2223	0.128	0.0102
0.2294	0.1169	0.0094
0.235	0.1072	0.0086
0.2384	0.1029	0.0082
0.2452	0.094	0.0075
0.2493	0.0877	0.007
0.2513	0.0848	0.0068
0.2562	0.0788	0.0063
0.2607	0.0736	0.0059
0.2694	0.0651	0.0052
0.27453	0.0605	0.0048
0.2813	0.0551	0.0044
0.3042	0.0376	0.003
0.3076	0.0356	0.0028
