Measured thermophysical data. Liquid-Liquid Equilibria of (Limonene + Linalool + Ethylene Glycol or Diethylene Glycol or Triethylene Glycol or 1,2-Propylene Glycol) Ternary Systems
Source: J. Chem. Eng. Data, 2008, 10.1021/je700577t
Compound 1: 1,2-ethanediol, C2H6O2, InChI=1S/C2H6O2/c3-1-2-4/h3-4H,1-2H2, purity 99%
Compound 2: diethylene glycol, C4H10O3, InChI=1S/C4H10O3/c5-1-3-7-4-2-6/h5-6H,1-4H2, purity 99%
Compound 3: triethylene glycol, C6H14O4, InChI=1S/C6H14O4/c7-1-3-9-5-6-10-4-2-8/h7-8H,1-6H2, purity 99%
Compound 4: 1,2-propanediol, C3H8O2, InChI=1S/C3H8O2/c1-3(5)2-4/h3-5H,2H2,1H3, purity 99%
Compound 5: 1-methyl-4-(1-methylethenyl)cyclohexene, C10H16, InChI=1S/C10H16/c1-8(2)10-6-4-9(3)5-7-10/h4,10H,1,5-7H2,2-3H3, purity 97%
Compound 6: 3,7-dimethyl-1,6-octadien-3-ol, C10H18O, InChI=1S/C10H18O/c1-5-10(4,11)8-6-7-9(2)3/h5,7,11H,1,6,8H2,2-4H3, purity 97%

System: 1,2-ethanediol; phases: Liquid
Property: Refractive index (Na D-line) (Liquid); method: Standard Abbe refractometry
Temperature, K	Pressure, kPa	Refractive index (Na D-line)	uncertainty
293.15	101.325	1.43184	0.0007

System: 1,2-ethanediol; phases: Liquid
Property: Mass density, kg/m3 (Liquid); method: VIBTUB:UFactor:6
Temperature, K	Pressure, kPa	Mass density, kg/m3	uncertainty
293.15	101.325	1115.52	0.71

System: diethylene glycol; phases: Liquid
Property: Refractive index (Na D-line) (Liquid); method: Standard Abbe refractometry
Temperature, K	Pressure, kPa	Refractive index (Na D-line)	uncertainty
293.15	101.325	1.44724	0.0007

System: diethylene glycol; phases: Liquid
Property: Mass density, kg/m3 (Liquid); method: VIBTUB:UFactor:6
Temperature, K	Pressure, kPa	Mass density, kg/m3	uncertainty
288	101.325	1119.74	0.72

System: triethylene glycol; phases: Liquid
Property: Refractive index (Na D-line) (Liquid); method: Standard Abbe refractometry
Temperature, K	Pressure, kPa	Refractive index (Na D-line)	uncertainty
293.15	101.325	1.45314	0.0007

System: triethylene glycol; phases: Liquid
Property: Mass density, kg/m3 (Liquid); method: VIBTUB:UFactor:6
Temperature, K	Pressure, kPa	Mass density, kg/m3	uncertainty
288	101.325	1127.43	0.74

System: 1,2-propanediol; phases: Liquid
Property: Refractive index (Na D-line) (Liquid); method: Standard Abbe refractometry
Temperature, K	Pressure, kPa	Refractive index (Na D-line)	uncertainty
293.15	101.325	1.43143	0.0007

System: 1,2-propanediol; phases: Liquid
Property: Mass density, kg/m3 (Liquid); method: VIBTUB:UFactor:6
Temperature, K	Pressure, kPa	Mass density, kg/m3	uncertainty
293.15	101.325	1032.83	0.48

System: 1-methyl-4-(1-methylethenyl)cyclohexene; phases: Liquid
Property: Refractive index (Na D-line) (Liquid); method: Standard Abbe refractometry
Temperature, K	Pressure, kPa	Refractive index (Na D-line)	uncertainty
292	101.325	1.47247	0.0009

System: 1-methyl-4-(1-methylethenyl)cyclohexene; phases: Liquid
Property: Mass density, kg/m3 (Liquid); method: VIBTUB:UFactor:16
Temperature, K	Pressure, kPa	Mass density, kg/m3	uncertainty
294	101.325	840.24	2.82

System: 3,7-dimethyl-1,6-octadien-3-ol; phases: Liquid
Property: Refractive index (Na D-line) (Liquid); method: Standard Abbe refractometry
Temperature, K	Pressure, kPa	Refractive index (Na D-line)	uncertainty
293.15	101.325	1.46272	0.0009

System: 3,7-dimethyl-1,6-octadien-3-ol; phases: Liquid
Property: Mass density, kg/m3 (Liquid); method: VIBTUB:UFactor:16
Temperature, K	Pressure, kPa	Mass density, kg/m3	uncertainty
288	101.325	870.04	2.73

System: diethylene glycol + 1-methyl-4-(1-methylethenyl)cyclohexene; phases: Liquid mixture 1, Liquid mixture 2
Fixed: Temperature, K = 298.15
Fixed: Pressure, kPa = 101
Property: Mole fraction of 1-methyl-4-(1-methylethenyl)cyclohexene (Liquid mixture 1); method: TITR:UFactor:2
Mole fraction of 1-methyl-4-(1-methylethenyl)cyclohexene	uncertainty
0.978	0.004
0.015	0.004

System: triethylene glycol + 1-methyl-4-(1-methylethenyl)cyclohexene; phases: Liquid mixture 1, Liquid mixture 2
Fixed: Temperature, K = 298.15
Fixed: Pressure, kPa = 101
Property: Mole fraction of 1-methyl-4-(1-methylethenyl)cyclohexene (Liquid mixture 1); method: TITR:UFactor:2
Mole fraction of 1-methyl-4-(1-methylethenyl)cyclohexene	uncertainty
0.966	0.004
0.003	0.003

System: 1,2-propanediol + 1-methyl-4-(1-methylethenyl)cyclohexene; phases: Liquid mixture 1, Liquid mixture 2
Fixed: Temperature, K = 298.15
Fixed: Pressure, kPa = 101
Property: Mole fraction of 1-methyl-4-(1-methylethenyl)cyclohexene (Liquid mixture 1); method: TITR:UFactor:2
Mole fraction of 1-methyl-4-(1-methylethenyl)cyclohexene	uncertainty
0.962	0.004
0.014	0.004

System: 3,7-dimethyl-1,6-octadien-3-ol + 1,2-ethanediol + 1-methyl-4-(1-methylethenyl)cyclohexene; phases: Liquid mixture 1, Liquid mixture 2
Fixed: Pressure, kPa = 101
Fixed: Temperature, K = 298.15
Property: Mole fraction of 3,7-dimethyl-1,6-octadien-3-ol (Liquid mixture 1); method: CHROM:UFactor:8
Property: Mole fraction of 1-methyl-4-(1-methylethenyl)cyclohexene (Liquid mixture 2); method: CHROM:UFactor:8
Property: Mole fraction of 3,7-dimethyl-1,6-octadien-3-ol (Liquid mixture 2); method: CHROM:UFactor:8
Mole fraction of 1-methyl-4-(1-methylethenyl)cyclohexene	Mole fraction of 3,7-dimethyl-1,6-octadien-3-ol	uncertainty	Mole fraction of 1-methyl-4-(1-methylethenyl)cyclohexene	uncertainty	Mole fraction of 3,7-dimethyl-1,6-octadien-3-ol	uncertainty
0.891	0.067	0.006	0.005	0.004	0.008	
0.828	0.093	0.007	0.006	0.004	0.009	
0.806	0.131	0.009	0.005	0.004	0.01	
0.739	0.179	0.011	0.005	0.004	0.012	
0.678	0.223	0.014	0.006	0.004	0.013	
0.629	0.251	0.016	0.006	0.004	0.015	
0.578	0.291	0.018	0.006	0.004	0.017	
0.526	0.316	0.02	0.007	0.004	0.019	

System: 3,7-dimethyl-1,6-octadien-3-ol + 1,2-ethanediol + 1-methyl-4-(1-methylethenyl)cyclohexene; phases: Liquid mixture 1, Liquid mixture 2
Fixed: Temperature, K = 298.15
Fixed: Pressure, kPa = 101
Property: Mole fraction of 3,7-dimethyl-1,6-octadien-3-ol (Liquid mixture 1); method: TITR:UFactor:4
Mole fraction of 1-methyl-4-(1-methylethenyl)cyclohexene	Mole fraction of 3,7-dimethyl-1,6-octadien-3-ol	uncertainty
0.031	0.031	0.031
0.04	0.102	0.015
0.065	0.118	0.016
0.073	0.153	0.026
0.106	0.187	0.024
0.86	0.101	0.013
0.88	0.082	0.011
0.896	0.066	0.009
0.912	0.054	0.008
0.956	0.02	0.006
0.956	0.02	0.006

System: 3,7-dimethyl-1,6-octadien-3-ol + diethylene glycol + 1-methyl-4-(1-methylethenyl)cyclohexene; phases: Liquid mixture 1, Liquid mixture 2
Fixed: Pressure, kPa = 101
Fixed: Temperature, K = 298.15
Property: Mole fraction of 3,7-dimethyl-1,6-octadien-3-ol (Liquid mixture 1); method: CHROM:UFactor:8
Property: Mole fraction of 1-methyl-4-(1-methylethenyl)cyclohexene (Liquid mixture 2); method: CHROM:UFactor:8
Property: Mole fraction of 3,7-dimethyl-1,6-octadien-3-ol (Liquid mixture 2); method: CHROM:UFactor:8
Mole fraction of 1-methyl-4-(1-methylethenyl)cyclohexene	Mole fraction of 3,7-dimethyl-1,6-octadien-3-ol	uncertainty	Mole fraction of 1-methyl-4-(1-methylethenyl)cyclohexene	uncertainty	Mole fraction of 3,7-dimethyl-1,6-octadien-3-ol	uncertainty
0.938	0.031	0.006	0.024	0.004	0.02	
0.859	0.101	0.008	0.033	0.005	0.054	
0.817	0.118	0.008	0.038	0.005	0.066	
0.774	0.153	0.01	0.038	0.005	0.082	
0.708	0.186	0.012	0.038	0.005	0.101	

System: 3,7-dimethyl-1,6-octadien-3-ol + diethylene glycol + 1-methyl-4-(1-methylethenyl)cyclohexene; phases: Liquid mixture 1, Liquid mixture 2
Fixed: Temperature, K = 298.15
Fixed: Pressure, kPa = 101
Property: Mole fraction of 3,7-dimethyl-1,6-octadien-3-ol (Liquid mixture 1); method: TITR:UFactor:2
Mole fraction of 1-methyl-4-(1-methylethenyl)cyclohexene	Mole fraction of 3,7-dimethyl-1,6-octadien-3-ol	uncertainty
0.015	0	0.001
0.047	0.107	0.011
0.106	0.187	0.012
0.16	0.21	0.013
0.335	0.248	0.015
0.421	0.253	0.016
0.599	0.23	0.014
0.686	0.201	0.013
0.848	0.104	0.008
0.978	0	0.001

System: 3,7-dimethyl-1,6-octadien-3-ol + triethylene glycol + 1-methyl-4-(1-methylethenyl)cyclohexene; phases: Liquid mixture 1, Liquid mixture 2
Fixed: Pressure, kPa = 101
Fixed: Temperature, K = 298.15
Property: Mole fraction of 3,7-dimethyl-1,6-octadien-3-ol (Liquid mixture 1); method: CHROM:UFactor:8
Property: Mole fraction of 1-methyl-4-(1-methylethenyl)cyclohexene (Liquid mixture 2); method: CHROM:UFactor:8
Property: Mole fraction of 3,7-dimethyl-1,6-octadien-3-ol (Liquid mixture 2); method: CHROM:UFactor:8
Mole fraction of 1-methyl-4-(1-methylethenyl)cyclohexene	Mole fraction of 3,7-dimethyl-1,6-octadien-3-ol	uncertainty	Mole fraction of 1-methyl-4-(1-methylethenyl)cyclohexene	uncertainty	Mole fraction of 3,7-dimethyl-1,6-octadien-3-ol	uncertainty
0.926	0.039	0.006	0.009	0.004	0.019	
0.867	0.096	0.007	0.024	0.005	0.058	
0.803	0.136	0.009	0.049	0.005	0.089	
0.74	0.184	0.012	0.053	0.005	0.113	

System: 3,7-dimethyl-1,6-octadien-3-ol + triethylene glycol + 1-methyl-4-(1-methylethenyl)cyclohexene; phases: Liquid mixture 1, Liquid mixture 2
Fixed: Temperature, K = 298.15
Fixed: Pressure, kPa = 101
Property: Mole fraction of 3,7-dimethyl-1,6-octadien-3-ol (Liquid mixture 1); method: TITR:UFactor:2
Mole fraction of 1-methyl-4-(1-methylethenyl)cyclohexene	Mole fraction of 3,7-dimethyl-1,6-octadien-3-ol	uncertainty
0.003	0	0.001
0.03	0.076	0.008
0.121	0.172	0.011
0.283	0.247	0.015
0.425	0.254	0.016
0.598	0.229	0.014
0.752	0.168	0.011
0.892	0.072	0.007
0.966	0	0.001

System: 1,2-propanediol + 3,7-dimethyl-1,6-octadien-3-ol + 1-methyl-4-(1-methylethenyl)cyclohexene; phases: Liquid mixture 1, Liquid mixture 2
Fixed: Pressure, kPa = 101
Fixed: Temperature, K = 298.15
Property: Mole fraction of 3,7-dimethyl-1,6-octadien-3-ol (Liquid mixture 1); method: CHROM:UFactor:8
Property: Mole fraction of 1-methyl-4-(1-methylethenyl)cyclohexene (Liquid mixture 2); method: CHROM:UFactor:8
Property: Mole fraction of 3,7-dimethyl-1,6-octadien-3-ol (Liquid mixture 2); method: CHROM:UFactor:8
Mole fraction of 1-methyl-4-(1-methylethenyl)cyclohexene	Mole fraction of 3,7-dimethyl-1,6-octadien-3-ol	uncertainty	Mole fraction of 1-methyl-4-(1-methylethenyl)cyclohexene	uncertainty	Mole fraction of 3,7-dimethyl-1,6-octadien-3-ol	uncertainty
0.921	0.033	0.005	0.017	0.005	0.014	
0.849	0.077	0.006	0.023	0.004	0.025	
0.771	0.127	0.008	0.025	0.004	0.05	
0.666	0.161	0.01	0.03	0.005	0.062	

System: 1,2-propanediol + 3,7-dimethyl-1,6-octadien-3-ol + 1-methyl-4-(1-methylethenyl)cyclohexene; phases: Liquid mixture 1, Liquid mixture 2
Fixed: Temperature, K = 298.15
Fixed: Pressure, kPa = 101
Property: Mole fraction of 3,7-dimethyl-1,6-octadien-3-ol (Liquid mixture 1); method: TITR:UFactor:2
Mole fraction of 1-methyl-4-(1-methylethenyl)cyclohexene	Mole fraction of 3,7-dimethyl-1,6-octadien-3-ol	uncertainty
0.014	0	0.001
0.031	0.062	0.008
0.087	0.113	0.008
0.145	0.148	0.009
0.229	0.167	0.01
0.28	0.18	0.011
0.31	0.181	0.011
0.403	0.192	0.012
0.516	0.192	0.012
0.617	0.182	0.011
0.82	0.101	0.007
0.962	0	0.001
