Measured thermophysical data. Ionic Conductivity of Selected 2:1 Electrolytes in Dilute Solutions of Mixed Aqueous Organic Solvents at 298.15 K
Source: J. Chem. Eng. Data, 2008, 10.1021/je700313j
Compound 1: methanol, CH4O, InChI=1S/CH4O/c1-2/h2H,1H3
Compound 2: ethanol, C2H6O, InChI=1S/C2H6O/c1-2-3/h3H,2H2,1H3
Compound 3: acetone, C3H6O, InChI=1S/C3H6O/c1-3(2)4/h1-2H3
Compound 4: water, H2O, InChI=1S/H2O/h1H2
Compound 5: calcium nitrate, CaN2O6, InChI=1S/Ca.2NO3/c;2*2-1(3)4/q+2;2*-1
Compound 6: calcium chloride, CaCl2, InChI=1S/Ca.2ClH/h;2*1H/q+2;;/p-2
Compound 7: cadmium nitrate, CdN2O6, InChI=1S/Cd.2NO3/c;2*2-1(3)4/q+2;2*-1
Compound 8: nitric acid, zinc salt, N2O6Zn, InChI=1S/2NO3.Zn/c2*2-1(3)4;/q2*-1;+2

System: methanol + water + calcium nitrate; phases: Liquid
Fixed: Pressure, kPa = 101
Fixed: Temperature, K = 298.15
Property: Molar conductivity, S*m2/mol (Liquid); method: Alternating current cell with electrodes
Solvent: Mass fraction of methanol	Amount concentration (molarity), mol/dm3 of calcium nitrate	Molar conductivity, S*m2/mol	uncertainty
0.1	9.7e-05	0.021288	4e-06
0.1	0.000194	0.02111	8e-06
0.1	0.000291	0.020968	4e-06
0.1	0.000387	0.020856	4e-06
0.1	0.000484	0.020756	4e-06
0.1	0.00058	0.020678	4e-06
0.1	0.000675	0.020584	4e-06
0.1	0.00077	0.020518	4e-06
0.1	0.000865	0.020438	8e-06
0.1	0.00096	0.02036	4e-06
0.3	9.7e-05	0.015698	4e-06
0.3	0.000194	0.01556	4e-06
0.3	0.000291	0.015454	2.4e-05
0.3	0.000388	0.015368	2e-05
0.3	0.000484	0.015272	1.6e-05
0.3	0.00058	0.015212	1.6e-05
0.3	0.000675	0.015128	1.2e-05
0.3	0.00077	0.01507	8e-06
0.3	0.00087	0.01501	4e-06
0.3	0.000965	0.01495	2.4e-05
0.5	9.7e-05	0.014056	2.8e-05
0.5	0.000194	0.01393	2e-05
0.5	0.000291	0.01382	1.2e-05
0.5	0.000388	0.01373	4e-06
0.5	0.000484	0.01364	4e-06
0.5	0.00058	0.01355	4e-06
0.5	0.000675	0.013466	1.6e-05
0.5	0.00077	0.013396	3.2e-05
0.5	0.00087	0.01333	1.2e-05
0.5	0.000965	0.013276	1.2e-05

System: methanol + water + calcium chloride; phases: Liquid
Fixed: Pressure, kPa = 101
Fixed: Temperature, K = 298.15
Property: Molar conductivity, S*m2/mol (Liquid); method: Alternating current cell with electrodes
Solvent: Mass fraction of methanol	Amount concentration (molarity), mol/dm3 of calcium chloride	Molar conductivity, S*m2/mol	uncertainty
0.1	9.95e-05	0.021404	0.00014
0.1	0.000199	0.021074	0.000176
0.1	0.000298	0.020894	0.000216
0.1	0.000396	0.02074	0.00024
0.1	0.000495	0.020602	0.000224
0.1	0.000595	0.020486	0.000164
0.1	0.00069	0.020372	0.000104
0.1	0.00079	0.02029	0.000132
0.1	0.000885	0.02021	0.000116
0.1	0.000985	0.02016	8e-06
0.3	9.95e-05	0.015212	4.4e-05
0.3	0.000199	0.015056	6e-05
0.3	0.000298	0.014918	3.2e-05
0.3	0.000397	0.01482	5.6e-05
0.3	0.000495	0.014716	4.4e-05
0.3	0.000595	0.01461	0.000108
0.3	0.00069	0.014516	4.8e-05
0.3	0.00079	0.01445	4.4e-05
0.3	0.000885	0.01436	5.2e-05
0.3	0.000985	0.014288	4.4e-05
0.5	9.95e-05	0.013154	4e-06
0.5	0.000199	0.01296	1.6e-05
0.5	0.000298	0.012838	6.4e-05
0.5	0.000396	0.01272	5.2e-05
0.5	0.000495	0.012624	1.6e-05
0.5	0.000595	0.012522	1.6e-05
0.5	0.00069	0.012438	1.6e-05
0.5	0.00079	0.012354	1.6e-05
0.5	0.000885	0.012284	3.2e-05
0.5	0.000985	0.012204	2.8e-05
0.7	9.9e-05	0.013656	8.4e-05
0.7	0.000198	0.013434	0.00012
0.7	0.000297	0.013266	9.2e-05
0.7	0.000395	0.013108	0.000112
0.7	0.000494	0.012978	0.00012
0.7	0.00059	0.012852	0.000108
0.7	0.00069	0.012744	0.000112
0.7	0.000785	0.01263	0.00012
0.7	0.000885	0.012526	0.000112
0.7	0.00098	0.012428	0.000116

System: methanol + water + cadmium nitrate; phases: Liquid
Fixed: Pressure, kPa = 101
Fixed: Temperature, K = 298.15
Property: Molar conductivity, S*m2/mol (Liquid); method: Alternating current cell with electrodes
Solvent: Mass fraction of methanol	Amount concentration (molarity), mol/dm3 of cadmium nitrate	Molar conductivity, S*m2/mol	uncertainty
0.1	0.000105	0.018598	8e-06
0.1	0.00021	0.018438	1.6e-05
0.1	0.000314	0.018302	2.4e-05
0.1	0.000419	0.018202	4e-06
0.1	0.000525	0.018094	4e-06
0.1	0.000625	0.01802	8e-06
0.1	0.00073	0.017936	4e-06
0.1	0.000835	0.01785	8e-06
0.1	0.000935	0.017768	1e-06
0.1	0.00104	0.017698	4e-06
0.3	0.000105	0.013638	4e-06
0.3	0.00021	0.013502	8e-06
0.3	0.000315	0.01339	1.6e-05
0.3	0.000419	0.0133	1.2e-05
0.3	0.000525	0.013232	4e-06
0.3	0.000625	0.013168	1.6e-05
0.3	0.00073	0.013092	2.4e-05
0.3	0.000835	0.013036	2.4e-05
0.3	0.00094	0.012976	2e-05
0.3	0.00104	0.012914	4e-06
0.5	0.000105	0.012312	1.6e-05
0.5	0.00021	0.012174	4e-05
0.5	0.000315	0.012066	3.2e-05
0.5	0.000419	0.011968	2.4e-05
0.5	0.000525	0.011886	4.4e-05
0.5	0.000625	0.011788	1.2e-05
0.5	0.00073	0.011728	1.2e-05
0.5	0.000835	0.011656	2.4e-05
0.5	0.00094	0.011592	3.6e-05
0.5	0.00104	0.011528	3.2e-05

System: methanol + water + nitric acid, zinc salt; phases: Liquid
Fixed: Pressure, kPa = 101
Fixed: Temperature, K = 298.15
Property: Molar conductivity, S*m2/mol (Liquid); method: Alternating current cell with electrodes
Solvent: Mass fraction of methanol	Amount concentration (molarity), mol/dm3 of nitric acid, zinc salt	Molar conductivity, S*m2/mol	uncertainty
0.1	0.000105	0.018966	4e-06
0.1	0.00021	0.018798	2e-05
0.1	0.000314	0.018648	3.2e-05
0.1	0.000419	0.018536	4e-05
0.1	0.000525	0.018446	1.6e-05
0.1	0.000625	0.018362	4e-06
0.1	0.00073	0.018272	8e-06
0.1	0.000835	0.018196	1.6e-05
0.1	0.000935	0.018126	4e-06
0.1	0.00104	0.018052	4e-06
0.3	0.000105	0.013624	4e-06
0.3	0.00021	0.013496	4e-06
0.3	0.000315	0.013386	2.4e-05
0.3	0.000419	0.013294	1.6e-05
0.3	0.000525	0.013224	8e-06
0.3	0.00063	0.013148	4e-06
0.3	0.00073	0.013086	4e-06
0.3	0.000835	0.013018	4e-06
0.3	0.00094	0.012962	1.6e-05
0.3	0.00104	0.01291	4e-06
0.5	0.000105	0.012416	4e-06
0.5	0.00021	0.012286	2e-05
0.5	0.000314	0.012182	8e-06
0.5	0.000419	0.01211	8e-06
0.5	0.000525	0.012042	2e-05
0.5	0.000625	0.011978	1.6e-05
0.5	0.00073	0.011914	8e-06
0.5	0.000835	0.011856	2.4e-05
0.5	0.000935	0.011782	2.4e-05
0.5	0.00104	0.011732	2e-05

System: ethanol + water + calcium nitrate; phases: Liquid
Fixed: Pressure, kPa = 101
Fixed: Temperature, K = 298.15
Property: Molar conductivity, S*m2/mol (Liquid); method: Alternating current cell with electrodes
Solvent: Mass fraction of ethanol	Amount concentration (molarity), mol/dm3 of calcium nitrate	Molar conductivity, S*m2/mol	uncertainty
0.1	9.7e-05	0.020298	8.4e-05
0.1	0.000194	0.020138	0.0001
0.1	0.00029	0.020014	5.6e-05
0.1	0.000387	0.019904	7.2e-05
0.1	0.000483	0.019816	5.2e-05
0.1	0.00058	0.019736	6.8e-05
0.1	0.000675	0.019656	7.6e-05
0.1	0.00077	0.019574	8.4e-05
0.1	0.000865	0.019502	9.2e-05
0.1	0.00096	0.01943	9.2e-05
0.3	9.7e-05	0.01259	2.4e-05
0.3	0.000194	0.012472	4e-06
0.3	0.000291	0.012402	2e-05
0.3	0.000387	0.012332	1.6e-05
0.3	0.000484	0.012254	8e-06
0.3	0.00058	0.012188	4e-06
0.3	0.000675	0.01213	4e-06
0.3	0.00077	0.012076	4e-06
0.3	0.000865	0.012032	1.6e-05
0.3	0.00096	0.011978	4e-06
0.5	9.7e-05	0.010058	2.4e-05
0.5	0.000194	0.00994	4e-06
0.5	0.00029	0.009862	1.2e-05
0.5	0.000387	0.009784	4e-06
0.5	0.000483	0.00971	2.4e-05
0.5	0.00058	0.009654	1.6e-05
0.5	0.000675	0.009602	1.6e-05
0.5	0.00077	0.009534	3.2e-05
0.5	0.000865	0.009494	1.2e-05
0.5	0.00096	0.009442	4e-06

System: ethanol + water + calcium chloride; phases: Liquid
Fixed: Pressure, kPa = 101
Fixed: Temperature, K = 298.15
Property: Molar conductivity, S*m2/mol (Liquid); method: Alternating current cell with electrodes
Solvent: Mass fraction of ethanol	Amount concentration (molarity), mol/dm3 of calcium chloride	Molar conductivity, S*m2/mol	uncertainty
0.1	9.95e-05	0.019482	0.0001
0.1	0.000199	0.019292	9.2e-05
0.1	0.000297	0.019128	0.000144
0.1	0.000396	0.018992	0.000132
0.1	0.000495	0.018866	0.000152
0.1	0.000595	0.018748	0.000144
0.1	0.00069	0.018638	0.000136
0.1	0.00079	0.018536	0.000128
0.1	0.000885	0.018436	0.000124
0.1	0.000985	0.018342	0.00012
0.3	9.9e-05	0.012066	5.2e-05
0.3	0.000198	0.011866	3.2e-05
0.3	0.000296	0.011734	2.8e-05
0.3	0.000395	0.01165	2.8e-05
0.3	0.000493	0.011542	2.8e-05
0.3	0.00059	0.011442	2.4e-05
0.3	0.00069	0.01135	4e-06
0.3	0.000785	0.011278	4.4e-05
0.3	0.000885	0.011196	2.4e-05
0.3	0.00098	0.011122	1.2e-05
0.5	9.95e-05	0.00944	2e-05
0.5	0.000199	0.009276	3.2e-05
0.5	0.000298	0.00916	5.2e-05
0.5	0.000396	0.009064	1.6e-05
0.5	0.000495	0.008986	1.2e-05
0.5	0.000595	0.008912	4e-05
0.5	0.00069	0.00884	9.6e-05
0.5	0.00079	0.008774	4e-05
0.5	0.000885	0.008692	5.2e-05
0.5	0.000985	0.008618	6e-05
0.7	9.95e-05	0.008468	2.4e-05
0.7	0.000199	0.008274	8e-06
0.7	0.000298	0.00813	2.8e-05
0.7	0.000396	0.008014	3.2e-05
0.7	0.000495	0.007914	2.4e-05
0.7	0.000595	0.007816	2e-05
0.7	0.00069	0.007734	2e-05
0.7	0.00079	0.007648	1.6e-05
0.7	0.000885	0.007576	2.8e-05
0.7	0.000985	0.007508	2.4e-05

System: ethanol + water + cadmium nitrate; phases: Liquid
Fixed: Pressure, kPa = 101
Fixed: Temperature, K = 298.15
Property: Molar conductivity, S*m2/mol (Liquid); method: Alternating current cell with electrodes
Solvent: Mass fraction of ethanol	Amount concentration (molarity), mol/dm3 of cadmium nitrate	Molar conductivity, S*m2/mol	uncertainty
0.1	0.000105	0.01775	4e-06
0.1	0.00021	0.01759	8e-06
0.1	0.000314	0.017486	1.6e-05
0.1	0.000418	0.017338	1.6e-05
0.1	0.00052	0.017274	1.2e-05
0.1	0.000625	0.017174	8e-06
0.1	0.00073	0.017092	4e-06
0.1	0.00083	0.017048	4e-06
0.1	0.000935	0.016958	8e-06
0.1	0.00104	0.01689	4e-06
0.3	0.000105	0.010908	1.2e-05
0.3	0.00021	0.010784	4e-06
0.3	0.000315	0.010704	4e-06
0.3	0.000419	0.010638	4e-06
0.3	0.000525	0.010564	4e-06
0.3	0.000625	0.010502	4e-06
0.3	0.00073	0.01046	4e-06
0.3	0.000835	0.010408	4e-06
0.3	0.00094	0.01036	8e-06
0.3	0.00104	0.010322	4e-06
0.5	0.000105	0.008832	4e-06
0.5	0.00021	0.008712	4e-06
0.5	0.000315	0.008616	4e-06
0.5	0.00042	0.008546	8e-06
0.5	0.000525	0.008466	1.2e-05
0.5	0.00063	0.008426	1.6e-05
0.5	0.00073	0.008364	8e-06
0.5	0.000835	0.00829	8e-06
0.5	0.00094	0.00825	2e-05
0.5	0.00104	0.008186	4e-06

System: ethanol + water + nitric acid, zinc salt; phases: Liquid
Fixed: Pressure, kPa = 101
Fixed: Temperature, K = 298.15
Property: Molar conductivity, S*m2/mol (Liquid); method: Alternating current cell with electrodes
Solvent: Mass fraction of ethanol	Amount concentration (molarity), mol/dm3 of nitric acid, zinc salt	Molar conductivity, S*m2/mol	uncertainty
0.1	0.000105	0.017502	4e-05
0.1	0.00021	0.017338	1e-06
0.1	0.000315	0.017228	4e-06
0.1	0.000419	0.017126	2.8e-05
0.1	0.000525	0.017024	2.4e-05
0.1	0.000625	0.016954	8e-06
0.1	0.00073	0.016874	8e-06
0.1	0.000835	0.016806	1.2e-05
0.1	0.000935	0.016736	8e-06
0.1	0.00104	0.016674	8e-06
0.3	0.000105	0.010842	4e-06
0.3	0.00021	0.010728	1.2e-05
0.3	0.000315	0.01064	2.4e-05
0.3	0.000419	0.010564	1.2e-05
0.3	0.000525	0.010504	1e-06
0.3	0.000625	0.010444	1.6e-05
0.3	0.00073	0.010396	1.2e-05
0.3	0.000835	0.01034	4e-06
0.3	0.000935	0.010292	1.6e-05
0.3	0.00104	0.010248	4e-06
0.5	0.000105	0.008886	4e-06
0.5	0.00021	0.008768	1.2e-05
0.5	0.000315	0.008682	4e-06
0.5	0.00042	0.008602	2e-05
0.5	0.000525	0.008532	1.2e-05
0.5	0.00063	0.008472	4e-06
0.5	0.00073	0.008392	4e-06
0.5	0.000835	0.008344	1e-06
0.5	0.00094	0.008282	1.6e-05
0.5	0.00104	0.008236	4e-06

System: acetone + water + calcium chloride; phases: Liquid
Fixed: Pressure, kPa = 101
Fixed: Temperature, K = 298.15
Property: Molar conductivity, S*m2/mol (Liquid); method: Alternating current cell with electrodes
Solvent: Mass fraction of acetone	Amount concentration (molarity), mol/dm3 of calcium chloride	Molar conductivity, S*m2/mol	uncertainty
0.1	9.9e-05	0.022012	7.2e-05
0.1	0.000198	0.021772	4.4e-05
0.1	0.000297	0.021568	2.4e-05
0.1	0.000396	0.021402	8.8e-05
0.1	0.000494	0.021298	0.000152
0.1	0.00059	0.02117	0.000148
0.1	0.00069	0.02104	0.000108
0.1	0.00079	0.02091	0.000112
0.1	0.000885	0.020808	0.0001
0.1	0.000985	0.020708	5.6e-05
0.3	9.9e-05	0.016934	0.000188
0.3	0.000198	0.016624	0.00016
0.3	0.000297	0.016348	0.000104
0.3	0.000396	0.01613	0.000112
0.3	0.000494	0.015934	2.8e-05
0.3	0.00059	0.015766	9.6e-05
0.3	0.00069	0.0156	0.000164
0.3	0.00079	0.01548	0.000144
0.3	0.000885	0.01532	0.00016
0.3	0.000985	0.015212	0.000128
0.5	9.95e-05	0.014612	8e-06
0.5	0.000199	0.01422	9.2e-05
0.5	0.000298	0.013964	0.000164
0.5	0.000396	0.013742	0.00012
0.5	0.000495	0.013524	6.4e-05
0.5	0.000595	0.013358	0.0001
0.5	0.00069	0.013206	0.0001
0.5	0.00079	0.01305	0.000124
0.5	0.000885	0.012898	4.4e-05
0.5	0.000985	0.012764	5.2e-05
0.7	9.95e-05	0.014194	4.4e-05
0.7	0.000199	0.013666	0.000148
0.7	0.000298	0.013268	0.000148
0.7	0.000396	0.012926	0.000144
0.7	0.000495	0.012666	0.000144
0.7	0.000595	0.012436	0.000164
0.7	0.00069	0.012234	0.0001
0.7	0.00079	0.01204	0.00014
0.7	0.000885	0.011868	0.000104
0.7	0.000985	0.011702	0.000112
