Measured thermophysical data. Density and Viscosity Measurements of Diethyl Adipate from (303 to 373) K and up to 20 MPa
Source: J. Chem. Eng. Data, 2008, 10.1021/je700740e
Compound 1: toluene, C7H8, InChI=1S/C7H8/c1-7-5-3-2-4-6-7/h2-6H,1H3, purity 99.8%
Compound 2: diethyl hexanedioate, C10H18O4, InChI=1S/C10H18O4/c1-3-13-9(11)7-5-6-8-10(12)14-4-2/h3-8H2,1-2H3, purity 99%

System: toluene; phases: Liquid
Property: Viscosity, Pa*s (Liquid); method: Vibrating wire viscometry
Temperature, K	Pressure, kPa	Viscosity, Pa*s	uncertainty
298.15	100	0.000555	1.2e-05
298.15	2300	0.000569	1.3e-05
298.15	4400	0.00058	1.3e-05
298.15	7430	0.000593	1.3e-05
298.15	10400	0.000597	1.3e-05
298.15	12470	0.000613	1.4e-05
298.15	14490	0.000617	1.4e-05
323.15	120	0.000425	1e-05
323.15	3340	0.000431	1e-05
323.15	6340	0.000448	1e-05
323.15	9600	0.000461	1.1e-05
323.15	12750	0.000464	1.1e-05
323.15	14770	0.000466	1.1e-05

System: toluene; phases: Liquid
Property: Mass density, kg/m3 (Liquid); method: Vibrating tube method
Temperature, K	Pressure, kPa	Mass density, kg/m3	uncertainty
298.15	100	862.5	1.736
298.15	2300	864.389	1.739
298.15	4400	865.888	1.741
298.15	7430	868.038	1.747
298.15	10400	870.54	1.752
298.15	12470	871.736	1.755
298.15	14490	873.496	1.762
323.15	120	840.467	1.694
323.15	3340	843.459	1.7
323.15	6340	846.144	1.705
323.15	9600	848.793	1.712
323.15	12750	851.586	1.719
323.15	14770	853.276	1.722

System: diethyl hexanedioate; phases: Liquid
Property: Viscosity, Pa*s (Liquid); method: Vibrating wire viscometry
Temperature, K	Pressure, kPa	Viscosity, Pa*s	uncertainty
303.15	100	0.002786	5.9e-05
303.15	4520	0.002909	6.2e-05
303.15	9610	0.003061	6.5e-05
303.15	14700	0.003226	6.8e-05
303.15	19790	0.003343	7.1e-05
313.15	100	0.002257	4.8e-05
313.15	4520	0.002335	5e-05
313.15	9630	0.002472	5.3e-05
313.15	14750	0.002589	5.5e-05
313.15	19890	0.002726	5.8e-05
323.15	100	0.001846	3.9e-05
323.15	4520	0.001932	4.1e-05
323.15	9600	0.002021	4.3e-05
323.15	14690	0.002126	4.5e-05
323.15	19710	0.00223	4.8e-05
333.15	100	0.00158	3.4e-05
333.15	4520	0.001642	3.5e-05
333.15	9630	0.001716	3.7e-05
333.15	14710	0.001802	3.9e-05
333.15	19710	0.001886	4e-05
343.15	100	0.00135	2.9e-05
343.15	4510	0.001407	3e-05
343.15	9600	0.001471	3.2e-05
343.15	14700	0.001542	3.3e-05
343.15	19700	0.001608	3.5e-05
353.15	100	0.001179	2.6e-05
353.15	4520	0.001227	2.7e-05
353.15	9620	0.00128	2.8e-05
353.15	14710	0.001338	2.9e-05
353.15	19680	0.001402	3e-05
363.15	100	0.001041	2.3e-05
363.15	4520	0.001078	2.3e-05
363.15	9610	0.001129	2.5e-05
363.15	14700	0.001174	2.5e-05
363.15	19710	0.001226	2.7e-05
373.15	100	0.000914	2e-05
373.15	4520	0.000956	2.1e-05
373.15	9620	0.001	2.2e-05
373.15	14680	0.001046	2.3e-05
373.15	19910	0.001096	2.4e-05

System: diethyl hexanedioate; phases: Liquid
Property: Mass density, kg/m3 (Liquid); method: Vibrating tube method
Temperature, K	Pressure, kPa	Mass density, kg/m3	uncertainty
303.15	100	998.842	2.013
303.15	4520	1001.807	2.019
303.15	9610	1005.24	2.026
303.15	14700	1008.513	2.034
303.15	19790	1012.523	2.044
313.15	100	989.86	1.997
313.15	4520	993.535	2.003
313.15	9630	996.693	2.009
313.15	14750	1000.42	2.016
313.15	19890	1003.553	2.023
323.15	100	981.395	1.981
323.15	4520	984.72	1.987
323.15	9600	988.74	1.994
323.15	14690	992.273	2.001
323.15	19710	995.581	2.006
333.15	100	971.597	1.961
333.15	4520	975.516	1.97
333.15	9630	979.685	1.977
333.15	14710	983.483	1.984
333.15	19710	987.107	1.992
343.15	100	962.622	1.945
343.15	4510	966.544	1.953
343.15	9600	970.932	1.961
343.15	14700	975.031	1.969
343.15	19700	978.932	1.976
353.15	100	953.224	1.928
353.15	4520	957.353	1.936
353.15	9620	962.118	1.945
353.15	14710	966.479	1.953
353.15	19680	970.392	1.961
363.15	100	943.203	1.909
363.15	4520	948.203	1.92
363.15	9610	953.106	1.929
363.15	14700	957.919	1.938
363.15	19710	962.125	1.946
373.15	100	934.753	1.892
373.15	4520	939.138	1.902
373.15	9620	944.359	1.912
373.15	14680	948.986	1.921
373.15	19910	953.741	1.931
