Measured thermophysical data. Low-Temperature Heat Capacities and Standard Molar Enthalpy of Formation of Chromium Nicotinate Cr(C6H4NO2)3(s)
Source: J. Chem. Eng. Data, 2008, 10.1021/je7004006
Compound 1: chromium nicotinate, C18H12CrN3O6, InChI=1S/3C6H5NO2.Cr/c3*8-6(9)5-2-1-3-7-4-5;/h3*1-4H,(H,8,9);/q;;;+3/p-3
Compound 2: 3-carboxylpyridine, C6H5NO2, InChI=1S/C6H5NO2/c8-6(9)5-2-1-3-7-4-5/h1-4H,(H,8,9)
Compound 3: hydrogen chloride, ClH, InChI=1S/ClH/h1H
Compound 4: water, H2O, InChI=1S/H2O/h1H2

System: chromium nicotinate; phases: Crystal
Fixed: Pressure, kPa = 101.325
Property: Molar heat capacity at constant pressure, J/K/mol (Crystal); method: Small (less than 1 g) adiabatic calorimetry
Temperature, K	Molar heat capacity at constant pressure, J/K/mol	uncertainty
78.295	123.81	0.9
79.579	125.36	0.91
80.785	127.92	0.93
83.268	130.33	0.95
85.751	132.64	0.96
87.667	134.61	0.98
88.873	136.08	0.99
90.151	137.63	0.98
91.995	139.67	1
93.272	141.41	1.01
94.621	142.98	1.02
95.898	144.85	1.03
97.317	146.89	1.04
98.807	148.83	1.06
100.392	151.39	1.07
102.327	154.15	1.09
104.424	157.04	1.11
106.52	159.91	1.13
108.564	162.72	1.15
110.573	165.32	1.16
112.553	168.16	1.18
114.51	171.37	1.2
116.442	174.23	1.22
118.506	177.09	1.24
120.699	180.42	1.26
122.863	183.21	1.28
125.002	186.13	1.3
127.116	189.86	1.33
129.204	192.42	1.34
131.273	194.83	1.36
133.289	197.19	1.37
135.344	199.39	1.39
137.35	202.21	1.41
139.335	205.13	1.43
141.271	208.55	1.45
143.286	211.67	1.47
145.181	214.31	1.49
147.237	217.25	1.51
149.262	220.52	1.53
151.276	222.96	1.54
153.407	226.31	1.57
155.542	229.13	1.59
157.615	231.64	1.6
159.696	235.03	1.62
161.75	238.11	1.64
163.846	240.81	1.66
165.847	243.11	1.68
167.87	246.05	1.7
169.894	248.77	1.72
171.909	251.87	1.74
173.844	254.46	1.75
175.86	257.44	1.77
177.795	260.13	1.79
179.73	262.72	1.81
181.665	265.17	1.82
183.601	268.44	1.85
185.616	271.07	1.86
187.712	274.19	1.88
189.728	277.14	1.9
191.824	280.35	1.92
193.921	283.85	1.95
196.017	286.68	1.97
198.113	289.66	1.99
200.29	293.01	2.01
202.306	295.75	2.03
204.322	298.67	2.05
206.418	301.71	2.07
208.434	304.98	2.09
210.449	308.04	2.11
212.465	310.72	2.13
214.401	313.38	2.14
216.416	316.97	2.17
218.351	320.03	2.19
220.286	324.12	2.21
222.302	325.43	2.22
224.237	328.85	2.25
226.091	332.72	2.27
228.833	337.34	2.3
231.735	341.35	2.33
234.718	345.07	2.35
237.782	349.99	2.39
241.007	354.61	2.42
244.071	360.78	2.46
247.135	364.57	2.48
250.28	369.63	2.52
253.263	373.95	2.54
256.327	378.71	2.58
259.39	383.32	2.61
262.454	388.08	2.64
265.518	392.41	2.67
268.501	397.46	2.7
271.485	402.07	2.73
274.548	406.39	2.76
277.774	410.55	2.79
280.837	415.32	2.82
283.982	420.08	2.85
287.046	425.14	2.88
290.11	429.31	2.91
293.254	432.73	2.93
296.237	436.89	2.96
299.14	441.06	2.99
302.204	445.38	3.02
305.268	449.99	3.05
308.251	453.86	3.07
311.395	458.92	3.11
314.621	464.13	3.14
317.684	468.44	3.17
320.909	472.31	3.2
324.135	476.78	3.23
327.118	480.35	3.25
329.779	484.81	3.28
332.439	488.54	3.3
335.099	492.26	3.33
337.841	495.98	3.35
340.502	499.71	3.38
343.243	503.86	3.41
346.065	507.44	3.43
348.968	511.45	3.46
351.79	514.88	3.48
354.531	518.75	3.5
357.434	523.81	3.54
360.336	528.42	3.57
362.997	532.73	3.6
365.901	536.45	3.62
368.641	539.88	3.64
371.365	543.64	3.67
374.084	547.89	3.7
376.978	552.51	3.73
379.691	556.21	3.75
382.38	559.42	3.77
385.119	562.83	3.8
387.846	566.51	3.82
390.524	569.91	3.84

System: 3-carboxylpyridine + hydrogen chloride + water; phases: Liquid
Property: Molar enthalpy of solution, kJ/mol (Liquid); method: ISOPERIBOL
Temperature, K	Mole fraction of 3-carboxylpyridine	Solvent: Amount concentration (molarity), mol/dm3 of hydrogen chloride	Pressure, kPa	Molar enthalpy of solution, kJ/mol	uncertainty
298.15	0	0.1	101	14.44	0.3

System: hydrogen chloride + water + chromium nicotinate; phases: Liquid
Property: Molar enthalpy of solution, kJ/mol (Liquid); method: ISOPERIBOL
Temperature, K	Mole fraction of chromium nicotinate	Solvent: Amount concentration (molarity), mol/dm3 of hydrogen chloride	Pressure, kPa	Molar enthalpy of solution, kJ/mol	uncertainty
298.15	0	0.1	101	-34.47	0.57
