Measured thermophysical data. Excess Enthalpies of 2,4-Pentanedione + (Methanol, + Ethanol, + 1-Propanol, and + 2-Propanol) at T = (298.15, 313.15, and 328.15) K and p = (0.1 and 10.0) MPa
Source: J. Chem. Eng. Data, 2008, 10.1021/je700492k
Compound 1: 2,4-pentanedione, C5H8O2, InChI=1S/C5H8O2/c1-4(6)3-5(2)7/h3H2,1-2H3, purity 99.5%
Compound 2: methanol, CH4O, InChI=1S/CH4O/c1-2/h2H,1H3, purity 99.7%
Compound 3: ethanol, C2H6O, InChI=1S/C2H6O/c1-2-3/h3H,2H2,1H3, purity 99.7%
Compound 4: propan-1-ol, C3H8O, InChI=1S/C3H8O/c1-2-3-4/h4H,2-3H2,1H3, purity 99.7%
Compound 5: propan-2-ol, C3H8O, InChI=1S/C3H8O/c1-3(2)4/h3-4H,1-2H3, purity 99.7%

System: 2,4-pentanedione; phases: Liquid
Fixed: Pressure, kPa = 101.325
Property: Mass density, kg/m3 (Liquid); method: Pycnometric method
Temperature, K	Mass density, kg/m3	uncertainty
298.15	972.1	0.9
313.15	954	0.9
328.15	939.3	0.8

System: methanol + 2,4-pentanedione; phases: Liquid
Property: Excess molar enthalpy (molar enthalpy of mixing), kJ/mol (Liquid); method: Flow calorimetry
Temperature, K	Pressure, kPa	Mole fraction of 2,4-pentanedione	Excess molar enthalpy (molar enthalpy of mixing), kJ/mol	uncertainty
298.15	100	0.0502	0.2068	0.0058
298.15	100	0.0995	0.3748	0.0089
298.15	100	0.1494	0.5217	0.0117
298.15	100	0.1998	0.6454	0.0142
298.15	100	0.2496	0.7465	0.0163
298.15	100	0.3006	0.8321	0.0181
298.15	100	0.3504	0.8977	0.0195
298.15	100	0.3995	0.9513	0.0207
298.15	100	0.4492	0.9899	0.0215
298.15	100	0.499	1.0123	0.0219
298.15	100	0.5509	1.0198	0.0221
298.15	100	0.5989	1.0084	0.0218
298.15	100	0.6509	0.9759	0.0212
298.15	100	0.7006	0.926	0.0201
298.15	100	0.7507	0.8543	0.0186
298.15	100	0.8006	0.7497	0.0165
298.15	100	0.85	0.6156	0.0138
298.15	100	0.8983	0.4551	0.0107
298.15	100	0.95	0.2384	0.0069
298.15	10000	0.0501	0.2006	0.0057
298.15	10000	0.0994	0.3679	0.0087
298.15	10000	0.1493	0.5133	0.0116
298.15	10000	0.1997	0.6354	0.0141
298.15	10000	0.2494	0.7363	0.0162
298.15	10000	0.3004	0.822	0.0179
298.15	10000	0.3502	0.8907	0.0194
298.15	10000	0.3993	0.9432	0.0205
298.15	10000	0.449	0.9813	0.0213
298.15	10000	0.4988	1.0056	0.0218
298.15	10000	0.5507	1.0133	0.022
298.15	10000	0.5987	1.0059	0.0218
298.15	10000	0.6507	0.9734	0.0211
298.15	10000	0.7005	0.9233	0.0201
298.15	10000	0.7505	0.853	0.0186
298.15	10000	0.8004	0.7478	0.0165
298.15	10000	0.8498	0.6143	0.0138
298.15	10000	0.8982	0.4525	0.0107
298.15	10000	0.9499	0.2379	0.0068
313.15	100	0.0502	0.2438	0.0069
313.15	100	0.0995	0.4487	0.0106
313.15	100	0.1494	0.628	0.014
313.15	100	0.1998	0.7806	0.0171
313.15	100	0.2496	0.9094	0.0198
313.15	100	0.3006	1.0187	0.0221
313.15	100	0.3504	1.1022	0.0238
313.15	100	0.3995	1.1626	0.0251
313.15	100	0.4492	1.2097	0.0261
313.15	100	0.499	1.2325	0.0265
313.15	100	0.5509	1.2398	0.0267
313.15	100	0.5989	1.2245	0.0264
313.15	100	0.6509	1.1892	0.0256
313.15	100	0.7006	1.1243	0.0243
313.15	100	0.7507	1.0374	0.0225
313.15	100	0.8006	0.9167	0.02
313.15	100	0.85	0.7646	0.0169
313.15	100	0.8983	0.569	0.0132
313.15	100	0.95	0.3102	0.0087
313.15	10000	0.0501	0.2425	0.0069
313.15	10000	0.0994	0.4485	0.0106
313.15	10000	0.1493	0.6281	0.014
313.15	10000	0.1997	0.7804	0.0171
313.15	10000	0.2494	0.9083	0.0198
313.15	10000	0.3004	1.0161	0.022
313.15	10000	0.3502	1.1009	0.0238
313.15	10000	0.3993	1.1576	0.025
313.15	10000	0.449	1.2094	0.0261
313.15	10000	0.4988	1.2305	0.0265
313.15	10000	0.5507	1.2374	0.0266
313.15	10000	0.5987	1.221	0.0263
313.15	10000	0.6507	1.1847	0.0255
313.15	10000	0.7005	1.1237	0.0243
313.15	10000	0.7505	1.0357	0.0224
313.15	10000	0.8004	0.9162	0.02
313.15	10000	0.8498	0.7613	0.0169
313.15	10000	0.8982	0.566	0.0131
313.15	10000	0.9499	0.3032	0.0085
328.15	100	0.0502	0.2751	0.0078
328.15	100	0.0995	0.5105	0.012
328.15	100	0.1494	0.7216	0.0161
328.15	100	0.1998	0.8976	0.0196
328.15	100	0.2496	1.0509	0.0228
328.15	100	0.3006	1.1812	0.0255
328.15	100	0.3504	1.2839	0.0276
328.15	100	0.3995	1.3606	0.0292
328.15	100	0.4492	1.4145	0.0304
328.15	100	0.499	1.4458	0.031
328.15	100	0.5509	1.4551	0.0312
328.15	100	0.5989	1.4326	0.0308
328.15	100	0.6509	1.3804	0.0297
328.15	100	0.7006	1.3039	0.0281
328.15	100	0.7507	1.1957	0.0258
328.15	100	0.8006	1.0442	0.0227
328.15	100	0.85	0.8565	0.0189
328.15	100	0.8983	0.6358	0.0147
328.15	100	0.95	0.3465	0.0095
328.15	10000	0.0501	0.2738	0.0077
328.15	10000	0.0994	0.5083	0.0119
328.15	10000	0.1493	0.7173	0.016
328.15	10000	0.1997	0.8967	0.0196
328.15	10000	0.2494	1.0457	0.0227
328.15	10000	0.3004	1.1728	0.0253
328.15	10000	0.3502	1.2734	0.0274
328.15	10000	0.3993	1.352	0.0291
328.15	10000	0.449	1.4035	0.0301
328.15	10000	0.4988	1.4361	0.0308
328.15	10000	0.5507	1.4414	0.0309
328.15	10000	0.5987	1.422	0.0305
328.15	10000	0.6507	1.3722	0.0295
328.15	10000	0.7005	1.2888	0.0277
328.15	10000	0.7505	1.1786	0.0254
328.15	10000	0.8004	1.0308	0.0224
328.15	10000	0.8498	0.8495	0.0187
328.15	10000	0.8982	0.632	0.0146
328.15	10000	0.9499	0.3426	0.0094

System: ethanol + 2,4-pentanedione; phases: Liquid
Property: Excess molar enthalpy (molar enthalpy of mixing), kJ/mol (Liquid); method: Flow calorimetry
Temperature, K	Pressure, kPa	Mole fraction of 2,4-pentanedione	Excess molar enthalpy (molar enthalpy of mixing), kJ/mol	uncertainty
298.15	100	0.0496	0.2479	0.007
298.15	100	0.0992	0.4563	0.0108
298.15	100	0.1496	0.6525	0.0146
298.15	100	0.1992	0.809	0.0177
298.15	100	0.2491	0.943	0.0205
298.15	100	0.2988	1.0488	0.0227
298.15	100	0.3482	1.1407	0.0246
298.15	100	0.3988	1.2117	0.0261
298.15	100	0.4484	1.2604	0.0271
298.15	100	0.4988	1.2915	0.0277
298.15	100	0.5476	1.304	0.028
298.15	100	0.5991	1.2917	0.0277
298.15	100	0.6484	1.254	0.0269
298.15	100	0.6976	1.1987	0.0258
298.15	100	0.7494	1.1051	0.0238
298.15	100	0.798	0.987	0.0214
298.15	100	0.849	0.8186	0.018
298.15	100	0.8992	0.6092	0.014
298.15	100	0.9485	0.3446	0.0094
298.15	100	0.9688	0.2167	0.008
298.15	10000	0.0496	0.2406	0.0069
298.15	10000	0.0992	0.4543	0.0107
298.15	10000	0.1496	0.6415	0.0143
298.15	10000	0.1992	0.8005	0.0175
298.15	10000	0.2491	0.9325	0.0203
298.15	10000	0.2988	1.043	0.0225
298.15	10000	0.3482	1.1311	0.0244
298.15	10000	0.3988	1.202	0.0259
298.15	10000	0.4484	1.2521	0.0269
298.15	10000	0.4988	1.2826	0.0275
298.15	10000	0.5476	1.2915	0.0277
298.15	10000	0.5991	1.2794	0.0275
298.15	10000	0.6484	1.2461	0.0268
298.15	10000	0.6976	1.1869	0.0255
298.15	10000	0.7494	1.0975	0.0237
298.15	10000	0.798	0.9784	0.0212
298.15	10000	0.849	0.8164	0.018
298.15	10000	0.8992	0.5993	0.0138
298.15	10000	0.9485	0.3401	0.0093
298.15	10000	0.9688	0.2149	0.0078
313.15	100	0.0496	0.2797	0.0079
313.15	100	0.0992	0.5199	0.0122
313.15	100	0.1496	0.7309	0.0163
313.15	100	0.1992	0.9147	0.02
313.15	100	0.2491	1.0658	0.0231
313.15	100	0.2988	1.186	0.0256
313.15	100	0.3482	1.2945	0.0279
313.15	100	0.3988	1.3701	0.0294
313.15	100	0.4484	1.4225	0.0305
313.15	100	0.4988	1.4542	0.0312
313.15	100	0.5476	1.46	0.0313
313.15	100	0.5991	1.4429	0.0309
313.15	100	0.6484	1.3971	0.03
313.15	100	0.6976	1.3215	0.0284
313.15	100	0.7494	1.2126	0.0261
313.15	100	0.798	1.0697	0.0232
313.15	100	0.849	0.8845	0.0195
313.15	100	0.8992	0.6438	0.0149
313.15	100	0.9485	0.3549	0.0098
313.15	100	0.9688	0.2213	0.008
313.15	10000	0.0496	0.2751	0.0078
313.15	10000	0.0992	0.5175	0.0121
313.15	10000	0.1496	0.7283	0.0162
313.15	10000	0.1992	0.9032	0.0197
313.15	10000	0.2491	1.0566	0.0229
313.15	10000	0.2988	1.1814	0.0255
313.15	10000	0.3482	1.2798	0.0275
313.15	10000	0.3988	1.3605	0.0292
313.15	10000	0.4484	1.4135	0.0303
313.15	10000	0.4988	1.4439	0.031
313.15	10000	0.5476	1.4508	0.0311
313.15	10000	0.5991	1.4316	0.0307
313.15	10000	0.6484	1.3897	0.0298
313.15	10000	0.6976	1.3173	0.0283
313.15	10000	0.7494	1.2104	0.0261
313.15	10000	0.798	1.071	0.0232
313.15	10000	0.849	0.8819	0.0194
313.15	10000	0.8992	0.6384	0.0148
313.15	10000	0.9485	0.3514	0.0097
313.15	10000	0.9688	0.2191	0.008
328.15	100	0.0496	0.3148	0.0089
328.15	100	0.0992	0.5922	0.0139
328.15	100	0.1496	0.8374	0.0186
328.15	100	0.1992	1.0443	0.0228
328.15	100	0.2491	1.2137	0.0262
328.15	100	0.2988	1.3561	0.0292
328.15	100	0.3482	1.4755	0.0317
328.15	100	0.3988	1.5587	0.0334
328.15	100	0.4484	1.6199	0.0347
328.15	100	0.4988	1.6523	0.0354
328.15	100	0.5476	1.6572	0.0355
328.15	100	0.5991	1.6323	0.035
328.15	100	0.6484	1.578	0.0338
328.15	100	0.6976	1.4874	0.0319
328.15	100	0.7494	1.3558	0.0292
328.15	100	0.798	1.1902	0.0258
328.15	100	0.849	0.9769	0.0215
328.15	100	0.8992	0.7064	0.0163
328.15	100	0.9485	0.3908	0.0108
328.15	100	0.9688	0.2446	0.009
328.15	10000	0.0496	0.3135	0.0088
328.15	10000	0.0992	0.5822	0.0136
328.15	10000	0.1496	0.8279	0.0184
328.15	10000	0.1992	1.0279	0.0224
328.15	10000	0.2491	1.2026	0.026
328.15	10000	0.2988	1.3442	0.0289
328.15	10000	0.3482	1.4562	0.0313
328.15	10000	0.3988	1.5425	0.0331
328.15	10000	0.4484	1.5997	0.0343
328.15	10000	0.4988	1.6356	0.035
328.15	10000	0.5476	1.6352	0.035
328.15	10000	0.5991	1.6078	0.0344
328.15	10000	0.6484	1.5533	0.0333
328.15	10000	0.6976	1.4677	0.0315
328.15	10000	0.7494	1.328	0.0286
328.15	10000	0.798	1.1566	0.0251
328.15	10000	0.849	0.9365	0.0207
328.15	10000	0.8992	0.6822	0.0157
328.15	10000	0.9485	0.3813	0.0105
328.15	10000	0.9688	0.2376	0.0089

System: propan-1-ol + 2,4-pentanedione; phases: Liquid
Property: Excess molar enthalpy (molar enthalpy of mixing), kJ/mol (Liquid); method: Flow calorimetry
Temperature, K	Pressure, kPa	Mole fraction of 2,4-pentanedione	Excess molar enthalpy (molar enthalpy of mixing), kJ/mol	uncertainty
298.15	100	0.0502	0.3018	0.0082
298.15	100	0.1502	0.7702	0.0171
298.15	100	0.2502	1.0842	0.0235
298.15	100	0.3504	1.3011	0.028
298.15	100	0.4001	1.3686	0.0294
298.15	100	0.4502	1.4162	0.0304
298.15	100	0.5006	1.4395	0.0309
298.15	100	0.5501	1.4396	0.0308
298.15	100	0.5997	1.4175	0.0304
298.15	100	0.6495	1.3678	0.0293
298.15	100	0.6994	1.2935	0.0278
298.15	100	0.8006	1.0368	0.0225
298.15	100	0.8504	0.845	0.0188
298.15	100	0.9493	0.3324	0.009
298.15	10000	0.0502	0.2978	0.008
298.15	10000	0.1504	0.7587	0.0169
298.15	10000	0.2504	1.0807	0.0234
298.15	10000	0.3507	1.2933	0.0278
298.15	10000	0.4004	1.3637	0.0293
298.15	10000	0.4505	1.4124	0.0303
298.15	10000	0.501	1.4389	0.0308
298.15	10000	0.5505	1.4356	0.0308
298.15	10000	0.6001	1.4169	0.0304
298.15	10000	0.6499	1.3654	0.0293
298.15	10000	0.6997	1.2906	0.0278
298.15	10000	0.8009	1.0299	0.0223
298.15	10000	0.8506	0.842	0.0187
298.15	10000	0.9494	0.3308	0.0089
313.15	100	0.0502	0.3295	0.009
313.15	100	0.1502	0.8558	0.019
313.15	100	0.2502	1.209	0.0261
313.15	100	0.3504	1.4513	0.0312
313.15	100	0.4001	1.5248	0.0327
313.15	100	0.4502	1.5659	0.0335
313.15	100	0.5006	1.5915	0.0341
313.15	100	0.5501	1.5835	0.0339
313.15	100	0.5997	1.5511	0.0332
313.15	100	0.6495	1.4874	0.0319
313.15	100	0.6994	1.3935	0.03
313.15	100	0.8006	1.0921	0.0237
313.15	100	0.8504	0.8846	0.0197
313.15	100	0.9493	0.3495	0.0094
313.15	10000	0.0502	0.3241	0.0088
313.15	10000	0.1504	0.8392	0.0186
313.15	10000	0.2504	1.1942	0.0258
313.15	10000	0.3507	1.4363	0.0309
313.15	10000	0.4004	1.5093	0.0323
313.15	10000	0.4505	1.5528	0.0333
313.15	10000	0.501	1.5705	0.0336
313.15	10000	0.5505	1.5675	0.0336
313.15	10000	0.6001	1.5368	0.0329
313.15	10000	0.6499	1.4719	0.0316
313.15	10000	0.6997	1.3762	0.0296
313.15	10000	0.8009	1.0765	0.0233
313.15	10000	0.8506	0.8671	0.0193
313.15	10000	0.9494	0.3373	0.0091
328.15	100	0.0502	0.3636	0.0098
328.15	100	0.1502	0.9364	0.0207
328.15	100	0.2502	1.3448	0.029
328.15	100	0.3504	1.6099	0.0345
328.15	100	0.4001	1.6885	0.0361
328.15	100	0.4502	1.7398	0.0372
328.15	100	0.5006	1.7596	0.0376
328.15	100	0.5501	1.7521	0.0375
328.15	100	0.5997	1.7142	0.0367
328.15	100	0.6495	1.6382	0.0351
328.15	100	0.6994	1.5308	0.0329
328.15	100	0.8006	1.1957	0.0259
328.15	100	0.8504	0.9742	0.0216
328.15	100	0.9493	0.3821	0.0103
328.15	10000	0.0502	0.3623	0.0098
328.15	10000	0.1504	0.9299	0.0206
328.15	10000	0.2504	1.3275	0.0286
328.15	10000	0.3507	1.5847	0.034
328.15	10000	0.4004	1.6702	0.0358
328.15	10000	0.4505	1.7263	0.0369
328.15	10000	0.501	1.7469	0.0374
328.15	10000	0.5505	1.7358	0.0371
328.15	10000	0.6001	1.6936	0.0362
328.15	10000	0.6499	1.6176	0.0347
328.15	10000	0.6997	1.5078	0.0324
328.15	10000	0.8009	1.1801	0.0256
328.15	10000	0.8506	0.9526	0.0212
328.15	10000	0.9494	0.3739	0.0101

System: propan-2-ol + 2,4-pentanedione; phases: Liquid
Property: Excess molar enthalpy (molar enthalpy of mixing), kJ/mol (Liquid); method: Flow calorimetry
Temperature, K	Pressure, kPa	Mole fraction of 2,4-pentanedione	Excess molar enthalpy (molar enthalpy of mixing), kJ/mol	uncertainty
298.15	100	0.0503	0.412	0.0107
298.15	100	0.1501	0.9845	0.0217
298.15	100	0.2502	1.3449	0.029
298.15	100	0.3499	1.5629	0.0335
298.15	100	0.3997	1.6329	0.0349
298.15	100	0.4498	1.677	0.0359
298.15	100	0.5001	1.6929	0.0362
298.15	100	0.5507	1.6858	0.036
298.15	100	0.6	1.6518	0.0353
298.15	100	0.6493	1.5889	0.034
298.15	100	0.7	1.4895	0.032
298.15	100	0.7999	1.1926	0.0258
298.15	100	0.8503	0.9796	0.0217
298.15	100	0.9504	0.3825	0.0103
298.15	10000	0.0502	0.3882	0.0101
298.15	10000	0.1497	0.9383	0.0208
298.15	10000	0.2496	1.304	0.0282
298.15	10000	0.3492	1.5349	0.0329
298.15	10000	0.3989	1.6076	0.0344
298.15	10000	0.449	1.6536	0.0354
298.15	10000	0.4993	1.6739	0.0358
298.15	10000	0.5498	1.6675	0.0357
298.15	10000	0.5992	1.6343	0.035
298.15	10000	0.6486	1.5743	0.0337
298.15	10000	0.6994	1.4806	0.0318
298.15	10000	0.7993	1.1897	0.0257
298.15	10000	0.8499	0.9778	0.0217
298.15	10000	0.9503	0.3797	0.0102
313.15	100	0.0503	0.423	0.0111
313.15	100	0.1501	1.0332	0.0228
313.15	100	0.2502	1.4407	0.031
313.15	100	0.3499	1.6863	0.0361
313.15	100	0.3997	1.7627	0.0377
313.15	100	0.4498	1.8065	0.0386
313.15	100	0.5001	1.8226	0.0389
313.15	100	0.5507	1.806	0.0386
313.15	100	0.6	1.7591	0.0376
313.15	100	0.6493	1.682	0.036
313.15	100	0.7	1.5711	0.0337
313.15	100	0.7999	1.238	0.0268
313.15	100	0.8503	0.9972	0.0222
313.15	100	0.9504	0.3908	0.0105
313.15	10000	0.0502	0.4124	0.0109
313.15	10000	0.1497	1.0245	0.0226
313.15	10000	0.2496	1.428	0.0307
313.15	10000	0.3492	1.6806	0.036
313.15	10000	0.3989	1.7563	0.0376
313.15	10000	0.449	1.8029	0.0385
313.15	10000	0.4993	1.8184	0.0389
313.15	10000	0.5498	1.805	0.0386
313.15	10000	0.5992	1.7564	0.0376
313.15	10000	0.6486	1.6793	0.0359
313.15	10000	0.6994	1.5652	0.0336
313.15	10000	0.7993	1.23	0.0266
313.15	10000	0.8499	0.9957	0.0221
313.15	10000	0.9503	0.3858	0.0104
328.15	100	0.0503	0.4308	0.0115
328.15	100	0.1501	1.0951	0.0241
328.15	100	0.2502	1.5256	0.0328
328.15	100	0.3499	1.7977	0.0385
328.15	100	0.3997	1.8738	0.04
328.15	100	0.4498	1.9216	0.041
328.15	100	0.5001	1.9316	0.0412
328.15	100	0.5507	1.9117	0.0408
328.15	100	0.6	1.8579	0.0397
328.15	100	0.6493	1.7673	0.0378
328.15	100	0.7	1.6427	0.0353
328.15	100	0.7999	1.2767	0.0276
328.15	100	0.8503	1.0281	0.0228
328.15	100	0.9504	0.3929	0.0107
328.15	10000	0.0502	0.4308	0.0114
328.15	10000	0.1497	1.0799	0.0238
328.15	10000	0.2496	1.5136	0.0325
328.15	10000	0.3492	1.7821	0.0381
328.15	10000	0.3989	1.8633	0.0398
328.15	10000	0.449	1.9088	0.0408
328.15	10000	0.4993	1.9235	0.0411
328.15	10000	0.5498	1.9043	0.0407
328.15	10000	0.5992	1.8529	0.0396
328.15	10000	0.6486	1.7662	0.0378
328.15	10000	0.6994	1.64	0.0352
328.15	10000	0.7993	1.2714	0.0275
328.15	10000	0.8499	1.0201	0.0227
328.15	10000	0.9503	0.3865	0.0106
