Measured thermophysical data. Changes in Aggregation Patterns Detected by Diffusion, Viscosity, and Surface Tension in Water + 2-(Diethylamino)Ethanol Mixtures at Different Temperatures
Source: J. Chem. Eng. Data, 2007, 10.1021/je700350b
Compound 1: (diethylamino)ethanol, C6H15NO, InChI=1S/C6H15NO/c1-3-7(4-2)5-6-8/h8H,3-6H2,1-2H3
Compound 2: water, H2O, InChI=1S/H2O/h1H2

System: (diethylamino)ethanol; phases: Liquid
Fixed: Pressure, kPa = 101.325
Property: Mass density, kg/m3 (Liquid); method: Vibrating tube method
Temperature, K	Mass density, kg/m3	uncertainty
293.15	884.14	0.3
298.15	879.5	0.3

System: (diethylamino)ethanol + water; phases: Liquid, Air at 1 atmosphere
Property: Surface tension liquid-gas, N/m (Liquid); method: Ring tensiometer
Temperature, K	Mole fraction of (diethylamino)ethanol	Surface tension liquid-gas, N/m	uncertainty
283.15	0	0.07374	0.00227
283.15	0.00104	0.06291	0.00202
283.15	0.00111	0.06283	0.00202
283.15	0.0013	0.06232	0.002
283.15	0.00336	0.05532	0.00184
283.15	0.00503	0.05403	0.00167
283.15	0.00679	0.05098	0.00158
283.15	0.02372	0.04365	0.00137
283.15	0.03998	0.03905	0.00123
283.15	0.06011	0.03717	0.00116
283.15	0.07276	0.03626	0.00113
283.15	0.12527	0.03478	0.00108
283.15	0.17488	0.03338	0.00105
283.15	0.25031	0.03274	0.00102
283.15	0.35154	0.03185	0.001
283.15	0.4018	0.03132	0.00098
283.15	0.50381	0.03102	0.00097
283.15	0.608	0.03063	0.00096
283.15	0.71205	0.03036	0.00095
283.15	0.75029	0.03008	0.00094
283.15	0.8542	0.02969	0.00093
283.15	1	0.02879	0.0009
288.15	0	0.07314	0.00225
288.15	0.00104	0.06206	0.00191
288.15	0.00111	0.06198	0.00191
288.15	0.0013	0.06147	0.00189
288.15	0.00336	0.05427	0.00168
288.15	0.00503	0.05311	0.00164
288.15	0.00679	0.04993	0.00155
288.15	0.02372	0.04261	0.00132
288.15	0.03998	0.03843	0.0012
288.15	0.06011	0.03656	0.00114
288.15	0.07276	0.03584	0.00112
288.15	0.12527	0.03438	0.00107
288.15	0.17488	0.03258	0.00102
288.15	0.25031	0.03222	0.00101
288.15	0.35154	0.03124	0.00098
288.15	0.4018	0.03072	0.00096
288.15	0.50381	0.03062	0.00096
288.15	0.608	0.03023	0.00095
288.15	0.71205	0.02996	0.00094
288.15	0.75029	0.02969	0.00093
288.15	0.8542	0.0293	0.00092
288.15	1	0.02839	0.00089
293.15	0	0.07259	0.00223
293.15	0.00104	0.06143	0.00189
293.15	0.00111	0.06134	0.00189
293.15	0.0013	0.06062	0.00187
293.15	0.00336	0.05343	0.00165
293.15	0.00503	0.05235	0.00162
293.15	0.00679	0.04858	0.00151
293.15	0.02372	0.04189	0.0013
293.15	0.03998	0.0376	0.00117
293.15	0.06011	0.036	0.00112
293.15	0.07276	0.03506	0.00109
293.15	0.12527	0.03388	0.00106
293.15	0.17488	0.03218	0.00101
293.15	0.25031	0.03182	0.00099
293.15	0.35154	0.03073	0.00096
293.15	0.4018	0.03023	0.00095
293.15	0.50381	0.03022	0.00095
293.15	0.608	0.02973	0.00093
293.15	0.71205	0.02966	0.00093
293.15	0.75029	0.02929	0.00092
293.15	0.8542	0.0288	0.0009
293.15	1	0.02799	0.00088
298.15	0	0.07184	0.00221
298.15	0.00104	0.0608	0.00187
298.15	0.00111	0.0607	0.00187
298.15	0.0013	0.05988	0.00185
298.15	0.00336	0.05259	0.00163
298.15	0.00503	0.05141	0.00159
298.15	0.00679	0.04743	0.00147
298.15	0.02372	0.04085	0.00127
298.15	0.03998	0.03688	0.00115
298.15	0.06011	0.03523	0.0011
298.15	0.07276	0.03459	0.00108
298.15	0.12527	0.03318	0.00104
298.15	0.17488	0.03158	0.00099
298.15	0.25031	0.03121	0.00098
298.15	0.35154	0.03022	0.00095
298.15	0.4018	0.02973	0.00093
298.15	0.50381	0.02972	0.00093
298.15	0.608	0.02923	0.00092
298.15	0.71205	0.02915	0.00091
298.15	0.75029	0.0288	0.0009
298.15	0.8542	0.02841	0.00089
298.15	1	0.0276	0.00087
303.15	0	0.0712	0.00098
303.15	0.00104	0.06006	0.00092
303.15	0.00111	0.05995	0.00092
303.15	0.0013	0.05924	0.00092
303.15	0.00336	0.05186	0.00087
303.15	0.00503	0.05047	0.00072
303.15	0.00679	0.0465	0.00067
303.15	0.02372	0.03992	0.00058
303.15	0.03998	0.03596	0.00053
303.15	0.06011	0.03447	0.00051
303.15	0.07276	0.03387	0.00051
303.15	0.12527	0.03248	0.00049
303.15	0.17488	0.03078	0.00046
303.15	0.25031	0.03081	0.00047
303.15	0.35154	0.02972	0.00045
303.15	0.4018	0.02934	0.00044
303.15	0.50381	0.02922	0.00045
303.15	0.608	0.02883	0.00044
303.15	0.71205	0.02865	0.00044
303.15	0.75029	0.0283	0.00043
303.15	0.8542	0.02791	0.00043
303.15	1	0.0272	0.00042

System: (diethylamino)ethanol + water; phases: Liquid
Fixed: Pressure, kPa = 101
Property: Binary diffusion coefficient, m2/s (Liquid); method: Taylor dispersion method
Temperature, K	Mole fraction of (diethylamino)ethanol	Binary diffusion coefficient, m2/s	uncertainty
298.15	0.00427	6.17e-10	0.029
298.15	0.01425	4.95e-10	0.024
298.15	0.03523	2.95e-10	0.016
298.15	0.05087	2.23e-10	0.014
298.15	0.05118	2.22e-10	0.014
298.15	0.07013	1.58e-10	0.011
298.15	0.09711	1.32e-10	0.01
298.15	0.10044	1.26e-10	0.01
298.15	0.14671	1.07e-10	0.01
303.15	0.00278	7.11e-10	0.033
303.15	0.00524	6.5e-10	0.031
303.15	0.00781	6.39e-10	0.03
303.15	0.01032	5.82e-10	0.028
303.15	0.01281	5.63e-10	0.027
303.15	0.01536	5.39e-10	0.026
303.15	0.01779	4.82e-10	0.024
303.15	0.02026	4.54e-10	0.023
303.15	0.02731	4.06e-10	0.021
303.15	0.0382	3.14e-10	0.017
303.15	0.05024	2.55e-10	0.015
303.15	0.07362	1.77e-10	0.012
303.15	0.09846	1.53e-10	0.011
303.15	0.1247	1.37e-10	0.011
303.15	0.14757	1.29e-10	0.01
303.15	0.18011	1.32e-10	0.01

System: (diethylamino)ethanol + water; phases: Liquid
Fixed: Pressure, kPa = 101.325
Property: Viscosity, Pa*s (Liquid); method: CAPTUB:UFactor:2
Temperature, K	Mole fraction of (diethylamino)ethanol	Viscosity, Pa*s	uncertainty
298.15	0	0.00089	1.4e-05
298.15	0.01005	0.001201	1.9e-05
298.15	0.02016	0.001536	2.4e-05
298.15	0.03	0.001949	3e-05
298.15	0.04005	0.002421	3.7e-05
298.15	0.05946	0.003473	5.4e-05
298.15	0.06152	0.00351	5.4e-05
298.15	0.07026	0.004128	6.4e-05
298.15	0.08762	0.005181	8.1e-05
298.15	0.09008	0.005347	8.4e-05
298.15	0.11005	0.006615	0.000104
298.15	0.12003	0.007243	0.000114
298.15	0.13008	0.007863	0.000125
298.15	0.14007	0.008511	0.000136
298.15	0.1483	0.00896	0.000144
298.15	0.16025	0.009677	0.000156
298.15	0.17038	0.010258	0.000167
298.15	0.19047	0.011306	0.000186
298.15	0.2004	0.011763	0.000195
298.15	0.21042	0.012222	0.000204
298.15	0.22	0.012662	0.000212
298.15	0.23006	0.013043	0.00022
298.15	0.24008	0.013418	0.000227
298.15	0.25302	0.013843	0.000235
298.15	0.26736	0.01424	0.000243
298.15	0.27008	0.014252	0.000244
298.15	0.28008	0.014548	0.00025
298.15	0.29002	0.014764	0.000254
298.15	0.30219	0.014985	0.000259
298.15	0.34998	0.01543	0.000268
298.15	0.39992	0.014977	0.000258
298.15	0.45066	0.014581	0.00025
298.15	0.50007	0.013447	0.000228
298.15	0.55038	0.012285	0.000205
298.15	0.60012	0.010959	0.00018
298.15	0.65141	0.009672	0.000156
298.15	0.70005	0.008576	0.000137
298.15	0.75077	0.007471	0.000118
298.15	0.80013	0.006597	0.000104
298.15	0.85076	0.005743	9e-05
298.15	0.90009	0.005063	7.9e-05
298.15	0.95009	0.004494	7e-05
298.15	1	0.00401	6.2e-05
303.15	0	0.000794	1.3e-05
303.15	0.01005	0.001062	1.6e-05
303.15	0.02016	0.001333	2e-05
303.15	0.03976	0.002025	3.1e-05
303.15	0.05015	0.002464	3.8e-05
303.15	0.06028	0.002899	4.4e-05
303.15	0.07004	0.003354	5.1e-05
303.15	0.08051	0.00386	6e-05
303.15	0.08982	0.004289	6.6e-05
303.15	0.11005	0.005269	8.2e-05
303.15	0.12003	0.005728	8.9e-05
303.15	0.13008	0.006216	9.7e-05
303.15	0.14007	0.006673	0.000104
303.15	0.15113	0.007151	0.000112
303.15	0.16025	0.007537	0.000118
303.15	0.17038	0.007965	0.000125
303.15	0.18969	0.008687	0.000138
303.15	0.19985	0.009003	0.000143
303.15	0.21042	0.009393	0.00015
303.15	0.22	0.009709	0.000155
303.15	0.23006	0.009979	0.00016
303.15	0.24008	0.010256	0.000165
303.15	0.2498	0.010478	0.000169
303.15	0.26736	0.010836	0.000176
303.15	0.27008	0.010859	0.000176
303.15	0.28008	0.011046	0.000179
303.15	0.29002	0.011207	0.000182
303.15	0.30033	0.011246	0.000183
303.15	0.35001	0.011498	0.000188
303.15	0.39965	0.011471	0.000187
303.15	0.43299	0.011121	0.000181
303.15	0.4995	0.010243	0.000165
303.15	0.54983	0.009382	0.00015
303.15	0.59971	0.008485	0.000134
303.15	0.64986	0.007581	0.000119
303.15	0.70009	0.006746	0.000105
303.15	0.74978	0.00597	9.3e-05
303.15	0.79999	0.005299	8.3e-05
303.15	0.84995	0.004701	7.3e-05
303.15	0.90003	0.004196	6.5e-05
303.15	0.94999	0.003742	5.8e-05
303.15	1	0.003375	5.2e-05
