Measured thermophysical data. Phase Equilibrium of Biodiesel Compounds for the Triolein + Palmitic Acid + Methanol System with Dimethyl Ether as Cosolvent
Source: J. Chem. Eng. Data, 2008, 10.1021/je700711n
Compound 1: 1,2,3-tri(cis-9-octadecenoyl)glycerol, C57H104O6, InChI=1S/C57H104O6/c1-4-7-10-13-16-19-22-25-28-31-34-37-40-43-46-49-55(58)61-52-54(63-57(60)51-48-45-42-39-36-33-30-27-24-21-18-15-12-9-6-3)53-62-56(59)50-47-44-41-38-35-32-29-26-23-20-17-14-11-8-5-2/h25-30,54H,4-24,31-53H2,1-3H3/b28-25-,29-26-,30-27-, purity 90%
Compound 2: methanol, CH4O, InChI=1S/CH4O/c1-2/h2H,1H3, purity 99%
Compound 3: dimethyl ether, C2H6O, InChI=1S/C2H6O/c1-3-2/h1-2H3, purity 99%

System: methanol + dimethyl ether + 1,2,3-tri(cis-9-octadecenoyl)glycerol; phases: Liquid mixture 1, Liquid mixture 2, Gas
Property: Vapor or sublimation pressure, kPa (Liquid mixture 1); method: Closed cell (Static) method
Mole fraction of 1,2,3-tri(cis-9-octadecenoyl)glycerol	Temperature, K	Vapor or sublimation pressure, kPa	uncertainty
0.075	318.85	498	45
0.086	345.45	658	80
0.088	315.35	446	65
0.097	311.35	435	65
0.107	336.05	527	62
0.108	286.65	229	60
0.118	330.35	481	59
0.12	373.35	588	41
0.131	304.35	314	56
0.132	360.75	560	48
0.159	347.35	392	77
0.16	307.65	256	52
0.25	317.85	51	57

System: methanol + dimethyl ether + 1,2,3-tri(cis-9-octadecenoyl)glycerol; phases: Liquid mixture 1, Liquid mixture 2, Gas
Property: Mole fraction of methanol (Liquid mixture 1); method: synthetic method
Mole fraction of 1,2,3-tri(cis-9-octadecenoyl)glycerol	Temperature, K	Mole fraction of methanol	uncertainty
0.075	318.85	0.451	0.024
0.086	345.45	0.518	0.039
0.088	315.35	0.434	0.05
0.097	311.35	0.395	0.05
0.107	336.05	0.534	0.033
0.108	286.65	0.322	0.048
0.118	330.35	0.478	0.054
0.12	373.35	0.713	0.021
0.131	304.35	0.394	0.052
0.132	360.75	0.659	0.032
0.159	347.35	0.645	0.038
0.16	307.65	0.478	0.052
0.25	317.85	0.75	0.06
