Measured thermophysical data. Activity Coefficients and Volumetric Properties for the NaI + Maltose + Water System at 298.15 K
Source: J. Chem. Eng. Data, 2008, 10.1021/je700366w
Compound 1: D-maltose, C12H22O11, InChI=1S/C12H22O11/c13-1-3-5(15)6(16)9(19)12(22-3)23-10-4(2-14)21-11(20)8(18)7(10)17/h3-20H,1-2H2/t3-,4-,5-,6+,7-,8-,9-,10-,11?,12-/m1/s1
Compound 2: sodium iodide, INa, InChI=1S/HI.Na/h1H;/q;+1/p-1
Compound 3: water, H2O, InChI=1S/H2O/h1H2

System: D-maltose + water; phases: Liquid
Fixed: Pressure, kPa = 101
Fixed: Temperature, K = 298.15
Property: Mass density, kg/m3 (Liquid); method: Vibrating tube method
Mass fraction of D-maltose	Mass density, kg/m3	uncertainty
0.05	1016.777	1.322
0.1	1037.258	1.384
0.15	1058.434	1.449
0.2	1080.438	1.519
0.25	1103.065	1.592
0.3	1126.587	1.669

System: D-maltose + sodium iodide + water; phases: Liquid
Fixed: Pressure, kPa = 101
Fixed: Temperature, K = 298.15
Property: Mass density, kg/m3 (Liquid); method: Vibrating tube method
Mass fraction of D-maltose	Molality, mol/kg of sodium iodide	Mass density, kg/m3	uncertainty
0.05	0	1016.777	1.322
0.05	0.15	1033.092	1.371
0.05	0.3	1049.173	1.42
0.05	0.5	1070.302	1.485
0.05	0.75	1096.243	1.567
0.05	1	1121.646	1.648
0.1	0	1037.258	1.384
0.1	0.15	1052.884	1.431
0.1	0.3	1068.298	1.479
0.1	0.5	1088.541	1.542
0.1	0.75	1113.389	1.622
0.1	1	1137.722	1.701
0.15	0	1058.434	1.449
0.15	0.15	1073.337	1.495
0.15	0.3	1088.046	1.541
0.15	0.5	1107.386	1.603
0.15	0.75	1131.116	1.68
0.15	1	1154.387	1.756
0.2	0	1080.438	1.519
0.2	0.15	1094.605	1.563
0.2	0.3	1108.584	1.608
0.2	0.5	1126.969	1.667
0.2	0.75	1149.568	1.741
0.2	1	1171.686	1.815
0.25	0	1103.065	1.592
0.25	0.15	1116.471	1.635
0.25	0.3	1129.711	1.677
0.25	0.5	1147.136	1.734
0.25	0.75	1168.534	1.805
0.25	1	1189.561	1.876
0.3	0	1126.587	1.669
0.3	0.15	1139.223	1.71
0.3	0.3	1151.702	1.751
0.3	0.5	1168.125	1.805
0.3	0.75	1188.325	1.873
0.3	1	1208.181	1.941
