Measured thermophysical data. Isothermal Vapor-Liquid Equilibrium Data for the System Methanol + Toluene + Triphenylbenzylphosphonium Chloride
Source: J. Chem. Eng. Data, 2007, 10.1021/je700184q
Compound 1: methanol, CH4O, InChI=1S/CH4O/c1-2/h2H,1H3, purity 99.8%
Compound 2: toluene, C7H8, InChI=1S/C7H8/c1-7-5-3-2-4-6-7/h2-6H,1H3, purity 99.5%
Compound 3: benzyltriphenylphosphonium chloride, C25H22ClP, InChI=1S/C25H22P.ClH/c1-5-13-22(14-6-1)21-26(23-15-7-2-8-16-23,24-17-9-3-10-18-24)25-19-11-4-12-20-25;/h1-20H,21H2;1H/q+1;/p-1, purity 99%

System: methanol + toluene + benzyltriphenylphosphonium chloride; phases: Gas, Liquid
Property: Mole fraction of methanol (Gas); method: Chromatography
Temperature, K	Solvent: Mole fraction of methanol	Molality, mol/kg of benzyltriphenylphosphonium chloride	Mole fraction of methanol	uncertainty
313.15	0.2	0	0.786	0.016
313.15	0.2	0.1	0.792	0.016
313.15	0.2	0.5	0.793	0.016
313.15	0.2	1	0.795	0.016
313.15	0.2	1.5	0.796	0.017
313.15	0.2	2	0.797	0.017
313.15	0.3	0	0.791	0.016
313.15	0.3	0.1	0.807	0.016
313.15	0.3	0.5	0.811	0.016
313.15	0.3	1	0.815	0.016
313.15	0.3	1.5	0.818	0.016
313.15	0.3	2	0.821	0.016
313.15	0.45	0	0.811	0.016
313.15	0.45	0.1	0.83	0.016
313.15	0.45	0.5	0.835	0.016
313.15	0.45	1	0.84	0.016
313.15	0.45	1.5	0.844	0.016
313.15	0.45	2	0.847	0.016
313.15	0.6	0	0.82	0.016
313.15	0.6	0.1	0.841	0.016
313.15	0.6	0.5	0.846	0.016
313.15	0.6	1	0.851	0.016
313.15	0.6	1.5	0.855	0.016
313.15	0.6	2	0.859	0.016
313.15	0.7	0	0.828	0.017
313.15	0.7	0.1	0.856	0.017
313.15	0.7	0.5	0.863	0.017
313.15	0.7	1	0.87	0.016
313.15	0.7	1.5	0.876	0.016
313.15	0.7	2	0.881	0.016
313.15	0.9	0	0.896	0.017
313.15	0.9	0.1	0.91	0.016
313.15	0.9	0.5	0.914	0.017
313.15	0.9	1	0.917	0.016
313.15	0.9	1.5	0.92	0.016
313.15	0.9	2	0.923	0.016
318.15	0.2	0	0.776	0.016
318.15	0.2	0.1	0.784	0.017
318.15	0.2	0.5	0.786	0.017
318.15	0.2	1	0.789	0.017
318.15	0.2	1.5	0.79	0.017
318.15	0.2	2	0.792	0.017
318.15	0.3	0	0.792	0.016
318.15	0.3	0.1	0.809	0.016
318.15	0.3	0.5	0.813	0.016
318.15	0.3	1	0.817	0.016
318.15	0.3	1.5	0.821	0.016
318.15	0.3	2	0.824	0.016
318.15	0.45	0	0.802	0.016
318.15	0.45	0.1	0.82	0.016
318.15	0.45	0.5	0.825	0.016
318.15	0.45	1	0.83	0.016
318.15	0.45	1.5	0.834	0.016
318.15	0.45	2	0.837	0.016
318.15	0.6	0	0.81	0.016
318.15	0.6	0.1	0.832	0.016
318.15	0.6	0.5	0.842	0.016
318.15	0.6	1	0.842	0.016
318.15	0.6	1.5	0.846	0.016
318.15	0.6	2	0.85	0.016
318.15	0.7	0	0.823	0.018
318.15	0.7	0.1	0.848	0.017
318.15	0.7	0.5	0.86	0.017
318.15	0.7	1	0.86	0.017
318.15	0.7	1.5	0.865	0.017
318.15	0.7	2	0.87	0.017
318.15	0.9	0	0.935	0.018
318.15	0.9	0.1	0.922	0.017
318.15	0.9	0.5	0.938	0.017
318.15	0.9	1	0.938	0.017
318.15	0.9	1.5	0.944	0.017
318.15	0.9	2	0.95	0.017

System: methanol + toluene; phases: Liquid, Gas
Property: Boiling temperature at pressure P, K (Liquid); method: Closed cell (Static) method
Mole fraction of methanol	Mole fraction of methanol	Boiling temperature at pressure P, K	uncertainty
0.786	0.2	313.15	0.22
0.791	0.3	313.15	0.21
0.811	0.45	313.15	0.18
0.82	0.6	313.15	0.16
0.828	0.7	313.15	0.15
0.896	0.9	313.15	0.12
0.776	0.2	318.15	0.22
0.792	0.3	318.15	0.21
0.802	0.45	318.15	0.18
0.81	0.6	318.15	0.16
0.823	0.7	318.15	0.15
0.935	0.9	318.15	0.12
