Measured thermophysical data. Liquid-Liquid Equilibria of Aqueous Two-Phase Systems Containing 1-Butyl-3-methylimidazolium Bromide and Potassium Phosphate or Dipotassium Hydrogen Phosphate at 298.15 K
Source: J. Chem. Eng. Data, 2007, 10.1021/je700077f
Compound 1: 1-butyl-3-methylimidazolium bromide, C8H15BrN2, InChI=1S/C8H15N2.BrH/c1-3-4-5-10-7-6-9(2)8-10;/h6-8H,3-5H2,1-2H3;1H/q+1;/p-1, purity 98%
Compound 2: tripotassium phosphate, K3O4P, InChI=1S/3K.H3O4P/c;;;1-5(2,3)4/h;;;(H3,1,2,3,4)/q3*+1;/p-3, purity 98%
Compound 3: dipotassium hydrogen phosphate, HK2O4P, InChI=1S/2K.H3O4P/c;;1-5(2,3)4/h;;(H3,1,2,3,4)/q2*+1;/p-2, purity 98%
Compound 4: water, H2O, InChI=1S/H2O/h1H2

System: water + tripotassium phosphate + 1-butyl-3-methylimidazolium bromide; phases: Liquid mixture 1, Liquid mixture 2
Fixed: Pressure, kPa = 101
Fixed: Temperature, K = 298.15
Property: Mass fraction of tripotassium phosphate (Liquid mixture 1); method: Index of refraction calibration data
Property: Mass fraction of 1-butyl-3-methylimidazolium bromide (Liquid mixture 2); method: Index of refraction calibration data
Property: Mass fraction of tripotassium phosphate (Liquid mixture 2); method: Index of refraction calibration data
Mass fraction of 1-butyl-3-methylimidazolium bromide	Mass fraction of tripotassium phosphate	uncertainty	Mass fraction of 1-butyl-3-methylimidazolium bromide	uncertainty	Mass fraction of tripotassium phosphate	uncertainty
0.6147	0.006	0.0029	0.0027	0.0027	0.3919	
0.535	0.0122	0.0032	0.0183	0.007	0.3333	
0.5035	0.0173	0.0051	0.0146	0.0068	0.3226	
0.4591	0.0248	0.0068	0.0306	0.0099	0.2924	
0.399	0.0423	0.0074	0.0551	0.0092	0.2496	

System: water + tripotassium phosphate + 1-butyl-3-methylimidazolium bromide; phases: Liquid mixture 1, Liquid mixture 2
Fixed: Pressure, kPa = 101
Fixed: Temperature, K = 298.15
Property: Mass fraction of tripotassium phosphate (Liquid mixture 1); method: Titration method
Mass fraction of 1-butyl-3-methylimidazolium bromide	Mass fraction of tripotassium phosphate	uncertainty
0.0706	0.2646	0.0106
0.0776	0.2568	0.0103
0.0852	0.2486	0.0099
0.0938	0.2396	0.0096
0.1042	0.2298	0.0092
0.1129	0.2217	0.0089
0.127	0.2096	0.0084
0.1452	0.1952	0.0078
0.1612	0.1826	0.0073
0.1797	0.1687	0.0067
0.194	0.1581	0.0063
0.2259	0.1349	0.0054
0.2579	0.1147	0.0046
0.292	0.0947	0.0038
0.3254	0.0767	0.0031
0.3559	0.0637	0.0025
0.3846	0.051	0.002
0.486	0.0223	0.0009
0.5386	0.0153	0.0006
0.6126	0.0092	0.0004

System: water + dipotassium hydrogen phosphate + 1-butyl-3-methylimidazolium bromide; phases: Liquid mixture 1, Liquid mixture 2
Fixed: Pressure, kPa = 101
Fixed: Temperature, K = 298.15
Property: Mass fraction of dipotassium hydrogen phosphate (Liquid mixture 1); method: Index of refraction calibration data
Property: Mass fraction of 1-butyl-3-methylimidazolium bromide (Liquid mixture 2); method: Index of refraction calibration data
Property: Mass fraction of dipotassium hydrogen phosphate (Liquid mixture 2); method: Index of refraction calibration data
Mass fraction of 1-butyl-3-methylimidazolium bromide	Mass fraction of dipotassium hydrogen phosphate	uncertainty	Mass fraction of 1-butyl-3-methylimidazolium bromide	uncertainty	Mass fraction of dipotassium hydrogen phosphate	uncertainty
0.582	0.0102	0.0006	0.0169	0.002	0.4065	
0.5198	0.0172	0.001	0.0168	0.002	0.3749	
0.4695	0.0258	0.0015	0.0144	0.0017	0.3603	
0.4596	0.027	0.0016	0.0169	0.002	0.3434	
0.403	0.0464	0.0028	0.0211	0.0025	0.3282	

System: water + dipotassium hydrogen phosphate + 1-butyl-3-methylimidazolium bromide; phases: Liquid mixture 1, Liquid mixture 2
Fixed: Pressure, kPa = 101
Fixed: Temperature, K = 298.15
Property: Mass fraction of dipotassium hydrogen phosphate (Liquid mixture 1); method: Titration method
Mass fraction of 1-butyl-3-methylimidazolium bromide	Mass fraction of dipotassium hydrogen phosphate	uncertainty
0.0146	0.3193	0.0128
0.0312	0.2812	0.0112
0.041	0.2687	0.0107
0.0489	0.2581	0.0103
0.0563	0.2489	0.01
0.0614	0.2439	0.0098
0.0669	0.2365	0.0095
0.0683	0.236	0.0094
0.0733	0.2312	0.0092
0.0787	0.2248	0.009
0.0835	0.2214	0.0089
0.0946	0.2114	0.0085
0.0949	0.2111	0.0084
0.1117	0.1977	0.0079
0.1299	0.1843	0.0074
0.1423	0.1759	0.007
0.1636	0.1624	0.0065
0.1731	0.1555	0.0062
0.1935	0.1434	0.0057
0.2141	0.1302	0.0052
0.2363	0.1181	0.0047
0.2544	0.1072	0.0043
0.2984	0.085	0.0034
0.335	0.0677	0.0027
0.3441	0.0637	0.0025
0.3937	0.0453	0.0018
0.4108	0.04	0.0016
0.4433	0.0309	0.0012
0.4693	0.0238	0.001
0.504	0.0184	0.0007
