Measured thermophysical data. Isobaric Vapor-Liquid Equilibria for Ethyl Acetate + Ethanol + 1-Ethyl-3-methylimidazolium Trifluoromethanesulfonate at 100 kPa
Source: J. Chem. Eng. Data, 2007, 10.1021/je700322p
Compound 1: ethyl acetate, C4H8O2, InChI=1S/C4H8O2/c1-3-6-4(2)5/h3H2,1-2H3, purity 99.5%
Compound 2: ethanol, C2H6O, InChI=1S/C2H6O/c1-2-3/h3H,2H2,1H3, purity 99.9%
Compound 3: 1-ethyl-3-methylimidazolium trifluoromethanesulfonate, C7H11F3N2O3S, InChI=1S/C6H11N2.CHF3O3S/c1-3-8-5-4-7(2)6-8;2-1(3,4)8(5,6)7/h4-6H,3H2,1-2H3;(H,5,6,7)/q+1;/p-1, purity 98%

System: ethyl acetate; phases: Liquid, Gas
Property: Vapor or sublimation pressure, kPa (Liquid); method: EBULLIO:UFactor:16
Temperature, K	Vapor or sublimation pressure, kPa	uncertainty
310	21.72	0.17
313	24.78	0.17
316	28.18	0.18
319	31.95	0.18
322	36.12	0.19
325	40.73	0.19
328	45.8	0.2
331	51.36	0.2
334	57.46	0.21
337	64.13	0.22
340	71.4	0.23
343	79.32	0.24
346	87.93	0.25
349	97.26	0.26
352	107.36	0.27
355	118.27	0.29
358	130.03	0.3
359	134.15	0.31

System: ethanol; phases: Liquid, Gas
Property: Vapor or sublimation pressure, kPa (Liquid); method: EBULLIO:UFactor:16
Temperature, K	Vapor or sublimation pressure, kPa	uncertainty
321	26.41	0.18
324	30.53	0.18
327	35.19	0.19
330	40.44	0.19
333	46.34	0.2
336	52.96	0.21
339	60.35	0.21
342	68.6	0.22
345	77.77	0.23
348	87.96	0.25
351	99.24	0.26
354	111.7	0.28
357	125.44	0.3
359	135.37	0.31

System: ethanol + ethyl acetate; phases: Liquid, Gas
Fixed: Pressure, kPa = 100
Property: Boiling temperature at pressure P, K (Liquid); method: Ebulliometric method (Recirculating still)
Mole fraction of ethyl acetate	Boiling temperature at pressure P, K	uncertainty
0	351.21	0.09
0.021	350.45	0.09
0.043	349.74	0.09
0.074	348.85	0.09
0.121	347.82	0.09
0.168	347.02	0.09
0.217	346.39	0.09
0.26	345.89	0.09
0.303	345.53	0.09
0.355	345.18	0.09
0.402	344.98	0.09
0.448	344.82	0.09
0.493	344.73	0.09
0.54	344.71	0.09
0.584	344.73	0.09
0.624	344.8	0.09
0.666	344.91	0.09
0.69	345.04	0.09
0.717	345.18	0.09
0.744	345.37	0.09
0.767	345.57	0.09
0.79	345.8	0.09
0.818	346.05	0.09
0.835	346.27	0.09
0.851	346.51	0.09
0.875	346.88	0.09
0.9	347.36	0.09
0.937	348.13	0.09
0.975	349.1	0.09
1	349.89	0.09

System: ethanol + ethyl acetate; phases: Gas, Liquid
Fixed: Pressure, kPa = 100
Property: Mole fraction of ethyl acetate (Gas); method: Chromatography
Mole fraction of ethyl acetate	Mole fraction of ethyl acetate	uncertainty
0	0	0.001
0.021	0.048	0.005
0.043	0.091	0.004
0.074	0.147	0.004
0.121	0.212	0.004
0.168	0.272	0.004
0.217	0.317	0.004
0.26	0.358	0.004
0.303	0.392	0.004
0.355	0.428	0.004
0.402	0.458	0.005
0.448	0.486	0.005
0.493	0.514	0.005
0.54	0.542	0.005
0.584	0.568	0.005
0.624	0.593	0.004
0.666	0.621	0.004
0.69	0.637	0.004
0.717	0.657	0.004
0.744	0.679	0.004
0.767	0.699	0.004
0.79	0.72	0.004
0.818	0.74	0.004
0.835	0.759	0.004
0.851	0.774	0.004
0.875	0.803	0.004
0.9	0.833	0.004
0.937	0.888	0.004
0.975	0.951	0.004
1	1	0.001

System: ethyl acetate + 1-ethyl-3-methylimidazolium trifluoromethanesulfonate; phases: Liquid, Gas
Fixed: Pressure, kPa = 100
Property: Boiling temperature at pressure P, K (Liquid); method: EBULLIO:UFactor:2
Mole fraction of 1-ethyl-3-methylimidazolium trifluoromethanesulfonate	Boiling temperature at pressure P, K	uncertainty
0	349.84	0.17
0.0187	349.98	0.17
0.0468	350.02	0.17
0.0769	349.99	0.17
0.1133	350.04	0.17
0.1464	350.05	0.17
0.1748	350.07	0.17
0.2005	350.07	0.17
0.2255	350.19	0.17
0.2478	350.26	0.17
0.2547	350.29	0.17
0.2695	350.34	0.17
0.289	350.55	0.17
0.3106	350.73	0.17
0.3149	350.84	0.17
0.3349	351	0.18
0.3525	351.2	0.18
0.369	351.51	0.18
0.3833	351.85	0.18
0.4054	352.31	0.18
0.409	352.36	0.18
0.4133	352.38	0.18
0.4155	352.5	0.18

System: ethanol + 1-ethyl-3-methylimidazolium trifluoromethanesulfonate; phases: Liquid, Gas
Fixed: Pressure, kPa = 100
Property: Boiling temperature at pressure P, K (Liquid); method: EBULLIO:UFactor:2
Mole fraction of 1-ethyl-3-methylimidazolium trifluoromethanesulfonate	Boiling temperature at pressure P, K	uncertainty
0	351.21	0.17
0.0133	351.51	0.17
0.0234	351.77	0.17
0.0242	351.7	0.17
0.0362	351.84	0.17
0.0393	352	0.17
0.05	352.11	0.17
0.054	352.23	0.17
0.0634	352.48	0.17
0.0683	352.44	0.17
0.077	352.67	0.17
0.0865	352.84	0.17
0.1036	353.13	0.17
0.1172	353.34	0.17
0.1192	353.39	0.17
0.1326	353.7	0.17
0.1529	354.17	0.17
0.1627	354.36	0.17
0.1875	354.98	0.17
0.1913	355.02	0.17
0.1985	355.19	0.17
0.2018	355.27	0.17
0.21	355.54	0.17
0.2142	355.62	0.17
0.2191	355.83	0.17
0.2275	356.09	0.17
0.2282	356.04	0.17
0.2377	356.39	0.17
0.239	356.3	0.17
0.2562	356.83	0.17
0.2668	357.25	0.17
0.2885	357.9	0.17
0.2969	358.25	0.17
0.2999	358.39	0.17
0.3062	358.6	0.17
0.3113	358.74	0.17
0.3221	359.28	0.17
0.3235	359.25	0.17
0.333	359.64	0.17
0.3331	359.75	0.17
0.3661	361.19	0.17
0.3766	361.75	0.17

System: ethanol + ethyl acetate + 1-ethyl-3-methylimidazolium trifluoromethanesulfonate; phases: Liquid, Gas
Fixed: Pressure, kPa = 100
Property: Boiling temperature at pressure P, K (Liquid); method: Ebulliometric method (Recirculating still)
Mole fraction of 1-ethyl-3-methylimidazolium trifluoromethanesulfonate	Solvent: Mole fraction of ethyl acetate	Boiling temperature at pressure P, K	uncertainty
0.047	1	350.02	0.09
0.054	0	352.29	0.1
0.054	0.02	351.45	0.12
0.054	0.045	350.68	0.11
0.054	0.096	349.28	0.11
0.055	0.152	348.13	0.1
0.055	0.216	347.17	0.1
0.055	0.285	346.46	0.1
0.056	0.354	345.97	0.1
0.056	0.425	345.63	0.1
0.056	0.497	345.49	0.1
0.057	0.566	345.5	0.1
0.057	0.633	345.67	0.1
0.057	0.71	345.97	0.1
0.057	0.779	346.48	0.1
0.058	0.849	347.23	0.1
0.058	0.905	348.06	0.1
0.058	0.948	348.85	0.1
0.096	0	353.07	0.1
0.097	0.021	352.09	0.13
0.098	0.043	351.44	0.12
0.1	0.092	350.24	0.11
0.101	0.156	348.89	0.11
0.103	0.74	346.7	0.1
0.103	0.801	347.14	0.1
0.104	0.226	347.82	0.11
0.104	0.535	346.07	0.1
0.104	0.608	346.17	0.1
0.104	0.681	346.36	0.1
0.104	0.869	347.85	0.1
0.105	0.298	347.04	0.1
0.105	0.375	346.53	0.1
0.105	0.457	346.2	0.1
0.105	0.919	348.58	0.1
0.105	0.957	349.25	0.1
0.113	1	350.04	0.09
0.188	0	355.14	0.11
0.192	0.962	349.55	0.1
0.192	0.971	349.68	0.1
0.194	0.022	354.41	0.13
0.194	0.924	349.12	0.1
0.194	0.941	349.33	0.1
0.195	0.045	353.78	0.12
0.196	0.1	352.33	0.12
0.198	0.103	352.18	0.14
0.199	0.161	351.12	0.11
0.199	0.873	348.69	0.09
0.199	0.9	348.93	0.1
0.201	1	350.07	0.09
0.202	0.168	351.01	0.1
0.202	0.218	350.23	0.11
0.203	0.299	349.25	0.13
0.204	0.231	350.08	0.11
0.204	0.289	349.39	0.13
0.205	0.362	348.7	0.11
0.205	0.379	348.63	0.11
0.206	0.801	348.24	0.1
0.206	0.845	348.48	0.1
0.208	0.43	348.27	0.1
0.208	0.505	348	0.1
0.209	0.73	347.95	0.09
0.21	0.589	347.86	0.09
0.21	0.66	347.84	0.09
0.21	0.783	348.18	0.1
0.213	0.727	348	0.1
0.215	0.666	347.87	0.1
0.217	0.594	347.97	0.1
0.289	1	350.55	0.09
0.293	0.957	350.31	0.09
0.296	0.018	357.68	0.13
0.296	0.042	357.01	0.12
0.297	0	358.25	0.11
0.299	0.091	355.79	0.12
0.299	0.914	350.13	0.1
0.3	0.857	349.91	0.1
0.301	0.147	354.66	0.12
0.303	0.209	353.55	0.12
0.304	0.352	351.68	0.11
0.304	0.501	350.49	0.11
0.304	0.571	350.14	0.1
0.305	0.277	352.56	0.11
0.307	0.626	350.03	0.1
0.308	0.425	351.05	0.11
0.308	0.785	349.83	0.1
0.312	0.711	349.95	0.1

System: ethanol + ethyl acetate + 1-ethyl-3-methylimidazolium trifluoromethanesulfonate; phases: Gas, Liquid
Fixed: Pressure, kPa = 100
Property: Mole fraction of ethyl acetate (Gas); method: Chromatography
Mole fraction of 1-ethyl-3-methylimidazolium trifluoromethanesulfonate	Solvent: Mole fraction of ethyl acetate	Mole fraction of ethyl acetate	uncertainty
0.047	1	1	0.001
0.054	0	0	0.001
0.054	0.02	0.045	0.005
0.054	0.045	0.096	0.004
0.054	0.096	0.178	0.004
0.055	0.152	0.257	0.004
0.055	0.216	0.333	0.004
0.055	0.285	0.392	0.005
0.056	0.354	0.45	0.005
0.056	0.425	0.499	0.006
0.056	0.497	0.546	0.006
0.057	0.566	0.592	0.005
0.057	0.633	0.636	0.005
0.057	0.71	0.695	0.005
0.057	0.779	0.75	0.004
0.058	0.849	0.813	0.004
0.058	0.905	0.872	0.004
0.058	0.948	0.925	0.003
0.096	0	0	0.001
0.097	0.021	0.045	0.005
0.098	0.043	0.087	0.004
0.1	0.092	0.177	0.004
0.101	0.156	0.268	0.004
0.103	0.74	0.743	0.004
0.103	0.801	0.79	0.004
0.104	0.226	0.346	0.004
0.104	0.535	0.601	0.005
0.104	0.608	0.651	0.005
0.104	0.681	0.696	0.004
0.104	0.869	0.85	0.004
0.105	0.298	0.416	0.005
0.105	0.375	0.479	0.006
0.105	0.457	0.538	0.006
0.105	0.919	0.903	0.003
0.105	0.957	0.947	0.003
0.113	1	1	0.001
0.188	0	0	0.001
0.192	0.962	0.963	0.003
0.192	0.971	0.97	0.003
0.194	0.022	0.048	0.004
0.194	0.924	0.927	0.003
0.194	0.941	0.943	0.003
0.195	0.045	0.09	0.004
0.196	0.1	0.184	0.004
0.198	0.103	0.191	0.005
0.199	0.161	0.271	0.004
0.199	0.873	0.881	0.003
0.199	0.9	0.907	0.003
0.201	1	1	0.001
0.202	0.168	0.278	0.004
0.202	0.218	0.343	0.004
0.203	0.299	0.433	0.006
0.204	0.231	0.353	0.005
0.204	0.289	0.417	0.006
0.205	0.362	0.484	0.006
0.205	0.379	0.499	0.006
0.206	0.801	0.826	0.003
0.206	0.845	0.861	0.003
0.208	0.43	0.554	0.006
0.208	0.505	0.612	0.005
0.209	0.73	0.774	0.004
0.21	0.589	0.667	0.005
0.21	0.66	0.72	0.004
0.21	0.783	0.815	0.003
0.213	0.727	0.77	0.004
0.215	0.666	0.728	0.005
0.217	0.594	0.682	0.006
0.289	1	1	0.001
0.293	0.957	0.965	0.003
0.296	0.018	0.039	0.005
0.296	0.042	0.088	0.005
0.297	0	0	0.001
0.299	0.091	0.173	0.004
0.299	0.914	0.929	0.003
0.3	0.857	0.886	0.003
0.301	0.147	0.257	0.004
0.303	0.209	0.339	0.005
0.304	0.352	0.491	0.006
0.304	0.501	0.62	0.005
0.304	0.571	0.676	0.005
0.305	0.277	0.417	0.005
0.307	0.626	0.725	0.004
0.308	0.425	0.558	0.006
0.308	0.785	0.833	0.003
0.312	0.711	0.777	0.004
