Measured thermophysical data. Volumetric and Ultrasonic Studies of 1-Ethyl-3-methylimidazolium Trifluoromethanesulfonate Ionic Liquid with Methanol, Ethanol, 1-Propanol, and Water at Several Temperatures
Source: J. Chem. Eng. Data, 2007, 10.1021/je7001804
Compound 1: 1-ethyl-3-methylimidazolium trifluoromethanesulfonate, C7H11F3N2O3S, InChI=1S/C6H11N2.CHF3O3S/c1-3-8-5-4-7(2)6-8;2-1(3,4)8(5,6)7/h4-6H,3H2,1-2H3;(H,5,6,7)/q+1;/p-1, purity 98%
Compound 2: methanol, CH4O, InChI=1S/CH4O/c1-2/h2H,1H3, purity 99.8%
Compound 3: ethanol, C2H6O, InChI=1S/C2H6O/c1-2-3/h3H,2H2,1H3, purity 99.9%
Compound 4: propan-1-ol, C3H8O, InChI=1S/C3H8O/c1-2-3-4/h4H,2-3H2,1H3, purity 99.5%
Compound 5: water, H2O, InChI=1S/H2O/h1H2

System: 1-ethyl-3-methylimidazolium trifluoromethanesulfonate; phases: Liquid
Fixed: Pressure, kPa = 101.325
Property: Speed of sound, m/s (Liquid); method: FPINT:UFactor:2
Temperature, K	Speed of sound, m/s	uncertainty
278.15	1482.23	2.48
288.15	1458.35	2.46
298.15	1435.56	2.45
308.15	1413.16	2.44
318.15	1391.29	2.43
328.15	1369.65	2.42
338.15	1348.51	2.42

System: 1-ethyl-3-methylimidazolium trifluoromethanesulfonate; phases: Liquid
Fixed: Pressure, kPa = 101.325
Property: Mass density, kg/m3 (Liquid); method: VIBTUB:UFactor:8
Temperature, K	Mass density, kg/m3	uncertainty
278.15	1400.51	3.11
288.15	1392.02	3.06
298.15	1383.58	3.02
308.15	1375.19	2.97
318.15	1366.86	2.93
328.15	1358.59	2.88
338.15	1350.38	2.84

System: methanol; phases: Liquid
Fixed: Pressure, kPa = 101.325
Property: Speed of sound, m/s (Liquid); method: Sing-around technique in a fixed-path interferometer
Temperature, K	Speed of sound, m/s	uncertainty
278.15	1169.5	0.64
288.15	1135.49	0.63
298.15	1102.29	0.62
308.15	1069.78	0.6
318.15	1037.71	0.59

System: methanol; phases: Liquid
Fixed: Pressure, kPa = 101.325
Property: Mass density, kg/m3 (Liquid); method: VIBTUB:UFactor:2
Temperature, K	Mass density, kg/m3	uncertainty
278.15	805.25	0.22
288.15	795.89	0.23
298.15	786.49	0.24
308.15	777.02	0.24
318.15	767.45	0.25

System: ethanol; phases: Liquid
Fixed: Pressure, kPa = 101.325
Property: Speed of sound, m/s (Liquid); method: Sing-around technique in a fixed-path interferometer
Temperature, K	Speed of sound, m/s	uncertainty
278.15	1212.52	0.63
288.15	1177.69	0.62
298.15	1142.88	0.61
308.15	1109.16	0.59
318.15	1075.8	0.58
328.15	1042.79	0.57

System: ethanol; phases: Liquid
Fixed: Pressure, kPa = 101.325
Property: Mass density, kg/m3 (Liquid); method: VIBTUB:UFactor:2
Temperature, K	Mass density, kg/m3	uncertainty
278.15	802.14	0.22
288.15	793.65	0.23
298.15	785.1	0.23
308.15	776.44	0.24
318.15	767.63	0.25
328.15	758.62	0.26

System: propan-1-ol; phases: Liquid
Fixed: Pressure, kPa = 101.325
Property: Speed of sound, m/s (Liquid); method: Sing-around technique in a fixed-path interferometer
Temperature, K	Speed of sound, m/s	uncertainty
278.15	1275.27	0.82
288.15	1239.86	0.81
298.15	1205.37	0.8
308.15	1171.41	0.79
318.15	1137.83	0.78
328.15	1104.4	0.77
338.15	1070.97	0.76

System: propan-1-ol; phases: Liquid
Fixed: Pressure, kPa = 101.325
Property: Mass density, kg/m3 (Liquid); method: VIBTUB:UFactor:4
Temperature, K	Mass density, kg/m3	uncertainty
278.15	815.45	0.45
288.15	807.54	0.46
298.15	799.56	0.48
308.15	791.46	0.49
318.15	783.19	0.5
328.15	774.72	0.51
338.15	765.98	0.53

System: methanol + 1-ethyl-3-methylimidazolium trifluoromethanesulfonate; phases: Liquid
Fixed: Pressure, kPa = 101
Property: Speed of sound, m/s (Liquid); method: FPINT:UFactor:2
Temperature, K	Mole fraction of 1-ethyl-3-methylimidazolium trifluoromethanesulfonate	Speed of sound, m/s	uncertainty
278.15	0.0505	1216.34	1.32
278.15	0.1005	1253.28	1.36
278.15	0.1502	1284.95	1.41
278.15	0.1999	1312.52	1.46
278.15	0.3005	1356.49	1.57
278.15	0.4007	1388.69	1.68
278.15	0.4926	1411.35	1.79
278.15	0.6012	1432.72	1.93
278.15	0.6994	1447.85	2.06
278.15	0.7965	1460.58	2.19
278.15	0.8443	1466.36	2.26
278.15	0.8984	1472.01	2.34
278.15	0.9489	1477.51	2.41
288.15	0.0505	1185.98	1.3
288.15	0.1005	1225.28	1.35
288.15	0.1502	1258.61	1.4
288.15	0.1999	1287.07	1.45
288.15	0.3005	1332.02	1.56
288.15	0.4007	1364.73	1.67
288.15	0.4926	1387.66	1.78
288.15	0.6012	1409.11	1.92
288.15	0.6994	1424.43	2.04
288.15	0.7965	1437.19	2.18
288.15	0.8443	1442.97	2.25
288.15	0.8984	1448.67	2.33
288.15	0.9489	1453.96	2.4
298.15	0.0505	1156.48	1.27
298.15	0.1005	1197.97	1.33
298.15	0.1502	1232.8	1.38
298.15	0.1999	1262.1	1.43
298.15	0.3005	1307.97	1.54
298.15	0.4007	1341.25	1.65
298.15	0.4926	1364.43	1.76
298.15	0.6012	1386.04	1.9
298.15	0.6994	1401.54	2.03
298.15	0.7965	1414.37	2.17
298.15	0.8443	1420.23	2.24
298.15	0.8984	1425.92	2.31
298.15	0.9489	1431.14	2.39
308.15	0.0505	1127.52	1.25
308.15	0.1005	1171.25	1.31
308.15	0.1502	1207.4	1.36
308.15	0.1999	1237.54	1.41
308.15	0.3005	1284.33	1.52
308.15	0.4007	1318.17	1.64
308.15	0.4926	1341.66	1.75
308.15	0.6012	1363.41	1.89
308.15	0.6994	1379.13	2.02
308.15	0.7965	1391.99	2.16
308.15	0.8443	1398.03	2.22
308.15	0.8984	1403.71	2.3
308.15	0.9489	1408.8	2.38
318.15	0.0505	1099.19	1.23
318.15	0.1005	1144.83	1.29
318.15	0.1502	1182.47	1.34
318.15	0.1999	1213.45	1.4
318.15	0.3005	1261.19	1.52
318.15	0.4007	1295.51	1.63
318.15	0.4926	1319.4	1.74
318.15	0.6012	1341.24	1.88
318.15	0.6994	1357.34	2.01
318.15	0.7965	1370.14	2.14
318.15	0.8443	1376.24	2.21
318.15	0.8984	1381.97	2.29
318.15	0.9489	1386.98	2.37

System: methanol + 1-ethyl-3-methylimidazolium trifluoromethanesulfonate; phases: Liquid
Fixed: Pressure, kPa = 101
Property: Mass density, kg/m3 (Liquid); method: VIBTUB:UFactor:8
Temperature, K	Mole fraction of 1-ethyl-3-methylimidazolium trifluoromethanesulfonate	Mass density, kg/m3	uncertainty
278.15	0.0505	930.38	0.49
278.15	0.1005	1018.16	0.37
278.15	0.1502	1084.09	0.59
278.15	0.1999	1135.25	0.77
278.15	0.3005	1210.76	1.08
278.15	0.4007	1262.73	1.35
278.15	0.4926	1298.36	1.58
278.15	0.6012	1330.42	1.86
278.15	0.6994	1353.2	2.13
278.15	0.7965	1371.53	2.42
278.15	0.8443	1379.25	2.56
278.15	0.8984	1387.51	2.74
278.15	0.9489	1394.45	2.91
288.15	0.0505	921.13	0.52
288.15	0.1005	1008.98	0.34
288.15	0.1502	1074.98	0.56
288.15	0.1999	1126.21	0.74
288.15	0.3005	1201.81	1.05
288.15	0.4007	1253.87	1.32
288.15	0.4926	1289.56	1.55
288.15	0.6012	1321.68	1.83
288.15	0.6994	1344.52	2.09
288.15	0.7965	1362.92	2.38
288.15	0.8443	1370.67	2.52
288.15	0.8984	1378.95	2.7
288.15	0.9489	1385.93	2.86
298.15	0.0505	911.87	0.55
298.15	0.1005	999.81	0.32
298.15	0.1502	1065.9	0.54
298.15	0.1999	1117.2	0.71
298.15	0.3005	1192.91	1.02
298.15	0.4007	1245.07	1.29
298.15	0.4926	1280.83	1.52
298.15	0.6012	1313.03	1.79
298.15	0.6994	1335.93	2.06
298.15	0.7965	1354.37	2.34
298.15	0.8443	1362.15	2.48
298.15	0.8984	1370.46	2.65
298.15	0.9489	1377.46	2.82
308.15	0.0505	902.59	0.57
308.15	0.1005	990.64	0.34
308.15	0.1502	1056.83	0.51
308.15	0.1999	1108.22	0.68
308.15	0.3005	1184.06	0.99
308.15	0.4007	1236.32	1.26
308.15	0.4926	1272.16	1.49
308.15	0.6012	1304.44	1.76
308.15	0.6994	1327.4	2.02
308.15	0.7965	1345.89	2.3
308.15	0.8443	1353.69	2.44
308.15	0.8984	1362.03	2.61
308.15	0.9489	1369.05	2.78
318.15	0.0505	893.26	0.6
318.15	0.1005	981.42	0.38
318.15	0.1502	1047.74	0.48
318.15	0.1999	1099.25	0.66
318.15	0.3005	1175.24	0.97
318.15	0.4007	1227.62	1.23
318.15	0.4926	1263.55	1.46
318.15	0.6012	1295.91	1.73
318.15	0.6994	1318.93	1.99
318.15	0.7965	1337.48	2.26
318.15	0.8443	1345.3	2.4
318.15	0.8984	1353.66	2.57
318.15	0.9489	1360.7	2.73

System: propan-1-ol + 1-ethyl-3-methylimidazolium trifluoromethanesulfonate; phases: Liquid
Fixed: Pressure, kPa = 101
Property: Speed of sound, m/s (Liquid); method: FPINT:UFactor:2
Temperature, K	Mole fraction of 1-ethyl-3-methylimidazolium trifluoromethanesulfonate	Speed of sound, m/s	uncertainty
278.15	0.0501	1279.79	1.46
278.15	0.1001	1286.31	1.49
278.15	0.1504	1296	1.53
278.15	0.2004	1308.3	1.57
278.15	0.3002	1335.85	1.67
278.15	0.3993	1363.1	1.77
278.15	0.501	1389.17	1.89
278.15	0.6007	1412.25	2
278.15	0.7	1432.27	2.12
278.15	0.7996	1450.34	2.24
278.15	0.8503	1459.01	2.3
278.15	0.8905	1465.75	2.35
278.15	0.951	1475.06	2.42
288.15	0.0501	1247.29	1.44
288.15	0.1001	1255.93	1.47
288.15	0.1504	1267.29	1.51
288.15	0.2004	1280.69	1.55
288.15	0.3002	1309.8	1.65
288.15	0.3993	1337.94	1.76
288.15	0.501	1364.56	1.87
288.15	0.6007	1387.95	1.99
288.15	0.7	1408.42	2.1
288.15	0.7996	1426.71	2.22
288.15	0.8503	1435.49	2.29
288.15	0.8905	1441.91	2.34
288.15	0.951	1451.22	2.41
298.15	0.0501	1215.57	1.41
298.15	0.1001	1226.27	1.45
298.15	0.1504	1239.17	1.49
298.15	0.2004	1253.67	1.54
298.15	0.3002	1284.29	1.64
298.15	0.3993	1313.39	1.74
298.15	0.501	1340.54	1.86
298.15	0.6007	1364.32	1.97
298.15	0.7	1385.16	2.09
298.15	0.7996	1403.79	2.21
298.15	0.8503	1412.66	2.27
298.15	0.8905	1418.96	2.33
298.15	0.951	1428.32	2.4
308.15	0.0501	1184.31	1.39
308.15	0.1001	1197.09	1.43
308.15	0.1504	1211.4	1.47
308.15	0.2004	1227	1.52
308.15	0.3002	1259.12	1.62
308.15	0.3993	1289.2	1.73
308.15	0.501	1316.9	1.85
308.15	0.6007	1341.14	1.96
308.15	0.7	1362.34	2.08
308.15	0.7996	1381.34	2.2
308.15	0.8503	1390.29	2.26
308.15	0.8905	1396.49	2.31
308.15	0.951	1405.94	2.39
318.15	0.0501	1153.43	1.37
318.15	0.1001	1168.11	1.41
318.15	0.1504	1183.85	1.45
318.15	0.2004	1200.55	1.5
318.15	0.3002	1234.23	1.61
318.15	0.3993	1265.31	1.72
318.15	0.501	1293.63	1.83
318.15	0.6007	1318.36	1.95
318.15	0.7	1339.97	2.07
318.15	0.7996	1359.35	2.19
318.15	0.8503	1368.23	2.25
318.15	0.8905	1374.46	2.3
318.15	0.951	1384.01	2.38
328.15	0.0501	1122.65	1.35
328.15	0.1001	1139.17	1.39
328.15	0.1504	1156.49	1.43
328.15	0.2004	1174.29	1.48
328.15	0.3002	1209.53	1.59
328.15	0.3993	1241.71	1.7
328.15	0.501	1270.71	1.82
328.15	0.6007	1295.93	1.94
328.15	0.7	1317.93	2.06
328.15	0.7996	1337.64	2.18
328.15	0.8503	1346.57	2.24
328.15	0.8905	1352.89	2.29
328.15	0.951	1362.5	2.37
338.15	0.0501	1092.05	1.33
338.15	0.1001	1110.24	1.37
338.15	0.1504	1129.26	1.42
338.15	0.2004	1148.19	1.47
338.15	0.3002	1185	1.58
338.15	0.3993	1218.28	1.69
338.15	0.501	1248.07	1.81
338.15	0.6007	1273.89	1.93
338.15	0.7	1296.24	2.05
338.15	0.7996	1316.46	2.17
338.15	0.8503	1325.31	2.23
338.15	0.8905	1331.71	2.28
338.15	0.951	1341.44	2.36

System: propan-1-ol + 1-ethyl-3-methylimidazolium trifluoromethanesulfonate; phases: Liquid
Fixed: Pressure, kPa = 101
Property: Mass density, kg/m3 (Liquid); method: VIBTUB:UFactor:8
Temperature, K	Mole fraction of 1-ethyl-3-methylimidazolium trifluoromethanesulfonate	Mass density, kg/m3	uncertainty
278.15	0.0501	885.81	0.66
278.15	0.1001	946.17	0.5
278.15	0.1504	998.62	0.39
278.15	0.2004	1044.76	0.55
278.15	0.3002	1122.37	0.88
278.15	0.3993	1184.64	1.18
278.15	0.501	1237.17	1.49
278.15	0.6007	1280.35	1.77
278.15	0.7	1316.97	2.08
278.15	0.7996	1348.61	2.39
278.15	0.8503	1363.09	2.56
278.15	0.8905	1373.86	2.7
278.15	0.951	1389.1	2.91
288.15	0.0501	877.77	0.68
288.15	0.1001	938	0.53
288.15	0.1504	990.36	0.41
288.15	0.2004	1036.43	0.52
288.15	0.3002	1113.94	0.85
288.15	0.3993	1176.17	1.15
288.15	0.501	1228.67	1.45
288.15	0.6007	1271.85	1.74
288.15	0.7	1308.46	2.04
288.15	0.7996	1340.11	2.35
288.15	0.8503	1354.58	2.52
288.15	0.8905	1365.36	2.65
288.15	0.951	1380.6	2.86
298.15	0.0501	869.67	0.71
298.15	0.1001	929.8	0.55
298.15	0.1504	982.09	0.43
298.15	0.2004	1028.09	0.5
298.15	0.3002	1105.54	0.82
298.15	0.3993	1167.74	1.12
298.15	0.501	1220.23	1.42
298.15	0.6007	1263.4	1.7
298.15	0.7	1300	2
298.15	0.7996	1331.65	2.31
298.15	0.8503	1346.12	2.48
298.15	0.8905	1356.91	2.61
298.15	0.951	1372.15	2.82
308.15	0.0501	861.5	0.73
308.15	0.1001	921.55	0.58
308.15	0.1504	973.78	0.45
308.15	0.2004	1019.75	0.47
308.15	0.3002	1097.15	0.8
308.15	0.3993	1159.35	1.09
308.15	0.501	1211.84	1.39
308.15	0.6007	1255.01	1.67
308.15	0.7	1291.61	1.96
308.15	0.7996	1323.26	2.27
308.15	0.8503	1337.74	2.44
308.15	0.8905	1348.52	2.57
308.15	0.951	1363.76	2.78
318.15	0.0501	853.22	0.76
318.15	0.1001	913.23	0.6
318.15	0.1504	965.42	0.48
318.15	0.2004	1011.37	0.45
318.15	0.3002	1088.78	0.77
318.15	0.3993	1150.97	1.06
318.15	0.501	1203.49	1.36
318.15	0.6007	1246.67	1.64
318.15	0.7	1283.29	1.93
318.15	0.7996	1314.94	2.24
318.15	0.8503	1329.41	2.4
318.15	0.8905	1340.19	2.53
318.15	0.951	1355.43	2.73
328.15	0.0501	844.8	0.78
328.15	0.1001	904.8	0.63
328.15	0.1504	956.99	0.5
328.15	0.2004	1002.94	0.42
328.15	0.3002	1080.39	0.74
328.15	0.3993	1142.62	1.03
328.15	0.501	1195.18	1.33
328.15	0.6007	1238.39	1.6
328.15	0.7	1275.01	1.89
328.15	0.7996	1306.67	2.2
328.15	0.8503	1321.14	2.36
328.15	0.8905	1331.92	2.49
328.15	0.951	1347.16	2.69
338.15	0.0501	836.19	0.81
338.15	0.1001	896.24	0.65
338.15	0.1504	948.48	0.53
338.15	0.2004	994.46	0.43
338.15	0.3002	1072	0.71
338.15	0.3993	1134.29	1
338.15	0.501	1186.91	1.29
338.15	0.6007	1230.15	1.57
338.15	0.7	1266.78	1.86
338.15	0.7996	1298.46	2.16
338.15	0.8503	1312.91	2.32
338.15	0.8905	1323.72	2.45
338.15	0.951	1338.96	2.65

System: water + 1-ethyl-3-methylimidazolium trifluoromethanesulfonate; phases: Liquid
Fixed: Pressure, kPa = 101
Property: Speed of sound, m/s (Liquid); method: FPINT:UFactor:2
Temperature, K	Mole fraction of 1-ethyl-3-methylimidazolium trifluoromethanesulfonate	Speed of sound, m/s	uncertainty
278.15	0.0178	1510.49	1.5
278.15	0.0502	1562.95	1.54
278.15	0.1004	1575.03	1.56
278.15	0.1501	1569.54	1.58
278.15	0.2002	1559.57	1.6
278.15	0.2507	1548.97	1.63
278.15	0.298	1539.76	1.66
278.15	0.3498	1530.48	1.69
278.15	0.4	1522.78	1.73
278.15	0.4498	1516.22	1.78
278.15	0.4976	1510.68	1.83
278.15	0.5495	1505.27	1.88
278.15	0.6039	1500.77	1.94
278.15	0.6476	1497.41	2
278.15	0.6996	1493.96	2.06
278.15	0.751	1491.05	2.13
278.15	0.8496	1486.62	2.26
278.15	0.8942	1484.81	2.33
278.15	0.9498	1482.92	2.41
288.15	0.0178	1528.98	1.51
288.15	0.0502	1563.67	1.53
288.15	0.1004	1564.93	1.55
288.15	0.1501	1554.13	1.57
288.15	0.2002	1541.34	1.59
288.15	0.2507	1529.19	1.61
288.15	0.298	1519.17	1.64
288.15	0.3498	1509.22	1.68
288.15	0.4	1501.12	1.72
288.15	0.4498	1494.29	1.77
288.15	0.4976	1488.54	1.81
288.15	0.5495	1483.02	1.87
288.15	0.6039	1478.28	1.93
288.15	0.6476	1474.81	1.98
288.15	0.6996	1471.28	2.05
288.15	0.751	1468.21	2.12
288.15	0.8496	1463.58	2.25
288.15	0.8942	1461.71	2.32
288.15	0.9498	1459.69	2.4
298.15	0.0178	1541.84	1.51
298.15	0.0502	1561.14	1.53
298.15	0.1004	1552.87	1.55
298.15	0.1501	1537.62	1.56
298.15	0.2002	1522.51	1.58
298.15	0.2507	1509.12	1.6
298.15	0.298	1498.42	1.63
298.15	0.3498	1488.01	1.67
298.15	0.4	1479.63	1.71
298.15	0.4498	1472.59	1.75
298.15	0.4976	1466.7	1.8
298.15	0.5495	1461.07	1.85
298.15	0.6039	1456.21	1.92
298.15	0.6476	1452.67	1.97
298.15	0.6996	1449.06	2.04
298.15	0.751	1445.9	2.1
298.15	0.8496	1441.05	2.24
298.15	0.8942	1439.22	2.31
298.15	0.9498	1437.12	2.39
308.15	0.0178	1549.85	1.52
308.15	0.0502	1555.73	1.53
308.15	0.1004	1539.08	1.54
308.15	0.1501	1520.07	1.55
308.15	0.2002	1503.06	1.56
308.15	0.2507	1488.67	1.59
308.15	0.298	1477.44	1.61
308.15	0.3498	1466.72	1.65
308.15	0.4	1458.13	1.69
308.15	0.4498	1450.96	1.74
308.15	0.4976	1445	1.78
308.15	0.5495	1439.33	1.84
308.15	0.6039	1434.39	1.9
308.15	0.6476	1430.8	1.96
308.15	0.6996	1427.15	2.02
308.15	0.751	1423.95	2.09
308.15	0.8496	1418.93	2.23
308.15	0.8942	1417.16	2.29
308.15	0.9498	1415	2.38
318.15	0.0178	1553.49	1.52
318.15	0.0502	1547.7	1.52
318.15	0.1004	1523.69	1.53
318.15	0.1501	1501.54	1.54
318.15	0.2002	1482.97	1.55
318.15	0.2507	1467.81	1.57
318.15	0.298	1456.11	1.6
318.15	0.3498	1445.27	1.64
318.15	0.4	1436.58	1.68
318.15	0.4498	1429.34	1.72
318.15	0.4976	1423.37	1.77
318.15	0.5495	1417.7	1.83
318.15	0.6039	1412.73	1.89
318.15	0.6476	1409.15	1.94
318.15	0.6996	1405.49	2.01
318.15	0.751	1402.28	2.08
318.15	0.8496	1397.05	2.22
318.15	0.8942	1395.46	2.28
318.15	0.9498	1393.27	2.37
328.15	0.0178	1553.11	1.52
328.15	0.0502	1537.13	1.52
328.15	0.1004	1506.73	1.52
328.15	0.1501	1482	1.52
328.15	0.2002	1462.19	1.54
328.15	0.2507	1446.49	1.56
328.15	0.298	1434.6	1.59
328.15	0.3498	1423.6	1.62
328.15	0.4	1414.91	1.66
328.15	0.4498	1407.67	1.71
328.15	0.4976	1401.73	1.76
328.15	0.5495	1396.18	1.81
328.15	0.6039	1391.2	1.88
328.15	0.6476	1387.65	1.93
328.15	0.6996	1384.04	2
328.15	0.751	1380.83	2.07
328.15	0.8496	1375.47	2.21
328.15	0.8942	1374.04	2.27
328.15	0.9498	1371.85	2.36
338.15	0.0178	1548.94	1.52
338.15	0.0502	1524.17	1.51
338.15	0.1004	1488.23	1.5
338.15	0.1501	1461.46	1.51
338.15	0.2002	1440.72	1.52
338.15	0.2507	1424.67	1.54
338.15	0.298	1412.93	1.57
338.15	0.3498	1401.67	1.61
338.15	0.4	1393.04	1.65
338.15	0.4498	1385.89	1.7
338.15	0.4976	1380.03	1.74
338.15	0.5495	1374.73	1.8
338.15	0.6039	1369.7	1.87
338.15	0.6476	1366.21	1.92
338.15	0.6996	1362.68	1.99
338.15	0.751	1359.53	2.06
338.15	0.8496	1354.21	2.2
338.15	0.8942	1352.86	2.26
338.15	0.9498	1350.68	2.35

System: water + 1-ethyl-3-methylimidazolium trifluoromethanesulfonate; phases: Liquid
Fixed: Pressure, kPa = 101
Property: Mass density, kg/m3 (Liquid); method: VIBTUB:UFactor:8
Temperature, K	Mole fraction of 1-ethyl-3-methylimidazolium trifluoromethanesulfonate	Mass density, kg/m3	uncertainty
278.15	0.0178	1065.4	0.46
278.15	0.0502	1146.23	0.72
278.15	0.1004	1218.92	0.96
278.15	0.1501	1262.9	1.12
278.15	0.2002	1292.15	1.24
278.15	0.2507	1312.86	1.34
278.15	0.298	1327.87	1.43
278.15	0.3498	1340.33	1.52
278.15	0.4	1350.21	1.61
278.15	0.4498	1358.15	1.7
278.15	0.4976	1364.71	1.79
278.15	0.5495	1370.64	1.9
278.15	0.6039	1375.99	2.01
278.15	0.6476	1379.9	2.11
278.15	0.6996	1383.92	2.23
278.15	0.751	1387.36	2.36
278.15	0.8496	1392.97	2.62
278.15	0.8942	1395.4	2.75
278.15	0.9498	1398.09	2.92
288.15	0.0178	1062.57	0.45
288.15	0.0502	1140.95	0.7
288.15	0.1004	1211.96	0.94
288.15	0.1501	1255.19	1.1
288.15	0.2002	1284.06	1.22
288.15	0.2507	1304.57	1.32
288.15	0.298	1319.46	1.4
288.15	0.3498	1331.85	1.49
288.15	0.4	1341.71	1.58
288.15	0.4498	1349.63	1.67
288.15	0.4976	1356.19	1.76
288.15	0.5495	1362.12	1.86
288.15	0.6039	1367.47	1.98
288.15	0.6476	1371.38	2.07
288.15	0.6996	1375.4	2.19
288.15	0.751	1378.85	2.32
288.15	0.8496	1384.47	2.58
288.15	0.8942	1386.9	2.71
288.15	0.9498	1389.61	2.88
298.15	0.0178	1058.88	0.44
298.15	0.0502	1135.19	0.69
298.15	0.1004	1204.72	0.92
298.15	0.1501	1247.3	1.07
298.15	0.2002	1275.85	1.19
298.15	0.2507	1296.2	1.29
298.15	0.298	1311.01	1.37
298.15	0.3498	1323.37	1.46
298.15	0.4	1333.21	1.55
298.15	0.4498	1341.13	1.64
298.15	0.4976	1347.68	1.73
298.15	0.5495	1353.62	1.83
298.15	0.6039	1358.98	1.94
298.15	0.6476	1362.9	2.04
298.15	0.6996	1366.93	2.16
298.15	0.751	1370.38	2.28
298.15	0.8496	1376.01	2.54
298.15	0.8942	1378.45	2.67
298.15	0.9498	1381.16	2.83
308.15	0.0178	1054.44	0.42
308.15	0.0502	1128.98	0.67
308.15	0.1004	1197.22	0.9
308.15	0.1501	1239.24	1.05
308.15	0.2002	1267.53	1.16
308.15	0.2507	1287.75	1.26
308.15	0.298	1302.52	1.35
308.15	0.3498	1314.85	1.43
308.15	0.4	1324.69	1.52
308.15	0.4498	1332.62	1.61
308.15	0.4976	1339.19	1.7
308.15	0.5495	1345.14	1.8
308.15	0.6039	1350.52	1.91
308.15	0.6476	1354.45	2
308.15	0.6996	1358.5	2.12
308.15	0.751	1361.96	2.24
308.15	0.8496	1367.61	2.5
308.15	0.8942	1370.05	2.63
308.15	0.9498	1372.76	2.79
318.15	0.0178	1049.35	0.41
318.15	0.0502	1122.35	0.65
318.15	0.1004	1189.47	0.87
318.15	0.1501	1231.02	1.02
318.15	0.2002	1259.09	1.14
318.15	0.2507	1279.22	1.23
318.15	0.298	1293.96	1.32
318.15	0.3498	1306.3	1.41
318.15	0.4	1316.15	1.49
318.15	0.4498	1324.11	1.58
318.15	0.4976	1330.7	1.67
318.15	0.5495	1336.69	1.77
318.15	0.6039	1342.09	1.88
318.15	0.6476	1346.04	1.97
318.15	0.6996	1350.1	2.09
318.15	0.751	1353.58	2.21
318.15	0.8496	1359.26	2.46
318.15	0.8942	1361.7	2.59
318.15	0.9498	1364.42	2.75
328.15	0.0178	1043.69	0.39
328.15	0.0502	1115.22	0.62
328.15	0.1004	1181.47	0.85
328.15	0.1501	1222.62	0.99
328.15	0.2002	1250.52	1.11
328.15	0.2507	1270.6	1.2
328.15	0.298	1285.34	1.29
328.15	0.3498	1297.7	1.38
328.15	0.4	1307.6	1.46
328.15	0.4498	1315.58	1.55
328.15	0.4976	1322.22	1.64
328.15	0.5495	1328.25	1.73
328.15	0.6039	1333.68	1.84
328.15	0.6476	1337.66	1.94
328.15	0.6996	1341.75	2.05
328.15	0.751	1345.25	2.17
328.15	0.8496	1350.97	2.42
328.15	0.8942	1353.41	2.54
328.15	0.9498	1356.14	2.71
338.15	0.0178	1037.5	0.37
338.15	0.0502	1107.94	0.61
338.15	0.1004	1173.24	0.82
338.15	0.1501	1214.07	0.97
338.15	0.2002	1241.85	1.08
338.15	0.2507	1261.9	1.18
338.15	0.298	1276.67	1.26
338.15	0.3498	1289.07	1.35
338.15	0.4	1299.02	1.43
338.15	0.4498	1307.06	1.52
338.15	0.4976	1313.75	1.61
338.15	0.5495	1319.83	1.7
338.15	0.6039	1325.3	1.81
338.15	0.6476	1329.31	1.9
338.15	0.6996	1333.43	2.02
338.15	0.751	1336.96	2.14
338.15	0.8496	1342.74	2.38
338.15	0.8942	1345.17	2.5
338.15	0.9498	1347.92	2.66

System: ethanol + 1-ethyl-3-methylimidazolium trifluoromethanesulfonate; phases: Liquid
Fixed: Pressure, kPa = 101
Property: Speed of sound, m/s (Liquid); method: FPINT:UFactor:2
Temperature, K	Mole fraction of 1-ethyl-3-methylimidazolium trifluoromethanesulfonate	Speed of sound, m/s	uncertainty
278.15	0.0499	1232.96	1.32
278.15	0.1	1252.69	1.35
278.15	0.1503	1273.5	1.38
278.15	0.1999	1294.55	1.42
278.15	0.3009	1333.9	1.52
278.15	0.4001	1366.81	1.64
278.15	0.5015	1394.83	1.76
278.15	0.5932	1416.18	1.88
278.15	0.6928	1435.87	2.02
278.15	0.802	1454.2	2.18
278.15	0.8517	1461.89	2.26
278.15	0.9017	1468.98	2.33
278.15	0.9492	1475.88	2.41
288.15	0.0499	1201.13	1.29
288.15	0.1	1223.08	1.32
288.15	0.1503	1245.56	1.36
288.15	0.1999	1267.89	1.41
288.15	0.3009	1308.55	1.51
288.15	0.4001	1342.17	1.62
288.15	0.5015	1370.61	1.75
288.15	0.5932	1392.43	1.87
288.15	0.6928	1412.31	2.01
288.15	0.802	1430.73	2.17
288.15	0.8517	1438.29	2.24
288.15	0.9017	1445.46	2.32
288.15	0.9492	1452.23	2.39
298.15	0.0499	1170.11	1.27
298.15	0.1	1194.17	1.3
298.15	0.1503	1218.21	1.34
298.15	0.1999	1241.66	1.39
298.15	0.3009	1283.72	1.49
298.15	0.4001	1317.99	1.61
298.15	0.5015	1346.92	1.74
298.15	0.5932	1369.18	1.86
298.15	0.6928	1389.28	2
298.15	0.802	1407.84	2.16
298.15	0.8517	1415.44	2.23
298.15	0.9017	1422.67	2.31
298.15	0.9492	1429.37	2.38
308.15	0.0499	1139.42	1.25
308.15	0.1	1165.7	1.28
308.15	0.1503	1191.36	1.32
308.15	0.1999	1215.68	1.37
308.15	0.3009	1259.25	1.48
308.15	0.4001	1294.16	1.59
308.15	0.5015	1323.63	1.72
308.15	0.5932	1346.39	1.84
308.15	0.6928	1366.72	1.98
308.15	0.802	1385.42	2.14
308.15	0.8517	1393.07	2.22
308.15	0.9017	1400.42	2.3
308.15	0.9492	1407.04	2.37
318.15	0.0499	1109.14	1.22
318.15	0.1	1137.53	1.26
318.15	0.1503	1164.71	1.3
318.15	0.1999	1189.87	1.35
318.15	0.3009	1235.07	1.46
318.15	0.4001	1270.7	1.58
318.15	0.5015	1300.74	1.71
318.15	0.5932	1323.94	1.83
318.15	0.6928	1344.61	1.97
318.15	0.802	1363.47	2.13
318.15	0.8517	1371.13	2.21
318.15	0.9017	1378.68	2.29
318.15	0.9492	1385.2	2.36
328.15	0.0499	1079.19	1.2
328.15	0.1	1109.7	1.24
328.15	0.1503	1138.38	1.28
328.15	0.1999	1164.35	1.33
328.15	0.3009	1211.21	1.45
328.15	0.4001	1247.65	1.57
328.15	0.5015	1278.31	1.7
328.15	0.5932	1301.77	1.82
328.15	0.6928	1323.04	1.96
328.15	0.802	1342.09	2.12
328.15	0.8517	1349.85	2.2
328.15	0.9017	1357.58	2.28
328.15	0.9492	1363.89	2.35

System: ethanol + 1-ethyl-3-methylimidazolium trifluoromethanesulfonate; phases: Liquid
Fixed: Pressure, kPa = 101
Property: Mass density, kg/m3 (Liquid); method: VIBTUB:UFactor:8
Temperature, K	Mole fraction of 1-ethyl-3-methylimidazolium trifluoromethanesulfonate	Mass density, kg/m3	uncertainty
278.15	0.0499	892.8	0.59
278.15	0.1	965.56	0.39
278.15	0.1503	1025.77	0.4
278.15	0.1999	1075.78	0.56
278.15	0.3009	1156.45	0.88
278.15	0.4001	1216.18	1.16
278.15	0.5015	1264.18	1.44
278.15	0.5932	1299.43	1.7
278.15	0.6928	1331.1	1.99
278.15	0.802	1359.8	2.35
278.15	0.8517	1371.25	2.52
278.15	0.9017	1382.03	2.71
278.15	0.9492	1391.38	2.88
288.15	0.0499	884.25	0.62
288.15	0.1	956.95	0.42
288.15	0.1503	1017.12	0.37
288.15	0.1999	1067.12	0.54
288.15	0.3009	1147.78	0.85
288.15	0.4001	1207.52	1.13
288.15	0.5015	1255.54	1.41
288.15	0.5932	1290.81	1.66
288.15	0.6928	1322.51	1.96
288.15	0.802	1351.24	2.31
288.15	0.8517	1362.7	2.48
288.15	0.9017	1373.5	2.66
288.15	0.9492	1382.87	2.84
298.15	0.0499	875.66	0.65
298.15	0.1	948.32	0.45
298.15	0.1503	1008.47	0.35
298.15	0.1999	1058.46	0.51
298.15	0.3009	1139.14	0.83
298.15	0.4001	1198.91	1.1
298.15	0.5015	1246.96	1.38
298.15	0.5932	1282.26	1.63
298.15	0.6928	1313.99	1.92
298.15	0.802	1342.74	2.27
298.15	0.8517	1354.22	2.44
298.15	0.9017	1365.03	2.62
298.15	0.9492	1374.41	2.8
308.15	0.0499	867.01	0.67
308.15	0.1	939.65	0.47
308.15	0.1503	999.81	0.33
308.15	0.1999	1049.81	0.49
308.15	0.3009	1130.53	0.8
308.15	0.4001	1190.34	1.07
308.15	0.5015	1238.43	1.35
308.15	0.5932	1273.76	1.6
308.15	0.6928	1305.52	1.89
308.15	0.802	1334.31	2.23
308.15	0.8517	1345.8	2.4
308.15	0.9017	1356.63	2.58
308.15	0.9492	1366.02	2.75
318.15	0.0499	858.25	0.7
318.15	0.1	930.92	0.5
318.15	0.1503	991.1	0.35
318.15	0.1999	1041.14	0.46
318.15	0.3009	1121.93	0.77
318.15	0.4001	1181.81	1.04
318.15	0.5015	1229.94	1.32
318.15	0.5932	1265.32	1.56
318.15	0.6928	1297.12	1.85
318.15	0.802	1325.93	2.2
318.15	0.8517	1337.44	2.36
318.15	0.9017	1348.27	2.54
318.15	0.9492	1357.67	2.71
328.15	0.0499	849.37	0.73
328.15	0.1	922.1	0.53
328.15	0.1503	982.34	0.37
328.15	0.1999	1032.44	0.44
328.15	0.3009	1113.33	0.75
328.15	0.4001	1173.3	1.02
328.15	0.5015	1221.51	1.29
328.15	0.5932	1256.93	1.53
328.15	0.6928	1288.75	1.82
328.15	0.802	1317.62	2.16
328.15	0.8517	1329.14	2.32
328.15	0.9017	1339.98	2.5
328.15	0.9492	1349.4	2.67
