Measured thermophysical data. Thermodynamic Properties of Inorganic Salts in Nonaqueous Solvents. III. Apparent Molar Volumes and Compressibilities of Divalent Transition-Metal Chlorides in N,N-Dimethylformamide
Source: J. Chem. Eng. Data, 2007, 10.1021/je700013g
Compound 1: manganese chloride, Cl2Mn, InChI=1S/2ClH.Mn/h2*1H;/q;;+2/p-2
Compound 2: cobalt chloride, Cl2Co, InChI=1S/2ClH.Co/h2*1H;/q;;+2/p-2
Compound 3: nickel chloride (NiCl2), Cl2Ni, InChI=1S/2ClH.Ni/h2*1H;/q;;+2/p-2
Compound 4: copper chloride, Cl2Cu, InChI=1S/2ClH.Cu/h2*1H;/q;;+2/p-2
Compound 5: zinc chloride, Cl2Zn, InChI=1S/2ClH.Zn/h2*1H;/q;;+2/p-2
Compound 6: dimethylformamide, C3H7NO, InChI=1S/C3H7NO/c1-4(2)3-5/h3H,1-2H3

System: dimethylformamide; phases: Liquid
Property: Mass density, kg/m3 (Liquid); method: Vibrating tube method
Temperature, K	Pressure, kPa	Mass density, kg/m3	uncertainty
298.15	101.325	943.82	0.77

System: dimethylformamide; phases: Liquid
Property: Speed of sound, m/s (Liquid); method: Pulse-echo method
Temperature, K	Pressure, kPa	Speed of sound, m/s	uncertainty
298.15	101.325	1457.13	2.26

System: dimethylformamide + manganese chloride; phases: Liquid
Fixed: Pressure, kPa = 101
Fixed: Temperature, K = 298.15
Property: Speed of sound, m/s (Liquid); method: Pulse-echo method
Molality, mol/kg of manganese chloride	Speed of sound, m/s	uncertainty
0.09217	1460.9	2.16
0.1371	1462.81	2.17
0.1848	1464.89	2.19
0.2303	1466.82	2.21
0.2759	1468.89	2.22
0.3186	1470.78	2.24
0.3621	1472.85	2.25
0.4066	1475.02	2.27
0.4492	1477.1	2.28

System: dimethylformamide + manganese chloride; phases: Liquid
Fixed: Pressure, kPa = 101
Property: Mass density, kg/m3 (Liquid); method: Vibrating tube method
Temperature, K	Molality, mol/kg of manganese chloride	Mass density, kg/m3	uncertainty
283.15	0	958.124	0.794
283.15	0.04624	962.59	0.812
283.15	0.06428	964.332	0.819
283.15	0.09217	967.038	0.831
283.15	0.1143	969.21	0.84
283.15	0.1371	971.425	0.849
283.15	0.1848	976.113	0.869
283.15	0.2303	980.63	0.888
283.15	0.2759	985.198	0.908
283.15	0.3186	989.506	0.926
283.15	0.3621	993.925	0.946
283.15	0.4066	998.488	0.966
283.15	0.4492	1002.85	0.987
293.15	0	948.611	0.783
293.15	0.04624	953.076	0.801
293.15	0.06428	954.82	0.808
293.15	0.09217	957.528	0.819
293.15	0.1143	959.696	0.828
293.15	0.1371	961.91	0.837
293.15	0.1848	966.588	0.857
293.15	0.2303	971.096	0.876
293.15	0.2759	975.658	0.895
293.15	0.3186	979.952	0.913
293.15	0.3621	984.354	0.932
293.15	0.4066	988.91	0.952
293.15	0.4492	993.259	0.971
298.15	0	943.84	0.777
298.15	0.04624	948.31	0.795
298.15	0.06428	950.056	0.802
298.15	0.09217	952.763	0.813
298.15	0.1143	954.925	0.822
298.15	0.1371	957.146	0.831
298.15	0.1848	961.824	0.851
298.15	0.2303	966.324	0.869
298.15	0.2759	970.889	0.888
298.15	0.3186	975.177	0.907
298.15	0.3621	979.577	0.925
298.15	0.4066	984.128	0.945
298.15	0.4492	988.473	0.964
303.15	0	939.073	0.772
303.15	0.04624	943.542	0.79
303.15	0.06428	945.286	0.797
303.15	0.09217	947.988	0.808
303.15	0.1143	950.152	0.816
303.15	0.1371	952.375	0.825
303.15	0.1848	957.054	0.845
303.15	0.2303	961.561	0.863
303.15	0.2759	966.113	0.882
303.15	0.3186	970.405	0.9
303.15	0.3621	974.803	0.919
303.15	0.4066	979.352	0.938
303.15	0.4492	983.694	0.957
313.15	0	929.49	0.762
313.15	0.04624	933.965	0.779
313.15	0.06428	935.713	0.786
313.15	0.09217	938.421	0.796
313.15	0.1143	940.583	0.805
313.15	0.1371	942.812	0.814
313.15	0.1848	947.495	0.833
313.15	0.2303	952	0.851
313.15	0.2759	956.562	0.87
313.15	0.3186	960.846	0.887
313.15	0.3621	965.244	0.905
313.15	0.4066	969.792	0.924
313.15	0.4492	974.133	0.943
323.15	0	919.855	0.751
323.15	0.04624	924.343	0.768
323.15	0.06428	926.096	0.775
323.15	0.09217	928.811	0.785
323.15	0.1143	930.979	0.794
323.15	0.1371	933.206	0.803
323.15	0.1848	937.898	0.821
323.15	0.2303	942.403	0.839
323.15	0.2759	946.978	0.857
323.15	0.3186	951.26	0.874
323.15	0.3621	955.662	0.892
323.15	0.4066	960.216	0.911
323.15	0.4492	964.558	0.929
333.15	0	910.162	0.741
333.15	0.04624	914.669	0.757
333.15	0.06428	916.423	0.764
333.15	0.09217	919.148	0.774
333.15	0.1143	921.318	0.783
333.15	0.1371	923.554	0.791
333.15	0.1848	928.26	0.809
333.15	0.2303	932.768	0.827
333.15	0.2759	937.35	0.845
333.15	0.3186	941.644	0.862
333.15	0.3621	946.053	0.88
333.15	0.4066	950.606	0.898
333.15	0.4492	954.96	0.915

System: dimethylformamide + cobalt chloride; phases: Liquid
Fixed: Pressure, kPa = 101
Fixed: Temperature, K = 298.15
Property: Speed of sound, m/s (Liquid); method: Pulse-echo method
Molality, mol/kg of cobalt chloride	Speed of sound, m/s	uncertainty
0.06503	1458.95	3.1
0.09936	1460.07	3.11
0.1327	1461.38	3.12
0.1626	1462.35	3.13
0.195	1463.62	3.13
0.2258	1464.95	3.14
0.2584	1466.38	3.15
0.291	1467.81	3.16
0.3225	1469.25	3.16

System: dimethylformamide + cobalt chloride; phases: Liquid
Fixed: Pressure, kPa = 101
Property: Mass density, kg/m3 (Liquid); method: Vibrating tube method
Temperature, K	Molality, mol/kg of cobalt chloride	Mass density, kg/m3	uncertainty
283.15	0	958.077	1.751
283.15	0.03256	961.446	1.771
283.15	0.04604	962.841	1.78
283.15	0.06503	964.805	1.792
283.15	0.08297	966.667	1.803
283.15	0.09936	968.358	1.814
283.15	0.1327	971.824	1.835
283.15	0.1626	974.954	1.855
283.15	0.195	978.345	1.876
283.15	0.2258	981.574	1.896
283.15	0.2584	985.027	1.918
283.15	0.291	988.485	1.94
283.15	0.3225	991.882	1.962
293.15	0	948.565	1.721
293.15	0.03256	951.934	1.741
293.15	0.04604	953.329	1.75
293.15	0.06503	955.294	1.761
293.15	0.08297	957.154	1.773
293.15	0.09936	958.847	1.783
293.15	0.1327	962.31	1.804
293.15	0.1626	965.44	1.823
293.15	0.195	968.837	1.844
293.15	0.2258	972.065	1.864
293.15	0.2584	975.52	1.886
293.15	0.291	978.977	1.907
293.15	0.3225	982.38	1.929
298.15	0	943.797	1.706
298.15	0.03256	947.164	1.726
298.15	0.04604	948.56	1.734
298.15	0.06503	950.526	1.746
298.15	0.08297	952.386	1.757
298.15	0.09936	954.078	1.768
298.15	0.1327	957.545	1.789
298.15	0.1626	960.675	1.808
298.15	0.195	964.07	1.829
298.15	0.2258	967.3	1.849
298.15	0.2584	970.757	1.87
298.15	0.291	974.216	1.891
298.15	0.3225	977.612	1.912
303.15	0	939.025	1.691
303.15	0.03256	942.391	1.711
303.15	0.04604	943.786	1.72
303.15	0.06503	945.751	1.731
303.15	0.08297	947.613	1.742
303.15	0.09936	949.306	1.753
303.15	0.1327	952.77	1.773
303.15	0.1626	955.901	1.792
303.15	0.195	959.3	1.813
303.15	0.2258	962.531	1.833
303.15	0.2584	965.988	1.854
303.15	0.291	969.447	1.875
303.15	0.3225	972.845	1.896
313.15	0	929.44	1.662
313.15	0.03256	932.806	1.682
313.15	0.04604	934.2	1.69
313.15	0.06503	936.166	1.701
313.15	0.08297	938.03	1.712
313.15	0.09936	939.723	1.722
313.15	0.1327	943.191	1.743
313.15	0.1626	946.325	1.761
313.15	0.195	949.724	1.782
313.15	0.2258	952.954	1.801
313.15	0.2584	956.417	1.822
313.15	0.291	959.88	1.843
313.15	0.3225	963.28	1.864
323.15	0	919.807	1.633
323.15	0.03256	923.17	1.652
323.15	0.04604	924.564	1.66
323.15	0.06503	926.532	1.671
323.15	0.08297	928.392	1.682
323.15	0.09936	930.09	1.692
323.15	0.1327	933.558	1.712
323.15	0.1626	936.697	1.731
323.15	0.195	940.096	1.751
323.15	0.2258	943.336	1.77
323.15	0.2584	946.793	1.79
323.15	0.291	950.263	1.811
323.15	0.3225	953.675	1.831
333.15	0	910.12	1.604
333.15	0.03256	913.477	1.623
333.15	0.04604	914.868	1.631
333.15	0.06503	916.836	1.642
333.15	0.08297	918.698	1.653
333.15	0.09936	920.49	1.662
333.15	0.1327	923.862	1.682
333.15	0.1626	927.006	1.7
333.15	0.195	930.41	1.72
333.15	0.2258	933.65	1.739
333.15	0.2584	937.112	1.759
333.15	0.291	940.589	1.779
333.15	0.3225	944	1.799

System: dimethylformamide + nickel chloride (NiCl2); phases: Liquid
Fixed: Pressure, kPa = 101
Fixed: Temperature, K = 298.15
Property: Speed of sound, m/s (Liquid); method: Pulse-echo method
Molality, mol/kg of nickel chloride (NiCl2)	Speed of sound, m/s	uncertainty
0.06402	1459.61	3.1
0.09656	1461.03	3.11
0.129	1462.45	3.12
0.1602	1463.88	3.13
0.1936	1465.3	3.13
0.224	1466.38	3.14
0.2553	1467.81	3.15
0.2849	1469	3.16
0.3174	1470.32	3.16

System: dimethylformamide + nickel chloride (NiCl2); phases: Liquid
Fixed: Pressure, kPa = 101
Property: Mass density, kg/m3 (Liquid); method: Vibrating tube method
Temperature, K	Molality, mol/kg of nickel chloride (NiCl2)	Mass density, kg/m3	uncertainty
283.15	0	958.077	1.752
283.15	0.03259	962.082	1.774
283.15	0.04688	963.743	1.784
283.15	0.06402	965.693	1.795
283.15	0.08077	967.611	1.806
283.15	0.09656	969.403	1.817
283.15	0.129	973.099	1.839
283.15	0.1602	976.64	1.86
283.15	0.1936	980.46	1.883
283.15	0.224	984.004	1.905
283.15	0.2553	987.592	1.926
283.15	0.2849	991.072	1.948
283.15	0.3174	994.846	1.971
293.15	0	948.565	1.722
293.15	0.03259	952.45	1.744
293.15	0.04688	954.073	1.753
293.15	0.06402	955.984	1.764
293.15	0.08077	957.87	1.775
293.15	0.09656	959.631	1.785
293.15	0.129	963.284	1.807
293.15	0.1602	966.785	1.828
293.15	0.1936	970.565	1.85
293.15	0.224	974.071	1.871
293.15	0.2553	977.628	1.892
293.15	0.2849	981.075	1.913
293.15	0.3174	984.819	1.936
298.15	0	943.797	1.707
298.15	0.03259	947.629	1.728
298.15	0.04688	949.237	1.737
298.15	0.06402	951.134	1.748
298.15	0.08077	953.012	1.759
298.15	0.09656	954.763	1.77
298.15	0.129	958.396	1.791
298.15	0.1602	961.878	1.811
298.15	0.1936	965.641	1.834
298.15	0.224	969.128	1.854
298.15	0.2553	972.675	1.876
298.15	0.2849	976.108	1.896
298.15	0.3174	979.836	1.919
303.15	0	939.025	1.692
303.15	0.03259	942.808	1.713
303.15	0.04688	944.4	1.722
303.15	0.06402	946.288	1.733
303.15	0.08077	948.154	1.744
303.15	0.09656	949.895	1.754
303.15	0.129	953.517	1.775
303.15	0.1602	956.984	1.795
303.15	0.1936	960.734	1.818
303.15	0.224	964.209	1.838
303.15	0.2553	967.74	1.859
303.15	0.2849	971.156	1.879
303.15	0.3174	974.874	1.902
313.15	0	929.44	1.663
313.15	0.03259	933.149	1.683
313.15	0.04688	934.728	1.692
313.15	0.06402	936.602	1.703
313.15	0.08077	938.45	1.713
313.15	0.09656	940.183	1.723
313.15	0.129	943.78	1.744
313.15	0.1602	947.224	1.764
313.15	0.1936	950.949	1.786
313.15	0.224	954.393	1.806
313.15	0.2553	957.911	1.826
313.15	0.2849	961.3	1.846
313.15	0.3174	964.99	1.868
323.15	0	919.807	1.633
323.15	0.03259	923.47	1.654
323.15	0.04688	925.034	1.662
323.15	0.06402	926.9	1.673
323.15	0.08077	928.739	1.683
323.15	0.09656	930.465	1.693
323.15	0.129	934.047	1.713
323.15	0.1602	937.476	1.733
323.15	0.1936	941.185	1.754
323.15	0.224	944.614	1.774
323.15	0.2553	948.115	1.794
323.15	0.2849	951.488	1.814
323.15	0.3174	955.164	1.835
333.15	0	910.12	1.604
333.15	0.03259	913.752	1.624
333.15	0.04688	915.307	1.633
333.15	0.06402	917.168	1.643
333.15	0.08077	919.009	1.653
333.15	0.09656	920.731	1.663
333.15	0.129	924.3	1.683
333.15	0.1602	927.718	1.702
333.15	0.1936	931.418	1.723
333.15	0.224	934.841	1.742
333.15	0.2553	938.325	1.762
333.15	0.2849	941.688	1.781
333.15	0.3174	945.357	1.803

System: dimethylformamide + copper chloride; phases: Liquid
Fixed: Pressure, kPa = 101
Fixed: Temperature, K = 298.15
Property: Speed of sound, m/s (Liquid); method: Pulse-echo method
Molality, mol/kg of copper chloride	Speed of sound, m/s	uncertainty
0.04589	1458.2	3.1
0.08998	1459.26	3.11
0.1355	1460.32	3.12
0.1828	1461.44	3.13
0.2256	1462.45	3.14
0.2659	1463.52	3.15
0.3096	1464.55	3.16
0.3541	1465.66	3.17
0.3961	1466.73	3.18
0.4388	1467.81	3.19

System: dimethylformamide + copper chloride; phases: Liquid
Fixed: Pressure, kPa = 101
Property: Mass density, kg/m3 (Liquid); method: Vibrating tube method
Temperature, K	Molality, mol/kg of copper chloride	Mass density, kg/m3	uncertainty
283.15	0	958.124	1.751
283.15	0.04589	963.051	1.781
283.15	0.06604	965.227	1.795
283.15	0.08998	967.814	1.81
283.15	0.1154	970.57	1.827
283.15	0.1355	972.774	1.841
283.15	0.1828	977.958	1.873
283.15	0.2256	982.714	1.903
283.15	0.2659	987.2	1.931
283.15	0.3096	992.122	1.962
283.15	0.3541	997.168	1.994
283.15	0.3961	1001.957	2.026
283.15	0.4388	1006.9	2.062
293.15	0	948.611	1.721
293.15	0.04589	953.52	1.751
293.15	0.06604	955.686	1.764
293.15	0.08998	958.263	1.78
293.15	0.1154	961.008	1.796
293.15	0.1355	963.2	1.81
293.15	0.1828	968.365	1.841
293.15	0.2256	973.103	1.871
293.15	0.2659	977.571	1.898
293.15	0.3096	982.473	1.929
293.15	0.3541	987.5	1.96
293.15	0.3961	992.272	1.99
293.15	0.4388	997.196	2.021
298.15	0	943.84	1.706
298.15	0.04589	948.74	1.736
298.15	0.06604	950.901	1.749
298.15	0.08998	953.474	1.764
298.15	0.1154	956.214	1.781
298.15	0.1355	958.403	1.794
298.15	0.1828	963.553	1.825
298.15	0.2256	968.285	1.854
298.15	0.2659	972.743	1.882
298.15	0.3096	977.637	1.912
298.15	0.3541	982.657	1.943
298.15	0.3961	987.415	1.973
298.15	0.4388	992.327	2.004
303.15	0	939.073	1.692
303.15	0.04589	943.959	1.721
303.15	0.06604	946.116	1.734
303.15	0.08998	948.68	1.749
303.15	0.1154	951.414	1.765
303.15	0.1355	953.593	1.779
303.15	0.1828	958.739	1.81
303.15	0.2256	963.455	1.838
303.15	0.2659	967.913	1.866
303.15	0.3096	972.786	1.896
303.15	0.3541	977.793	1.926
303.15	0.3961	982.551	1.956
303.15	0.4388	987.456	1.986
313.15	0	929.49	1.662
313.15	0.04589	934.353	1.691
313.15	0.06604	936.5	1.703
313.15	0.08998	939.052	1.719
313.15	0.1154	941.773	1.735
313.15	0.1355	943.944	1.748
313.15	0.1828	949.069	1.778
313.15	0.2256	953.763	1.806
313.15	0.2659	958.201	1.833
313.15	0.3096	963.062	1.863
313.15	0.3541	968.041	1.893
313.15	0.3961	972.78	1.922
313.15	0.4388	977.662	1.952
323.15	0	919.855	1.633
323.15	0.04589	924.694	1.661
323.15	0.06604	926.833	1.673
323.15	0.08998	929.374	1.688
323.15	0.1154	932.082	1.704
323.15	0.1355	934.243	1.717
323.15	0.1828	939.344	1.747
323.15	0.2256	944.016	1.775
323.15	0.2659	948.438	1.801
323.15	0.3096	953.275	1.83
323.15	0.3541	958.23	1.86
323.15	0.3961	962.949	1.888
323.15	0.4388	967.814	1.917
333.15	0	910.162	1.604
333.15	0.04589	914.982	1.632
333.15	0.06604	917.11	1.644
333.15	0.08998	919.635	1.658
333.15	0.1154	922.33	1.674
333.15	0.1355	924.48	1.686
333.15	0.1828	929.554	1.716
333.15	0.2256	934.205	1.743
333.15	0.2659	938.61	1.769
333.15	0.3096	943.422	1.797
333.15	0.3541	948.35	1.826
333.15	0.3961	953.05	1.854
333.15	0.4388	957.89	1.883

System: dimethylformamide + zinc chloride; phases: Liquid
Fixed: Pressure, kPa = 101
Fixed: Temperature, K = 298.15
Property: Speed of sound, m/s (Liquid); method: Pulse-echo method
Molality, mol/kg of zinc chloride	Speed of sound, m/s	uncertainty
0.04462	1457.49	3.1
0.08859	1457.93	3.11
0.1331	1458.45	3.12
0.1783	1459	3.13
0.2208	1459.61	3.14
0.2664	1460.32	3.15
0.308	1461.03	3.16
0.3501	1461.77	3.17
0.3894	1462.45	3.18
0.435	1463.52	3.19

System: dimethylformamide + zinc chloride; phases: Liquid
Fixed: Pressure, kPa = 101
Property: Mass density, kg/m3 (Liquid); method: Vibrating tube method
Temperature, K	Molality, mol/kg of zinc chloride	Mass density, kg/m3	uncertainty
283.15	0	958.124	1.751
283.15	0.04462	962.503	1.779
283.15	0.06243	964.265	1.79
283.15	0.08859	966.878	1.807
283.15	0.1331	971.364	1.836
283.15	0.1783	975.981	1.866
283.15	0.2208	980.357	1.894
283.15	0.2664	985.118	1.925
283.15	0.308	989.513	1.954
283.15	0.3501	993.99	1.983
283.15	0.435	1003.136	2.045
293.15	0	948.611	1.721
293.15	0.04462	952.966	1.748
293.15	0.06243	954.715	1.759
293.15	0.08859	957.313	1.776
293.15	0.1331	961.766	1.804
293.15	0.1783	966.35	1.834
293.15	0.2208	970.694	1.861
293.15	0.2664	975.422	1.892
293.15	0.308	979.781	1.918
293.15	0.3501	981.226	5
293.15	0.435	993.308	2.01
298.15	0	943.84	1.706
298.15	0.04462	948.188	1.733
298.15	0.06243	949.933	1.744
298.15	0.08859	952.524	1.761
298.15	0.1331	956.965	1.789
298.15	0.1783	961.53	1.818
298.15	0.2208	965.856	1.845
298.15	0.2664	970.574	1.875
298.15	0.308	974.918	1.903
298.15	0.3501	979.352	1.932
298.15	0.435	988.4	1.99
303.15	0	939.073	1.691
303.15	0.04462	943.406	1.718
303.15	0.06243	945.146	1.729
303.15	0.08859	947.727	1.745
303.15	0.1331	952.155	1.773
303.15	0.1783	956.713	1.802
303.15	0.2208	961.028	1.829
303.15	0.2664	965.724	1.859
303.15	0.308	970.059	1.887
303.15	0.3501	974.481	1.915
303.15	0.435	983.499	1.973
313.15	0	929.49	1.662
313.15	0.04462	933.803	1.688
313.15	0.06243	935.547	1.699
313.15	0.08859	938.11	1.715
313.15	0.1331	942.518	1.742
313.15	0.1783	947.055	1.771
313.15	0.2208	951.335	1.797
313.15	0.2664	956.018	1.827
313.15	0.308	960.33	1.854
313.15	0.3501	964.728	1.881
313.15	0.435	973.697	1.938
323.15	0	919.855	1.633
323.15	0.04462	924.158	1.659
323.15	0.06243	925.902	1.669
323.15	0.08859	928.45	1.685
323.15	0.1331	932.85	1.712
323.15	0.1783	937.368	1.739
323.15	0.2208	941.642	1.766
323.15	0.2664	946.289	1.795
323.15	0.308	950.59	1.821
323.15	0.3501	954.963	1.848
323.15	0.435	963.89	1.904
333.15	0	910.162	1.604
333.15	0.04462	914.465	1.629
333.15	0.06243	916.2	1.64
333.15	0.08859	918.744	1.655
333.15	0.1331	923.13	1.681
333.15	0.1783	927.64	1.709
333.15	0.2208	931.908	1.735
333.15	0.2664	936.527	1.763
333.15	0.308	940.821	1.789
333.15	0.3501	945.176	1.816
333.15	0.435	954.072	1.87
