Measured thermophysical data. Properties of Sugar, Polyol, and Polysaccharide Water-Ethanol Solutions
Source: J. Chem. Eng. Data, 2007, 10.1021/je700190m
Compound 1: D-glucose, C6H12O6, InChI=1S/C6H12O6/c7-1-3(9)5(11)6(12)4(10)2-8/h1,3-6,8-12H,2H2/t3-,4+,5+,6+/m0/s1
Compound 2: water, H2O, InChI=1S/H2O/h1H2
Compound 3: 4-O-.beta.-D-galactopyranosyl-D-glucose, C12H22O11, InChI=1S/C12H22O11/c13-1-4(16)7(18)11(5(17)2-14)23-12-10(21)9(20)8(19)6(3-15)22-12/h1,4-12,14-21H,2-3H2/t4-,5+,6+,7+,8-,9-,10+,11+,12-/m0/s1
Compound 4: leucrose, C12H22O11, InChI=1S/C12H22O11/c13-1-4(16)7(17)8(18)5(2-14)22-12-11(21)10(20)9(19)6(3-15)23-12/h5-15,17-21H,1-3H2/t5-,6-,7-,8-,9-,10+,11-,12+/m1/s1
Compound 5: D-(+)-maltose monohydrate, C12H24O12, InChI=1S/C12H22O11.H2O/c13-1-3-5(15)6(16)9(19)12(22-3)23-10-4(2-14)21-11(20)8(18)7(10)17;/h3-20H,1-2H2;1H2/t3-,4-,5-,6+,7-,8-,9-,10-,11-,12-;/m1./s1
Compound 6: D-raffinose, pentahydrate, C18H42O21, InChI=1S/C18H32O16.5H2O/c19-1-5-8(22)11(25)13(27)16(31-5)30-3-7-9(23)12(26)14(28)17(32-7)34-18(4-21)15(29)10(24)6(2-20)33-18;;;;;/h5-17,19-29H,1-4H2;5*1H2/t5-,6-,7-,8+,9-,10-,11+,12+,13-,14-,15+,16+,17-,18+;;;;;/m1...../s1
Compound 7: D-sucrose, C12H22O11, InChI=1S/C12H22O11/c13-1-4-6(16)8(18)9(19)11(21-4)23-12(3-15)10(20)7(17)5(2-14)22-12/h4-11,13-20H,1-3H2/t4-,5-,6-,7-,8+,9-,10+,11-,12+/m1/s1
Compound 8: D-(+)-trehalose dihydrate, C12H26O13, InChI=1S/C12H22O11.2H2O/c13-1-3-5(15)7(17)9(19)11(21-3)23-12-10(20)8(18)6(16)4(2-14)22-12;;/h3-20H,1-2H2;2*1H2/t3-,4-,5-,6-,7+,8+,9-,10-,11-,12-;;/m1../s1
Compound 9: 4-O-.alpha.-D-glucopyranosyl-D-glucitol, C12H24O11, InChI=1S/C12H24O11/c13-1-4(16)7(18)11(5(17)2-14)23-12-10(21)9(20)8(19)6(3-15)22-12/h4-21H,1-3H2/t4-,5+,6+,7+,8+,9-,10+,11+,12+/m0/s1
Compound 10: mannitol, C6H14O6, InChI=1S/C6H14O6/c7-1-3(9)5(11)6(12)4(10)2-8/h3-12H,1-2H2/t3-,4-,5-,6-/m1/s1
Compound 11: D-sorbitol, C6H14O6, InChI=1S/C6H14O6/c7-1-3(9)5(11)6(12)4(10)2-8/h3-12H,1-2H2/t3-,4+,5-,6-/m1/s1
Compound 12: xylitol, C5H12O5, InChI=1S/C5H12O5/c6-1-3(8)5(10)4(9)2-7/h3-10H,1-2H2/t3-,4+,5+
Compound 13: ethanol, C2H6O, InChI=1S/C2H6O/c1-2-3/h3H,2H2,1H3

System: D-glucose + water; phases: Liquid
Property: Viscosity, Pa*s (Liquid); method: Concentric cylinders viscometry
Mass fraction of D-glucose	Pressure, kPa	Temperature, K	Viscosity, Pa*s	uncertainty
0.1	101.3	310	0.001	0.0002

System: 4-O-.beta.-D-galactopyranosyl-D-glucose + water; phases: Liquid
Property: Viscosity, Pa*s (Liquid); method: Concentric cylinders viscometry
Mass fraction of 4-O-.beta.-D-galactopyranosyl-D-glucose	Pressure, kPa	Temperature, K	Viscosity, Pa*s	uncertainty
0.1	101.3	310	0.00116	0.00023

System: 4-O-.beta.-D-galactopyranosyl-D-glucose + water; phases: Liquid, Crystal
Property: Viscosity, Pa*s (Liquid); method: Concentric cylinders viscometry
Temperature, K	Pressure, kPa	Viscosity, Pa*s	uncertainty
310	101.3	0.00217	0.00044

System: 4-O-.beta.-D-galactopyranosyl-D-glucose + water; phases: Liquid, Crystal
Property: Mass fraction of 4-O-.beta.-D-galactopyranosyl-D-glucose (Liquid); method: Gravimetry
Temperature, K	Pressure, kPa	Mass fraction of 4-O-.beta.-D-galactopyranosyl-D-glucose	uncertainty
310	101	0.29	0.01

System: leucrose + water; phases: Liquid
Property: Viscosity, Pa*s (Liquid); method: Concentric cylinders viscometry
Mass fraction of leucrose	Pressure, kPa	Temperature, K	Viscosity, Pa*s	uncertainty
0.1	101.3	310	0.00105	0.00021

System: D-(+)-maltose monohydrate + water; phases: Liquid
Property: Viscosity, Pa*s (Liquid); method: Concentric cylinders viscometry
Mass fraction of D-(+)-maltose monohydrate	Pressure, kPa	Temperature, K	Viscosity, Pa*s	uncertainty
0.1	101.3	310	0.00109	0.00022

System: D-(+)-maltose monohydrate + water; phases: Liquid, Crystal
Property: Viscosity, Pa*s (Liquid); method: Concentric cylinders viscometry
Temperature, K	Pressure, kPa	Viscosity, Pa*s	uncertainty
310	101.3	0.00908	0.00183

System: D-(+)-maltose monohydrate + water; phases: Liquid, Crystal
Property: Mass fraction of D-(+)-maltose monohydrate (Liquid); method: Gravimetry
Temperature, K	Pressure, kPa	Mass fraction of D-(+)-maltose monohydrate	uncertainty
310	101	0.519	0.002

System: water + D-raffinose, pentahydrate; phases: Liquid
Property: Viscosity, Pa*s (Liquid); method: Concentric cylinders viscometry
Mass fraction of D-raffinose, pentahydrate	Pressure, kPa	Temperature, K	Viscosity, Pa*s	uncertainty
0.1	101.3	310	0.00122	0.00025

System: water + D-raffinose, pentahydrate; phases: Liquid, Crystal
Property: Viscosity, Pa*s (Liquid); method: Concentric cylinders viscometry
Temperature, K	Pressure, kPa	Viscosity, Pa*s	uncertainty
310	101.3	0.00293	0.00059

System: water + D-raffinose, pentahydrate; phases: Liquid, Crystal
Property: Mass fraction of D-raffinose, pentahydrate (Liquid); method: Gravimetry
Temperature, K	Pressure, kPa	Mass fraction of D-raffinose, pentahydrate	uncertainty
310	101	0.3	0.01

System: D-sucrose + water; phases: Liquid
Property: Viscosity, Pa*s (Liquid); method: Concentric cylinders viscometry
Mass fraction of D-sucrose	Pressure, kPa	Temperature, K	Viscosity, Pa*s	uncertainty
0.1	101.3	310	0.00106	0.00021

System: D-sucrose + water; phases: Liquid, Crystal
Property: Viscosity, Pa*s (Liquid); method: Concentric cylinders viscometry
Temperature, K	Pressure, kPa	Viscosity, Pa*s	uncertainty
310	101.3	0.09174	0.01866

System: D-sucrose + water; phases: Liquid, Crystal
Property: Mass fraction of D-sucrose (Liquid); method: Gravimetry
Temperature, K	Pressure, kPa	Mass fraction of D-sucrose	uncertainty
310	101	0.701	0.002

System: D-(+)-trehalose dihydrate + water; phases: Liquid
Property: Viscosity, Pa*s (Liquid); method: Concentric cylinders viscometry
Mass fraction of D-(+)-trehalose dihydrate	Pressure, kPa	Temperature, K	Viscosity, Pa*s	uncertainty
0.1	101.3	310	0.0011	0.00022

System: D-(+)-trehalose dihydrate + water; phases: Liquid, Crystal
Property: Viscosity, Pa*s (Liquid); method: Concentric cylinders viscometry
Temperature, K	Pressure, kPa	Viscosity, Pa*s	uncertainty
310	101.3	0.00964	0.00194

System: D-(+)-trehalose dihydrate + water; phases: Liquid, Crystal
Property: Mass fraction of D-(+)-trehalose dihydrate (Liquid); method: Gravimetry
Temperature, K	Pressure, kPa	Mass fraction of D-(+)-trehalose dihydrate	uncertainty
310	101	0.508	0.002

System: 4-O-.alpha.-D-glucopyranosyl-D-glucitol + water; phases: Liquid
Property: Viscosity, Pa*s (Liquid); method: Concentric cylinders viscometry
Mass fraction of 4-O-.alpha.-D-glucopyranosyl-D-glucitol	Pressure, kPa	Temperature, K	Viscosity, Pa*s	uncertainty
0.1	101.3	310	0.00108	0.00022

System: mannitol + water; phases: Liquid
Property: Viscosity, Pa*s (Liquid); method: Concentric cylinders viscometry
Mass fraction of mannitol	Pressure, kPa	Temperature, K	Viscosity, Pa*s	uncertainty
0.1	101.3	310	0.00103	0.00021

System: mannitol + water; phases: Liquid, Crystal
Property: Viscosity, Pa*s (Liquid); method: Concentric cylinders viscometry
Temperature, K	Pressure, kPa	Viscosity, Pa*s	uncertainty
310	101.3	0.00179	0.00036

System: mannitol + water; phases: Liquid, Crystal
Property: Mass fraction of mannitol (Liquid); method: Gravimetry
Temperature, K	Pressure, kPa	Mass fraction of mannitol	uncertainty
310	101	0.238	0.001

System: D-sorbitol + water; phases: Liquid
Property: Viscosity, Pa*s (Liquid); method: Concentric cylinders viscometry
Mass fraction of D-sorbitol	Pressure, kPa	Temperature, K	Viscosity, Pa*s	uncertainty
0.1	101.3	310	0.00102	0.00021

System: D-sorbitol + water; phases: Liquid, Crystal
Property: Mass fraction of D-sorbitol (Liquid); method: Gravimetry
Temperature, K	Pressure, kPa	Mass fraction of D-sorbitol	uncertainty
310	101	0.762	0.002

System: xylitol + water; phases: Liquid
Property: Viscosity, Pa*s (Liquid); method: Concentric cylinders viscometry
Mass fraction of xylitol	Pressure, kPa	Temperature, K	Viscosity, Pa*s	uncertainty
0.1	101.3	310	0.00103	0.00021

System: 4-O-.beta.-D-galactopyranosyl-D-glucose + ethanol + water; phases: Liquid, Crystal
Fixed: Temperature, K = 310
Fixed: Pressure, kPa = 101.3
Property: Viscosity, Pa*s (Liquid); method: Concentric cylinders viscometry
Solvent: Mass fraction of water	Viscosity, Pa*s	uncertainty
0.05	0.00139	0.00028
0.15	0.0015	0.0003
0.25	0.00183	0.00037
0.375	0.00206	0.00042
0.5	0.00233	0.00047
0.625	0.00234	0.00047
0.75	0.00225	0.00045
0.875	0.00201	0.00041
1	0.00217	0.00044

System: 4-O-.beta.-D-galactopyranosyl-D-glucose + ethanol + water; phases: Liquid, Crystal
Fixed: Temperature, K = 310
Fixed: Pressure, kPa = 101
Property: Mass fraction of 4-O-.beta.-D-galactopyranosyl-D-glucose (Liquid); method: Gravimetry
Solvent: Mass fraction of water	Mass fraction of 4-O-.beta.-D-galactopyranosyl-D-glucose	uncertainty
0	0.0002	0.0001
0.05	0.001	0.001
0.15	0.0021	0.0001
0.25	0.0072	0.0001
0.375	0.016	0.001
0.5	0.035	0.001
0.625	0.064	0.001
0.75	0.13	0.01
0.875	0.212	0.001
1	0.29	0.01

System: ethanol + D-(+)-maltose monohydrate + water; phases: Liquid, Crystal
Fixed: Temperature, K = 310
Fixed: Pressure, kPa = 101.3
Property: Viscosity, Pa*s (Liquid); method: Concentric cylinders viscometry
Solvent: Mass fraction of water	Viscosity, Pa*s	uncertainty
0	0.00112	0.00023
0.05	0.00117	0.00024
0.15	0.00167	0.00034
0.25	0.00199	0.0004
0.375	0.0025	0.0005
0.5	0.00348	0.0007
0.625	0.00497	0.001
0.75	0.00662	0.00134
0.875	0.00839	0.00169
1	0.00908	0.00183

System: ethanol + D-(+)-maltose monohydrate + water; phases: Liquid, Crystal
Fixed: Temperature, K = 310
Fixed: Pressure, kPa = 101
Property: Mass fraction of D-(+)-maltose monohydrate (Liquid); method: Gravimetry
Solvent: Mass fraction of water	Mass fraction of D-(+)-maltose monohydrate	uncertainty
0	0.0174	0.0001
0.05	0.006	0.001
0.15	0.024	0.001
0.25	0.047	0.0002
0.375	0.107	0.001
0.5	0.186	0.001
0.625	0.284	0.001
0.75	0.39	0.01
0.875	0.46	0.01
1	0.519	0.002

System: ethanol + water + D-raffinose, pentahydrate; phases: Liquid, Crystal
Fixed: Temperature, K = 310
Fixed: Pressure, kPa = 101.3
Property: Viscosity, Pa*s (Liquid); method: Concentric cylinders viscometry
Solvent: Mass fraction of water	Viscosity, Pa*s	uncertainty
0	0.00123	0.00025
0.05	0.0013	0.00026
0.15	0.00154	0.00031
0.25	0.00179	0.00036
0.375	0.00233	0.00047
0.5	0.00249	0.0005
0.625	0.00287	0.00058
0.75	0.00306	0.00061
0.875	0.0029	0.00058
1	0.00293	0.00059

System: ethanol + water + D-raffinose, pentahydrate; phases: Liquid, Crystal
Fixed: Temperature, K = 310
Fixed: Pressure, kPa = 101
Property: Mass fraction of D-raffinose, pentahydrate (Liquid); method: Gravimetry
Solvent: Mass fraction of water	Mass fraction of D-raffinose, pentahydrate	uncertainty
0	0	
0.05	0.0008	0.0001
0.15	0.0027	0.0001
0.25	0.007	0.001
0.375	0.018	0.001
0.5	0.063	0.001
0.625	0.1169	0.0004
0.75	0.18	0.01
0.875	0.24	0.01
1	0.3	0.01

System: D-sucrose + ethanol + water; phases: Liquid, Crystal
Fixed: Temperature, K = 310
Fixed: Pressure, kPa = 101.3
Property: Viscosity, Pa*s (Liquid); method: Concentric cylinders viscometry
Solvent: Mass fraction of water	Viscosity, Pa*s	uncertainty
0	0.00089	0.00018
0.05	0.00112	0.00023
0.15	0.00137	0.00028
0.25	0.00232	0.00047
0.375	0.0056	0.00113
0.5	0.01856	0.00375
0.625	0.04103	0.0083
0.75	0.07532	0.01529
0.875	0.09179	0.01867
1	0.09174	0.01866

System: D-sucrose + ethanol + water; phases: Liquid, Crystal
Fixed: Temperature, K = 310
Fixed: Pressure, kPa = 101
Property: Mass fraction of D-sucrose (Liquid); method: Gravimetry
Solvent: Mass fraction of water	Mass fraction of D-sucrose	uncertainty
0	0.003	0.001
0.05	0.0007	0.0001
0.15	0.0253	0.0001
0.25	0.119	0.001
0.375	0.31	0.01
0.5	0.46	0.01
0.625	0.56	0.01
0.75	0.624	0.002
0.875	0.663	0.002
1	0.701	0.002

System: ethanol + D-(+)-trehalose dihydrate + water; phases: Liquid, Crystal
Fixed: Temperature, K = 310
Fixed: Pressure, kPa = 101.3
Property: Viscosity, Pa*s (Liquid); method: Concentric cylinders viscometry
Solvent: Mass fraction of water	Viscosity, Pa*s	uncertainty
0	0.0013	0.00026
0.05	0.00146	0.00029
0.15	0.0013	0.00026
0.25	0.00186	0.00038
0.375	0.00276	0.00056
0.5	0.00418	0.00084
0.625	0.00684	0.00138
0.75	0.00848	0.00171
1	0.00964	0.00194

System: ethanol + D-(+)-trehalose dihydrate + water; phases: Liquid, Crystal
Fixed: Temperature, K = 310
Fixed: Pressure, kPa = 101
Property: Mass fraction of D-(+)-trehalose dihydrate (Liquid); method: Gravimetry
Solvent: Mass fraction of water	Mass fraction of D-(+)-trehalose dihydrate	uncertainty
0	0.001	0.0001
0.05	0.003	0.001
0.15	0.006	0.001
0.25	0.024	0.001
0.375	0.11	0.01
0.5	0.19	0.001
0.625	0.295	0.001
0.75	0.394	0.001
0.875	0.461	0.001
1	0.508	0.002

System: ethanol + mannitol + water; phases: Liquid, Crystal
Fixed: Temperature, K = 310
Fixed: Pressure, kPa = 101.3
Property: Viscosity, Pa*s (Liquid); method: Concentric cylinders viscometry
Solvent: Mass fraction of water	Viscosity, Pa*s	uncertainty
0	0.00148	0.0003
0.05	0.00129	0.00026
0.15	0.00151	0.0003
0.25	0.00182	0.00037
0.375	0.00214	0.00043
0.5	0.00241	0.00049
0.625	0.00244	0.00049
0.75	0.00242	0.00049
0.875	0.00228	0.00046
1	0.00179	0.00036

System: ethanol + mannitol + water; phases: Liquid, Crystal
Fixed: Temperature, K = 310
Fixed: Pressure, kPa = 101
Property: Mass fraction of mannitol (Liquid); method: Gravimetry
Solvent: Mass fraction of water	Mass fraction of mannitol	uncertainty
0	0.0018	0.0001
0.05	0.002	0.001
0.15	0.006	0.001
0.25	0.0135	0.0001
0.375	0.034	0.001
0.5	0.06	0.001
0.625	0.093	0.001
0.75	0.132	0.001
0.875	0.185	0.001
1	0.238	0.001

System: D-sorbitol + ethanol + water; phases: Liquid, Crystal
Fixed: Temperature, K = 310
Fixed: Pressure, kPa = 101.3
Property: Viscosity, Pa*s (Liquid); method: Concentric cylinders viscometry
Solvent: Mass fraction of water	Viscosity, Pa*s	uncertainty
0	0.00127	0.00026
0.05	0.00152	0.00031
0.15	0.00213	0.00043
0.25	0.00427	0.00086
0.375	0.06854	0.01386
0.5	0.10301	0.02092

System: D-sorbitol + ethanol + water; phases: Liquid, Crystal
Fixed: Temperature, K = 310
Fixed: Pressure, kPa = 101
Property: Mass fraction of D-sorbitol (Liquid); method: Gravimetry
Solvent: Mass fraction of water	Mass fraction of D-sorbitol	uncertainty
0	0.01	0.0001
0.05	0.021	0.001
0.15	0.101	0.001
0.25	0.25	0.01
0.375	0.472	0.002
0.5	0.57	0.01
0.625	0.66	0.01
0.75	0.72	0.01
0.875	0.734	0.002
1	0.762	0.002

System: 4-O-.beta.-D-galactopyranosyl-D-glucose + ethanol; phases: Liquid, Crystal
Property: Mass fraction of 4-O-.beta.-D-galactopyranosyl-D-glucose (Liquid); method: Gravimetry
Temperature, K	Pressure, kPa	Mass fraction of 4-O-.beta.-D-galactopyranosyl-D-glucose	uncertainty
310	101	0.0002	0.0001

System: ethanol + D-(+)-maltose monohydrate; phases: Liquid, Crystal
Property: Viscosity, Pa*s (Liquid); method: Concentric cylinders viscometry
Temperature, K	Pressure, kPa	Viscosity, Pa*s	uncertainty
310	101.3	0.00112	0.00023

System: ethanol + D-(+)-maltose monohydrate; phases: Liquid, Crystal
Property: Mass fraction of D-(+)-maltose monohydrate (Liquid); method: Gravimetry
Temperature, K	Pressure, kPa	Mass fraction of D-(+)-maltose monohydrate	uncertainty
310	101	0.0174	0.0001

System: ethanol + D-raffinose, pentahydrate; phases: Liquid, Crystal
Property: Viscosity, Pa*s (Liquid); method: Concentric cylinders viscometry
Temperature, K	Pressure, kPa	Viscosity, Pa*s	uncertainty
310	101.3	0.00123	0.00025

System: D-sucrose + ethanol; phases: Liquid, Crystal
Property: Viscosity, Pa*s (Liquid); method: Concentric cylinders viscometry
Temperature, K	Pressure, kPa	Viscosity, Pa*s	uncertainty
310	101.3	0.00089	0.00018

System: D-sucrose + ethanol; phases: Liquid, Crystal
Property: Mass fraction of D-sucrose (Liquid); method: Gravimetry
Temperature, K	Pressure, kPa	Mass fraction of D-sucrose	uncertainty
310	101	0.003	0.001

System: ethanol + D-(+)-trehalose dihydrate; phases: Liquid, Crystal
Property: Viscosity, Pa*s (Liquid); method: Concentric cylinders viscometry
Temperature, K	Pressure, kPa	Viscosity, Pa*s	uncertainty
310	101.3	0.0013	0.00026

System: ethanol + D-(+)-trehalose dihydrate; phases: Liquid, Crystal
Property: Mass fraction of D-(+)-trehalose dihydrate (Liquid); method: Gravimetry
Temperature, K	Pressure, kPa	Mass fraction of D-(+)-trehalose dihydrate	uncertainty
310	101	0.001	0.0001

System: ethanol + mannitol; phases: Liquid, Crystal
Property: Viscosity, Pa*s (Liquid); method: Concentric cylinders viscometry
Temperature, K	Pressure, kPa	Viscosity, Pa*s	uncertainty
310	101.3	0.00148	0.0003

System: ethanol + mannitol; phases: Liquid, Crystal
Property: Mass fraction of mannitol (Liquid); method: Gravimetry
Temperature, K	Pressure, kPa	Mass fraction of mannitol	uncertainty
310	101	0.0018	0.0001

System: D-sorbitol + ethanol; phases: Liquid, Crystal
Property: Viscosity, Pa*s (Liquid); method: Concentric cylinders viscometry
Temperature, K	Pressure, kPa	Viscosity, Pa*s	uncertainty
310	101.3	0.00127	0.00026

System: D-sorbitol + ethanol; phases: Liquid, Crystal
Property: Mass fraction of D-sorbitol (Liquid); method: Gravimetry
Temperature, K	Pressure, kPa	Mass fraction of D-sorbitol	uncertainty
310	101	0.01	0.0001
