Measured thermophysical data. Physical Properties of Binary Mixtures of the Ionic Liquid 1-Ethyl-3-methylimidazolium Ethyl Sulfate with Several Alcohols at T = (298.15, 313.15, and 328.15) K and Atmospheric Pressure
Source: J. Chem. Eng. Data, 2007, 10.1021/je700029q
Compound 1: methanol, CH4O, InChI=1S/CH4O/c1-2/h2H,1H3
Compound 2: propan-1-ol, C3H8O, InChI=1S/C3H8O/c1-2-3-4/h4H,2-3H2,1H3
Compound 3: propan-2-ol, C3H8O, InChI=1S/C3H8O/c1-3(2)4/h3-4H,1-2H3
Compound 4: 1-ethyl-3-methylimidazolium ethyl sulfate, C8H16N2O4S, InChI=1S/C6H11N2.C2H6O4S/c1-3-8-5-4-7(2)6-8;1-2-6-7(3,4)5/h4-6H,3H2,1-2H3;2H2,1H3,(H,3,4,5)/q+1;/p-1

System: methanol; phases: Liquid
Property: Refractive index (Na D-line) (Liquid); method: ABBE::UFactor:2
Temperature, K	Pressure, kPa	Refractive index (Na D-line)	uncertainty
298.15	101.325	1.32687	0.00086

System: methanol; phases: Liquid
Fixed: Pressure, kPa = 101
Property: Viscosity, Pa*s (Liquid); method: CAPTUB::UFactor:4
Temperature, K	Viscosity, Pa*s	uncertainty
298.15	0.000546	2.4e-05
313.15	0.000446	2.3e-05
328.15	0.000369	2.2e-05

System: methanol; phases: Liquid
Fixed: Pressure, kPa = 101
Property: Speed of sound, m/s (Liquid); method: FPINT::UFactor:8
Temperature, K	Speed of sound, m/s	uncertainty
298.15	1103	5
313.15	1055	5
328.15	1006	4

System: methanol; phases: Liquid
Fixed: Pressure, kPa = 101
Property: Mass density, kg/m3 (Liquid); method: VIBTUB::UFactor:8
Temperature, K	Mass density, kg/m3	uncertainty
298.15	786.4	0.9
313.15	772.3	1
328.15	757.8	1

System: propan-1-ol; phases: Liquid
Property: Refractive index (Na D-line) (Liquid); method: ABBE::UFactor:2
Temperature, K	Pressure, kPa	Refractive index (Na D-line)	uncertainty
298.15	101.325	1.3831	0.00086

System: propan-1-ol; phases: Liquid
Fixed: Pressure, kPa = 101
Property: Viscosity, Pa*s (Liquid); method: CAPTUB::UFactor:4
Temperature, K	Viscosity, Pa*s	uncertainty
298.15	0.002017	4.7e-05
313.15	0.00143	3.7e-05
328.15	0.001041	3.1e-05

System: propan-1-ol; phases: Liquid
Fixed: Pressure, kPa = 101
Property: Speed of sound, m/s (Liquid); method: FPINT::UFactor:8
Temperature, K	Speed of sound, m/s	uncertainty
298.15	1207	5
313.15	1155	5
328.15	1105	5

System: propan-1-ol; phases: Liquid
Fixed: Pressure, kPa = 101
Property: Mass density, kg/m3 (Liquid); method: VIBTUB::UFactor:8
Temperature, K	Mass density, kg/m3	uncertainty
298.15	799.6	0.9
313.15	787.4	0.9
328.15	774.8	1

System: propan-2-ol; phases: Liquid
Property: Refractive index (Na D-line) (Liquid); method: ABBE::UFactor:2
Temperature, K	Pressure, kPa	Refractive index (Na D-line)	uncertainty
298.15	101.325	1.37495	0.00086

System: propan-2-ol; phases: Liquid
Fixed: Pressure, kPa = 101
Property: Viscosity, Pa*s (Liquid); method: CAPTUB::UFactor:4
Temperature, K	Viscosity, Pa*s	uncertainty
298.15	0.002082	4.9e-05
313.15	0.001354	3.6e-05
328.15	0.000919	3e-05

System: propan-2-ol; phases: Liquid
Fixed: Pressure, kPa = 101
Property: Speed of sound, m/s (Liquid); method: FPINT::UFactor:8
Temperature, K	Speed of sound, m/s	uncertainty
298.15	1138	5
313.15	1085	5
328.15	1031	5

System: propan-2-ol; phases: Liquid
Fixed: Pressure, kPa = 101
Property: Mass density, kg/m3 (Liquid); method: VIBTUB::UFactor:8
Temperature, K	Mass density, kg/m3	uncertainty
298.15	780.7	0.9
313.15	767.8	1
328.15	753.9	1

System: 1-ethyl-3-methylimidazolium ethyl sulfate; phases: Liquid
Property: Refractive index (Na D-line) (Liquid); method: ABBE:UFactor:2
Temperature, K	Pressure, kPa	Refractive index (Na D-line)	uncertainty
298.15	101.325	1.4794	0.00132

System: 1-ethyl-3-methylimidazolium ethyl sulfate; phases: Liquid
Fixed: Pressure, kPa = 101
Property: Viscosity, Pa*s (Liquid); method: CAPTUB:UFactor:4
Temperature, K	Viscosity, Pa*s	uncertainty
298.15	0.09758	0.00514
313.15	0.05001	0.00133
328.15	0.02918	0.00092

System: 1-ethyl-3-methylimidazolium ethyl sulfate; phases: Liquid
Fixed: Pressure, kPa = 101
Property: Speed of sound, m/s (Liquid); method: FPINT:UFactor:8
Temperature, K	Speed of sound, m/s	uncertainty
298.15	1679	8
313.15	1641	8
313.15	1642	8
313.15	1643	8
328.15	1605	8

System: 1-ethyl-3-methylimidazolium ethyl sulfate; phases: Liquid
Fixed: Pressure, kPa = 101
Property: Mass density, kg/m3 (Liquid); method: VIBTUB:UFactor:8
Temperature, K	Mass density, kg/m3	uncertainty
298.15	1237.6	9.2
313.15	1227.5	9
328.15	1217.5	8.9

System: methanol + 1-ethyl-3-methylimidazolium ethyl sulfate; phases: Liquid
Fixed: Pressure, kPa = 101
Fixed: Temperature, K = 298.15
Property: Refractive index (Na D-line) (Liquid); method: ABBE:UFactor:2
Mole fraction of methanol	Refractive index (Na D-line)	uncertainty
0	1.4794	0.00132
0.1346	1.47491	0.00122
0.2595	1.47006	0.00114
0.3267	1.46675	0.0011
0.4741	1.45742	0.00102
0.5701	1.44913	0.00097
0.6664	1.43808	0.00093
0.7757	1.42043	0.0009
0.8294	1.4078	0.00088
0.923	1.37377	0.00087
0.9626	1.35299	0.00086
0.9917	1.33319	0.00086
1	1.32687	0.00086

System: methanol + 1-ethyl-3-methylimidazolium ethyl sulfate; phases: Liquid
Fixed: Pressure, kPa = 101
Property: Viscosity, Pa*s (Liquid); method: CAPTUB:UFactor:4
Temperature, K	Mole fraction of methanol	Viscosity, Pa*s	uncertainty
298.15	0	0.09758	0.00514
298.15	0.1346	0.06093	0.00162
298.15	0.2595	0.03932	0.001
298.15	0.3267	0.03059	0.00074
298.15	0.4741	0.01638	0.00037
298.15	0.5701	0.01012	0.00023
298.15	0.6664	0.00645	0.000145
298.15	0.7757	0.003232	7.6e-05
298.15	0.8294	0.002351	5.5e-05
298.15	0.923	0.001639	4.2e-05
298.15	0.9626	0.001263	3.5e-05
298.15	0.9917	0.001039	3.1e-05
298.15	1	0.000546	2.4e-05
313.15	0	0.05001	0.00133
313.15	0.1346	0.03383	0.00096
313.15	0.2595	0.0234	0.00061
313.15	0.3267	0.01894	0.00047
313.15	0.4741	0.01102	0.00026
313.15	0.5701	0.007173	0.000166
313.15	0.6664	0.004776	0.000114
313.15	0.7757	0.002508	5.9e-05
313.15	0.8294	0.00186	4.5e-05
313.15	0.923	0.000901	3e-05
313.15	0.9626	0.00066	2.6e-05
313.15	0.9917	0.000516	2.4e-05
313.15	1	0.000446	2.3e-05
328.15	0	0.02918	0.00092
328.15	0.1346	0.02092	0.0006
328.15	0.2595	0.01525	0.0004
328.15	0.3267	0.01265	0.00032
328.15	0.4741	0.007887	0.000191
328.15	0.5701	0.005387	0.000131
328.15	0.6664	0.003661	8.8e-05
328.15	0.7757	0.00202	4.9e-05
328.15	0.8294	0.001501	3.9e-05
328.15	0.923	0.000666	2.6e-05
328.15	0.9626	0.000551	2.4e-05
328.15	0.9917	0.00043	2.3e-05
328.15	1	0.000369	2.2e-05

System: methanol + 1-ethyl-3-methylimidazolium ethyl sulfate; phases: Liquid
Fixed: Pressure, kPa = 101
Property: Speed of sound, m/s (Liquid); method: FPINT:UFactor:8
Temperature, K	Mole fraction of methanol	Speed of sound, m/s	uncertainty
298.15	0	1679	8
298.15	0.1346	1663	8
298.15	0.2595	1640	7
298.15	0.3267	1624	7
298.15	0.4741	1583	7
298.15	0.5701	1547	6
298.15	0.6664	1500	6
298.15	0.7757	1423	6
298.15	0.8294	1371	6
298.15	0.923	1251	5
298.15	0.9626	1187	5
298.15	0.9917	1123	5
298.15	1	1103	5
313.15	0	1641	8
313.15	0.1346	1627	8
313.15	0.2595	1603	7
313.15	0.3267	1587	7
313.15	0.4741	1546	7
313.15	0.5701	1509	6
313.15	0.6664	1461	6
313.15	0.7757	1382	6
313.15	0.8294	1330	5
313.15	0.923	1207	5
313.15	0.9626	1137	5
313.15	0.9917	1076	5
313.15	1	1055	5
328.15	0	1605	8
328.15	0.1346	1588	8
328.15	0.2595	1564	7
328.15	0.3267	1549	7
328.15	0.4741	1506	7
328.15	0.5701	1469	6
328.15	0.6664	1420	6
328.15	0.7757	1340	6
328.15	0.8294	1287	5
328.15	0.923	1162	5
328.15	0.9626	1090	5
328.15	0.9917	1029	5
328.15	1	1006	4

System: methanol + 1-ethyl-3-methylimidazolium ethyl sulfate; phases: Liquid
Fixed: Pressure, kPa = 101
Property: Mass density, kg/m3 (Liquid); method: VIBTUB:UFactor:8
Temperature, K	Mole fraction of methanol	Mass density, kg/m3	uncertainty
298.15	0	1237.6	9.2
298.15	0.1346	1224.2	6.9
298.15	0.2595	1209.1	5.1
298.15	0.3267	1199.4	4.3
298.15	0.4741	1171.9	2.8
298.15	0.5701	1146.8	2
298.15	0.6664	1113.9	1.4
298.15	0.7757	1059	0.8
298.15	0.8294	1021.1	0.5
298.15	0.923	924.9	0.5
298.15	0.9626	863.7	0.7
298.15	0.9917	806	0.9
298.15	1	786.4	0.9
313.15	0	1227.5	9
313.15	0.1346	1214.1	6.8
313.15	0.2595	1199	5
313.15	0.3267	1189.1	4.2
313.15	0.4741	1161.3	2.7
313.15	0.5701	1135.9	2
313.15	0.6664	1102.9	1.3
313.15	0.7757	1047.5	0.7
313.15	0.8294	1009.2	0.5
313.15	0.923	912.2	0.6
313.15	0.9626	850.4	0.7
313.15	0.9917	792.2	0.9
313.15	1	772.3	1
328.15	0	1217.5	8.9
328.15	0.1346	1204	6.7
328.15	0.2595	1188.6	4.9
328.15	0.3267	1178.8	4.1
328.15	0.4741	1150.7	2.7
328.15	0.5701	1125.1	1.9
328.15	0.6664	1091.8	1.3
328.15	0.7757	1035.9	0.7
328.15	0.8294	997.3	0.5
328.15	0.923	899.3	0.6
328.15	0.9626	836.9	0.8
328.15	0.9917	777.7	0.9
328.15	1	757.8	1

System: propan-1-ol + 1-ethyl-3-methylimidazolium ethyl sulfate; phases: Liquid
Fixed: Pressure, kPa = 101
Fixed: Temperature, K = 298.15
Property: Refractive index (Na D-line) (Liquid); method: ABBE:UFactor:2
Mole fraction of propan-1-ol	Refractive index (Na D-line)	uncertainty
0	1.4794	0.00132
0.1619	1.47317	0.0012
0.2104	1.47102	0.00117
0.336	1.46449	0.00109
0.5159	1.4524	0.001
0.7298	1.43139	0.00091
0.8046	1.42139	0.00089
0.8894	1.40743	0.00087
0.9401	1.39739	0.00087
0.9727	1.39003	0.00086
1	1.3831	0.00086

System: propan-1-ol + 1-ethyl-3-methylimidazolium ethyl sulfate; phases: Liquid
Fixed: Pressure, kPa = 101
Property: Viscosity, Pa*s (Liquid); method: CAPTUB:UFactor:4
Temperature, K	Mole fraction of propan-1-ol	Viscosity, Pa*s	uncertainty
298.15	0	0.09758	0.00514
298.15	0.1619	0.06085	0.00157
298.15	0.2104	0.05211	0.00109
298.15	0.336	0.03441	0.00084
298.15	0.5159	0.01801	0.0004
298.15	0.7298	0.007296	0.000159
298.15	0.8046	0.005491	0.000122
298.15	0.8894	0.003577	8.1e-05
298.15	0.9401	0.002776	6.4e-05
298.15	0.9727	0.002419	5.6e-05
298.15	1	0.002017	4.7e-05
313.15	0	0.05001	0.00133
313.15	0.1619	0.03373	0.00094
313.15	0.2104	0.02956	0.0008
313.15	0.336	0.02072	0.00051
313.15	0.5159	0.01173	0.00027
313.15	0.7298	0.005125	0.000119
313.15	0.8046	0.003918	9e-05
313.15	0.8894	0.00258	6e-05
313.15	0.9401	0.001997	4.7e-05
313.15	0.9727	0.001729	4.3e-05
313.15	1	0.00143	3.7e-05
328.15	0	0.02918	0.00092
328.15	0.1619	0.02084	0.00059
328.15	0.2104	0.01859	0.00051
328.15	0.336	0.01361	0.00034
328.15	0.5159	0.008159	0.000191
328.15	0.7298	0.003774	8.9e-05
328.15	0.8046	0.002918	6.8e-05
328.15	0.8894	0.001923	4.6e-05
328.15	0.9401	0.001482	3.8e-05
328.15	0.9727	0.001272	3.5e-05
328.15	1	0.001041	3.1e-05

System: propan-1-ol + 1-ethyl-3-methylimidazolium ethyl sulfate; phases: Liquid
Fixed: Pressure, kPa = 101
Property: Speed of sound, m/s (Liquid); method: FPINT:UFactor:8
Temperature, K	Mole fraction of propan-1-ol	Speed of sound, m/s	uncertainty
298.15	0	1679	8
298.15	0.1619	1637	8
298.15	0.2104	1620	7
298.15	0.336	1574	7
298.15	0.5159	1492	6
298.15	0.7298	1382	6
298.15	0.8046	1337	6
298.15	0.8894	1284	5
298.15	0.9401	1249	5
298.15	0.9727	1227	5
298.15	1	1207	5
313.15	0	1642	8
313.15	0.1619	1600	8
313.15	0.2104	1584	7
313.15	0.336	1537	7
313.15	0.5159	1456	6
313.15	0.7298	1340	6
313.15	0.8046	1294	5
313.15	0.8894	1238	5
313.15	0.9401	1201	5
313.15	0.9727	1178	5
313.15	1	1155	5
328.15	0	1605	8
328.15	0.1619	1565	7
328.15	0.2104	1548	7
328.15	0.336	1501	7
328.15	0.5159	1419	6
328.15	0.7298	1300	5
328.15	0.8046	1252	5
328.15	0.8894	1193	5
328.15	0.9401	1154	5
328.15	0.9727	1130	5
328.15	1	1105	5

System: propan-1-ol + 1-ethyl-3-methylimidazolium ethyl sulfate; phases: Liquid
Fixed: Pressure, kPa = 101
Property: Mass density, kg/m3 (Liquid); method: VIBTUB:UFactor:8
Temperature, K	Mole fraction of propan-1-ol	Mass density, kg/m3	uncertainty
298.15	0	1237.6	9.2
298.15	0.1619	1208.1	6.3
298.15	0.2104	1197.9	5.6
298.15	0.336	1167.4	4
298.15	0.5159	1111.6	2.1
298.15	0.7298	1015.5	0.7
298.15	0.8046	970	0.6
298.15	0.8894	907.7	0.6
298.15	0.9401	862.5	0.7
298.15	0.9727	829.8	0.8
298.15	1	799.6	0.9
313.15	0	1227.5	9
313.15	0.1619	1197.9	6.2
313.15	0.2104	1187.6	5.5
313.15	0.336	1157.1	3.9
313.15	0.5159	1100.8	2.1
313.15	0.7298	1004.4	0.7
313.15	0.8046	958.6	0.6
313.15	0.8894	895.9	0.6
313.15	0.9401	850.6	0.7
313.15	0.9727	817.8	0.8
313.15	1	787.4	0.9
328.15	0	1217.5	8.9
328.15	0.1619	1187.6	6.1
328.15	0.2104	1177.3	5.4
328.15	0.336	1146.7	3.8
328.15	0.5159	1090.2	2
328.15	0.7298	993.2	0.7
328.15	0.8046	947.2	0.6
328.15	0.8894	884	0.7
328.15	0.9401	838.5	0.8
328.15	0.9727	805.5	0.9
328.15	1	774.8	1

System: propan-2-ol + 1-ethyl-3-methylimidazolium ethyl sulfate; phases: Liquid
Fixed: Pressure, kPa = 101
Fixed: Temperature, K = 298.15
Property: Refractive index (Na D-line) (Liquid); method: ABBE:UFactor:2
Mole fraction of propan-2-ol	Refractive index (Na D-line)	uncertainty
0	1.4794	0.00132
0.1228	1.47434	0.00124
0.2066	1.47057	0.00118
0.309	1.46502	0.00112
0.399	1.45926	0.00107
0.4977	1.45177	0.00101
0.6341	1.43881	0.00095
0.7223	1.42818	0.00092
0.8551	1.40784	0.00088
0.9706	1.38306	0.00087
1	1.37495	0.00086

System: propan-2-ol + 1-ethyl-3-methylimidazolium ethyl sulfate; phases: Liquid
Fixed: Pressure, kPa = 101
Property: Viscosity, Pa*s (Liquid); method: CAPTUB:UFactor:4
Temperature, K	Mole fraction of propan-2-ol	Viscosity, Pa*s	uncertainty
298.15	0	0.09758	0.00514
298.15	0.1228	0.06971	0.00227
298.15	0.2066	0.05367	0.00116
298.15	0.309	0.0401	0.00099
298.15	0.399	0.02979	0.0007
298.15	0.4977	0.02114	0.00047
298.15	0.6341	0.0124	0.00026
298.15	0.7223	0.008462	0.000181
298.15	0.8551	0.004475	0.000103
298.15	0.9706	0.002499	5.8e-05
298.15	1	0.002082	4.9e-05
313.15	0	0.05001	0.00133
313.15	0.1228	0.03779	0.00108
313.15	0.2066	0.03034	0.00082
313.15	0.309	0.02356	0.0006
313.15	0.399	0.01823	0.00044
313.15	0.4977	0.01341	0.00031
313.15	0.6341	0.008274	0.000185
313.15	0.7223	0.005753	0.000132
313.15	0.8551	0.003081	7.2e-05
313.15	0.9706	0.001658	4.2e-05
313.15	1	0.001354	3.6e-05
328.15	0	0.02918	0.00092
328.15	0.1228	0.02297	0.00067
328.15	0.2066	0.01893	0.00052
328.15	0.309	0.0152	0.0004
328.15	0.399	0.0121	0.0003
328.15	0.4977	0.009184	0.000219
328.15	0.6341	0.005878	0.000139
328.15	0.7223	0.00415	9.9e-05
328.15	0.8551	0.002225	5.3e-05
328.15	0.9706	0.001147	3.3e-05
328.15	1	0.000919	3e-05

System: propan-2-ol + 1-ethyl-3-methylimidazolium ethyl sulfate; phases: Liquid
Fixed: Pressure, kPa = 101
Property: Speed of sound, m/s (Liquid); method: FPINT:UFactor:8
Temperature, K	Mole fraction of propan-2-ol	Speed of sound, m/s	uncertainty
298.15	0	1679	8
298.15	0.1228	1644	8
298.15	0.2066	1611	7
298.15	0.309	1570	7
298.15	0.399	1529	7
298.15	0.4977	1475	6
298.15	0.6341	1399	6
298.15	0.7223	1342	6
298.15	0.8551	1251	5
298.15	0.9706	1164	5
298.15	1	1138	5
313.15	0	1643	8
313.15	0.1228	1608	8
313.15	0.2066	1576	7
313.15	0.309	1534	7
313.15	0.399	1491	7
313.15	0.4977	1439	6
313.15	0.6341	1360	6
313.15	0.7223	1302	6
313.15	0.8551	1207	5
313.15	0.9706	1113	5
313.15	1	1085	5
328.15	0	1605	8
328.15	0.1228	1569	8
328.15	0.2066	1537	7
328.15	0.309	1494	7
328.15	0.399	1451	7
328.15	0.4977	1399	6
328.15	0.6341	1318	6
328.15	0.7223	1259	5
328.15	0.8551	1161	5
328.15	0.9706	1063	5
328.15	1	1031	5

System: propan-2-ol + 1-ethyl-3-methylimidazolium ethyl sulfate; phases: Liquid
Fixed: Pressure, kPa = 101
Property: Mass density, kg/m3 (Liquid); method: VIBTUB:UFactor:8
Temperature, K	Mole fraction of propan-2-ol	Mass density, kg/m3	uncertainty
298.15	0	1237.6	9.2
298.15	0.1228	1214.3	7
298.15	0.2066	1196.4	5.7
298.15	0.309	1170.9	4.4
298.15	0.399	1144.9	3.3
298.15	0.4977	1111.8	2.4
298.15	0.6341	1054.2	1.3
298.15	0.7223	1008.5	0.8
298.15	0.8551	920.2	0.7
298.15	0.9706	814.1	0.9
298.15	1	780.7	0.9
313.15	0	1227.5	9
313.15	0.1228	1204.4	6.9
313.15	0.2066	1186.4	5.6
313.15	0.309	1160.9	4.3
313.15	0.399	1134.7	3.3
313.15	0.4977	1101.3	2.3
313.15	0.6341	1043.5	1.3
313.15	0.7223	997.4	0.8
313.15	0.8551	908.6	0.7
313.15	0.9706	801.7	0.9
313.15	1	767.8	1
328.15	0	1217.5	8.9
328.15	0.1228	1194.5	6.8
328.15	0.2066	1176.3	5.5
328.15	0.309	1150.7	4.2
328.15	0.399	1124.3	3.2
328.15	0.4977	1090.7	2.3
328.15	0.6341	1032.6	1.2
328.15	0.7223	986.2	0.8
328.15	0.8551	896.6	0.7
328.15	0.9706	788.5	0.9
328.15	1	753.9	1
