Measured thermophysical data. Solubility of Acesulfame Potassium in Ethanol + Water and Methanol + Water Systems from (275.84 to 322.90) K
Source: J. Chem. Eng. Data, 2008, 10.1021/je700713q
Compound 1: acesulfame potassium, C4H4KNO4S, InChI=1S/C4H5NO4S.K/c1-3-2-4(6)5-10(7,8)9-3;/h2H,1H3,(H,5,6);/q;+1/p-1
Compound 2: methanol, CH4O, InChI=1S/CH4O/c1-2/h2H,1H3
Compound 3: ethanol, C2H6O, InChI=1S/C2H6O/c1-2-3/h3H,2H2,1H3, purity 99.8%
Compound 4: water, H2O, InChI=1S/H2O/h1H2

System: acesulfame potassium; phases: Crystal, Liquid, Air at 1 atmosphere
Property: Normal melting temperature, K (Crystal); method: VISOBS
Normal melting temperature, K	uncertainty
502.15	1

System: water + acesulfame potassium; phases: Liquid, Crystal
Fixed: Pressure, kPa = 101
Property: Solid-liquid equilibrium temperature, K (Liquid); method: VISOBS
Mole fraction of acesulfame potassium	Solid-liquid equilibrium temperature, K	uncertainty
0.01512	277.98	3.87
0.016726	281.23	3.57
0.018612	284.73	3.72
0.020718	288.35	3.2
0.024935	294.9	3.06
0.027061	298.02	2.88
0.029203	301.03	2.75
0.031422	304.01	2.65
0.033773	307.07	2.56
0.036288	310.24	2.49
0.038969	313.53	2.52
0.04191	317.3	2.04
0.047443	322.3	1.81

System: methanol + acesulfame potassium; phases: Liquid, Crystal
Fixed: Pressure, kPa = 101
Property: Solid-liquid equilibrium temperature, K (Liquid); method: laser monitoring
Mole fraction of acesulfame potassium	Solid-liquid equilibrium temperature, K	uncertainty
0.015585	277.7	5.09
0.017293	281.79	5.38
0.018883	286.1	4.98
0.020489	290.39	5.18
0.022217	294.2	4.83
0.023752	298.51	4.13
0.025555	302.21	4.11
0.028831	307.8	3.21
0.031287	311.39	2.93
0.034064	315.47	2.7
0.037142	319.3	2.43
0.040093	322.8	2.37

System: ethanol + acesulfame potassium; phases: Liquid, Crystal
Fixed: Pressure, kPa = 101
Property: Solid-liquid equilibrium temperature, K (Liquid); method: laser monitoring
Mole fraction of acesulfame potassium	Solid-liquid equilibrium temperature, K	uncertainty
0.012259	277.1	3.4
0.015369	282.39	3.86
0.017592	287.47	4.28
0.02	292.3	4.03
0.0226	297.55	3.51
0.025865	302.65	2.8
0.029968	307.9	1.41
0.039632	312.93	1.01
0.049616	317.87	0.83
0.0634	322.9	0.73

System: ethanol + water + acesulfame potassium; phases: Liquid, Crystal
Fixed: Pressure, kPa = 101
Property: Solid-liquid equilibrium temperature, K (Liquid); method: laser monitoring
Solvent: Mass fraction of ethanol	Mole fraction of acesulfame potassium	Solid-liquid equilibrium temperature, K	uncertainty
0.19897	0.0094829	278.11	4.09
0.19897	0.011857	282.97	3.83
0.19897	0.014024	286.79	3.27
0.19897	0.016243	290.14	3.02
0.19897	0.01871	293.87	2.86
0.19897	0.021548	297.73	2.58
0.19897	0.024824	301.76	2.41
0.19897	0.028536	306.16	2.26
0.19897	0.032609	310.58	2.13
0.19897	0.0368	314.97	2.07
0.19897	0.040388	318.63	1.98
0.19897	0.043549	321.64	1.9
0.39755	0.0076145	277.7	4.07
0.39755	0.009219	280.29	4.12
0.39755	0.011525	285.7	4.52
0.39755	0.013596	289.87	3.94
0.39755	0.01566	293.75	3.47
0.39755	0.017755	297.05	3.33
0.39755	0.019958	300.72	3
0.39755	0.022274	304.06	2.88
0.39755	0.024849	307.47	2.41
0.39755	0.027779	311.42	2.45
0.39755	0.030949	315.31	2.29
0.39755	0.036591	321.77	2.29
0.50016	0.0064122	275.84	5.11
0.50016	0.0083043	281.04	4.57
0.50016	0.010191	286.03	4.96
0.50016	0.011816	290.05	4.59
0.50016	0.013542	293.77	4.09
0.50016	0.01545	297.75	4.07
0.50016	0.017681	301.75	3.64
0.50016	0.020274	306.09	3.37
0.50016	0.02329	310.91	3.01
0.50016	0.026653	315.7	2.77
0.50016	0.030528	320.95	2.71
0.59933	0.0061391	278.2	5.32
0.59933	0.0075936	283.5	4.81
0.59933	0.0087623	287.39	6.43
0.59933	0.0099918	291.45	5.79
0.59933	0.01134	295.43	5.28
0.59933	0.012921	299.36	4.8
0.59933	0.014754	303.67	4.35
0.59933	0.016575	307.57	4.71
0.59933	0.018774	311.87	3.66
0.59933	0.021562	316.72	3.25
0.59933	0.024918	321.87	3.07
0.70031	0.0044003	278.95	11.21
0.70031	0.0053059	285.06	6.4
0.70031	0.0060091	288.7	5.76
0.70031	0.0067515	292.13	8.24
0.70031	0.0076551	295.88	8.22
0.70031	0.0086631	299.9	7.4
0.70031	0.0097226	303.69	5.33
0.70031	0.01093	307.53	5.75
0.70031	0.012352	311.35	4.97
0.70031	0.014032	315.45	4.76
0.70031	0.016886	321.68	4.37
0.79947	0.0019686	281.73	15.99
0.79947	0.0028449	288.5	14.9
0.79947	0.0034415	294.15	12.48
0.79947	0.0040458	298.6	13.43
0.79947	0.004672	302.75	13.1
0.79947	0.0052486	306.41	12.04
0.79947	0.0059089	309.55	10.83
0.79947	0.0066131	313.11	11.3
0.79947	0.0071894	315.85	10.41
0.79947	0.0077886	318.33	9.39
0.79947	0.008445	321.27	9.24

System: methanol + water + acesulfame potassium; phases: Liquid, Crystal
Fixed: Pressure, kPa = 101
Property: Solid-liquid equilibrium temperature, K (Liquid); method: laser monitoring
Solvent: Mass fraction of methanol	Mole fraction of acesulfame potassium	Solid-liquid equilibrium temperature, K	uncertainty
0.20144	0.0091088	277.55	4.41
0.20144	0.011173	282.1	3.95
0.20144	0.013161	286.3	3.8
0.20144	0.015138	289.55	3.61
0.20144	0.017218	292.95	3.26
0.20144	0.019383	296.46	2.89
0.20144	0.021512	299.15	2.81
0.20144	0.023745	302.59	2.82
0.20144	0.026333	305.97	2.42
0.20144	0.029684	309.81	2.23
0.20144	0.033904	314.43	2.09
0.20144	0.037984	318.5	2.05
0.20144	0.041688	322.4	2.11
0.39899	0.0079299	278.7	4.67
0.39899	0.0095289	283.67	3.97
0.39899	0.010971	286.85	4.49
0.39899	0.012888	291.25	4.37
0.39899	0.015177	295.69	3.79
0.39899	0.017677	300.17	3.22
0.39899	0.020337	304.39	2.79
0.39899	0.022713	308	3.06
0.39899	0.025259	311.6	2.68
0.39899	0.027839	315.05	2.53
0.39899	0.030458	318.19	2.4
0.39899	0.03318	321.45	2.4
0.6008	0.0054923	277.85	6.73
0.6008	0.0065721	281.5	4.38
0.6008	0.0077806	286.65	6.66
0.6008	0.0088983	290.15	5.28
0.6008	0.010092	294.05	5.36
0.6008	0.01135	297.65	5.15
0.6008	0.012395	300.57	4.46
0.6008	0.013874	304.45	3.04
0.6008	0.015606	307.97	4.06
0.6008	0.017598	311.63	3.8
0.6008	0.019855	315.8	3.5
0.6008	0.022281	319.83	3.32
0.6008	0.023873	321.72	2.95
0.79817	0.0030102	278.63	14.63
0.79817	0.0036636	283.06	14.31
0.79817	0.0042471	287.77	12.76
0.79817	0.0047723	291.93	11.73
0.79817	0.0053228	295.55	12.38
0.79817	0.0059259	299.25	12.29
0.79817	0.0064764	301.99	10.94
0.79817	0.0071803	306.05	9.64
0.79817	0.0079785	309.5	8.33
0.79817	0.0088693	313.09	8.24
0.79817	0.0098527	316.5	7.82
0.79817	0.010957	320.4	7
0.79817	0.011529	322.3	6.93
