Measured thermophysical data. Vapor-Liquid Equilibrium of Mixtures Containing Adipic Acid, Glutaric Acid, Dimethyl Adipate, Dimethyl Glutarate, Methanol, and Water
Source: J. Chem. Eng. Data, 2007, 10.1021/je700027n
Compound 1: methanol, CH4O, InChI=1S/CH4O/c1-2/h2H,1H3, purity 99.8%
Compound 2: dimethyl 1,6-hexanedioate, C8H14O4, InChI=1S/C8H14O4/c1-11-7(9)5-3-4-6-8(10)12-2/h3-6H2,1-2H3, purity 99%
Compound 3: dimethyl pentanedioate, C7H12O4, InChI=1S/C7H12O4/c1-10-6(8)4-3-5-7(9)11-2/h3-5H2,1-2H3, purity 98%
Compound 4: 1,5-pentanedioic acid, C5H8O4, InChI=1S/C5H8O4/c6-4(7)2-1-3-5(8)9/h1-3H2,(H,6,7)(H,8,9), purity 99%

System: methanol; phases: Liquid, Gas
Property: Vapor or sublimation pressure, kPa (Liquid); method: CCELL:UFactor:16
Temperature, K	Vapor or sublimation pressure, kPa	uncertainty
353.15	180.5	9.2
373.15	352.8	17.7
393.15	641.3	32.1
403.15	840.1	41.9
413.15	1087.3	54.2
433.15	1754.9	87.3

System: dimethyl 1,6-hexanedioate; phases: Liquid, Gas
Property: Vapor or sublimation pressure, kPa (Liquid); method: CCELL:UFactor:16
Temperature, K	Vapor or sublimation pressure, kPa	uncertainty
353.15	0.51	0.08
373.15	1.26	0.17
383.15	1.92	0.17
403.15	4.33	0.23
413.15	5.93	0.27
423.15	8.37	0.33
433.15	12.3	0.43
443.15	16.66	0.54

System: dimethyl pentanedioate; phases: Liquid, Gas
Property: Vapor or sublimation pressure, kPa (Liquid); method: CCELL:UFactor:16
Temperature, K	Vapor or sublimation pressure, kPa	uncertainty
393.15	8.85	0.6
413.15	19.14	0.6
413.15	19.1	1.2
423.15	25.31	0.75
433.15	32.89	0.94
433.15	32.9	1.9
443.15	41.36	1.15
453.15	51.72	1.41
463.15	63.01	1.69

System: 1,5-pentanedioic acid; phases: Liquid, Gas
Property: Vapor or sublimation pressure, kPa (Liquid); method: CCELL:UFactor:16
Temperature, K	Vapor or sublimation pressure, kPa	uncertainty
433.15	0.17	0.07
443.15	0.32	0.11
453.15	0.55	0.17

System: methanol + dimethyl 1,6-hexanedioate; phases: Liquid, Gas
Property: Vapor or sublimation pressure, kPa (Liquid); method: CCELL:UFactor:16
Temperature, K	Mole fraction of methanol	Vapor or sublimation pressure, kPa	uncertainty
353.15	0	0.51	0.16
353.15	0.1	30.4	2.4
353.15	0.199	53.4	3.2
353.15	0.328	80.5	4.4
353.15	0.489	108.6	5.7
353.15	0.599	125.9	6.6
353.15	0.671	137.4	7.2
353.15	0.687	141	7.3
353.15	0.749	148.1	7.6
353.15	0.786	153.7	7.9
353.15	0.833	158.3	8.1
353.15	0.936	172.6	8.8
353.15	1	180.5	9.2
373.15	0	1.26	0.34
373.15	0.093	45.1	3.7
373.15	0.196	92.9	5.5
373.15	0.32	141.6	7.3
373.15	0.332	145	7.5
373.15	0.478	198.9	10.4
373.15	0.55	223.8	12
373.15	0.583	234.8	12
373.15	0.669	260.5	13.2
373.15	0.802	287.8	14.6
373.15	0.945	335.4	17.1
373.15	1	352.8	17.7
403.15	0	4.33	0.46
403.15	0.089	85.9	7.1
403.15	0.193	180.8	10.7
403.15	0.194	183.3	10.9
403.15	0.274	256.5	14.1
403.15	0.309	289.3	15.7
403.15	0.322	302.6	16.4
403.15	0.468	425.4	21.9
403.15	0.574	516.2	26.3
403.15	0.664	585.8	29.7
403.15	0.794	684.1	34.5
403.15	0.934	787.6	39.6
403.15	1	840.1	41.9

System: methanol + dimethyl pentanedioate; phases: Liquid, Gas
Property: Vapor or sublimation pressure, kPa (Liquid); method: CCELL:UFactor:16
Temperature, K	Mole fraction of methanol	Vapor or sublimation pressure, kPa	uncertainty
393.15	0	8.85	0.69
393.15	0.036	37.1	4.8
393.15	0.087	72.1	5.5
393.15	0.205	149.2	8.7
393.15	0.34	243.5	12.9
393.15	0.482	324.5	16.7
393.15	0.57	377.9	19.4
393.15	0.693	453.5	23
393.15	0.787	510.8	25.8
393.15	0.88	564.8	28.5
393.15	1	641.3	32.1
413.15	0	19.1	1.2
413.15	0.032	43.2	7.8
413.15	0.109	149.2	10.3
413.15	0.202	241.8	14.1
413.15	0.282	335.9	18.2
413.15	0.426	495.2	25.8
413.15	0.496	587.4	30.1
413.15	0.644	741.7	37.5
413.15	0.814	889.7	44.9
413.15	0.872	965.4	48.4
413.15	1	1087.3	54.2
433.15	0	32.9	1.9
433.15	0.038	76.5	9.2
433.15	0.084	148.5	13.5
433.15	0.124	236.1	16
433.15	0.269	479.7	26.4
433.15	0.335	623.5	33.4
433.15	0.4	738.2	38.3
433.15	0.509	923.1	47.2
433.15	0.687	1227.7	62.4
433.15	0.722	1298.9	65.6
433.15	0.842	1509.4	75.7
433.15	1	1754.9	87.3

System: 1,5-pentanedioic acid + dimethyl pentanedioate; phases: Liquid, Gas
Property: Vapor or sublimation pressure, kPa (Liquid); method: CCELL:UFactor:16
Temperature, K	Mole fraction of dimethyl pentanedioate	Vapor or sublimation pressure, kPa	uncertainty
433.15	0.078	5	0.64
433.15	0.143	7.9	0.83
433.15	0.215	9.77	0.95
433.15	0.242	10.68	1
433.15	0.439	16	1.34
433.15	0.478	17.15	1.42
433.15	0.609	20.5	1.63
443.15	0.137	7.62	0.81
443.15	0.218	11.75	1.07
443.15	0.324	16.32	1.37
443.15	0.452	20.54	1.64
443.15	0.58	25.53	1.96
443.15	0.669	29.17	2.19
453.15	0.098	6.3	0.72
453.15	0.186	10.39	0.99
453.15	0.289	15.22	1.29
453.15	0.343	18.09	1.48
453.15	0.514	27.46	2.08
453.15	0.598	32.2	2.38
453.15	0.673	38.53	2.79
