Measured thermophysical data. Viscosity B Coefficients and Partial Molar Volumes of Tetrabutylammonium Bromide in a-Butyrolactone + Water at Different Temperatures
Source: J. Chem. Eng. Data, 2008, 10.1021/je7004903
Compound 1: .gamma.-butyrolactone, C4H6O2, InChI=1S/C4H6O2/c5-4-2-1-3-6-4/h1-3H2, purity 99%
Compound 2: tetrabutylammonium bromide, C16H36BrN, InChI=1S/C16H36N.BrH/c1-5-9-13-17(14-10-6-2,15-11-7-3)16-12-8-4;/h5-16H2,1-4H3;1H/q+1;/p-1
Compound 3: water, H2O, InChI=1S/H2O/h1H2

System: .gamma.-butyrolactone + tetrabutylammonium bromide + water; phases: Liquid
Fixed: Pressure, kPa = 101
Property: Viscosity, Pa*s (Liquid); method: CAPTUB:UFactor:4
Solvent: Mass fraction of .gamma.-butyrolactone	Amount concentration (molarity), mol/dm3 of tetrabutylammonium bromide	Temperature, K	Viscosity, Pa*s	uncertainty
0.1	0.009	298.15	0.000985	3.4e-05
0.1	0.009	303.15	0.000876	3e-05
0.1	0.009	308.15	0.000791	2.8e-05
0.1	0.009	313.15	0.000718	2.6e-05
0.1	0.009	318.15	0.000656	2.4e-05
0.1	0.019	298.15	0.001002	3.4e-05
0.1	0.019	303.15	0.000892	3.1e-05
0.1	0.019	308.15	0.000801	2.8e-05
0.1	0.019	313.15	0.000726	2.6e-05
0.1	0.019	318.15	0.000663	2.4e-05
0.1	0.033	298.15	0.001019	3.5e-05
0.1	0.033	303.15	0.000907	3.1e-05
0.1	0.033	308.15	0.000814	2.9e-05
0.1	0.033	313.15	0.000737	2.6e-05
0.1	0.033	318.15	0.000669	2.4e-05
0.1	0.041	298.15	0.001033	3.5e-05
0.1	0.041	303.15	0.000915	3.2e-05
0.1	0.041	308.15	0.000821	2.9e-05
0.1	0.041	313.15	0.000744	2.6e-05
0.1	0.041	318.15	0.000675	2.4e-05
0.1	0.052	298.15	0.001044	3.6e-05
0.1	0.052	303.15	0.000928	3.2e-05
0.1	0.052	308.15	0.000832	2.9e-05
0.1	0.052	313.15	0.000751	2.7e-05
0.1	0.052	318.15	0.000683	2.5e-05
0.1	0.061	298.15	0.001052	3.6e-05
0.1	0.061	303.15	0.000939	3.2e-05
0.1	0.061	308.15	0.000842	2.9e-05
0.1	0.061	313.15	0.000756	2.7e-05
0.1	0.061	318.15	0.000689	2.5e-05
0.1	0.075	298.15	0.001071	3.6e-05
0.1	0.075	303.15	0.000955	3.3e-05
0.1	0.075	308.15	0.000854	3e-05
0.1	0.075	313.15	0.000768	2.7e-05
0.1	0.075	318.15	0.000699	2.5e-05
0.1	0.087	298.15	0.001088	3.7e-05
0.1	0.087	303.15	0.000971	3.3e-05
0.1	0.087	308.15	0.000866	3e-05
0.1	0.087	313.15	0.000779	2.7e-05
0.1	0.087	318.15	0.00071	2.5e-05
0.1	0.101	298.15	0.001106	3.7e-05
0.1	0.101	303.15	0.000986	3.4e-05
0.1	0.101	308.15	0.000889	3.1e-05
0.1	0.101	313.15	0.000788	2.8e-05
0.1	0.101	318.15	0.000717	2.6e-05
0.1	0.139	298.15	0.001159	3.9e-05
0.1	0.139	303.15	0.001033	3.5e-05
0.1	0.139	308.15	0.000916	3.2e-05
0.1	0.139	313.15	0.000821	2.9e-05
0.1	0.139	318.15	0.000741	2.6e-05
0.2	0.012	298.15	0.001133	3.8e-05
0.2	0.012	303.15	0.001008	3.4e-05
0.2	0.012	308.15	0.000912	3.1e-05
0.2	0.012	313.15	0.000843	2.9e-05
0.2	0.012	318.15	0.000783	2.8e-05
0.2	0.018	298.15	0.001145	3.9e-05
0.2	0.018	303.15	0.001019	3.5e-05
0.2	0.018	308.15	0.000923	3.2e-05
0.2	0.018	313.15	0.000853	3e-05
0.2	0.018	318.15	0.000795	2.8e-05
0.2	0.032	298.15	0.001162	3.9e-05
0.2	0.032	303.15	0.001036	3.5e-05
0.2	0.032	308.15	0.000935	3.2e-05
0.2	0.032	313.15	0.000865	3e-05
0.2	0.032	318.15	0.000805	2.8e-05
0.2	0.049	298.15	0.001181	4e-05
0.2	0.049	303.15	0.001053	3.6e-05
0.2	0.049	308.15	0.000952	3.3e-05
0.2	0.049	313.15	0.000879	3e-05
0.2	0.049	318.15	0.000817	2.9e-05
0.2	0.064	298.15	0.001199	4e-05
0.2	0.064	303.15	0.001068	3.6e-05
0.2	0.064	308.15	0.000965	3.3e-05
0.2	0.064	313.15	0.000892	3.1e-05
0.2	0.064	318.15	0.000828	2.9e-05
0.2	0.081	298.15	0.001218	4.1e-05
0.2	0.081	303.15	0.001085	3.7e-05
0.2	0.081	308.15	0.000979	3.3e-05
0.2	0.081	313.15	0.000905	3.1e-05
0.2	0.081	318.15	0.000842	2.9e-05
0.2	0.095	298.15	0.001235	4.1e-05
0.2	0.095	303.15	0.001101	3.7e-05
0.2	0.095	308.15	0.000993	3.4e-05
0.2	0.095	313.15	0.000917	3.2e-05
0.2	0.095	318.15	0.000851	3e-05
0.2	0.103	298.15	0.001245	4.2e-05
0.2	0.103	303.15	0.001109	3.8e-05
0.2	0.103	308.15	0.001001	3.4e-05
0.2	0.103	313.15	0.000924	3.2e-05
0.2	0.103	318.15	0.000857	3e-05
0.2	0.13	298.15	0.001279	4.3e-05
0.2	0.13	303.15	0.001138	3.8e-05
0.2	0.13	308.15	0.001024	3.5e-05
0.2	0.13	313.15	0.000947	3.2e-05
0.2	0.13	318.15	0.000878	3e-05
0.3	0.016	298.15	0.001269	4.2e-05
0.3	0.016	303.15	0.001129	3.8e-05
0.3	0.016	308.15	0.001009	3.4e-05
0.3	0.016	313.15	0.000913	3.2e-05
0.3	0.016	318.15	0.000831	2.9e-05
0.3	0.022	298.15	0.001278	4.3e-05
0.3	0.022	303.15	0.001138	3.8e-05
0.3	0.022	308.15	0.001021	3.5e-05
0.3	0.022	313.15	0.000919	3.2e-05
0.3	0.022	318.15	0.000839	2.9e-05
0.3	0.029	298.15	0.001293	4.3e-05
0.3	0.029	303.15	0.001149	3.9e-05
0.3	0.029	308.15	0.001027	3.5e-05
0.3	0.029	313.15	0.000929	3.2e-05
0.3	0.029	318.15	0.000845	2.9e-05
0.3	0.041	298.15	0.001308	4.4e-05
0.3	0.041	303.15	0.001161	3.9e-05
0.3	0.041	308.15	0.001039	3.5e-05
0.3	0.041	313.15	0.000935	3.2e-05
0.3	0.041	318.15	0.000853	3e-05
0.3	0.045	298.15	0.001319	4.4e-05
0.3	0.045	303.15	0.001176	4e-05
0.3	0.045	308.15	0.001043	3.6e-05
0.3	0.045	313.15	0.000939	3.2e-05
0.3	0.045	318.15	0.000856	3e-05
0.3	0.051	298.15	0.001333	4.4e-05
0.3	0.051	303.15	0.001186	4e-05
0.3	0.051	308.15	0.001049	3.6e-05
0.3	0.051	313.15	0.000946	3.3e-05
0.3	0.051	318.15	0.000861	3e-05
0.3	0.069	298.15	0.001355	4.5e-05
0.3	0.069	303.15	0.001207	4.1e-05
0.3	0.069	308.15	0.001065	3.6e-05
0.3	0.069	313.15	0.000961	3.3e-05
0.3	0.069	318.15	0.000872	3e-05
0.3	0.083	298.15	0.001377	4.6e-05
0.3	0.083	303.15	0.001216	4.1e-05
0.3	0.083	308.15	0.001084	3.7e-05
0.3	0.083	313.15	0.000975	3.3e-05
0.3	0.083	318.15	0.000884	3.1e-05
0.3	0.092	298.15	0.001391	4.6e-05
0.3	0.092	303.15	0.001239	4.2e-05
0.3	0.092	308.15	0.001093	3.7e-05
0.3	0.092	313.15	0.000984	3.4e-05
0.3	0.092	318.15	0.000889	3.1e-05
0.3	0.11	298.15	0.001411	4.7e-05
0.3	0.11	303.15	0.001258	4.2e-05
0.3	0.11	308.15	0.001107	3.7e-05
0.3	0.11	313.15	0.001	3.4e-05
0.3	0.11	318.15	0.000901	3.1e-05

System: .gamma.-butyrolactone + tetrabutylammonium bromide + water; phases: Liquid
Fixed: Pressure, kPa = 101
Property: Mass density, kg/m3 (Liquid); method: VIBTUB:UFactor:32
Solvent: Mass fraction of .gamma.-butyrolactone	Amount concentration (molarity), mol/dm3 of tetrabutylammonium bromide	Temperature, K	Mass density, kg/m3	uncertainty
0.1	0.009	298.15	1012.11	2.29
0.1	0.009	303.15	1009.01	2.26
0.1	0.009	308.15	1006.01	2.19
0.1	0.009	313.15	1005.01	2.18
0.1	0.009	318.15	1003.12	2.15
0.1	0.019	298.15	1014.41	2.31
0.1	0.019	303.15	1013.02	2.3
0.1	0.019	308.15	1007.95	2.22
0.1	0.019	313.15	1006.82	2.2
0.1	0.019	318.15	1004.62	2.17
0.1	0.033	298.15	1016.02	2.34
0.1	0.033	303.15	1014.42	2.31
0.1	0.033	308.15	1009.54	2.24
0.1	0.033	313.15	1007.24	2.2
0.1	0.033	318.15	1004.81	2.17
0.1	0.041	298.15	1018.22	2.37
0.1	0.041	303.15	1015.99	2.34
0.1	0.041	308.15	1010.51	2.26
0.1	0.041	313.15	1007.78	2.21
0.1	0.041	318.15	1005.23	2.18
0.1	0.052	298.15	1019.85	2.39
0.1	0.052	303.15	1017.28	2.36
0.1	0.052	308.15	1013.49	2.31
0.1	0.052	313.15	1009.02	2.24
0.1	0.052	318.15	1007.29	2.21
0.1	0.061	298.15	1020.98	2.41
0.1	0.061	303.15	1018.89	2.38
0.1	0.061	308.15	1015.98	2.34
0.1	0.061	313.15	1011.12	2.27
0.1	0.061	318.15	1009.37	2.25
0.1	0.075	298.15	1023.02	2.45
0.1	0.075	303.15	1020.02	2.4
0.1	0.075	308.15	1018.12	2.37
0.1	0.075	313.15	1013.09	2.3
0.1	0.075	318.15	1012.21	2.29
0.1	0.087	298.15	1028.76	2.53
0.1	0.087	303.15	1022.08	2.43
0.1	0.087	308.15	1019.96	2.4
0.1	0.087	313.15	1015.11	2.32
0.1	0.087	318.15	1014.46	2.32
0.1	0.101	298.15	1028.85	2.53
0.1	0.101	303.15	1024.59	2.46
0.1	0.101	308.15	1022.84	2.44
0.1	0.101	313.15	1017.29	2.36
0.1	0.101	318.15	1016.55	2.34
0.1	0.139	298.15	1035.77	2.63
0.1	0.139	303.15	1029.41	2.54
0.1	0.139	308.15	1028.51	2.52
0.1	0.139	313.15	1022.39	2.43
0.1	0.139	318.15	1018.22	2.37
0.2	0.012	298.15	1012.21	2.28
0.2	0.012	303.15	1009.01	2.23
0.2	0.012	308.15	1009.22	2.26
0.2	0.012	313.15	1006.29	2.19
0.2	0.012	318.15	1005.97	2.19
0.2	0.018	298.15	1013.32	2.29
0.2	0.018	303.15	1010.23	2.25
0.2	0.018	308.15	1010.44	2.25
0.2	0.018	313.15	1007.21	2.2
0.2	0.018	318.15	1006.98	2.2
0.2	0.032	298.15	1014.58	2.31
0.2	0.032	303.15	1013.22	2.3
0.2	0.032	308.15	1011.54	2.27
0.2	0.032	313.15	1008.55	2.23
0.2	0.032	318.15	1007.68	2.21
0.2	0.049	298.15	1014.88	2.32
0.2	0.049	303.15	1014.85	2.32
0.2	0.049	308.15	1014.01	2.31
0.2	0.049	313.15	1011.01	2.26
0.2	0.049	318.15	1009.23	2.24
0.2	0.064	298.15	1016.05	2.33
0.2	0.064	303.15	1015.25	2.32
0.2	0.064	308.15	1015.01	2.32
0.2	0.064	313.15	1012.14	2.28
0.2	0.064	318.15	1011.23	2.26
0.2	0.081	298.15	1017.22	2.35
0.2	0.081	303.15	1015.77	2.33
0.2	0.081	308.15	1015.62	2.33
0.2	0.081	313.15	1013.45	2.3
0.2	0.081	318.15	1011.99	2.27
0.2	0.095	298.15	1017.78	2.37
0.2	0.095	303.15	1016.21	2.35
0.2	0.095	308.15	1016.77	2.35
0.2	0.095	313.15	1014.66	2.32
0.2	0.095	318.15	1013.22	2.3
0.2	0.103	298.15	1018.09	2.36
0.2	0.103	303.15	1017.22	2.35
0.2	0.103	308.15	1017.24	2.35
0.2	0.103	313.15	1015.55	2.33
0.2	0.103	318.15	1014.46	2.31
0.2	0.13	298.15	1021.24	2.41
0.2	0.13	303.15	1019.33	2.38
0.2	0.13	308.15	1018.05	2.36
0.2	0.13	313.15	1017.69	2.36
0.2	0.13	318.15	1016.68	2.34
0.3	0.016	298.15	1014.49	2.31
0.3	0.016	303.15	1012.85	2.29
0.3	0.016	308.15	1011.49	2.27
0.3	0.016	313.15	1011.09	2.26
0.3	0.016	318.15	1011.01	2.26
0.3	0.022	298.15	1014.63	2.35
0.3	0.022	303.15	1012.99	2.29
0.3	0.022	308.15	1011.63	2.27
0.3	0.022	313.15	1011.23	2.26
0.3	0.022	318.15	1011.15	2.26
0.3	0.029	298.15	1019.87	2.4
0.3	0.029	303.15	1014.85	2.32
0.3	0.029	308.15	1012.11	2.28
0.3	0.029	313.15	1011.91	2.27
0.3	0.029	318.15	1011.53	2.27
0.3	0.041	298.15	1020.01	2.4
0.3	0.041	303.15	1014.99	2.34
0.3	0.041	308.15	1012.25	2.28
0.3	0.041	313.15	1012.04	2.27
0.3	0.041	318.15	1011.67	2.27
0.3	0.045	298.15	1023.41	2.52
0.3	0.045	303.15	1022.09	2.64
0.3	0.045	308.15	1012.31	2.28
0.3	0.045	313.15	1012.01	2.27
0.3	0.045	318.15	1011.66	2.27
0.3	0.051	298.15	1026.31	2.49
0.3	0.051	303.15	1025.41	2.48
0.3	0.051	308.15	1012.44	2.28
0.3	0.051	313.15	1012.01	2.27
0.3	0.051	318.15	1011.98	2.27
0.3	0.069	298.15	1026.44	2.49
0.3	0.069	303.15	1025.55	2.48
0.3	0.069	308.15	1012.58	2.29
0.3	0.069	313.15	1012.14	2.28
0.3	0.069	318.15	1012.12	2.28
0.3	0.083	298.15	1029.98	2.54
0.3	0.083	303.15	1030.05	2.55
0.3	0.083	308.15	1018.31	2.39
0.3	0.083	313.15	1016.25	2.35
0.3	0.083	318.15	1014.07	2.31
0.3	0.092	298.15	1030.12	2.54
0.3	0.092	303.15	1030.19	2.54
0.3	0.092	308.15	1018.44	2.37
0.3	0.092	313.15	1016.39	2.34
0.3	0.092	318.15	1015.11	2.32
0.3	0.11	298.15	1030.26	2.54
0.3	0.11	303.15	1030.33	2.55
0.3	0.11	308.15	1018.58	2.38
0.3	0.11	313.15	1016.53	2.34
0.3	0.11	318.15	1015.25	2.32
