Measured thermophysical data. Thermodynamics of Fuels with a Biosynthetic Component. II. Vapor Liquid Equilibrium Data for Binary and Ternary Mixtures Containing Ethyl 1,1-Dimethylethyl Ether, 1-Hexene, and Cyclohexane at T = 313.15 K
Source: J. Chem. Eng. Data, 2008, 10.1021/je7005488
Compound 1: 2-ethoxy-2-methylpropane, C6H14O, InChI=1S/C6H14O/c1-5-7-6(2,3)4/h5H2,1-4H3
Compound 2: hex-1-ene, C6H12, InChI=1S/C6H12/c1-3-5-6-4-2/h3H,1,4-6H2,2H3
Compound 3: cyclohexane, C6H12, InChI=1S/C6H12/c1-2-4-6-5-3-1/h1-6H2

System: hex-1-ene + 2-ethoxy-2-methylpropane; phases: Liquid, Gas
Fixed: Temperature, K = 313.15
Property: Vapor or sublimation pressure, kPa (Liquid); method: Closed cell (Static) method
Mole fraction of 2-ethoxy-2-methylpropane	Vapor or sublimation pressure, kPa	uncertainty
0	44.958	0.163
0.0521	44.359	0.162
0.1001	43.767	0.16
0.1494	43.146	0.158
0.2007	42.492	0.156
0.2515	41.856	0.154
0.3004	41.223	0.152
0.3503	40.577	0.149
0.4006	39.941	0.147
0.4478	39.333	0.145
0.4496	39.318	0.145
0.4955	38.716	0.143
0.5008	38.653	0.143
0.5477	38.037	0.141
0.5516	37.991	0.141
0.5998	37.355	0.139
0.6491	36.688	0.137
0.6997	35.983	0.134
0.7501	35.281	0.132
0.7989	34.586	0.13
0.8499	33.855	0.128
0.8991	33.128	0.125
0.9451	32.445	0.123
1	31.628	0.119

System: cyclohexane + 2-ethoxy-2-methylpropane; phases: Liquid, Gas
Fixed: Temperature, K = 313.15
Property: Vapor or sublimation pressure, kPa (Liquid); method: Closed cell (Static) method
Mole fraction of 2-ethoxy-2-methylpropane	Vapor or sublimation pressure, kPa	uncertainty
0	24.639	0.096
0.0596	25.453	0.1
0.0985	25.937	0.101
0.1499	26.525	0.103
0.2062	27.106	0.105
0.2499	27.521	0.106
0.3068	28.008	0.108
0.3496	28.363	0.109
0.4003	28.729	0.11
0.4011	28.744	0.11
0.4496	29.084	0.111
0.4498	29.073	0.111
0.5002	29.392	0.112
0.505	29.441	0.113
0.5504	29.694	0.115
0.5518	29.721	0.115
0.596	29.969	0.114
0.6006	29.979	0.114
0.6501	30.235	0.115
0.6987	30.48	0.116
0.7504	30.723	0.116
0.8013	30.935	0.117
0.8507	31.124	0.118
0.9006	31.306	0.118
0.9506	31.465	0.119
1	31.624	0.119

System: cyclohexane + hex-1-ene + 2-ethoxy-2-methylpropane; phases: Liquid, Gas
Fixed: Temperature, K = 313.15
Property: Vapor or sublimation pressure, kPa (Liquid); method: Closed cell (Static) method
Mole fraction of 2-ethoxy-2-methylpropane	Mole fraction of hex-1-ene	Vapor or sublimation pressure, kPa	uncertainty
0	0	24.653	0.096
0	0.3126	31.985	0.123
0	0.6992	39.501	0.147
0	1	44.965	0.163
0.0001	0	24.627	0.096
0.0001	1	44.962	0.163
0.0253	0.6816	39.338	0.147
0.0262	0.3044	32.053	0.126
0.0511	0.6635	39.18	0.146
0.0516	0.2965	32.121	0.123
0.101	0.6286	38.865	0.145
0.1035	0.2803	32.253	0.123
0.1492	0.3495	33.93	0.129
0.1497	0.5003	36.855	0.138
0.1506	0.594	38.534	0.143
0.1553	0.2641	32.372	0.123
0.1643	0.3847	34.713	0.131
0.1647	0.4505	36.021	0.135
0.1792	0.4196	35.471	0.133
0.1796	0.4005	35.176	0.132
0.1942	0.4546	36.222	0.136
0.1946	0.3507	34.331	0.13
0.1999	0.5595	38.208	0.142
0.2055	0.2484	32.475	0.124
0.2092	0.4898	36.97	0.138
0.2097	0.3	33.452	0.127
0.2243	0.5251	37.715	0.141
0.2247	0.2502	32.585	0.124
0.2381	0.5575	38.388	0.143
0.2393	0.2014	31.725	0.122
0.2503	0.5243	37.856	0.141
0.2539	0.1524	30.852	0.119
0.2543	0.5952	39.164	0.146
0.2566	0.2325	32.52	0.124
0.2694	0.6307	39.894	0.148
0.2696	0.1002	29.895	0.116
0.2816	0.0599	29.149	0.114
0.2844	0.6657	40.601	0.15
0.2899	0.0324	28.639	0.117
0.2915	0.6824	40.928	0.151
0.2993	0.7007	41.281	0.152
0.2996	0	27.999	0.108
0.3001	0.4894	37.504	0.14
0.3073	0.2166	32.565	0.124
0.3489	0.1501	31.439	0.121
0.3496	0.5004	37.992	0.142
0.3497	0.4548	37.143	0.139
0.358	0.2008	32.592	0.125
0.3837	0.165	31.958	0.123
0.3845	0.4505	37.275	0.14
0.3994	0.42	36.776	0.138
0.4089	0.1849	32.608	0.124
0.4188	0.1801	32.458	0.124
0.4196	0.4003	36.549	0.137
0.4496	0.385	36.398	0.136
0.4537	0.1951	32.946	0.125
0.4546	0.3502	35.828	0.134
0.4588	0.1693	32.608	0.124
0.489	0.2103	33.418	0.127
0.4898	0.2999	35.092	0.132
0.4997	0.3499	36.006	0.135
0.5091	0.1536	32.591	0.124
0.5238	0.2252	33.875	0.128
0.5246	0.2502	34.353	0.13
0.5589	0.2403	34.328	0.13
0.5597	0.2001	33.601	0.127
0.5942	0.2555	34.763	0.131
0.5946	0.1501	32.853	0.125
0.6292	0.2705	35.195	0.132
0.6296	0.1001	32.091	0.122
0.6635	0.0518	31.349	0.12
0.6642	0.2856	35.603	0.134
0.6803	0.0277	30.98	0.121
0.6812	0.2929	35.803	0.134
0.6993	0.3007	36.005	0.135
0.6997	0	30.539	0.116
1	0	31.653	0.119
1	0	31.644	0.119
