Measured thermophysical data. Solubility of Salicylic Acid in Water, Ethanol, Carbon Tetrachloride, Ethyl Acetate, and Xylene
Source: J. Chem. Eng. Data, 2008, 10.1021/je7004962
Compound 1: 2-hydroxybenzoic acid, C7H6O3, InChI=1S/C7H6O3/c8-6-4-2-1-3-5(6)7(9)10/h1-4,8H,(H,9,10), purity 99.7%
Compound 2: water, H2O, InChI=1S/H2O/h1H2
Compound 3: ethanol, C2H6O, InChI=1S/C2H6O/c1-2-3/h3H,2H2,1H3
Compound 4: tetrachloromethane, CCl4, InChI=1S/CCl4/c2-1(3,4)5
Compound 5: ethyl acetate, C4H8O2, InChI=1S/C4H8O2/c1-3-6-4(2)5/h3H2,1-2H3

System: 2-hydroxybenzoic acid + water; phases: Liquid, Crystal
Fixed: Pressure, kPa = 101
Property: Mass fraction of 2-hydroxybenzoic acid (Liquid); method: gravimetric method
Temperature, K	Mass fraction of 2-hydroxybenzoic acid	uncertainty
298	0.0022	0.0002
303	0.00292	0.0002
308	0.0035	0.0002
313	0.00411	0.0002
318	0.00538	0.0002
323	0.00627	0.0002
328	0.00744	0.0002
333	0.00955	0.00021
338	0.01164	0.00021
343	0.01392	0.00021
348	0.0171	0.00021

System: ethanol + 2-hydroxybenzoic acid; phases: Liquid, Crystal
Fixed: Pressure, kPa = 101
Property: Mass fraction of 2-hydroxybenzoic acid (Liquid); method: gravimetric method
Temperature, K	Mass fraction of 2-hydroxybenzoic acid	uncertainty
298	0.32538	0.01644
303	0.35696	0.01645
308	0.38513	0.01646
313	0.40553	0.01647
318	0.4274	0.01648
323	0.4489	0.0165
328	0.47786	0.01652
333	0.49958	0.01654
338	0.52519	0.01657
343	0.5434	0.0166
348	0.56977	0.01665

System: tetrachloromethane + 2-hydroxybenzoic acid; phases: Liquid, Crystal
Fixed: Pressure, kPa = 101
Property: Mass fraction of 2-hydroxybenzoic acid (Liquid); method: gravimetric method
Temperature, K	Mass fraction of 2-hydroxybenzoic acid	uncertainty
298	0.00299	0.002
303	0.00377	0.002
308	0.00489	0.002
313	0.00631	0.002
318	0.00769	0.002
323	0.01019	0.002
328	0.01255	0.002
333	0.01512	0.002
338	0.01801	0.002
343	0.02127	0.002
348	0.02502	0.002

System: 2-hydroxybenzoic acid + ethyl acetate; phases: Liquid, Crystal
Fixed: Pressure, kPa = 101
Property: Mass fraction of 2-hydroxybenzoic acid (Liquid); method: gravimetric method
Temperature, K	Mass fraction of 2-hydroxybenzoic acid	uncertainty
298	0.20076	0.01202
303	0.21788	0.01202
308	0.23582	0.01202
313	0.25246	0.01203
318	0.26924	0.01203
323	0.28596	0.01203
328	0.30102	0.01204
333	0.31802	0.01205
338	0.33476	0.01205
343	0.35151	0.01206
348	0.36921	0.01207
