Measured thermophysical data. Experimental Isobaric Vapor-Liquid Equilibria of Binary Mixtures of 2,2,2-Trifluoroethanol with Benzene or Toluene
Source: J. Chem. Eng. Data, 2007, 10.1021/je700034q
Compound 1: benzene, C6H6, InChI=1S/C6H6/c1-2-4-6-5-3-1/h1-6H, purity 99.9%
Compound 2: toluene, C7H8, InChI=1S/C7H8/c1-7-5-3-2-4-6-7/h2-6H,1H3, purity 99.9%
Compound 3: 2,2,2-trifluoroethanol, C2H3F3O, InChI=1S/C2H3F3O/c3-2(4,5)1-6/h6H,1H2, purity 99.7%

System: benzene; phases: Liquid
Property: Refractive index (Na D-line) (Liquid); method: Standard Abbe refractometry
Temperature, K	Pressure, kPa	Refractive index (Na D-line)	uncertainty
298.15	101.325	1.4974	0.0004

System: benzene; phases: Liquid, Gas
Property: Boiling temperature at pressure P, K (Liquid); method: Ebulliometric method (Recirculating still)
Pressure, kPa	Boiling temperature at pressure P, K	uncertainty
102	353	0.2

System: benzene; phases: Liquid
Property: Mass density, kg/m3 (Liquid); method: Pycnometric method
Temperature, K	Pressure, kPa	Mass density, kg/m3	uncertainty
298.15	101.325	873.5	0.4

System: toluene; phases: Liquid
Property: Refractive index (Na D-line) (Liquid); method: Standard Abbe refractometry
Temperature, K	Pressure, kPa	Refractive index (Na D-line)	uncertainty
298.15	101.325	1.4936	0.0004

System: toluene; phases: Liquid, Gas
Property: Boiling temperature at pressure P, K (Liquid); method: Ebulliometric method (Recirculating still)
Pressure, kPa	Boiling temperature at pressure P, K	uncertainty
102	383.6	0.2

System: toluene; phases: Liquid
Property: Mass density, kg/m3 (Liquid); method: Pycnometric method
Temperature, K	Pressure, kPa	Mass density, kg/m3	uncertainty
298.15	101.325	862.2	0.4

System: 2,2,2-trifluoroethanol; phases: Liquid, Gas
Property: Boiling temperature at pressure P, K (Liquid); method: Ebulliometric method (Recirculating still)
Pressure, kPa	Boiling temperature at pressure P, K	uncertainty
102	347.4	0.2

System: 2,2,2-trifluoroethanol; phases: Liquid
Property: Mass density, kg/m3 (Liquid); method: Pycnometric method
Temperature, K	Pressure, kPa	Mass density, kg/m3	uncertainty
298.15	101.325	1382.4	0.7

System: benzene + 2,2,2-trifluoroethanol; phases: Liquid, Gas
Fixed: Pressure, kPa = 102
Property: Boiling temperature at pressure P, K (Liquid); method: EBULLIO:UFactor:2
Mole fraction of benzene	Boiling temperature at pressure P, K	uncertainty
0.043	343.2	0.3
0.077	341.7	0.3
0.139	340	0.3
0.18	339.2	0.3
0.261	338.2	0.3
0.35	337.7	0.3
0.423	337.8	0.3
0.5	337.7	0.3
0.562	337.8	0.3
0.615	337.9	0.3
0.669	338	0.3
0.71	338.3	0.3
0.726	338.4	0.3
0.732	338.7	0.3
0.796	339.2	0.3
0.829	340	0.3

System: benzene + 2,2,2-trifluoroethanol; phases: Gas, Liquid
Fixed: Pressure, kPa = 102
Property: Mole fraction of benzene (Gas); method: Index of refraction calibration data
Mole fraction of benzene	Mole fraction of benzene	uncertainty
0.043	0.161	0.014
0.077	0.245	0.012
0.139	0.328	0.011
0.18	0.381	0.01
0.261	0.424	0.01
0.35	0.442	0.01
0.423	0.46	0.01
0.5	0.476	0.01
0.562	0.486	0.01
0.615	0.499	0.01
0.669	0.5	0.01
0.71	0.51	0.01
0.726	0.515	0.01
0.732	0.522	0.011
0.796	0.538	0.01
0.829	0.562	0.01

System: 2,2,2-trifluoroethanol + toluene; phases: Liquid, Gas
Fixed: Pressure, kPa = 102
Property: Boiling temperature at pressure P, K (Liquid); method: EBULLIO:UFactor:2
Mole fraction of toluene	Boiling temperature at pressure P, K	uncertainty
0.023	346.5	0.3
0.067	345.6	0.3
0.112	345.2	0.3
0.19	345.5	0.3
0.46	345.8	0.3
0.571	346.2	0.3
0.673	346.8	0.3
0.821	347.8	0.3
0.879	351.9	0.4
0.887	352.6	0.4
0.927	356.5	0.6
0.961	362.9	1.1
0.976	370.4	2

System: 2,2,2-trifluoroethanol + toluene; phases: Gas, Liquid
Fixed: Pressure, kPa = 102
Property: Mole fraction of toluene (Gas); method: Index of refraction calibration data
Mole fraction of toluene	Mole fraction of toluene	uncertainty
0.023	0.059	0.012
0.067	0.13	0.011
0.112	0.174	0.01
0.19	0.2	0.01
0.46	0.249	0.01
0.571	0.266	0.01
0.673	0.276	0.01
0.821	0.281	0.01
0.879	0.331	0.013
0.887	0.348	0.013
0.927	0.417	0.014
0.961	0.541	0.021
0.976	0.653	0.032
