Measured thermophysical data. Ion-Pair and Triple-Ion Formation by Some Tetraalkylammonium Iodides in Binary Mixtures of 1,4-Dioxane + Tetrahydrofuran
Source: J. Chem. Eng. Data, 2008, 10.1021/je7004787
Compound 1: tetrapentylammonium iodide, C20H44IN, InChI=1S/C20H44N.HI/c1-5-9-13-17-21(18-14-10-6-2,19-15-11-7-3)20-16-12-8-4;/h5-20H2,1-4H3;1H/q+1;/p-1
Compound 2: tetrahexylammonium iodide, C24H52IN, InChI=1S/C24H52N.HI/c1-5-9-13-17-21-25(22-18-14-10-6-2,23-19-15-11-7-3)24-20-16-12-8-4;/h5-24H2,1-4H3;1H/q+1;/p-1
Compound 3: 1-heptanaminmium, N,N,N-triheptyl-, iodide, C28H60IN, InChI=1S/C28H60N.HI/c1-5-9-13-17-21-25-29(26-22-18-14-10-6-2,27-23-19-15-11-7-3)28-24-20-16-12-8-4;/h5-28H2,1-4H3;1H/q+1;/p-1
Compound 4: 1,4-dioxane, C4H8O2, InChI=1S/C4H8O2/c1-2-6-4-3-5-1/h1-4H2
Compound 5: tetrahydrofuran, C4H8O, InChI=1S/C4H8O/c1-2-4-5-3-1/h1-4H2

System: tetrahydrofuran + 1,4-dioxane; phases: Liquid
Fixed: Pressure, kPa = 101
Fixed: Temperature, K = 298.15
Property: Viscosity, Pa*s (Liquid); method: Capillary tube (Ostwald; Ubbelohde) method
Mass fraction of 1,4-dioxane	Viscosity, Pa*s	uncertainty
0	0.000463	1.3e-05
0.1	0.00049	1.4e-05
0.2	0.00051	1.4e-05
0.3	0.00053	1.5e-05
1	0.0012	3.1e-05

System: tetrahydrofuran + 1,4-dioxane; phases: Liquid
Fixed: Temperature, K = 298.15
Fixed: Pressure, kPa = 101
Property: Mass density, kg/m3 (Liquid); method: Pycnometric method
Mass fraction of 1,4-dioxane	Mass density, kg/m3	uncertainty
0	880.7	4.4
0.1	894.1	4.5
0.2	907.1	4.6
0.3	919	4.8
1	1030.5	6

System: tetrahydrofuran + 1,4-dioxane + tetrapentylammonium iodide; phases: Liquid
Fixed: Temperature, K = 298.15
Fixed: Pressure, kPa = 101
Property: Molar conductivity, S*m2/mol (Liquid); method: dip-type immersion cell
Solvent: Mass fraction of 1,4-dioxane	Amount concentration (molarity), mol/dm3 of tetrapentylammonium iodide	Molar conductivity, S*m2/mol	uncertainty
0.1	8.046e-05	0.000702	4e-06
0.1	8.138e-05	0.000686	4e-06
0.1	8.294e-05	0.00066	4e-06
0.1	8.385e-05	0.000646	4e-06
0.1	8.549e-05	0.000626	4e-06
0.1	8.674e-05	0.000646	4e-06
0.1	8.702e-05	0.000652	4e-06
0.1	8.726e-05	0.000659	4e-06
0.2	4.788e-05	0.000521	3e-06
0.2	4.839e-05	0.000512	3e-06
0.2	4.957e-05	0.000494	3e-06
0.2	5.016e-05	0.000483	3e-06
0.2	5.077e-05	0.000474	3e-06
0.2	5.122e-05	0.000476	3e-06
0.2	5.197e-05	0.00049	3e-06
0.2	5.229e-05	0.000498	3e-06
0.3	2.156e-05	0.000277	2e-06
0.3	2.564e-05	0.00027	2e-06
0.3	2.906e-05	0.000264	2e-06
0.3	3.481e-05	0.000256	2e-06
0.3	3.827e-05	0.000253	2e-06
0.3	3.986e-05	0.000253	2e-06
0.3	4.124e-05	0.000255	2e-06
0.3	4.274e-05	0.000258	2e-06
0.3	4.406e-05	0.000262	2e-06
0.3	4.508e-05	0.000265	2e-06

System: tetrahydrofuran + 1,4-dioxane + tetrahexylammonium iodide; phases: Liquid
Fixed: Temperature, K = 298.15
Fixed: Pressure, kPa = 101
Property: Molar conductivity, S*m2/mol (Liquid); method: dip-type immersion cell
Solvent: Mass fraction of 1,4-dioxane	Amount concentration (molarity), mol/dm3 of tetrahexylammonium iodide	Molar conductivity, S*m2/mol	uncertainty
0.1	6.367e-05	0.000812	5e-06
0.1	6.469e-05	0.000804	5e-06
0.1	6.541e-05	0.000798	5e-06
0.1	6.631e-05	0.000791	5e-06
0.1	6.696e-05	0.000788	5e-06
0.1	6.754e-05	0.000789	5e-06
0.1	6.806e-05	0.000793	5e-06
0.1	6.851e-05	0.000798	5e-06
0.2	5.46e-05	0.000398	2e-06
0.2	5.518e-05	0.000394	2e-06
0.2	5.598e-05	0.000388	2e-06
0.2	5.646e-05	0.000385	2e-06
0.2	5.694e-05	0.000383	2e-06
0.2	5.736e-05	0.000384	2e-06
0.2	5.764e-05	0.000386	2e-06
0.2	5.808e-05	0.00039	2e-06
0.3	3.125e-05	0.000497	3e-06
0.3	3.247e-05	0.000371	2e-06
0.3	3.42e-05	0.000213	1e-06
0.3	3.536e-05	0.000113	1e-06
0.3	3.657e-05	3.5e-05	1e-06
0.3	3.758e-05	0.000123	1e-06
0.3	3.819e-05	0.000213	1e-06
0.3	3.868e-05	0.000296	2e-06

System: tetrahydrofuran + 1,4-dioxane + 1-heptanaminmium, N,N,N-triheptyl-, iodide; phases: Liquid
Fixed: Temperature, K = 298.15
Fixed: Pressure, kPa = 101
Property: Molar conductivity, S*m2/mol (Liquid); method: dip-type immersion cell
Solvent: Mass fraction of 1,4-dioxane	Amount concentration (molarity), mol/dm3 of 1-heptanaminmium, N,N,N-triheptyl-, iodide	Molar conductivity, S*m2/mol	uncertainty
0.1	3.419e-05	0.001227	7e-06
0.1	3.754e-05	0.001164	7e-06
0.1	4.052e-05	0.001113	7e-06
0.1	4.319e-05	0.001077	6e-06
0.1	4.559e-05	0.001048	6e-06
0.1	4.776e-05	0.001052	6e-06
0.1	4.973e-05	0.001084	7e-06
0.1	5.153e-05	0.001133	7e-06
0.2	6.037e-05	0.000638	4e-06
0.2	6.142e-05	0.000494	3e-06
0.2	6.288e-05	0.000303	2e-06
0.2	6.376e-05	0.000194	1e-06
0.2	6.456e-05	0.0001	1e-06
0.2	6.541e-05	5.5e-05	1e-06
0.2	6.625e-05	0.000163	1e-06
0.2	6.672e-05	0.000253	2e-06
0.3	5.589e-05	0.000274	2e-06
0.3	5.675e-05	0.00023	1e-06
0.3	5.749e-05	0.000192	1e-06
0.3	5.813e-05	0.000163	1e-06
0.3	5.869e-05	0.000149	1e-06
0.3	5.917e-05	0.000162	1e-06
0.3	5.962e-05	0.000186	1e-06
0.3	6.001e-05	0.000209	1e-06
