Measured thermophysical data. Equilibrium Solubility of 3- and 4-Nitrophthalic Acids in Water
Source: J. Chem. Eng. Data, 2007, 10.1021/je7002594
Compound 1: 3-nitro-1,2-benzenedicarboxylic acid, C8H5NO6, InChI=1S/C8H5NO6/c10-7(11)4-2-1-3-5(9(14)15)6(4)8(12)13/h1-3H,(H,10,11)(H,12,13), purity 99.92%
Compound 2: 4-nitrophthalic acid, C8H5NO6, InChI=1S/C8H5NO6/c10-7(11)5-2-1-4(9(14)15)3-6(5)8(12)13/h1-3H,(H,10,11)(H,12,13), purity 99.92%
Compound 3: water, H2O, InChI=1S/H2O/h1H2

System: 3-nitro-1,2-benzenedicarboxylic acid + water; phases: Liquid, Crystal
Fixed: Pressure, kPa = 101.3
Property: Mole fraction of 3-nitro-1,2-benzenedicarboxylic acid (Liquid); method: CHROM:UFactor:2
Temperature, K	Mole fraction of 3-nitro-1,2-benzenedicarboxylic acid	uncertainty
285.15	0.0007741	4.22e-05
292.15	0.0009836	5.36e-05
298.15	0.001412	7.7e-05
306.15	0.001889	0.000103
313.15	0.002604	0.000142
320.15	0.003525	0.000193
327.15	0.004674	0.000256
333.15	0.005809	0.000318
339.15	0.00713	0.000391
344.15	0.008473	0.000465
348.15	0.009555	0.000525

System: 4-nitrophthalic acid + water; phases: Liquid, Crystal
Fixed: Pressure, kPa = 101.3
Property: Mole fraction of 4-nitrophthalic acid (Liquid); method: Chromatography
Temperature, K	Mole fraction of 4-nitrophthalic acid	uncertainty
285.15	0.08696	0.00259
292.15	0.1031	0.0031
298.15	0.1175	0.0036
306.15	0.1372	0.0043
313.15	0.1532	0.0049
320.15	0.1715	0.0056
327.15	0.1877	0.0063
333.15	0.1996	0.0068
339.15	0.2111	0.0073
344.15	0.218	0.0076
348.15	0.2223	0.0078
