Measured thermophysical data. Binary Vapor Liquid and Vapor Liquid Liquid Equilibria of Hydrofluorocarbons (HFC-125 and HFC-143a) and Hydrofluoroethers (HFE-125 and HFE-143a) with Ionic Liquid [emim][Tf2N]
Source: J. Chem. Eng. Data, 2008, 10.1021/je700588d
Compound 1: pentafluoroethane, C2HF5, InChI=1S/C2HF5/c3-1(4)2(5,6)7/h1H, purity 99%
Compound 2: 1-ethyl-3-methylimidazolium bis((trifluoromethyl)sulfonyl)imide, C8H11F6N3O4S2, InChI=1S/C6H11N2.C2F6NO4S2/c1-3-8-5-4-7(2)6-8;3-1(4,5)14(10,11)9-15(12,13)2(6,7)8/h4-6H,3H2,1-2H3;/q+1;-1
Compound 3: (difluoromethoxy)trifluoromethane, C2HF5O, InChI=1S/C2HF5O/c3-1(4)8-2(5,6)7/h1H, purity 99%
Compound 4: 1,1,1-trifluoroethane, C2H3F3, InChI=1S/C2H3F3/c1-2(3,4)5/h1H3, purity 99%
Compound 5: trifluoromethoxymethane, C2H3F3O, InChI=1S/C2H3F3O/c1-6-2(3,4)5/h1H3, purity 98%

System: pentafluoroethane + 1-ethyl-3-methylimidazolium bis((trifluoromethyl)sulfonyl)imide; phases: Liquid mixture 1, Liquid mixture 2, Gas
Property: Triple point temperature, K (Liquid mixture 1); method: cloud point method
Mole fraction of pentafluoroethane	Triple point temperature, K	uncertainty
0.701	311	4
0.842	279	4
0.945	271	4

System: pentafluoroethane + 1-ethyl-3-methylimidazolium bis((trifluoromethyl)sulfonyl)imide; phases: Liquid mixture 1, Liquid mixture 2, Gas
Property: Molar volume, m3/mol (Liquid mixture 1); method: Other PVT measurement
Temperature, K	Molar volume, m3/mol	uncertainty
282.7	0.0001182	3.2e-06
293.4	0.0001289	2.8e-06
303.7	0.0001395	2.8e-06
313.1	0.0001475	2.6e-06

System: pentafluoroethane + 1-ethyl-3-methylimidazolium bis((trifluoromethyl)sulfonyl)imide; phases: Liquid mixture 2, Liquid mixture 1, Gas
Property: Molar volume, m3/mol (Liquid mixture 2); method: Other PVT measurement
Temperature, K	Molar volume, m3/mol	uncertainty
282.7	9.42e-05	3.2e-06
293.4	9.86e-05	3e-06
303.7	0.0001039	3e-06
313.1	0.0001103	2.8e-06

System: pentafluoroethane + 1-ethyl-3-methylimidazolium bis((trifluoromethyl)sulfonyl)imide; phases: Liquid mixture 1, Liquid mixture 2, Gas
Property: Mole fraction of pentafluoroethane (Liquid mixture 1); method: volumetric method
Temperature, K	Mole fraction of pentafluoroethane	uncertainty
282.7	0.817	0.02
293.4	0.765	0.016
303.7	0.719	0.012
313.1	0.682	0.014

System: pentafluoroethane + 1-ethyl-3-methylimidazolium bis((trifluoromethyl)sulfonyl)imide; phases: Liquid mixture 2, Liquid mixture 1, Gas
Property: Mole fraction of pentafluoroethane (Liquid mixture 2); method: volumetric method
Temperature, K	Mole fraction of pentafluoroethane	uncertainty
282.7	0.999	0.001
293.4	1	0.001
303.7	1	0.001
313.1	1	0.001

System: pentafluoroethane + 1-ethyl-3-methylimidazolium bis((trifluoromethyl)sulfonyl)imide; phases: Liquid, Gas
Property: Mole fraction of pentafluoroethane (Liquid); method: gravimetric microbalance
Temperature, K	Pressure, kPa	Mole fraction of pentafluoroethane	uncertainty
283.1	10	0.008	0.008
283.1	100	0.085	0.012
283.1	199.7	0.168	0.012
283.1	297.7	0.25	0.012
283.1	399.7	0.331	0.012
283.1	499.9	0.413	0.012
283.1	599.7	0.496	0.012
283.1	699.9	0.583	0.012
283.1	799.6	0.681	0.013
298.1	10.2	0.006	0.006
298.1	99.8	0.055	0.012
298.1	199.7	0.109	0.012
298.1	299.7	0.161	0.012
298.1	800.1	0.422	0.012
298.1	999.8	0.521	0.012
298.2	399.6	0.213	0.012
298.2	499.9	0.267	0.012
298.2	599.7	0.317	0.012
323.1	10.2	0.004	0.004
323.1	99.8	0.03	0.012
323.1	200	0.059	0.012
323.1	299.8	0.088	0.012
323.1	399.6	0.117	0.012
323.1	500.2	0.152	0.012
323.1	599.7	0.176	0.012
323.1	799.9	0.228	0.012
323.1	1000.1	0.285	0.012
348.1	10.2	0.004	0.004
348.1	100	0.018	0.012
348.1	199.7	0.034	0.012
348.1	299.8	0.05	0.012
348.1	399.8	0.074	0.012
348.1	500.1	0.097	0.012
348.1	599.6	0.105	0.012
348.1	999.7	0.171	0.012
348.2	799.8	0.14	0.012

System: (difluoromethoxy)trifluoromethane + 1-ethyl-3-methylimidazolium bis((trifluoromethyl)sulfonyl)imide; phases: Liquid mixture 1, Liquid mixture 2, Gas
Property: Triple point temperature, K (Liquid mixture 1); method: cloud point method
Mole fraction of (difluoromethoxy)trifluoromethane	Triple point temperature, K	uncertainty
0.745	271	4
0.845	251	4
0.95	239	4

System: (difluoromethoxy)trifluoromethane + 1-ethyl-3-methylimidazolium bis((trifluoromethyl)sulfonyl)imide; phases: Liquid mixture 1, Liquid mixture 2, Gas
Property: Molar volume, m3/mol (Liquid mixture 1); method: Other PVT measurement
Temperature, K	Molar volume, m3/mol	uncertainty
282.9	0.0001509	1.12e-05
293.6	0.0001598	1.14e-05
303.4	0.0001688	1.2e-05
313.5	0.0001765	1.26e-05

System: (difluoromethoxy)trifluoromethane + 1-ethyl-3-methylimidazolium bis((trifluoromethyl)sulfonyl)imide; phases: Liquid mixture 2, Liquid mixture 1, Gas
Property: Molar volume, m3/mol (Liquid mixture 2); method: Other PVT measurement
Temperature, K	Molar volume, m3/mol	uncertainty
282.9	0.0001016	3e-06
293.6	0.0001053	3.6e-06
303.4	0.0001094	3.6e-06
313.5	0.0001144	3.8e-06

System: (difluoromethoxy)trifluoromethane + 1-ethyl-3-methylimidazolium bis((trifluoromethyl)sulfonyl)imide; phases: Liquid mixture 1, Liquid mixture 2, Gas
Property: Mole fraction of (difluoromethoxy)trifluoromethane (Liquid mixture 1); method: volumetric method
Temperature, K	Mole fraction of (difluoromethoxy)trifluoromethane	uncertainty
282.9	0.664	0.03
293.6	0.622	0.032
303.4	0.585	0.034
313.5	0.55	0.036

System: (difluoromethoxy)trifluoromethane + 1-ethyl-3-methylimidazolium bis((trifluoromethyl)sulfonyl)imide; phases: Liquid mixture 2, Liquid mixture 1, Gas
Property: Mole fraction of (difluoromethoxy)trifluoromethane (Liquid mixture 2); method: volumetric method
Temperature, K	Mole fraction of (difluoromethoxy)trifluoromethane	uncertainty
282.9	0.995	0.005
293.6	0.994	0.006
303.4	0.994	0.006
313.5	0.993	0.007

System: (difluoromethoxy)trifluoromethane + 1-ethyl-3-methylimidazolium bis((trifluoromethyl)sulfonyl)imide; phases: Liquid, Gas
Property: Mole fraction of (difluoromethoxy)trifluoromethane (Liquid); method: gravimetric microbalance
Temperature, K	Pressure, kPa	Mole fraction of (difluoromethoxy)trifluoromethane	uncertainty
283.1	10.1	0.01	0.01
283.1	49.8	0.047	0.012
283.1	100.1	0.095	0.012
283.1	199.7	0.194	0.012
283.1	299.7	0.301	0.012
283.1	400.2	0.423	0.012
283.1	499.7	0.565	0.013
298.1	10.3	0.006	0.006
298.1	50	0.03	0.012
298.1	99.8	0.06	0.012
298.1	199.7	0.121	0.012
298.1	300	0.185	0.012
298.1	399.7	0.247	0.012
298.1	499.9	0.314	0.012
298.1	600	0.383	0.012
323.1	10.2	0.004	0.004
323.1	49.7	0.016	0.012
323.1	99.9	0.031	0.012
323.1	200	0.065	0.012
323.1	299.9	0.091	0.012
323.1	399.7	0.125	0.012
323.1	499.9	0.157	0.012
323.1	599.8	0.187	0.012
348.1	10.2	0.002	0.002
348.1	50	0.009	0.009
348.1	200.1	0.04	0.012
348.1	400	0.074	0.012
348.2	100.2	0.017	0.012
348.2	300.1	0.06	0.012

System: 1,1,1-trifluoroethane + 1-ethyl-3-methylimidazolium bis((trifluoromethyl)sulfonyl)imide; phases: Liquid mixture 1, Liquid mixture 2, Gas
Property: Triple point temperature, K (Liquid mixture 1); method: cloud point method
Mole fraction of 1,1,1-trifluoroethane	Triple point temperature, K	uncertainty
0.64	231	10
0.95	231	10

System: 1,1,1-trifluoroethane + 1-ethyl-3-methylimidazolium bis((trifluoromethyl)sulfonyl)imide; phases: Liquid mixture 1, Liquid mixture 2, Gas
Property: Molar volume, m3/mol (Liquid mixture 1); method: Other PVT measurement
Temperature, K	Molar volume, m3/mol	uncertainty
293	0.0001645	1.4e-05
303.3	0.0001678	1.2e-05
313.2	0.0001711	1.1e-05

System: 1,1,1-trifluoroethane + 1-ethyl-3-methylimidazolium bis((trifluoromethyl)sulfonyl)imide; phases: Liquid mixture 2, Liquid mixture 1, Gas
Property: Molar volume, m3/mol (Liquid mixture 2); method: Other PVT measurement
Temperature, K	Molar volume, m3/mol	uncertainty
293	8.8e-05	6e-06
303.3	9.25e-05	5.2e-06
313.2	9.79e-05	5e-06

System: 1,1,1-trifluoroethane + 1-ethyl-3-methylimidazolium bis((trifluoromethyl)sulfonyl)imide; phases: Liquid mixture 1, Liquid mixture 2, Gas
Property: Mole fraction of 1,1,1-trifluoroethane (Liquid mixture 1); method: volumetric method
Temperature, K	Mole fraction of 1,1,1-trifluoroethane	uncertainty
293	0.519	0.048
303.3	0.509	0.042
313.2	0.502	0.04

System: 1,1,1-trifluoroethane + 1-ethyl-3-methylimidazolium bis((trifluoromethyl)sulfonyl)imide; phases: Liquid mixture 2, Liquid mixture 1, Gas
Property: Mole fraction of 1,1,1-trifluoroethane (Liquid mixture 2); method: volumetric method
Temperature, K	Mole fraction of 1,1,1-trifluoroethane	uncertainty
293	1	0.01
303.3	1	0.01
313.2	0.997	0.003

System: trifluoromethoxymethane + 1-ethyl-3-methylimidazolium bis((trifluoromethyl)sulfonyl)imide; phases: Liquid mixture 1, Liquid mixture 2, Gas
Property: Triple point temperature, K (Liquid mixture 1); method: cloud point method
Mole fraction of trifluoromethoxymethane	Triple point temperature, K	uncertainty
0.65	231	10
0.95	231	10

System: trifluoromethoxymethane + 1-ethyl-3-methylimidazolium bis((trifluoromethyl)sulfonyl)imide; phases: Liquid mixture 1, Liquid mixture 2, Gas
Property: Molar volume, m3/mol (Liquid mixture 1); method: Other PVT measurement
Temperature, K	Molar volume, m3/mol	uncertainty
283.2	0.0001478	1.4e-05
293.4	0.0001525	1.2e-05
303.6	0.0001588	1e-05
313.7	0.0001625	1e-05

System: trifluoromethoxymethane + 1-ethyl-3-methylimidazolium bis((trifluoromethyl)sulfonyl)imide; phases: Liquid mixture 2, Liquid mixture 1, Gas
Property: Molar volume, m3/mol (Liquid mixture 2); method: Other PVT measurement
Temperature, K	Molar volume, m3/mol	uncertainty
283.2	8.76e-05	1e-05
293.4	9.03e-05	9e-06
303.6	9.29e-05	8e-06
313.7	9.61e-05	6e-06

System: trifluoromethoxymethane + 1-ethyl-3-methylimidazolium bis((trifluoromethyl)sulfonyl)imide; phases: Liquid mixture 1, Liquid mixture 2, Gas
Property: Mole fraction of trifluoromethoxymethane (Liquid mixture 1); method: volumetric method
Temperature, K	Mole fraction of trifluoromethoxymethane	uncertainty
283.2	0.592	0.03
293.4	0.576	0.022
303.6	0.567	0.02
313.7	0.561	0.02

System: trifluoromethoxymethane + 1-ethyl-3-methylimidazolium bis((trifluoromethyl)sulfonyl)imide; phases: Liquid mixture 2, Liquid mixture 1, Gas
Property: Mole fraction of trifluoromethoxymethane (Liquid mixture 2); method: volumetric method
Temperature, K	Mole fraction of trifluoromethoxymethane	uncertainty
283.2	0.999	0.001
293.4	0.999	0.001
303.6	0.999	0.001
313.7	0.999	0.001
