Measured thermophysical data. Phase Equilibria of Acrylonitrile and p-Bromobenzaldehyde in Carbon Dioxide
Source: J. Chem. Eng. Data, 2008, 10.1021/je700448v
Compound 1: carbon dioxide, CO2, InChI=1S/CO2/c2-1-3, purity 99.9%
Compound 2: acrylonitrile, C3H3N, InChI=1S/C3H3N/c1-2-3-4/h2H,1H2, purity 99%
Compound 3: 4-bromobenzaldehyde, C7H5BrO, InChI=1S/C7H5BrO/c8-7-3-1-6(5-9)2-4-7/h1-5H, purity 99%
Compound 4: trichloromethane, CHCl3, InChI=1S/CHCl3/c2-1(3)4/h1H

System: 4-bromobenzaldehyde; phases: Crystal, Liquid, Air at 1 atmosphere
Property: Molar enthalpy of transition or fusion, kJ/mol (Crystal); method: DSC
Molar enthalpy of transition or fusion, kJ/mol	uncertainty
22.6462032	0.5180504

System: 4-bromobenzaldehyde; phases: Crystal, Liquid, Air at 1 atmosphere
Property: Normal melting temperature, K (Crystal); method: DTA
Normal melting temperature, K	uncertainty
334.2	0.4

System: trichloromethane + carbon dioxide; phases: Liquid, Gas
Property: Vapor or sublimation pressure, kPa (Liquid); method: Closed cell (Static) method
Mole fraction of carbon dioxide	Temperature, K	Vapor or sublimation pressure, kPa	uncertainty
0.56	303	3930	180
0.56	313	4770	180
0.56	323	5570	180
0.56	333	6370	200
0.6449	303	4260	180
0.6449	313	5160	210
0.6449	323	6120	230
0.6449	333	7160	260
0.7315	303	4990	240
0.7315	313	5970	240
0.7315	323	7030	260
0.7315	333	8110	260
0.7996	303	5450	230
0.7996	313	6440	250
0.7996	323	7550	280
0.7996	333	8730	310
0.8336	303	5640	250
0.8336	313	6790	280
0.8336	323	8010	300
0.8336	333	9250	290
0.8635	303	5800	270
0.8635	313	7000	290
0.8635	323	8190	300
0.8635	333	9390	260
0.9155	303	6250	300
0.9155	313	7530	300
0.9155	323	8810	340
0.9479	303	6450	270
0.9479	313	7630	270
0.9649	303	6500	270
0.9649	313	7820	340

System: trichloromethane + carbon dioxide; phases: Gas, Liquid
Property: Vapor or sublimation pressure, kPa (Gas); method: Closed cell (Static) method
Mole fraction of carbon dioxide	Temperature, K	Vapor or sublimation pressure, kPa	uncertainty
0.9155	333	9780	1010
0.9479	323	8590	860
0.9479	333	9320	970

System: acrylonitrile + carbon dioxide; phases: Liquid, Gas
Property: Vapor or sublimation pressure, kPa (Liquid); method: Closed cell (Static) method
Temperature, K	Mole fraction of carbon dioxide	Vapor or sublimation pressure, kPa	uncertainty
303	0.6448	4720	210
303	0.7396	5350	210
303	0.8282	5790	280
303	0.8898	5960	290
303	0.9499	6000	280
303	0.971	6090	300
313	0.6448	5650	230
313	0.7396	6220	230
313	0.8282	7050	290
313	0.8898	7320	280
313	0.9499	7410	280
313	0.971	7500	300
323	0.6448	6930	220
323	0.7396	7320	270
323	0.8282	8320	310
323	0.8898	8700	280
323	0.9499	8740	270
333	0.6448	7580	200
333	0.7396	8580	310
333	0.8282	9650	280
333	0.8898	9960	270

System: acrylonitrile + carbon dioxide; phases: Gas, Liquid
Property: Vapor or sublimation pressure, kPa (Gas); method: Closed cell (Static) method
Temperature, K	Mole fraction of carbon dioxide	Vapor or sublimation pressure, kPa	uncertainty
323	0.971	8510	850
333	0.9499	9760	980

System: carbon dioxide + 4-bromobenzaldehyde; phases: Fluid (supercritical or subcritical phases), Crystal
Property: Vapor or sublimation pressure, kPa (Fluid (supercritical or subcritical phases)); method: Closed cell (Static) method
Temperature, K	Mole fraction of 4-bromobenzaldehyde	Vapor or sublimation pressure, kPa	uncertainty
303	0.0014	10110	270
303	0.0017	11780	480
303	0.0019	13450	610
313	0.0014	9060	50
313	0.0017	9890	170
313	0.0019	10880	440
323	0.0014	10240	210
323	0.0017	10880	190
323	0.0019	11100	120
333	0.0014	10930	160
333	0.0017	11680	140
333	0.0019	11720	130
