Measured thermophysical data. Surface Tension and Density of Pure Ionic Liquids and Some Binary Mixtures with 1-Propanol and 1-Butanol
Source: J. Chem. Eng. Data, 2008, 10.1021/je700621d
Compound 1: 1-ethyl-3-methylimidazolium bis((trifluoromethyl)sulfonyl)imide, C8H11F6N3O4S2, InChI=1S/C6H11N2.C2F6NO4S2/c1-3-8-5-4-7(2)6-8;3-1(4,5)14(10,11)9-15(12,13)2(6,7)8/h4-6H,3H2,1-2H3;/q+1;-1
Compound 2: 1-butyl-3-methylimidazolium bis(trifluoromethylsulfonyl)imide, C10H15F6N3O4S2, InChI=1S/C8H15N2.C2F6NO4S2/c1-3-4-5-10-7-6-9(2)8-10;3-1(4,5)14(10,11)9-15(12,13)2(6,7)8/h6-8H,3-5H2,1-2H3;/q+1;-1
Compound 3: butyltrimethylammonium bis(trifluoromethylsulfonyl)imide, C9H18F6N2O4S2, InChI=1S/C7H18N.C2F6NO4S2/c1-5-6-7-8(2,3)4;3-1(4,5)14(10,11)9-15(12,13)2(6,7)8/h5-7H2,1-4H3;/q+1;-1
Compound 4: 1-ethyl-3-methylimidazolium ethyl sulfate, C8H16N2O4S, InChI=1S/C6H11N2.C2H6O4S/c1-3-8-5-4-7(2)6-8;1-2-6-7(3,4)5/h4-6H,3H2,1-2H3;2H2,1H3,(H,3,4,5)/q+1;/p-1
Compound 5: methyltrioctylammonium 1,1,1-trifluoro-N-[(trifluoromethyl)sulfonyl]methanesulfonamide, C27H54F6N2O4S2, InChI=1S/C25H54N.C2F6NO4S2/c1-5-8-11-14-17-20-23-26(4,24-21-18-15-12-9-6-2)25-22-19-16-13-10-7-3;3-1(4,5)14(10,11)9-15(12,13)2(6,7)8/h5-25H2,1-4H3;/q+1;-1
Compound 6: 1-butyl-3-methylimidazolium octyl sulfate, C16H32N2O4S, InChI=1S/C8H15N2.C8H18O4S/c1-3-4-5-10-7-6-9(2)8-10;1-2-3-4-5-6-7-8-12-13(9,10)11/h6-8H,3-5H2,1-2H3;2-8H2,1H3,(H,9,10,11)/q+1;/p-1
Compound 7: propan-1-ol, C3H8O, InChI=1S/C3H8O/c1-2-3-4/h4H,2-3H2,1H3
Compound 8: butan-1-ol, C4H10O, InChI=1S/C4H10O/c1-2-3-4-5/h5H,2-4H2,1H3

System: 1-ethyl-3-methylimidazolium bis((trifluoromethyl)sulfonyl)imide; phases: Liquid, Air at 1 atmosphere
Property: Surface tension liquid-gas, N/m (Liquid); method: Pendant drop shape
Temperature, K	Surface tension liquid-gas, N/m	uncertainty
278.75	0.03731	0.00101
288.15	0.03658	0.00099
298.15	0.03571	0.00097
308.15	0.03517	0.00096
318.15	0.03468	0.00094
328.15	0.03425	0.00093

System: 1-ethyl-3-methylimidazolium bis((trifluoromethyl)sulfonyl)imide; phases: Liquid
Fixed: Pressure, kPa = 101.325
Property: Mass density, kg/m3 (Liquid); method: Vibrating tube method
Temperature, K	Mass density, kg/m3	uncertainty
278.15	1539.1	16.7
288.15	1528.9	16.5
298.15	1518.7	16.3
308.15	1508.7	16.1
318.15	1498.6	15.9
328.15	1488.7	15.6

System: 1-butyl-3-methylimidazolium bis(trifluoromethylsulfonyl)imide; phases: Liquid, Air at 1 atmosphere
Property: Surface tension liquid-gas, N/m (Liquid); method: Pendant drop shape
Temperature, K	Surface tension liquid-gas, N/m	uncertainty
278.75	0.0338	0.00092
288.15	0.03337	0.00091
298	0.0328	0.00088
298.15	0.0328	0.0009
308.15	0.03232	0.00088
318.15	0.03189	0.00087
328.15	0.03128	0.00086

System: 1-butyl-3-methylimidazolium bis(trifluoromethylsulfonyl)imide; phases: Liquid
Fixed: Pressure, kPa = 101.325
Property: Mass density, kg/m3 (Liquid); method: Vibrating tube method
Temperature, K	Mass density, kg/m3	uncertainty
278.15	1456.1	15
288.15	1446.2	14.8
298	1436.4	14.6
298.15	1436.6	14.6
308.15	1427	14.4
318.15	1417.4	14.2
328.15	1407.9	14

System: butyltrimethylammonium bis(trifluoromethylsulfonyl)imide; phases: Liquid, Air at 1 atmosphere
Property: Surface tension liquid-gas, N/m (Liquid); method: Pendant drop shape
Temperature, K	Surface tension liquid-gas, N/m	uncertainty
278.75	0.03331	0.00091
288.15	0.03304	0.0009
298.15	0.03246	0.00089
308.15	0.032	0.00088
318.15	0.03121	0.00086
328.15	0.03064	0.00084

System: butyltrimethylammonium bis(trifluoromethylsulfonyl)imide; phases: Liquid
Fixed: Pressure, kPa = 101.325
Property: Mass density, kg/m3 (Liquid); method: Vibrating tube method
Temperature, K	Mass density, kg/m3	uncertainty
278.15	1412.3	14.1
288.15	1403	13.9
298.15	1394	13.7
308.15	1385	13.5
318.15	1376.1	13.3
328.15	1367.3	13.2

System: 1-ethyl-3-methylimidazolium ethyl sulfate; phases: Liquid, Air at 1 atmosphere
Property: Surface tension liquid-gas, N/m (Liquid); method: Pendant drop shape
Temperature, K	Surface tension liquid-gas, N/m	uncertainty
278.75	0.0467	0.00125
288.15	0.04604	0.00123
298.15	0.04543	0.00122
308.15	0.04472	0.0012
318.15	0.04374	0.00117
328.15	0.04337	0.00117

System: 1-ethyl-3-methylimidazolium ethyl sulfate; phases: Liquid
Fixed: Pressure, kPa = 101.325
Property: Mass density, kg/m3 (Liquid); method: Vibrating tube method
Temperature, K	Mass density, kg/m3	uncertainty
278.15	1255.1	11.1
288.15	1248.1	11
298.15	1241.1	10.8
308.15	1234.2	10.7
318.15	1227.3	10.6
328.15	1220.6	10.5

System: methyltrioctylammonium 1,1,1-trifluoro-N-[(trifluoromethyl)sulfonyl]methanesulfonamide; phases: Liquid, Air at 1 atmosphere
Property: Surface tension liquid-gas, N/m (Liquid); method: Pendant drop shape
Temperature, K	Surface tension liquid-gas, N/m	uncertainty
278.75	0.02965	0.00082
288.15	0.02892	0.0008
298.15	0.02793	0.00077
308.15	0.02702	0.00075
318.15	0.02656	0.00074
328.15	0.02603	0.00073

System: methyltrioctylammonium 1,1,1-trifluoro-N-[(trifluoromethyl)sulfonyl]methanesulfonamide; phases: Liquid
Fixed: Pressure, kPa = 101.325
Property: Mass density, kg/m3 (Liquid); method: Vibrating tube method
Temperature, K	Mass density, kg/m3	uncertainty
278.15	1119.8	8.8
288.15	1112.2	8.7
298.15	1104.6	8.5
308.15	1097.2	8.4
318.15	1089.6	8.3
328.15	1082.1	8.2

System: 1-butyl-3-methylimidazolium octyl sulfate; phases: Liquid, Air at 1 atmosphere
Property: Surface tension liquid-gas, N/m (Liquid); method: Pendant drop shape
Temperature, K	Surface tension liquid-gas, N/m	uncertainty
278.75	0.02808	0.00078
288.15	0.02729	0.00076
298.15	0.02671	0.00074
308.15	0.02627	0.00073
318.15	0.02572	0.00072
328.15	0.02499	0.0007

System: 1-butyl-3-methylimidazolium octyl sulfate; phases: Liquid
Fixed: Pressure, kPa = 101.325
Property: Mass density, kg/m3 (Liquid); method: Vibrating tube method
Temperature, K	Mass density, kg/m3	uncertainty
278.15	1077.3	8.1
288.15	1070.4	8
298.15	1063.8	7.9
308.15	1057.1	7.8
318.15	1050.8	7.7
328.15	1044.3	7.6

System: propan-1-ol; phases: Liquid, Air at 1 atmosphere
Property: Surface tension liquid-gas, N/m (Liquid); method: Pendant drop shape
Temperature, K	Surface tension liquid-gas, N/m	uncertainty
298	0.02334	0.00026

System: propan-1-ol; phases: Liquid
Property: Mass density, kg/m3 (Liquid); method: Vibrating tube method
Temperature, K	Pressure, kPa	Mass density, kg/m3	uncertainty
298	101.3	799	0.2

System: butan-1-ol; phases: Liquid, Air at 1 atmosphere
Property: Surface tension liquid-gas, N/m (Liquid); method: Pendant drop shape
Temperature, K	Surface tension liquid-gas, N/m	uncertainty
298	0.02396	0.00026

System: butan-1-ol; phases: Liquid
Property: Mass density, kg/m3 (Liquid); method: Vibrating tube method
Temperature, K	Pressure, kPa	Mass density, kg/m3	uncertainty
298	101.3	805.3	0.2

System: propan-1-ol + 1-butyl-3-methylimidazolium bis(trifluoromethylsulfonyl)imide; phases: Liquid, Air at 1 atmosphere
Fixed: Temperature, K = 298
Property: Surface tension liquid-gas, N/m (Liquid); method: Pendant drop shape
Mole fraction of 1-butyl-3-methylimidazolium bis(trifluoromethylsulfonyl)imide	Surface tension liquid-gas, N/m	uncertainty
0	0.02334	0.00026
0.035	0.0236	0.00026
0.131	0.02416	0.00028
0.202	0.02473	0.0003
0.296	0.02577	0.00034
0.373	0.02647	0.00038
0.517	0.0286	0.00048
0.664	0.02989	0.00059
0.685	0.03054	0.00061
0.884	0.03249	0.00079
1	0.0328	0.00088

System: propan-1-ol + 1-butyl-3-methylimidazolium bis(trifluoromethylsulfonyl)imide; phases: Liquid
Fixed: Temperature, K = 298
Fixed: Pressure, kPa = 101
Property: Mass density, kg/m3 (Liquid); method: Vibrating tube method
Mole fraction of 1-butyl-3-methylimidazolium bis(trifluoromethylsulfonyl)imide	Mass density, kg/m3	uncertainty
0	799	0.2
0.035	878.2	0.1
0.131	1036.2	0.3
0.202	1116.5	0.5
0.296	1194.1	1
0.373	1243.5	1.7
0.517	1311.8	3.4
0.664	1361.9	5.8
0.685	1368	6.2
0.884	1422	11.1
1	1436.4	14.5

System: butan-1-ol + 1-butyl-3-methylimidazolium bis(trifluoromethylsulfonyl)imide; phases: Liquid, Air at 1 atmosphere
Fixed: Temperature, K = 298
Property: Surface tension liquid-gas, N/m (Liquid); method: Pendant drop shape
Mole fraction of 1-butyl-3-methylimidazolium bis(trifluoromethylsulfonyl)imide	Surface tension liquid-gas, N/m	uncertainty
0	0.02396	0.00026
0.0941	0.02398	0.00027
0.2025	0.02388	0.00029
0.2045	0.0238	0.00029
0.306	0.02416	0.00033
0.3064	0.02425	0.00033
0.3964	0.02517	0.00037
0.5002	0.02679	0.00045
0.5977	0.02832	0.00052
0.6848	0.02956	0.0006
0.8016	0.03096	0.0007
0.8986	0.03194	0.00079
1	0.0328	0.00088

System: butan-1-ol + 1-butyl-3-methylimidazolium bis(trifluoromethylsulfonyl)imide; phases: Liquid
Fixed: Temperature, K = 298
Fixed: Pressure, kPa = 101
Property: Mass density, kg/m3 (Liquid); method: Vibrating tube method
Mole fraction of 1-butyl-3-methylimidazolium bis(trifluoromethylsulfonyl)imide	Mass density, kg/m3	uncertainty
0	805.3	0.2
0.0941	962.2	0.2
0.2025	1087.1	0.5
0.2045	1089	0.5
0.306	1172.6	1.1
0.3064	1172.5	1.1
0.3964	1230.5	1.8
0.5002	1283.6	3
0.5977	1323.5	4.5
0.6848	1354.8	6.1
0.8016	1388.6	8.7
0.8986	1413.4	11.4
1	1436.4	14.5
