Measured thermophysical data. Solubility of Sebacic Acid in Binary Water + Ethanol Solvent Mixtures
Source: J. Chem. Eng. Data, 2008, 10.1021/je7005314
Compound 1: 1,10-decanedioic acid, C10H18O4, InChI=1S/C10H18O4/c11-9(12)7-5-3-1-2-4-6-8-10(13)14/h1-8H2,(H,11,12)(H,13,14)
Compound 2: ethanol, C2H6O, InChI=1S/C2H6O/c1-2-3/h3H,2H2,1H3
Compound 3: water, H2O, InChI=1S/H2O/h1H2

System: 1,10-decanedioic acid + water; phases: Liquid, Crystal
Fixed: Pressure, kPa = 101.3
Property: Solid-liquid equilibrium temperature, K (Liquid); method: VISOBS
Mole fraction of 1,10-decanedioic acid	Solid-liquid equilibrium temperature, K	uncertainty
3.622e-05	321.95	2.01
6.372e-05	327.45	2.01
8.783e-05	329.44	2.01
9.386e-05	331.61	2.01
0.0001212	334.01	2.01
0.0001524	336.96	2.01
0.0001716	339.68	2.01
0.0002095	341.72	2.01
0.0002372	343.83	2.01
0.0002606	347.4	2.01
0.0003169	350.2	2.01

System: ethanol + 1,10-decanedioic acid; phases: Liquid, Crystal
Fixed: Pressure, kPa = 101.3
Property: Solid-liquid equilibrium temperature, K (Liquid); method: VISOBS
Mole fraction of ethanol	Solid-liquid equilibrium temperature, K	uncertainty
0.8824	341.19	2.01
0.8908	339.11	2.01
0.90144	336.53	2.01
0.91024	334.38	2.01
0.9194	331.73	2.01
0.92818	328.18	2.01
0.93587	325.42	2.01
0.94221	322.9	2.01
0.94806	320.31	2.01
0.95627	315.97	2.01
0.9617	313.21	2.01
0.96688	309.95	2.01
0.97099	307.33	2.01
0.97324	304.52	2.01
0.97699	301.61	2.01
0.98077	298.15	2.01
0.98216	296.45	2.01

System: ethanol + 1,10-decanedioic acid + water; phases: Liquid, Crystal
Fixed: Pressure, kPa = 101
Property: Solid-liquid equilibrium temperature, K (Liquid); method: VISOBS
Mole fraction of ethanol	Mole fraction of 1,10-decanedioic acid	Solid-liquid equilibrium temperature, K	uncertainty
0	3.622e-05	321.95	2.01
0	6.372e-05	327.45	2.01
0	8.783e-05	329.44	2.01
0	9.386e-05	331.61	2.01
0	0.0001212	334.01	2.01
0	0.0001524	336.96	2.01
0	0.0001716	339.68	2.01
0	0.0002095	341.72	2.01
0	0.0002372	343.83	2.01
0	0.0002606	347.4	2.01
0	0.0003169	350.2	2.01
0.08246	0.01298	352.75	2.01
0.08286	0.008267	350.15	2.01
0.08307	0.005738	348.25	2.01
0.08323	0.003756	344.65	2.01
0.08332	0.002689	341.55	2.01
0.08338	0.001964	337.95	2.01
0.08343	0.001401	334.85	2.01
0.08346	0.001057	331.95	2.01
0.08348	0.0007989	328.35	2.01
0.0835	0.000587	325.65	2.01
0.08351	0.0004481	323.55	2.01
0.08352	0.0003314	319.85	2.01
0.08353	0.0001365	310.55	2.01
0.08353	0.0002406	315.65	2.01
0.08354	4.101e-05	302.05	2.01
0.2557	0.09006	351.35	2.01
0.2607	0.07241	346.55	2.01
0.2652	0.05615	342.05	2.01
0.2696	0.04069	336.85	2.01
0.2738	0.02566	329.75	2.01
0.276	0.01783	324.75	2.01
0.278	0.0107	317.75	2.01
0.2783	0.009649	316.25	2.01
0.2789	0.007484	312.75	2.01
0.2791	0.006624	310.95	2.01
0.2795	0.0052	307.75	2.01
0.28	0.003654	302.95	2.01
0.2802	0.002895	299.95	2.01
0.2804	0.002202	296.45	2.01
0.2805	0.001672	293.45	2.01
0.2807	0.001076	288.65	2.01
0.2807	0.001205	290.15	2.01
0.5133	0.1584	353.45	2.01
0.5171	0.1522	352.75	2.01
0.5244	0.1402	350.35	2.01
0.5313	0.129	347.75	2.01
0.5457	0.1053	342.45	2.01
0.5523	0.09446	339.25	2.01
0.557	0.08674	337.55	2.01
0.5656	0.07265	333.35	2.01
0.5676	0.06938	331.55	2.01
0.5769	0.05412	325.95	2.01
0.5834	0.04346	321.65	2.01
0.5901	0.03256	315.35	2.01
0.592	0.02938	313.45	2.01
0.5949	0.02462	309.35	2.01
0.5985	0.01869	304.05	2.01
0.6008	0.01505	300.45	2.01
0.6027	0.01195	296.35	2.01
0.6037	0.01021	293.85	2.01
0.6056	0.007184	288.85	2.01
0.8824	0.1176	341.19	2.01
0.8908	0.1092	339.11	2.01
0.90144	0.09856	336.53	2.01
0.91024	0.08976	334.38	2.01
0.9194	0.0806	331.73	2.01
0.92818	0.07182	328.18	2.01
0.93587	0.06413	325.42	2.01
0.94221	0.05779	322.9	2.01
0.94806	0.05194	320.31	2.01
0.95627	0.04373	315.97	2.01
0.9617	0.0383	313.21	2.01
0.96688	0.03312	309.95	2.01
0.97099	0.02901	307.33	2.01
0.97324	0.02676	304.52	2.01
0.97699	0.02301	301.61	2.01
0.98077	0.01923	298.15	2.01
0.98216	0.01784	296.45	2.01
0.9849	0.01508	293.22	2.01
0.9877	0.01228	289.75	2.01
