Measured thermophysical data. Solubility of 6-Aminopenicillanic Acid in Aqueous Salt Solutions from 273.15 K to 303.15 K
Source: J. Chem. Eng. Data, 2007, 10.1021/je700284r
Compound 1: 6-aminopenicillanic acid, C8H12N2O3S, InChI=1S/C8H12N2O3S/c1-8(2)4(7(12)13)10-5(11)3(9)6(10)14-8/h3-4,6H,9H2,1-2H3,(H,12,13)/t3-,4+,6-/m1/s1
Compound 2: water, H2O, InChI=1S/H2O/h1H2
Compound 3: sodium sulfate, Na2O4S, InChI=1S/2Na.H2O4S/c;;1-5(2,3)4/h;;(H2,1,2,3,4)/q2*+1;/p-2
Compound 4: ammonium sulfate, H8N2O4S, InChI=1S/2H3N.H2O4S/c;;1-5(2,3)4/h2*1H3;(H2,1,2,3,4)

System: 6-aminopenicillanic acid + water + sodium sulfate; phases: Liquid, Crystal
Fixed: Pressure, kPa = 101
Property: Mole fraction of 6-aminopenicillanic acid (Liquid); method: laser monitoring
Temperature, K	Solvent: Amount concentration (molarity), mol/dm3 of sodium sulfate	Mole fraction of 6-aminopenicillanic acid	uncertainty
274.15	0	0.00013246	5.34e-06
274.15	0.3	0.00018605	7.49e-06
274.35	0.0508	0.00014343	5.78e-06
274.35	0.0997	0.00015396	6.21e-06
274.85	0.2	0.0001664	6.7e-06
278.15	0	0.00014346	5.78e-06
278.15	0.0508	0.00015479	6.24e-06
278.15	0.2	0.00017862	7.2e-06
278.15	0.3	0.00019363	7.8e-06
278.97	0.0997	0.00016603	6.69e-06
283.15	0	0.00015933	6.42e-06
283.15	0.0508	0.00017162	6.92e-06
283.15	0.0997	0.0001824	7.35e-06
283.15	0.2	0.00019361	7.8e-06
283.15	0.3	0.00021196	8.54e-06
288.15	0.0508	0.00018959	7.64e-06
288.15	0.0997	0.00019541	7.88e-06
288.15	0.2	0.00020978	8.45e-06
288.15	0.3	0.00022314	8.99e-06
289.15	0	0.00017283	6.96e-06
293.15	0	0.00018311	7.38e-06
293.15	0.0508	0.0002043	8.23e-06
293.15	0.2	0.00022826	9.2e-06
293.15	0.3	0.00024353	9.81e-06
293.75	0.0997	0.00022079	8.9e-06
298.15	0	0.00020252	8.17e-06
298.15	0.0508	0.00022246	8.97e-06
298.15	0.0997	0.00023358	9.41e-06
298.15	0.2	0.00024224	9.76e-06
298.15	0.3	0.00025534	1.028e-05
303.15	0	0.00022603	9.11e-06
303.15	0.0508	0.00024876	1.002e-05
303.15	0.0997	0.00025337	1.021e-05
303.15	0.2	0.00026589	1.071e-05
303.15	0.3	0.00027187	1.095e-05

System: 6-aminopenicillanic acid + water + ammonium sulfate; phases: Liquid, Crystal
Fixed: Pressure, kPa = 101
Property: Mole fraction of 6-aminopenicillanic acid (Liquid); method: laser monitoring
Temperature, K	Solvent: Amount concentration (molarity), mol/dm3 of ammonium sulfate	Mole fraction of 6-aminopenicillanic acid	uncertainty
274.15	0	0.00013246	5.34e-06
275.15	0.505	0.00021776	8.82e-06
275.3	0.2015	0.00019187	7.78e-06
275.35	1.0019	0.0001849662	7.455e-06
278.15	0	0.00014346	5.78e-06
278.15	0.2015	0.00020195	8.14e-06
278.15	0.505	0.00022775	9.18e-06
278.15	1.0019	0.0001942833	7.825e-06
278.15	1.5	0.0001806437	7.277e-06
283.15	0	0.00015932	6.42e-06
283.15	0.2015	0.00021363	8.61e-06
283.15	0.505	0.00023959	9.65e-06
283.15	1.0019	0.0002044337	8.235e-06
288.15	0.2015	0.00022833	9.2e-06
288.15	0.505	0.00024934	1.004e-05
288.15	1.0019	0.0002208145	8.896e-06
288.15	1.5	0.0002035901	8.202e-06
289.15	0	0.00017283	6.96e-06
293.15	0	0.00018311	7.38e-06
293.15	0.2015	0.00024734	9.97e-06
293.15	0.505	0.00026509	1.068e-05
293.15	1.0019	0.000234549	9.45e-06
298.15	0	0.00020252	8.17e-06
298.15	0.2015	0.000265	1.067e-05
298.15	0.505	0.00028304	1.14e-05
298.15	1.0019	0.0002550974	1.028e-05
298.15	1.5	0.0002394966	9.649e-06
303.15	0	0.00022602	9.11e-06
303.15	0.2015	0.0002745	1.105e-05
303.15	0.505	0.00029457	1.186e-05
303.15	1.0019	0.000267539	1.077e-05
