Measured thermophysical data. Vapor Liquid Equilibria, Density, Speed of Sound, and Viscosity of Aqueous Dipotassium Tartrate Solutions at T ) (298.15, 308.15, and 318.15) K
Source: J. Chem. Eng. Data, 2008, 10.1021/je700751a
Compound 1: dipotassium L-tartrate, C4H4K2O6, InChI=1S/C4H6O6.2K/c5-1(3(7)8)2(6)4(9)10;;/h1-2,5-6H,(H,7,8)(H,9,10);;/q;2*+1/p-2/t1-,2-;;/m1../s1, purity 99.5%
Compound 2: water, H2O, InChI=1S/H2O/h1H2

System: dipotassium L-tartrate + water; phases: Liquid, Gas
Property: Osmotic coefficient (Liquid); method: ISOPIE
Molality, mol/kg of dipotassium L-tartrate	Temperature, K	Osmotic coefficient	uncertainty
0	298.15	1	0.001
0	308.15	1	0.001
0	318.15	1	0.001
0.2468	318.15	0.741	0.013
0.3282	308.15	0.721	0.014
0.3446	318.15	0.745	0.013
0.3635	298.15	0.713	0.014
0.5504	318.15	0.721	0.014
0.604	298.15	0.683	0.016
0.6181	318.15	0.712	0.014
0.7152	308.15	0.706	0.015
0.7532	298.15	0.675	0.016
0.9198	308.15	0.702	0.015
0.9764	318.15	0.707	0.015
1.1349	308.15	0.692	0.015
1.2757	318.15	0.702	0.015
1.2852	298.15	0.677	0.016
1.3275	308.15	0.694	0.015
1.536	318.15	0.712	0.014
1.702	298.15	0.691	0.015
1.8536	308.15	0.705	0.015
1.8606	298.15	0.691	0.015
1.9954	318.15	0.723	0.014
2.2119	298.15	0.704	0.015
2.2152	308.15	0.712	0.014
2.3787	298.15	0.711	0.014
2.4657	298.15	0.705	0.015
2.6463	318.15	0.737	0.013
2.8375	298.15	0.719	0.014
2.8422	308.15	0.725	0.014
2.9341	318.15	0.751	0.012
3.2361	298.15	0.728	0.014
3.5849	308.15	0.751	0.012
4.1535	318.15	0.777	0.011
4.1683	298.15	0.759	0.012
4.1767	308.15	0.764	0.012
4.3793	298.15	0.77	0.01
4.6313	298.15	0.771	0.011
4.8126	318.15	0.791	0.01
4.8447	298.15	0.775	0.011
5.047	308.15	0.78	0.011
5.7492	318.15	0.804	0.01
5.8361	308.15	0.793	0.01
6.4352	308.15	0.806	0.01
6.72	298.15	0.805	0.01
6.8692	298.15	0.804	0.01

System: dipotassium L-tartrate + water; phases: Liquid, Gas
Property: (Relative) activity of water (Liquid); method: isopiestic
Molality, mol/kg of dipotassium L-tartrate	Temperature, K	(Relative) activity of water	uncertainty
0	298.15	1	0.0004
0	308.15	1	0.0004
0	318.15	1	0.0004
0.2468	318.15	0.9902	0.0004
0.3282	308.15	0.9873	0.0004
0.3446	318.15	0.9862	0.0004
0.3635	298.15	0.9861	0.0004
0.5504	318.15	0.9788	0.0004
0.604	298.15	0.9779	0.0004
0.6181	318.15	0.9765	0.0004
0.7152	308.15	0.9731	0.0004
0.7532	298.15	0.9729	0.0004
0.9198	308.15	0.9657	0.0004
0.9764	318.15	0.9634	0.0004
1.1349	308.15	0.9584	0.0004
1.2757	318.15	0.9527	0.0004
1.2852	298.15	0.954	0.001
1.3275	308.15	0.9514	0.0004
1.536	318.15	0.9426	0.0004
1.702	298.15	0.9384	0.0004
1.8536	308.15	0.9318	0.0004
1.8606	298.15	0.9329	0.0004
1.9954	318.15	0.925	0.0004
2.2119	298.15	0.9193	0.0004
2.2152	308.15	0.9183	0.0004
2.3787	298.15	0.9127	0.0004
2.4657	298.15	0.9104	0.0004
2.6463	318.15	0.9	0.0004
2.8375	298.15	0.8956	0.0004
2.8422	308.15	0.8947	0.0004
2.9341	318.15	0.8877	0.0004
3.2361	298.15	0.8804	0.0004
3.5849	308.15	0.8646	0.0004
4.1535	318.15	0.8399	0.0004
4.1683	298.15	0.8429	0.0004
4.1767	308.15	0.8415	0.0004
4.3793	298.15	0.8335	0.0004
4.6313	298.15	0.8245	0.0004
4.8126	318.15	0.814	0.0004
4.8447	298.15	0.8164	0.0004
5.047	308.15	0.8084	0.0004
5.7492	318.15	0.7789	0.0004
5.8361	308.15	0.7788	0.0004
6.4352	308.15	0.7554	0.0004
6.72	298.15	0.7464	0.0004
6.8692	298.15	0.7419	0.0004

System: dipotassium L-tartrate + water; phases: Liquid
Fixed: Pressure, kPa = 101
Property: Viscosity, Pa*s (Liquid); method: Capillary tube (Ostwald; Ubbelohde) method
Temperature, K	Molality, mol/kg of dipotassium L-tartrate	Viscosity, Pa*s	uncertainty
298.15	0.0222	0.000879	1e-05
298.15	0.0312	0.000892	1e-05
298.15	0.0516	0.000902	1e-05
298.15	0.073	0.000911	1.1e-05
298.15	0.0909	0.000917	1.1e-05
298.15	0.1822	0.000948	1.1e-05
298.15	0.2842	0.000985	1.1e-05
298.15	0.3843	0.001012	1.2e-05
298.15	0.4639	0.00104	1.2e-05
298.15	0.6883	0.001125	1.3e-05
298.15	1.0976	0.001294	1.5e-05
298.15	1.4682	0.001474	1.7e-05
298.15	1.8781	0.00171	1.9e-05
298.15	2.6016	0.002243	2.6e-05
298.15	3.4047	0.003301	3.7e-05
298.15	4.0775	0.004296	4.9e-05
298.15	5.188	0.006378	7.3e-05
298.15	5.3782	0.007066	8e-05
308.15	0.0222	0.000718	8e-06
308.15	0.0312	0.000723	8e-06
308.15	0.0516	0.000731	9e-06
308.15	0.073	0.000737	9e-06
308.15	0.0909	0.00075	9e-06
308.15	0.1822	0.000773	9e-06
308.15	0.2842	0.000799	9e-06
308.15	0.3843	0.000821	1e-05
308.15	0.4639	0.000847	1e-05
308.15	0.6883	0.000916	1.1e-05
308.15	1.0976	0.001054	1.2e-05
308.15	1.4682	0.001206	1.4e-05
308.15	1.8781	0.001389	1.6e-05
308.15	2.6016	0.001801	2.1e-05
308.15	3.4047	0.002613	3e-05
308.15	4.0775	0.003367	3.8e-05
308.15	5.188	0.004841	5.5e-05
308.15	5.3782	0.005339	6.2e-05
318.15	0.0222	0.000595	7e-06
318.15	0.0312	0.000601	7e-06
318.15	0.0516	0.000609	7e-06
318.15	0.073	0.000612	7e-06
318.15	0.0909	0.000623	7e-06
318.15	0.1822	0.000639	7e-06
318.15	0.2842	0.000665	8e-06
318.15	0.3843	0.000693	8e-06
318.15	0.4639	0.000705	8e-06
318.15	0.6883	0.000764	9e-06
318.15	1.0976	0.000879	1e-05
318.15	1.4682	0.001006	1.2e-05
318.15	1.8781	0.001157	1.3e-05
318.15	2.6016	0.001483	1.7e-05
318.15	3.4047	0.00212	2.4e-05
318.15	4.0775	0.0027	3.1e-05
318.15	5.188	0.003829	4.4e-05
318.15	5.3782	0.004176	4.8e-05

System: dipotassium L-tartrate + water; phases: Liquid
Fixed: Pressure, kPa = 101
Property: Speed of sound, m/s (Liquid); method: FPINT:UFactor:2
Temperature, K	Molality, mol/kg of dipotassium L-tartrate	Speed of sound, m/s	uncertainty
298.15	0.0398	1502.55	1.48
298.15	0.0498	1503.74	1.48
298.15	0.0615	1505.42	1.48
298.15	0.0697	1506.52	1.48
298.15	0.0797	1508.75	1.48
298.15	0.0897	1509.47	1.48
298.15	0.0996	1510.3	1.48
298.15	0.3	1535.65	1.5
298.15	0.4985	1559.54	1.52
298.15	0.6922	1582.17	1.54
298.15	0.8934	1605.24	1.56
298.15	1.2845	1648.29	1.6
298.15	1.5788	1680.48	1.62
298.15	1.9646	1718.34	1.66
298.15	2.4427	1763.99	1.69
298.15	2.9234	1805.25	1.73
298.15	3.3913	1841.49	1.76
298.15	3.8581	1876.19	1.79
298.15	4.3238	1907.02	1.81
298.15	4.785	1935.37	1.84
298.15	5.2381	1960.58	1.86
298.15	5.6922	1984.76	1.88
308.15	0.0398	1541.43	1.51
308.15	0.0498	1542.57	1.51
308.15	0.0615	1543.94	1.51
308.15	0.0697	1544.95	1.51
308.15	0.0797	1546.71	1.51
308.15	0.0897	1547.66	1.51
308.15	0.0996	1548.32	1.51
308.15	0.3	1570.49	1.53
308.15	0.4985	1591.56	1.55
308.15	0.6922	1611.6	1.57
308.15	0.8934	1631.93	1.58
308.15	1.2845	1670.11	1.61
308.15	1.5788	1698.69	1.64
308.15	1.9646	1732.59	1.67
308.15	2.4427	1773.43	1.7
308.15	2.9234	1810.8	1.73
308.15	3.3913	1843.62	1.76
308.15	3.8581	1875.29	1.79
308.15	4.3238	1903.71	1.81
308.15	4.785	1929.52	1.83
308.15	5.2381	1953.35	1.85
308.15	5.6922	1975.52	1.87
318.15	0.0398	1541.43	1.51
318.15	0.0498	1542.57	1.51
318.15	0.0615	1543.94	1.51
318.15	0.0697	1544.95	1.51
318.15	0.0797	1546.71	1.51
318.15	0.0897	1547.66	1.51
318.15	0.0996	1548.32	1.51
318.15	0.3	1570.49	1.53
318.15	0.4985	1591.56	1.55
318.15	0.6922	1611.6	1.57
318.15	0.8934	1631.93	1.58
318.15	1.2845	1670.11	1.61
318.15	1.5788	1698.69	1.64
318.15	1.9646	1732.59	1.67
318.15	2.4427	1773.43	1.7
318.15	2.9234	1810.8	1.73
318.15	3.3913	1843.62	1.76
318.15	3.8581	1875.29	1.79
318.15	4.3238	1903.71	1.81
318.15	4.785	1929.52	1.83
318.15	5.2381	1953.35	1.85
318.15	5.6922	1975.52	1.87

System: dipotassium L-tartrate + water; phases: Liquid
Fixed: Pressure, kPa = 101
Property: Mass density, kg/m3 (Liquid); method: VIBTUB:UFactor:4
Temperature, K	Molality, mol/kg of dipotassium L-tartrate	Mass density, kg/m3	uncertainty
298.15	0.0398	1002.883	0.131
298.15	0.0498	1004.29	0.133
298.15	0.0615	1005.993	0.136
298.15	0.0697	1007.177	0.137
298.15	0.0797	1008.558	0.14
298.15	0.0897	1010.006	0.142
298.15	0.0996	1011.422	0.144
298.15	0.3	1039.015	0.188
298.15	0.4985	1064.812	0.23
298.15	0.6922	1088.799	0.268
298.15	0.8934	1112.364	0.306
298.15	1.2845	1155.123	0.376
298.15	1.5788	1185.123	0.425
298.15	1.9646	1221.196	0.485
298.15	2.4427	1262.588	0.553
298.15	2.9234	1299.599	0.615
298.15	3.3913	1331.798	0.669
298.15	3.8581	1362.454	0.721
298.15	4.3238	1389.867	0.767
298.15	4.785	1414.66	0.81
298.15	5.2381	1437.729	0.849
298.15	5.6922	1459.068	0.886
308.15	0.0398	999.78	0.126
308.15	0.0498	1001.178	0.128
308.15	0.0615	1002.846	0.131
308.15	0.0697	1004.013	0.132
308.15	0.0797	1005.386	0.135
308.15	0.0897	1006.8	0.137
308.15	0.0996	1008.21	0.139
308.15	0.3	1035.425	0.183
308.15	0.4985	1060.927	0.224
308.15	0.6922	1084.647	0.262
308.15	0.8934	1107.996	0.3
308.15	1.2845	1150.412	0.369
308.15	1.5788	1180.157	0.417
308.15	1.9646	1216.053	0.476
308.15	2.4427	1257.213	0.545
308.15	2.9234	1294.09	0.606
308.15	3.3913	1326.153	0.66
308.15	3.8581	1356.741	0.712
308.15	4.3238	1384.056	0.758
308.15	4.785	1408.825	0.8
308.15	5.2381	1431.813	0.84
308.15	5.6922	1453.123	0.877
318.15	0.0398	995.909	0.132
318.15	0.0498	997.282	0.13
318.15	0.0615	998.942	0.128
318.15	0.0697	1000.092	0.126
318.15	0.0797	1001.442	0.128
318.15	0.0897	1002.857	0.131
318.15	0.0996	1004.238	0.133
318.15	0.3	1031.194	0.176
318.15	0.4985	1056.452	0.217
318.15	0.6922	1079.979	0.254
318.15	0.8934	1103.168	0.292
318.15	1.2845	1145.296	0.361
318.15	1.5788	1174.959	0.409
318.15	1.9646	1210.586	0.468
318.15	2.4427	1251.594	0.536
318.15	2.9234	1288.337	0.597
318.15	3.3913	1320.321	0.651
318.15	3.8581	1350.826	0.702
318.15	4.3238	1378.097	0.748
318.15	4.785	1402.829	0.791
318.15	5.2381	1425.776	0.83
318.15	5.6922	1447.055	0.867
