Measured thermophysical data. Solubilities of Betulin in Fourteen Organic Solvents at Different Temperatures
Source: J. Chem. Eng. Data, 2007, 10.1021/je700069g
Compound 1: betulin, C30H50O2, InChI=1S/C30H50O2/c1-19(2)20-10-15-30(18-31)17-16-28(6)21(25(20)30)8-9-23-27(5)13-12-24(32)26(3,4)22(27)11-14-29(23,28)7/h20-25,31-32H,1,8-18H2,2-7H3/t20-,21+,22-,23+,24-,25+,27-,28+,29+,30+/m0/s1, purity 92%
Compound 2: methanol, CH4O, InChI=1S/CH4O/c1-2/h2H,1H3
Compound 3: ethanol, C2H6O, InChI=1S/C2H6O/c1-2-3/h3H,2H2,1H3
Compound 4: propan-1-ol, C3H8O, InChI=1S/C3H8O/c1-2-3-4/h4H,2-3H2,1H3
Compound 5: butan-1-ol, C4H10O, InChI=1S/C4H10O/c1-2-3-4-5/h5H,2-4H2,1H3
Compound 6: pentan-1-ol, C5H12O, InChI=1S/C5H12O/c1-2-3-4-5-6/h6H,2-5H2,1H3
Compound 7: hexan-1-ol, C6H14O, InChI=1S/C6H14O/c1-2-3-4-5-6-7/h7H,2-6H2,1H3
Compound 8: methyl methanoate, C2H4O2, InChI=1S/C2H4O2/c1-4-2-3/h2H,1H3
Compound 9: ethyl methanoate, C3H6O2, InChI=1S/C3H6O2/c1-2-5-3-4/h3H,2H2,1H3
Compound 10: methyl ethanoate, C3H6O2, InChI=1S/C3H6O2/c1-3(4)5-2/h1-2H3
Compound 11: ethyl acetate, C4H8O2, InChI=1S/C4H8O2/c1-3-6-4(2)5/h3H2,1-2H3
Compound 12: trichloromethane, CHCl3, InChI=1S/CHCl3/c2-1(3)4/h1H
Compound 13: dichloromethane, CH2Cl2, InChI=1S/CH2Cl2/c2-1-3/h1H2
Compound 14: cyclohexane, C6H12, InChI=1S/C6H12/c1-2-4-6-5-3-1/h1-6H2
Compound 15: acetone, C3H6O, InChI=1S/C3H6O/c1-3(2)4/h1-2H3

System: methanol + betulin; phases: Liquid, Crystal
Fixed: Pressure, kPa = 101
Property: Mole fraction of betulin (Liquid); method: Chromatography
Temperature, K	Mole fraction of betulin	uncertainty
278.2	0.000179	8e-06
288.2	0.000248	1.4e-05
298.2	0.000328	1.1e-05
308.2	0.000397	4.4e-05

System: ethanol + betulin; phases: Liquid, Crystal
Fixed: Pressure, kPa = 101
Property: Mole fraction of betulin (Liquid); method: Chromatography
Temperature, K	Mole fraction of betulin	uncertainty
278.2	0.000579	2.3e-05
288.2	0.000658	2.8e-05
298.2	0.000898	4.8e-05
308.2	0.001133	3.3e-05

System: propan-1-ol + betulin; phases: Liquid, Crystal
Fixed: Pressure, kPa = 101
Property: Mole fraction of betulin (Liquid); method: Chromatography
Temperature, K	Mole fraction of betulin	uncertainty
278.2	0.001133	3.8e-05
288.2	0.001274	7.6e-05
298.2	0.001463	5.5e-05
308.2	0.0016	5.2e-05

System: butan-1-ol + betulin; phases: Liquid, Crystal
Fixed: Pressure, kPa = 101
Property: Mole fraction of betulin (Liquid); method: Chromatography
Temperature, K	Mole fraction of betulin	uncertainty
278.2	0.001807	0.000197
288.2	0.00213	6.6e-05
298.2	0.002385	3.6e-05
308.2	0.002713	0.000106

System: pentan-1-ol + betulin; phases: Liquid, Crystal
Fixed: Pressure, kPa = 101
Property: Mole fraction of betulin (Liquid); method: Chromatography
Temperature, K	Mole fraction of betulin	uncertainty
278.2	0.00095	0.000123
288.2	0.001204	8e-05
298.2	0.001432	0.000108
308.2	0.001713	0.000164

System: hexan-1-ol + betulin; phases: Liquid, Crystal
Fixed: Pressure, kPa = 101
Property: Mole fraction of betulin (Liquid); method: Chromatography
Temperature, K	Mole fraction of betulin	uncertainty
278.2	0.000744	1.7e-05
288.2	0.000846	1.3e-05
298.2	0.00102	3e-05
308.2	0.001273	8.9e-05

System: methyl methanoate + betulin; phases: Liquid, Crystal
Fixed: Pressure, kPa = 101
Property: Mole fraction of betulin (Liquid); method: Chromatography
Temperature, K	Mole fraction of betulin	uncertainty
278.2	0.000187	1.5e-05
283.2	0.000212	1.9e-05
288.2	0.000257	1.1e-05
298.2	0.000316	4.7e-05

System: ethyl methanoate + betulin; phases: Liquid, Crystal
Fixed: Pressure, kPa = 101
Property: Mole fraction of betulin (Liquid); method: Chromatography
Temperature, K	Mole fraction of betulin	uncertainty
278.2	0.000301	5e-06
288.2	0.000333	8e-06
298.2	0.000316	4.5e-05
308.2	0.000395	7e-06

System: methyl ethanoate + betulin; phases: Liquid, Crystal
Fixed: Pressure, kPa = 101
Property: Mole fraction of betulin (Liquid); method: Chromatography
Temperature, K	Mole fraction of betulin	uncertainty
278.2	0.000598	1e-05
288.2	0.000705	1.1e-05
298.2	0.000797	1.5e-05
308.2	0.000917	3.5e-05

System: ethyl acetate + betulin; phases: Liquid, Crystal
Fixed: Pressure, kPa = 101
Property: Mole fraction of betulin (Liquid); method: Chromatography
Temperature, K	Mole fraction of betulin	uncertainty
278.2	0.000963	0.0002
288.2	0.00155	3.5e-05
298.2	0.002066	0.000128
308.2	0.003047	0.000119

System: trichloromethane + betulin; phases: Liquid, Crystal
Fixed: Pressure, kPa = 101
Property: Mole fraction of betulin (Liquid); method: Chromatography
Temperature, K	Mole fraction of betulin	uncertainty
278.2	0.002602	0.000166
288.2	0.003377	0.000164
298.2	0.00437	5.9e-05
308.2	0.005111	0.000115

System: dichloromethane + betulin; phases: Liquid, Crystal
Fixed: Pressure, kPa = 101
Property: Mole fraction of betulin (Liquid); method: Chromatography
Temperature, K	Mole fraction of betulin	uncertainty
278.2	0.00079	1.2e-05
283.2	0.000837	1.6e-05
288.2	0.000897	1.8e-05
298.2	0.000991	3.1e-05

System: cyclohexane + betulin; phases: Liquid, Crystal
Fixed: Pressure, kPa = 101
Property: Mole fraction of betulin (Liquid); method: Chromatography
Temperature, K	Mole fraction of betulin	uncertainty
283.2	1.68e-05	2.2e-06
288.2	2.7e-05	2.9e-06
298.2	6.34e-05	6.1e-06
308.2	0.0001667	8.4e-06

System: acetone + betulin; phases: Liquid, Crystal
Fixed: Pressure, kPa = 101
Property: Mole fraction of betulin (Liquid); method: Chromatography
Temperature, K	Mole fraction of betulin	uncertainty
278.2	0.000556	1.9e-05
288.2	0.000866	5.5e-05
298.2	0.001578	9.9e-05
308.2	0.002273	6.8e-05
