Measured thermophysical data. Vapor-Liquid Equilibria for the HI + H2O System and the HI + H2O + I2 System
Source: J. Chem. Eng. Data, 2008, 10.1021/je700544w
Compound 1: iodine, I2, InChI=1S/I2/c1-2, purity 99.8%
Compound 2: hydrogen iodide, HI, InChI=1S/HI/h1H, purity 55%
Compound 3: water, H2O, InChI=1S/H2O/h1H2

System: water + hydrogen iodide; phases: Gas, Liquid
Property: Boiling temperature at pressure P, K (Gas); method: EBULLIO:UFactor:8
Mole fraction of hydrogen iodide	Pressure, kPa	Boiling temperature at pressure P, K	uncertainty
0	111.5	375.05	0.85
0	150	383.73	0.97
0	202.7	392.91	0.95
0	304	406.24	0.92
0	579.9	429.62	1.55
0	580	429.78	1.56
0.0001	150	386.72	0.95
0.0001	580	433.98	1.84
0.0002	150	390.53	0.93
0.001	150	397	1.04
0.003	111.5	387.01	0.57
0.003	579.9	444.91	2.73
0.023	580.1	452.41	3.82
0.039	150	407.77	1.99
0.05	304	431.07	4.11
0.074	580	455.79	1.75
0.079	580.1	455.87	1.78
0.086	111.4	400.85	2.56
0.098	579.9	455.04	1.65
0.121	579.5	456.39	1.64
0.123	303.9	432.83	1.09
0.127	111.3	401.2	0.96
0.129	150	410.22	1.83
0.138	579.9	456.28	1.7
0.147	304	432.85	1.07
0.151	150	410.3	0.97
0.156	150	410.29	0.97
0.157	304.1	432.75	1.72
0.159	202.5	419.46	1.17
0.159	579.9	455.79	1.79
0.168	150	410.26	0.98
0.17	150	410.27	0.99
0.174	303.9	432.52	1.02
0.204	580	454.62	1.87
0.211	150	409.96	0.86
0.213	580.1	456.24	1.92
0.251	580	453.31	2.7

System: water + hydrogen iodide; phases: Liquid, Gas
Property: Mole fraction of hydrogen iodide (Liquid); method: Titration method
Mole fraction of hydrogen iodide	Pressure, kPa	Mole fraction of hydrogen iodide	uncertainty
0	111.5	0	0.001
0	150	0	0.001
0	202.7	0	0.001
0	304	0	0.001
0	579.9	0	0.001
0	580	0	0.001
0.0001	150	0.036	0.02
0.0001	580	0.039	0.02
0.0002	150	0.063	0.02
0.001	150	0.094	0.02
0.003	111.5	0.09	0.02
0.003	579.9	0.086	0.02
0.023	580.1	0.114	0.023
0.039	150	0.134	0.021
0.05	304	0.119	0.028
0.074	580	0.13	0.02
0.079	580.1	0.134	0.02
0.086	111.4	0.134	0.022
0.098	579.9	0.129	0.02
0.121	579.5	0.128	0.02
0.123	303.9	0.136	0.021
0.127	111.3	0.147	0.021
0.129	150	0.15	0.021
0.138	579.9	0.139	0.02
0.147	304	0.144	0.02
0.151	150	0.154	0.02
0.156	150	0.152	0.02
0.157	304.1	0.138	0.02
0.159	202.5	0.149	0.02
0.159	579.9	0.139	0.02
0.168	150	0.156	0.02
0.17	150	0.154	0.02
0.174	303.9	0.146	0.02
0.204	580	0.15	0.02
0.211	150	0.157	0.02
0.213	580.1	0.146	0.02
0.251	580	0.153	0.02

System: iodine + water + hydrogen iodide; phases: Gas, Liquid
Property: Mole fraction of water (Gas); method: Titration method
Property: Mole fraction of hydrogen iodide (Liquid); method: Titration method
Property: Mole fraction of water (Liquid); method: Titration method
Temperature, K	Pressure, kPa	Mole fraction of hydrogen iodide	Mole fraction of water	uncertainty	Mole fraction of hydrogen iodide	uncertainty	Mole fraction of water	uncertainty
401.4	100	0.1371	0.8629	0.0129	0.153	0.004	0.847	
401.2	101.1	0.2015	0.7982	0.0246	0.158	0.004	0.841	
402.3	101.7	0.1342	0.8631	0.0126	0.153	0.004	0.829	
396	100.8	0.0072	0.9902	0.004	0.141	0.004	0.839	
402.5	101.2	0.1321	0.8634	0.0124	0.154	0.004	0.808	
402.5	102	0.145	0.8484	0.0147	0.15	0.004	0.802	
402	100.9	0.1774	0.8152	0.0205	0.153	0.004	0.789	
399	101.2	0.0246	0.9709	0.0041	0.141	0.004	0.799	
403.2	102	0.1273	0.8641	0.012	0.146	0.004	0.763	
400.7	101.8	0.04	0.9525	0.0044	0.14	0.004	0.756	
403.9	102.4	0.1521	0.8372	0.0162	0.144	0.004	0.739	
402.9	101.7	0.1298	0.8598	0.0125	0.154	0.004	0.718	
400.7	102.1	0.0325	0.9567	0.0042	0.138	0.004	0.715	
401.6	101.6	0.0464	0.9424	0.0046	0.137	0.004	0.713	
403.7	101.7	0.1057	0.8806	0.0093	0.136	0.004	0.698	
401.8	100.6	0.0478	0.9376	0.0047	0.134	0.004	0.69	
403.9	102.3	0.1012	0.881	0.009	0.134	0.004	0.674	
404.6	102	0.1253	0.8585	0.0122	0.135	0.004	0.671	
402.7	101.7	0.0493	0.9325	0.0049	0.135	0.004	0.658	
404.7	102.1	0.0947	0.8841	0.0085	0.129	0.004	0.657	
404.7	100	0.1829	0.7859	0.0235	0.133	0.004	0.647	
403.8	101.9	0.1097	0.8206	0.0132	0.135	0.004	0.642	
404.6	100.8	0.0934	0.8807	0.0086	0.127	0.004	0.616	
405.4	102	0.0643	0.9047	0.0061	0.132	0.004	0.601	
404.9	102.4	0.08	0.8929	0.0073	0.125	0.004	0.611	
405.9	100.8	0.1118	0.8469	0.0118	0.126	0.004	0.577	
407.7	101.9	0.0869	0.88	0.0082	0.12	0.004	0.562	
406.6	101.4	0.1005	0.862	0.0099	0.133	0.004	0.49	
407.7	101.9	0.0775	0.8482	0.0089	0.108	0.004	0.468	
