Measured thermophysical data. Vapor Pressure and Enthalpy of Vaporization of 2-Amino-3-methylpyridine
Source: J. Chem. Eng. Data, 2007, 10.1021/je700371w
Compound 1: water, H2O, InChI=1S/H2O/h1H2
Compound 2: 2-amino-3-methylpyridine, C6H8N2, InChI=1S/C6H8N2/c1-5-3-2-4-8-6(5)7/h2-4H,1H3,(H2,7,8)

System: water; phases: Liquid, Gas
Property: Vapor or sublimation pressure, kPa (Liquid); method: Closed cell (Static) method
Temperature, K	Vapor or sublimation pressure, kPa	uncertainty
297.95	3.14	0.07
303.85	4.41	0.07
309.05	5.93	0.07
313.25	7.44	0.08
318.75	9.86	0.08
322.95	12.2	0.09
329.35	16.71	0.1
333.45	20.18	0.12
338.55	25.51	0.14
342.85	30.8	0.16
348.25	38.66	0.19
353.65	48.42	0.22
358.35	58.2	0.26
362.95	69.67	0.3
368.45	85.35	0.34
371.75	96.28	0.38
373.25	101.56	0.42
375.75	111.23	0.44

System: 2-amino-3-methylpyridine; phases: Liquid, Gas
Property: Vapor or sublimation pressure, kPa (Liquid); method: Closed cell (Static) method
Temperature, K	Vapor or sublimation pressure, kPa	uncertainty
328.7	0.098	0.006
329.84	0.108	0.006
336.23	0.165	0.006
344.13	0.271	0.007
349.18	0.368	0.007
354.89	0.515	0.008
357.64	0.598	0.009
359.93	0.69	0.06
363.55	0.82	0.06
368.61	1.08	0.06
374.67	1.47	0.06
387.23	2.67	0.06
390.85	3.13	0.06
398.46	4.32	0.06
405.57	5.82	0.07
411.35	7.34	0.07
415.63	8.67	0.07
421.5	10.75	0.08
425.85	12.61	0.08
428.75	13.95	0.08
431.43	15.29	0.09
435.66	17.74	0.09
439.42	20.12	0.1
443.51	23.01	0.1
447.94	26.5	0.11
448.95	27.3	0.11
450.76	28.88	0.12
451.84	29.81	0.12
454.19	32.09	0.13
455.25	33.15	0.13
456.78	34.61	0.14
457.95	36.08	0.14
460.15	38.48	0.14
461.72	40.22	0.14
469.63	50.38	0.18
478.22	63.87	0.21
484.84	76.42	0.24
490.45	87.65	0.27
495.13	99.74	0.25
496.05	101.44	0.28
497.73	105.38	0.31
498.8	108.53	0.33
499.88	111.35	0.32
