Measured thermophysical data. Solubilities of Adefovir Dipivoxil in Different Binary Solvents at 298.15 K
Source: J. Chem. Eng. Data, 2008, 10.1021/je700664g
Compound 1: 9-[2-bis(pivaloyloxymethyl)phosphonmethoxyethyl]adenine, C20H32N5O8P, InChI=1S/C20H32N5O8P/c1-19(2,3)17(26)30-11-32-34(28,33-12-31-18(27)20(4,5)6)13-29-8-7-25-10-24-14-15(21)22-9-23-16(14)25/h9-10H,7-8,11-13H2,1-6H3,(H2,21,22,23), purity 99%
Compound 2: diisopropyl ether, C6H14O, InChI=1S/C6H14O/c1-5(2)7-6(3)4/h5-6H,1-4H3
Compound 3: ethanol, C2H6O, InChI=1S/C2H6O/c1-2-3/h3H,2H2,1H3
Compound 4: propan-2-ol, C3H8O, InChI=1S/C3H8O/c1-3(2)4/h3-4H,1-2H3
Compound 5: dichloromethane, CH2Cl2, InChI=1S/CH2Cl2/c2-1-3/h1H2
Compound 6: ethyl acetate, C4H8O2, InChI=1S/C4H8O2/c1-3-6-4(2)5/h3H2,1-2H3
Compound 7: acetone, C3H6O, InChI=1S/C3H6O/c1-3(2)4/h1-2H3

System: ethanol + 9-[2-bis(pivaloyloxymethyl)phosphonmethoxyethyl]adenine; phases: Liquid, Crystal
Property: Mole fraction of 9-[2-bis(pivaloyloxymethyl)phosphonmethoxyethyl]adenine (Liquid); method: OTHER::sMethod:Beer's Law
Pressure, kPa	Temperature, K	Mole fraction of 9-[2-bis(pivaloyloxymethyl)phosphonmethoxyethyl]adenine	uncertainty
101	298.15	0.03405485	0.001061

System: diisopropyl ether + 9-[2-bis(pivaloyloxymethyl)phosphonmethoxyethyl]adenine; phases: Liquid, Crystal
Fixed: Pressure, kPa = 101
Fixed: Temperature, K = 298.15
Property: Mole fraction of 9-[2-bis(pivaloyloxymethyl)phosphonmethoxyethyl]adenine (Liquid); method: OTHER::sMethod:Beer's Law
Mole fraction of 9-[2-bis(pivaloyloxymethyl)phosphonmethoxyethyl]adenine	uncertainty
3.708e-05	8.4e-07
3.7085e-05	8.36e-07

System: propan-2-ol + 9-[2-bis(pivaloyloxymethyl)phosphonmethoxyethyl]adenine; phases: Liquid, Crystal
Property: Mole fraction of 9-[2-bis(pivaloyloxymethyl)phosphonmethoxyethyl]adenine (Liquid); method: OTHER::sMethod:Beer's Law
Pressure, kPa	Temperature, K	Mole fraction of 9-[2-bis(pivaloyloxymethyl)phosphonmethoxyethyl]adenine	uncertainty
101	298.15	0.02520234	0.0006808

System: dichloromethane + 9-[2-bis(pivaloyloxymethyl)phosphonmethoxyethyl]adenine; phases: Liquid, Crystal
Property: Mole fraction of 9-[2-bis(pivaloyloxymethyl)phosphonmethoxyethyl]adenine (Liquid); method: OTHER::sMethod:Beer's Law
Pressure, kPa	Temperature, K	Mole fraction of 9-[2-bis(pivaloyloxymethyl)phosphonmethoxyethyl]adenine	uncertainty
101	298.15	0.17513285	0.004398

System: ethyl acetate + 9-[2-bis(pivaloyloxymethyl)phosphonmethoxyethyl]adenine; phases: Liquid, Crystal
Property: Mole fraction of 9-[2-bis(pivaloyloxymethyl)phosphonmethoxyethyl]adenine (Liquid); method: OTHER::sMethod:Beer's Law
Pressure, kPa	Temperature, K	Mole fraction of 9-[2-bis(pivaloyloxymethyl)phosphonmethoxyethyl]adenine	uncertainty
101	298.15	0.02626739	0.0006181

System: acetone + 9-[2-bis(pivaloyloxymethyl)phosphonmethoxyethyl]adenine; phases: Liquid, Crystal
Property: Mole fraction of 9-[2-bis(pivaloyloxymethyl)phosphonmethoxyethyl]adenine (Liquid); method: Beer's Law
Pressure, kPa	Temperature, K	Mole fraction of 9-[2-bis(pivaloyloxymethyl)phosphonmethoxyethyl]adenine	uncertainty
101	298.15	0.06615383	0.001853

System: propan-2-ol + diisopropyl ether + 9-[2-bis(pivaloyloxymethyl)phosphonmethoxyethyl]adenine; phases: Liquid, Crystal
Fixed: Temperature, K = 298.15
Fixed: Pressure, kPa = 101
Property: Mole fraction of 9-[2-bis(pivaloyloxymethyl)phosphonmethoxyethyl]adenine (Liquid); method: Beer's Law
Solvent: Mole fraction of diisopropyl ether	Mole fraction of 9-[2-bis(pivaloyloxymethyl)phosphonmethoxyethyl]adenine	uncertainty
0	0.02520234	0.0006808
0.0652	0.02418899	0.0006866
0.1346	0.02353204	0.0007008
0.2113	0.02170099	0.0008077
0.2882	0.01900841	0.0007738
0.3695	0.01686535	0.0008392
0.4665	0.01255079	0.0008167
0.5756	0.00902513	0.0006829
0.6982	0.00503856	0.0005578
0.836	0.00190104	0.0003311
1	3.7085e-05	8.36e-07

System: ethanol + diisopropyl ether + 9-[2-bis(pivaloyloxymethyl)phosphonmethoxyethyl]adenine; phases: Liquid, Crystal
Fixed: Temperature, K = 298.15
Fixed: Pressure, kPa = 101
Property: Mole fraction of 9-[2-bis(pivaloyloxymethyl)phosphonmethoxyethyl]adenine (Liquid); method: Beer's Law
Solvent: Mole fraction of diisopropyl ether	Mole fraction of 9-[2-bis(pivaloyloxymethyl)phosphonmethoxyethyl]adenine	uncertainty
0	0.03405485	0.001061
0.052	0.03357054	0.001149
0.1026	0.0312309	0.001108
0.1631	0.03001849	0.0009207
0.2295	0.02892413	0.0009274
0.3087	0.02650802	0.001225
0.3986	0.02048505	0.001526
0.5068	0.01233157	0.00122
0.6359	0.00637139	0.0007604
0.7944	0.00154275	0.0003401
1	3.708e-05	8.4e-07

System: dichloromethane + diisopropyl ether + 9-[2-bis(pivaloyloxymethyl)phosphonmethoxyethyl]adenine; phases: Liquid, Crystal
Fixed: Temperature, K = 298.15
Fixed: Pressure, kPa = 101
Property: Mole fraction of 9-[2-bis(pivaloyloxymethyl)phosphonmethoxyethyl]adenine (Liquid); method: Beer's Law
Solvent: Mole fraction of diisopropyl ether	Mole fraction of 9-[2-bis(pivaloyloxymethyl)phosphonmethoxyethyl]adenine	uncertainty
0	0.17513285	0.004398
0.1002	0.15980221	0.00697
0.1987	0.11805637	0.00906
0.2993	0.07421754	0.008405
0.3888	0.04004103	0.006667
0.4793	0.01479008	0.003917
0.5773	0.00306514	0.001384
0.6768	0.00111788	0.0002558
0.7803	0.00047263	0.0001042
0.8675	0.00013563	3.775e-05
1	3.7085e-05	8.36e-07

System: diisopropyl ether + ethyl acetate + 9-[2-bis(pivaloyloxymethyl)phosphonmethoxyethyl]adenine; phases: Liquid, Crystal
Fixed: Temperature, K = 298.15
Fixed: Pressure, kPa = 101
Property: Mole fraction of 9-[2-bis(pivaloyloxymethyl)phosphonmethoxyethyl]adenine (Liquid); method: Beer's Law
Solvent: Mole fraction of diisopropyl ether	Mole fraction of 9-[2-bis(pivaloyloxymethyl)phosphonmethoxyethyl]adenine	uncertainty
0	0.02626739	0.0006181
0.0896	0.01955761	0.001558
0.18	0.01285934	0.001282
0.2736	0.00807735	0.0008301
0.3652	0.00537763	0.0005221
0.4622	0.00328754	0.0003952
0.5627	0.00154473	0.0002331
0.6658	0.00093688	0.0001072
0.7714	0.00044789	7.238e-05
0.8792	0.00017153	3.588e-05
1	3.708e-05	8.4e-07

System: acetone + diisopropyl ether + 9-[2-bis(pivaloyloxymethyl)phosphonmethoxyethyl]adenine; phases: Liquid, Crystal
Fixed: Temperature, K = 298.15
Fixed: Pressure, kPa = 101
Property: Mole fraction of 9-[2-bis(pivaloyloxymethyl)phosphonmethoxyethyl]adenine (Liquid); method: Beer's Law
Solvent: Mole fraction of diisopropyl ether	Mole fraction of 9-[2-bis(pivaloyloxymethyl)phosphonmethoxyethyl]adenine	uncertainty
0	0.06615383	0.001853
0.069	0.04894963	0.00436
0.1268	0.03999986	0.003432
0.1998	0.02763636	0.002889
0.2742	0.01935159	0.002086
0.3603	0.01132533	0.001446
0.4564	0.00635918	0.0007855
0.5634	0.00345925	0.0004361
0.6827	0.00149123	0.0002329
0.818	0.00050391	9.015e-05
1	3.708e-05	8.4e-07
