Measured thermophysical data. Densities and Viscosities of (N,N-Dimethylformamide + Water) at Atmospheric Pressure from (283.15 to 353.15) K
Source: J. Chem. Eng. Data, 2008, 10.1021/je700671t
Compound 1: dimethylformamide, C3H7NO, InChI=1S/C3H7NO/c1-4(2)3-5/h3H,1-2H3, purity 99.4%
Compound 2: water, H2O, InChI=1S/H2O/h1H2, purity 99.95%

System: dimethylformamide; phases: Liquid
Fixed: Pressure, kPa = 101
Property: Viscosity, Pa*s (Liquid); method: Capillary tube (Ostwald; Ubbelohde) method
Temperature, K	Viscosity, Pa*s	uncertainty
293.15	0.000864	1e-05
303.15	0.000766	9e-06
313.15	0.000684	9e-06
323.15	0.000617	9e-06
333.15	0.000559	9e-06
343.15	0.00051	9e-06
353.15	0.00047	9e-06

System: dimethylformamide; phases: Liquid
Fixed: Pressure, kPa = 101
Property: Mass density, kg/m3 (Liquid); method: VIBTUB:UFactor:4
Temperature, K	Mass density, kg/m3	uncertainty
283.15	958.96	0.25
288.15	954.17	0.26
293.15	949.39	0.27
298.15	944.6	0.27
303.15	939.83	0.28
308.15	935.05	0.29
313.15	930.27	0.29
318.15	925.49	0.3
323.15	920.71	0.31
328.15	915.92	0.32
333.15	911.13	0.32
338.15	906.32	0.33
343.15	901.51	0.34
348.15	896.69	0.34
353.15	891.86	0.35

System: dimethylformamide + water; phases: Liquid
Fixed: Pressure, kPa = 101
Property: Viscosity, Pa*s (Liquid); method: Capillary tube (Ostwald; Ubbelohde) method
Temperature, K	Mole fraction of dimethylformamide	Viscosity, Pa*s	uncertainty
293.15	0	0.001026	1e-05
293.15	0.02	0.001234	4.3e-05
293.15	0.04	0.001442	4.4e-05
293.15	0.06	0.001656	4.2e-05
293.15	0.08	0.001847	4.3e-05
293.15	0.1	0.002062	4.5e-05
293.15	0.2	0.002782	2.4e-05
293.15	0.3	0.002954	1.8e-05
293.15	0.398	0.002622	2.3e-05
293.15	0.498	0.002162	2.3e-05
293.15	0.599	0.001713	2e-05
293.15	0.697	0.001377	1.6e-05
293.15	0.798	0.001153	1.3e-05
293.15	1	0.000864	1e-05
303.15	0	0.000817	9e-06
303.15	0.02	0.00097	3.1e-05
303.15	0.04	0.001114	3.2e-05
303.15	0.06	0.001269	3.1e-05
303.15	0.08	0.001407	3e-05
303.15	0.1	0.00155	4.2e-05
303.15	0.2	0.002051	1.8e-05
303.15	0.3	0.002179	1.4e-05
303.15	0.398	0.001979	1.7e-05
303.15	0.498	0.001675	1.7e-05
303.15	0.599	0.001382	1.5e-05
303.15	0.697	0.001149	1.3e-05
303.15	0.798	0.000985	1.1e-05
303.15	1	0.000766	9e-06
313.15	0	0.00067	9e-06
313.15	0.02	0.000783	2.4e-05
313.15	0.04	0.000891	2.4e-05
313.15	0.06	0.001003	2.3e-05
313.15	0.08	0.001103	2.3e-05
313.15	0.1	0.001208	3e-05
313.15	0.2	0.001564	1.5e-05
313.15	0.3	0.00166	1.2e-05
313.15	0.398	0.001538	1.3e-05
313.15	0.498	0.001337	1.4e-05
313.15	0.599	0.00114	1.3e-05
313.15	0.697	0.000971	1.2e-05
313.15	0.798	0.000847	1e-05
313.15	1	0.000684	9e-06
323.15	0	0.000561	9e-06
323.15	0.02	0.000648	1.9e-05
323.15	0.04	0.000729	1.9e-05
323.15	0.06	0.000812	1.9e-05
323.15	0.08	0.000892	1.8e-05
323.15	0.1	0.000965	2.2e-05
323.15	0.2	0.001228	1.2e-05
323.15	0.3	0.0013	1.1e-05
323.15	0.398	0.001228	1.1e-05
323.15	0.498	0.001087	1.2e-05
323.15	0.599	0.000961	1.1e-05
323.15	0.697	0.000831	1.1e-05
323.15	0.798	0.00074	1e-05
323.15	1	0.000617	9e-06
333.15	0	0.00048	9e-06
333.15	0.02	0.000548	1.6e-05
333.15	0.04	0.000613	1.5e-05
333.15	0.06	0.000675	1.5e-05
333.15	0.08	0.000736	1.5e-05
333.15	0.1	0.000792	1.7e-05
333.15	0.2	0.000992	1.1e-05
333.15	0.3	0.001046	1e-05
333.15	0.398	0.001001	1e-05
333.15	0.498	0.000905	1e-05
333.15	0.599	0.00081	1e-05
333.15	0.697	0.000722	1e-05
333.15	0.798	0.000654	9e-06
333.15	1	0.000559	9e-06
343.15	0	0.000419	8e-06
343.15	0.02	0.000474	1.4e-05
343.15	0.04	0.000526	1.3e-05
343.15	0.06	0.000575	1.3e-05
343.15	0.08	0.000624	1.3e-05
343.15	0.1	0.000666	1.4e-05
343.15	0.2	0.000821	1e-05
343.15	0.3	0.000866	9e-06
343.15	0.398	0.000837	1e-05
343.15	0.498	0.000764	1e-05
343.15	0.599	0.000701	9e-06
343.15	0.697	0.000636	9e-06
343.15	0.798	0.000583	9e-06
343.15	1	0.00051	9e-06
353.15	0	0.000371	8e-06
353.15	0.02	0.000417	1.2e-05
353.15	0.04	0.000459	1.2e-05
353.15	0.06	0.000499	1.2e-05
353.15	0.08	0.000539	1.1e-05
353.15	0.1	0.000572	1.1e-05
353.15	0.2	0.000694	1e-05
353.15	0.3	0.000727	9e-06
353.15	0.398	0.000707	9e-06
353.15	0.498	0.000659	9e-06
353.15	0.599	0.000614	9e-06
353.15	0.697	0.000563	9e-06
353.15	0.798	0.000525	9e-06
353.15	1	0.00047	9e-06

System: dimethylformamide + water; phases: Liquid
Fixed: Pressure, kPa = 101
Property: Mass density, kg/m3 (Liquid); method: VIBTUB:UFactor:4
Temperature, K	Mole fraction of dimethylformamide	Mass density, kg/m3	uncertainty
283.15	0	999.7	0.13
283.15	0.02	1000.31	0.22
283.15	0.04	1001.42	0.28
283.15	0.06	1002.8	0.3
283.15	0.08	1004.13	0.29
283.15	0.1	1005.32	0.27
283.15	0.2	1007.64	0.14
283.15	0.3	1004.4	0.24
283.15	0.398	997.83	0.31
283.15	0.498	990.56	0.34
283.15	0.599	983.02	0.34
283.15	0.697	976.07	0.33
283.15	0.798	969.84	0.31
283.15	1	958.96	0.25
288.15	0	999.1	0.13
288.15	0.02	999.23	0.15
288.15	0.04	999.91	0.21
288.15	0.06	1000.87	0.23
288.15	0.08	1001.82	0.22
288.15	0.1	1002.67	0.21
288.15	0.2	1003.86	0.15
288.15	0.3	1000.1	0.25
288.15	0.398	993.31	0.32
288.15	0.498	985.94	0.34
288.15	0.599	978.36	0.35
288.15	0.697	971.37	0.34
288.15	0.798	965.11	0.32
288.15	1	954.17	0.26
293.15	0	998.2	0.13
293.15	0.02	997.92	0.13
293.15	0.04	998.2	0.16
293.15	0.06	998.77	0.18
293.15	0.08	999.37	0.17
293.15	0.1	999.9	0.16
293.15	0.2	1000.01	0.16
293.15	0.3	995.76	0.27
293.15	0.398	988.76	0.33
293.15	0.498	981.3	0.35
293.15	0.599	973.67	0.35
293.15	0.697	966.65	0.34
293.15	0.798	960.37	0.32
293.15	1	949.39	0.27
298.15	0	997.04	0.13
298.15	0.02	996.39	0.15
298.15	0.04	996.31	0.13
298.15	0.06	996.53	0.14
298.15	0.08	996.8	0.14
298.15	0.1	997.03	0.14
298.15	0.2	996.13	0.18
298.15	0.3	991.4	0.28
298.15	0.398	984.18	0.34
298.15	0.498	976.64	0.35
298.15	0.599	968.96	0.36
298.15	0.697	961.92	0.35
298.15	0.798	955.63	0.33
298.15	1	944.6	0.27
303.15	0	995.65	0.13
303.15	0.02	994.67	0.19
303.15	0.04	994.25	0.15
303.15	0.06	994.14	0.14
303.15	0.08	994.11	0.14
303.15	0.1	994.05	0.14
303.15	0.2	992.19	0.2
303.15	0.3	986.99	0.3
303.15	0.398	979.57	0.35
303.15	0.498	971.95	0.36
303.15	0.599	964.24	0.36
303.15	0.697	957.18	0.35
303.15	0.798	950.87	0.33
303.15	1	939.83	0.28
308.15	0	994.03	0.14
308.15	0.02	992.74	0.24
308.15	0.04	992.03	0.18
308.15	0.06	991.61	0.16
308.15	0.08	991.29	0.15
308.15	0.1	990.98	0.16
308.15	0.2	988.2	0.22
308.15	0.3	982.55	0.31
308.15	0.398	974.94	0.36
308.15	0.498	967.24	0.36
308.15	0.599	959.49	0.37
308.15	0.697	952.42	0.36
308.15	0.798	946.1	0.34
308.15	1	935.05	0.29
313.15	0	992.21	0.14
313.15	0.02	990.67	0.29
313.15	0.04	989.66	0.22
313.15	0.06	988.95	0.19
313.15	0.08	988.37	0.19
313.15	0.1	987.8	0.19
313.15	0.2	984.15	0.25
313.15	0.3	978.07	0.33
313.15	0.398	970.26	0.36
313.15	0.498	962.5	0.37
313.15	0.599	954.73	0.37
313.15	0.697	947.64	0.36
313.15	0.798	941.33	0.34
313.15	1	930.27	0.29
318.15	0	990.21	0.14
318.15	0.02	988.43	0.34
318.15	0.04	987.14	0.27
318.15	0.06	986.17	0.23
318.15	0.08	985.33	0.22
318.15	0.1	984.53	0.22
318.15	0.2	980.05	0.27
318.15	0.3	973.55	0.34
318.15	0.398	965.56	0.37
318.15	0.498	957.73	0.38
318.15	0.599	949.93	0.38
318.15	0.697	942.85	0.37
318.15	0.798	936.53	0.35
318.15	1	925.49	0.3
323.15	0	988.03	0.14
323.15	0.02	986	0.38
323.15	0.04	984.49	0.31
323.15	0.06	983.26	0.28
323.15	0.08	982.19	0.26
323.15	0.1	981.17	0.26
323.15	0.2	975.89	0.3
323.15	0.3	968.99	0.35
323.15	0.398	960.81	0.38
323.15	0.498	952.92	0.38
323.15	0.599	945.11	0.38
323.15	0.697	938.03	0.37
323.15	0.798	931.73	0.35
323.15	1	920.71	0.31
328.15	0	985.69	0.15
328.15	0.02	983.51	0.43
328.15	0.04	981.71	0.36
328.15	0.06	980.24	0.32
328.15	0.08	978.94	0.3
328.15	0.1	977.71	0.3
328.15	0.2	971.68	0.32
328.15	0.3	964.38	0.37
328.15	0.398	956.04	0.39
328.15	0.498	948.09	0.39
328.15	0.599	940.27	0.39
328.15	0.697	933.2	0.37
328.15	0.798	926.91	0.36
328.15	1	915.92	0.32
333.15	0	983.19	0.15
333.15	0.02	980.84	0.46
333.15	0.04	978.81	0.41
333.15	0.06	977.1	0.36
333.15	0.08	975.59	0.34
333.15	0.1	974.16	0.34
333.15	0.2	967.4	0.34
333.15	0.3	959.73	0.38
333.15	0.398	951.22	0.4
333.15	0.498	943.22	0.39
333.15	0.599	935.4	0.39
333.15	0.697	928.34	0.38
333.15	0.798	922.08	0.36
333.15	1	911.13	0.32
338.15	0	980.55	0.16
338.15	0.02	978.04	0.5
338.15	0.04	975.81	0.45
338.15	0.06	973.86	0.4
338.15	0.08	972.14	0.38
338.15	0.1	970.51	0.37
338.15	0.2	963.07	0.36
338.15	0.3	955.03	0.39
338.15	0.398	946.36	0.4
338.15	0.498	938.32	0.4
338.15	0.599	930.49	0.39
338.15	0.697	923.46	0.38
338.15	0.798	917.22	0.37
338.15	1	906.32	0.33
343.15	0	977.76	0.16
343.15	0.02	975.12	0.54
343.15	0.04	972.66	0.49
343.15	0.06	970.5	0.44
343.15	0.08	968.59	0.41
343.15	0.1	966.78	0.41
343.15	0.2	958.67	0.38
343.15	0.3	950.29	0.41
343.15	0.398	941.46	0.41
343.15	0.498	933.38	0.4
343.15	0.599	925.56	0.4
343.15	0.697	918.55	0.39
343.15	0.798	912.34	0.37
343.15	1	901.51	0.34
348.15	0	974.84	0.16
348.15	0.02	972.14	0.57
348.15	0.04	969.42	0.53
348.15	0.06	967.1	0.48
348.15	0.08	964.94	0.45
348.15	0.1	962.96	0.44
348.15	0.2	954.21	0.4
348.15	0.3	945.49	0.42
348.15	0.398	936.52	0.42
348.15	0.498	928.4	0.41
348.15	0.599	920.59	0.4
348.15	0.697	913.61	0.39
348.15	0.798	907.45	0.38
348.15	1	896.69	0.34
353.15	0	971.79	0.17
353.15	0.02	968.96	0.6
353.15	0.04	966.06	0.57
353.15	0.06	963.53	0.52
353.15	0.08	961.2	0.49
353.15	0.1	959.05	0.47
353.15	0.2	949.69	0.42
353.15	0.3	940.64	0.43
353.15	0.398	931.54	0.43
353.15	0.498	923.39	0.41
353.15	0.599	915.59	0.41
353.15	0.697	908.64	0.4
353.15	0.798	902.52	0.38
353.15	1	891.86	0.35
