Measured thermophysical data. Isobaric Vapor Liquid Equilibria for Binary Systems of Acetone + Isopropenyl Acetate, 2-Butanone + Isopropenyl Acetate, and Isopropenyl Acetate + Acetylacetone at 101.3 kPa
Source: J. Chem. Eng. Data, 2008, 10.1021/je700605t
Compound 1: 2,4-pentanedione, C5H8O2, InChI=1S/C5H8O2/c1-4(6)3-5(2)7/h3H2,1-2H3
Compound 2: 1-methylvinyl ethanoate, C5H8O2, InChI=1S/C5H8O2/c1-4(2)7-5(3)6/h1H2,2-3H3
Compound 3: acetone, C3H6O, InChI=1S/C3H6O/c1-3(2)4/h1-2H3
Compound 4: butanone, C4H8O, InChI=1S/C4H8O/c1-3-4(2)5/h3H2,1-2H3

System: 2,4-pentanedione; phases: Liquid
Property: Refractive index (Na D-line) (Liquid); method: Standard Abbe refractometry
Temperature, K	Pressure, kPa	Refractive index (Na D-line)	uncertainty
298.15	101.325	1.4491	0.0007

System: 2,4-pentanedione; phases: Liquid
Property: Mass density, kg/m3 (Liquid); method: VIBTUB:UFactor:2
Temperature, K	Pressure, kPa	Mass density, kg/m3	uncertainty
298.15	101.325	971.9	0.2

System: 1-methylvinyl ethanoate; phases: Liquid
Property: Refractive index (Na D-line) (Liquid); method: Standard Abbe refractometry
Temperature, K	Pressure, kPa	Refractive index (Na D-line)	uncertainty
298.15	101.325	1.4029	0.0007

System: 1-methylvinyl ethanoate; phases: Liquid
Property: Mass density, kg/m3 (Liquid); method: VIBTUB:UFactor:2
Temperature, K	Pressure, kPa	Mass density, kg/m3	uncertainty
298.15	101.325	927.8	0.2

System: acetone; phases: Liquid
Property: Refractive index (Na D-line) (Liquid); method: Standard Abbe refractometry
Temperature, K	Pressure, kPa	Refractive index (Na D-line)	uncertainty
298.15	101.325	1.3582	0.0007

System: acetone; phases: Liquid
Property: Mass density, kg/m3 (Liquid); method: VIBTUB:UFactor:4
Temperature, K	Pressure, kPa	Mass density, kg/m3	uncertainty
298.15	101.325	784.9	0.5

System: butanone; phases: Liquid
Property: Refractive index (Na D-line) (Liquid); method: Standard Abbe refractometry
Temperature, K	Pressure, kPa	Refractive index (Na D-line)	uncertainty
298.15	101.325	1.3793	0.0007

System: butanone; phases: Liquid
Property: Mass density, kg/m3 (Liquid); method: VIBTUB:UFactor:4
Temperature, K	Pressure, kPa	Mass density, kg/m3	uncertainty
298.15	101.325	799.4	0.5

System: acetone + 1-methylvinyl ethanoate; phases: Liquid, Gas
Fixed: Pressure, kPa = 101.3
Property: Boiling temperature at pressure P, K (Liquid); method: EBULLIO:UFactor:6
Mole fraction of acetone	Boiling temperature at pressure P, K	uncertainty
0.046	366.71	0.53
0.1	363.04	0.53
0.131	361.12	0.53
0.178	358.23	0.52
0.218	356.15	0.52
0.29	352.54	0.52
0.328	350.69	0.52
0.377	348.36	0.52
0.399	347.51	0.52
0.462	345.1	0.52
0.524	342.84	0.52
0.568	340.99	0.51
0.669	338.07	0.51
0.732	335.88	0.51
0.875	332.3	0.51
0.953	330.52	0.51

System: acetone + 1-methylvinyl ethanoate; phases: Gas, Liquid
Fixed: Pressure, kPa = 101.3
Property: Mole fraction of acetone (Gas); method: Chromatography
Mole fraction of acetone	Mole fraction of acetone	uncertainty
0.046	0.142	0.006
0.1	0.277	0.006
0.131	0.341	0.005
0.178	0.429	0.006
0.218	0.496	0.006
0.29	0.589	0.005
0.328	0.63	0.005
0.377	0.683	0.004
0.399	0.702	0.004
0.462	0.754	0.003
0.524	0.797	0.003
0.568	0.825	0.003
0.669	0.878	0.003
0.732	0.908	0.002
0.875	0.962	0.002
0.953	0.987	0.002

System: butanone + 1-methylvinyl ethanoate; phases: Liquid, Gas
Fixed: Pressure, kPa = 101.3
Property: Boiling temperature at pressure P, K (Liquid); method: EBULLIO:UFactor:4
Mole fraction of butanone	Boiling temperature at pressure P, K	uncertainty
0.044	369.23	0.34
0.104	368.03	0.34
0.152	366.94	0.34
0.184	366.35	0.34
0.223	365.5	0.3
0.28	364.39	0.34
0.314	363.74	0.34
0.396	362.12	0.34
0.439	361.36	0.34
0.512	360.17	0.34
0.547	359.57	0.34
0.59	358.83	0.34
0.673	357.47	0.34
0.725	356.61	0.34
0.777	355.87	0.34
0.821	355.15	0.34
0.892	354.06	0.34

System: butanone + 1-methylvinyl ethanoate; phases: Gas, Liquid
Fixed: Pressure, kPa = 101.3
Property: Mole fraction of butanone (Gas); method: Chromatography
Mole fraction of butanone	Mole fraction of butanone	uncertainty
0.044	0.068	0.004
0.104	0.157	0.004
0.152	0.226	0.004
0.184	0.27	0.004
0.223	0.32	0.004
0.28	0.391	0.005
0.314	0.431	0.005
0.396	0.524	0.005
0.439	0.569	0.005
0.512	0.64	0.004
0.547	0.673	0.004
0.59	0.712	0.004
0.673	0.781	0.003
0.725	0.822	0.003
0.777	0.859	0.003
0.821	0.89	0.003
0.892	0.937	0.003

System: 1-methylvinyl ethanoate + 2,4-pentanedione; phases: Liquid, Gas
Fixed: Pressure, kPa = 101.3
Property: Boiling temperature at pressure P, K (Liquid); method: EBULLIO:UFactor:8
Mole fraction of 1-methylvinyl ethanoate	Boiling temperature at pressure P, K	uncertainty
0.039	410.02	0.72
0.073	406.09	0.71
0.113	402.58	0.7
0.157	399.13	0.7
0.194	396.19	0.7
0.204	395.51	0.69
0.295	389.66	0.69
0.341	387.53	0.69
0.389	385.35	0.69
0.453	383.19	0.68
0.499	382.03	0.68
0.57	379.81	0.69
0.582	379.15	0.69
0.67	376.73	0.68
0.681	376.63	0.68
0.779	374.66	0.68
0.837	373.27	0.68
0.89	371.96	0.68
0.94	371.23	0.68

System: 1-methylvinyl ethanoate + 2,4-pentanedione; phases: Gas, Liquid
Fixed: Pressure, kPa = 101.3
Property: Mole fraction of 1-methylvinyl ethanoate (Gas); method: Chromatography
Mole fraction of 1-methylvinyl ethanoate	Mole fraction of 1-methylvinyl ethanoate	uncertainty
0.039	0.152	0.01
0.073	0.251	0.01
0.113	0.35	0.01
0.157	0.435	0.01
0.194	0.492	0.01
0.204	0.51	0.01
0.295	0.619	0.009
0.341	0.665	0.009
0.389	0.708	0.009
0.453	0.75	0.008
0.499	0.774	0.008
0.57	0.816	0.008
0.582	0.824	0.008
0.67	0.866	0.008
0.681	0.87	0.008
0.779	0.913	0.008
0.837	0.937	0.008
0.89	0.958	0.008
0.94	0.977	0.008
