Measured thermophysical data. Solubilities of Selected PCDDs and PCDFs in Water and Various Chloride Solutions
Source: J. Chem. Eng. Data, 2007, 10.1021/je700185m
Compound 1: dibenzo[b,e][1,4]dioxin, C12H8O2, InChI=1S/C12H8O2/c1-2-6-10-9(5-1)13-11-7-3-4-8-12(11)14-10/h1-8H
Compound 2: 2-chloro-dibenzo[b,e][1,4]dioxin, C12H7ClO2, InChI=1S/C12H7ClO2/c13-8-5-6-11-12(7-8)15-10-4-2-1-3-9(10)14-11/h1-7H
Compound 3: 2,7-dichlorodibenzo-1,4-dioxin, C12H6Cl2O2, InChI=1S/C12H6Cl2O2/c13-7-1-3-9-11(5-7)16-10-4-2-8(14)6-12(10)15-9/h1-6H
Compound 4: 1,2,3,4,6,9-hexachlorodibenzo-p-dioxin, C12H2Cl6O2, InChI=1S/C12H2Cl6O2/c13-3-1-2-4(14)10-9(3)19-11-7(17)5(15)6(16)8(18)12(11)20-10/h1-2H
Compound 5: dibenzo[b,e][1,4]dioxin, octachloro-, C12Cl8O2, InChI=1S/C12Cl8O2/c13-1-2(14)6(18)10-9(5(1)17)21-11-7(19)3(15)4(16)8(20)12(11)22-10
Compound 6: dibenzo[bd]furan, C12H8O, InChI=1S/C12H8O/c1-3-7-11-9(5-1)10-6-2-4-8-12(10)13-11/h1-8H
Compound 7: 2,8-dichlorodibenzofuran, C12H6Cl2O, InChI=1S/C12H6Cl2O/c13-7-1-3-11-9(5-7)10-6-8(14)2-4-12(10)15-11/h1-6H
Compound 8: 1,2,3,4,7,8-hexachlorodibenzofuran, C12H2Cl6O, InChI=1S/C12H2Cl6O/c13-4-1-3-6(2-5(4)14)19-12-7(3)8(15)9(16)10(17)11(12)18/h1-2H
Compound 9: perchlorodibenzofuran, C12Cl8O, InChI=1S/C12Cl8O/c13-3-1-2-4(14)6(16)8(18)10(20)12(2)21-11(1)9(19)7(17)5(3)15
Compound 10: potassium chloride, ClK, InChI=1S/ClH.K/h1H;/q;+1/p-1
Compound 11: sodium chloride, ClNa, InChI=1S/ClH.Na/h1H;/q;+1/p-1
Compound 12: calcium chloride, CaCl2, InChI=1S/Ca.2ClH/h;2*1H/q+2;;/p-2
Compound 13: water, H2O, InChI=1S/H2O/h1H2, purity 99%

System: dibenzo[b,e][1,4]dioxin + water; phases: Liquid, Crystal
Fixed: Temperature, K = 298.15
Fixed: Pressure, kPa = 101.3
Property: Mass concentration, kg/m3 (Liquid); method: Chromatography
Mass concentration, kg/m3	uncertainty
0.00126	8e-05
0.0014	0.00038

System: water + 2-chloro-dibenzo[b,e][1,4]dioxin; phases: Liquid, Crystal
Fixed: Temperature, K = 298.15
Fixed: Pressure, kPa = 101.3
Property: Mass concentration, kg/m3 (Liquid); method: Chromatography
Mass concentration, kg/m3	uncertainty
0.00042	3.6e-05
0.000437	8e-05

System: water + 2,7-dichlorodibenzo-1,4-dioxin; phases: Liquid, Crystal
Property: Mass concentration, kg/m3 (Liquid); method: Chromatography
Temperature, K	Pressure, kPa	Mass concentration, kg/m3	uncertainty
298.15	101.3	4.09e-06	1e-06

System: water + 1,2,3,4,6,9-hexachlorodibenzo-p-dioxin; phases: Liquid, Crystal
Property: Mass concentration, kg/m3 (Liquid); method: Chromatography
Temperature, K	Pressure, kPa	Mass concentration, kg/m3	uncertainty
298.15	101.3	1.23e-09	4.7e-10

System: dibenzo[b,e][1,4]dioxin, octachloro- + water; phases: Liquid, Crystal
Property: Mass concentration, kg/m3 (Liquid); method: Chromatography
Temperature, K	Pressure, kPa	Mass concentration, kg/m3	uncertainty
298.15	101.3	2.29e-10	2.26e-10

System: dibenzo[bd]furan + water; phases: Liquid, Crystal
Fixed: Temperature, K = 298.15
Fixed: Pressure, kPa = 101.3
Property: Mass concentration, kg/m3 (Liquid); method: Chromatography
Mass concentration, kg/m3	uncertainty
0.00473	0.00064
0.00436	0.00038

System: 2,8-dichlorodibenzofuran + water; phases: Liquid, Crystal
Fixed: Temperature, K = 298.15
Fixed: Pressure, kPa = 101.3
Property: Mass concentration, kg/m3 (Liquid); method: Chromatography
Mass concentration, kg/m3	uncertainty
1.57e-05	1.2e-06
1.24e-05	2.6e-06

System: water + 1,2,3,4,7,8-hexachlorodibenzofuran; phases: Liquid, Crystal
Property: Mass concentration, kg/m3 (Liquid); method: Chromatography
Temperature, K	Pressure, kPa	Mass concentration, kg/m3	uncertainty
298.15	101.3	2.98e-09	9.3e-10

System: water + perchlorodibenzofuran; phases: Liquid, Crystal
Property: Mass concentration, kg/m3 (Liquid); method: Chromatography
Temperature, K	Pressure, kPa	Mass concentration, kg/m3	uncertainty
298.15	101.3	4.09e-10	1.46e-10

System: dibenzo[b,e][1,4]dioxin + potassium chloride + water; phases: Liquid, Crystal
Property: Mass concentration, kg/m3 of dibenzo[b,e][1,4]dioxin (Liquid); method: Chromatography
Solvent: Amount concentration (molarity), mol/dm3 of potassium chloride	Temperature, K	Pressure, kPa	Mass concentration, kg/m3 of dibenzo[b,e][1,4]dioxin	uncertainty
0	298.15	101.3	0.0014	0.00038

System: dibenzo[b,e][1,4]dioxin + sodium chloride + water; phases: Liquid, Crystal
Fixed: Temperature, K = 298.15
Fixed: Pressure, kPa = 101.3
Property: Mass concentration, kg/m3 of dibenzo[b,e][1,4]dioxin (Liquid); method: Chromatography
Solvent: Amount concentration (molarity), mol/dm3 of sodium chloride	Mass concentration, kg/m3 of dibenzo[b,e][1,4]dioxin	uncertainty
0.15	0.001237	0.000134
0.32	0.001046	5.4e-05
0.48	0.000938	9.2e-05
0.66	0.000759	2.6e-05

System: potassium chloride + water + 2-chloro-dibenzo[b,e][1,4]dioxin; phases: Liquid, Crystal
Fixed: Temperature, K = 298.15
Fixed: Pressure, kPa = 101.3
Property: Mass concentration, kg/m3 of 2-chloro-dibenzo[b,e][1,4]dioxin (Liquid); method: Chromatography
Solvent: Amount concentration (molarity), mol/dm3 of potassium chloride	Mass concentration, kg/m3 of 2-chloro-dibenzo[b,e][1,4]dioxin	uncertainty
0	0.00042	4e-05
0.16	0.00036	8.6e-05
0.32	0.000319	3.4e-05
0.49	0.000286	4e-05
0.66	0.000269	3.6e-05
0.75	0.00024	1e-05

System: sodium chloride + water + 2-chloro-dibenzo[b,e][1,4]dioxin; phases: Liquid, Crystal
Fixed: Temperature, K = 298.15
Fixed: Pressure, kPa = 101.3
Property: Mass concentration, kg/m3 of 2-chloro-dibenzo[b,e][1,4]dioxin (Liquid); method: Chromatography
Solvent: Amount concentration (molarity), mol/dm3 of sodium chloride	Mass concentration, kg/m3 of 2-chloro-dibenzo[b,e][1,4]dioxin	uncertainty
0.15	0.000349	4e-05
0.32	0.00031	9.2e-05
0.48	0.000251	3e-05
0.66	0.000219	7.6e-05

System: water + calcium chloride + 2-chloro-dibenzo[b,e][1,4]dioxin; phases: Liquid, Crystal
Fixed: Temperature, K = 298.15
Fixed: Pressure, kPa = 101.3
Property: Mass concentration, kg/m3 of 2-chloro-dibenzo[b,e][1,4]dioxin (Liquid); method: Chromatography
Solvent: Amount concentration (molarity), mol/dm3 of calcium chloride	Mass concentration, kg/m3 of 2-chloro-dibenzo[b,e][1,4]dioxin	uncertainty
0.02	0.000392	9.2e-05
0.16	0.000326	0.000156
0.31	0.00026	6.4e-05
0.49	0.000196	7.2e-05
0.68	0.000165	9e-05

System: potassium chloride + water + 2,7-dichlorodibenzo-1,4-dioxin; phases: Liquid, Crystal
Fixed: Temperature, K = 298.15
Fixed: Pressure, kPa = 101.3
Property: Mass concentration, kg/m3 of 2,7-dichlorodibenzo-1,4-dioxin (Liquid); method: Chromatography
Solvent: Amount concentration (molarity), mol/dm3 of potassium chloride	Mass concentration, kg/m3 of 2,7-dichlorodibenzo-1,4-dioxin	uncertainty
0	4.09e-06	1e-07
0.16	3.63e-06	5.4e-07
0.32	3.04e-06	1.08e-06
0.49	2.39e-06	7.8e-07
0.66	1.89e-06	4.4e-07
0.75	1.77e-06	6e-07

System: sodium chloride + water + 2,7-dichlorodibenzo-1,4-dioxin; phases: Liquid, Crystal
Fixed: Temperature, K = 298.15
Fixed: Pressure, kPa = 101.3
Property: Mass concentration, kg/m3 of 2,7-dichlorodibenzo-1,4-dioxin (Liquid); method: Chromatography
Solvent: Amount concentration (molarity), mol/dm3 of sodium chloride	Mass concentration, kg/m3 of 2,7-dichlorodibenzo-1,4-dioxin	uncertainty
0.15	3.65e-06	1.44e-06
0.32	2.91e-06	1.96e-06
0.48	2.35e-06	1.5e-06
0.66	1.9e-06	7e-07
0.77	1.67e-06	8.4e-07

System: water + calcium chloride + 2,7-dichlorodibenzo-1,4-dioxin; phases: Liquid, Crystal
Fixed: Temperature, K = 298.15
Fixed: Pressure, kPa = 101.3
Property: Mass concentration, kg/m3 of 2,7-dichlorodibenzo-1,4-dioxin (Liquid); method: Chromatography
Solvent: Amount concentration (molarity), mol/dm3 of calcium chloride	Mass concentration, kg/m3 of 2,7-dichlorodibenzo-1,4-dioxin	uncertainty
0.16	3.2e-06	1.6e-06
0.31	2.59e-06	7.8e-07
0.49	2.02e-06	8.6e-07
0.68	1.29e-06	6e-08
0.81	1.03e-06	5.6e-07

System: dibenzo[bd]furan + potassium chloride + water; phases: Liquid, Crystal
Fixed: Temperature, K = 298.15
Fixed: Pressure, kPa = 101.3
Property: Mass concentration, kg/m3 of dibenzo[bd]furan (Liquid); method: Chromatography
Solvent: Amount concentration (molarity), mol/dm3 of potassium chloride	Mass concentration, kg/m3 of dibenzo[bd]furan	uncertainty
0	0.00436	0.00038
0.16	0.00383	0.0003
0.32	0.00354	0.00048
0.48	0.00329	0.0009
0.65	0.00294	0.00068

System: dibenzo[bd]furan + sodium chloride + water; phases: Liquid, Crystal
Fixed: Temperature, K = 298.15
Fixed: Pressure, kPa = 101.3
Property: Mass concentration, kg/m3 of dibenzo[bd]furan (Liquid); method: Chromatography
Solvent: Amount concentration (molarity), mol/dm3 of sodium chloride	Mass concentration, kg/m3 of dibenzo[bd]furan	uncertainty
0.17	0.00363	0.00062
0.32	0.00336	0.0008
0.48	0.00314	0.00066
0.67	0.00275	0.0006

System: dibenzo[bd]furan + water + calcium chloride; phases: Liquid, Crystal
Fixed: Temperature, K = 298.15
Fixed: Pressure, kPa = 101.3
Property: Mass concentration, kg/m3 of dibenzo[bd]furan (Liquid); method: Chromatography
Solvent: Amount concentration (molarity), mol/dm3 of calcium chloride	Mass concentration, kg/m3 of dibenzo[bd]furan	uncertainty
0.16	0.00355	0.0014
0.25	0.00333	0.00068
0.5	0.00261	0.00042
0.7	0.00222	0.00064

System: 2,8-dichlorodibenzofuran + potassium chloride + water; phases: Liquid, Crystal
Fixed: Temperature, K = 298.15
Fixed: Pressure, kPa = 101.3
Property: Mass concentration, kg/m3 of 2,8-dichlorodibenzofuran (Liquid); method: Chromatography
Solvent: Amount concentration (molarity), mol/dm3 of potassium chloride	Mass concentration, kg/m3 of 2,8-dichlorodibenzofuran	uncertainty
0	1.24e-05	2.6e-06
0.16	1.05e-05	1.1e-06
0.32	9.04e-06	9e-07
0.48	8.25e-06	1.26e-06
0.65	7.21e-06	2.06e-06
0.76	6.21e-06	1.04e-06

System: 2,8-dichlorodibenzofuran + sodium chloride + water; phases: Liquid, Crystal
Fixed: Temperature, K = 298.15
Fixed: Pressure, kPa = 101.3
Property: Mass concentration, kg/m3 of 2,8-dichlorodibenzofuran (Liquid); method: Chromatography
Solvent: Amount concentration (molarity), mol/dm3 of sodium chloride	Mass concentration, kg/m3 of 2,8-dichlorodibenzofuran	uncertainty
0.17	1.06e-05	1e-06
0.32	8.52e-06	2.5e-06
0.48	7.54e-06	2.62e-06
0.67	7.05e-06	1.8e-06
0.76	6.06e-06	1.84e-06

System: 2,8-dichlorodibenzofuran + water + calcium chloride; phases: Liquid, Crystal
Fixed: Temperature, K = 298.15
Fixed: Pressure, kPa = 101.3
Property: Mass concentration, kg/m3 of 2,8-dichlorodibenzofuran (Liquid); method: Chromatography
Solvent: Amount concentration (molarity), mol/dm3 of calcium chloride	Mass concentration, kg/m3 of 2,8-dichlorodibenzofuran	uncertainty
0.16	1.01e-05	2.6e-06
0.25	9.3e-06	4.2e-06
0.5	7e-06	3.52e-06
0.7	5.62e-06	3.64e-06
