Measured thermophysical data. Isothermal VLE and VE at 303.15 K for the Binary and Ternary Mixtures of Di-isopropyl Ether (DIPE) + 1-Propanol + 2,2,4-Trimethylpentane
Source: J. Chem. Eng. Data, 2007, 10.1021/je700460w
Compound 1: diisopropyl ether, C6H14O, InChI=1S/C6H14O/c1-5(2)7-6(3)4/h5-6H,1-4H3
Compound 2: propan-1-ol, C3H8O, InChI=1S/C3H8O/c1-2-3-4/h4H,2-3H2,1H3
Compound 3: 2,2,4-trimethylpentane, C8H18, InChI=1S/C8H18/c1-7(2)6-8(3,4)5/h7H,6H2,1-5H3

System: diisopropyl ether; phases: Liquid
Property: Mass density, kg/m3 (Liquid); method: VIBTUB:UFactor:4
Pressure, kPa	Temperature, K	Mass density, kg/m3	uncertainty
101	303.15	713.51	0.76

System: propan-1-ol; phases: Liquid
Property: Mass density, kg/m3 (Liquid); method: VIBTUB:UFactor:4
Pressure, kPa	Temperature, K	Mass density, kg/m3	uncertainty
101	303.15	796.55	0.6

System: 2,2,4-trimethylpentane; phases: Liquid
Property: Mass density, kg/m3 (Liquid); method: VIBTUB:UFactor:2
Pressure, kPa	Temperature, K	Mass density, kg/m3	uncertainty
101	303.15	683.74	0.43

System: propan-1-ol + diisopropyl ether; phases: Liquid
Fixed: Pressure, kPa = 101
Fixed: Temperature, K = 303.15
Property: Mass density, kg/m3 (Liquid); method: VIBTUB:UFactor:4
Mole fraction of diisopropyl ether	Mass density, kg/m3	uncertainty
0	796.55	0.6
0.0504	790.59	0.61
0.0991	785.96	0.62
0.2001	775.66	0.64
0.2994	766.52	0.66
0.4	757.67	0.68
0.5018	749.3	0.69
0.6006	741.73	0.71
0.6995	734.54	0.72
0.7994	727.46	0.73
0.8981	720.72	0.75
0.9498	717.2	0.75
1	713.51	0.76

System: propan-1-ol + diisopropyl ether; phases: Gas, Liquid
Fixed: Temperature, K = 303.15
Property: Mole fraction of diisopropyl ether (Gas); method: CHROM:UFactor:4
Mole fraction of diisopropyl ether	Mole fraction of diisopropyl ether	uncertainty
0.0199	0.2671	0.01
0.0399	0.409	0.015
0.0601	0.5061	0.0184
0.0799	0.5783	0.0157
0.1192	0.6847	0.0117
0.1694	0.7346	0.0099
0.2294	0.7822	0.0081
0.2891	0.8133	0.0069
0.3495	0.8343	0.0062
0.409	0.8524	0.0055
0.4708	0.8659	0.005
0.5296	0.8774	0.0046
0.5902	0.889	0.0041
0.6505	0.8974	0.0038
0.7101	0.9093	0.0034
0.7685	0.9209	0.0029
0.83	0.9372	0.0023
0.8803	0.9521	0.0018
0.9179	0.9637	0.0014
0.9397	0.9709	0.0011
0.9581	0.9785	0.0008
0.9804	0.9885	0.0005

System: diisopropyl ether + 2,2,4-trimethylpentane; phases: Liquid
Fixed: Pressure, kPa = 101
Fixed: Temperature, K = 303.15
Property: Mass density, kg/m3 (Liquid); method: VIBTUB:UFactor:2
Mole fraction of diisopropyl ether	Mass density, kg/m3	uncertainty
0	683.74	0.43
0.0504	684.87	0.43
0.102	686.03	0.43
0.1985	688.29	0.43
0.301	690.84	0.43
0.3996	693.42	0.43
0.5002	696.27	0.42
0.6002	699.34	0.42
0.7009	702.6	0.42
0.7849	705.55	0.41
0.9013	709.78	0.41
0.9512	711.68	0.41
1	713.51	0.41

System: diisopropyl ether + 2,2,4-trimethylpentane; phases: Gas, Liquid
Fixed: Temperature, K = 303.15
Property: Mole fraction of diisopropyl ether (Gas); method: CHROM:UFactor:4
Mole fraction of diisopropyl ether	Mole fraction of diisopropyl ether	uncertainty
0.0197	0.0692	0.0026
0.041	0.1284	0.0048
0.059	0.1741	0.0065
0.0786	0.2217	0.0083
0.1188	0.304	0.0113
0.1696	0.3974	0.0148
0.2316	0.4944	0.0184
0.2886	0.5611	0.0163
0.3497	0.6255	0.0139
0.4087	0.6747	0.0121
0.4695	0.721	0.0104
0.5289	0.7684	0.0086
0.5883	0.8038	0.0073
0.65	0.8337	0.0062
0.7095	0.8687	0.0049
0.7696	0.8971	0.0038
0.8293	0.9283	0.0027
0.8786	0.9499	0.0019
0.9194	0.9671	0.0012
0.9404	0.9758	0.0009
0.9595	0.9836	0.0006
0.9797	0.9918	0.0004

System: propan-1-ol + 2,2,4-trimethylpentane; phases: Liquid
Fixed: Pressure, kPa = 101
Fixed: Temperature, K = 303.15
Property: Mass density, kg/m3 (Liquid); method: VIBTUB:UFactor:2
Mole fraction of propan-1-ol	Mass density, kg/m3	uncertainty
0	683.74	0.43
0.0484	685.75	0.43
0.0993	688.26	0.43
0.2038	694.24	0.42
0.2983	700.64	0.42
0.4	708.63	0.41
0.5007	717.82	0.41
0.5989	728.33	0.4
0.6995	741.12	0.39
0.7998	756.21	0.38
0.8984	774.29	0.36
0.9502	785.01	0.35
1	796.55	0.34

System: propan-1-ol + diisopropyl ether + 2,2,4-trimethylpentane; phases: Liquid
Fixed: Pressure, kPa = 101
Fixed: Temperature, K = 303.15
Property: Mass density, kg/m3 (Liquid); method: Vibrating tube method
Mole fraction of diisopropyl ether	Mole fraction of propan-1-ol	Mass density, kg/m3	uncertainty
0.0188	0.7999	757.91	0.25
0.0201	0.1791	693.55	0.26
0.029	0.9014	777.87	0.25
0.0293	0.2686	699.77	0.26
0.0302	0.6984	743.49	0.25
0.0313	0.0717	687.69	0.26
0.0405	0.3605	707.36	0.25
0.0418	0.5973	731.14	0.25
0.0495	0.4491	715.67	0.25
0.0595	0.5406	725.68	0.25
0.0692	0.0291	686.63	0.26
0.0696	0.9007	782.43	0.25
0.0912	0.2102	698.09	0.26
0.0915	0.6991	748.41	0.25
0.1003	0.1016	691.55	0.26
0.101	0.798	765.55	0.25
0.1186	0.6009	736.86	0.25
0.1201	0.2827	704.65	0.26
0.1487	0.3511	711.66	0.25
0.149	0.5029	726.93	0.25
0.1491	0.7005	753.5	0.25
0.1532	0.1499	696.18	0.26
0.178	0.423	720.05	0.25
0.1796	0.8	774.41	0.25
0.1806	0.0205	688.95	0.26
0.2	0.1999	701.36	0.26
0.2006	0.5986	742.48	0.25
0.2081	0.0922	694.16	0.26
0.2095	0.7004	758.59	0.25
0.2486	0.502	733.04	0.25
0.2527	0.2469	707.14	0.26
0.269	0.0312	691.97	0.26
0.2707	0.6998	764.05	0.25
0.2789	0.1215	698.47	0.26
0.2812	0.5977	748.19	0.25
0.2984	0.4024	724.28	0.25
0.3006	0.2973	713.8	0.25
0.3488	0.1529	703.37	0.26
0.3488	0.5016	739.19	0.25
0.3609	0.5986	754.54	0.25
0.3611	0.0378	695.07	0.26
0.3996	0.3008	718.91	0.25
0.4013	0.1781	707.44	0.25
0.4017	0.0556	697.68	0.26
0.4198	0.3987	730.69	0.25
0.4497	0.5008	746.25	0.25
0.4961	0.1567	709.31	0.25
0.4973	0.2512	718.43	0.25
0.5009	0.048	700.19	0.26
0.503	0.3487	729.46	0.25
0.5416	0.3995	738.11	0.25
0.6006	0.2005	717.94	0.25
0.6011	0.2798	726.72	0.25
0.6012	0.0382	702.72	0.26
0.6014	0.3578	736.44	0.25
0.6019	0.1176	709.93	0.25
0.6997	0.0908	711.1	0.25
0.6997	0.1496	717.15	0.25
0.7007	0.0307	705.46	0.26
0.7015	0.2074	723.55	0.25
0.7033	0.2677	730.82	0.25
0.7946	0.1029	716.34	0.25
0.7977	0.1837	725.69	0.25
0.8005	0.0194	708.07	0.25
0.8967	0.0327	713.14	0.25
0.8989	0.0725	717.57	0.25

System: propan-1-ol + diisopropyl ether + 2,2,4-trimethylpentane; phases: Gas, Liquid
Fixed: Temperature, K = 303.15
Property: Mole fraction of propan-1-ol (Gas); method: CHROM:UFactor:4
Mole fraction of diisopropyl ether	Mole fraction of propan-1-ol	Mole fraction of propan-1-ol	uncertainty
0.0241	0.7543	0.0407	0.0015
0.0308	0.0563	0.043	0.0016
0.0357	0.6412	0.0564	0.0021
0.038	0.8731	0.089	0.0035
0.0433	0.3038	0.0676	0.0025
0.0463	0.5343	0.0651	0.0024
0.0554	0.3858	0.0533	0.002
0.0685	0.475	0.0927	0.0035
0.0706	0.0229	0.1196	0.0045
0.0886	0.8728	0.3655	0.0136
0.0946	0.1699	0.1136	0.0042
0.1024	0.078	0.1358	0.0051
0.1078	0.6413	0.1555	0.0058
0.1229	0.7533	0.2077	0.0077
0.1287	0.2293	0.1489	0.0055
0.1391	0.535	0.1803	0.0067
0.155	0.1195	0.1898	0.0071
0.1696	0.4342	0.2058	0.0077
0.1788	0.642	0.2525	0.0094
0.1805	0.0176	0.2938	0.0109
0.1987	0.3568	0.2283	0.0085
0.2096	0.1613	0.2426	0.009
0.2139	0.07	0.2733	0.0102
0.2216	0.7536	0.4525	0.0168
0.2326	0.535	0.298	0.0111
0.2511	0.6412	0.4078	0.0152
0.2665	0.2028	0.2976	0.0111
0.2715	0.0229	0.3967	0.0148
0.2839	0.4329	0.3348	0.0125
0.2881	0.0942	0.3424	0.0127
0.3222	0.6424	0.509	0.0183
0.3256	0.5345	0.4581	0.017
0.331	0.3383	0.3691	0.0137
0.362	0.1199	0.4076	0.0152
0.3626	0.0323	0.4773	0.0178
0.3965	0.434	0.4987	0.0185
0.4049	0.048	0.4382	0.0163
0.4174	0.1447	0.8603	0.0052
0.4181	0.5345	0.57	0.016
0.431	0.2464	0.9129	0.0034
0.4632	0.3381	0.4987	0.0186
0.5054	0.038	0.501	0.0186
0.5103	0.433	0.6265	0.0139
0.5188	0.1191	0.4531	0.0169
0.5309	0.2038	0.4581	0.017
0.5443	0.2917	0.7999	0.0075
0.6062	0.0301	0.6088	0.0146
0.6163	0.0959	0.551	0.0167
0.6281	0.1619	0.5485	0.0168
0.643	0.2291	0.5648	0.0162
0.6556	0.3	0.8837	0.0044
0.7044	0.0231	0.6964	0.0113
0.7134	0.0713	0.6398	0.0134
0.7267	0.1178	0.6299	0.0138
0.737	0.1687	0.6413	0.0133
0.7469	0.2205	0.668	0.0124
0.8042	0.0144	0.7813	0.0081
0.8194	0.0788	0.7147	0.0106
0.8364	0.1427	0.7265	0.0102
0.9077	0.0215	0.7315	0.01
0.9154	0.0539	0.7145	0.0106

System: propan-1-ol + diisopropyl ether + 2,2,4-trimethylpentane; phases: Gas, Liquid
Fixed: Temperature, K = 303.15
Property: Mole fraction of diisopropyl ether (Gas); method: CHROM:UFactor:4
Mole fraction of diisopropyl ether	Mole fraction of propan-1-ol	Mole fraction of diisopropyl ether	uncertainty
0.0241	0.7543	0.645	0.0132
0.0308	0.0563	0.3829	0.0142
0.0357	0.6412	0.5782	0.0157
0.038	0.8731	0.7045	0.011
0.0433	0.3038	0.5265	0.0176
0.0463	0.5343	0.5532	0.0166
0.0554	0.3858	0.5022	0.0185
0.0685	0.475	0.5324	0.0174
0.0706	0.0229	0.248	0.0092
0.0886	0.8728	0.5061	0.0184
0.0946	0.1699	0.4431	0.0165
0.1024	0.078	0.3701	0.0138
0.1078	0.6413	0.5609	0.0163
0.1229	0.7533	0.6084	0.0146
0.1287	0.2293	0.4508	0.0168
0.1391	0.535	0.5188	0.0179
0.155	0.1195	0.3818	0.0142
0.1696	0.4342	0.4864	0.0181
0.1788	0.642	0.5432	0.017
0.1805	0.0176	0.1631	0.0061
0.1987	0.3568	0.462	0.0172
0.2096	0.1613	0.3832	0.0143
0.2139	0.07	0.3033	0.0113
0.2216	0.7536	0.5046	0.0184
0.2326	0.535	0.4844	0.018
0.2511	0.6412	0.4585	0.0171
0.2665	0.2028	0.3833	0.0143
0.2715	0.0229	0.157	0.0059
0.2839	0.4329	0.4404	0.0164
0.2881	0.0942	0.3046	0.0113
0.3222	0.6424	0.4449	0.0165
0.3256	0.5345	0.4042	0.015
0.331	0.3383	0.4039	0.015
0.362	0.1199	0.2977	0.0111
0.3626	0.0323	0.1626	0.0061
0.3965	0.434	0.3613	0.0134
0.4049	0.048	0.5165	0.018
0.4174	0.1447	0.0381	0.0015
0.4181	0.5345	0.3813	0.0142
0.431	0.2464	0.0486	0.0019
0.4632	0.3381	0.3613	0.0135
0.5054	0.038	0.2059	0.0077
0.5103	0.433	0.3254	0.0121
0.5188	0.1191	0.2978	0.0111
0.5309	0.2038	0.3416	0.0127
0.5443	0.2917	0.1452	0.0054
0.6062	0.0301	0.1511	0.0056
0.6163	0.0959	0.2473	0.0092
0.6281	0.1619	0.2893	0.0108
0.643	0.2291	0.3266	0.0122
0.6556	0.3	0.0992	0.0037
0.7044	0.0231	0.0984	0.0037
0.7134	0.0713	0.201	0.0075
0.7267	0.1178	0.2485	0.0092
0.737	0.1687	0.28	0.0104
0.7469	0.2205	0.2996	0.0111
0.8042	0.0144	0.0661	0.0025
0.8194	0.0788	0.1981	0.0074
0.8364	0.1427	0.2534	0.0094
0.9077	0.0215	0.1507	0.0056
0.9154	0.0539	0.2309	0.0086
