Measured thermophysical data. Viscosity of Multicomponent Solutions of Simple and Complex Sugars in Water
Source: J. Chem. Eng. Data, 2007, 10.1021/je700062x
Compound 1: D-glucose, C6H12O6, InChI=1S/C6H12O6/c7-1-3(9)5(11)6(12)4(10)2-8/h1,3-6,8-12H,2H2/t3-,4+,5+,6+/m0/s1
Compound 2: (+)-galactose, C6H12O6, InChI=1S/C6H12O6/c7-1-3(9)5(11)6(12)4(10)2-8/h1,3-6,8-12H,2H2/t3-,4+,5+,6-/m0/s1
Compound 3: D-sucrose, C12H22O11, InChI=1S/C12H22O11/c13-1-4-6(16)8(18)9(19)11(21-4)23-12(3-15)10(20)7(17)5(2-14)22-12/h4-11,13-20H,1-3H2/t4-,5-,6-,7-,8+,9-,10+,11-,12+/m1/s1
Compound 4: D-fructose, C6H12O6, InChI=1S/C6H12O6/c7-1-3(9)5(11)6(12)4(10)2-8/h3,5-9,11-12H,1-2H2/t3-,5-,6-/m1/s1
Compound 5: water, H2O, InChI=1S/H2O/h1H2

System: D-fructose + water; phases: Liquid, Crystal
Fixed: Pressure, kPa = 101
Property: Solid-liquid equilibrium temperature, K (Liquid); method: DTA
Mass fraction of D-fructose	Solid-liquid equilibrium temperature, K	uncertainty
0	273.1	1
0.05	272.95	0.4
0.1	272.55	0.4
0.2	270.25	0.5
0.3	268.15	0.6
0.4	265.35	0.9
0.5	262.65	1.1
0.6	261.15	1.3

System: D-fructose + water; phases: Liquid
Fixed: Pressure, kPa = 101
Property: Viscosity, Pa*s (Liquid); method: controlled-strain rheometer (ARES-RFS, TA Instruments)
Mass fraction of D-fructose	Temperature, K	Viscosity, Pa*s	uncertainty
0.05	273.15	0.002345	0.000235
0.05	278.15	0.001999	0.0002
0.05	283.15	0.001681	0.000168
0.05	293.15	0.00126	0.00028
0.1	273.15	0.00289	0.00033
0.1	278.15	0.00244	0.000245
0.1	283.15	0.001991	0.000205
0.1	293.15	0.00143	0.00035
0.2	273.15	0.0042	0.00042
0.2	278.15	0.00339	0.00052
0.2	283.15	0.002859	0.000287
0.2	293.15	0.002092	0.00021
0.3	268.15	0.00797	0.0008
0.3	273.15	0.00639	0.00078
0.3	278.15	0.0055	0.00055
0.3	283.15	0.00445	0.00045
0.3	293.15	0.00307	0.00038
0.4	268.15	0.01851	0.00188
0.4	273.15	0.01402	0.00142
0.4	278.15	0.01084	0.00109
0.4	283.15	0.00807	0.00081
0.4	293.15	0.00567	0.00057
0.5	268.15	0.0548	0.0057
0.5	273.15	0.03506	0.00358
0.5	278.15	0.02527	0.00257
0.5	283.15	0.01944	0.00197
0.5	293.15	0.01433	0.00144
0.6	268.15	0.238	0.0273
0.6	273.15	0.1487	0.0162
0.6	278.15	0.1034	0.0109
0.6	283.15	0.072	0.0075
0.6	293.15	0.03831	0.0039
0.7	263.15	4.27	1.129
0.7	268.15	2.446	0.5
0.7	273.15	1.418	0.234
0.7	278.15	0.843	0.118
0.7	283.15	0.5094	0.0631
0.7	293.15	0.2207	0.0242

System: D-sucrose + water; phases: Liquid, Crystal
Fixed: Pressure, kPa = 101
Property: Solid-liquid equilibrium temperature, K (Liquid); method: DTA
Mass fraction of D-sucrose	Solid-liquid equilibrium temperature, K	uncertainty
0	273.1	1
0.05	272.65	0.4
0.1	272.25	0.4
0.2	271.65	0.4
0.3	270.25	0.5
0.4	268.65	0.6
0.5	263.85	1
0.6	260.15	1.3

System: D-sucrose + water; phases: Liquid
Fixed: Pressure, kPa = 101
Property: Viscosity, Pa*s (Liquid); method: controlled-strain rheometer (ARES-RFS, TA Instruments)
Mass fraction of D-sucrose	Temperature, K	Viscosity, Pa*s	uncertainty
0.05	273.15	0.00245	0.00033
0.05	278.15	0.00191	0.00045
0.05	283.15	0.00172	0.00038
0.05	293.15	0.001246	0.000193
0.1	273.15	0.002978	0.000518
0.1	278.15	0.002472	0.000248
0.1	283.15	0.00202	0.00033
0.1	293.15	0.00148	0.00033
0.2	273.15	0.00442	0.00045
0.2	278.15	0.00348	0.00035
0.2	283.15	0.00301	0.00038
0.2	293.15	0.00238	0.00042
0.3	273.15	0.00719	0.00074
0.3	278.15	0.00599	0.0006
0.3	283.15	0.00506	0.00051
0.3	293.15	0.00346	0.0004
0.4	268.15	0.02548	0.00258
0.4	273.15	0.01981	0.002
0.4	278.15	0.01422	0.00144
0.4	283.15	0.01131	0.00121
0.4	293.15	0.00753	0.00075
0.5	268.15	0.0924	0.0108
0.5	273.15	0.0668	0.0068
0.5	278.15	0.04293	0.00439
0.5	283.15	0.03133	0.00319
0.5	293.15	0.02009	0.00202
0.6	268.15	0.4918	0.0498
0.6	273.15	0.3165	0.0321
0.6	278.15	0.2289	0.0495
0.6	283.15	0.1531	0.0155
0.6	293.15	0.0839	0.0085

System: (+)-galactose + water; phases: Liquid, Crystal
Fixed: Pressure, kPa = 101
Property: Solid-liquid equilibrium temperature, K (Liquid); method: DTA
Mass fraction of (+)-galactose	Solid-liquid equilibrium temperature, K	uncertainty
0	273.1	1
0.05	271.45	0.4
0.1	271.25	0.4
0.2	269.25	0.5
0.3	268.95	0.6
0.4	266.55	0.8

System: (+)-galactose + water; phases: Liquid
Fixed: Pressure, kPa = 101
Property: Viscosity, Pa*s (Liquid); method: controlled-strain rheometer (ARES-RFS, TA Instruments)
Mass fraction of (+)-galactose	Temperature, K	Viscosity, Pa*s	uncertainty
0.05	273.15	0.00242	0.00026
0.05	278.15	0.002077	0.000208
0.05	283.15	0.001699	0.00017
0.05	293.15	0.001397	0.000219
0.1	273.15	0.002779	0.000307
0.1	278.15	0.0024	0.00028
0.1	283.15	0.002107	0.000211
0.1	293.15	0.00152	0.00035
0.15	273.15	0.003325	0.000334
0.15	278.15	0.00277	0.00028
0.15	283.15	0.002469	0.000248
0.15	293.15	0.00177	0.00031
0.2	273.15	0.00427	0.00043
0.2	278.15	0.00337	0.00047
0.2	283.15	0.00276	0.00045
0.2	293.15	0.0021	0.00024
0.3	268.15	0.00895	0.0013
0.3	273.15	0.00693	0.0007
0.3	278.15	0.00534	0.00054
0.3	283.15	0.00457	0.00057
0.3	293.15	0.00327	0.00066
0.4	268.15	0.01884	0.00191
0.4	273.15	0.01456	0.00147
0.4	278.15	0.01117	0.00113
0.4	283.15	0.009	0.00091
0.4	293.15	0.00611	0.00061

System: D-glucose + water; phases: Liquid, Crystal
Fixed: Pressure, kPa = 101
Property: Solid-liquid equilibrium temperature, K (Liquid); method: DTA
Mass fraction of D-glucose	Solid-liquid equilibrium temperature, K	uncertainty
0	273.1	1
0.05	273.05	0.4
0.1	272.95	0.4
0.2	269.65	0.5
0.3	268.95	0.6
0.4	265.15	0.9
0.5	261.15	1.3

System: D-glucose + water; phases: Liquid
Fixed: Pressure, kPa = 101
Property: Viscosity, Pa*s (Liquid); method: controlled-strain rheometer (ARES-RFS, TA Instruments)
Mass fraction of D-glucose	Temperature, K	Viscosity, Pa*s	uncertainty
0.05	273.15	0.00239	0.00059
0.05	278.15	0.00198	0.0004
0.05	283.15	0.00176	0.00035
0.05	293.15	0.00136	0.00033
0.1	273.15	0.002908	0.000307
0.1	278.15	0.00247	0.000408
0.1	283.15	0.00202	0.00033
0.1	293.15	0.00158	0.00042
0.2	273.15	0.0043	0.00057
0.2	278.15	0.00346	0.00045
0.2	283.15	0.00293	0.000294
0.2	293.15	0.00213	0.00026
0.3	273.15	0.00817	0.00082
0.3	278.15	0.00594	0.0006
0.3	283.15	0.00483	0.00048
0.3	293.15	0.00346	0.00035
0.4	273.15	0.01528	0.00154
0.4	278.15	0.01119	0.00191
0.4	283.15	0.00963	0.00097
0.4	293.15	0.00621	0.00062
0.5	268.15	0.0508	0.00525
0.5	273.15	0.03731	0.00382
0.5	278.15	0.02654	0.0027
0.5	283.15	0.02052	0.00208
0.5	293.15	0.01343	0.00135

System: D-fructose + (+)-galactose + water; phases: Liquid, Crystal
Fixed: Pressure, kPa = 101
Property: Solid-liquid equilibrium temperature, K (Liquid); method: DTA
Mass fraction of D-fructose	Mass fraction of (+)-galactose	Solid-liquid equilibrium temperature, K	uncertainty
0.1	0.1	271.85	0.4
0.1	0.2	269.85	0.5
0.2	0.1	269.75	0.5
0.2	0.2	266.15	0.8
0.2	0.3	259.45	1.4
0.3	0.2	261.35	1.2

System: D-fructose + (+)-galactose + water; phases: Liquid
Fixed: Pressure, kPa = 101
Property: Viscosity, Pa*s (Liquid); method: controlled-strain rheometer (ARES-RFS, TA Instruments)
Temperature, K	Mass fraction of D-fructose	Mass fraction of (+)-galactose	Viscosity, Pa*s	uncertainty
268.1	0.2	0.2	0.01911	0.00194
268.1	0.2	0.3	0.04964	0.00513
268.1	0.3	0.2	0.05314	0.0055
268.1	0.3	0.3	0.236	0.027
273.1	0.1	0.1	0.004	0.0004
273.1	0.1	0.2	0.00678	0.00068
273.1	0.2	0.1	0.00668	0.00067
273.1	0.2	0.2	0.01397	0.00141
273.1	0.2	0.3	0.03657	0.00374
273.1	0.3	0.2	0.03522	0.0036
273.1	0.3	0.3	0.1485	0.0161
278.1	0.1	0.1	0.00346	0.00035
278.1	0.1	0.2	0.0057	0.00057
278.1	0.2	0.1	0.00559	0.00056
278.1	0.2	0.2	0.01066	0.00107
278.1	0.2	0.3	0.02717	0.00276
278.1	0.3	0.2	0.02734	0.00278
278.1	0.3	0.3	0.09067	0.00953
283.15	0.1	0.1	0.00293	0.00029
283.15	0.1	0.2	0.00461	0.00046
283.15	0.2	0.1	0.00444	0.00045
283.15	0.2	0.2	0.0087	0.00088
283.15	0.2	0.3	0.02043	0.00207
283.15	0.3	0.2	0.01993	0.00202
283.15	0.3	0.3	0.06591	0.00682
293.15	0.1	0.1	0.00216	0.00022
293.15	0.1	0.2	0.00332	0.00033
293.15	0.2	0.1	0.00318	0.00032
293.15	0.2	0.2	0.00585	0.00059
293.15	0.2	0.3	0.01265	0.00127
293.15	0.3	0.2	0.01223	0.00123
293.15	0.3	0.3	0.03289	0.00386

System: D-glucose + D-fructose + water; phases: Liquid, Crystal
Fixed: Pressure, kPa = 101
Property: Solid-liquid equilibrium temperature, K (Liquid); method: DTA
Mass fraction of D-fructose	Mass fraction of D-glucose	Solid-liquid equilibrium temperature, K	uncertainty
0.1	0.1	271.95	0.4
0.1	0.2	269.95	0.5
0.2	0.1	269.15	0.5
0.2	0.2	265.75	0.8
0.2	0.3	260.15	1.3
0.3	0.2	261.75	1.2

System: D-glucose + D-fructose + water; phases: Liquid
Fixed: Pressure, kPa = 101
Property: Viscosity, Pa*s (Liquid); method: controlled-strain rheometer (ARES-RFS, TA Instruments)
Temperature, K	Mass fraction of D-fructose	Mass fraction of D-glucose	Viscosity, Pa*s	uncertainty
268.1	0.1	0.2	0.00896	0.00102
268.1	0.2	0.1	0.00905	0.00091
268.1	0.2	0.2	0.01847	0.00187
268.1	0.2	0.3	0.0511	0.00528
268.1	0.3	0.2	0.0524	0.00542
268.1	0.3	0.3	0.2004	0.0225
273.1	0.1	0.1	0.00439	0.00044
273.1	0.1	0.2	0.00719	0.00072
273.1	0.2	0.1	0.00723	0.00073
273.1	0.2	0.2	0.01397	0.00141
273.1	0.2	0.3	0.03907	0.004
273.1	0.3	0.2	0.03707	0.00379
273.1	0.3	0.3	0.1366	0.0148
278.1	0.1	0.1	0.00355	0.00036
278.1	0.1	0.2	0.00584	0.00061
278.1	0.2	0.1	0.00558	0.00056
278.1	0.2	0.2	0.01107	0.00112
278.1	0.2	0.3	0.0286	0.00291
278.1	0.3	0.2	0.02643	0.00269
278.1	0.3	0.3	0.0906	0.00952
283.15	0.1	0.1	0.00286	0.00035
283.15	0.1	0.2	0.00472	0.00047
283.15	0.2	0.1	0.00465	0.00052
283.15	0.2	0.2	0.00884	0.00089
283.15	0.2	0.3	0.02169	0.0022
283.15	0.3	0.2	0.02094	0.00212
283.15	0.3	0.3	0.0578	0.00596
293.15	0.1	0.1	0.00217	0.0004
293.15	0.1	0.2	0.00341	0.00034
293.15	0.2	0.1	0.00335	0.00038
293.15	0.2	0.2	0.00607	0.00061
293.15	0.2	0.3	0.01334	0.00154
293.15	0.3	0.2	0.01288	0.0013
293.15	0.3	0.3	0.0313	0.00381

System: D-fructose + D-sucrose + water; phases: Liquid, Crystal
Fixed: Pressure, kPa = 101
Property: Solid-liquid equilibrium temperature, K (Liquid); method: DTA
Mass fraction of D-fructose	Mass fraction of D-sucrose	Solid-liquid equilibrium temperature, K	uncertainty
0.1	0.1	272.85	0.4
0.1	0.2	272.05	0.4
0.2	0.1	270.35	0.5
0.2	0.2	268.65	0.6
0.2	0.3	264.15	1
0.3	0.2	262.95	1.1
0.3	0.3	258.15	1.5

System: D-fructose + D-sucrose + water; phases: Liquid
Fixed: Pressure, kPa = 101
Property: Viscosity, Pa*s (Liquid); method: controlled-strain rheometer (ARES-RFS, TA Instruments)
Temperature, K	Mass fraction of D-fructose	Mass fraction of D-sucrose	Viscosity, Pa*s	uncertainty
268.1	0.2	0.2	0.01962	0.00199
268.1	0.2	0.3	0.06162	0.00641
268.1	0.3	0.2	0.04719	0.00487
268.1	0.3	0.3	0.315	0.0374
273.1	0.1	0.1	0.00416	0.00042
273.1	0.1	0.2	0.00717	0.00072
273.1	0.2	0.1	0.00691	0.00069
273.1	0.2	0.2	0.01495	0.00151
273.1	0.2	0.3	0.04145	0.00425
273.1	0.3	0.2	0.03662	0.00375
273.1	0.3	0.3	0.1947	0.0217
278.1	0.1	0.1	0.00344	0.00035
278.1	0.1	0.2	0.00569	0.00057
278.1	0.2	0.1	0.00539	0.00054
278.1	0.2	0.2	0.01048	0.00106
278.1	0.2	0.3	0.03115	0.00317
278.1	0.3	0.2	0.02774	0.00282
278.1	0.3	0.3	0.1273	0.0136
283.15	0.1	0.1	0.00289	0.00029
283.15	0.1	0.2	0.00477	0.00048
283.15	0.2	0.1	0.00458	0.00046
283.15	0.2	0.2	0.00872	0.00088
283.15	0.2	0.3	0.02296	0.00233
283.15	0.3	0.2	0.02225	0.00225
283.15	0.3	0.3	0.0857	0.00896
293.15	0.1	0.1	0.00221	0.00024
293.15	0.1	0.2	0.00342	0.00034
293.15	0.2	0.1	0.00333	0.00033
293.15	0.2	0.2	0.00613	0.00062
293.15	0.2	0.3	0.01402	0.00141
293.15	0.3	0.2	0.01407	0.00142
293.15	0.3	0.3	0.0479	0.0049

System: D-glucose + (+)-galactose + water; phases: Liquid, Crystal
Fixed: Pressure, kPa = 101
Property: Solid-liquid equilibrium temperature, K (Liquid); method: DTA
Mass fraction of (+)-galactose	Mass fraction of D-glucose	Solid-liquid equilibrium temperature, K	uncertainty
0.1	0.1	271.45	0.4
0.1	0.2	269.95	0.5
0.2	0.1	270.45	0.4
0.2	0.2	266.05	0.8
0.2	0.3	261.15	1.3
0.3	0.2	261.05	1.3
0.3	0.3	254.25	1.9

System: D-glucose + (+)-galactose + water; phases: Liquid
Fixed: Pressure, kPa = 101
Property: Viscosity, Pa*s (Liquid); method: controlled-strain rheometer (ARES-RFS, TA Instruments)
Temperature, K	Mass fraction of (+)-galactose	Mass fraction of D-glucose	Viscosity, Pa*s	uncertainty
268.1	0.2	0.2	0.01801	0.00182
268.1	0.2	0.3	0.05427	0.00562
268.1	0.3	0.2	0.052	0.00538
268.1	0.3	0.3	0.1797	0.02
273.1	0.1	0.1	0.00449	0.00047
273.1	0.1	0.2	0.00699	0.0007
273.1	0.2	0.1	0.00668	0.00067
273.1	0.2	0.2	0.01383	0.0014
273.1	0.2	0.3	0.03739	0.00383
273.1	0.3	0.2	0.03751	0.00384
273.1	0.3	0.3	0.1337	0.0144
278.1	0.1	0.1	0.00353	0.00045
278.1	0.1	0.2	0.00594	0.0006
278.1	0.2	0.1	0.00566	0.00057
278.1	0.2	0.2	0.01061	0.00107
278.1	0.2	0.3	0.02809	0.00286
278.1	0.3	0.2	0.02824	0.00287
278.1	0.3	0.3	0.09815	0.01035
283.15	0.1	0.1	0.00294	0.00029
283.15	0.1	0.2	0.00482	0.00048
283.15	0.2	0.1	0.00473	0.00047
283.15	0.2	0.2	0.00872	0.0009
283.15	0.2	0.3	0.02174	0.0022
283.15	0.3	0.2	0.02175	0.0022
283.15	0.3	0.3	0.07076	0.00734
293.15	0.1	0.1	0.00214	0.00021
293.15	0.1	0.2	0.0034	0.00034
293.15	0.2	0.1	0.00329	0.00033
293.15	0.2	0.2	0.0059	0.00059
293.15	0.2	0.3	0.01359	0.00137
293.15	0.3	0.2	0.0135	0.00136
293.15	0.3	0.3	0.03923	0.004

System: D-sucrose + (+)-galactose + water; phases: Liquid, Crystal
Fixed: Pressure, kPa = 101
Property: Solid-liquid equilibrium temperature, K (Liquid); method: DTA
Mass fraction of (+)-galactose	Mass fraction of D-sucrose	Solid-liquid equilibrium temperature, K	uncertainty
0.1	0.1	272.65	0.4
0.1	0.2	271.35	0.4
0.2	0.1	270.85	0.4
0.2	0.2	267.75	0.6
0.2	0.3	264.05	1
0.3	0.2	263.35	1
0.3	0.3	258.25	1.5

System: D-sucrose + (+)-galactose + water; phases: Liquid
Fixed: Pressure, kPa = 101
Property: Viscosity, Pa*s (Liquid); method: controlled-strain rheometer (ARES-RFS, TA Instruments)
Temperature, K	Mass fraction of (+)-galactose	Mass fraction of D-sucrose	Viscosity, Pa*s	uncertainty
268.1	0.2	0.2	0.02135	0.00217
268.1	0.2	0.3	0.06115	0.00636
268.1	0.3	0.2	0.0597	0.0062
268.1	0.3	0.3	0.3227	0.0385
273.1	0.1	0.1	0.00427	0.00043
273.1	0.1	0.2	0.00745	0.00075
273.1	0.2	0.1	0.00755	0.00076
273.1	0.2	0.2	0.0158	0.0016
273.1	0.2	0.3	0.04174	0.00428
273.1	0.3	0.2	0.04215	0.00433
273.1	0.3	0.3	0.2002	0.0223
278.1	0.1	0.1	0.00354	0.00036
278.1	0.1	0.2	0.00597	0.0006
278.1	0.2	0.1	0.00598	0.0006
278.1	0.2	0.2	0.01201	0.00121
278.1	0.2	0.3	0.03326	0.00339
278.1	0.3	0.2	0.03182	0.00324
278.1	0.3	0.3	0.1289	0.0138
283.15	0.1	0.1	0.00298	0.0003
283.15	0.1	0.2	0.00498	0.0005
283.15	0.2	0.1	0.00484	0.00049
283.15	0.2	0.2	0.00948	0.00109
283.15	0.2	0.3	0.02493	0.00253
283.15	0.3	0.2	0.02447	0.00248
283.15	0.3	0.3	0.0958	0.01006
293.15	0.1	0.1	0.00214	0.00033
293.15	0.1	0.2	0.00358	0.00036
293.15	0.2	0.1	0.0034	0.00034
293.15	0.2	0.2	0.00614	0.00062
293.15	0.2	0.3	0.01568	0.00158
293.15	0.3	0.2	0.01498	0.00151
293.15	0.3	0.3	0.053	0.00543

System: D-glucose + D-sucrose + water; phases: Liquid, Crystal
Fixed: Pressure, kPa = 101
Property: Solid-liquid equilibrium temperature, K (Liquid); method: DTA
Mass fraction of D-glucose	Mass fraction of D-sucrose	Solid-liquid equilibrium temperature, K	uncertainty
0.1	0.1	273.05	0.4
0.1	0.2	270.85	0.4
0.2	0.1	271.15	0.4
0.2	0.2	267.75	0.6
0.2	0.3	264.55	0.9
0.3	0.2	263.95	1
0.3	0.3	257.65	1.6

System: D-glucose + D-sucrose + water; phases: Liquid
Fixed: Pressure, kPa = 101
Property: Viscosity, Pa*s (Liquid); method: controlled-strain rheometer (ARES-RFS, TA Instruments)
Temperature, K	Mass fraction of D-glucose	Mass fraction of D-sucrose	Viscosity, Pa*s	uncertainty
268.1	0.1	0.2	0.00926	0.00093
268.1	0.2	0.1	0.00923	0.00093
268.1	0.2	0.2	0.01958	0.00199
268.1	0.2	0.3	0.0639	0.00666
268.1	0.3	0.2	0.05931	0.00616
268.1	0.3	0.3	0.3324	0.0398
273.1	0.1	0.1	0.00437	0.00054
273.1	0.1	0.2	0.00742	0.00075
273.1	0.2	0.1	0.00747	0.00075
273.1	0.2	0.2	0.01542	0.00156
273.1	0.2	0.3	0.04622	0.00475
273.1	0.3	0.2	0.04333	0.00445
273.1	0.3	0.3	0.1918	0.0213
278.1	0.1	0.1	0.00353	0.00035
278.1	0.1	0.2	0.00589	0.00059
278.1	0.2	0.1	0.00575	0.00058
278.1	0.2	0.2	0.01203	0.00121
278.1	0.2	0.3	0.03315	0.00338
278.1	0.3	0.2	0.03172	0.00323
278.1	0.3	0.3	0.1312	0.0141
283.15	0.1	0.1	0.00298	0.0003
283.15	0.1	0.2	0.00492	0.00049
283.15	0.2	0.1	0.00489	0.00049
283.15	0.2	0.2	0.00942	0.00095
283.15	0.2	0.3	0.02459	0.00249
283.15	0.3	0.2	0.02308	0.00234
283.15	0.3	0.3	0.1002	0.0105
293.15	0.1	0.1	0.00227	0.00023
293.15	0.1	0.2	0.00355	0.00036
293.15	0.2	0.1	0.00347	0.00054
293.15	0.2	0.2	0.00646	0.00065
293.15	0.2	0.3	0.01605	0.00162
293.15	0.3	0.2	0.0145	0.00146
293.15	0.3	0.3	0.05296	0.00543
