Measured thermophysical data. Liquid Liquid Equilibria for the Quaternary Systems of Water + N-Methyl-2-pyrrolidone + 1-Hexanol + NaCl, + KCl, or + KAc
Source: J. Chem. Eng. Data, 2008, 10.1021/je700561p
Compound 1: N-methylpyrrolidone, C5H9NO, InChI=1S/C5H9NO/c1-6-4-2-3-5(6)7/h2-4H2,1H3
Compound 2: hexan-1-ol, C6H14O, InChI=1S/C6H14O/c1-2-3-4-5-6-7/h7H,2-6H2,1H3
Compound 3: water, H2O, InChI=1S/H2O/h1H2

System: hexan-1-ol + water; phases: Liquid mixture 1, Liquid mixture 2
Fixed: Pressure, kPa = 101.325
Property: Mole fraction of water (Liquid mixture 1); method: CHROM:UFactor:8
Temperature, K	Mole fraction of water	uncertainty
283.15	0.2809	0.0174
323.15	0.3268	0.0203

System: hexan-1-ol + water; phases: Liquid mixture 2, Liquid mixture 1
Fixed: Pressure, kPa = 101.325
Property: Mole fraction of water (Liquid mixture 2); method: CHROM:UFactor:6
Temperature, K	Mole fraction of water	uncertainty
283.15	0.999	0.0001
323.15	0.9993	0.0001

System: hexan-1-ol + N-methylpyrrolidone + water; phases: Liquid mixture 2, Liquid mixture 1
Fixed: Pressure, kPa = 101.325
Property: Mole fraction of N-methylpyrrolidone (Liquid mixture 2); method: CHROM:UFactor:6
Property: Mole fraction of N-methylpyrrolidone (Liquid mixture 1); method: CHROM:UFactor:6
Property: Mole fraction of water (Liquid mixture 1); method: CHROM:UFactor:6
Temperature, K	Mole fraction of water	Mole fraction of N-methylpyrrolidone	uncertainty	Mole fraction of N-methylpyrrolidone	uncertainty	Mole fraction of water	uncertainty
283.15	0.999	0	0.0001	0	0.0001	0.2809	
283.15	0.9868	0.0121	0.0007	0.0399	0.0025	0.3358	
283.15	0.9739	0.0246	0.0011	0.0588	0.0037	0.356	
283.15	0.959	0.0389	0.0018	0.0806	0.005	0.3904	
283.15	0.9502	0.0472	0.0022	0.0936	0.0058	0.4113	
283.15	0.9356	0.0609	0.0028	0.1076	0.0067	0.4408	
283.15	0.926	0.0696	0.0032	0.1219	0.0076	0.4676	
283.15	0.9091	0.085	0.004	0.1359	0.0084	0.4966	
323.15	0.9993	0	0.0001	0	0.0001	0.3268	
323.15	0.9947	0.0044	0.0004	0.0378	0.0024	0.3639	
323.15	0.9905	0.0086	0.0005	0.0543	0.0034	0.3878	
323.15	0.9837	0.015	0.0008	0.0738	0.0046	0.4256	
323.15	0.9677	0.0298	0.0014	0.0943	0.0058	0.4636	
323.15	0.9597	0.0369	0.0017	0.108	0.0067	0.5216	
323.15	0.9471	0.0479	0.0022	0.115	0.0071	0.5519	
323.15	0.9385	0.055	0.0026	0.118	0.0073	0.5722	
