Measured thermophysical data. Surface Tension and Refractive Index of Dialkylsulfoxide + Water Mixtures at Several Temperatures
Source: J. Chem. Eng. Data, 2007, 10.1021/je7001013
Compound 1: dimethyl sulfoxide, C2H6OS, InChI=1S/C2H6OS/c1-4(2)3/h1-2H3, purity 99.5%
Compound 2: diethyl sulfoxide, C4H10OS, InChI=1S/C4H10OS/c1-3-6(5)4-2/h3-4H2,1-2H3, purity 99.5%
Compound 3: dipropyl sulfoxide, C6H14OS, InChI=1S/C6H14OS/c1-3-5-8(7)6-4-2/h3-6H2,1-2H3, purity 99.5%
Compound 4: 2,2'-sulfinylbispropane, C6H14OS, InChI=1S/C6H14OS/c1-5(2)8(7)6(3)4/h5-6H,1-4H3, purity 99.5%
Compound 5: water, H2O, InChI=1S/H2O/h1H2

System: dimethyl sulfoxide; phases: Liquid, Air at 1 atmosphere
Property: Surface tension liquid-gas, N/m (Liquid); method: BUBBLEP:UFactor:8
Temperature, K	Surface tension liquid-gas, N/m	uncertainty
298.15	0.0417	0.0022
303.15	0.041	0.0021
308.15	0.0403	0.0021
313.15	0.0397	0.0021
318.15	0.0391	0.0021
323.15	0.0385	0.0021
328.15	0.0379	0.002

System: dimethyl sulfoxide; phases: Liquid
Fixed: Pressure, kPa = 101.325
Property: Refractive index (Na D-line) (Liquid); method: ABBE:UFactor:4
Temperature, K	Refractive index (Na D-line)	uncertainty
298.15	1.4765	0.0016
303.15	1.474	0.0016
308.15	1.472	0.0016

System: diethyl sulfoxide; phases: Liquid, Air at 1 atmosphere
Property: Surface tension liquid-gas, N/m (Liquid); method: BUBBLEP:UFactor:8
Temperature, K	Surface tension liquid-gas, N/m	uncertainty
298.15	0.0346	0.0019
303.15	0.0341	0.0019
308.15	0.0337	0.0019
313.15	0.0332	0.0019
318.15	0.0327	0.0018
323.15	0.0324	0.0018
328.15	0.032	0.0018

System: diethyl sulfoxide; phases: Liquid
Fixed: Pressure, kPa = 101.325
Property: Refractive index (Na D-line) (Liquid); method: ABBE:UFactor:4
Temperature, K	Refractive index (Na D-line)	uncertainty
298.15	1.468	0.0016
303.15	1.466	0.0016
308.15	1.464	0.0016

System: dipropyl sulfoxide; phases: Liquid, Air at 1 atmosphere
Property: Surface tension liquid-gas, N/m (Liquid); method: BUBBLEP:UFactor:8
Temperature, K	Surface tension liquid-gas, N/m	uncertainty
298.15	0.0326	0.0018
303.15	0.032	0.0018
308.15	0.0315	0.0018
313.15	0.031	0.0018
318.15	0.0305	0.0018
323.15	0.0299	0.0017
328.15	0.0294	0.0017

System: dipropyl sulfoxide; phases: Liquid
Fixed: Pressure, kPa = 101.325
Property: Refractive index (Na D-line) (Liquid); method: ABBE:UFactor:4
Temperature, K	Refractive index (Na D-line)	uncertainty
298.15	1.4595	0.0015
303.15	1.458	0.0016
308.15	1.456	0.0016

System: 2,2'-sulfinylbispropane; phases: Liquid, Air at 1 atmosphere
Property: Surface tension liquid-gas, N/m (Liquid); method: BUBBLEP:UFactor:8
Temperature, K	Surface tension liquid-gas, N/m	uncertainty
298.15	0.0318	0.0018
303.15	0.0312	0.0018
308.15	0.0307	0.0018
313.15	0.0303	0.0017
318.15	0.0298	0.0017
323.15	0.0295	0.0017
328.15	0.0291	0.0017

System: 2,2'-sulfinylbispropane; phases: Liquid
Fixed: Pressure, kPa = 101.325
Property: Refractive index (Na D-line) (Liquid); method: ABBE:UFactor:4
Temperature, K	Refractive index (Na D-line)	uncertainty
298.15	1.4645	0.0016
303.15	1.462	0.0016
308.15	1.4595	0.0016

System: dimethyl sulfoxide + water; phases: Liquid, Air at 1 atmosphere
Property: Surface tension liquid-gas, N/m (Liquid); method: Maximal bubble pressure
Temperature, K	Mole fraction of dimethyl sulfoxide	Surface tension liquid-gas, N/m	uncertainty
298.15	0.0121	0.071	0.0005
298.15	0.0202	0.0697	0.0005
298.15	0.1044	0.0612	0.0004
298.15	0.1979	0.0567	0.0004
298.15	0.2507	0.0554	0.0004
298.15	0.2999	0.0533	0.0004
298.15	0.3187	0.0531	0.0004
298.15	0.3536	0.0526	0.0004
298.15	0.3802	0.052	0.0004
298.15	0.4191	0.051	0.0004
298.15	0.4523	0.0503	0.0004
298.15	0.501	0.0483	0.0004
298.15	0.59	0.046	0.0004
298.15	0.7027	0.044	0.0003
298.15	0.8088	0.0426	0.0003
298.15	0.8945	0.042	0.0003
303.15	0.0121	0.0701	0.0005
303.15	0.0202	0.0687	0.0005
303.15	0.1044	0.0606	0.0004
303.15	0.1979	0.0558	0.0004
303.15	0.2507	0.0545	0.0004
303.15	0.2999	0.0524	0.0004
303.15	0.3187	0.0523	0.0004
303.15	0.3536	0.0517	0.0004
303.15	0.3802	0.0512	0.0004
303.15	0.4191	0.05	0.0004
303.15	0.4523	0.0499	0.0004
303.15	0.501	0.0474	0.0004
303.15	0.59	0.0452	0.0004
303.15	0.7027	0.0434	0.0003
303.15	0.8088	0.0421	0.0003
303.15	0.8945	0.0414	0.0003
308.15	0.0121	0.0692	0.0005
308.15	0.0202	0.0679	0.0005
308.15	0.1044	0.0598	0.0004
308.15	0.1979	0.0548	0.0004
308.15	0.2507	0.0532	0.0004
308.15	0.2999	0.0515	0.0004
308.15	0.3187	0.0514	0.0004
308.15	0.3536	0.0506	0.0004
308.15	0.3802	0.0503	0.0004
308.15	0.4191	0.0492	0.0004
308.15	0.4523	0.0491	0.0004
308.15	0.501	0.0467	0.0004
308.15	0.59	0.0446	0.0004
308.15	0.7027	0.0426	0.0003
308.15	0.8088	0.0415	0.0003
308.15	0.8945	0.0409	0.0003
313.15	0.0121	0.0676	0.0005
313.15	0.0202	0.0669	0.0004
313.15	0.1044	0.0587	0.0004
313.15	0.1979	0.0539	0.0004
313.15	0.2507	0.0523	0.0004
313.15	0.2999	0.0506	0.0004
313.15	0.3187	0.0504	0.0004
313.15	0.3536	0.05	0.0004
313.15	0.3802	0.0495	0.0004
313.15	0.4191	0.0484	0.0004
313.15	0.4523	0.0482	0.0004
313.15	0.501	0.046	0.0004
313.15	0.59	0.0438	0.0003
313.15	0.7027	0.0421	0.0003
313.15	0.8088	0.0409	0.0003
313.15	0.8945	0.0403	0.0003
318.15	0.0121	0.0664	0.0004
318.15	0.0202	0.0658	0.0004
318.15	0.1044	0.0579	0.0004
318.15	0.1979	0.053	0.0004
318.15	0.2507	0.0512	0.0004
318.15	0.3218	0.0507	0.0004
318.15	0.3506	0.0497	0.0004
318.15	0.3549	0.0494	0.0004
318.15	0.3802	0.0486	0.0004
318.15	0.4191	0.0475	0.0004
318.15	0.4523	0.0473	0.0004
318.15	0.501	0.0451	0.0004
318.15	0.59	0.0431	0.0003
318.15	0.7027	0.0414	0.0003
318.15	0.8088	0.0404	0.0003
318.15	0.8945	0.0398	0.0003
323.15	0.0121	0.0653	0.0004
323.15	0.0202	0.0648	0.0004
323.15	0.1044	0.057	0.0004
323.15	0.1979	0.0522	0.0004
323.15	0.2507	0.0503	0.0004
323.15	0.3218	0.0499	0.0004
323.15	0.3506	0.0487	0.0004
323.15	0.3549	0.0484	0.0004
323.15	0.3802	0.0477	0.0004
323.15	0.4191	0.0467	0.0004
323.15	0.4523	0.0463	0.0004
323.15	0.501	0.0444	0.0004
323.15	0.59	0.0423	0.0003
323.15	0.7027	0.0408	0.0003
323.15	0.8088	0.0398	0.0003
323.15	0.8945	0.0392	0.0003
328.15	0.0121	0.0651	0.0004
328.15	0.0202	0.0638	0.0004
328.15	0.1044	0.0551	0.0004
328.15	0.1979	0.0511	0.0004
328.15	0.2507	0.0494	0.0004
328.15	0.3218	0.049	0.0004
328.15	0.3506	0.0477	0.0004
328.15	0.3549	0.0474	0.0004
328.15	0.3802	0.0468	0.0004
328.15	0.4191	0.0459	0.0004
328.15	0.4523	0.0453	0.0004
328.15	0.501	0.0435	0.0003
328.15	0.59	0.0417	0.0003
328.15	0.7027	0.0402	0.0003
328.15	0.8088	0.0392	0.0003
328.15	0.8945	0.0387	0.0003

System: dimethyl sulfoxide + water; phases: Liquid
Fixed: Pressure, kPa = 101
Property: Refractive index (Na D-line) (Liquid); method: ABBE:UFactor:4
Temperature, K	Mole fraction of dimethyl sulfoxide	Refractive index (Na D-line)	uncertainty
298.15	0.0121	1.34	0.0015
298.15	0.0202	1.344	0.0015
298.15	0.1467	1.396	0.0025
298.15	0.2455	1.4215	0.0015
298.15	0.2959	1.4305	0.0015
298.15	0.3213	1.4345	0.0015
298.15	0.3713	1.4415	0.0015
298.15	0.3967	1.4445	0.0015
298.15	0.4301	1.4475	0.0016
298.15	0.5964	1.461	0.0015
298.15	0.7685	1.47	0.0016
303.15	0.0121	1.339	0.0015
303.15	0.0202	1.3435	0.0015
303.15	0.1467	1.4005	0.0016
303.15	0.2455	1.42	0.0015
303.15	0.2959	1.4295	0.0015
303.15	0.3213	1.4335	0.0015
303.15	0.3713	1.4405	0.0015
303.15	0.3967	1.443	0.0015
303.15	0.4301	1.4455	0.0015
303.15	0.5964	1.459	0.0015
303.15	0.7685	1.468	0.0016
308.15	0.0121	1.3395	0.0015
308.15	0.0202	1.343	0.0015
308.15	0.1467	1.4	0.0025
308.15	0.2455	1.419	0.0015
308.15	0.2959	1.428	0.0016
308.15	0.3213	1.432	0.0015
308.15	0.3713	1.4395	0.0015
308.15	0.3967	1.442	0.0015
308.15	0.4301	1.4445	0.0015
308.15	0.5964	1.458	0.0016
308.15	0.7685	1.466	0.0016

System: diethyl sulfoxide + water; phases: Liquid, Air at 1 atmosphere
Property: Surface tension liquid-gas, N/m (Liquid); method: BUBBLEP:UFactor:8
Temperature, K	Mole fraction of diethyl sulfoxide	Surface tension liquid-gas, N/m	uncertainty
298.15	0.0099	0.0655	0.0031
298.15	0.0207	0.0625	0.0029
298.15	0.0513	0.0554	0.0027
298.15	0.1001	0.0509	0.0025
298.15	0.1999	0.046	0.0023
298.15	0.2999	0.0428	0.0022
298.15	0.4908	0.0404	0.0021
298.15	0.7123	0.0376	0.002
303.15	0.0099	0.0648	0.003
303.15	0.0207	0.0615	0.0029
303.15	0.0513	0.0549	0.0027
303.15	0.1001	0.0502	0.0025
303.15	0.1999	0.0452	0.0023
303.15	0.2999	0.042	0.0022
303.15	0.4908	0.0398	0.0021
303.15	0.7123	0.0371	0.002
308.15	0.0099	0.0641	0.003
308.15	0.0207	0.0604	0.0029
308.15	0.0513	0.054	0.0026
308.15	0.1001	0.0495	0.0025
308.15	0.1999	0.0442	0.0023
308.15	0.2999	0.0419	0.0022
308.15	0.4908	0.0393	0.0021
308.15	0.7123	0.037	0.002
313.15	0.0099	0.0628	0.003
313.15	0.0207	0.0593	0.0028
313.15	0.0513	0.0531	0.0026
313.15	0.1001	0.0484	0.0024
313.15	0.1999	0.0471	0.0024
313.15	0.2999	0.0443	0.0023
313.15	0.4908	0.0386	0.0021
313.15	0.7123	0.0365	0.002
318.15	0.0099	0.0618	0.0029
318.15	0.0207	0.0584	0.0028
318.15	0.0513	0.0524	0.0026
318.15	0.1001	0.0477	0.0024
318.15	0.1999	0.0461	0.0023
318.15	0.2999	0.0432	0.0022
318.15	0.4908	0.038	0.002
318.15	0.7123	0.0357	0.002
323.15	0.0099	0.0608	0.0029
323.15	0.0207	0.0568	0.0027
323.15	0.0513	0.0505	0.0025
323.15	0.1001	0.0465	0.0024
323.15	0.1999	0.0453	0.0023
323.15	0.2999	0.0416	0.0022
323.15	0.4908	0.0373	0.002
323.15	0.7123	0.035	0.0019
328.15	0.0099	0.0599	0.0029
328.15	0.0207	0.0564	0.0027
328.15	0.0513	0.0497	0.0025
328.15	0.1001	0.0457	0.0023
328.15	0.1999	0.0434	0.0022
328.15	0.2999	0.0407	0.0021
328.15	0.4908	0.0366	0.002
328.15	0.7123	0.0344	0.0019

System: diethyl sulfoxide + water; phases: Liquid
Fixed: Pressure, kPa = 101
Property: Refractive index (Na D-line) (Liquid); method: ABBE:UFactor:4
Temperature, K	Mole fraction of diethyl sulfoxide	Refractive index (Na D-line)	uncertainty
298.15	0.0099	1.3415	0.0024
298.15	0.0513	1.3735	0.0016
298.15	0.1001	1.399	0.0046
298.15	0.1999	1.43	0.0016
298.15	0.2999	1.446	0.0015
298.15	0.4091	1.457	0.0016
298.15	0.5189	1.458	0.0016
298.15	0.5803	1.4605	0.0016
298.15	0.7123	1.4645	0.0015
298.15	0.7741	1.466	0.0016
303.15	0.0099	1.332	0.0018
303.15	0.0513	1.3675	0.0016
303.15	0.1001	1.373	0.02
303.15	0.1999	1.428	0.0016
303.15	0.2999	1.4445	0.0015
303.15	0.4091	1.4555	0.0016
303.15	0.5189	1.457	0.0015
303.15	0.5803	1.4585	0.0016
303.15	0.7123	1.463	0.0015
303.15	0.7741	1.464	0.0016
308.15	0.0099	1.3315	0.0015
308.15	0.0513	1.3685	0.0027
308.15	0.1001	1.372	0.02
308.15	0.1999	1.4265	0.0032
308.15	0.2999	1.443	0.0017
308.15	0.4091	1.453	0.0018
308.15	0.5189	1.455	0.0016
308.15	0.5803	1.4565	0.0015
308.15	0.7123	1.4615	0.0016
308.15	0.7741	1.462	0.0016

System: dipropyl sulfoxide + water; phases: Liquid, Air at 1 atmosphere
Property: Surface tension liquid-gas, N/m (Liquid); method: BUBBLEP:UFactor:8
Temperature, K	Mole fraction of dipropyl sulfoxide	Surface tension liquid-gas, N/m	uncertainty
298.15	0.0105	0.0523	0.0026
298.15	0.0199	0.0474	0.0024
298.15	0.0469	0.0422	0.0022
298.15	0.0998	0.0396	0.0021
298.15	0.2019	0.0375	0.002
298.15	0.2809	0.0372	0.002
298.15	0.3975	0.0358	0.002
298.15	0.5001	0.0354	0.0019
298.15	0.6818	0.0343	0.0019
303.15	0.0105	0.0511	0.0025
303.15	0.0199	0.0464	0.0023
303.15	0.0469	0.0415	0.0022
303.15	0.0998	0.0389	0.0021
303.15	0.2019	0.037	0.002
303.15	0.2809	0.0365	0.002
303.15	0.3975	0.0352	0.0019
303.15	0.5001	0.0349	0.0019
303.15	0.6818	0.0342	0.0019
308.15	0.0105	0.0499	0.0025
308.15	0.0199	0.0453	0.0023
308.15	0.0469	0.0407	0.0021
308.15	0.0998	0.0381	0.002
308.15	0.2019	0.0365	0.002
308.15	0.2809	0.036	0.002
308.15	0.3975	0.0345	0.0019
308.15	0.5001	0.0343	0.0019
308.15	0.6818	0.0335	0.0019
313.15	0.0105	0.0488	0.0024
313.15	0.0199	0.0444	0.0023
313.15	0.0469	0.04	0.0021
313.15	0.0998	0.0373	0.002
313.15	0.2019	0.0359	0.002
313.15	0.2809	0.035	0.0019
313.15	0.3975	0.0341	0.0019
313.15	0.5001	0.0338	0.0019
313.15	0.6818	0.0329	0.0018
318.15	0.0105	0.0476	0.0024
318.15	0.0199	0.0443	0.0023
318.15	0.0469	0.0393	0.0021
318.15	0.0998	0.0366	0.002
318.15	0.2019	0.035	0.0019
318.15	0.2809	0.0344	0.0019
318.15	0.3975	0.0334	0.0019
318.15	0.5001	0.0333	0.0019
318.15	0.6818	0.0322	0.0018
323.15	0.0105	0.0466	0.0024
323.15	0.0199	0.0432	0.0022
323.15	0.0469	0.0385	0.0021
323.15	0.0998	0.0357	0.002
323.15	0.2019	0.0344	0.0019
323.15	0.2809	0.0338	0.0019
323.15	0.3975	0.0328	0.0018
323.15	0.5001	0.0327	0.0018
323.15	0.6818	0.0316	0.0018
328.15	0.0105	0.0456	0.0023
328.15	0.0199	0.0422	0.0022
328.15	0.0469	0.0378	0.002
328.15	0.0998	0.035	0.0019
328.15	0.2019	0.0337	0.0019
328.15	0.2809	0.0331	0.0019
328.15	0.3975	0.0322	0.0018
328.15	0.5001	0.0321	0.0018
328.15	0.6818	0.0308	0.0018

System: dipropyl sulfoxide + water; phases: Liquid
Fixed: Pressure, kPa = 101
Property: Refractive index (Na D-line) (Liquid); method: ABBE:UFactor:4
Temperature, K	Mole fraction of dipropyl sulfoxide	Refractive index (Na D-line)	uncertainty
298.15	0.0105	1.344	0.0015
298.15	0.01985	1.3516	0.0015
298.15	0.0469	1.374	0.0016
298.15	0.0998	1.4009	0.0016
298.15	0.2019	1.4305	0.0016
298.15	0.2809	1.4395	0.0015
298.15	0.3975	1.446	0.0015
298.15	0.5049	1.4502	0.0015
298.15	0.6818	1.455	0.0015
298.15	0.9002	1.458	0.0016
303.15	0.0105	1.343	0.0015
303.15	0.01985	1.351	0.0015
303.15	0.0469	1.3725	0.0015
303.15	0.0998	1.399	0.0015
303.15	0.2019	1.4285	0.0016
303.15	0.2809	1.4375	0.0016
303.15	0.3975	1.4455	0.0015
303.15	0.5049	1.4495	0.0015
303.15	0.6818	1.454	0.0015
303.15	0.9002	1.4555	0.0016
308.15	0.0105	1.342	0.0015
308.15	0.01985	1.3506	0.0015
308.15	0.0469	1.3711	0.0017
308.15	0.0998	1.398	0.002
308.15	0.2019	1.4245	0.0022
308.15	0.2809	1.435	0.0017
308.15	0.3975	1.4445	0.0016
308.15	0.5049	1.4486	0.0016
308.15	0.6818	1.452	0.0016
308.15	0.9002	1.454	0.0015

System: 2,2'-sulfinylbispropane + water; phases: Liquid, Air at 1 atmosphere
Property: Surface tension liquid-gas, N/m (Liquid); method: BUBBLEP:UFactor:8
Temperature, K	Mole fraction of 2,2'-sulfinylbispropane	Surface tension liquid-gas, N/m	uncertainty
298.15	0.0087	0.0525	0.0026
298.15	0.0197	0.0488	0.0024
298.15	0.4035	0.0359	0.002
298.15	0.6002	0.0339	0.0019
298.15	0.7756	0.0326	0.0018
298.15	0.8899	0.0322	0.0018
303.15	0.0087	0.0524	0.0026
303.15	0.0197	0.0481	0.0024
303.15	0.0505	0.0429	0.0022
303.15	0.4035	0.0346	0.0019
303.15	0.6002	0.0333	0.0019
303.15	0.7756	0.0321	0.0018
303.15	0.8899	0.0317	0.0018
308.15	0.0087	0.0515	0.0025
308.15	0.0197	0.0473	0.0024
308.15	0.0505	0.0418	0.0022
308.15	0.0987	0.0351	0.0019
308.15	0.4035	0.0341	0.0019
308.15	0.6002	0.0327	0.0018
308.15	0.7756	0.0315	0.0018
308.15	0.8899	0.0311	0.0018
313.15	0.0087	0.0506	0.0025
313.15	0.0197	0.0466	0.0024
313.15	0.0505	0.0412	0.0022
313.15	0.0987	0.036	0.002
313.15	0.4035	0.0334	0.0019
313.15	0.6002	0.0321	0.0018
313.15	0.7756	0.0309	0.0018
313.15	0.8899	0.0306	0.0018
318.15	0.0087	0.0498	0.0025
318.15	0.0197	0.0458	0.0023
318.15	0.0505	0.0406	0.0021
318.15	0.0987	0.037	0.002
318.15	0.4035	0.0328	0.0018
318.15	0.6002	0.0315	0.0018
318.15	0.7756	0.0303	0.0017
318.15	0.8899	0.03	0.0017
323.15	0.0087	0.0489	0.0024
323.15	0.0197	0.045	0.0023
323.15	0.0505	0.0399	0.0021
323.15	0.0987	0.0367	0.002
323.15	0.4035	0.0318	0.0018
323.15	0.6002	0.0304	0.0018
323.15	0.7756	0.0298	0.0017
323.15	0.8899	0.0295	0.0017
328.15	0.0087	0.048	0.0024
328.15	0.0197	0.0437	0.0022
328.15	0.0505	0.0397	0.0021
328.15	0.0987	0.0364	0.002
328.15	0.4035	0.031	0.0018
328.15	0.6002	0.0298	0.0017
328.15	0.7756	0.0293	0.0017
328.15	0.8899	0.0289	0.0017

System: 2,2'-sulfinylbispropane + water; phases: Liquid
Fixed: Pressure, kPa = 101
Property: Refractive index (Na D-line) (Liquid); method: ABBE:UFactor:4
Temperature, K	Mole fraction of 2,2'-sulfinylbispropane	Refractive index (Na D-line)	uncertainty
298.15	0.0087	1.3435	0.0015
298.15	0.0197	1.353	0.0015
298.15	0.0505	1.38	0.0016
298.15	0.0987	1.407	0.0015
298.15	0.4035	1.453	0.0021
298.15	0.6002	1.46	0.0015
298.15	0.7756	1.4625	0.0015
298.15	0.8899	1.4635	0.0015
303.15	0.0087	1.343	0.0015
303.15	0.0197	1.352	0.0015
303.15	0.0505	1.3785	0.0015
303.15	0.0987	1.406	0.0015
303.15	0.4035	1.451	0.0016
303.15	0.6002	1.4575	0.0016
303.15	0.7756	1.461	0.0016
303.15	0.8899	1.4625	0.0015
308.15	0.0087	1.342	0.0015
308.15	0.0197	1.3515	0.0015
308.15	0.0505	1.3775	0.0018
308.15	0.0987	1.404	0.0016
308.15	0.4035	1.448	0.0027
308.15	0.6002	1.456	0.0016
308.15	0.7756	1.459	0.0016
308.15	0.8899	1.4605	0.0016
