Measured thermophysical data. Temperature Dependence of the Speed of Sound of Nonane + 1-Chlorononane in the Range of (293.15 to 423.15) K
Source: J. Chem. Eng. Data, 2007, 10.1021/je700021f
Compound 1: nonane, C9H20, InChI=1S/C9H20/c1-3-5-7-9-8-6-4-2/h3-9H2,1-2H3, purity 98%
Compound 2: 1-chlorononane, C9H19Cl, InChI=1S/C9H19Cl/c1-2-3-4-5-6-7-8-9-10/h2-9H2,1H3, purity 98%

System: nonane; phases: Liquid
Fixed: Pressure, kPa = 101
Property: Speed of sound, m/s (Liquid); method: Pulse-echo method
Temperature, K	Speed of sound, m/s	uncertainty
293.15	1227.3	3.2
298.15	1207.2	3.2
303.15	1187.2	3.2
308.15	1167.3	3.1
313.15	1147.5	3.1
318.15	1127.8	3.1
323.15	1108.2	3.1
328.15	1088.7	3
333.15	1069.3	3
338.15	1050	3
343.15	1030.8	2.9
348.15	1011.8	2.9
353.15	992.8	2.9
358.15	973.9	2.9
363.15	955.2	2.8
368.15	936.5	2.8
373.15	917.9	2.8
378.15	899.5	2.8
383.15	881.1	2.7
388.15	862.9	2.7
393.15	844.7	2.7
398.15	826.7	2.7
403.15	808.8	2.6
408.15	790.9	2.6
413.15	773.2	2.6
418.15	755.6	2.6
423.15	738	2.5

System: 1-chlorononane; phases: Liquid
Fixed: Pressure, kPa = 101
Property: Speed of sound, m/s (Liquid); method: Pulse-echo method
Temperature, K	Speed of sound, m/s	uncertainty
293.15	1297.2	3.4
298.15	1278.2	3.3
303.15	1259.5	3.3
308.15	1240.9	3.3
313.15	1222.5	3.2
318.15	1204.3	3.2
323.15	1186.3	3.2
328.15	1168.4	3.1
333.15	1150.7	3.1
338.15	1133.2	3.1
343.15	1115.9	3.1
348.15	1098.8	3
353.15	1081.9	3
358.15	1065.1	3
363.15	1048.5	3
368.15	1032.2	2.9
373.15	1015.9	2.9
378.15	999.1	2.9
383.15	982.7	2.9
388.15	966.4	2.8
393.15	950.3	2.8
398.15	934.3	2.8
403.15	918.4	2.8
408.15	902.6	2.8
413.15	887	2.7
418.15	871.4	2.7
423.15	856	2.7

System: nonane + 1-chlorononane; phases: Liquid
Fixed: Pressure, kPa = 101
Property: Speed of sound, m/s (Liquid); method: Pulse-echo method
Mole fraction of nonane	Temperature, K	Speed of sound, m/s	uncertainty
0	293.15	1297.2	3.4
0	298.15	1278.2	3.3
0	303.15	1259.5	3.3
0	308.15	1240.9	3.3
0	313.15	1222.5	3.2
0	318.15	1204.3	3.2
0	323.15	1186.3	3.2
0	328.15	1168.4	3.1
0	333.15	1150.7	3.1
0	338.15	1133.2	3.1
0	343.15	1115.9	3.1
0	348.15	1098.8	3
0	353.15	1081.9	3
0	358.15	1065.1	3
0	363.15	1048.5	3
0	368.15	1032.2	2.9
0	373.15	1015.9	2.9
0	378.15	999.1	2.9
0	383.15	982.7	2.9
0	388.15	966.4	2.8
0	393.15	950.3	2.8
0	398.15	934.3	2.8
0	403.15	918.4	2.8
0	408.15	902.6	2.8
0	413.15	887	2.7
0	418.15	871.4	2.7
0	423.15	856	2.7
0.1	293.15	1283.1	3.3
0.1	298.15	1264.2	3.3
0.1	303.15	1245.4	3.3
0.1	308.15	1226.7	3.2
0.1	313.15	1208.1	3.2
0.1	318.15	1189.7	3.2
0.1	323.15	1171.4	3.2
0.1	328.15	1153.2	3.1
0.1	333.15	1135.2	3.1
0.1	338.15	1117.2	3.1
0.1	343.15	1099.4	3
0.1	348.15	1081.8	3
0.1	353.15	1064.2	3
0.1	358.15	1046.8	3
0.1	363.15	1029.5	2.9
0.1	368.15	1012.3	2.9
0.1	373.15	995.2	2.9
0.1	378.15	978.3	2.9
0.1	383.15	961.5	2.8
0.1	388.15	944.8	2.8
0.1	393.15	928.3	2.8
0.1	398.15	911.8	2.8
0.1	403.15	895.5	2.7
0.1	408.15	879.3	2.7
0.1	413.15	863.3	2.7
0.1	418.15	847.4	2.7
0.1	423.15	831.5	2.6
0.3	293.15	1268.5	3.3
0.3	298.15	1249	3.3
0.3	303.15	1229.8	3.2
0.3	308.15	1210.6	3.2
0.3	313.15	1191.7	3.2
0.3	318.15	1172.8	3.2
0.3	323.15	1154.1	3.1
0.3	328.15	1135.6	3.1
0.3	333.15	1117.1	3.1
0.3	338.15	1098.9	3
0.3	343.15	1080.7	3
0.3	348.15	1062.7	3
0.3	353.15	1044.9	3
0.3	358.15	1027.2	2.9
0.3	363.15	1009.6	2.9
0.3	368.15	992.2	2.9
0.3	373.15	974.9	2.9
0.3	378.15	957.8	2.8
0.3	383.15	940.8	2.8
0.3	388.15	924	2.8
0.3	393.15	907.3	2.8
0.3	398.15	890.7	2.7
0.3	403.15	874.3	2.7
0.3	408.15	858	2.7
0.3	413.15	841.9	2.7
0.3	418.15	825.9	2.7
0.3	423.15	810	2.6
0.5	293.15	1254.2	3.3
0.5	298.15	1235	3.3
0.5	303.15	1215.9	3.2
0.5	308.15	1197	3.2
0.5	313.15	1178.1	3.2
0.5	318.15	1159.3	3.1
0.5	323.15	1140.6	3.1
0.5	328.15	1122	3.1
0.5	333.15	1103.6	3
0.5	338.15	1085.2	3
0.5	343.15	1066.9	3
0.5	348.15	1048.7	3
0.5	353.15	1030.6	2.9
0.5	358.15	1012.6	2.9
0.5	363.15	994.7	2.9
0.5	368.15	976.9	2.9
0.5	373.15	959.2	2.8
0.5	378.15	941.6	2.8
0.5	383.15	924.1	2.8
0.5	388.15	906.7	2.8
0.5	393.15	889.4	2.7
0.5	398.15	872.1	2.7
0.5	403.15	855	2.7
0.5	408.15	838	2.7
0.5	413.15	821.1	2.6
0.5	418.15	804.3	2.6
0.5	423.15	787.5	2.6
0.7	293.15	1243.5	3.3
0.7	298.15	1223.5	3.2
0.7	303.15	1203.6	3.2
0.7	308.15	1183.9	3.2
0.7	313.15	1164.3	3.1
0.7	318.15	1144.9	3.1
0.7	323.15	1125.6	3.1
0.7	328.15	1106.5	3.1
0.7	333.15	1087.5	3
0.7	338.15	1068.7	3
0.7	343.15	1050	3
0.7	348.15	1031.5	2.9
0.7	353.15	1013.1	2.9
0.7	358.15	994.9	2.9
0.7	363.15	976.8	2.9
0.7	368.15	958.9	2.8
0.7	373.15	941.1	2.8
0.7	378.15	923.5	2.8
0.7	383.15	906	2.8
0.7	388.15	888.7	2.7
0.7	393.15	871.5	2.7
0.7	398.15	854.5	2.7
0.7	403.15	837.6	2.7
0.7	408.15	820.9	2.6
0.7	413.15	804.3	2.6
0.7	418.15	787.8	2.6
0.7	423.15	771.6	2.6
0.8	293.15	1232.8	3.3
0.8	298.15	1212.9	3.2
0.8	303.15	1193	3.2
0.8	308.15	1173.3	3.2
0.8	313.15	1153.7	3.1
0.8	318.15	1134.2	3.1
0.8	323.15	1114.9	3.1
0.8	328.15	1095.6	3
0.8	333.15	1076.5	3
0.8	338.15	1057.5	3
0.8	343.15	1038.6	3
0.8	348.15	1019.8	2.9
0.8	353.15	1001.1	2.9
0.8	358.15	982.6	2.9
0.8	363.15	964.2	2.8
0.8	368.15	945.8	2.8
0.8	373.15	927.7	2.8
0.8	378.15	909.6	2.8
0.8	383.15	891.6	2.7
0.8	388.15	873.8	2.7
0.8	393.15	856.1	2.7
0.8	398.15	838.5	2.7
0.8	403.15	821	2.7
0.8	408.15	803.6	2.6
0.8	413.15	786.3	2.6
0.8	418.15	769.2	2.6
0.8	423.15	752.2	2.6
0.85	293.15	1231.8	3.2
0.85	298.15	1211.9	3.2
0.85	303.15	1192.1	3.2
0.85	308.15	1172.4	3.2
0.85	313.15	1152.8	3.1
0.85	318.15	1133.4	3.1
0.85	323.15	1114	3.1
0.85	328.15	1094.7	3
0.85	333.15	1075.5	3
0.85	338.15	1056.4	3
0.85	343.15	1037.4	3
0.85	348.15	1018.5	2.9
0.85	353.15	999.7	2.9
0.85	358.15	981	2.9
0.85	363.15	962.4	2.8
0.85	368.15	943.9	2.8
0.85	373.15	925.5	2.8
0.85	378.15	907.2	2.8
0.85	383.15	889	2.7
0.85	388.15	870.9	2.7
0.85	393.15	852.9	2.7
0.85	398.15	835	2.7
0.85	403.15	817.2	2.6
0.85	408.15	799.5	2.6
0.85	413.15	781.9	2.6
0.85	418.15	764.4	2.6
0.85	423.15	747	2.6
0.9	293.15	1222.6	3.2
0.9	298.15	1203.3	3.2
0.9	303.15	1184.1	3.2
0.9	308.15	1165	3.1
0.9	313.15	1145.9	3.1
0.9	318.15	1126.9	3.1
0.9	323.15	1107.9	3.1
0.9	328.15	1088.9	3
0.9	333.15	1070	3
0.9	338.15	1051.2	3
0.9	343.15	1032.4	2.9
0.9	348.15	1013.7	2.9
0.9	353.15	995	2.9
0.9	358.15	976.3	2.9
0.9	363.15	957.8	2.8
0.9	368.15	939.2	2.8
0.9	373.15	920.7	2.8
0.9	378.15	902.3	2.8
0.9	383.15	883.9	2.7
0.9	388.15	865.6	2.7
0.9	393.15	847.3	2.7
0.9	398.15	829.1	2.7
0.9	403.15	810.9	2.6
0.9	408.15	792.7	2.6
0.9	413.15	774.6	2.6
0.9	418.15	756.6	2.6
0.9	423.15	738.6	2.5
1	293.15	1227.3	3.2
1	298.15	1207.2	3.2
1	303.15	1187.2	3.2
1	308.15	1167.3	3.1
1	313.15	1147.5	3.1
1	318.15	1127.8	3.1
1	323.15	1108.2	3.1
1	328.15	1088.7	3
1	333.15	1069.3	3
1	338.15	1050	3
1	343.15	1030.8	2.9
1	348.15	1011.8	2.9
1	353.15	992.8	2.9
1	358.15	973.9	2.9
1	363.15	955.2	2.8
1	368.15	936.5	2.8
1	373.15	917.9	2.8
1	378.15	899.5	2.8
1	383.15	881.1	2.7
1	388.15	862.9	2.7
1	393.15	844.7	2.7
1	398.15	826.7	2.7
1	403.15	808.8	2.6
1	408.15	790.9	2.6
1	413.15	773.2	2.6
1	418.15	755.6	2.6
1	423.15	738	2.5
