Measured thermophysical data. Supplementary Densities and Viscosities of Aqueous Solutions of Diethylene Glycol from (283.15 to 353.15) K
Source: J. Chem. Eng. Data, 2008, 10.1021/je700672f
Compound 1: diethylene glycol, C4H10O3, InChI=1S/C4H10O3/c5-1-3-7-4-2-6/h5-6H,1-4H2, purity 99%
Compound 2: water, H2O, InChI=1S/H2O/h1H2, purity 99.95%

System: diethylene glycol; phases: Liquid
Fixed: Pressure, kPa = 101
Property: Viscosity, Pa*s (Liquid); method: CAPTUB::UFactor:2
Temperature, K	Viscosity, Pa*s	uncertainty
293.15	0.036433	0.00035
303.15	0.022091	0.000218
313.15	0.014563	0.000148
323.15	0.010029	0.000106
333.15	0.00722	8e-05
343.15	0.005369	6.3e-05
353.15	0.004139	5e-05

System: diethylene glycol; phases: Liquid
Fixed: Pressure, kPa = 101
Property: Mass density, kg/m3 (Liquid); method: VIBTUB:UFactor:6
Temperature, K	Mass density, kg/m3	uncertainty
283.15	1124.24	0.73
288.15	1120.65	0.72
293.15	1117.05	0.71
298.15	1113.47	0.7
303.15	1109.88	0.69
308.15	1106.29	0.68
313.15	1102.7	0.67
318.15	1099.11	0.66
323.15	1095.51	0.65
328.15	1091.91	0.64
333.15	1088.3	0.63
338.15	1084.68	0.62
343.15	1081.05	0.61
348.15	1077.4	0.6
353.15	1073.74	0.59

System: diethylene glycol + water; phases: Liquid
Fixed: Pressure, kPa = 101
Property: Viscosity, Pa*s (Liquid); method: CAPTUB:UFactor:2
Temperature, K	Mole fraction of diethylene glycol	Viscosity, Pa*s	uncertainty
293.15	0	0.001013	1.4e-05
293.15	0.0255	0.001429	8.8e-05
293.15	0.0565	0.002223	0.000118
293.15	0.1027	0.003639	0.000157
293.15	0.1966	0.007452	0.000196
293.15	0.301	0.012597	0.000229
293.15	0.3989	0.017482	0.000248
293.15	0.5006	0.022222	0.000259
293.15	0.6011	0.026004	0.000274
293.15	0.7003	0.029456	0.000293
293.15	0.8051	0.032256	0.000312
293.15	0.892	0.034041	0.000331
293.15	1	0.036433	0.00035
303.15	0	0.000811	1.2e-05
303.15	0.0255	0.001115	6.3e-05
303.15	0.0565	0.001674	8.1e-05
303.15	0.1027	0.002629	0.000104
303.15	0.1966	0.005148	0.000128
303.15	0.301	0.008358	0.000149
303.15	0.3989	0.011397	0.000158
303.15	0.5006	0.01415	0.000164
303.15	0.6011	0.01634	0.000175
303.15	0.7003	0.018481	0.000187
303.15	0.8051	0.019998	0.000199
303.15	0.892	0.021187	0.000208
303.15	1	0.022091	0.000218
313.15	0	0.000667	1.1e-05
313.15	0.0255	0.000959	4.7e-05
313.15	0.0565	0.001298	5.6e-05
313.15	0.1027	0.001984	7.3e-05
313.15	0.1966	0.003716	8.8e-05
313.15	0.301	0.005847	0.000101
313.15	0.3989	0.007761	0.000107
313.15	0.5006	0.009506	0.000112
313.15	0.6011	0.010927	0.000119
313.15	0.7003	0.012217	0.000127
313.15	0.8051	0.013198	0.000135
313.15	0.892	0.01393	0.000141
313.15	1	0.014563	0.000148
323.15	0	0.000561	1.1e-05
323.15	0.0255	0.000754	3.5e-05
323.15	0.0565	0.001031	4.3e-05
323.15	0.1027	0.001545	5.4e-05
323.15	0.1966	0.002783	6.3e-05
323.15	0.301	0.004231	7.2e-05
323.15	0.3989	0.005509	7.7e-05
323.15	0.5006	0.006694	8.1e-05
323.15	0.6011	0.007635	8.6e-05
323.15	0.7003	0.008477	9.1e-05
323.15	0.8051	0.009115	9.7e-05
323.15	0.892	0.009635	0.000102
323.15	1	0.010029	0.000106
333.15	0	0.000477	1e-05
333.15	0.0255	0.00062	2.9e-05
333.15	0.0565	0.000849	3.4e-05
333.15	0.1027	0.001236	4e-05
333.15	0.1966	0.002147	4.7e-05
333.15	0.301	0.003202	5.3e-05
333.15	0.3989	0.004103	5.7e-05
333.15	0.5006	0.004917	6.2e-05
333.15	0.6011	0.005534	6.6e-05
333.15	0.7003	0.00612	6.9e-05
333.15	0.8051	0.006492	7.3e-05
333.15	0.892	0.006874	7.7e-05
333.15	1	0.00722	8e-05
343.15	0	0.000413	1e-05
343.15	0.0255	0.000527	2.4e-05
343.15	0.0565	0.00071	2.8e-05
343.15	0.1027	0.001011	3.2e-05
343.15	0.1966	0.001703	3.6e-05
343.15	0.301	0.002514	4.1e-05
343.15	0.3989	0.00315	4.3e-05
343.15	0.5006	0.003731	4.7e-05
343.15	0.6011	0.004217	5.1e-05
343.15	0.7003	0.004617	5.4e-05
343.15	0.8051	0.004863	5.8e-05
343.15	0.892	0.005121	6.1e-05
343.15	1	0.005369	6.3e-05
353.15	0	0.000362	9e-06
353.15	0.0255	0.000465	2e-05
353.15	0.0565	0.000606	2.3e-05
353.15	0.1027	0.000848	2.6e-05
353.15	0.1966	0.001392	3e-05
353.15	0.301	0.002043	3.2e-05
353.15	0.3989	0.002502	3.4e-05
353.15	0.5006	0.002942	3.7e-05
353.15	0.6011	0.003283	4e-05
353.15	0.7003	0.003593	4.3e-05
353.15	0.8051	0.003818	4.6e-05
353.15	0.892	0.004024	4.8e-05
353.15	1	0.004139	5e-05

System: diethylene glycol + water; phases: Liquid
Fixed: Pressure, kPa = 101
Property: Mass density, kg/m3 (Liquid); method: VIBTUB:UFactor:6
Temperature, K	Mole fraction of diethylene glycol	Mass density, kg/m3	uncertainty
283.15	0	999.7	0.19
283.15	0.0255	1019.73	2.87
283.15	0.0565	1040.15	2.26
283.15	0.1027	1063.34	1.46
283.15	0.1966	1091.18	0.96
283.15	0.301	1106.34	0.64
283.15	0.3989	1113.62	0.55
283.15	0.5006	1117.88	0.55
283.15	0.6011	1120.39	0.57
283.15	0.7003	1121.98	0.6
283.15	0.8051	1123.07	0.64
283.15	0.892	1123.64	0.68
283.15	1	1124.24	0.73
288.15	0	999.1	0.19
288.15	0.0255	1018.61	2.78
288.15	0.0565	1038.42	2.18
288.15	0.1027	1060.91	1.39
288.15	0.1966	1088.01	0.93
288.15	0.301	1102.88	0.63
288.15	0.3989	1110.06	0.54
288.15	0.5006	1114.29	0.54
288.15	0.6011	1116.8	0.56
288.15	0.7003	1118.39	0.59
288.15	0.8051	1119.47	0.63
288.15	0.892	1120.05	0.67
288.15	1	1120.65	0.72
293.15	0	998.2	0.19
293.15	0.0255	1017.27	2.71
293.15	0.0565	1036.53	2.12
293.15	0.1027	1058.39	1.35
293.15	0.1966	1084.81	0.91
293.15	0.301	1099.4	0.62
293.15	0.3989	1106.48	0.53
293.15	0.5006	1110.68	0.53
293.15	0.6011	1113.19	0.55
293.15	0.7003	1114.79	0.58
293.15	0.8051	1115.87	0.62
293.15	0.892	1116.45	0.66
293.15	1	1117.05	0.71
298.15	0	997.04	0.19
298.15	0.0255	1015.72	2.65
298.15	0.0565	1034.5	2.06
298.15	0.1027	1055.77	1.32
298.15	0.1966	1081.56	0.89
298.15	0.301	1095.89	0.61
298.15	0.3989	1102.89	0.52
298.15	0.5006	1107.07	0.52
298.15	0.6011	1109.59	0.54
298.15	0.7003	1111.19	0.57
298.15	0.8051	1112.27	0.61
298.15	0.892	1112.86	0.65
298.15	1	1113.47	0.7
303.15	0	995.55	0.2
303.15	0.0255	1013.97	2.6
303.15	0.0565	1032.33	2.01
303.15	0.1027	1053.07	1.29
303.15	0.1966	1078.28	0.87
303.15	0.301	1092.36	0.6
303.15	0.3989	1099.29	0.51
303.15	0.5006	1103.45	0.51
303.15	0.6011	1105.97	0.53
303.15	0.7003	1107.58	0.56
303.15	0.8051	1108.67	0.6
303.15	0.892	1109.27	0.64
303.15	1	1109.88	0.69
308.15	0	994.03	0.2
308.15	0.0255	1011.83	2.54
308.15	0.0565	1030.02	1.98
308.15	0.1027	1050.27	1.26
308.15	0.1966	1074.94	0.86
308.15	0.301	1088.8	0.59
308.15	0.3989	1095.67	0.5
308.15	0.5006	1099.82	0.5
308.15	0.6011	1102.36	0.52
308.15	0.7003	1103.97	0.56
308.15	0.8051	1105.06	0.59
308.15	0.892	1105.68	0.63
308.15	1	1106.29	0.68
313.15	0	992.21	0.2
313.15	0.0255	1009.99	2.5
313.15	0.0565	1027.57	1.92
313.15	0.1027	1047.39	1.24
313.15	0.1966	1071.56	0.84
313.15	0.301	1085.22	0.58
313.15	0.3989	1092.03	0.5
313.15	0.5006	1096.18	0.49
313.15	0.6011	1098.73	0.52
313.15	0.7003	1100.35	0.55
313.15	0.8051	1101.45	0.58
313.15	0.892	1102.09	0.62
313.15	1	1102.7	0.67
318.15	0	990.21	0.21
318.15	0.0255	1007.73	2.46
318.15	0.0565	1025.01	1.89
318.15	0.1027	1044.41	1.21
318.15	0.1966	1068.13	0.82
318.15	0.301	1081.61	0.57
318.15	0.3989	1088.37	0.49
318.15	0.5006	1092.53	0.49
318.15	0.6011	1095.08	0.51
318.15	0.7003	1096.71	0.54
318.15	0.8051	1097.83	0.57
318.15	0.892	1098.49	0.61
318.15	1	1099.11	0.66
323.15	0	988.03	0.21
323.15	0.0255	1005.37	2.42
323.15	0.0565	1022.33	1.85
323.15	0.1027	1041.36	1.19
323.15	0.1966	1064.65	0.81
323.15	0.301	1077.97	0.56
323.15	0.3989	1084.69	0.48
323.15	0.5006	1088.85	0.48
323.15	0.6011	1091.42	0.5
323.15	0.7003	1093.07	0.53
323.15	0.8051	1094.21	0.57
323.15	0.892	1094.88	0.6
323.15	1	1095.51	0.65
328.15	0	985.69	0.22
328.15	0.0255	1002.86	2.39
328.15	0.0565	1019.53	1.82
328.15	0.1027	1038.21	1.17
328.15	0.1966	1061.13	0.8
328.15	0.301	1074.29	0.55
328.15	0.3989	1080.98	0.47
328.15	0.5006	1085.16	0.47
328.15	0.6011	1087.74	0.49
328.15	0.7003	1089.41	0.52
328.15	0.8051	1090.57	0.56
328.15	0.892	1091.26	0.59
328.15	1	1091.91	0.64
333.15	0	983.19	0.23
333.15	0.0255	1000.22	2.36
333.15	0.0565	1016.62	1.79
333.15	0.1027	1034.99	1.15
333.15	0.1966	1057.55	0.79
333.15	0.301	1070.58	0.54
333.15	0.3989	1077.25	0.46
333.15	0.5006	1081.43	0.46
333.15	0.6011	1084.04	0.48
333.15	0.7003	1085.74	0.51
333.15	0.8051	1086.93	0.55
333.15	0.892	1087.63	0.58
333.15	1	1088.3	0.63
338.15	0	980.55	0.23
338.15	0.0255	997.46	2.33
338.15	0.0565	1013.61	1.76
338.15	0.1027	1031.68	1.13
338.15	0.1966	1053.92	0.77
338.15	0.301	1066.84	0.54
338.15	0.3989	1073.49	0.46
338.15	0.5006	1077.69	0.45
338.15	0.6011	1080.33	0.47
338.15	0.7003	1082.06	0.5
338.15	0.8051	1083.27	0.54
338.15	0.892	1083.99	0.57
338.15	1	1084.68	0.62
343.15	0	977.76	0.24
343.15	0.0255	994.57	2.31
343.15	0.0565	1010.51	1.73
343.15	0.1027	1028.29	1.11
343.15	0.1966	1050.24	0.76
343.15	0.301	1063.06	0.53
343.15	0.3989	1069.69	0.45
343.15	0.5006	1073.93	0.44
343.15	0.6011	1076.59	0.46
343.15	0.7003	1078.36	0.49
343.15	0.8051	1079.6	0.53
343.15	0.892	1080.34	0.56
343.15	1	1081.05	0.61
348.15	0	974.84	0.25
348.15	0.0255	991.57	2.29
348.15	0.0565	1007.27	1.71
348.15	0.1027	1024.84	1.1
348.15	0.1966	1046.51	0.75
348.15	0.301	1059.24	0.52
348.15	0.3989	1065.88	0.44
348.15	0.5006	1070.14	0.44
348.15	0.6011	1072.84	0.45
348.15	0.7003	1074.63	0.48
348.15	0.8051	1075.91	0.52
348.15	0.892	1076.67	0.55
348.15	1	1077.4	0.6
353.15	0	971.79	0.25
353.15	0.0255	988.5	2.29
353.15	0.0565	1004.07	1.7
353.15	0.1027	1021.3	1.1
353.15	0.1966	1042.72	0.75
353.15	0.301	1055.38	0.51
353.15	0.3989	1062.02	0.43
353.15	0.5006	1066.32	0.43
353.15	0.6011	1069.05	0.45
353.15	0.7003	1070.89	0.47
353.15	0.8051	1072.2	0.51
353.15	0.892	1072.99	0.54
353.15	1	1073.74	0.59
