Measured thermophysical data. Vapor Liquid Equilibrium Behaviors of 5-Methyl-2-(1-methylethyl)phenol in Alcohol
Source: J. Chem. Eng. Data, 2008, 10.1021/je7007582
Compound 1: butan-2-ol, C4H10O, InChI=1S/C4H10O/c1-3-4(2)5/h4-5H,3H2,1-2H3, purity 99.9%
Compound 2: 2-methyl-1-propanol, C4H10O, InChI=1S/C4H10O/c1-4(2)3-5/h4-5H,3H2,1-2H3, purity 99.9%
Compound 3: 3-methyl-6-isopropylphenol, C10H14O, InChI=1S/C10H14O/c1-7(2)9-5-4-8(3)6-10(9)11/h4-7,11H,1-3H3, purity 98%
Compound 4: methanol, CH4O, InChI=1S/CH4O/c1-2/h2H,1H3, purity 99.9%
Compound 5: ethanol, C2H6O, InChI=1S/C2H6O/c1-2-3/h3H,2H2,1H3, purity 99.9%
Compound 6: propan-1-ol, C3H8O, InChI=1S/C3H8O/c1-2-3-4/h4H,2-3H2,1H3, purity 99.9%
Compound 7: propan-2-ol, C3H8O, InChI=1S/C3H8O/c1-3(2)4/h3-4H,1-2H3, purity 99.9%
Compound 8: butan-1-ol, C4H10O, InChI=1S/C4H10O/c1-2-3-4-5/h5H,2-4H2,1H3, purity 99.9%

System: butan-2-ol; phases: Liquid, Gas
Property: Normal boiling temperature, K (Liquid); method: Ebulliometric method (Recirculating still)
Normal boiling temperature, K	uncertainty
372.63	0.05

System: butan-2-ol; phases: Liquid
Property: Mass density, kg/m3 (Liquid); method: Pycnometric method
Temperature, K	Pressure, kPa	Mass density, kg/m3	uncertainty
298.15	101.325	802.3	0.7

System: 2-methyl-1-propanol; phases: Liquid, Gas
Property: Normal boiling temperature, K (Liquid); method: Ebulliometric method (Recirculating still)
Normal boiling temperature, K	uncertainty
380.92	0.05

System: 2-methyl-1-propanol; phases: Liquid
Property: Mass density, kg/m3 (Liquid); method: Pycnometric method
Temperature, K	Pressure, kPa	Mass density, kg/m3	uncertainty
298.15	101.325	797.8	0.7

System: methanol; phases: Liquid, Gas
Property: Normal boiling temperature, K (Liquid); method: Ebulliometric method (Recirculating still)
Normal boiling temperature, K	uncertainty
337.64	0.05

System: methanol; phases: Liquid
Property: Mass density, kg/m3 (Liquid); method: Pycnometric method
Temperature, K	Pressure, kPa	Mass density, kg/m3	uncertainty
298.15	101.325	786.6	0.7

System: ethanol; phases: Liquid, Gas
Property: Normal boiling temperature, K (Liquid); method: Ebulliometric method (Recirculating still)
Normal boiling temperature, K	uncertainty
351.46	0.05

System: ethanol; phases: Liquid
Property: Mass density, kg/m3 (Liquid); method: Pycnometric method
Temperature, K	Pressure, kPa	Mass density, kg/m3	uncertainty
298.15	101.325	785.2	0.7

System: propan-1-ol; phases: Liquid, Gas
Property: Normal boiling temperature, K (Liquid); method: Ebulliometric method (Recirculating still)
Normal boiling temperature, K	uncertainty
370.21	0.05

System: propan-1-ol; phases: Liquid
Property: Mass density, kg/m3 (Liquid); method: Pycnometric method
Temperature, K	Pressure, kPa	Mass density, kg/m3	uncertainty
298.15	101.325	799.6	0.7

System: propan-2-ol; phases: Liquid, Gas
Property: Normal boiling temperature, K (Liquid); method: Ebulliometric method (Recirculating still)
Normal boiling temperature, K	uncertainty
355.4	0.05

System: propan-2-ol; phases: Liquid
Property: Mass density, kg/m3 (Liquid); method: Pycnometric method
Temperature, K	Pressure, kPa	Mass density, kg/m3	uncertainty
298.15	101.325	780.8	0.7

System: butan-1-ol; phases: Liquid, Gas
Property: Normal boiling temperature, K (Liquid); method: Ebulliometric method (Recirculating still)
Normal boiling temperature, K	uncertainty
390.81	0.05

System: butan-1-ol; phases: Liquid
Property: Mass density, kg/m3 (Liquid); method: Pycnometric method
Temperature, K	Pressure, kPa	Mass density, kg/m3	uncertainty
298.15	101.325	805.7	0.7

System: methanol + 3-methyl-6-isopropylphenol; phases: Liquid, Gas
Property: Vapor or sublimation pressure, kPa (Liquid); method: EBULLIO:UFactor:2
Mole fraction of 3-methyl-6-isopropylphenol	Temperature, K	Vapor or sublimation pressure, kPa	uncertainty
0.0118	337.07	98.24	0.84
0.0242	337.5	98.14	0.84
0.0392	337.71	98.29	0.84
0.0491	338.03	98.69	0.84
0.0626	338.44	98.91	0.85

System: methanol + 3-methyl-6-isopropylphenol; phases: Gas, Liquid
Property: Mole fraction of 3-methyl-6-isopropylphenol (Gas); method: UV Spectra
Mole fraction of 3-methyl-6-isopropylphenol	Temperature, K	Mole fraction of 3-methyl-6-isopropylphenol	uncertainty
0.0118	337.07	1.61e-05	1.7e-06
0.0242	337.5	3.13e-05	3.2e-06
0.0392	337.71	5.55e-05	5.6e-06
0.0491	338.03	6.98e-05	7e-06
0.0626	338.44	8.34e-05	8.3e-06

System: ethanol + 3-methyl-6-isopropylphenol; phases: Liquid, Gas
Property: Vapor or sublimation pressure, kPa (Liquid); method: EBULLIO:UFactor:2
Mole fraction of 3-methyl-6-isopropylphenol	Temperature, K	Vapor or sublimation pressure, kPa	uncertainty
0.0054	350.9	99.2	0.85
0.0125	350.76	98.02	0.84
0.0178	351.24	99.26	0.85
0.0247	351.2	98.46	0.84
0.0337	351.77	99.51	0.85

System: ethanol + 3-methyl-6-isopropylphenol; phases: Gas, Liquid
Property: Mole fraction of 3-methyl-6-isopropylphenol (Gas); method: UV Spectra
Mole fraction of 3-methyl-6-isopropylphenol	Temperature, K	Mole fraction of 3-methyl-6-isopropylphenol	uncertainty
0.0054	350.9	1.69e-05	1.7e-06
0.0125	350.76	3.24e-05	3.3e-06
0.0178	351.24	4.49e-05	4.5e-06
0.0247	351.2	6.52e-05	6.5e-06
0.0337	351.77	8.74e-05	8.8e-06

System: propan-1-ol + 3-methyl-6-isopropylphenol; phases: Liquid, Gas
Property: Vapor or sublimation pressure, kPa (Liquid); method: EBULLIO:UFactor:2
Mole fraction of 3-methyl-6-isopropylphenol	Temperature, K	Vapor or sublimation pressure, kPa	uncertainty
0.0058	369.49	98.96	0.85
0.012	369.46	98.17	0.84
0.0259	369.88	98.11	0.84
0.0329	370.49	99.65	0.85
0.0453	370.42	97.98	0.84

System: propan-1-ol + 3-methyl-6-isopropylphenol; phases: Gas, Liquid
Property: Mole fraction of propan-1-ol (Gas); method: UV Spectra
Mole fraction of 3-methyl-6-isopropylphenol	Temperature, K	Mole fraction of propan-1-ol	uncertainty
0.0058	369.49	2.7e-05	2.9e-06
0.012	369.46	5.68e-05	5.8e-06
0.0259	369.88	0.0001147	1.15e-05
0.0329	370.49	0.0001364	1.37e-05
0.0453	370.42	0.0002005	2.01e-05

System: propan-2-ol + 3-methyl-6-isopropylphenol; phases: Liquid, Gas
Property: Vapor or sublimation pressure, kPa (Liquid); method: EBULLIO:UFactor:2
Mole fraction of 3-methyl-6-isopropylphenol	Temperature, K	Vapor or sublimation pressure, kPa	uncertainty
0.0058	354.61	98.28	0.84
0.0125	354.83	98.32	0.84
0.0174	354.97	98.44	0.84
0.0223	355.14	98.48	0.85
0.0293	355.33	98.28	0.85

System: propan-2-ol + 3-methyl-6-isopropylphenol; phases: Gas, Liquid
Property: Mole fraction of 3-methyl-6-isopropylphenol (Gas); method: UV Spectra
Mole fraction of 3-methyl-6-isopropylphenol	Temperature, K	Mole fraction of 3-methyl-6-isopropylphenol	uncertainty
0.0058	354.61	1.34e-05	1.3e-06
0.0125	354.83	3.1e-05	3.1e-06
0.0174	354.97	4.11e-05	4.1e-06
0.0223	355.14	5.23e-05	5.2e-06
0.0293	355.33	7.24e-05	7.2e-06

System: butan-1-ol + 3-methyl-6-isopropylphenol; phases: Liquid, Gas
Property: Vapor or sublimation pressure, kPa (Liquid); method: EBULLIO:UFactor:2
Mole fraction of 3-methyl-6-isopropylphenol	Temperature, K	Vapor or sublimation pressure, kPa	uncertainty
0.0058	389.98	99.11	0.85
0.0114	389.95	98.72	0.84
0.0223	390.52	99.24	0.85
0.0326	390.68	98.6	0.84
0.0438	391.26	99.3	0.85

System: butan-1-ol + 3-methyl-6-isopropylphenol; phases: Gas, Liquid
Property: Mole fraction of butan-1-ol (Gas); method: UV Spectra
Mole fraction of 3-methyl-6-isopropylphenol	Temperature, K	Mole fraction of butan-1-ol	uncertainty
0.0058	389.98	4.79e-05	5.1e-06
0.0114	389.95	9.81e-05	1e-05
0.0223	390.52	0.0001929	1.96e-05
0.0326	390.68	0.00032	3.22e-05
0.0438	391.26	0.0004108	4.11e-05

System: butan-2-ol + 3-methyl-6-isopropylphenol; phases: Liquid, Gas
Property: Vapor or sublimation pressure, kPa (Liquid); method: EBULLIO:UFactor:2
Mole fraction of 3-methyl-6-isopropylphenol	Temperature, K	Vapor or sublimation pressure, kPa	uncertainty
0.0065	371.59	97.52	0.84
0.0114	371.76	97.77	0.84
0.0219	372.07	97.66	0.84
0.032	372.52	97.93	0.84
0.0409	372.92	98.43	0.85

System: butan-2-ol + 3-methyl-6-isopropylphenol; phases: Gas, Liquid
Property: Mole fraction of butan-2-ol (Gas); method: UV Spectra
Mole fraction of 3-methyl-6-isopropylphenol	Temperature, K	Mole fraction of butan-2-ol	uncertainty
0.0065	371.59	2.64e-05	2.7e-06
0.0114	371.76	4.48e-05	4.5e-06
0.0219	372.07	8.64e-05	8.7e-06
0.032	372.52	0.0001303	1.31e-05
0.0409	372.92	0.0001684	1.69e-05

System: 2-methyl-1-propanol + 3-methyl-6-isopropylphenol; phases: Liquid, Gas
Property: Vapor or sublimation pressure, kPa (Liquid); method: EBULLIO:UFactor:2
Mole fraction of 3-methyl-6-isopropylphenol	Temperature, K	Vapor or sublimation pressure, kPa	uncertainty
0.0058	380.16	98.75	0.84
0.0114	380.25	98.33	0.84
0.0171	380.47	97.85	0.84
0.0227	380.35	97.52	0.84
0.0348	380.96	98.42	0.84

System: 2-methyl-1-propanol + 3-methyl-6-isopropylphenol; phases: Gas, Liquid
Property: Mole fraction of 3-methyl-6-isopropylphenol (Gas); method: UV Spectra
Mole fraction of 3-methyl-6-isopropylphenol	Temperature, K	Mole fraction of 3-methyl-6-isopropylphenol	uncertainty
0.0058	380.16	3.89e-05	4.8e-06
0.0114	380.25	8.44e-05	8.6e-06
0.0171	380.47	0.0001173	1.18e-05
0.0227	380.35	0.0001588	1.59e-05
0.0348	380.96	0.0002478	2.48e-05
