Measured thermophysical data. Viscosity of 1-Butyl-3-methylimidazolium Hexafluorophosphate + CO2 Mixture
Source: J. Chem. Eng. Data, 2007, 10.1021/je700022b
Compound 1: carbon dioxide, CO2, InChI=1S/CO2/c2-1-3, purity 99.99%
Compound 2: 1-butyl-3-methylimidazolium hexafluorophosphate, C8H15F6N2P, InChI=1S/C8H15N2.F6P/c1-3-4-5-10-7-6-9(2)8-10;1-7(2,3,4,5)6/h6-8H,3-5H2,1-2H3;/q+1;-1

System: 1-butyl-3-methylimidazolium hexafluorophosphate; phases: Liquid
Property: Viscosity, Pa*s (Liquid); method: Falling or rolling sphere viscometry
Temperature, K	Pressure, kPa	Viscosity, Pa*s	uncertainty
293.15	100	0.395	0.042

System: 1-butyl-3-methylimidazolium hexafluorophosphate; phases: Liquid
Property: Viscosity, Pa*s (Liquid); method: Falling or rolling sphere viscometry
Temperature, K	Pressure, kPa	Viscosity, Pa*s	uncertainty
293.15	15000	0.468	0.043
293.15	20000	0.504	0.047
313.15	15000	0.14	0.01
313.15	20000	0.151	0.011
333.15	15000	0.061	0.0037
333.15	20000	0.0632	0.0039
353.15	15000	0.0293	0.0018
353.15	20000	0.0305	0.0019

System: 1-butyl-3-methylimidazolium hexafluorophosphate; phases: Liquid
Property: Mass density, kg/m3 (Liquid); method: Constant-volume piezometry
Temperature, K	Pressure, kPa	Mass density, kg/m3	uncertainty
293.15	15000	1377	6
293.15	20000	1379	6
313.15	15000	1362	6
313.15	20000	1364	6
333.15	15000	1346	5
333.15	20000	1349	5
353.15	15000	1330	5
353.15	20000	1332	5

System: carbon dioxide + 1-butyl-3-methylimidazolium hexafluorophosphate; phases: Liquid
Property: Viscosity, Pa*s (Liquid); method: SPHERE:UFactor:2
Temperature, K	Mole fraction of carbon dioxide	Pressure, kPa	Viscosity, Pa*s	uncertainty
293.15	0	15000	0.468	0.071
293.15	0	20000	0.504	0.078
293.15	0.056	10000	0.372	0.051
293.15	0.056	15000	0.397	0.056
293.15	0.056	20000	0.424	0.061
293.15	0.123	10000	0.277	0.034
293.15	0.123	15000	0.287	0.035
293.15	0.123	20000	0.31	0.04
293.15	0.229	10000	0.135	0.012
293.15	0.229	15000	0.144	0.013
293.15	0.229	20000	0.15	0.014
293.15	0.332	10000	0.0892	0.0063
293.15	0.332	15000	0.0919	0.0065
293.15	0.332	20000	0.1	0.007
293.15	0.44	10000	0.0439	0.0027
293.15	0.44	15000	0.0459	0.0028
293.15	0.44	20000	0.0468	0.0029
313.15	0	15000	0.14	0.012
313.15	0	20000	0.151	0.014
313.15	0.056	10000	0.119	0.01
313.15	0.056	15000	0.125	0.01
313.15	0.056	20000	0.132	0.011
313.15	0.123	10000	0.0848	0.0059
313.15	0.123	15000	0.0901	0.0064
313.15	0.123	20000	0.0924	0.0067
313.15	0.229	10000	0.0541	0.0033
313.15	0.229	15000	0.0558	0.0034
313.15	0.229	20000	0.0612	0.0038
313.15	0.332	10000	0.0369	0.0023
313.15	0.332	15000	0.0399	0.0025
313.15	0.332	20000	0.0416	0.0026
313.15	0.44	10000	0.0247	0.0015
313.15	0.44	15000	0.0248	0.0015
313.15	0.44	20000	0.0268	0.0017
333.15	0	15000	0.061	0.0038
333.15	0	20000	0.0632	0.004
333.15	0.056	10000	0.0493	0.0031
333.15	0.056	15000	0.0519	0.0032
333.15	0.056	20000	0.0545	0.0033
333.15	0.123	10000	0.0406	0.0025
333.15	0.123	15000	0.0428	0.0027
333.15	0.123	20000	0.0442	0.0028
333.15	0.229	10000	0.0272	0.0017
333.15	0.229	15000	0.0283	0.0018
333.15	0.229	20000	0.0291	0.0018
333.15	0.332	10000	0.0205	0.0013
333.15	0.332	15000	0.0211	0.0013
333.15	0.332	20000	0.0217	0.0013
333.15	0.44	10000	0.0161	0.001
333.15	0.44	15000	0.0165	0.001
333.15	0.44	20000	0.017	0.0011
353.15	0	15000	0.0293	0.0018
353.15	0	20000	0.0305	0.0019
353.15	0.056	10000	0.0252	0.0016
353.15	0.056	15000	0.0264	0.0017
353.15	0.056	20000	0.028	0.0018
353.15	0.123	10000	0.0216	0.0014
353.15	0.123	15000	0.0226	0.0014
353.15	0.123	20000	0.0234	0.0015
353.15	0.229	10000	0.0158	0.001
353.15	0.229	15000	0.0165	0.001
353.15	0.229	20000	0.0169	0.0011
353.15	0.332	10000	0.0123	0.0008
353.15	0.332	15000	0.0127	0.0008
353.15	0.332	20000	0.0128	0.0008
353.15	0.44	10000	0.0107	0.0007
353.15	0.44	15000	0.0108	0.0007
353.15	0.44	20000	0.0109	0.0007

System: carbon dioxide + 1-butyl-3-methylimidazolium hexafluorophosphate; phases: Liquid
Property: Mass density, kg/m3 (Liquid); method: Constant-volume piezometry
Temperature, K	Mole fraction of carbon dioxide	Pressure, kPa	Mass density, kg/m3	uncertainty
293.15	0	15000	1377	6
293.15	0	20000	1379	6
293.15	0.056	10000	1371	6
293.15	0.056	15000	1374	6
293.15	0.056	20000	1377	6
293.15	0.123	10000	1368	6
293.15	0.123	15000	1371	6
293.15	0.123	20000	1375	6
293.15	0.229	10000	1361	5
293.15	0.229	15000	1365	6
293.15	0.229	20000	1368	6
293.15	0.332	10000	1354	5
293.15	0.332	15000	1358	5
293.15	0.332	20000	1362	5
293.15	0.44	10000	1346	5
293.15	0.44	15000	1351	5
293.15	0.44	20000	1355	5
313.15	0	15000	1362	6
313.15	0	20000	1364	6
313.15	0.056	10000	1350	5
313.15	0.056	15000	1356	5
313.15	0.056	20000	1360	6
313.15	0.123	10000	1342	5
313.15	0.123	15000	1351	5
313.15	0.123	20000	1356	5
313.15	0.229	10000	1329	5
313.15	0.229	15000	1344	5
313.15	0.229	20000	1350	5
313.15	0.332	10000	1313	5
313.15	0.332	15000	1337	5
313.15	0.332	20000	1342	5
313.15	0.44	10000	1288	5
313.15	0.44	15000	1323	5
313.15	0.44	20000	1330	5
333.15	0	15000	1346	5
333.15	0	20000	1349	5
333.15	0.056	10000	1327	5
333.15	0.056	15000	1338	5
333.15	0.056	20000	1343	5
333.15	0.123	10000	1313	5
333.15	0.123	15000	1330	5
333.15	0.123	20000	1338	5
333.15	0.229	10000	1293	5
333.15	0.229	15000	1321	5
333.15	0.229	20000	1329	5
333.15	0.332	10000	1268	5
333.15	0.332	15000	1308	5
333.15	0.332	20000	1319	5
333.15	0.44	10000	1223	5
333.15	0.44	15000	1286	5
333.15	0.44	20000	1304	5
353.15	0	15000	1330	5
353.15	0	20000	1332	5
353.15	0.056	10000	1306	5
353.15	0.056	15000	1319	5
353.15	0.056	20000	1325	5
353.15	0.123	10000	1286	5
353.15	0.123	15000	1310	5
353.15	0.123	20000	1319	5
353.15	0.229	10000	1260	5
353.15	0.229	15000	1299	5
353.15	0.229	20000	1310	5
353.15	0.332	10000	1226	5
353.15	0.332	15000	1284	5
353.15	0.332	20000	1298	5
353.15	0.44	10000	1162	5
353.15	0.44	15000	1255	5
353.15	0.44	20000	1278	5
