Measured thermophysical data. Densities, Viscosities, Refractive Indexes, and Surface Tensions for Binary and Ternary Mixtures of Tetrahydofuran, 2-Propanol, and 2,2,4-Trimethylpentane
Source: J. Chem. Eng. Data, 2008, 10.1021/je700626v
Compound 1: tetrahydrofuran, C4H8O, InChI=1S/C4H8O/c1-2-4-5-3-1/h1-4H2, purity 99.5%
Compound 2: propan-2-ol, C3H8O, InChI=1S/C3H8O/c1-3(2)4/h3-4H,1-2H3, purity 99.5%
Compound 3: 2,2,4-trimethylpentane, C8H18, InChI=1S/C8H18/c1-7(2)6-8(3,4)5/h7H,6H2,1-5H3, purity 99.7%

System: tetrahydrofuran; phases: Liquid, Air at 1 atmosphere
Property: Surface tension liquid-gas, N/m (Liquid); method: Ring tensiometer
Temperature, K	Surface tension liquid-gas, N/m	uncertainty
288.15	0.02837	0.00041
298.15	0.02698	0.0004
308.15	0.02595	0.00038

System: tetrahydrofuran; phases: Liquid
Fixed: Pressure, kPa = 101.325
Property: Refractive index (Na D-line) (Liquid); method: Standard Abbe refractometry
Temperature, K	Refractive index (Na D-line)	uncertainty
288.15	1.40875	0.00033
298.15	1.40487	0.00033
308.15	1.39953	0.00033

System: tetrahydrofuran; phases: Liquid
Fixed: Pressure, kPa = 101.3
Property: Viscosity, Pa*s (Liquid); method: Falling or rolling sphere viscometry
Temperature, K	Viscosity, Pa*s	uncertainty
288.15	0.00052	1.3e-05
298.15	0.00047	1.3e-05
308.15	0.000433	1.2e-05

System: tetrahydrofuran; phases: Liquid
Fixed: Pressure, kPa = 100.8
Property: Mass density, kg/m3 (Liquid); method: VIBTUB:UFactor:4
Temperature, K	Mass density, kg/m3	uncertainty
288.15	893.02	0.33
298.15	882.37	0.35
308.15	871.33	0.36

System: propan-2-ol; phases: Liquid, Air at 1 atmosphere
Property: Surface tension liquid-gas, N/m (Liquid); method: Ring tensiometer
Temperature, K	Surface tension liquid-gas, N/m	uncertainty
288.15	0.02175	0.00033
298.15	0.0209	0.00032
308.15	0.02017	0.00032

System: propan-2-ol; phases: Liquid
Fixed: Pressure, kPa = 101.325
Property: Refractive index (Na D-line) (Liquid); method: Standard Abbe refractometry
Temperature, K	Refractive index (Na D-line)	uncertainty
288.15	1.37933	0.00033
298.15	1.37515	0.00033
308.15	1.37061	0.00033

System: propan-2-ol; phases: Liquid
Fixed: Pressure, kPa = 101
Property: Viscosity, Pa*s (Liquid); method: Falling or rolling sphere viscometry
Temperature, K	Viscosity, Pa*s	uncertainty
288.15	0.002849	2.6e-05
298.15	0.002043	2.1e-05
308.15	0.001541	1.7e-05

System: propan-2-ol; phases: Liquid
Fixed: Pressure, kPa = 100.8
Property: Mass density, kg/m3 (Liquid); method: VIBTUB:UFactor:4
Temperature, K	Mass density, kg/m3	uncertainty
288.15	789.53	0.48
298.15	781.16	0.5
308.15	772.52	0.51

System: 2,2,4-trimethylpentane; phases: Liquid, Air at 1 atmosphere
Property: Surface tension liquid-gas, N/m (Liquid); method: Ring tensiometer
Temperature, K	Surface tension liquid-gas, N/m	uncertainty
288.15	0.01918	0.0003
298.15	0.01833	0.00029
308.15	0.01735	0.00028

System: 2,2,4-trimethylpentane; phases: Liquid
Fixed: Pressure, kPa = 101.325
Property: Refractive index (Na D-line) (Liquid); method: Standard Abbe refractometry
Temperature, K	Refractive index (Na D-line)	uncertainty
288.15	1.39408	0.00032
298.15	1.38916	0.00032
308.15	1.38407	0.00032

System: 2,2,4-trimethylpentane; phases: Liquid
Fixed: Pressure, kPa = 101.3
Property: Viscosity, Pa*s (Liquid); method: Falling or rolling sphere viscometry
Temperature, K	Viscosity, Pa*s	uncertainty
288.15	0.000537	1.3e-05
298.15	0.000481	1.3e-05
298.15	0.00048	1.3e-05
308.15	0.000434	1.2e-05

System: 2,2,4-trimethylpentane; phases: Liquid
Fixed: Pressure, kPa = 100.8
Property: Mass density, kg/m3 (Liquid); method: VIBTUB:UFactor:4
Temperature, K	Mass density, kg/m3	uncertainty
288.15	696.1	0.61
298.15	687.95	0.62
308.15	679.62	0.63

System: propan-2-ol + tetrahydrofuran; phases: Liquid, Air at 1 atmosphere
Property: Surface tension liquid-gas, N/m (Liquid); method: Ring tensiometer
Temperature, K	Mole fraction of tetrahydrofuran	Surface tension liquid-gas, N/m	uncertainty
288.15	0	0.02175	0.00033
288.15	0.05	0.02218	0.00034
288.15	0.1	0.02253	0.00034
288.15	0.15	0.02285	0.00035
288.15	0.2001	0.02313	0.00035
288.15	0.25	0.02338	0.00035
288.15	0.3	0.02365	0.00036
288.15	0.35	0.02393	0.00036
288.15	0.4	0.02422	0.00036
288.15	0.45	0.02452	0.00037
288.15	0.5	0.02483	0.00037
288.15	0.55	0.02515	0.00038
288.15	0.6	0.02548	0.00038
288.15	0.65	0.02582	0.00038
288.15	0.7	0.02616	0.00039
288.15	0.75	0.02651	0.00039
288.15	0.8	0.02687	0.0004
288.15	0.85	0.02723	0.0004
288.15	0.9	0.0276	0.0004
288.15	0.95	0.02798	0.00041
288.15	1	0.02837	0.00041
298.15	0	0.0209	0.00032
298.15	0.05	0.02132	0.00033
298.15	0.1	0.02165	0.00033
298.15	0.15	0.02195	0.00034
298.15	0.2001	0.02222	0.00034
298.15	0.25	0.02247	0.00034
298.15	0.3	0.0227	0.00035
298.15	0.35	0.02295	0.00035
298.15	0.4	0.0232	0.00035
298.15	0.45	0.02347	0.00036
298.15	0.5	0.02375	0.00036
298.15	0.55	0.02404	0.00036
298.15	0.6	0.02434	0.00037
298.15	0.65	0.02465	0.00037
298.15	0.7	0.02497	0.00037
298.15	0.75	0.0253	0.00038
298.15	0.8	0.02563	0.00038
298.15	0.85	0.02597	0.00038
298.15	0.9	0.0263	0.00039
298.15	0.95	0.02664	0.00039
298.15	1	0.02698	0.0004
308.15	0	0.02017	0.00032
308.15	0.05	0.0206	0.00032
308.15	0.1	0.02093	0.00033
308.15	0.15	0.02123	0.00033
308.15	0.2001	0.0215	0.00033
308.15	0.25	0.02175	0.00033
308.15	0.3	0.02198	0.00034
308.15	0.35	0.02222	0.00034
308.15	0.4	0.02245	0.00034
308.15	0.45	0.02268	0.00035
308.15	0.5	0.02293	0.00035
308.15	0.55	0.02319	0.00035
308.15	0.6	0.02347	0.00036
308.15	0.65	0.02376	0.00036
308.15	0.7	0.02406	0.00036
308.15	0.75	0.02437	0.00037
308.15	0.8	0.02468	0.00037
308.15	0.85	0.025	0.00037
308.15	0.9	0.02532	0.00038
308.15	0.95	0.02564	0.00038
308.15	1	0.02595	0.00038

System: propan-2-ol + tetrahydrofuran; phases: Liquid
Fixed: Pressure, kPa = 101
Property: Viscosity, Pa*s (Liquid); method: Falling or rolling sphere viscometry
Temperature, K	Mole fraction of tetrahydrofuran	Viscosity, Pa*s	uncertainty
288.15	0	0.002849	2.6e-05
288.15	0.05	0.002238	2.2e-05
288.15	0.1	0.001849	1.9e-05
288.15	0.15	0.00157	1.7e-05
288.15	0.2001	0.001356	1.6e-05
288.15	0.25	0.001196	1.5e-05
288.15	0.3	0.001068	1.5e-05
288.15	0.35	0.000965	1.4e-05
288.15	0.4	0.000883	1.4e-05
288.15	0.45	0.000812	1.4e-05
288.15	0.5	0.000757	1.3e-05
288.15	0.55	0.000713	1.3e-05
288.15	0.6	0.000678	1.3e-05
288.15	0.65	0.000643	1.3e-05
288.15	0.7	0.000613	1.3e-05
288.15	0.75	0.000589	1.3e-05
288.15	0.8	0.000569	1.3e-05
288.15	0.85	0.000554	1.3e-05
288.15	0.9	0.00054	1.3e-05
288.15	0.95	0.00053	1.3e-05
288.15	1	0.00052	1.3e-05
298.15	0	0.002043	2.1e-05
298.15	0.05	0.001706	1.8e-05
298.15	0.1	0.001445	1.7e-05
298.15	0.15	0.001248	1.6e-05
298.15	0.2001	0.001113	1.5e-05
298.15	0.25	0.000988	1.4e-05
298.15	0.3	0.000896	1.4e-05
298.15	0.35	0.000812	1.4e-05
298.15	0.4	0.000752	1.3e-05
298.15	0.45	0.000703	1.3e-05
298.15	0.5	0.000659	1.3e-05
298.15	0.55	0.000623	1.3e-05
298.15	0.6	0.000594	1.3e-05
298.15	0.65	0.000567	1.3e-05
298.15	0.7	0.000545	1.3e-05
298.15	0.75	0.000526	1.3e-05
298.15	0.8	0.000511	1.3e-05
298.15	0.85	0.000497	1.3e-05
298.15	0.9	0.000488	1.3e-05
298.15	0.95	0.00048	1.3e-05
298.15	1	0.00047	1.3e-05
308.15	0	0.001541	1.7e-05
308.15	0.05	0.001313	1.6e-05
308.15	0.1	0.001142	1.5e-05
308.15	0.15	0.001009	1.4e-05
308.15	0.2001	0.000909	1.4e-05
308.15	0.25	0.000824	1.4e-05
308.15	0.3	0.000755	1.3e-05
308.15	0.35	0.000697	1.3e-05
308.15	0.4	0.000646	1.3e-05
308.15	0.45	0.000606	1.3e-05
308.15	0.5	0.000576	1.3e-05
308.15	0.55	0.000549	1.3e-05
308.15	0.6	0.000526	1.3e-05
308.15	0.65	0.000507	1.3e-05
308.15	0.7	0.000489	1.3e-05
308.15	0.75	0.000474	1.3e-05
308.15	0.8	0.000461	1.3e-05
308.15	0.85	0.000452	1.3e-05
308.15	0.9	0.000444	1.2e-05
308.15	0.95	0.00044	1.2e-05
308.15	1	0.000433	1.2e-05

System: propan-2-ol + tetrahydrofuran; phases: Liquid
Fixed: Pressure, kPa = 101
Property: Refractive index (Na D-line) (Liquid); method: Standard Abbe refractometry
Temperature, K	Mole fraction of tetrahydrofuran	Refractive index (Na D-line)	uncertainty
288.15	0	1.37933	0.00033
288.15	0.05	1.38085	0.00033
288.15	0.1	1.38233	0.00033
288.15	0.15	1.38377	0.00033
288.15	0.2001	1.3852	0.00033
288.15	0.25	1.38662	0.00033
288.15	0.3	1.38802	0.00033
288.15	0.35	1.38945	0.00033
288.15	0.4	1.39088	0.00033
288.15	0.45	1.39235	0.00033
288.15	0.5	1.39384	0.00033
288.15	0.55	1.39534	0.00033
288.15	0.6	1.39684	0.00033
288.15	0.65	1.39838	0.00033
288.15	0.7	1.39997	0.00033
288.15	0.75	1.4015	0.00033
288.15	0.8	1.40301	0.00033
288.15	0.85	1.40447	0.00033
288.15	0.9	1.40592	0.00033
288.15	0.95	1.40734	0.00033
288.15	1	1.40875	0.00033
298.15	0	1.37515	0.00033
298.15	0.05	1.37661	0.00033
298.15	0.1	1.37805	0.00033
298.15	0.15	1.37946	0.00033
298.15	0.2001	1.38088	0.00033
298.15	0.25	1.3823	0.00033
298.15	0.3	1.38374	0.00033
298.15	0.35	1.38519	0.00033
298.15	0.4	1.38667	0.00033
298.15	0.45	1.38816	0.00033
298.15	0.5	1.38967	0.00033
298.15	0.55	1.39118	0.00033
298.15	0.6	1.39269	0.00033
298.15	0.65	1.39421	0.00033
298.15	0.7	1.39578	0.00033
298.15	0.75	1.39735	0.00033
298.15	0.8	1.39889	0.00033
298.15	0.85	1.40041	0.00033
298.15	0.9	1.40191	0.00033
298.15	0.95	1.40339	0.00033
298.15	1	1.40487	0.00033
308.15	0	1.37061	0.00033
308.15	0.05	1.37192	0.00033
308.15	0.1	1.37328	0.00033
308.15	0.15	1.37462	0.00033
308.15	0.2001	1.37596	0.00033
308.15	0.25	1.37735	0.00033
308.15	0.3	1.37875	0.00033
308.15	0.35	1.38017	0.00033
308.15	0.4	1.38161	0.00033
308.15	0.45	1.38307	0.00033
308.15	0.5	1.38454	0.00033
308.15	0.55	1.38601	0.00033
308.15	0.6	1.38748	0.00033
308.15	0.65	1.38896	0.00033
308.15	0.7	1.39046	0.00033
308.15	0.75	1.39197	0.00033
308.15	0.8	1.39348	0.00033
308.15	0.85	1.39499	0.00033
308.15	0.9	1.39651	0.00033
308.15	0.95	1.39801	0.00033
308.15	1	1.39953	0.00033

System: propan-2-ol + tetrahydrofuran; phases: Liquid
Fixed: Pressure, kPa = 100.8
Property: Mass density, kg/m3 (Liquid); method: VIBTUB:UFactor:4
Temperature, K	Mole fraction of tetrahydrofuran	Mass density, kg/m3	uncertainty
288.15	0	789.53	0.48
288.15	0.05	794.84	0.48
288.15	0.1	800.09	0.47
288.15	0.15	805.28	0.46
288.15	0.2001	810.47	0.45
288.15	0.25	815.62	0.45
288.15	0.3	820.77	0.44
288.15	0.35	825.9	0.43
288.15	0.4	831.03	0.42
288.15	0.45	836.15	0.42
288.15	0.5	841.26	0.41
288.15	0.55	846.4	0.4
288.15	0.6	851.53	0.39
288.15	0.65	856.68	0.39
288.15	0.7	861.84	0.38
288.15	0.75	867.01	0.37
288.15	0.8	872.19	0.36
288.15	0.85	877.41	0.35
288.15	0.9	882.64	0.35
288.15	0.95	887.78	0.34
288.15	1	893.02	0.33
298.15	0	781.16	0.5
298.15	0.05	786.31	0.49
298.15	0.1	791.35	0.48
298.15	0.15	796.35	0.47
298.15	0.2001	801.35	0.47
298.15	0.25	806.34	0.46
298.15	0.3	811.33	0.45
298.15	0.35	816.33	0.44
298.15	0.4	821.31	0.44
298.15	0.45	826.3	0.43
298.15	0.5	831.29	0.42
298.15	0.55	836.32	0.42
298.15	0.6	841.35	0.41
298.15	0.65	846.39	0.4
298.15	0.7	851.45	0.39
298.15	0.75	856.52	0.39
298.15	0.8	861.66	0.38
298.15	0.85	866.81	0.37
298.15	0.9	872.02	0.36
298.15	0.95	877.21	0.36
298.15	1	882.37	0.35
308.15	0	772.52	0.51
308.15	0.05	777.45	0.5
308.15	0.1	782.29	0.5
308.15	0.15	787.13	0.49
308.15	0.2001	791.97	0.48
308.15	0.25	796.83	0.47
308.15	0.3	801.67	0.47
308.15	0.35	806.53	0.46
308.15	0.4	811.39	0.45
308.15	0.45	816.28	0.44
308.15	0.5	821.17	0.44
308.15	0.55	826.06	0.43
308.15	0.6	830.96	0.42
308.15	0.65	835.86	0.42
308.15	0.7	840.81	0.41
308.15	0.75	845.8	0.4
308.15	0.8	850.82	0.39
308.15	0.85	855.87	0.39
308.15	0.9	860.97	0.38
308.15	0.95	866.17	0.37
308.15	1	871.33	0.36

System: tetrahydrofuran + 2,2,4-trimethylpentane; phases: Liquid, Air at 1 atmosphere
Property: Surface tension liquid-gas, N/m (Liquid); method: Ring tensiometer
Temperature, K	Mole fraction of tetrahydrofuran	Surface tension liquid-gas, N/m	uncertainty
288.15	0	0.01918	0.0003
288.15	0.05	0.01932	0.0003
288.15	0.1001	0.01945	0.00031
288.15	0.15	0.0196	0.00031
288.15	0.2	0.01973	0.00031
288.15	0.25	0.01988	0.00031
288.15	0.3	0.02007	0.00031
288.15	0.35	0.02027	0.00032
288.15	0.4	0.0205	0.00032
288.15	0.45	0.02075	0.00032
288.15	0.5	0.02102	0.00032
288.15	0.55	0.02133	0.00033
288.15	0.6	0.02168	0.00033
288.15	0.65	0.02205	0.00034
288.15	0.7	0.02247	0.00034
288.15	0.75	0.02297	0.00035
288.15	0.8	0.02357	0.00036
288.15	0.85	0.02435	0.00037
288.15	0.9	0.02532	0.00038
288.15	0.95	0.0265	0.00039
288.15	1	0.02837	0.00041
298.15	0	0.01833	0.00029
298.15	0.05	0.01847	0.00029
298.15	0.1001	0.01863	0.0003
298.15	0.15	0.01877	0.0003
298.15	0.2	0.01892	0.0003
298.15	0.25	0.0191	0.0003
298.15	0.3	0.01927	0.0003
298.15	0.35	0.01943	0.00031
298.15	0.4	0.01963	0.00031
298.15	0.45	0.01983	0.00031
298.15	0.5	0.02005	0.00031
298.15	0.55	0.02035	0.00032
298.15	0.6	0.02068	0.00032
298.15	0.65	0.02105	0.00033
298.15	0.7	0.02148	0.00033
298.15	0.75	0.022	0.00034
298.15	0.8	0.0226	0.00034
298.15	0.85	0.0233	0.00035
298.15	0.9	0.02415	0.00036
298.15	0.95	0.02528	0.00038
298.15	1	0.02698	0.0004
308.15	0	0.01735	0.00028
308.15	0.05	0.01755	0.00028
308.15	0.1001	0.01773	0.00029
308.15	0.15	0.0179	0.00029
308.15	0.2	0.0181	0.00029
308.15	0.25	0.01827	0.00029
308.15	0.3	0.01848	0.00029
308.15	0.35	0.0187	0.0003
308.15	0.4	0.0189	0.0003
308.15	0.45	0.01912	0.0003
308.15	0.5	0.01937	0.00031
308.15	0.55	0.0196	0.00031
308.15	0.6	0.0199	0.00031
308.15	0.65	0.02025	0.00032
308.15	0.7	0.02067	0.00032
308.15	0.75	0.0212	0.00033
308.15	0.8	0.02182	0.00033
308.15	0.85	0.02255	0.00034
308.15	0.9	0.02345	0.00035
308.15	0.95	0.02455	0.00037
308.15	1	0.02595	0.00038

System: tetrahydrofuran + 2,2,4-trimethylpentane; phases: Liquid
Fixed: Pressure, kPa = 101
Property: Viscosity, Pa*s (Liquid); method: Falling or rolling sphere viscometry
Temperature, K	Mole fraction of tetrahydrofuran	Viscosity, Pa*s	uncertainty
288.15	0	0.000537	1.3e-05
288.15	0.1001	0.000534	1.3e-05
288.15	0.2	0.000531	1.3e-05
288.15	0.3	0.000528	1.3e-05
288.15	0.4	0.000527	1.3e-05
288.15	0.5	0.000525	1.3e-05
288.15	0.6	0.000524	1.3e-05
288.15	0.7	0.000523	1.3e-05
288.15	0.8	0.000522	1.3e-05
288.15	0.9	0.000521	1.3e-05
288.15	1	0.00052	1.3e-05
298.15	0	0.000481	1.3e-05
298.15	0.1001	0.000479	1.3e-05
298.15	0.2	0.000477	1.3e-05
298.15	0.3	0.000475	1.3e-05
298.15	0.4	0.000474	1.3e-05
298.15	0.5	0.000473	1.3e-05
298.15	0.6	0.000472	1.3e-05
298.15	0.7	0.000472	1.3e-05
298.15	0.8	0.000471	1.3e-05
298.15	0.9	0.000471	1.3e-05
298.15	1	0.00047	1.3e-05
308.15	0	0.000434	1.2e-05
308.15	0.1001	0.000433	1.2e-05
308.15	0.2	0.000432	1.2e-05
308.15	0.3	0.000432	1.2e-05
308.15	0.4	0.000431	1.2e-05
308.15	0.5	0.000431	1.2e-05
308.15	0.6	0.000432	1.2e-05
308.15	0.7	0.000432	1.2e-05
308.15	0.8	0.000432	1.2e-05
308.15	0.9	0.000432	1.2e-05
308.15	1	0.000433	1.2e-05

System: tetrahydrofuran + 2,2,4-trimethylpentane; phases: Liquid
Fixed: Pressure, kPa = 101
Property: Refractive index (Na D-line) (Liquid); method: Standard Abbe refractometry
Temperature, K	Mole fraction of tetrahydrofuran	Refractive index (Na D-line)	uncertainty
288.15	0	1.39408	0.00032
288.15	0.05	1.39443	0.00032
288.15	0.1001	1.39482	0.00032
288.15	0.15	1.39523	0.00032
288.15	0.2	1.39566	0.00032
288.15	0.25	1.39612	0.00032
288.15	0.3	1.39661	0.00032
288.15	0.35	1.39715	0.00032
288.15	0.4	1.39773	0.00032
288.15	0.45	1.39835	0.00032
288.15	0.5	1.39902	0.00032
288.15	0.55	1.39975	0.00032
288.15	0.6	1.40053	0.00032
288.15	0.65	1.40138	0.00032
288.15	0.7	1.40229	0.00032
288.15	0.75	1.40324	0.00032
288.15	0.8	1.40425	0.00032
288.15	0.85	1.4053	0.00032
288.15	0.9	1.4064	0.00033
288.15	0.95	1.40775	0.00033
288.15	1	1.40875	0.00033
298.15	0	1.38916	0.00032
298.15	0.05	1.38949	0.00032
298.15	0.1001	1.38987	0.00032
298.15	0.15	1.39028	0.00032
298.15	0.2	1.39071	0.00032
298.15	0.25	1.39116	0.00032
298.15	0.3	1.39166	0.00032
298.15	0.35	1.39222	0.00032
298.15	0.4	1.39284	0.00032
298.15	0.45	1.39351	0.00032
298.15	0.5	1.39423	0.00032
298.15	0.55	1.39501	0.00032
298.15	0.6	1.39585	0.00032
298.15	0.65	1.39676	0.00032
298.15	0.7	1.39775	0.00032
298.15	0.75	1.3988	0.00032
298.15	0.8	1.39991	0.00032
298.15	0.85	1.40105	0.00033
298.15	0.9	1.40225	0.00033
298.15	0.95	1.40352	0.00033
298.15	1	1.40487	0.00033
308.15	0	1.38407	0.00032
308.15	0.05	1.38428	0.00032
308.15	0.1001	1.38461	0.00032
308.15	0.15	1.38495	0.00032
308.15	0.2	1.38535	0.00032
308.15	0.25	1.3858	0.00032
308.15	0.3	1.3863	0.00032
308.15	0.35	1.38684	0.00032
308.15	0.4	1.38743	0.00032
308.15	0.45	1.38807	0.00032
308.15	0.5	1.38876	0.00032
308.15	0.55	1.3895	0.00032
308.15	0.6	1.39031	0.00032
308.15	0.65	1.3912	0.00032
308.15	0.7	1.3922	0.00032
308.15	0.75	1.39326	0.00032
308.15	0.8	1.39438	0.00032
308.15	0.85	1.39557	0.00033
308.15	0.9	1.39682	0.00033
308.15	0.95	1.39814	0.00033
308.15	1	1.39953	0.00033

System: tetrahydrofuran + 2,2,4-trimethylpentane; phases: Liquid
Fixed: Pressure, kPa = 100.8
Property: Mass density, kg/m3 (Liquid); method: VIBTUB:UFactor:4
Temperature, K	Mole fraction of tetrahydrofuran	Mass density, kg/m3	uncertainty
288.15	0	696.1	0.61
288.15	0.05	700.95	0.6
288.15	0.1001	706.07	0.59
288.15	0.15	711.48	0.59
288.15	0.2	717.2	0.58
288.15	0.25	723.26	0.57
288.15	0.3	729.72	0.56
288.15	0.35	736.64	0.55
288.15	0.4	740.66	7
288.15	0.45	751.99	0.53
288.15	0.5	760.46	0.52
288.15	0.55	769.53	0.51
288.15	0.6	779.27	0.49
288.15	0.65	789.74	0.48
288.15	0.7	801.02	0.46
288.15	0.75	813.22	0.45
288.15	0.8	826.46	0.43
288.15	0.85	840.87	0.41
288.15	0.9	856.63	0.39
288.15	0.95	873.94	0.37
288.15	1	893.02	0.33
298.15	0	687.95	0.62
298.15	0.05	692.68	0.61
298.15	0.1001	697.7	0.61
298.15	0.15	703.02	0.6
298.15	0.2	708.66	0.59
298.15	0.25	714.65	0.58
298.15	0.3	721.04	0.57
298.15	0.35	727.87	0.56
298.15	0.4	735.18	0.55
298.15	0.45	743	0.54
298.15	0.5	751.36	0.53
298.15	0.55	760.31	0.52
298.15	0.6	769.92	0.51
298.15	0.65	780.26	0.49
298.15	0.7	791.41	0.48
298.15	0.75	803.47	0.46
298.15	0.8	816.55	0.44
298.15	0.85	830.8	0.42
298.15	0.9	846.38	0.4
298.15	0.95	863.49	0.38
298.15	1	882.37	0.35
308.15	0	679.62	0.63
308.15	0.05	684.2	0.63
308.15	0.1001	689.1	0.62
308.15	0.15	694.33	0.61
308.15	0.2	699.91	0.61
308.15	0.25	705.84	0.6
308.15	0.3	712.16	0.59
308.15	0.35	718.89	0.58
308.15	0.4	726.08	0.57
308.15	0.45	733.77	0.56
308.15	0.5	741.99	0.55
308.15	0.55	750.8	0.53
308.15	0.6	760.26	0.52
308.15	0.65	770.45	0.51
308.15	0.7	781.46	0.49
308.15	0.75	793.37	0.48
308.15	0.8	806.29	0.46
308.15	0.85	820.36	0.44
308.15	0.9	835.75	0.42
308.15	0.95	852.65	0.4
308.15	1	871.33	0.36

System: propan-2-ol + 2,2,4-trimethylpentane; phases: Liquid, Air at 1 atmosphere
Property: Surface tension liquid-gas, N/m (Liquid); method: Ring tensiometer
Temperature, K	Mole fraction of propan-2-ol	Surface tension liquid-gas, N/m	uncertainty
288.15	0	0.01918	0.0003
288.15	0.05	0.01921	0.0003
288.15	0.1	0.01923	0.0003
288.15	0.1501	0.01927	0.0003
288.15	0.2	0.0193	0.0003
288.15	0.25	0.01933	0.0003
288.15	0.3	0.01937	0.0003
288.15	0.35	0.0194	0.00031
288.15	0.4	0.01945	0.00031
288.15	0.45	0.0195	0.00031
288.15	0.5	0.01957	0.00031
288.15	0.55	0.01965	0.00031
288.15	0.6	0.01975	0.00031
288.15	0.65	0.01986	0.00031
288.15	0.7	0.02	0.00031
288.15	0.75	0.02017	0.00032
288.15	0.8	0.02037	0.00032
288.15	0.85	0.0206	0.00032
288.15	0.9	0.02088	0.00032
288.15	0.95	0.02127	0.00033
288.15	1	0.02175	0.00033
298.15	0	0.01833	0.00029
298.15	0.05	0.01835	0.00029
298.15	0.1	0.01837	0.00029
298.15	0.1501	0.01838	0.00029
298.15	0.2	0.01841	0.00029
298.15	0.25	0.01843	0.00029
298.15	0.3	0.01845	0.00029
298.15	0.35	0.0185	0.00029
298.15	0.4	0.01855	0.0003
298.15	0.45	0.0186	0.0003
298.15	0.5	0.01865	0.0003
298.15	0.55	0.01872	0.0003
298.15	0.6	0.0188	0.0003
298.15	0.65	0.0189	0.0003
298.15	0.7	0.01902	0.0003
298.15	0.75	0.01918	0.0003
298.15	0.8	0.01938	0.00031
298.15	0.85	0.01962	0.00031
298.15	0.9	0.01995	0.00031
298.15	0.95	0.02037	0.00032
298.15	1	0.0209	0.00032
308.15	0	0.01735	0.00028
308.15	0.05	0.01737	0.00028
308.15	0.1	0.01738	0.00028
308.15	0.1501	0.0174	0.00028
308.15	0.2	0.01742	0.00028
308.15	0.25	0.01743	0.00028
308.15	0.3	0.01747	0.00028
308.15	0.35	0.01752	0.00028
308.15	0.4	0.01758	0.00028
308.15	0.45	0.01765	0.00028
308.15	0.5	0.01772	0.00029
308.15	0.55	0.0178	0.00029
308.15	0.6	0.0179	0.00029
308.15	0.65	0.018	0.00029
308.15	0.7	0.01813	0.00029
308.15	0.75	0.01829	0.00029
308.15	0.8	0.0185	0.0003
308.15	0.85	0.01877	0.0003
308.15	0.9	0.0191	0.0003
308.15	0.95	0.01952	0.00031
308.15	1	0.02017	0.00032

System: propan-2-ol + 2,2,4-trimethylpentane; phases: Liquid
Fixed: Pressure, kPa = 101
Property: Viscosity, Pa*s (Liquid); method: Falling or rolling sphere viscometry
Temperature, K	Mole fraction of propan-2-ol	Viscosity, Pa*s	uncertainty
288.15	0	0.000537	1.3e-05
288.15	0.05	0.000541	1.3e-05
288.15	0.1	0.000547	1.3e-05
288.15	0.1501	0.000556	1.3e-05
288.15	0.2	0.000569	1.3e-05
288.15	0.25	0.000586	1.3e-05
288.15	0.3	0.000608	1.3e-05
288.15	0.35	0.000636	1.3e-05
288.15	0.4	0.000671	1.3e-05
288.15	0.45	0.000715	1.3e-05
288.15	0.5	0.000768	1.3e-05
288.15	0.55	0.000836	1.4e-05
288.15	0.6	0.000916	1.4e-05
288.15	0.65	0.001009	1.4e-05
288.15	0.7	0.001126	1.5e-05
288.15	0.75	0.001264	1.6e-05
288.15	0.8	0.001437	1.6e-05
288.15	0.85	0.001652	1.8e-05
288.15	0.9	0.001933	2e-05
288.15	0.95	0.002314	2.2e-05
288.15	1	0.002849	2.6e-05
298.15	0	0.00048	1.3e-05
298.15	0.05	0.000482	1.3e-05
298.15	0.1	0.000486	1.3e-05
298.15	0.1501	0.000493	1.3e-05
298.15	0.2	0.000503	1.3e-05
298.15	0.25	0.000515	1.3e-05
298.15	0.3	0.00053	1.3e-05
298.15	0.35	0.00055	1.3e-05
298.15	0.4	0.000576	1.3e-05
298.15	0.45	0.000608	1.3e-05
298.15	0.5	0.000646	1.3e-05
298.15	0.55	0.000694	1.3e-05
298.15	0.6	0.000751	1.3e-05
298.15	0.65	0.000819	1.4e-05
298.15	0.7	0.000901	1.4e-05
298.15	0.75	0.001003	1.4e-05
298.15	0.8	0.001122	1.5e-05
298.15	0.85	0.001277	1.6e-05
298.15	0.9	0.001407	1.7e-05
298.15	0.95	0.001707	1.8e-05
298.15	1	0.002043	2.1e-05
308.15	0	0.000434	1.2e-05
308.15	0.05	0.000432	1.2e-05
308.15	0.1	0.000434	1.2e-05
308.15	0.1501	0.00044	1.2e-05
308.15	0.2	0.000447	1.2e-05
308.15	0.25	0.000457	1.2e-05
308.15	0.3	0.000468	1.3e-05
308.15	0.35	0.000483	1.3e-05
308.15	0.4	0.000501	1.3e-05
308.15	0.45	0.000524	1.3e-05
308.15	0.5	0.000552	1.3e-05
308.15	0.55	0.000586	1.3e-05
308.15	0.6	0.000628	1.3e-05
308.15	0.65	0.000677	1.3e-05
308.15	0.7	0.000736	1.3e-05
308.15	0.75	0.000806	1.4e-05
308.15	0.8	0.000898	1.4e-05
308.15	0.85	0.001006	1.4e-05
308.15	0.9	0.001145	1.5e-05
308.15	0.95	0.00131	1.6e-05
308.15	1	0.001541	1.7e-05

System: propan-2-ol + 2,2,4-trimethylpentane; phases: Liquid
Fixed: Pressure, kPa = 101
Property: Refractive index (Na D-line) (Liquid); method: Standard Abbe refractometry
Temperature, K	Mole fraction of propan-2-ol	Refractive index (Na D-line)	uncertainty
288.15	0	1.39408	0.00032
288.15	0.05	1.39346	0.00032
288.15	0.1	1.39285	0.00032
288.15	0.1501	1.39227	0.00032
288.15	0.2	1.3917	0.00032
288.15	0.25	1.39114	0.00032
288.15	0.3	1.39058	0.00032
288.15	0.35	1.39001	0.00032
288.15	0.4	1.38942	0.00032
288.15	0.45	1.38881	0.00032
288.15	0.5	1.38817	0.00032
288.15	0.55	1.3875	0.00032
288.15	0.6	1.38679	0.00032
288.15	0.65	1.38604	0.00032
288.15	0.7	1.38525	0.00032
288.15	0.75	1.38441	0.00032
288.15	0.8	1.38352	0.00032
288.15	0.85	1.38257	0.00033
288.15	0.9	1.38156	0.00033
288.15	0.95	1.38048	0.00033
288.15	1	1.37933	0.00033
298.15	0	1.38916	0.00032
298.15	0.05	1.38845	0.00032
298.15	0.1	1.38779	0.00032
298.15	0.1501	1.38715	0.00032
298.15	0.2	1.38656	0.00032
298.15	0.25	1.38598	0.00032
298.15	0.3	1.38541	0.00032
298.15	0.35	1.38484	0.00032
298.15	0.4	1.38426	0.00032
298.15	0.45	1.38367	0.00032
298.15	0.5	1.38305	0.00032
298.15	0.55	1.38241	0.00032
298.15	0.6	1.38175	0.00032
298.15	0.65	1.38105	0.00032
298.15	0.7	1.38031	0.00032
298.15	0.75	1.37954	0.00032
298.15	0.8	1.37875	0.00032
298.15	0.85	1.37791	0.00033
298.15	0.9	1.37705	0.00033
298.15	0.95	1.37613	0.00033
298.15	1	1.37515	0.00033
308.15	0	1.38407	0.00032
308.15	0.05	1.38317	0.00032
308.15	0.1	1.38246	0.00032
308.15	0.1501	1.38181	0.00032
308.15	0.2	1.38117	0.00032
308.15	0.25	1.38056	0.00032
308.15	0.3	1.37998	0.00032
308.15	0.35	1.37941	0.00032
308.15	0.4	1.37884	0.00032
308.15	0.45	1.37826	0.00032
308.15	0.5	1.37767	0.00032
308.15	0.55	1.37706	0.00032
308.15	0.6	1.37643	0.00032
308.15	0.65	1.37579	0.00032
308.15	0.7	1.37512	0.00032
308.15	0.75	1.37442	0.00032
308.15	0.8	1.3737	0.00032
308.15	0.85	1.37294	0.00033
308.15	0.9	1.37214	0.00033
308.15	0.95	1.37139	0.00033
308.15	1	1.37061	0.00033

System: propan-2-ol + 2,2,4-trimethylpentane; phases: Liquid
Fixed: Pressure, kPa = 100.8
Property: Mass density, kg/m3 (Liquid); method: VIBTUB:UFactor:4
Temperature, K	Mole fraction of propan-2-ol	Mass density, kg/m3	uncertainty
288.15	0	696.1	0.61
288.15	0.05	697.68	0.61
288.15	0.1	699.61	0.6
288.15	0.1501	701.74	0.6
288.15	0.2	704.06	0.6
288.15	0.25	706.59	0.6
288.15	0.3	709.33	0.59
288.15	0.35	712.32	0.59
288.15	0.4	715.61	0.58
288.15	0.45	719.18	0.58
288.15	0.5	723.07	0.57
288.15	0.55	727.29	0.57
288.15	0.6	731.85	0.56
288.15	0.65	736.84	0.56
288.15	0.7	742.33	0.55
288.15	0.75	748.32	0.54
288.15	0.8	754.93	0.53
288.15	0.85	762.25	0.52
288.15	0.9	770.37	0.51
288.15	0.95	779.42	0.5
288.15	1	789.53	0.48
298.15	0	687.95	0.62
298.15	0.05	689.36	0.62
298.15	0.1	691.13	0.62
298.15	0.1501	693.2	0.61
298.15	0.2	695.48	0.61
298.15	0.25	697.96	0.61
298.15	0.3	700.66	0.61
298.15	0.35	703.64	0.6
298.15	0.4	706.9	0.6
298.15	0.45	710.45	0.59
298.15	0.5	714.31	0.59
298.15	0.55	718.51	0.58
298.15	0.6	723.09	0.58
298.15	0.65	728.12	0.57
298.15	0.7	733.62	0.56
298.15	0.75	739.68	0.55
298.15	0.8	746.32	0.54
298.15	0.85	753.69	0.54
298.15	0.9	761.83	0.52
298.15	0.95	770.98	0.51
298.15	1	781.16	0.5
308.15	0	679.62	0.63
308.15	0.05	680.82	0.63
308.15	0.1	682.54	0.63
308.15	0.1501	684.54	0.63
308.15	0.2	686.76	0.63
308.15	0.25	689.18	0.62
308.15	0.3	691.84	0.62
308.15	0.35	694.8	0.61
308.15	0.4	698	0.61
308.15	0.45	701.51	0.61
308.15	0.5	705.32	0.6
308.15	0.55	709.5	0.6
308.15	0.6	714.09	0.59
308.15	0.65	719.11	0.58
308.15	0.7	724.65	0.58
308.15	0.75	730.74	0.57
308.15	0.8	737.4	0.56
308.15	0.85	744.87	0.55
308.15	0.9	753.06	0.54
308.15	0.95	762.26	0.52
308.15	1	772.52	0.51

System: propan-2-ol + tetrahydrofuran + 2,2,4-trimethylpentane; phases: Liquid, Air at 1 atmosphere
Fixed: Temperature, K = 298.15
Property: Surface tension liquid-gas, N/m (Liquid); method: Ring tensiometer
Mole fraction of tetrahydrofuran	Mole fraction of propan-2-ol	Surface tension liquid-gas, N/m	uncertainty
0.05	0.05	0.01855	0.00029
0.05	0.1	0.0186	0.0003
0.05	0.2	0.01867	0.0003
0.05	0.3	0.01875	0.0003
0.05	0.4	0.01889	0.0003
0.05	0.5001	0.01905	0.0003
0.05	0.6	0.01933	0.0003
0.05	0.7	0.01967	0.00031
0.05	0.9	0.02075	0.00032
0.0501	0.7999	0.02015	0.00032
0.1	0.05	0.01865	0.0003
0.1	0.1501	0.01875	0.0003
0.1	0.25	0.01885	0.0003
0.1	0.3499	0.01897	0.0003
0.1	0.45	0.01912	0.0003
0.1	0.55	0.01933	0.0003
0.1	0.65	0.0196	0.00031
0.1	0.75	0.0202	0.00032
0.1	0.85	0.0213	0.00033
0.2	0.05	0.01887	0.0003
0.2	0.1501	0.01905	0.0003
0.2	0.25	0.01925	0.0003
0.2	0.35	0.01945	0.00031
0.2	0.45	0.0197	0.00031
0.2	0.55	0.02005	0.00031
0.2	0.65	0.02075	0.00032
0.2	0.75	0.02175	0.00033
0.3	0.05	0.01915	0.0003
0.3	0.15	0.01925	0.0003
0.3	0.35	0.0199	0.00031
0.3	0.45	0.0205	0.00032
0.3	0.55	0.02135	0.00033
0.3	0.65	0.02225	0.00034
0.3001	0.25	0.01945	0.00031
0.3999	0.2501	0.02015	0.00031
0.4	0.05	0.01975	0.00031
0.4	0.15	0.01985	0.00031
0.4	0.35	0.0207	0.00032
0.4	0.45	0.02163	0.00033
0.4	0.55	0.02275	0.00035
0.5	0.05	0.0201	0.00031
0.5	0.1501	0.02045	0.00032
0.5	0.25	0.0212	0.00033
0.5	0.35	0.0222	0.00034
0.5	0.45	0.02355	0.00036
0.6	0.05	0.0207	0.00032
0.6	0.15	0.02125	0.00033
0.6	0.25	0.02265	0.00034
0.6	0.35	0.0244	0.00037
0.6999	0.05	0.02145	0.00033
0.7	0.15	0.02285	0.00035
0.7	0.25	0.02535	0.00038
0.8	0.05	0.02325	0.00035
0.8	0.15	0.02665	0.00039
0.8999	0.0501	0.02785	0.00041

System: propan-2-ol + tetrahydrofuran + 2,2,4-trimethylpentane; phases: Liquid
Fixed: Temperature, K = 298.15
Fixed: Pressure, kPa = 101
Property: Viscosity, Pa*s (Liquid); method: Falling or rolling sphere viscometry
Mole fraction of tetrahydrofuran	Mole fraction of propan-2-ol	Viscosity, Pa*s	uncertainty
0.05	0.05	0.000484	1.3e-05
0.05	0.1	0.000491	1.3e-05
0.05	0.2	0.000509	1.3e-05
0.05	0.3	0.000541	1.3e-05
0.05	0.4	0.000586	1.3e-05
0.05	0.5001	0.000655	1.3e-05
0.05	0.6	0.000759	1.3e-05
0.05	0.7	0.000905	1.4e-05
0.05	0.9	0.001467	1.7e-05
0.0501	0.7999	0.001122	1.5e-05
0.1	0.05	0.000483	1.3e-05
0.1	0.1501	0.000499	1.3e-05
0.1	0.25	0.000523	1.3e-05
0.1	0.3499	0.000561	1.3e-05
0.1	0.45	0.000622	1.3e-05
0.1	0.55	0.000701	1.3e-05
0.1	0.65	0.000821	1.4e-05
0.1	0.75	0.000998	1.4e-05
0.1	0.85	0.001256	1.5e-05
0.2	0.05	0.000482	1.3e-05
0.2	0.1501	0.000498	1.3e-05
0.2	0.25	0.000523	1.3e-05
0.2	0.35	0.000562	1.3e-05
0.2	0.45	0.000617	1.3e-05
0.2	0.55	0.000698	1.3e-05
0.2	0.65	0.000814	1.4e-05
0.2	0.75	0.000991	1.4e-05
0.3	0.05	0.000488	1.3e-05
0.3	0.15	0.000508	1.3e-05
0.3	0.35	0.000565	1.3e-05
0.3	0.45	0.000621	1.3e-05
0.3	0.55	0.000699	1.3e-05
0.3	0.65	0.000814	1.4e-05
0.3001	0.25	0.000526	1.3e-05
0.3999	0.2501	0.000533	1.3e-05
0.4	0.05	0.000482	1.3e-05
0.4	0.15	0.000499	1.3e-05
0.4	0.35	0.000565	1.3e-05
0.4	0.45	0.000621	1.3e-05
0.4	0.55	0.000704	1.3e-05
0.5	0.05	0.000482	1.3e-05
0.5	0.1501	0.000501	1.3e-05
0.5	0.25	0.000531	1.3e-05
0.5	0.35	0.000566	1.3e-05
0.5	0.45	0.000623	1.3e-05
0.6	0.05	0.000479	1.3e-05
0.6	0.15	0.000498	1.3e-05
0.6	0.25	0.000527	1.3e-05
0.6	0.35	0.00057	1.3e-05
0.6999	0.05	0.000481	1.3e-05
0.7	0.15	0.000499	1.3e-05
0.7	0.25	0.000528	1.3e-05
0.8	0.05	0.000482	1.3e-05
0.8	0.15	0.000503	1.3e-05
0.8999	0.0501	0.000481	1.3e-05

System: propan-2-ol + tetrahydrofuran + 2,2,4-trimethylpentane; phases: Liquid
Fixed: Temperature, K = 298.15
Fixed: Pressure, kPa = 101
Property: Refractive index (Na D-line) (Liquid); method: Standard Abbe refractometry
Mole fraction of tetrahydrofuran	Mole fraction of propan-2-ol	Refractive index (Na D-line)	uncertainty
0.05	0.05	1.38727	0.00032
0.05	0.1	1.38666	0.00032
0.05	0.2	1.38551	0.00032
0.05	0.3	1.38436	0.00032
0.05	0.4	1.38324	0.00032
0.05	0.5001	1.38208	0.00032
0.05	0.6	1.38085	0.00032
0.05	0.7	1.37951	0.00032
0.05	0.9	1.37645	0.00033
0.0501	0.7999	1.37804	0.00033
0.1	0.05	1.3877	0.00032
0.1	0.1501	1.38649	0.00032
0.1	0.25	1.38534	0.00032
0.1	0.3499	1.38423	0.00032
0.1	0.45	1.38308	0.00032
0.1	0.55	1.38187	0.00032
0.1	0.65	1.38054	0.00032
0.1	0.75	1.37907	0.00033
0.1	0.85	1.37445	0.00033
0.2	0.05	1.38872	0.00032
0.2	0.1501	1.38756	0.00032
0.2	0.25	1.38646	0.00032
0.2	0.35	1.38535	0.00032
0.2	0.45	1.38422	0.00032
0.2	0.55	1.38302	0.00032
0.2	0.65	1.38173	0.00033
0.2	0.75	1.38028	0.00033
0.3	0.05	1.38983	0.00032
0.3	0.15	1.38871	0.00032
0.3	0.35	1.3865	0.00032
0.3	0.45	1.38542	0.00032
0.3	0.55	1.38424	0.00033
0.3	0.65	1.38296	0.00033
0.3001	0.25	1.38765	0.00032
0.3999	0.2501	1.38901	0.00032
0.4	0.05	1.39109	0.00032
0.4	0.15	1.39001	0.00032
0.4	0.35	1.38795	0.00032
0.4	0.45	1.38686	0.00033
0.4	0.55	1.38572	0.00033
0.5	0.05	1.39254	0.00032
0.5	0.1501	1.39148	0.00032
0.5	0.25	1.39052	0.00032
0.5	0.35	1.38955	0.00033
0.5	0.45	1.38857	0.00033
0.6	0.05	1.39439	0.00032
0.6	0.15	1.39343	0.00032
0.6	0.25	1.39255	0.00033
0.6	0.35	1.39168	0.00033
0.6999	0.05	1.39621	0.00032
0.7	0.15	1.39537	0.00033
0.7	0.25	1.39462	0.00033
0.8	0.05	1.39915	0.00033
0.8	0.15	1.3976	0.00033
0.8999	0.0501	1.40186	0.00033

System: propan-2-ol + tetrahydrofuran + 2,2,4-trimethylpentane; phases: Liquid
Fixed: Temperature, K = 298.15
Fixed: Pressure, kPa = 101
Property: Mass density, kg/m3 (Liquid); method: VIBTUB:UFactor:4
Mole fraction of tetrahydrofuran	Mole fraction of propan-2-ol	Mass density, kg/m3	uncertainty
0.05	0.05	694.4	0.61
0.05	0.1	696.5	0.61
0.05	0.2	701.17	0.6
0.05	0.3	706.95	0.6
0.05	0.4	713.82	0.59
0.05	0.5001	722.07	0.58
0.05	0.6	731.81	0.56
0.05	0.7	743.6	0.55
0.05	0.9	775.8	0.5
0.0501	0.7999	758.09	0.53
0.1	0.05	699.73	0.6
0.1	0.1501	704.52	0.6
0.1	0.25	710.36	0.59
0.1	0.3499	717.43	0.58
0.1	0.45	725.81	0.57
0.1	0.55	735.81	0.56
0.1	0.65	747.78	0.54
0.1	0.75	762.3	0.52
0.1	0.85	780.61	0.5
0.2	0.05	711.28	0.59
0.2	0.1501	717.4	0.58
0.2	0.25	724.62	0.57
0.2	0.35	733.4	0.56
0.2	0.45	743.73	0.55
0.2	0.55	756.14	0.53
0.2	0.65	771.23	0.51
0.2	0.75	790.1	0.48
0.3	0.05	724.32	0.57
0.3	0.15	732.01	0.56
0.3	0.35	751.66	0.53
0.3	0.45	764.52	0.52
0.3	0.55	780.19	0.5
0.3	0.65	799.53	0.47
0.3001	0.25	740.92	0.55
0.3999	0.2501	759.65	0.52
0.4	0.05	739.3	0.55
0.4	0.15	748.47	0.54
0.4	0.35	772.96	0.5
0.4	0.45	789.16	0.48
0.4	0.55	809.14	0.45
0.5	0.05	756.42	0.52
0.5	0.1501	767.72	0.51
0.5	0.25	781.48	0.49
0.5	0.35	798.1	0.47
0.5	0.45	818.73	0.44
0.6	0.05	776.13	0.5
0.6	0.15	790.16	0.48
0.6	0.25	807.73	0.45
0.6	0.35	828.48	0.43
0.6999	0.05	799.01	0.46
0.7	0.15	816.52	0.44
0.7	0.25	838.5	0.41
0.8	0.05	826.04	0.43
0.8	0.15	848.4	0.4
0.8999	0.0501	858.5	0.38
