Measured thermophysical data. Saturated Liquid Densities and Vapor Pressures of Tetramethyl Orthosilicate Measured Using a Constant Volume Apparatus
Source: J. Chem. Eng. Data, 2008, 10.1021/je700443d
Compound 1: silicon tetramethoxide, C4H12O4Si, InChI=1S/C4H12O4Si/c1-5-9(6-2,7-3)8-4/h1-4H3

System: silicon tetramethoxide; phases: Liquid, Gas
Property: Vapor or sublimation pressure, kPa (Liquid); method: Closed cell (Static) method
Temperature, K	Vapor or sublimation pressure, kPa	uncertainty
334.15	30	15
335.15	30	15
336.15	30	15
337.15	30	15
338.15	30	15
339.15	30	15
341.15	30	15
342.15	30	17
343.15	30	13
344.15	30	17
345.15	40	17
347.15	40	14
348.15	40	20
349.15	40	20
351.15	40	20
352.15	40	20
353.15	40	20
355.15	40	17
356.15	40	17
357.15	50	13
358.15	50	17
359.15	50	17
361.15	50	25
362.15	50	25
363.15	50	14
364.15	50	16
365.15	50	17
366.15	60	18
368.15	60	18
369.15	60	31
370.15	60	15
371.15	60	18
372.15	60	18
373.1	70	15
374.15	70	18
375.15	70	34
377.15	70	18
378.15	80	18
379.15	80	29
380.15	80	29
381.15	80	18
382.15	90	19
384.15	90	35
385.15	90	19
386.15	90	15
387.15	100	19
388.15	100	35
390.15	100	19
391.15	110	35
392.15	110	30
393.15	110	45
394.15	120	35
395.15	120	35
397.15	130	36
398.15	130	36
399.15	130	40
400.15	140	36
401.15	140	36
403.15	150	37
404.15	150	52
405.15	160	46
406.15	160	52
407.15	170	45
408.15	170	37
409.15	180	53
411.15	180	53
412.15	190	38
413.15	190	42
414.15	200	54
415.15	200	54
417.15	210	54
418.15	220	55
419.15	220	61
420.15	230	61
421.15	230	55
422.15	240	71
424.15	250	71
425.15	260	71
426.15	260	62
427.15	270	72
428.15	280	63
429.15	280	72
430.15	290	73
432.15	300	73
433.15	310	73
434.15	320	78
435.15	320	78
436.15	330	74
437.15	340	75
439.15	350	75
440.15	360	76
441.15	360	79
442.15	370	91
443.15	380	81
444.15	390	92
445.15	400	78
447.15	410	78
448.15	410	78
449.15	420	82
450.15	430	94
451.15	440	109
452.15	450	96
453.15	460	95
454.15	470	95
456.15	480	96
457.15	490	96
458.15	500	98
459.15	510	127
460.15	520	128
461.15	530	113
462.15	550	114
463.15	560	114
465.15	570	115
466.15	580	115
467.15	590	115
468.15	610	146
469.15	620	147
470.15	630	130
471.15	650	119
472.15	660	134
474.15	670	134
475.15	690	135
476.15	700	145
477.15	720	166
478.15	730	167
479.15	750	167
480.15	760	168
481.15	780	149
482.15	790	140
483.15	810	156
485.15	820	156
486.15	840	157
487.15	860	165
488.15	870	188
489.15	890	189
490.15	910	189
491.15	920	205
492.15	940	206
493.15	960	171
494.15	980	179
495.15	1000	180
497.15	1010	180
498.15	1030	181
499.15	1050	187
500.15	1070	226
501.15	1090	227
502.15	1110	214
503.15	1130	215
504.15	1150	216
505.15	1160	216
506.15	1180	232
507.15	1200	233
508.15	1220	209
509.15	1250	208
510.15	1270	209
512.15	1280	204
513.15	1300	198
514.15	1320	203
514.15	1340	206
516.15	1360	241
517.15	1380	242
518.15	1400	243
519.15	1420	244
520.15	1440	246
521.15	1460	247
522.15	1480	248

System: silicon tetramethoxide; phases: Liquid, Gas
Property: Mass density, kg/m3 (Liquid); method: determined from pressure vs temperature measurement to find liquid-full point for a closed cell
Temperature, K	Mass density, kg/m3	uncertainty
334.15	990	60
348.15	940	60
365.15	920	60
383.15	900	50
389.15	880	50
406.15	850	50
415.15	840	50
434.15	800	50
440.15	800	50
463.15	770	50
463.15	750	50
480.15	710	40
483.15	730	50
502.15	690	40
519.15	650	40
532.15	610	40
