Measured thermophysical data. Thermophysical Properties of 1-Ethyl-3-methylimidazolium Ethylsulfate and 1-Butyl-3-methylimidazolium Methylsulfate Ionic Liquids
Source: J. Chem. Eng. Data, 2007, 10.1021/je7002786
Compound 1: 1-ethyl-3-methylimidazolium ethyl sulfate, C8H16N2O4S, InChI=1S/C6H11N2.C2H6O4S/c1-3-8-5-4-7(2)6-8;1-2-6-7(3,4)5/h4-6H,3H2,1-2H3;2H2,1H3,(H,3,4,5)/q+1;/p-1
Compound 2: 1-butyl-3-methylimidazolium methyl sulfate, C9H18N2O4S, InChI=1S/C8H15N2.CH4O4S/c1-3-4-5-10-7-6-9(2)8-10;1-5-6(2,3)4/h6-8H,3-5H2,1-2H3;1H3,(H,2,3,4)/q+1;/p-1

System: 1-ethyl-3-methylimidazolium ethyl sulfate; phases: Glass, Liquid, Air at 1 atmosphere
Property: Triple point temperature, K (Glass); method: DTA
Triple point temperature, K	uncertainty
194.75	3

System: 1-ethyl-3-methylimidazolium ethyl sulfate; phases: Liquid
Fixed: Pressure, kPa = 101.325
Property: Molar heat capacity at constant pressure, J/K/mol (Liquid); method: Small sample (50 mg) DSC
Temperature, K	Molar heat capacity at constant pressure, J/K/mol	uncertainty
283.1	387.04256136	155.00605632
293.15	409.72637448	163.98506568
303.15	432.4101876	172.96407504
313.15	455.09400072	182.17937412
323.15	477.77781384	191.15838348
333.15	500.46162696	200.37368256
343.15	523.14544008	209.35269192
353.15	545.8292532	218.567991
363.15	568.51306632	227.54700036
373.1	591.19687944	236.52600972

System: 1-butyl-3-methylimidazolium methyl sulfate; phases: Glass, Liquid, Air at 1 atmosphere
Property: Triple point temperature, K (Glass); method: DTA
Triple point temperature, K	uncertainty
181.25	3

System: 1-butyl-3-methylimidazolium methyl sulfate; phases: Crystal, Liquid, Air at 1 atmosphere
Property: Normal melting temperature, K (Crystal); method: DTA
Normal melting temperature, K	uncertainty
269.05	1

System: 1-butyl-3-methylimidazolium methyl sulfate; phases: Liquid
Fixed: Pressure, kPa = 101.325
Property: Molar heat capacity at constant pressure, J/K/mol (Liquid); method: SDSC:UFactor:3
Temperature, K	Molar heat capacity at constant pressure, J/K/mol	uncertainty
283.1	226.2859352	91.1151332
293.15	246.5615555	99.1252548
303.15	266.8371758	107.3856927
313.15	287.1127961	115.3958143
323.15	307.3884164	123.6562522
333.15	327.6640367	131.9166901
343.15	347.939657	139.9268117
353.15	368.2152773	148.1872496
363.15	388.4908976	156.1973712
373.1	408.7665179	164.4578091
