Measured thermophysical data. Liquid-Liquid Equilibria of (Water + Acetic Acid + Diethyl Succinate or Diethyl Glutarate or Diethyl Adipate) Ternary Systems
Source: J. Chem. Eng. Data, 2007, 10.1021/je7000733
Compound 1: water, H2O, InChI=1S/H2O/h1H2
Compound 2: acetic acid, C2H4O2, InChI=1S/C2H4O2/c1-2(3)4/h1H3,(H,3,4), purity 99%
Compound 3: diethyl butanedioate, C8H14O4, InChI=1S/C8H14O4/c1-3-11-7(9)5-6-8(10)12-4-2/h3-6H2,1-2H3, purity 99%
Compound 4: diethyl glutarate, C9H16O4, InChI=1S/C9H16O4/c1-3-12-8(10)6-5-7-9(11)13-4-2/h3-7H2,1-2H3, purity 98%
Compound 5: diethyl hexanedioate, C10H18O4, InChI=1S/C10H18O4/c1-3-13-9(11)7-5-6-8-10(12)14-4-2/h3-8H2,1-2H3, purity 99%

System: acetic acid; phases: Liquid, Gas
Property: Normal boiling temperature, K (Liquid); method: Fisher boiling point apparatus
Normal boiling temperature, K	uncertainty
391.15	0.2

System: acetic acid; phases: Liquid
Property: Refractive index (Na D-line) (Liquid); method: Standard Abbe refractometry
Temperature, K	Pressure, kPa	Refractive index (Na D-line)	uncertainty
293.1	101.325	1.37201	0.0007

System: acetic acid; phases: Liquid
Property: Mass density, kg/m3 (Liquid); method: Vibrating tube method
Temperature, K	Pressure, kPa	Mass density, kg/m3	uncertainty
293.1	101.325	1044.3	0.27

System: diethyl butanedioate; phases: Liquid, Gas
Property: Normal boiling temperature, K (Liquid); method: Fisher boiling point apparatus
Normal boiling temperature, K	uncertainty
490.85	0.2

System: diethyl butanedioate; phases: Liquid
Property: Refractive index (Na D-line) (Liquid); method: Standard Abbe refractometry
Temperature, K	Pressure, kPa	Refractive index (Na D-line)	uncertainty
293.1	101.325	1.42014	0.0007

System: diethyl butanedioate; phases: Liquid
Property: Mass density, kg/m3 (Liquid); method: Vibrating tube method
Temperature, K	Pressure, kPa	Mass density, kg/m3	uncertainty
293.1	101.325	1040.22	0.27

System: diethyl glutarate; phases: Liquid, Gas
Property: Normal boiling temperature, K (Liquid); method: Fisher boiling point apparatus
Normal boiling temperature, K	uncertainty
509.65	0.2

System: diethyl glutarate; phases: Liquid
Property: Refractive index (Na D-line) (Liquid); method: Standard Abbe refractometry
Temperature, K	Pressure, kPa	Refractive index (Na D-line)	uncertainty
293.1	101.325	1.42414	0.00078

System: diethyl glutarate; phases: Liquid
Property: Mass density, kg/m3 (Liquid); method: Vibrating tube method
Temperature, K	Pressure, kPa	Mass density, kg/m3	uncertainty
293.1	101.325	1022.04	0.88

System: diethyl hexanedioate; phases: Liquid, Gas
Property: Normal boiling temperature, K (Liquid); method: Fisher boiling point apparatus
Normal boiling temperature, K	uncertainty
518.35	0.2

System: diethyl hexanedioate; phases: Liquid
Property: Refractive index (Na D-line) (Liquid); method: Standard Abbe refractometry
Temperature, K	Pressure, kPa	Refractive index (Na D-line)	uncertainty
293.1	101.325	1.42725	0.0007

System: diethyl hexanedioate; phases: Liquid
Property: Mass density, kg/m3 (Liquid); method: Vibrating tube method
Temperature, K	Pressure, kPa	Mass density, kg/m3	uncertainty
293.1	101.325	1007.63	0.24

System: acetic acid + diethyl butanedioate + water; phases: Liquid mixture 1, Liquid mixture 2
Fixed: Pressure, kPa = 101.3
Fixed: Temperature, K = 298.15
Property: Mass fraction of acetic acid (Liquid mixture 1); method: Chromatography
Mass fraction of water	Mass fraction of acetic acid	uncertainty
0.4537	0.3076	0.0046
0.5486	0.2989	0.0046
0.6299	0.2707	0.0048
0.6902	0.2329	0.005
0.7584	0.1886	0.0051
0.8477	0.1193	0.0053
0.9781	0	0.0001

System: acetic acid + diethyl butanedioate + water; phases: Liquid mixture 1, Liquid mixture 2
Fixed: Temperature, K = 298.15
Fixed: Pressure, kPa = 101.3
Property: Mass fraction of acetic acid (Liquid mixture 1); method: Chromatography
Property: Mass fraction of water (Liquid mixture 2); method: Chromatography
Property: Mass fraction of acetic acid (Liquid mixture 2); method: Chromatography
Mass fraction of water	Mass fraction of acetic acid	uncertainty	Mass fraction of water	uncertainty	Mass fraction of acetic acid	uncertainty
0.9206	0.0505	0.004	0.0409	0.004	0.0346	
0.8573	0.1132	0.0053	0.0502	0.0046	0.0585	
0.7682	0.1809	0.0051	0.0829	0.0047	0.1143	
0.6713	0.2462	0.0044	0.1269	0.0041	0.1839	

System: acetic acid + diethyl glutarate + water; phases: Liquid mixture 1, Liquid mixture 2
Fixed: Pressure, kPa = 101.3
Fixed: Temperature, K = 298.15
Property: Mass fraction of acetic acid (Liquid mixture 1); method: Chromatography
Mass fraction of water	Mass fraction of acetic acid	uncertainty
0.3313	0.3343	0.0047
0.4195	0.3437	0.0047
0.5023	0.342	0.0048
0.66	0.2799	0.0049
0.7705	0.1965	0.0055
0.9847	0	0.0001

System: acetic acid + diethyl glutarate + water; phases: Liquid mixture 1, Liquid mixture 2
Fixed: Temperature, K = 298.15
Fixed: Pressure, kPa = 101.3
Property: Mass fraction of acetic acid (Liquid mixture 1); method: Chromatography
Property: Mass fraction of water (Liquid mixture 2); method: Chromatography
Property: Mass fraction of acetic acid (Liquid mixture 2); method: Chromatography
Mass fraction of water	Mass fraction of acetic acid	uncertainty	Mass fraction of water	uncertainty	Mass fraction of acetic acid	uncertainty
0.8887	0.0894	0.0041	0.0378	0.004	0.0576	
0.7916	0.1779	0.0054	0.0598	0.0046	0.1037	
0.6925	0.256	0.0052	0.0979	0.0049	0.1694	
0.6111	0.3045	0.0045	0.1419	0.0041	0.227	

System: acetic acid + diethyl hexanedioate + water; phases: Liquid mixture 1, Liquid mixture 2
Fixed: Pressure, kPa = 101.3
Fixed: Temperature, K = 298.15
Property: Mass fraction of acetic acid (Liquid mixture 1); method: Chromatography
Mass fraction of water	Mass fraction of acetic acid	uncertainty
0.3678	0.3693	0.0048
0.4748	0.3778	0.0048
0.5403	0.3628	0.0051
0.671	0.2913	0.0052
0.7856	0.1968	0.0056
0.991	0	0.0001

System: acetic acid + diethyl hexanedioate + water; phases: Liquid mixture 1, Liquid mixture 2
Fixed: Temperature, K = 298.15
Fixed: Pressure, kPa = 101.3
Property: Mass fraction of acetic acid (Liquid mixture 1); method: Chromatography
Property: Mass fraction of water (Liquid mixture 2); method: Chromatography
Property: Mass fraction of acetic acid (Liquid mixture 2); method: Chromatography
Mass fraction of water	Mass fraction of acetic acid	uncertainty	Mass fraction of water	uncertainty	Mass fraction of acetic acid	uncertainty
0.9313	0.0578	0.004	0.0245	0.004	0.0259	
0.8549	0.13	0.0056	0.0389	0.0043	0.0608	
0.783	0.1989	0.0056	0.0511	0.0043	0.0982	
0.6955	0.2741	0.0044	0.0815	0.004	0.172	

System: diethyl butanedioate + water; phases: Liquid mixture 1, Liquid mixture 2
Property: Mass fraction of water (Liquid mixture 1); method: Chromatography
Pressure, kPa	Temperature, K	Mass fraction of water	uncertainty
101.3	298.15	0.9781	

System: diethyl glutarate + water; phases: Liquid mixture 1, Liquid mixture 2
Property: Mass fraction of water (Liquid mixture 1); method: Chromatography
Pressure, kPa	Temperature, K	Mass fraction of water	uncertainty
101.3	298.15	0.9847	

System: diethyl hexanedioate + water; phases: Liquid mixture 1, Liquid mixture 2
Property: Mass fraction of water (Liquid mixture 1); method: Chromatography
Pressure, kPa	Temperature, K	Mass fraction of water	uncertainty
101.3	298.15	0.991	
