Measured thermophysical data. Effect of Relative Humidity of Air on Density, Apparent Molar Volume, Viscosity, Surface Tension, and Water Content of 1-Ethyl-3-methylimidazolium Ethylsulfate Ionic Liquid
Source: J. Chem. Eng. Data, 2008, 10.1021/je700523b
Compound 1: water, H2O, InChI=1S/H2O/h1H2
Compound 2: 1-ethyl-3-methylimidazolium ethyl sulfate, C8H16N2O4S, InChI=1S/C6H11N2.C2H6O4S/c1-3-8-5-4-7(2)6-8;1-2-6-7(3,4)5/h4-6H,3H2,1-2H3;2H2,1H3,(H,3,4,5)/q+1;/p-1

System: water + 1-ethyl-3-methylimidazolium ethyl sulfate; phases: Liquid, Gas
Fixed: Temperature, K = 298.15
Property: Surface tension liquid-gas, N/m (Liquid); method: Pendant drop shape
Mass fraction of water	Surface tension liquid-gas, N/m	uncertainty
0.000475	0.047	0.00125
0.00754	0.04723	0.00125
0.014399	0.04801	0.00127
0.025306	0.04808	0.00126
0.030466	0.04809	0.00125
0.038486	0.04793	0.00124
0.04185	0.04814	0.00124
0.056434	0.04795	0.00122
0.069373	0.04825	0.00121
0.075187	0.04897	0.00122
0.092916	0.04935	0.00121
0.094926	0.05011	0.00123

System: water + 1-ethyl-3-methylimidazolium ethyl sulfate; phases: Liquid
Fixed: Pressure, kPa = 101
Fixed: Temperature, K = 298.15
Property: Viscosity, Pa*s (Liquid); method: SPHERE:UFactor:24
Mass fraction of water	Viscosity, Pa*s	uncertainty
0.000475	0.09185	0.04516
0.00754	0.0836	0.03476
0.014399	0.07021	0.01932
0.025306	0.06561	0.01448
0.030466	0.05578	0.00511
0.038486	0.04185	0.00785
0.04185	0.0333	0.00624
0.056434	0.03063	0.00574
0.069373	0.0248	0.00465
0.075187	0.02363	0.00443
0.092916	0.01741	0.00326
0.094926	0.01473	0.00276

System: water + 1-ethyl-3-methylimidazolium ethyl sulfate; phases: Liquid
Fixed: Pressure, kPa = 101
Fixed: Temperature, K = 298.15
Property: Mass density, kg/m3 (Liquid); method: Vibrating tube method
Mass fraction of water	Mass density, kg/m3	uncertainty
0.000475	1236.26	8.31
0.00754	1234.51	8.17
0.014399	1233.93	8.05
0.025306	1231.35	7.84
0.030466	1230	7.74
0.038486	1227.15	7.57
0.04185	1228.01	7.53
0.056434	1226.3	7.28
0.069373	1222.45	7.03
0.075187	1219.51	6.91
0.092916	1215.44	6.6
0.094926	1214.98	6.57
