Measured thermophysical data. Surface Tension of the Ternary System Water + Acetone + Toluene
Source: J. Chem. Eng. Data, 2007, 10.1021/je7000182
Compound 1: water, H2O, InChI=1S/H2O/h1H2
Compound 2: acetone, C3H6O, InChI=1S/C3H6O/c1-3(2)4/h1-2H3
Compound 3: toluene, C7H8, InChI=1S/C7H8/c1-7-5-3-2-4-6-7/h2-6H,1H3

System: acetone; phases: Liquid, Air at 1 atmosphere
Property: Surface tension liquid-gas, N/m (Liquid); method: Pendant drop shape
Temperature, K	Surface tension liquid-gas, N/m	uncertainty
288.15	0.02434	0.00031
298.15	0.02302	0.00031
308.15	0.02172	0.0003
318.15	0.02038	0.00029
328.15	0.01915	0.00029

System: acetone; phases: Liquid
Fixed: Pressure, kPa = 101
Property: Mass density, kg/m3 (Liquid); method: VIBTUB:UFactor:3
Temperature, K	Mass density, kg/m3	uncertainty
288.15	795.65	0.34
293.15	790.04	0.34
298.15	784.33	0.35
303.15	778.57	0.36
308.15	772.76	0.36
313.15	766.91	0.37
318.15	760.99	0.38
323.15	755.02	0.39
328.15	748.98	0.39

System: toluene; phases: Liquid, Air at 1 atmosphere
Property: Surface tension liquid-gas, N/m (Liquid); method: DROPSH:UFactor:2
Temperature, K	Surface tension liquid-gas, N/m	uncertainty
288.15	0.0289	0.0006
298.15	0.02776	0.00059
308.15	0.02677	0.00057
318.15	0.02572	0.00055
328.15	0.02427	0.00053

System: toluene; phases: Liquid
Fixed: Pressure, kPa = 101
Property: Mass density, kg/m3 (Liquid); method: VIBTUB:UFactor:3
Temperature, K	Mass density, kg/m3	uncertainty
288.15	871.41	0.25
293.15	866.77	0.26
298.15	862.12	0.26
303.15	857.46	0.27
308.15	852.78	0.27
313.15	848.08	0.28
318.15	843.37	0.29
323.15	838.64	0.29
328.15	833.9	0.3

System: acetone + water; phases: Liquid, Air at 1 atmosphere
Property: Surface tension liquid-gas, N/m (Liquid); method: Pendant drop shape
Temperature, K	Mole fraction of acetone	Surface tension liquid-gas, N/m	uncertainty
288.15	0	0.07349	0.00065
288.15	0.0099	0.06259	0.00057
288.15	0.05	0.04785	0.00046
288.15	0.0999	0.04032	0.00041
288.15	0.15	0.03572	0.00038
288.15	0.1999	0.03371	0.00037
288.15	0.2999	0.0306	0.00035
288.15	0.4	0.02919	0.00034
288.15	0.4999	0.02824	0.00034
288.15	0.5999	0.02729	0.00033
288.15	0.6999	0.02671	0.00033
288.15	0.7999	0.02578	0.00032
288.15	0.8999	0.02506	0.00032
288.15	1	0.02434	0.00031
298.15	0	0.07198	0.00064
298.15	0.0099	0.06104	0.00055
298.15	0.05	0.04614	0.00045
298.15	0.0999	0.03907	0.0004
298.15	0.15	0.03441	0.00037
298.15	0.1999	0.03221	0.00036
298.15	0.2999	0.02935	0.00034
298.15	0.4	0.02798	0.00034
298.15	0.4999	0.02704	0.00033
298.15	0.5999	0.02603	0.00032
298.15	0.6999	0.02544	0.00032
298.15	0.7999	0.02451	0.00032
298.15	0.8999	0.0238	0.00031
298.15	1	0.02302	0.00031
308.15	0	0.07041	0.00063
308.15	0.0099	0.05926	0.00054
308.15	0.05	0.04478	0.00044
308.15	0.0999	0.03788	0.0004
308.15	0.15	0.03313	0.00037
308.15	0.1999	0.03074	0.00035
308.15	0.2999	0.02808	0.00034
308.15	0.4	0.02678	0.00033
308.15	0.4999	0.02582	0.00032
308.15	0.5999	0.02481	0.00032
308.15	0.6999	0.02425	0.00031
308.15	0.7999	0.0232	0.00031
308.15	0.8999	0.02256	0.00031
308.15	1	0.02172	0.0003
318.15	0	0.06878	0.00061
318.15	0.0099	0.05811	0.00053
318.15	0.05	0.04374	0.00043
318.15	0.0999	0.03687	0.00039
318.15	0.15	0.03202	0.00036
318.15	0.1999	0.0294	0.00034
318.15	0.2999	0.02698	0.00033
318.15	0.4	0.02547	0.00032
318.15	0.4999	0.02453	0.00032
318.15	0.5999	0.02363	0.00031
318.15	0.6999	0.02294	0.00031
318.15	0.7999	0.02202	0.0003
318.15	0.8999	0.02119	0.0003
318.15	1	0.02038	0.00029
328.15	0	0.06709	0.0006
328.15	0.0099	0.05774	0.00053
328.15	0.05	0.04286	0.00043
328.15	0.0999	0.03571	0.00038
328.15	0.15	0.03076	0.00035
328.15	0.1999	0.02831	0.00034
328.15	0.2999	0.02568	0.00032
328.15	0.4	0.02423	0.00031
328.15	0.4999	0.02328	0.00031
328.15	0.5999	0.02226	0.0003
328.15	0.6999	0.02173	0.0003
328.15	0.7999	0.0209	0.0003
328.15	0.8999	0.02019	0.00029
328.15	1	0.01915	0.00029

System: acetone + water; phases: Liquid
Fixed: Pressure, kPa = 101
Property: Mass density, kg/m3 (Liquid); method: VIBTUB:UFactor:3
Temperature, K	Mole fraction of acetone	Mass density, kg/m3	uncertainty
288.15	0	999.12	0.14
288.15	0.0099	994.9	0.14
288.15	0.05	981.27	0.15
288.15	0.1	965.81	0.17
288.15	0.15	950.41	0.18
288.15	0.2	935.61	0.2
288.15	0.3	907.7	0.23
288.15	0.4	884.77	0.25
288.15	0.5	863.71	0.28
288.15	0.6	845.83	0.29
288.15	0.7	830.7	0.3
288.15	0.8	818.04	0.31
288.15	0.9	805.86	0.33
288.15	1	795.65	0.34
293.15	0	998.22	0.14
293.15	0.0099	993.87	0.14
293.15	0.05	979.34	0.15
293.15	0.1	962.9	0.17
293.15	0.15	946.79	0.19
293.15	0.2	931.54	0.2
293.15	0.3	903.09	0.23
293.15	0.4	879.81	0.26
293.15	0.5	858.56	0.28
293.15	0.6	840.53	0.29
293.15	0.7	825.3	0.31
293.15	0.8	812.56	0.32
293.15	0.9	800.27	0.33
293.15	1	790.04	0.34
298.15	0	997.06	0.14
298.15	0.0099	992.55	0.14
298.15	0.05	977.21	0.16
298.15	0.1	959.83	0.17
298.15	0.15	943.05	0.19
298.15	0.2	927.37	0.21
298.15	0.3	898.35	0.24
298.15	0.4	874.8	0.26
298.15	0.5	853.35	0.29
298.15	0.6	835.15	0.3
298.15	0.7	819.8	0.31
298.15	0.8	806.97	0.33
298.15	0.9	794.6	0.34
298.15	1	784.33	0.35
303.15	0	995.67	0.14
303.15	0.0099	991	0.14
303.15	0.05	974.89	0.16
303.15	0.1	956.64	0.18
303.15	0.15	939.23	0.19
303.15	0.2	923.1	0.21
303.15	0.3	893.54	0.24
303.15	0.4	869.68	0.27
303.15	0.5	848.07	0.3
303.15	0.6	829.71	0.31
303.15	0.7	814.25	0.32
303.15	0.8	801.32	0.33
303.15	0.9	788.88	0.35
303.15	1	778.57	0.36
308.15	0	994.04	0.14
308.15	0.0099	989.16	0.14
308.15	0.05	972.41	0.16
308.15	0.1	953.33	0.18
308.15	0.15	935.32	0.2
308.15	0.2	918.78	0.22
308.15	0.3	888.68	0.25
308.15	0.4	864.53	0.28
308.15	0.5	842.72	0.3
308.15	0.6	824.22	0.31
308.15	0.7	808.63	0.33
308.15	0.8	795.62	0.34
308.15	0.9	783.11	0.35
308.15	1	772.76	0.36
313.15	0	992.23	0.14
313.15	0.0099	987.26	0.15
313.15	0.05	969.77	0.16
313.15	0.1	949.91	0.18
313.15	0.15	931.31	0.2
313.15	0.2	914.37	0.22
313.15	0.3	883.75	0.25
313.15	0.4	859.33	0.28
313.15	0.5	837.31	0.31
313.15	0.6	818.66	0.32
313.15	0.7	802.96	0.33
313.15	0.8	789.84	0.35
313.15	0.9	777.29	0.36
313.15	1	766.91	0.37
318.15	0	990.23	0.14
318.15	0.0099	985.07	0.15
318.15	0.05	966.73	0.17
318.15	0.1	946.37	0.19
318.15	0.15	927.21	0.21
318.15	0.2	909.89	0.23
318.15	0.3	878.76	0.26
318.15	0.4	854.06	0.29
318.15	0.5	831.85	0.32
318.15	0.6	813.05	0.33
318.15	0.7	797.22	0.34
318.15	0.8	784.05	0.35
318.15	0.9	771.4	0.37
318.15	1	760.99	0.38
323.15	0	988.01	0.15
323.15	0.0099	982.76	0.15
323.15	0.05	963.1	0.17
323.15	0.1	942.68	0.19
323.15	0.15	923	0.21
323.15	0.2	905.19	0.23
323.15	0.3	873.7	0.26
323.15	0.4	848.74	0.29
323.15	0.5	826.32	0.32
323.15	0.6	807.35	0.33
323.15	0.7	791.42	0.35
323.15	0.8	778.16	0.36
323.15	0.9	765.46	0.37
323.15	1	755.02	0.39
328.15	0	985.69	0.15
328.15	0.0099	980.29	0.15
328.15	0.05	959.94	0.17
328.15	0.1	938.87	0.19
328.15	0.15	918.72	0.21
328.15	0.2	900.64	0.23
328.15	0.3	868.56	0.27
328.15	0.4	843.31	0.3
328.15	0.5	820.73	0.33
328.15	0.6	801.6	0.34
328.15	0.7	785.55	0.35
328.15	0.8	772.2	0.37
328.15	0.9	759.81	0.38
328.15	1	748.98	0.39

System: acetone + toluene; phases: Liquid, Air at 1 atmosphere
Property: Surface tension liquid-gas, N/m (Liquid); method: DROPSH:UFactor:2
Temperature, K	Mole fraction of acetone	Surface tension liquid-gas, N/m	uncertainty
288.15	0	0.0289	0.0006
288.15	0.1	0.02854	0.0006
288.15	0.2	0.02786	0.00059
288.15	0.3	0.02732	0.00058
288.15	0.4	0.02698	0.00057
288.15	0.5	0.02658	0.00057
288.15	0.6	0.02591	0.00056
288.15	0.6999	0.02522	0.00055
288.15	0.8	0.02468	0.00054
288.15	0.9	0.02424	0.00053
288.15	1	0.02434	0.00053
298.15	0	0.02776	0.00059
298.15	0.1	0.02742	0.00058
298.15	0.2	0.02678	0.00057
298.15	0.3	0.02627	0.00056
298.15	0.4	0.02587	0.00056
298.15	0.5	0.02526	0.00055
298.15	0.6	0.02469	0.00054
298.15	0.6999	0.02414	0.00053
298.15	0.8	0.02346	0.00052
298.15	0.9	0.02301	0.00051
298.15	1	0.02302	0.00051
308.15	0	0.02677	0.00057
308.15	0.1	0.02625	0.00056
308.15	0.2	0.02578	0.00055
308.15	0.3	0.02521	0.00055
308.15	0.4	0.02488	0.00054
308.15	0.5	0.0242	0.00053
308.15	0.6	0.02359	0.00052
308.15	0.6999	0.02292	0.00051
308.15	0.8	0.02251	0.0005
308.15	0.9	0.02183	0.00049
308.15	1	0.02172	0.00049
318.15	0	0.02572	0.00055
318.15	0.1	0.02497	0.00054
318.15	0.2	0.02475	0.00054
318.15	0.3	0.02409	0.00053
318.15	0.4	0.02374	0.00052
318.15	0.5	0.02282	0.00051
318.15	0.6	0.02267	0.00051
318.15	0.6999	0.0217	0.00049
318.15	0.8	0.02134	0.00049
318.15	0.9	0.02048	0.00048
318.15	1	0.02038	0.00047
328.15	0	0.02427	0.00053
328.15	0.1	0.02363	0.00052
328.15	0.2	0.02348	0.00052
328.15	0.3	0.02304	0.00051
328.15	0.4	0.0227	0.00051
328.15	0.5	0.02199	0.0005
328.15	0.6	0.02106	0.00048
328.15	0.6999	0.02065	0.00048
328.15	0.8	0.01995	0.00047
328.15	0.9	0.01932	0.00046
328.15	1	0.01915	0.00046

System: acetone + toluene; phases: Liquid
Fixed: Pressure, kPa = 101
Property: Mass density, kg/m3 (Liquid); method: VIBTUB:UFactor:3
Temperature, K	Mole fraction of acetone	Mass density, kg/m3	uncertainty
288.15	0	871.41	0.25
288.15	0.1	866.62	0.26
288.15	0.2	861.43	0.26
288.15	0.3	855.6	0.27
288.15	0.4	849.5	0.28
288.15	0.5	842.16	0.29
288.15	0.6	834.94	0.29
288.15	0.6999	826.67	0.3
288.15	0.8	817.43	0.31
288.15	0.9	807.56	0.32
288.15	1	795.65	0.34
293.15	0	866.77	0.26
293.15	0.1	861.94	0.26
293.15	0.2	856.62	0.27
293.15	0.3	850.69	0.28
293.15	0.4	844.49	0.28
293.15	0.5	837.08	0.29
293.15	0.6	829.76	0.3
293.15	0.6999	821.37	0.31
293.15	0.8	812.03	0.32
293.15	0.9	802.05	0.33
293.15	1	790.04	0.34
298.15	0	862.12	0.26
298.15	0.1	857.19	0.27
298.15	0.2	851.77	0.28
298.15	0.3	845.76	0.28
298.15	0.4	839.43	0.29
298.15	0.5	831.96	0.3
298.15	0.6	824.52	0.31
298.15	0.6999	816.05	0.32
298.15	0.8	806.58	0.33
298.15	0.9	796.47	0.34
298.15	1	784.33	0.35
303.15	0	857.46	0.27
303.15	0.1	852.43	0.27
303.15	0.2	846.92	0.28
303.15	0.3	840.8	0.29
303.15	0.4	834.37	0.3
303.15	0.5	826.83	0.31
303.15	0.6	819.3	0.31
303.15	0.6999	810.71	0.32
303.15	0.8	801.09	0.33
303.15	0.9	790.88	0.34
303.15	1	778.57	0.36
308.15	0	852.78	0.27
308.15	0.1	847.66	0.28
308.15	0.2	842.06	0.29
308.15	0.3	835.83	0.29
308.15	0.4	829.3	0.3
308.15	0.5	821.64	0.31
308.15	0.6	814	0.32
308.15	0.6999	805.29	0.33
308.15	0.8	795.56	0.34
308.15	0.9	785.21	0.35
308.15	1	772.76	0.36
313.15	0	848.08	0.28
313.15	0.1	842.86	0.29
313.15	0.2	837.17	0.29
313.15	0.3	830.83	0.3
313.15	0.4	824.2	0.31
313.15	0.5	816.43	0.32
313.15	0.6	808.68	0.33
313.15	0.6999	799.88	0.33
313.15	0.8	790.01	0.35
313.15	0.9	779.49	0.36
313.15	1	766.91	0.37
318.15	0	843.37	0.29
318.15	0.1	838.04	0.29
318.15	0.2	832.23	0.3
318.15	0.3	825.82	0.31
318.15	0.4	819.06	0.31
318.15	0.5	811.19	0.32
318.15	0.6	803.32	0.33
318.15	0.6999	794.39	0.34
318.15	0.8	784.39	0.35
318.15	0.9	773.74	0.36
318.15	1	760.99	0.38
323.15	0	838.64	0.29
323.15	0.1	833.22	0.3
323.15	0.2	827.29	0.3
323.15	0.3	820.75	0.31
323.15	0.4	813.89	0.32
323.15	0.5	805.91	0.33
323.15	0.6	797.91	0.34
323.15	0.6999	788.88	0.35
323.15	0.8	778.74	0.36
323.15	0.9	767.94	0.37
323.15	1	755.02	0.39
328.15	0	833.9	0.3
328.15	0.1	828.34	0.3
328.15	0.2	822.32	0.31
328.15	0.3	815.67	0.32
328.15	0.4	808.7	0.33
328.15	0.5	800.59	0.34
328.15	0.6	792.48	0.35
328.15	0.6999	783.31	0.36
328.15	0.8	773.01	0.37
328.15	0.9	762.08	0.38
328.15	1	748.98	0.39

System: acetone + toluene + water; phases: Liquid, Air at 1 atmosphere
Property: Surface tension liquid-gas, N/m (Liquid); method: Pendant drop shape
Temperature, K	Mole fraction of water	Mole fraction of acetone	Surface tension liquid-gas, N/m	uncertainty
288.15	0.015	0.9266	0.02425	0.00031
288.15	0.0301	0.7	0.0254	0.00032
288.15	0.0323	0.5057	0.02665	0.00033
288.15	0.04	0.6001	0.02596	0.00032
288.15	0.0402	0.8	0.02509	0.00032
288.15	0.0505	0.5003	0.02661	0.00033
288.15	0.0505	0.8993	0.02409	0.00031
288.15	0.0605	0.6996	0.02541	0.00032
288.15	0.0699	0.9	0.02422	0.00031
288.15	0.0701	0.6503	0.02578	0.00032
288.15	0.0891	0.7806	0.02526	0.00032
288.15	0.0994	0.8001	0.0248	0.00032
288.15	0.1001	0.7004	0.02566	0.00033
288.15	0.1005	0.6991	0.02584	0.00033
288.15	0.1089	0.88	0.02443	0.00032
288.15	0.1488	0.8497	0.02466	0.00032
288.15	0.1498	0.7002	0.02582	0.00032
288.15	0.1591	0.801	0.0251	0.00032
288.15	0.1748	0.65	0.02585	0.00032
288.15	0.1749	0.7499	0.02536	0.00032
288.15	0.2001	0.7798	0.02501	0.00032
288.15	0.2337	0.7077	0.02569	0.00032
288.15	0.245	0.65	0.02593	0.00032
288.15	0.2803	0.5997	0.02624	0.00033
288.15	0.2998	0.6702	0.02579	0.00032
288.15	0.3137	0.6077	0.02617	0.00033
288.15	0.3677	0.5402	0.02613	0.00033
288.15	0.3965	0.5995	0.02624	0.00033
288.15	0.4007	0.5593	0.02645	0.00033
288.15	0.4725	0.4776	0.02697	0.00033
288.15	0.4942	0.5007	0.02723	0.00033
288.15	0.5939	0.4	0.02771	0.00033
298.15	0.015	0.9266	0.02307	0.00031
298.15	0.0301	0.7	0.02426	0.00031
298.15	0.0323	0.5057	0.02556	0.00032
298.15	0.04	0.6001	0.0248	0.00032
298.15	0.0402	0.8	0.02401	0.00031
298.15	0.0505	0.5003	0.02551	0.00032
298.15	0.0505	0.8993	0.02274	0.00031
298.15	0.0605	0.6996	0.02426	0.00031
298.15	0.0699	0.9	0.02304	0.00031
298.15	0.0701	0.6503	0.02448	0.00032
298.15	0.0891	0.7806	0.02398	0.00031
298.15	0.0994	0.8001	0.02365	0.00031
298.15	0.1001	0.7004	0.02449	0.00032
298.15	0.1005	0.6991	0.02459	0.00032
298.15	0.1089	0.88	0.02331	0.00031
298.15	0.1488	0.8497	0.02344	0.00031
298.15	0.1498	0.7002	0.0244	0.00032
298.15	0.1591	0.801	0.02387	0.00031
298.15	0.1748	0.65	0.02485	0.00032
298.15	0.1749	0.7499	0.0242	0.00031
298.15	0.2001	0.7798	0.02369	0.00031
298.15	0.2337	0.7077	0.02456	0.00032
298.15	0.245	0.65	0.0247	0.00032
298.15	0.2803	0.5997	0.02513	0.00032
298.15	0.2998	0.6702	0.02455	0.00032
298.15	0.3137	0.6077	0.02503	0.00032
298.15	0.3677	0.5402	0.02498	0.00032
298.15	0.3965	0.5995	0.02519	0.00032
298.15	0.4007	0.5593	0.02518	0.00032
298.15	0.4725	0.4776	0.02573	0.00032
298.15	0.4942	0.5007	0.02605	0.00032
298.15	0.5939	0.4	0.02666	0.00033
308.15	0.015	0.9266	0.02165	0.0003
308.15	0.0301	0.7	0.02318	0.00031
308.15	0.0323	0.5057	0.02472	0.00032
308.15	0.04	0.6001	0.02366	0.00031
308.15	0.0402	0.8	0.02278	0.00031
308.15	0.0505	0.5003	0.02422	0.00031
308.15	0.0505	0.8993	0.02173	0.0003
308.15	0.0605	0.6996	0.02283	0.00031
308.15	0.0699	0.9	0.02188	0.0003
308.15	0.0701	0.6503	0.02333	0.00031
308.15	0.0891	0.7806	0.02272	0.00031
308.15	0.0994	0.8001	0.02239	0.0003
308.15	0.1001	0.7004	0.0233	0.00031
308.15	0.1005	0.6991	0.0235	0.00032
308.15	0.1089	0.88	0.02193	0.0003
308.15	0.1488	0.8497	0.02231	0.0003
308.15	0.1498	0.7002	0.02341	0.00031
308.15	0.1591	0.801	0.02261	0.00031
308.15	0.1748	0.65	0.02359	0.00031
308.15	0.1749	0.7499	0.02291	0.00031
308.15	0.2001	0.7798	0.02249	0.0003
308.15	0.2337	0.7077	0.02335	0.00031
308.15	0.245	0.65	0.02362	0.00031
308.15	0.2803	0.5997	0.024	0.00031
308.15	0.2998	0.6702	0.02334	0.00031
308.15	0.3137	0.6077	0.02392	0.00031
308.15	0.3677	0.5402	0.02393	0.00031
308.15	0.3965	0.5995	0.02403	0.00031
308.15	0.4007	0.5593	0.02417	0.00031
308.15	0.4725	0.4776	0.02462	0.00032
308.15	0.4942	0.5007	0.02486	0.00032
308.15	0.5939	0.4	0.02551	0.00032
318.15	0.015	0.9266	0.02058	0.00029
318.15	0.0301	0.7	0.02181	0.0003
318.15	0.0323	0.5057	0.0236	0.00031
318.15	0.04	0.6001	0.0225	0.00031
318.15	0.0402	0.8	0.02161	0.0003
318.15	0.0505	0.5003	0.02303	0.00031
318.15	0.0505	0.8993	0.02049	0.00029
318.15	0.0605	0.6996	0.02174	0.0003
318.15	0.0699	0.9	0.0204	0.00029
318.15	0.0701	0.6503	0.02221	0.0003
318.15	0.0891	0.7806	0.0214	0.0003
318.15	0.0994	0.8001	0.02111	0.0003
318.15	0.1001	0.7004	0.02204	0.0003
318.15	0.1005	0.6991	0.0223	0.00031
318.15	0.1089	0.88	0.0208	0.0003
318.15	0.1488	0.8497	0.02107	0.0003
318.15	0.1498	0.7002	0.02241	0.0003
318.15	0.1591	0.801	0.02131	0.0003
318.15	0.1748	0.65	0.02241	0.0003
318.15	0.1749	0.7499	0.02172	0.0003
318.15	0.2001	0.7798	0.02142	0.0003
318.15	0.2337	0.7077	0.02214	0.0003
318.15	0.245	0.65	0.02247	0.0003
318.15	0.2803	0.5997	0.02269	0.00031
318.15	0.2998	0.6702	0.02231	0.0003
318.15	0.3137	0.6077	0.02261	0.00031
318.15	0.3677	0.5402	0.02265	0.00031
318.15	0.3965	0.5995	0.02273	0.00031
318.15	0.4007	0.5593	0.02302	0.00031
318.15	0.4725	0.4776	0.02339	0.00031
318.15	0.4942	0.5007	0.02357	0.00031
318.15	0.5939	0.4	0.02373	0.00031
328.15	0.015	0.9266	0.01932	0.00029
328.15	0.0301	0.7	0.02075	0.0003
328.15	0.0323	0.5057	0.02232	0.0003
328.15	0.04	0.6001	0.0214	0.0003
328.15	0.0402	0.8	0.02061	0.0003
328.15	0.0505	0.5003	0.02179	0.0003
328.15	0.0505	0.8993	0.01948	0.00029
328.15	0.0605	0.6996	0.021	0.0003
328.15	0.0699	0.9	0.0195	0.00029
328.15	0.0701	0.6503	0.0211	0.0003
328.15	0.0891	0.7806	0.02059	0.00029
328.15	0.0994	0.8001	0.02032	0.00029
328.15	0.1001	0.7004	0.02098	0.0003
328.15	0.1005	0.6991	0.02109	0.0003
328.15	0.1089	0.88	0.01968	0.00029
328.15	0.1488	0.8497	0.0199	0.00029
328.15	0.1498	0.7002	0.02086	0.0003
328.15	0.1591	0.801	0.02023	0.00029
328.15	0.1748	0.65	0.02113	0.0003
328.15	0.1749	0.7499	0.02081	0.0003
328.15	0.2001	0.7798	0.02018	0.00029
328.15	0.2337	0.7077	0.02079	0.0003
328.15	0.245	0.65	0.0213	0.0003
328.15	0.2803	0.5997	0.02118	0.0003
328.15	0.2998	0.6702	0.02096	0.0003
328.15	0.3137	0.6077	0.02141	0.0003
328.15	0.3677	0.5402	0.01941	0.00029
328.15	0.3965	0.5995	0.02104	0.0003
328.15	0.4007	0.5593	0.02176	0.0003
328.15	0.4942	0.5007	0.02206	0.0003

System: acetone + toluene + water; phases: Liquid
Fixed: Pressure, kPa = 101
Property: Mass density, kg/m3 (Liquid); method: VIBTUB:UFactor:3
Temperature, K	Mole fraction of water	Mole fraction of acetone	Mass density, kg/m3	uncertainty
288.15	0.015	0.9266	804.78	0.33
288.15	0.0301	0.7	827.17	0.3
288.15	0.0323	0.5057	842.5	0.29
288.15	0.04	0.6001	835.39	0.29
288.15	0.0402	0.8	816.99	0.31
288.15	0.0505	0.5003	843.21	0.29
288.15	0.0505	0.8993	806.71	0.33
288.15	0.0605	0.6996	826.9	0.3
288.15	0.0699	0.9	806.67	0.33
288.15	0.0701	0.6503	831.43	0.3
288.15	0.0891	0.7806	819.31	0.31
288.15	0.0994	0.8001	817.33	0.31
288.15	0.1001	0.7004	827.41	0.3
288.15	0.1005	0.6991	827.48	0.3
288.15	0.1089	0.88	817.33	0.31
288.15	0.1488	0.8497	812.17	0.32
288.15	0.1498	0.7002	827.73	0.3
288.15	0.1591	0.801	817.53	0.31
288.15	0.1748	0.65	832.93	0.3
288.15	0.1749	0.7499	823.21	0.31
288.15	0.2001	0.7798	820.26	0.31
288.15	0.2337	0.7077	828.41	0.3
288.15	0.245	0.65	834.7	0.3
288.15	0.2803	0.5997	840.73	0.29
288.15	0.2998	0.6702	834.35	0.3
288.15	0.3137	0.6077	840.41	0.29
288.15	0.3677	0.5402	849.4	0.28
288.15	0.3965	0.5995	846.21	0.28
288.15	0.4007	0.5593	849.98	0.28
288.15	0.4725	0.4776	863.22	0.27
288.15	0.4942	0.5007	863.02	0.27
288.15	0.5939	0.4	883.07	0.25
293.15	0.015	0.9266	799.16	0.33
293.15	0.0301	0.7	821.83	0.31
293.15	0.0323	0.5057	837.37	0.29
293.15	0.04	0.6001	830.15	0.3
293.15	0.0402	0.8	811.54	0.32
293.15	0.0505	0.5003	838.05	0.29
293.15	0.0505	0.8993	801.12	0.33
293.15	0.0605	0.6996	821.56	0.31
293.15	0.0699	0.9	801.06	0.33
293.15	0.0701	0.6503	826.13	0.3
293.15	0.0891	0.7806	813.9	0.32
293.15	0.0994	0.8001	811.81	0.32
293.15	0.1001	0.7004	822.03	0.31
293.15	0.1005	0.6991	822.09	0.31
293.15	0.1089	0.88	811.81	0.32
293.15	0.1488	0.8497	806.59	0.33
293.15	0.1498	0.7002	822.3	0.31
293.15	0.1591	0.801	812.01	0.32
293.15	0.1748	0.65	827.57	0.3
293.15	0.1749	0.7499	817.7	0.31
293.15	0.2001	0.7798	814.74	0.32
293.15	0.2337	0.7077	822.99	0.31
293.15	0.245	0.65	829.31	0.3
293.15	0.2803	0.5997	835.42	0.3
293.15	0.2998	0.6702	828.97	0.3
293.15	0.3137	0.6077	835.07	0.3
293.15	0.3677	0.5402	844.19	0.28
293.15	0.3965	0.5995	840.9	0.29
293.15	0.4007	0.5593	844.73	0.29
293.15	0.4725	0.4776	858.04	0.27
293.15	0.4942	0.5007	857.84	0.27
293.15	0.5939	0.4	878.07	0.25
298.15	0.015	0.9266	793.54	0.34
298.15	0.0301	0.7	816.46	0.32
298.15	0.0323	0.5057	832.2	0.3
298.15	0.04	0.6001	824.88	0.31
298.15	0.0402	0.8	806.05	0.33
298.15	0.0505	0.5003	832.88	0.3
298.15	0.0505	0.8993	795.5	0.34
298.15	0.0605	0.6996	816.15	0.32
298.15	0.0699	0.9	795.43	0.34
298.15	0.0701	0.6503	820.78	0.31
298.15	0.0891	0.7806	808.38	0.32
298.15	0.0994	0.8001	806.28	0.33
298.15	0.1001	0.7004	816.59	0.31
298.15	0.1005	0.6991	816.67	0.32
298.15	0.1089	0.88	806.28	0.33
298.15	0.1488	0.8497	800.96	0.33
298.15	0.1498	0.7002	816.84	0.32
298.15	0.1591	0.801	806.41	0.33
298.15	0.1748	0.65	822.17	0.31
298.15	0.1749	0.7499	812.2	0.32
298.15	0.2001	0.7798	809.17	0.32
298.15	0.2337	0.7077	817.43	0.31
298.15	0.245	0.65	823.89	0.31
298.15	0.2803	0.5997	830.07	0.3
298.15	0.2998	0.6702	823.48	0.31
298.15	0.3137	0.6077	829.69	0.3
298.15	0.3677	0.5402	838.93	0.29
298.15	0.3965	0.5995	835.54	0.3
298.15	0.4007	0.5593	839.41	0.29
298.15	0.4725	0.4776	852.82	0.28
298.15	0.4942	0.5007	852.63	0.28
298.15	0.5939	0.4	873.06	0.26
303.15	0.015	0.9266	787.86	0.35
303.15	0.0301	0.7	811.06	0.32
303.15	0.0323	0.5057	827.02	0.31
303.15	0.04	0.6001	819.58	0.31
303.15	0.0402	0.8	800.51	0.33
303.15	0.0505	0.5003	827.67	0.3
303.15	0.0505	0.8993	789.85	0.35
303.15	0.0605	0.6996	810.71	0.32
303.15	0.0699	0.9	789.74	0.35
303.15	0.0701	0.6503	815.38	0.32
303.15	0.0891	0.7806	802.81	0.33
303.15	0.0994	0.8001	800.69	0.33
303.15	0.1001	0.7004	811.11	0.32
303.15	0.1005	0.6991	811.18	0.32
303.15	0.1089	0.88	800.69	0.33
303.15	0.1488	0.8497	795.27	0.34
303.15	0.1498	0.7002	811.34	0.32
303.15	0.1591	0.801	800.76	0.33
303.15	0.1748	0.65	816.7	0.32
303.15	0.1749	0.7499	806.62	0.33
303.15	0.2001	0.7798	803.54	0.33
303.15	0.2337	0.7077	811.86	0.32
303.15	0.245	0.65	818.41	0.31
303.15	0.2803	0.5997	824.66	0.31
303.15	0.2998	0.6702	817.91	0.31
303.15	0.3137	0.6077	824.27	0.31
303.15	0.3677	0.5402	833.61	0.3
303.15	0.3965	0.5995	830.11	0.3
303.15	0.4007	0.5593	834.04	0.3
303.15	0.4725	0.4776	847.53	0.28
303.15	0.4942	0.5007	847.33	0.29
303.15	0.5939	0.4	867.97	0.26
308.15	0.015	0.9266	782.15	0.35
308.15	0.0301	0.7	805.65	0.33
308.15	0.0323	0.5057	821.79	0.31
308.15	0.04	0.6001	814.26	0.32
308.15	0.0402	0.8	794.93	0.34
308.15	0.0505	0.5003	822.43	0.31
308.15	0.0505	0.8993	784.11	0.35
308.15	0.0605	0.6996	805.23	0.33
308.15	0.0699	0.9	783.99	0.35
308.15	0.0701	0.6503	809.94	0.32
308.15	0.0891	0.7806	797.21	0.34
308.15	0.0994	0.8001	795.07	0.34
308.15	0.1001	0.7004	805.59	0.33
308.15	0.1005	0.6991	805.7	0.33
308.15	0.1089	0.88	795.07	0.34
308.15	0.1488	0.8497	789.54	0.35
308.15	0.1498	0.7002	805.78	0.33
308.15	0.1591	0.801	795.08	0.34
308.15	0.1748	0.65	811.19	0.32
308.15	0.1749	0.7499	801.01	0.33
308.15	0.2001	0.7798	797.87	0.34
308.15	0.2337	0.7077	806.24	0.33
308.15	0.245	0.65	812.89	0.32
308.15	0.2803	0.5997	819.2	0.31
308.15	0.2998	0.6702	812.35	0.32
308.15	0.3137	0.6077	818.78	0.32
308.15	0.3677	0.5402	828.24	0.3
308.15	0.3965	0.5995	824.63	0.31
308.15	0.4007	0.5593	828.63	0.3
308.15	0.4725	0.4776	842.18	0.29
308.15	0.4942	0.5007	841.98	0.29
308.15	0.5939	0.4	862.8	0.27
313.15	0.015	0.9266	776.4	0.36
313.15	0.0301	0.7	800.14	0.33
313.15	0.0323	0.5057	816.55	0.32
313.15	0.04	0.6001	808.89	0.33
313.15	0.0402	0.8	789.32	0.35
313.15	0.0505	0.5003	817.16	0.32
313.15	0.0505	0.8993	778.34	0.36
313.15	0.0605	0.6996	799.73	0.34
313.15	0.0699	0.9	778.21	0.36
313.15	0.0701	0.6503	804.47	0.33
313.15	0.0891	0.7806	791.56	0.34
313.15	0.0994	0.8001	789.38	0.35
313.15	0.1001	0.7004	800.03	0.33
313.15	0.1005	0.6991	800.12	0.34
313.15	0.1089	0.88	789.38	0.35
313.15	0.1488	0.8497	783.75	0.35
313.15	0.1498	0.7002	800.21	0.34
313.15	0.1591	0.801	789.32	0.35
313.15	0.1748	0.65	805.63	0.33
313.15	0.1749	0.7499	795.32	0.34
313.15	0.2001	0.7798	792.13	0.34
313.15	0.2337	0.7077	800.57	0.34
313.15	0.245	0.65	807.3	0.33
313.15	0.2803	0.5997	813.68	0.32
313.15	0.2998	0.6702	806.7	0.33
313.15	0.3137	0.6077	813.22	0.32
313.15	0.3677	0.5402	822.79	0.31
313.15	0.3965	0.5995	819.08	0.32
313.15	0.4007	0.5593	823.14	0.31
313.15	0.4725	0.4776	836.78	0.3
313.15	0.4942	0.5007	836.6	0.3
313.15	0.5939	0.4	857.6	0.27
318.15	0.015	0.9266	770.59	0.37
318.15	0.0301	0.7	794.64	0.34
318.15	0.0323	0.5057	811.23	0.32
318.15	0.04	0.6001	803.47	0.33
318.15	0.0402	0.8	783.65	0.35
318.15	0.0505	0.5003	811.85	0.32
318.15	0.0505	0.8993	772.51	0.37
318.15	0.0605	0.6996	794.18	0.34
318.15	0.0699	0.9	772.36	0.37
318.15	0.0701	0.6503	798.94	0.34
318.15	0.0891	0.7806	785.86	0.35
318.15	0.0994	0.8001	783.65	0.35
318.15	0.1001	0.7004	794.43	0.34
318.15	0.1005	0.6991	794.51	0.34
318.15	0.1089	0.88	783.65	0.35
318.15	0.1488	0.8497	777.9	0.36
318.15	0.1498	0.7002	794.53	0.34
318.15	0.1591	0.801	783.52	0.35
318.15	0.1748	0.65	800.02	0.34
318.15	0.1749	0.7499	789.59	0.35
318.15	0.2001	0.7798	786.36	0.35
318.15	0.2337	0.7077	794.85	0.34
318.15	0.245	0.65	801.66	0.33
318.15	0.2803	0.5997	808.1	0.33
318.15	0.2998	0.6702	801.02	0.33
318.15	0.3137	0.6077	807.62	0.33
318.15	0.3677	0.5402	817.29	0.32
318.15	0.3965	0.5995	813.48	0.32
318.15	0.4007	0.5593	817.59	0.32
318.15	0.4725	0.4776	831.31	0.3
318.15	0.4942	0.5007	831.09	0.3
318.15	0.5939	0.4	852.33	0.28
323.15	0.015	0.9266	764.72	0.37
323.15	0.0301	0.7	789.04	0.35
323.15	0.0323	0.5057	805.89	0.33
323.15	0.04	0.6001	798	0.34
323.15	0.0402	0.8	777.92	0.36
323.15	0.0505	0.5003	806.48	0.33
323.15	0.0505	0.8993	766.62	0.37
323.15	0.0605	0.6996	788.55	0.35
323.15	0.0699	0.9	766.46	0.37
323.15	0.0701	0.6503	793.37	0.34
323.15	0.0891	0.7806	780.1	0.36
323.15	0.0994	0.8001	777.84	0.36
323.15	0.1001	0.7004	788.76	0.35
323.15	0.1005	0.6991	788.84	0.35
323.15	0.1089	0.88	777.84	0.36
323.15	0.1488	0.8497	771.98	0.37
323.15	0.1498	0.7002	788.83	0.35
323.15	0.1591	0.801	777.67	0.36
323.15	0.1748	0.65	794.35	0.34
323.15	0.1749	0.7499	783.76	0.35
323.15	0.2001	0.7798	780.48	0.36
323.15	0.2337	0.7077	789.02	0.35
323.15	0.245	0.65	795.95	0.34
323.15	0.2803	0.5997	802.44	0.33
323.15	0.2998	0.6702	795.23	0.34
323.15	0.3137	0.6077	801.94	0.34
323.15	0.3677	0.5402	811.74	0.32
323.15	0.3965	0.5995	807.8	0.33
323.15	0.4007	0.5593	811.97	0.32
323.15	0.4725	0.4776	825.78	0.31
323.15	0.4942	0.5007	825.55	0.31
323.15	0.5939	0.4	846.99	0.29
328.15	0.015	0.9266	758.81	0.38
328.15	0.0301	0.7	783.4	0.36
328.15	0.0323	0.5057	800.52	0.34
328.15	0.04	0.6001	792.51	0.35
328.15	0.0402	0.8	772.14	0.37
328.15	0.0505	0.5003	801.08	0.34
328.15	0.0505	0.8993	760.69	0.38
328.15	0.0605	0.6996	782.89	0.36
328.15	0.0699	0.9	760.4	0.38
328.15	0.0701	0.6503	787.76	0.35
328.15	0.0891	0.7806	774.29	0.36
328.15	0.0994	0.8001	771.99	0.37
328.15	0.1001	0.7004	783.03	0.35
328.15	0.1005	0.6991	783.11	0.35
328.15	0.1089	0.88	771.99	0.37
328.15	0.1488	0.8497	766.02	0.37
328.15	0.1498	0.7002	783.04	0.36
328.15	0.1591	0.801	771.75	0.37
328.15	0.1748	0.65	788.61	0.35
328.15	0.1749	0.7499	777.9	0.36
328.15	0.2001	0.7798	774.54	0.36
328.15	0.2337	0.7077	783.18	0.36
328.15	0.245	0.65	790.19	0.35
328.15	0.2803	0.5997	796.74	0.34
328.15	0.2998	0.6702	789.4	0.35
328.15	0.3137	0.6077	796.17	0.34
328.15	0.3677	0.5402	806.15	0.33
328.15	0.3965	0.5995	802.07	0.34
328.15	0.4007	0.5593	806.28	0.33
328.15	0.4725	0.4776	820.1	0.32
328.15	0.4942	0.5007	819.95	0.32
328.15	0.5939	0.4	841.58	0.29
