Measured thermophysical data. Viscosities, Vapor Pressures, and Excess Enthalpies of Choline Lactate + Water, Choline Glycolate + Water, and Choline Methanesulfonate + Water Systems
Source: J. Chem. Eng. Data, 2007, 10.1021/je7000232
Compound 1: choline lactate, C8H19NO4, InChI=1S/C5H14NO.C3H6O3/c1-6(2,3)4-5-7;1-2(4)3(5)6/h7H,4-5H2,1-3H3;2,4H,1H3,(H,5,6)/q+1;/p-1
Compound 2: choline glycolate, C7H17NO4, InChI=1S/C5H14NO.C2H4O3/c1-6(2,3)4-5-7;3-1-2(4)5/h7H,4-5H2,1-3H3;3H,1H2,(H,4,5)/q+1;/p-1
Compound 3: choline methanesulfonate, C6H17NO4S, InChI=1S/C5H14NO.CH4O3S/c1-6(2,3)4-5-7;1-5(2,3)4/h7H,4-5H2,1-3H3;1H3,(H,2,3,4)/q+1;/p-1
Compound 4: water, H2O, InChI=1S/H2O/h1H2

System: water; phases: Liquid, Gas
Property: Vapor or sublimation pressure, kPa (Liquid); method: Closed cell (Static) method
Temperature, K	Vapor or sublimation pressure, kPa	uncertainty
303.15	4.24	0.33
313.15	7.38	0.33
323.15	12.34	0.35

System: water + choline lactate; phases: Liquid
Fixed: Pressure, kPa = 101
Fixed: Temperature, K = 293.15
Property: Viscosity, Pa*s (Liquid); method: Capillary tube (Ostwald; Ubbelohde) method
Mole fraction of water	Viscosity, Pa*s	uncertainty
0.0272	5.85	3.5
0.382	0.94	0.438
0.546	0.336	0.094
0.731	0.075	0.01
0.878	0.0125	0.0011
0.915	0.0065	0.0004
0.941	0.0039	0.0003

System: water + choline lactate; phases: Liquid
Fixed: Pressure, kPa = 101
Property: Excess molar enthalpy (molar enthalpy of mixing), kJ/mol (Liquid); method: POWC:UFactor:8
Temperature, K	Mole fraction of water	Excess molar enthalpy (molar enthalpy of mixing), kJ/mol	uncertainty
303.15	0.1585	-3.923	0.322
303.15	0.2269	-6.323	0.514
303.15	0.3051	-8.527	0.69
303.15	0.3528	-10.059	0.813
303.15	0.4853	-14.022	1.13
303.15	0.671	-17.243	1.387
303.15	0.8719	-18.29	1.471
303.15	0.9078	-14.847	1.196
303.15	0.9751	-7.845	0.636
303.15	0.9878	-2.529	0.21
313.15	0.1687	-3.023	0.25
313.15	0.2123	-4.595	0.376
313.15	0.3065	-6.56	0.533
313.15	0.3943	-8.836	0.715
313.15	0.5019	-10.885	0.879
313.15	0.603	-12.137	0.979
313.15	0.738	-13.791	1.111
313.15	0.8794	-14.581	1.174
313.15	0.9535	-10.331	0.834
313.15	0.9769	-6.484	0.527
323.15	0.16	-1.541	0.131
323.15	0.2662	-2.716	0.225
323.15	0.331	-3.583	0.295
323.15	0.5059	-6.469	0.526
323.15	0.6257	-8.997	0.728
323.15	0.7785	-10.864	0.877
323.15	0.8805	-8.764	0.709
323.15	0.9555	-4.596	0.376
323.15	0.9884	-1.001	0.088

System: water + choline lactate; phases: Liquid, Gas
Property: Vapor or sublimation pressure, kPa (Liquid); method: Closed cell (Static) method
Temperature, K	Mole fraction of water	Vapor or sublimation pressure, kPa	uncertainty
303.15	0.1978	0.22	0.16
303.15	0.2776	0.37	0.16
303.15	0.3449	0.41	0.16
303.15	0.4196	0.53	0.16
303.15	0.4818	0.65	0.16
303.15	0.572	0.96	0.16
303.15	0.6591	1.35	0.16
303.15	0.7309	1.74	0.16
303.15	0.8135	2.34	0.16
303.15	0.9175	3.44	0.17
303.15	0.9698	4.06	0.17
303.15	1	4.24	0.17
313.15	0.1974	0.3	0.16
313.15	0.2772	0.44	0.16
313.15	0.3439	0.67	0.16
313.15	0.4188	0.9	0.16
313.15	0.4807	1.14	0.16
313.15	0.571	1.58	0.16
313.15	0.6583	2.18	0.16
313.15	0.7301	2.85	0.16
313.15	0.813	3.94	0.17
313.15	0.9174	5.93	0.18
313.15	0.9698	7	0.18
313.15	1	7.38	0.18
323.15	0.1973	0.46	0.16
323.15	0.2771	0.74	0.16
323.15	0.3442	1	0.16
323.15	0.4185	1.35	0.16
323.15	0.4806	1.72	0.16
323.15	0.5709	2.43	0.16
323.15	0.6582	3.37	0.17
323.15	0.8129	6.33	0.18
323.15	0.9173	9.75	0.2
323.15	0.9697	11.67	0.21
323.15	1	12.34	0.21
323.15	0.6582	3.37	0.17
323.15	0.6582	3.37	0.17

System: water + choline glycolate; phases: Liquid
Fixed: Pressure, kPa = 101
Fixed: Temperature, K = 293.15
Property: Viscosity, Pa*s (Liquid); method: Capillary tube (Ostwald; Ubbelohde) method
Mole fraction of water	Viscosity, Pa*s	uncertainty
0.366	0.66	0.258
0.536	0.209	0.046
0.718	0.0532	0.0063
0.813	0.0199	0.0016
0.871	0.0092	0.0006
0.937	0.0033	0.0002

System: water + choline glycolate; phases: Liquid
Fixed: Pressure, kPa = 101
Property: Excess molar enthalpy (molar enthalpy of mixing), kJ/mol (Liquid); method: POWC:UFactor:8
Temperature, K	Mole fraction of water	Excess molar enthalpy (molar enthalpy of mixing), kJ/mol	uncertainty
303.15	0.3483	-3.092	0.255
303.15	0.43	-3.932	0.323
303.15	0.4573	-4.087	0.335
303.15	0.5174	-4.642	0.379
303.15	0.602	-5.375	0.438
303.15	0.6513	-5.689	0.463
303.15	0.7001	-6.245	0.508
303.15	0.7959	-6.319	0.514
303.15	0.8916	-5.82	0.474
303.15	0.9543	-4.195	0.344
313.15	0.34	-2.018	0.169
313.15	0.3792	-2.268	0.189
313.15	0.4264	-2.438	0.203
313.15	0.4739	-2.574	0.214
313.15	0.5268	-2.954	0.244
313.15	0.6185	-3.247	0.268
313.15	0.7391	-3.534	0.291
313.15	0.8041	-3.718	0.305
313.15	0.9032	-1.5	0.128
313.15	0.933	-1.002	0.088
313.15	0.9748	-0.472	0.046
323.15	0.3425	-0.993	0.087
323.15	0.3674	-1.151	0.1
323.15	0.4192	-1.294	0.112
323.15	0.5692	-1.721	0.146
323.15	0.6811	-2.005	0.168
323.15	0.774	-2.207	0.185
323.15	0.8726	-2.377	0.198
323.15	0.9543	-1.992	0.167
323.15	0.9816	-1.151	0.1

System: water + choline glycolate; phases: Liquid, Gas
Property: Vapor or sublimation pressure, kPa (Liquid); method: Closed cell (Static) method
Temperature, K	Mole fraction of water	Vapor or sublimation pressure, kPa	uncertainty
303.15	0.3379	0.12	0.16
303.15	0.3987	0.16	0.16
303.15	0.446	0.21	0.16
303.15	0.5026	0.24	0.16
303.15	0.5571	0.36	0.16
303.15	0.63	0.49	0.16
303.15	0.6951	0.66	0.16
303.15	0.758	0.98	0.16
303.15	0.8286	1.52	0.16
303.15	0.9216	2.91	0.17
303.15	0.9669	3.81	0.17
303.15	1	4.24	0.17
313.15	0.3369	0.21	0.16
313.15	0.3988	0.29	0.16
313.15	0.4458	0.37	0.16
313.15	0.5024	0.47	0.16
313.15	0.5569	0.59	0.16
313.15	0.63	0.89	0.16
313.15	0.6951	1.26	0.16
313.15	0.758	1.85	0.16
313.15	0.8286	2.81	0.16
313.15	0.9216	5.21	0.17
313.15	0.9669	6.7	0.18
313.15	1	7.38	0.18
323.15	0.3272	0.45	0.16
323.15	0.3917	0.53	0.16
323.15	0.4413	0.69	0.16
323.15	0.5	0.91	0.16
323.15	0.5556	1.16	0.16
323.15	0.6293	1.68	0.16
323.15	0.6947	2.35	0.16
323.15	0.8286	5.02	0.17
323.15	0.9216	8.92	0.19
323.15	0.9669	11.28	0.21
323.15	1	12.34	0.21
323.15	0.6947	2.35	0.16
323.15	0.6947	2.35	0.16

System: water + choline methanesulfonate; phases: Liquid, Gas
Property: Vapor or sublimation pressure, kPa (Liquid); method: Closed cell (Static) method
Temperature, K	Mole fraction of water	Vapor or sublimation pressure, kPa	uncertainty
303.15	0.6603	0.93	0.16
303.15	0.6788	1.02	0.16
303.15	0.6957	1.1	0.16
303.15	0.7092	1.2	0.16
303.15	0.7247	1.31	0.16
303.15	0.7653	1.55	0.16
303.15	0.7969	1.82	0.16
303.15	0.8303	2.15	0.16
303.15	0.8727	2.69	0.17
303.15	0.9374	3.61	0.17
303.15	0.9716	4.08	0.17
303.15	1	4.24	0.17
313.15	0.659	1.85	0.16
313.15	0.6782	2	0.16
313.15	0.695	2.16	0.16
313.15	0.7087	2.27	0.16
313.15	0.7242	2.5	0.16
313.15	0.765	2.97	0.17
313.15	0.7967	3.42	0.17
313.15	0.8301	4.01	0.17
313.15	0.8727	4.86	0.17
313.15	0.9374	6.38	0.18
313.15	0.9716	7.08	0.18
313.15	1	7.38	0.18
323.15	0.6561	3	0.16
323.15	0.6755	3.33	0.17
323.15	0.6932	3.56	0.17
323.15	0.7074	3.81	0.17
323.15	0.7232	4.04	0.17
323.15	0.7644	4.92	0.17
323.15	0.7964	5.72	0.17
323.15	0.8725	8.13	0.19
323.15	0.9374	10.64	0.2
323.15	0.9716	11.77	0.21
323.15	1	12.34	0.21
323.15	0.7964	5.72	0.17
323.15	0.7964	5.72	0.17
