Measured thermophysical data. Solubilities of 2-(6-Oxido-6H-dibenz[c,e][1,2]oxaphosphorin-6-yl)-1,4-dihydroxy Phenylene in the Selected Solvents
Source: J. Chem. Eng. Data, 2008, 10.1021/je700404u
Compound 1: 2-(6-oxido-6H-dibenz[c,e][1,2]oxaphosphorin-6-yl)-1,4-dihydroxy phenylene, C18H13O4P, InChI=1S/C18H13O4P/c19-12-9-10-15(20)18(11-12)23(21)17-8-4-2-6-14(17)13-5-1-3-7-16(13)22-23/h1-11,19-20H
Compound 2: 2-ethoxyethan-1-ol, C4H10O2, InChI=1S/C4H10O2/c1-2-6-4-3-5/h5H,2-4H2,1H3, purity 99.5%
Compound 3: acetone, C3H6O, InChI=1S/C3H6O/c1-3(2)4/h1-2H3, purity 99.5%
Compound 4: ethanol, C2H6O, InChI=1S/C2H6O/c1-2-3/h3H,2H2,1H3, purity 99.7%
Compound 5: methanol, CH4O, InChI=1S/CH4O/c1-2/h2H,1H3, purity 99.5%
Compound 6: water, H2O, InChI=1S/H2O/h1H2

System: 2-(6-oxido-6H-dibenz[c,e][1,2]oxaphosphorin-6-yl)-1,4-dihydroxy phenylene; phases: Crystal, Liquid, Air at 1 atmosphere
Property: Molar enthalpy of transition or fusion, kJ/mol (Crystal); method: DSC
Molar enthalpy of transition or fusion, kJ/mol	uncertainty
41.7007594766	1.1349351335

System: 2-(6-oxido-6H-dibenz[c,e][1,2]oxaphosphorin-6-yl)-1,4-dihydroxy phenylene; phases: Crystal, Liquid, Air at 1 atmosphere
Property: Normal melting temperature, K (Crystal); method: DTA
Normal melting temperature, K	uncertainty
524.07	0.5

System: 2-ethoxyethan-1-ol; phases: Liquid
Property: Refractive index (Na D-line) (Liquid); method: Standard Abbe refractometry
Temperature, K	Pressure, kPa	Refractive index (Na D-line)	uncertainty
293.15	101.325	1.4065	0.0007

System: 2-ethoxyethan-1-ol; phases: Liquid
Property: Mass density, kg/m3 (Liquid); method: VIBTUB:UFactor:4
Temperature, K	Pressure, kPa	Mass density, kg/m3	uncertainty
293.15	101.325	929	1

System: acetone; phases: Liquid
Property: Refractive index (Na D-line) (Liquid); method: Standard Abbe refractometry
Temperature, K	Pressure, kPa	Refractive index (Na D-line)	uncertainty
293.15	101.325	1.359	0.0007

System: acetone; phases: Liquid
Property: Mass density, kg/m3 (Liquid); method: VIBTUB:UFactor:4
Temperature, K	Pressure, kPa	Mass density, kg/m3	uncertainty
293.15	101.325	790	1

System: ethanol; phases: Liquid
Property: Refractive index (Na D-line) (Liquid); method: Standard Abbe refractometry
Temperature, K	Pressure, kPa	Refractive index (Na D-line)	uncertainty
293.15	101.325	1.3619	0.0007

System: ethanol; phases: Liquid
Property: Mass density, kg/m3 (Liquid); method: VIBTUB:UFactor:4
Temperature, K	Pressure, kPa	Mass density, kg/m3	uncertainty
293.15	101.325	789	1

System: methanol; phases: Liquid
Property: Refractive index (Na D-line) (Liquid); method: Standard Abbe refractometry
Temperature, K	Pressure, kPa	Refractive index (Na D-line)	uncertainty
293.15	101.325	1.3287	0.0007

System: methanol; phases: Liquid
Property: Mass density, kg/m3 (Liquid); method: VIBTUB:UFactor:4
Temperature, K	Pressure, kPa	Mass density, kg/m3	uncertainty
293.15	101.325	791	1

System: methanol + 2-(6-oxido-6H-dibenz[c,e][1,2]oxaphosphorin-6-yl)-1,4-dihydroxy phenylene; phases: Liquid, Crystal
Fixed: Pressure, kPa = 101
Property: Mole fraction of 2-(6-oxido-6H-dibenz[c,e][1,2]oxaphosphorin-6-yl)-1,4-dihydroxy phenylene (Liquid); method: Gravimetric Method
Temperature, K	Mole fraction of 2-(6-oxido-6H-dibenz[c,e][1,2]oxaphosphorin-6-yl)-1,4-dihydroxy phenylene	uncertainty
293.15	0.00107	5e-05
298	0.00128	6e-05
302.9	0.0015	7e-05
307.85	0.00182	8e-05
312.84	0.00227	0.0001
317.6	0.0026	0.00012
322.63	0.00292	0.00013

System: 2-ethoxyethan-1-ol + 2-(6-oxido-6H-dibenz[c,e][1,2]oxaphosphorin-6-yl)-1,4-dihydroxy phenylene; phases: Liquid, Crystal
Fixed: Pressure, kPa = 101
Property: Mole fraction of 2-(6-oxido-6H-dibenz[c,e][1,2]oxaphosphorin-6-yl)-1,4-dihydroxy phenylene (Liquid); method: Gravimetric Method.
Temperature, K	Mole fraction of 2-(6-oxido-6H-dibenz[c,e][1,2]oxaphosphorin-6-yl)-1,4-dihydroxy phenylene	uncertainty
293.15	0.000896	3.7e-05
298.15	0.0012	5e-05
302.98	0.00157	6e-05
308	0.00207	8e-05
313	0.00248	0.0001
317.8	0.00347	0.00014
322.7	0.00439	0.00018
327.65	0.00556	0.00023
332.65	0.00702	0.00029
337.6	0.00896	0.00037
342.58	0.0109	0.0004
347.4	0.0134	0.0006
352.83	0.0168	0.0007
357.7	0.0207	0.0008
362.67	0.0249	0.001
367.65	0.0301	0.0012

System: acetone + 2-(6-oxido-6H-dibenz[c,e][1,2]oxaphosphorin-6-yl)-1,4-dihydroxy phenylene; phases: Liquid, Crystal
Fixed: Pressure, kPa = 101
Property: Mole fraction of 2-(6-oxido-6H-dibenz[c,e][1,2]oxaphosphorin-6-yl)-1,4-dihydroxy phenylene (Liquid); method: Gravimetric Method.
Temperature, K	Mole fraction of 2-(6-oxido-6H-dibenz[c,e][1,2]oxaphosphorin-6-yl)-1,4-dihydroxy phenylene	uncertainty
292.15	0.00153	6e-05
297.15	0.00182	8e-05
302.15	0.00226	0.0001
307.85	0.00304	0.00013
312.9	0.0037	0.00016
317.65	0.00427	0.00018
322.6	0.00551	0.00023

System: ethanol + 2-(6-oxido-6H-dibenz[c,e][1,2]oxaphosphorin-6-yl)-1,4-dihydroxy phenylene; phases: Liquid, Crystal
Fixed: Pressure, kPa = 101
Property: Mole fraction of 2-(6-oxido-6H-dibenz[c,e][1,2]oxaphosphorin-6-yl)-1,4-dihydroxy phenylene (Liquid); method: Gravimetric Method.
Temperature, K	Mole fraction of 2-(6-oxido-6H-dibenz[c,e][1,2]oxaphosphorin-6-yl)-1,4-dihydroxy phenylene	uncertainty
293.15	0.00205	9e-05
298.1	0.00224	0.0001
303.05	0.00241	0.0001
307.95	0.0027	0.00012
312.95	0.00282	0.00012
317.8	0.00309	0.00013
322.8	0.00332	0.00014
327.85	0.00352	0.00015

System: water + 2-(6-oxido-6H-dibenz[c,e][1,2]oxaphosphorin-6-yl)-1,4-dihydroxy phenylene; phases: Liquid, Crystal
Fixed: Pressure, kPa = 101
Property: Mole fraction of 2-(6-oxido-6H-dibenz[c,e][1,2]oxaphosphorin-6-yl)-1,4-dihydroxy phenylene (Liquid); method: Gravimetric Method.
Temperature, K	Mole fraction of 2-(6-oxido-6H-dibenz[c,e][1,2]oxaphosphorin-6-yl)-1,4-dihydroxy phenylene	uncertainty
303	0.139	0.008
307.95	0.143	0.009
312.85	0.151	0.009
317.6	0.155	0.009
322.45	0.165	0.01
327.65	0.168	0.01
332.5	0.175	0.011
337.55	0.184	0.011
342.35	0.189	0.012

System: 2-ethoxyethan-1-ol + water + 2-(6-oxido-6H-dibenz[c,e][1,2]oxaphosphorin-6-yl)-1,4-dihydroxy phenylene; phases: Liquid, Crystal
Fixed: Pressure, kPa = 101
Property: Mole fraction of 2-(6-oxido-6H-dibenz[c,e][1,2]oxaphosphorin-6-yl)-1,4-dihydroxy phenylene (Liquid); method: Gravimetric Method.
Temperature, K	Solvent: Mass fraction of 2-ethoxyethan-1-ol	Mole fraction of 2-(6-oxido-6H-dibenz[c,e][1,2]oxaphosphorin-6-yl)-1,4-dihydroxy phenylene	uncertainty
293.25	0.6032	0.000496	5e-05
293.3	0.8043	0.000759	7.6e-05
298.2	0.4012	0.000149	1.5e-05
298.2	0.6032	0.000593	5.9e-05
298.25	0.1983	0.000136	1.4e-05
298.3	0.8043	0.000982	9.9e-05
303.1	0.4012	0.0002	2e-05
303.2	0.1983	0.000151	1.5e-05
303.2	0.8043	0.00129	0.00013
304.4	0.6032	0.00075	7.5e-05
308.05	0.1983	0.000172	1.7e-05
308.05	0.4012	0.000242	2.4e-05
308.05	0.6032	0.00083	8.3e-05
308.35	0.8043	0.00171	0.00017
312.9	0.4012	0.000293	2.9e-05
313	0.1983	0.000202	2e-05
313	0.6032	0.000981	9.8e-05
313.05	0.8043	0.00211	0.00021
317.85	0.1983	0.000229	2.3e-05
317.85	0.4012	0.00033	3.3e-05
317.95	0.6032	0.00119	0.00012
317.95	0.8043	0.0027	0.00027
322.75	0.1983	0.000297	3e-05
322.75	0.4012	0.000405	4.1e-05
322.95	0.6032	0.00143	0.00014
322.95	0.8043	0.00316	0.00032
327.65	0.1983	0.00034	3.4e-05
327.85	0.8043	0.00416	0.00042
327.9	0.4012	0.000504	5.1e-05
327.9	0.6032	0.00169	0.00017
332.65	0.1983	0.00043	4.3e-05
332.85	0.4012	0.000619	6.2e-05
332.85	0.6032	0.00205	0.00021
332.9	0.8043	0.00547	0.00055
337.6	0.1983	0.000492	4.9e-05
337.7	0.4012	0.000726	7.3e-05
337.85	0.6032	0.00243	0.00024
337.9	0.8043	0.00694	0.0007
342.55	0.1983	0.000551	5.5e-05
342.6	0.4012	0.000878	8.9e-05
342.8	0.6032	0.00292	0.00029
342.85	0.8043	0.00846	0.00085
