Measured thermophysical data. Solubility of Losartan Potassium in Different Pure Solvents from (293.15 to 343.15) K
Source: J. Chem. Eng. Data, 2008, 10.1021/je7007236
Compound 1: methanol, CH4O, InChI=1S/CH4O/c1-2/h2H,1H3, purity 99.5%
Compound 2: ethanol, C2H6O, InChI=1S/C2H6O/c1-2-3/h3H,2H2,1H3, purity 99.5%
Compound 3: propan-1-ol, C3H8O, InChI=1S/C3H8O/c1-2-3-4/h4H,2-3H2,1H3, purity 99.5%
Compound 4: propan-2-ol, C3H8O, InChI=1S/C3H8O/c1-3(2)4/h3-4H,1-2H3, purity 99.5%
Compound 5: pentan-1-ol, C5H12O, InChI=1S/C5H12O/c1-2-3-4-5-6/h6H,2-5H2,1H3, purity 99.5%
Compound 6: ethyl acetate, C4H8O2, InChI=1S/C4H8O2/c1-3-6-4(2)5/h3H2,1-2H3, purity 99.5%
Compound 7: butyl ethanoate, C6H12O2, InChI=1S/C6H12O2/c1-3-4-5-8-6(2)7/h3-5H2,1-2H3, purity 99.5%
Compound 8: cyclohexane, C6H12, InChI=1S/C6H12/c1-2-4-6-5-3-1/h1-6H2, purity 99.5%
Compound 9: Losartan potassium, C22H22ClKN6O, InChI=1S/C22H22ClN6O.K/c1-2-3-8-20-24-21(23)19(14-30)29(20)13-15-9-11-16(12-10-15)17-6-4-5-7-18(17)22-25-27-28-26-22;/h4-7,9-12,30H,2-3,8,13-14H2,1H3;/q-1;+1, purity 96%

System: methanol + Losartan potassium; phases: Liquid, Crystal
Fixed: Pressure, kPa = 101
Property: Mole fraction of Losartan potassium (Liquid); method: Chromatography
Temperature, K	Mole fraction of Losartan potassium	uncertainty
293.15	0.02771	0.00317
303.15	0.03746	0.00228
313.15	0.04449	0.00682
323.15	0.04828	0.00498
333.15	0.05079	0.00179
343.15	0.05329	0.0049

System: ethanol + Losartan potassium; phases: Liquid, Crystal
Fixed: Pressure, kPa = 101
Property: Mole fraction of Losartan potassium (Liquid); method: Chromatography
Temperature, K	Mole fraction of Losartan potassium	uncertainty
293.15	0.03807	0.00472
303.15	0.04729	0.00148
313.15	0.05471	0.00242
323.15	0.07022	0.01232
333.15	0.07394	0.00291
343.15	0.07846	0.00668

System: propan-1-ol + Losartan potassium; phases: Liquid, Crystal
Fixed: Pressure, kPa = 101
Property: Mole fraction of Losartan potassium (Liquid); method: Chromatography
Temperature, K	Mole fraction of Losartan potassium	uncertainty
293.15	0.02601	0.00439
303.15	0.02725	0.00128
313.15	0.02985	0.00593
323.15	0.03755	0.00136
333.15	0.04519	0.00282
343.15	0.04992	0.00099

System: propan-2-ol + Losartan potassium; phases: Liquid, Crystal
Fixed: Pressure, kPa = 101
Property: Mole fraction of Losartan potassium (Liquid); method: Chromatography
Temperature, K	Mole fraction of Losartan potassium	uncertainty
293.15	0.002704	0.000205
303.15	0.002792	0.000147
313.15	0.004127	0.000257
323.15	0.005469	0.000543
333.15	0.006965	0.000954
343.15	0.01169	0.00139

System: pentan-1-ol + Losartan potassium; phases: Liquid, Crystal
Fixed: Pressure, kPa = 101
Property: Mole fraction of Losartan potassium (Liquid); method: Chromatography
Temperature, K	Mole fraction of Losartan potassium	uncertainty
293.15	0.04463	0.00476
303.15	0.03109	0.00573
313.15	0.02869	0.00049
323.15	0.02342	0.0024
333.15	0.02051	0.00162
343.15	0.02184	0.00398

System: ethyl acetate + Losartan potassium; phases: Liquid, Crystal
Fixed: Pressure, kPa = 101
Property: Mole fraction of Losartan potassium (Liquid); method: Chromatography
Temperature, K	Mole fraction of Losartan potassium	uncertainty
293.15	0.002509	0.001004
303.15	0.001518	0.000547
313.15	0.002522	0.000656
323.15	0.001381	0.000525
333.15	0.002883	0.000865
343.15	0.002788	0.000536

System: butyl ethanoate + Losartan potassium; phases: Liquid, Crystal
Fixed: Pressure, kPa = 101
Property: Mole fraction of Losartan potassium (Liquid); method: Chromatography
Temperature, K	Mole fraction of Losartan potassium	uncertainty
293.15	0.002713	0.000143
303.15	0.00238	0.00057
313.15	0.000968	0.000252
323.15	0.001206	0.00041
333.15	0.001933	0.000426
343.15	0.000907	0.000236

System: cyclohexane + Losartan potassium; phases: Liquid, Crystal
Fixed: Pressure, kPa = 101
Property: Mole fraction of Losartan potassium (Liquid); method: Chromatography
Temperature, K	Mole fraction of Losartan potassium	uncertainty
293.15	3.4e-05	2e-06
303.15	2.87e-05	4.3e-06
313.15	3.05e-05	2.7e-06
323.15	2.72e-05	1.6e-06
333.15	2.88e-05	3.2e-06
343.15	2.59e-05	1.8e-06
