Measured thermophysical data. Density of 1-Iodopropane and 1-Iodobutane within the Temperature Range from (253.15 to 383.15) K
Source: J. Chem. Eng. Data, 2007, 10.1021/je700020t
Compound 1: 1-iodopropane, C3H7I, InChI=1S/C3H7I/c1-2-3-4/h2-3H2,1H3, purity 99%
Compound 2: 1-iodobutane, C4H9I, InChI=1S/C4H9I/c1-2-3-4-5/h2-4H2,1H3, purity 98%

System: 1-iodopropane; phases: Liquid
Fixed: Pressure, kPa = 101.325
Property: Mass density, kg/m3 (Liquid); method: PYCNOM:UFactor:2
Temperature, K	Mass density, kg/m3	uncertainty
253.15	1820.9	1.8
263.15	1802.5	1.7
273.15	1784.5	1.7
283.15	1765.9	1.6
293.15	1747.8	1.5
324.15	1688.3	1.6
343.15	1652.2	1.6
358.15	1622.3	1.7

System: 1-iodobutane; phases: Liquid
Fixed: Pressure, kPa = 101.325
Property: Mass density, kg/m3 (Liquid); method: PYCNOM:UFactor:2
Temperature, K	Mass density, kg/m3	uncertainty
253.15	1670.9	3.3
263.15	1655.2	3.2
273.15	1639.1	3.1
283.15	1623.7	3
293.15	1607.6	2.9
298.15	1599.8	2.9
323.15	1558.7	2.9
343.15	1525.7	2.9
363.15	1492	2.9
383.15	1457.2	2.9
