Measured thermophysical data. High-Pressure Vapor-Liquid Equilibria for CO2 + Hexanal at (323.15, 353.15, and 383.15) K
Source: J. Chem. Eng. Data, 2007, 10.1021/je700303v
Compound 1: hexanal, C6H12O, InChI=1S/C6H12O/c1-2-3-4-5-6-7/h6H,2-5H2,1H3
Compound 2: carbon dioxide, CO2, InChI=1S/CO2/c2-1-3

System: hexanal + carbon dioxide; phases: Liquid, Gas
Property: Mole fraction of carbon dioxide (Liquid); method: Chromatography
Temperature, K	Pressure, kPa	Mole fraction of carbon dioxide	uncertainty
323.15	2600	0.2406	0.0145
323.15	3400	0.3298	0.0199
323.15	3800	0.3675	0.0222
323.15	5100	0.4798	0.029
323.15	6800	0.6251	0.0227
323.15	7900	0.7388	0.0158
323.15	8900	0.841	0.0098
353.15	3400	0.2387	0.0144
353.15	4500	0.3106	0.0188
353.15	5800	0.3992	0.0241
353.15	7400	0.488	0.0295
353.15	8500	0.5413	0.0277
353.15	10000	0.6217	0.0229
353.15	10800	0.6789	0.0194
353.15	12400	0.7915	0.0127
383.15	5200	0.3098	0.0187
383.15	7800	0.3912	0.0236
383.15	10600	0.5258	0.0287
383.15	13600	0.6798	0.0194
383.15	14800	0.7316	0.0163

System: hexanal + carbon dioxide; phases: Gas, Liquid
Property: Mole fraction of carbon dioxide (Gas); method: Chromatography
Temperature, K	Pressure, kPa	Mole fraction of carbon dioxide	uncertainty
323.15	2300	0.9913	0.0032
323.15	3600	0.9945	0.0032
323.15	4200	0.9979	0.0021
323.15	5500	0.9976	0.0024
323.15	6400	0.9932	0.0032
323.15	7500	0.9968	0.0032
323.15	8200	0.9933	0.0032
323.15	8900	0.9702	0.0032
353.15	3200	0.9849	0.0032
353.15	4600	0.9879	0.0032
353.15	5500	0.9857	0.0032
353.15	7300	0.987	0.0032
353.15	8900	0.9859	0.0032
353.15	10200	0.9814	0.0032
353.15	11100	0.984	0.0032
353.15	12800	0.9735	0.0032
383.15	4900	0.9751	0.0032
383.15	5400	0.9741	0.0032
383.15	8100	0.9718	0.0032
383.15	10300	0.9732	0.0032
383.15	14000	0.948	0.0032
383.15	15200	0.9456	0.0033
