Measured thermophysical data. Thermodynamics of Mixtures Containing Alkoxyethanols. XXIV. Densities, Excess Molar Volumes, and Speeds of Sound at (293.15, 298.15, and 303.15) K and Isothermal Compressibilities at 298.15 K for 2-(2-Alkoxyethoxy)ethanol + 1-Butanol Systems
Source: J. Chem. Eng. Data, 2007, 10.1021/je700281z
Compound 1: butan-1-ol, C4H10O, InChI=1S/C4H10O/c1-2-3-4-5/h5H,2-4H2,1H3
Compound 2: 2-(2-methoxyethoxy)ethanol, C5H12O3, InChI=1S/C5H12O3/c1-7-4-5-8-3-2-6/h6H,2-5H2,1H3
Compound 3: 3,6-dioxa-1-octanol, C6H14O3, InChI=1S/C6H14O3/c1-2-8-5-6-9-4-3-7/h7H,2-6H2,1H3
Compound 4: 3,6-dioxa-1-decanol, C8H18O3, InChI=1S/C8H18O3/c1-2-3-5-10-7-8-11-6-4-9/h9H,2-8H2,1H3

System: butan-1-ol; phases: Liquid
Fixed: Pressure, kPa = 101.325
Property: Speed of sound, m/s (Liquid); method: sound analyzer
Temperature, K	Speed of sound, m/s	uncertainty
293.15	1256.74	0.54
298.15	1239.19	0.54
303.15	1222.7	0.54

System: butan-1-ol; phases: Liquid
Fixed: Pressure, kPa = 101.325
Property: Mass density, kg/m3 (Liquid); method: VIBTUB:UFactor:4
Temperature, K	Mass density, kg/m3	uncertainty
293.15	809.644	0.465
298.15	805.842	0.47
303.15	801.995	0.475

System: 2-(2-methoxyethoxy)ethanol; phases: Liquid
Fixed: Pressure, kPa = 101.325
Property: Speed of sound, m/s (Liquid); method: sound analyzer
Temperature, K	Speed of sound, m/s	uncertainty
293.15	1432.37	2.01
298.15	1415.21	2.01
303.15	1397.93	2.01

System: 2-(2-methoxyethoxy)ethanol; phases: Liquid
Fixed: Pressure, kPa = 101.325
Property: Mass density, kg/m3 (Liquid); method: VIBTUB:UFactor:8
Temperature, K	Mass density, kg/m3	uncertainty
293.15	1019.81	1.15
298.15	1015.408	1.129
303.15	1010.908	1.107

System: 3,6-dioxa-1-octanol; phases: Liquid
Fixed: Pressure, kPa = 101.325
Property: Speed of sound, m/s (Liquid); method: sound analyzer
Temperature, K	Speed of sound, m/s	uncertainty
293.15	1392.35	2.01
298.15	1374.35	2.01
303.15	1356.6	2.01

System: 3,6-dioxa-1-octanol; phases: Liquid
Fixed: Pressure, kPa = 101.325
Property: Mass density, kg/m3 (Liquid); method: VIBTUB:UFactor:8
Temperature, K	Mass density, kg/m3	uncertainty
293.15	987.876	1.074
298.15	983.336	1.081
303.15	978.788	1.088

System: 3,6-dioxa-1-decanol; phases: Liquid
Fixed: Pressure, kPa = 101.325
Property: Speed of sound, m/s (Liquid); method: sound analyzer
Temperature, K	Speed of sound, m/s	uncertainty
293.15	1374.28	2.01
298.15	1356.97	2.01
303.15	1339.95	2.01

System: 3,6-dioxa-1-decanol; phases: Liquid
Fixed: Pressure, kPa = 101.325
Property: Mass density, kg/m3 (Liquid); method: VIBTUB:UFactor:8
Temperature, K	Mass density, kg/m3	uncertainty
293.15	952.196	1.132
298.15	948.103	1.139
303.15	943.743	1.146

System: butan-1-ol + 2-(2-methoxyethoxy)ethanol; phases: Liquid
Fixed: Pressure, kPa = 101
Property: Speed of sound, m/s (Liquid); method: Sing-around technique in a fixed-path interferometer
Temperature, K	Mole fraction of 2-(2-methoxyethoxy)ethanol	Speed of sound, m/s	uncertainty
293.15	0.0535	-0.212	0.63
293.15	0.1527	-0.608	0.769
293.15	0.2	-0.806	0.837
293.15	0.2003	-0.815	0.837
293.15	0.2518	-1.03	0.911
293.15	0.3009	-1.162	0.982
293.15	0.3032	-1.163	0.986
293.15	0.3546	-1.239	1.061
293.15	0.399	-1.314	1.125
293.15	0.4007	-1.31	1.128
293.15	0.4522	-1.295	1.203
293.15	0.5012	-1.284	1.275
293.15	0.5527	-1.17	1.351
293.15	0.5978	-1.048	1.418
293.15	0.6019	-1.041	1.424
293.15	0.6526	-0.92	1.499
293.15	0.6961	-0.788	1.563
293.15	0.7503	-0.623	1.644
293.15	0.7973	-0.498	1.714
293.15	0.8492	-0.34	1.791
293.15	0.8978	-0.186	1.863
293.15	0.947	-0.11	1.936
298.15	0.053	-0.206	0.629
298.15	0.1019	-0.451	0.697
298.15	0.1502	-0.626	0.766
298.15	0.2028	-0.802	0.841
298.15	0.2523	-0.94	0.912
298.15	0.3497	-1.146	1.053
298.15	0.454	-1.165	1.206
298.15	0.5507	-1.066	1.348
298.15	0.6013	-0.944	1.423
298.15	0.648	-0.853	1.492
298.15	0.6994	-0.657	1.568
298.15	0.7465	-0.526	1.638
298.15	0.7505	-0.514	1.644
298.15	0.7968	-0.41	1.713
298.15	0.7977	-0.378	1.714
298.15	0.8465	-0.23	1.787
298.15	0.8486	-0.228	1.79
298.15	0.8987	-0.091	1.864
298.15	0.899	-0.091	1.865
298.15	0.9481	-0.026	1.938
298.15	0.9483	-0.034	1.938
303.15	0.0508	-0.213	0.626
303.15	0.1014	-0.428	0.697
303.15	0.1471	-0.575	0.761
303.15	0.2015	-0.733	0.839
303.15	0.2528	-0.809	0.913
303.15	0.3048	-0.89	0.988
303.15	0.3503	-0.901	1.054
303.15	0.3555	-0.928	1.062
303.15	0.4005	-0.932	1.128
303.15	0.4503	-0.906	1.201
303.15	0.4981	-0.871	1.271
303.15	0.5518	-0.783	1.35
303.15	0.5996	-0.68	1.421
303.15	0.648	-0.579	1.492
303.15	0.6991	-0.496	1.568
303.15	0.7497	-0.387	1.643
303.15	0.7954	-0.254	1.711
303.15	0.8491	-0.153	1.79
303.15	0.8964	-0.091	1.861
303.15	0.9513	-0.018	1.942

System: butan-1-ol + 2-(2-methoxyethoxy)ethanol; phases: Liquid
Fixed: Pressure, kPa = 101
Property: Mass density, kg/m3 (Liquid); method: VIBTUB:UFactor:8
Mole fraction of 2-(2-methoxyethoxy)ethanol	Temperature, K	Mass density, kg/m3	uncertainty
0.0508	303.15	815.157	0.871
0.053	298.15	819.639	0.858
0.0535	293.15	823.612	0.846
0.1014	303.15	827.941	0.845
0.1019	298.15	832.026	0.833
0.1471	303.15	839.22	0.825
0.1502	298.15	843.949	0.812
0.1527	293.15	848.542	0.799
0.2	293.15	860.004	0.781
0.2003	293.15	860.091	0.781
0.2015	303.15	852.303	0.804
0.2028	298.15	856.65	0.792
0.2518	293.15	872.235	0.765
0.2523	298.15	868.3	0.776
0.2528	303.15	864.365	0.788
0.3009	293.15	883.531	0.754
0.3032	293.15	884.084	0.753
0.3048	303.15	876.239	0.776
0.3497	298.15	890.395	0.757
0.3503	303.15	886.405	0.768
0.3546	293.15	895.622	0.745
0.3555	303.15	887.558	0.768
0.399	293.15	905.367	0.741
0.4005	303.15	897.361	0.764
0.4007	293.15	905.744	0.741
0.4503	303.15	908.007	0.763
0.4522	293.15	916.775	0.741
0.454	298.15	912.946	0.752
0.4981	303.15	917.96	0.766
0.5012	293.15	927.038	0.745
0.5507	298.15	932.958	0.763
0.5518	303.15	928.933	0.774
0.5527	293.15	937.589	0.753
0.5978	293.15	946.625	0.764
0.5996	303.15	938.439	0.785
0.6013	298.15	943.061	0.775
0.6019	293.15	947.427	0.765
0.648	298.15	952.194	0.791
0.648	303.15	947.877	0.8
0.6526	293.15	957.368	0.782
0.6961	293.15	965.704	0.801
0.6991	303.15	957.619	0.821
0.6994	298.15	962.043	0.811
0.7465	298.15	970.86	0.835
0.7497	303.15	967.071	0.846
0.7503	293.15	975.858	0.828
0.7505	298.15	971.594	0.837
0.7954	303.15	975.414	0.872
0.7968	298.15	980.073	0.864
0.7973	293.15	984.5	0.856
0.7977	298.15	980.251	0.865
0.8465	298.15	988.996	0.898
0.8486	298.15	989.382	0.899
0.8491	303.15	985.035	0.908
0.8492	293.15	993.819	0.892
0.8964	303.15	993.318	0.944
0.8978	293.15	1002.374	0.945
0.8987	298.15	998.178	0.938
0.899	298.15	998.234	0.939
0.947	293.15	1010.876	1.041
0.9481	298.15	1006.686	1.023
0.9483	298.15	1006.723	1.024
0.9513	303.15	1002.746	1.009

System: butan-1-ol + 3,6-dioxa-1-octanol; phases: Liquid
Fixed: Pressure, kPa = 101
Property: Speed of sound, m/s (Liquid); method: Sing-around technique in a fixed-path interferometer
Temperature, K	Mole fraction of 3,6-dioxa-1-octanol	Speed of sound, m/s	uncertainty
293.15	0.0519	1.855	0.628
293.15	0.1029	3.276	0.699
293.15	0.1999	5.37	0.837
293.15	0.2989	6.612	0.98
293.15	0.3513	7.001	1.056
293.15	0.4015	7.232	1.129
293.15	0.4514	7.335	1.203
293.15	0.5492	7.12	1.347
293.15	0.5966	6.85	1.416
293.15	0.65	6.39	1.495
293.15	0.7002	5.832	1.57
293.15	0.7009	5.831	1.571
293.15	0.7015	5.824	1.572
293.15	0.7952	4.433	1.711
293.15	0.8477	3.473	1.789
293.15	0.8489	3.504	1.79
293.15	0.8966	2.466	1.861
293.15	0.95	1.256	1.941
298.15	0.0512	1.841	0.627
298.15	0.1017	3.33	0.697
298.15	0.1026	3.333	0.699
298.15	0.151	4.522	0.767
298.15	0.1733	4.98	0.799
298.15	0.2524	6.215	0.912
298.15	0.35	7.187	1.054
298.15	0.4025	7.455	1.131
298.15	0.449	7.511	1.199
298.15	0.452	7.517	1.204
298.15	0.4995	7.488	1.273
298.15	0.5992	6.937	1.42
298.15	0.6015	6.965	1.424
298.15	0.6487	6.553	1.494
298.15	0.7001	5.922	1.57
298.15	0.7491	5.271	1.642
298.15	0.8	4.445	1.718
298.15	0.8086	4.284	1.73
298.15	0.8491	3.515	1.791
298.15	0.8982	2.484	1.864
298.15	0.7491	5.298	1.642
303.15	0.0507	1.843	0.626
303.15	0.1007	3.306	0.696
303.15	0.1488	4.493	0.764
303.15	0.1539	4.629	0.771
303.15	0.1998	5.506	0.837
303.15	0.2025	5.523	0.841
303.15	0.2526	6.28	0.913
303.15	0.3035	6.763	0.987
303.15	0.3042	6.875	0.988
303.15	0.3492	7.204	1.053
303.15	0.4027	7.438	1.131
303.15	0.4543	7.602	1.207
303.15	0.5504	7.373	1.348
303.15	0.5525	7.33	1.351
303.15	0.5539	7.361	1.353
303.15	0.6	7.043	1.422
303.15	0.6019	7.056	1.424
303.15	0.7506	5.309	1.644
303.15	0.8006	4.504	1.719
303.15	0.8496	3.552	1.791
303.15	0.949	1.353	1.939

System: butan-1-ol + 3,6-dioxa-1-octanol; phases: Liquid
Fixed: Pressure, kPa = 101
Property: Mass density, kg/m3 (Liquid); method: VIBTUB:UFactor:8
Mole fraction of 3,6-dioxa-1-octanol	Temperature, K	Mass density, kg/m3	uncertainty
0.0507	303.15	814.94	0.872
0.0512	298.15	818.966	0.86
0.0519	293.15	823.011	0.848
0.1007	303.15	827.098	0.847
0.1017	298.15	831.315	0.835
0.1026	298.15	831.513	0.835
0.1029	293.15	835.52	0.823
0.1488	303.15	838.296	0.828
0.151	298.15	842.801	0.815
0.1539	303.15	839.456	0.826
0.1733	298.15	847.84	0.807
0.1998	303.15	849.635	0.811
0.1999	293.15	857.73	0.787
0.2025	303.15	850.231	0.81
0.2524	298.15	864.926	0.786
0.2526	303.15	860.864	0.797
0.2989	293.15	878.535	0.766
0.3035	303.15	871.188	0.789
0.3042	303.15	871.343	0.789
0.3492	303.15	880.114	0.785
0.35	298.15	884.465	0.773
0.3513	293.15	888.856	0.762
0.4015	293.15	898.337	0.761
0.4025	298.15	894.359	0.773
0.4027	303.15	890.141	0.784
0.449	298.15	902.763	0.776
0.4514	293.15	907.402	0.765
0.452	298.15	903.287	0.776
0.4543	303.15	899.435	0.787
0.4995	298.15	911.551	0.783
0.5492	293.15	924.169	0.784
0.5504	303.15	915.759	0.805
0.5525	303.15	916.103	0.806
0.5539	303.15	916.33	0.806
0.5966	293.15	931.866	0.798
0.5992	298.15	927.958	0.81
0.6	303.15	923.723	0.821
0.6015	298.15	928.324	0.811
0.6019	303.15	924.03	0.821
0.6487	298.15	935.658	0.829
0.65	293.15	940.215	0.819
0.7001	298.15	943.37	0.853
0.7002	293.15	947.765	0.843
0.7009	293.15	947.885	0.844
0.7015	293.15	947.962	0.844
0.7491	298.15	950.466	0.88
0.7491	298.15	950.476	0.88
0.7506	303.15	946.255	0.89
0.7952	293.15	961.375	0.9
0.8	298.15	957.603	0.912
0.8006	303.15	953.229	0.922
0.8086	298.15	958.782	0.918
0.8477	293.15	968.507	0.938
0.8489	293.15	968.677	0.939
0.8491	298.15	964.231	0.947
0.8496	303.15	959.837	0.956
0.8966	293.15	974.953	0.977
0.8982	298.15	970.663	0.986
0.949	303.15	972.571	1.039
0.95	293.15	981.736	1.025

System: butan-1-ol + 3,6-dioxa-1-decanol; phases: Liquid
Fixed: Pressure, kPa = 101
Property: Speed of sound, m/s (Liquid); method: Sing-around technique in a fixed-path interferometer
Temperature, K	Mole fraction of 3,6-dioxa-1-decanol	Speed of sound, m/s	uncertainty
293.15	0.1013	8.44	0.697
293.15	0.1505	11.347	0.767
293.15	0.2017	13.674	0.84
293.15	0.2529	15.455	0.914
293.15	0.3005	16.577	0.983
293.15	0.3516	17.395	1.057
293.15	0.4507	17.744	1.202
293.15	0.5005	17.407	1.275
293.15	0.5506	16.764	1.349
293.15	0.6036	15.716	1.427
293.15	0.6493	14.602	1.495
293.15	0.7	12.49	1.57
293.15	0.7292	11.562	1.613
293.15	0.749	10.916	1.642
293.15	0.8483	7.132	1.79
298.15	0.0521	4.794	0.628
298.15	0.15	11.421	0.766
298.15	0.2022	13.792	0.841
298.15	0.2535	15.537	0.915
298.15	0.301	16.731	0.983
298.15	0.3487	17.499	1.053
298.15	0.4028	17.883	1.132
298.15	0.4536	17.85	1.206
298.15	0.6017	15.827	1.424
298.15	0.6501	14.651	1.496
298.15	0.7003	13.216	1.57
298.15	0.7486	11.576	1.642
298.15	0.7986	9.676	1.716
298.15	0.8491	7.548	1.791
303.15	0.0462	4.329	0.62
303.15	0.0516	4.73	0.628
303.15	0.1015	8.438	0.697
303.15	0.1522	11.47	0.769
303.15	0.2002	13.682	0.838
303.15	0.2536	15.54	0.915
303.15	0.3008	16.707	0.983
303.15	0.3513	17.488	1.057
303.15	0.3997	17.852	1.127
303.15	0.4513	17.83	1.203
303.15	0.5047	17.451	1.281
303.15	0.552	16.752	1.351
303.15	0.6546	14.614	1.503
303.15	0.6992	13.165	1.568
303.15	0.7074	12.993	1.581
303.15	0.7476	11.623	1.64
303.15	0.7976	9.612	1.714
303.15	0.7988	9.746	1.716
303.15	0.8959	5.348	1.86

System: butan-1-ol + 3,6-dioxa-1-decanol; phases: Liquid
Fixed: Pressure, kPa = 101
Property: Mass density, kg/m3 (Liquid); method: VIBTUB:UFactor:8
Mole fraction of 3,6-dioxa-1-decanol	Temperature, K	Mass density, kg/m3	uncertainty
0.0462	303.15	813.931	0.874
0.0516	303.15	815.259	0.871
0.0521	298.15	819.296	0.859
0.1013	293.15	834.791	0.824
0.1015	303.15	827.004	0.848
0.15	298.15	841.555	0.818
0.1505	293.15	845.543	0.806
0.1522	303.15	837.999	0.829
0.2002	303.15	847.641	0.816
0.2017	293.15	855.876	0.793
0.2022	298.15	852.057	0.804
0.2529	293.15	865.45	0.784
0.2535	298.15	861.607	0.795
0.2536	303.15	857.548	0.807
0.3005	293.15	873.704	0.78
0.3008	303.15	865.688	0.803
0.301	298.15	869.838	0.791
0.3487	298.15	877.538	0.791
0.3513	303.15	873.826	0.803
0.3516	293.15	881.978	0.78
0.3997	303.15	881.12	0.806
0.4028	298.15	885.726	0.796
0.4507	293.15	896.487	0.793
0.4513	303.15	888.394	0.815
0.4536	298.15	892.882	0.804
0.5005	293.15	903.11	0.805
0.5047	303.15	895.427	0.827
0.5506	293.15	909.377	0.821
0.552	303.15	901.283	0.842
0.6017	298.15	911.346	0.851
0.6036	293.15	915.608	0.842
0.6493	293.15	920.67	0.864
0.6501	298.15	916.714	0.874
0.6546	303.15	912.925	0.886
0.6992	303.15	917.561	0.91
0.7	293.15	925.984	0.891
0.7003	298.15	921.969	0.901
0.7074	303.15	918.41	0.914
0.7292	293.15	928.912	0.909
0.7476	303.15	922.362	0.939
0.7486	298.15	926.743	0.93
0.749	293.15	930.843	0.922
0.7976	303.15	927.051	0.972
0.7986	298.15	931.465	0.964
0.7988	303.15	927.176	0.973
0.8483	293.15	939.967	0.993
0.8491	298.15	935.973	1.002
0.8959	303.15	935.611	1.048
