Measured thermophysical data. Solubility of Flavonoids in Organic Solvents
Source: J. Chem. Eng. Data, 2007, 10.1021/je7001094
Compound 1: rutin, C27H30O16, InChI=1S/C27H30O16/c1-8-17(32)20(35)22(37)26(40-8)39-7-15-18(33)21(36)23(38)27(42-15)43-25-19(34)16-13(31)5-10(28)6-14(16)41-24(25)9-2-3-11(29)12(30)4-9/h2-6,8,15,17-18,20-23,26-33,35-38H,7H2,1H3/t8-,15+,17-,18+,20+,21-,22+,23+,26+,27-/m0/s1
Compound 2: 4',5,7-trihydroxyflavanone, C15H12O5, InChI=1S/C15H12O5/c16-9-3-1-8(2-4-9)13-7-12(19)15-11(18)5-10(17)6-14(15)20-13/h1-6,13,16-18H,7H2
Compound 3: 2,3-Dihydro-5,7-dihydroxy-2-(3-hydroxy-4-methoxyphenyl)-4H-1-benzopyran-4-one, C16H14O6, InChI=1S/C16H14O6/c1-21-13-3-2-8(4-10(13)18)14-7-12(20)16-11(19)5-9(17)6-15(16)22-14/h2-6,14,17-19H,7H2,1H3/t14-/m0/s1
Compound 4: 5,7-dihydroxyflavone, C15H10O4, InChI=1S/C15H10O4/c16-10-6-11(17)15-12(18)8-13(19-14(15)7-10)9-4-2-1-3-5-9/h1-8,16-17H
Compound 5: quercetin, C15H10O7, InChI=1S/C15H10O7/c16-7-4-10(19)12-11(5-7)22-15(14(21)13(12)20)6-1-2-8(17)9(18)3-6/h1-5,16-19,21H
Compound 6: isoquercitrin, C21H20O12, InChI=1S/C21H20O12/c22-6-12(27)19-16(29)17(30)21(32-19)33-20-15(28)14-11(26)4-8(23)5-13(14)31-18(20)7-1-2-9(24)10(25)3-7/h1-5,12,16-17,19,21-27,29-30H,6H2/t12-,16-,17-,19-,21+/m1/s1
Compound 7: vinyl acetate, C4H6O2, InChI=1S/C4H6O2/c1-3-6-4(2)5/h3H,1H2,2H3
Compound 8: acetonitrile, C2H3N, InChI=1S/C2H3N/c1-2-3/h1H3
Compound 9: 2-methylbutan-2-ol, C5H12O, InChI=1S/C5H12O/c1-4-5(2,3)6/h6H,4H2,1-3H3
Compound 10: acetone, C3H6O, InChI=1S/C3H6O/c1-3(2)4/h1-2H3

System: rutin; phases: Crystal, Liquid, Air at 1 atmosphere
Property: Molar enthalpy of transition or fusion, kJ/mol (Crystal); method: DSC
Molar enthalpy of transition or fusion, kJ/mol	uncertainty
82.3	1.7

System: rutin; phases: Crystal, Liquid, Air at 1 atmosphere
Property: Normal melting temperature, K (Crystal); method: DTA
Normal melting temperature, K	uncertainty
450.15	3.02

System: rutin; phases: Crystal
Property: Molar heat capacity at constant pressure, J/K/mol (Crystal); method: Small sample (50 mg) DSC
Temperature, K	Pressure, kPa	Molar heat capacity at constant pressure, J/K/mol	uncertainty
323.1	101.325	915	159

System: 4',5,7-trihydroxyflavanone; phases: Crystal, Liquid, Air at 1 atmosphere
Property: Molar enthalpy of transition or fusion, kJ/mol (Crystal); method: DSC
Molar enthalpy of transition or fusion, kJ/mol	uncertainty
39.8	1

System: 4',5,7-trihydroxyflavanone; phases: Crystal, Liquid, Air at 1 atmosphere
Property: Normal melting temperature, K (Crystal); method: DTA
Normal melting temperature, K	uncertainty
523.15	1.25

System: 4',5,7-trihydroxyflavanone; phases: Crystal
Property: Molar heat capacity at constant pressure, J/K/mol (Crystal); method: Small sample (50 mg) DSC
Temperature, K	Pressure, kPa	Molar heat capacity at constant pressure, J/K/mol	uncertainty
323.1	101.325	259.7	32.2

System: 2,3-Dihydro-5,7-dihydroxy-2-(3-hydroxy-4-methoxyphenyl)-4H-1-benzopyran-4-one; phases: Crystal, Liquid, Air at 1 atmosphere
Property: Molar enthalpy of transition or fusion, kJ/mol (Crystal); method: DSC
Molar enthalpy of transition or fusion, kJ/mol	uncertainty
35.9	0.8

System: 2,3-Dihydro-5,7-dihydroxy-2-(3-hydroxy-4-methoxyphenyl)-4H-1-benzopyran-4-one; phases: Crystal, Liquid, Air at 1 atmosphere
Property: Normal melting temperature, K (Crystal); method: DTA
Normal melting temperature, K	uncertainty
499.22	2.03

System: 2,3-Dihydro-5,7-dihydroxy-2-(3-hydroxy-4-methoxyphenyl)-4H-1-benzopyran-4-one; phases: Crystal
Property: Molar heat capacity at constant pressure, J/K/mol (Crystal); method: Small sample (50 mg) DSC
Temperature, K	Pressure, kPa	Molar heat capacity at constant pressure, J/K/mol	uncertainty
323.1	101.325	906	531

System: 5,7-dihydroxyflavone; phases: Crystal, Liquid, Air at 1 atmosphere
Property: Molar enthalpy of transition or fusion, kJ/mol (Crystal); method: DSC
Molar enthalpy of transition or fusion, kJ/mol	uncertainty
39.2	0.9

System: 5,7-dihydroxyflavone; phases: Crystal, Liquid, Air at 1 atmosphere
Property: Normal melting temperature, K (Crystal); method: DTA
Normal melting temperature, K	uncertainty
558.15	2.23

System: 5,7-dihydroxyflavone; phases: Crystal
Property: Molar heat capacity at constant pressure, J/K/mol (Crystal); method: Small sample (50 mg) DSC
Temperature, K	Pressure, kPa	Molar heat capacity at constant pressure, J/K/mol	uncertainty
323.1	101.325	200.6	114

System: quercetin; phases: Crystal, Liquid, Air at 1 atmosphere
Property: Molar enthalpy of transition or fusion, kJ/mol (Crystal); method: DSC
Molar enthalpy of transition or fusion, kJ/mol	uncertainty
41.5	1.4

System: quercetin; phases: Crystal, Liquid, Air at 1 atmosphere
Property: Normal melting temperature, K (Crystal); method: DTA
Normal melting temperature, K	uncertainty
595.15	1.44

System: quercetin; phases: Crystal
Property: Molar heat capacity at constant pressure, J/K/mol (Crystal); method: Small sample (50 mg) DSC
Temperature, K	Pressure, kPa	Molar heat capacity at constant pressure, J/K/mol	uncertainty
323.1	101.325	585.9	166.2

System: isoquercitrin; phases: Crystal, Liquid, Air at 1 atmosphere
Property: Molar enthalpy of transition or fusion, kJ/mol (Crystal); method: DSC
Molar enthalpy of transition or fusion, kJ/mol	uncertainty
49.8	2.1

System: isoquercitrin; phases: Crystal, Liquid, Air at 1 atmosphere
Property: Normal melting temperature, K (Crystal); method: DTA
Normal melting temperature, K	uncertainty
471.15	3.02

System: isoquercitrin; phases: Crystal
Property: Molar heat capacity at constant pressure, J/K/mol (Crystal); method: Small sample (50 mg) DSC
Temperature, K	Pressure, kPa	Molar heat capacity at constant pressure, J/K/mol	uncertainty
323.1	101.325	947.9	30.1

System: acetonitrile + rutin; phases: Liquid, Crystal
Property: Amount concentration (molarity), mol/dm3 (Liquid); method: SPECTR
Temperature, K	Pressure, kPa	Amount concentration (molarity), mol/dm3	uncertainty
323.15	101	0.0005	2e-05

System: acetonitrile + isoquercitrin; phases: Liquid, Crystal
Fixed: Pressure, kPa = 101
Property: Amount concentration (molarity), mol/dm3 (Liquid); method: SPECTR
Temperature, K	Amount concentration (molarity), mol/dm3	uncertainty
323.15	0.0039	0.00013
333.15	0.0037	0.00015
343.15	0.00412	0.00015

System: acetonitrile + quercetin; phases: Liquid, Crystal
Property: Amount concentration (molarity), mol/dm3 (Liquid); method: SPECTR
Temperature, K	Pressure, kPa	Amount concentration (molarity), mol/dm3	uncertainty
323.15	101	0.0054	0.00158

System: acetonitrile + quercetin; phases: Liquid, Crystal
Fixed: Pressure, kPa = 101
Property: Amount concentration (molarity), mol/dm3 (Liquid); method: SPECTR
Temperature, K	Amount concentration (molarity), mol/dm3	uncertainty
323.15	0.0056	0.00158
323.15	0.0054	0.00158
333.15	0.0068	0.0002
343.15	0.00705	0.00014

System: acetonitrile + 5,7-dihydroxyflavone; phases: Liquid, Crystal
Property: Amount concentration (molarity), mol/dm3 (Liquid); method: SPECTR
Temperature, K	Pressure, kPa	Amount concentration (molarity), mol/dm3	uncertainty
323.15	101	0.006	0.00027

System: acetonitrile + 4',5,7-trihydroxyflavanone; phases: Liquid, Crystal
Property: Amount concentration (molarity), mol/dm3 (Liquid); method: SPECTR
Temperature, K	Pressure, kPa	Amount concentration (molarity), mol/dm3	uncertainty
323.15	101	0.077	0.00119

System: acetonitrile + 4',5,7-trihydroxyflavanone; phases: Liquid, Crystal
Fixed: Pressure, kPa = 101
Property: Amount concentration (molarity), mol/dm3 (Liquid); method: SPECTR
Temperature, K	Amount concentration (molarity), mol/dm3	uncertainty
323.15	0.077	0.00119
333.15	0.08	0.00124
343.15	0.088	0.00136

System: acetonitrile + 2,3-Dihydro-5,7-dihydroxy-2-(3-hydroxy-4-methoxyphenyl)-4H-1-benzopyran-4-one; phases: Liquid, Crystal
Property: Amount concentration (molarity), mol/dm3 (Liquid); method: SPECTR
Temperature, K	Pressure, kPa	Amount concentration (molarity), mol/dm3	uncertainty
323.15	101	0.085	0.00132

System: acetonitrile + 2,3-Dihydro-5,7-dihydroxy-2-(3-hydroxy-4-methoxyphenyl)-4H-1-benzopyran-4-one; phases: Liquid, Crystal
Fixed: Pressure, kPa = 101
Property: Amount concentration (molarity), mol/dm3 (Liquid); method: SPECTR
Temperature, K	Amount concentration (molarity), mol/dm3	uncertainty
323.15	0.085	0.00132
333.15	0.09	0.0014
343.15	0.093	0.00144

System: 2-methylbutan-2-ol + quercetin; phases: Liquid, Crystal
Property: Amount concentration (molarity), mol/dm3 (Liquid); method: SPECTR
Temperature, K	Pressure, kPa	Amount concentration (molarity), mol/dm3	uncertainty
323.15	101	0.06701	0.00148

System: acetone + quercetin; phases: Liquid, Crystal
Property: Amount concentration (molarity), mol/dm3 (Liquid); method: SPECTR
Temperature, K	Pressure, kPa	Amount concentration (molarity), mol/dm3	uncertainty
323.15	101	0.08008	0.0023

System: 2-methylbutan-2-ol + isoquercitrin; phases: Liquid, Crystal
Property: Amount concentration (molarity), mol/dm3 (Liquid); method: SPECTR
Temperature, K	Pressure, kPa	Amount concentration (molarity), mol/dm3	uncertainty
323.15	101	0.06611	0.00411

System: acetone + isoquercitrin; phases: Liquid, Crystal
Property: Amount concentration (molarity), mol/dm3 (Liquid); method: SPECTR
Temperature, K	Pressure, kPa	Amount concentration (molarity), mol/dm3	uncertainty
323.15	101	0.03004	0.001

System: 2-methylbutan-2-ol + rutin; phases: Liquid, Crystal
Property: Amount concentration (molarity), mol/dm3 (Liquid); method: SPECTR
Temperature, K	Pressure, kPa	Amount concentration (molarity), mol/dm3	uncertainty
323.15	101	0.06003	0.00117

System: acetone + rutin; phases: Liquid, Crystal
Property: Amount concentration (molarity), mol/dm3 (Liquid); method: SPECTR
Temperature, K	Pressure, kPa	Amount concentration (molarity), mol/dm3	uncertainty
323.15	101	0.0135	0.00071

System: acetonitrile + vinyl acetate + quercetin; phases: Liquid, Crystal
Property: Amount concentration (molarity), mol/dm3 of quercetin (Liquid); method: SPECTR
Temperature, K	Amount concentration (molarity), mol/dm3 of vinyl acetate	Pressure, kPa	Amount concentration (molarity), mol/dm3 of quercetin	uncertainty
323.15	0.862	101	0.00629	0.00039

System: acetonitrile + vinyl acetate + isoquercitrin; phases: Liquid, Crystal
Property: Amount concentration (molarity), mol/dm3 of isoquercitrin (Liquid); method: SPECTR
Temperature, K	Amount concentration (molarity), mol/dm3 of vinyl acetate	Pressure, kPa	Amount concentration (molarity), mol/dm3 of isoquercitrin	uncertainty
323.15	1.324	101	0.0041	0.00021
