Measured thermophysical data. Viscosity, Density, and Speed of Sound for the Binary Mixtures of Formamide with 2-Methoxyethanol, Acetophenone, Acetonitrile, 1,2-Dimethoxyethane, and Dimethylsulfoxide at Different Temperatures
Source: J. Chem. Eng. Data, 2007, 10.1021/je700026d
Compound 1: formamide, CH3NO, InChI=1S/CH3NO/c2-1-3/h1H,(H2,2,3)
Compound 2: 2-methoxyethan-1-ol, C3H8O2, InChI=1S/C3H8O2/c1-5-3-2-4/h4H,2-3H2,1H3
Compound 3: acetophenone, C8H8O, InChI=1S/C8H8O/c1-7(9)8-5-3-2-4-6-8/h2-6H,1H3
Compound 4: acetonitrile, C2H3N, InChI=1S/C2H3N/c1-2-3/h1H3
Compound 5: 1,2-dimethoxyethane, C4H10O2, InChI=1S/C4H10O2/c1-5-3-4-6-2/h3-4H2,1-2H3
Compound 6: dimethyl sulfoxide, C2H6OS, InChI=1S/C2H6OS/c1-4(2)3/h1-2H3

System: formamide; phases: Liquid
Fixed: Pressure, kPa = 101.3
Property: Viscosity, Pa*s (Liquid); method: Capillary tube (Ostwald; Ubbelohde) method
Temperature, K	Viscosity, Pa*s	uncertainty
298.15	0.003302	5.5e-05
308.15	0.002542	4.3e-05
318.15	0.002001	3.4e-05

System: formamide; phases: Liquid
Property: Speed of sound, m/s (Liquid); method: Linear variable-path acoustic interferometer
Pressure, kPa	Temperature, K	Speed of sound, m/s	uncertainty
100	298.15	1591.3	3.4

System: formamide; phases: Liquid
Fixed: Pressure, kPa = 101.3
Property: Mass density, kg/m3 (Liquid); method: Pycnometric method
Temperature, K	Mass density, kg/m3	uncertainty
298.15	1129.2	2.6
308.15	1120.5	2.6
318.15	1111.1	2.6

System: 2-methoxyethan-1-ol; phases: Liquid
Fixed: Pressure, kPa = 101.3
Property: Viscosity, Pa*s (Liquid); method: Capillary tube (Ostwald; Ubbelohde) method
Temperature, K	Viscosity, Pa*s	uncertainty
298.15	0.001543	1.4e-05
308.15	0.001257	1.2e-05
318.15	0.001051	1.1e-05

System: 2-methoxyethan-1-ol; phases: Liquid
Property: Speed of sound, m/s (Liquid); method: Linear variable-path acoustic interferometer
Pressure, kPa	Temperature, K	Speed of sound, m/s	uncertainty
100	298.15	1339.4	1.8

System: 2-methoxyethan-1-ol; phases: Liquid
Fixed: Pressure, kPa = 101.3
Property: Mass density, kg/m3 (Liquid); method: Pycnometric method
Temperature, K	Mass density, kg/m3	uncertainty
298.15	959.7	0.7
308.15	951.5	0.7
318.15	945.9	0.7

System: acetophenone; phases: Liquid
Fixed: Pressure, kPa = 101.3
Property: Viscosity, Pa*s (Liquid); method: Capillary tube (Ostwald; Ubbelohde) method
Temperature, K	Viscosity, Pa*s	uncertainty
298.15	0.001653	1.4e-05
308.15	0.001412	1.3e-05
318.15	0.001117	1.2e-05

System: acetophenone; phases: Liquid
Property: Speed of sound, m/s (Liquid); method: Linear variable-path acoustic interferometer
Pressure, kPa	Temperature, K	Speed of sound, m/s	uncertainty
100	298.15	1296.4	1.8

System: acetophenone; phases: Liquid
Fixed: Pressure, kPa = 101.3
Property: Mass density, kg/m3 (Liquid); method: Pycnometric method
Temperature, K	Mass density, kg/m3	uncertainty
298.15	1023.1	0.7
308.15	1014.8	0.7
318.15	1007.5	0.8

System: acetonitrile; phases: Liquid
Fixed: Pressure, kPa = 101.3
Property: Viscosity, Pa*s (Liquid); method: Capillary tube (Ostwald; Ubbelohde) method
Temperature, K	Viscosity, Pa*s	uncertainty
298.15	0.000344	7e-06
308.15	0.000313	7e-06
318.15	0.000289	7e-06

System: acetonitrile; phases: Liquid
Property: Speed of sound, m/s (Liquid); method: Linear variable-path acoustic interferometer
Pressure, kPa	Temperature, K	Speed of sound, m/s	uncertainty
100	298.15	1260.2	5.2

System: acetonitrile; phases: Liquid
Fixed: Pressure, kPa = 101.3
Property: Mass density, kg/m3 (Liquid); method: Pycnometric method
Temperature, K	Mass density, kg/m3	uncertainty
298.15	776	0.7
308.15	766.3	0.7
318.15	755	0.7

System: 1,2-dimethoxyethane; phases: Liquid
Fixed: Pressure, kPa = 101.3
Property: Viscosity, Pa*s (Liquid); method: Capillary tube (Ostwald; Ubbelohde) method
Temperature, K	Viscosity, Pa*s	uncertainty
298.15	0.000409	7e-06
308.15	0.000366	7e-06
318.15	0.00033	7e-06

System: 1,2-dimethoxyethane; phases: Liquid
Property: Speed of sound, m/s (Liquid); method: Linear variable-path acoustic interferometer
Pressure, kPa	Temperature, K	Speed of sound, m/s	uncertainty
100	298.15	1146.2	1.7

System: 1,2-dimethoxyethane; phases: Liquid
Fixed: Pressure, kPa = 101.3
Property: Mass density, kg/m3 (Liquid); method: Pycnometric method
Temperature, K	Mass density, kg/m3	uncertainty
298.15	861.5	1
308.15	850.7	1
318.15	839.6	1

System: dimethyl sulfoxide; phases: Liquid
Fixed: Pressure, kPa = 101.3
Property: Viscosity, Pa*s (Liquid); method: Capillary tube (Ostwald; Ubbelohde) method
Temperature, K	Viscosity, Pa*s	uncertainty
298.15	0.002042	3.4e-05
308.15	0.001568	2.6e-05
318.15	0.001485	2.4e-05

System: dimethyl sulfoxide; phases: Liquid
Property: Speed of sound, m/s (Liquid); method: Linear variable-path acoustic interferometer
Pressure, kPa	Temperature, K	Speed of sound, m/s	uncertainty
100	298.15	1493	3.4

System: dimethyl sulfoxide; phases: Liquid
Fixed: Pressure, kPa = 101.3
Property: Mass density, kg/m3 (Liquid); method: Pycnometric method
Temperature, K	Mass density, kg/m3	uncertainty
298.15	1095.4	2.5
308.15	1085.9	2.5
318.15	1076.9	2.5

System: formamide + 2-methoxyethan-1-ol; phases: Liquid
Fixed: Pressure, kPa = 100
Fixed: Temperature, K = 298.15
Property: Speed of sound, m/s (Liquid); method: Linear variable-path acoustic interferometer
Mole fraction of formamide	Speed of sound, m/s	uncertainty
0	1339.4	1.8
0.1581	1353.6	3.1
0.2969	1373.7	4
0.4199	1397.5	4.9
0.5297	1423.8	5.8
0.6282	1451.1	6.4
0.7171	1478.3	7.1
0.7977	1506	7.8
0.8711	1533.9	8.9
0.9383	1564.3	9.5
1	1591.3	3.4

System: formamide + 2-methoxyethan-1-ol; phases: Liquid
Fixed: Pressure, kPa = 101.3
Property: Viscosity, Pa*s (Liquid); method: Capillary tube (Ostwald; Ubbelohde) method
Temperature, K	Mole fraction of formamide	Viscosity, Pa*s	uncertainty
298.15	0	0.001543	1.4e-05
298.15	0.1581	0.001912	1.9e-05
298.15	0.2969	0.002291	2.5e-05
298.15	0.4199	0.002659	3.2e-05
298.15	0.5297	0.002963	3.8e-05
298.15	0.6282	0.003173	4.3e-05
298.15	0.7171	0.003331	4.7e-05
298.15	0.7977	0.003395	5.1e-05
298.15	0.8711	0.003399	5.3e-05
298.15	0.9383	0.003348	5.4e-05
298.15	1	0.003302	5.5e-05
308.15	0	0.001257	1.2e-05
308.15	0.1581	0.001515	1.6e-05
308.15	0.2969	0.001759	2e-05
308.15	0.4199	0.001997	2.5e-05
308.15	0.5297	0.002206	2.9e-05
308.15	0.6282	0.002367	3.3e-05
308.15	0.7171	0.002485	3.6e-05
308.15	0.7977	0.002541	3.9e-05
308.15	0.8711	0.002562	4e-05
308.15	0.9383	0.00255	4.2e-05
308.15	1	0.002542	4.3e-05
318.15	0	0.001051	1.1e-05
318.15	0.1581	0.001225	1.3e-05
318.15	0.2969	0.001394	1.6e-05
318.15	0.4199	0.001561	2e-05
318.15	0.5297	0.001709	2.3e-05
318.15	0.6282	0.001831	2.6e-05
318.15	0.7171	0.001929	2.9e-05
318.15	0.7977	0.001978	3.1e-05
318.15	0.8711	0.002016	3.2e-05
318.15	0.9383	0.002003	3.3e-05
318.15	1	0.002001	3.4e-05

System: formamide + 2-methoxyethan-1-ol; phases: Liquid
Fixed: Pressure, kPa = 101.3
Property: Mass density, kg/m3 (Liquid); method: Pycnometric method
Temperature, K	Mole fraction of formamide	Mass density, kg/m3	uncertainty
298.15	0	959.7	0.7
298.15	0.1581	977	0.8
298.15	0.2969	994.2	0.9
298.15	0.4199	1010.9	1.1
298.15	0.5297	1027.6	1.2
298.15	0.6282	1044.1	1.4
298.15	0.7171	1060.2	1.6
298.15	0.7977	1076.7	1.9
298.15	0.8711	1093.8	2.1
298.15	0.9383	1111.1	2.4
298.15	1	1129.2	2.6
308.15	0	951.5	0.7
308.15	0.1581	969.1	0.8
308.15	0.2969	986.2	0.9
308.15	0.4199	1002.8	1.1
308.15	0.5297	1019.4	1.2
308.15	0.6282	1035.9	1.4
308.15	0.7171	1052.3	1.6
308.15	0.7977	1068.7	1.9
308.15	0.8711	1085.7	2.1
308.15	0.9383	1102.9	2.4
308.15	1	1120.5	2.6
318.15	0	945.9	0.7
318.15	0.1581	963.5	0.8
318.15	0.2969	980.3	0.9
318.15	0.4199	996.5	1.1
318.15	0.5297	1012.8	1.2
318.15	0.6282	1029.1	1.4
318.15	0.7171	1045.3	1.6
318.15	0.7977	1061.5	1.9
318.15	0.8711	1078.1	2.1
318.15	0.9383	1094.6	2.4
318.15	1	1111.1	2.6

System: formamide + acetophenone; phases: Liquid
Fixed: Pressure, kPa = 100
Fixed: Temperature, K = 298.15
Property: Speed of sound, m/s (Liquid); method: Linear variable-path acoustic interferometer
Mole fraction of formamide	Speed of sound, m/s	uncertainty
0	1296.4	1.8
0.2286	1304.8	2.5
0.4001	1323.3	3.5
0.5334	1345.8	5.3
0.6401	1379.3	7.5
0.7273	1413.6	10
0.8001	1456.5	11.6
0.8616	1488.4	12.7
0.9143	1527.3	14.7
0.96	1558.9	15.3
1	1591.3	3.4

System: formamide + acetophenone; phases: Liquid
Fixed: Pressure, kPa = 101.3
Property: Viscosity, Pa*s (Liquid); method: Capillary tube (Ostwald; Ubbelohde) method
Temperature, K	Mole fraction of formamide	Viscosity, Pa*s	uncertainty
298.15	0	0.001653	1.4e-05
298.15	0.2286	0.002234	2.3e-05
298.15	0.4001	0.002795	3.3e-05
298.15	0.5334	0.003267	4.2e-05
298.15	0.6401	0.003596	5e-05
298.15	0.7273	0.003778	5.5e-05
298.15	0.8001	0.003819	5.7e-05
298.15	0.8616	0.003735	5.8e-05
298.15	0.9143	0.00359	5.7e-05
298.15	0.96	0.003439	5.6e-05
298.15	1	0.003302	5.5e-05
308.15	0	0.001412	1.3e-05
308.15	0.2286	0.001762	1.9e-05
308.15	0.4001	0.002077	2.5e-05
308.15	0.5334	0.002355	3.1e-05
308.15	0.6401	0.002587	3.7e-05
308.15	0.7273	0.002724	4e-05
308.15	0.8001	0.002779	4.3e-05
308.15	0.8616	0.002748	4.4e-05
308.15	0.9143	0.002685	4.4e-05
308.15	0.96	0.002608	4.3e-05
308.15	1	0.002542	4.3e-05
318.15	0	0.001117	1.2e-05
318.15	0.2286	0.001377	1.6e-05
318.15	0.4001	0.001607	2e-05
318.15	0.5334	0.001825	2.4e-05
318.15	0.6401	0.001988	2.8e-05
318.15	0.7273	0.0021	3.1e-05
318.15	0.8001	0.002141	3.3e-05
318.15	0.8616	0.002111	3.4e-05
318.15	0.9143	0.002068	3.4e-05
318.15	0.96	0.002027	3.4e-05
318.15	1	0.002001	3.4e-05

System: formamide + acetophenone; phases: Liquid
Fixed: Pressure, kPa = 101.3
Property: Mass density, kg/m3 (Liquid); method: Pycnometric method
Temperature, K	Mole fraction of formamide	Mass density, kg/m3	uncertainty
298.15	0	1023.1	0.7
298.15	0.2286	1032.9	0.9
298.15	0.4001	1042.9	1.1
298.15	0.5334	1053.1	1.3
298.15	0.6401	1063.3	1.5
298.15	0.7273	1073.8	1.7
298.15	0.8001	1084.4	1.9
298.15	0.8616	1095.3	2.1
298.15	0.9143	1106.4	2.3
298.15	0.96	1117.7	2.5
298.15	1	1129.2	2.6
308.15	0	1014.8	0.7
308.15	0.2286	1024.9	0.9
308.15	0.4001	1035.1	1.1
308.15	0.5334	1045.3	1.3
308.15	0.6401	1055.5	1.5
308.15	0.7273	1065.8	1.7
308.15	0.8001	1076.3	1.9
308.15	0.8616	1087	2.1
308.15	0.9143	1097.9	2.3
308.15	0.96	1109.1	2.5
308.15	1	1120.5	2.6
318.15	0	1007.5	0.8
318.15	0.2286	1017.5	0.9
318.15	0.4001	1027.5	1.1
318.15	0.5334	1037.6	1.3
318.15	0.6401	1047.7	1.5
318.15	0.7273	1057.9	1.7
318.15	0.8001	1068.2	1.9
318.15	0.8616	1078.7	2.1
318.15	0.9143	1089.4	2.3
318.15	0.96	1100.1	2.4
318.15	1	1111.1	2.6

System: acetonitrile + formamide; phases: Liquid
Fixed: Pressure, kPa = 100
Fixed: Temperature, K = 298.15
Property: Speed of sound, m/s (Liquid); method: Linear variable-path acoustic interferometer
Mole fraction of formamide	Speed of sound, m/s	uncertainty
0	1260.2	5.2
0.0919	1277.7	6.7
0.1856	1299.6	7.1
0.2809	1322.8	7.4
0.3779	1349.6	7.9
0.4768	1380.8	8.2
0.5775	1412.8	8.5
0.6802	1449	9
0.7847	1488.8	9.3
0.8913	1529.8	10.9
1	1591.3	5.3

System: acetonitrile + formamide; phases: Liquid
Fixed: Pressure, kPa = 101.3
Property: Viscosity, Pa*s (Liquid); method: Capillary tube (Ostwald; Ubbelohde) method
Temperature, K	Mole fraction of formamide	Viscosity, Pa*s	uncertainty
298.15	0	0.000344	7e-06
298.15	0.0919	0.000402	7e-06
298.15	0.1856	0.000485	8e-06
298.15	0.2809	0.000593	9e-06
298.15	0.3779	0.000733	1e-05
298.15	0.4768	0.000921	1.2e-05
298.15	0.5775	0.001168	1.6e-05
298.15	0.6802	0.001507	2.1e-05
298.15	0.7847	0.001945	2.9e-05
298.15	0.8913	0.00254	4e-05
298.15	1	0.003302	5.5e-05
308.15	0	0.000313	7e-06
308.15	0.0919	0.000366	7e-06
308.15	0.1856	0.000432	7e-06
308.15	0.2809	0.000522	8e-06
308.15	0.3779	0.000635	9e-06
308.15	0.4768	0.000786	1.1e-05
308.15	0.5775	0.000978	1.4e-05
308.15	0.6802	0.001239	1.8e-05
308.15	0.7847	0.001569	2.4e-05
308.15	0.8913	0.001999	3.2e-05
308.15	1	0.002542	4.3e-05
318.15	0	0.000289	7e-06
318.15	0.0919	0.000339	7e-06
318.15	0.1856	0.000396	7e-06
318.15	0.2809	0.000472	8e-06
318.15	0.3779	0.000565	9e-06
318.15	0.4768	0.000687	1e-05
318.15	0.5775	0.000847	1.2e-05
318.15	0.6802	0.001046	1.5e-05
318.15	0.7847	0.001295	2e-05
318.15	0.8913	0.001615	2.6e-05
318.15	1	0.002001	3.4e-05

System: acetonitrile + formamide; phases: Liquid
Fixed: Pressure, kPa = 101.3
Property: Mass density, kg/m3 (Liquid); method: Pycnometric method
Temperature, K	Mole fraction of formamide	Mass density, kg/m3	uncertainty
298.15	0	776	0.7
298.15	0.0919	803.8	0.7
298.15	0.1856	832.8	0.7
298.15	0.2809	863.4	0.8
298.15	0.3779	895.8	0.9
298.15	0.4768	929.2	1
298.15	0.5775	965.2	1.2
298.15	0.6802	1002.9	1.4
298.15	0.7847	1042.6	1.7
298.15	0.8913	1085.1	2.1
298.15	1	1129.2	2.6
308.15	0	766.3	0.7
308.15	0.0919	794.9	0.7
308.15	0.1856	824.1	0.7
308.15	0.2809	855.1	0.8
308.15	0.3779	887.4	0.9
308.15	0.4768	921.2	1
308.15	0.5775	956.6	1.2
308.15	0.6802	994.4	1.4
308.15	0.7847	1034.7	1.7
308.15	0.8913	1076.9	2.1
308.15	1	1120.5	2.6
318.15	0	755	0.7
318.15	0.0919	785.6	0.7
318.15	0.1856	815.8	0.8
318.15	0.2809	847.4	0.8
318.15	0.3779	879.9	0.9
318.15	0.4768	914	1
318.15	0.5775	950.7	1.2
318.15	0.6802	989.4	1.4
318.15	0.7847	1029.3	1.7
318.15	0.8913	1071.6	2.1
318.15	1	1111.1	2.6

System: formamide + 1,2-dimethoxyethane; phases: Liquid
Fixed: Pressure, kPa = 100
Fixed: Temperature, K = 298.15
Property: Speed of sound, m/s (Liquid); method: Linear variable-path acoustic interferometer
Mole fraction of formamide	Speed of sound, m/s	uncertainty
0	1146.2	1.7
0.1819	1200.3	6.8
0.3334	1254.3	7.9
0.4616	1306.2	8.8
0.5715	1355	9.5
0.6668	1399.9	10.1
0.7501	1441.9	10.7
0.8236	1480.5	11.5
0.8889	1518.5	12.6
0.9474	1556.1	13.5
1	1591.3	3.4

System: formamide + 1,2-dimethoxyethane; phases: Liquid
Fixed: Pressure, kPa = 101.3
Property: Viscosity, Pa*s (Liquid); method: Capillary tube (Ostwald; Ubbelohde) method
Temperature, K	Mole fraction of formamide	Viscosity, Pa*s	uncertainty
298.15	0	0.000409	7e-06
298.15	0.1819	0.000603	8e-06
298.15	0.3334	0.000848	1.1e-05
298.15	0.4616	0.001164	1.5e-05
298.15	0.5715	0.001545	2.1e-05
298.15	0.6668	0.001925	2.7e-05
298.15	0.7501	0.002296	3.3e-05
298.15	0.8236	0.002627	4e-05
298.15	0.8889	0.002899	4.5e-05
298.15	0.9474	0.00312	5e-05
298.15	1	0.003302	5.5e-05
308.15	0	0.000366	7e-06
308.15	0.1819	0.000522	8e-06
308.15	0.3334	0.000713	1e-05
308.15	0.4616	0.000952	1.3e-05
308.15	0.5715	0.001243	1.7e-05
308.15	0.6668	0.001536	2.2e-05
308.15	0.7501	0.001806	2.7e-05
308.15	0.8236	0.002045	3.1e-05
308.15	0.8889	0.002243	3.6e-05
308.15	0.9474	0.002408	3.9e-05
308.15	1	0.002542	4.3e-05
318.15	0	0.00033	7e-06
318.15	0.1819	0.000459	7e-06
318.15	0.3334	0.000609	9e-06
318.15	0.4616	0.000785	1.1e-05
318.15	0.5715	0.000994	1.4e-05
318.15	0.6668	0.001218	1.8e-05
318.15	0.7501	0.001427	2.2e-05
318.15	0.8236	0.001614	2.5e-05
318.15	0.8889	0.001775	2.9e-05
318.15	0.9474	0.001903	3.2e-05
318.15	1	0.002001	3.4e-05

System: formamide + 1,2-dimethoxyethane; phases: Liquid
Fixed: Pressure, kPa = 101
Property: Mass density, kg/m3 (Liquid); method: Pycnometric method
Temperature, K	Mole fraction of formamide	Mass density, kg/m3	uncertainty
298.15	0	861.5	1
298.15	0.1819	893.1	1
298.15	0.3334	920.1	1.2
298.15	0.4616	946	1.3
298.15	0.5715	971.8	1.4
298.15	0.6668	997.3	1.5
298.15	0.7501	1022.2	1.7
298.15	0.8236	1048.3	2
298.15	0.8889	1073.7	2.2
298.15	0.9474	1100.3	2.5
298.15	1	1129.2	2.7
308.15	0	850.7	1
308.15	0.1819	883.5	1
308.15	0.3334	910.4	1.1
308.15	0.4616	936.3	1.2
308.15	0.5715	962.3	1.3
308.15	0.6668	988.5	1.5
308.15	0.7501	1013.6	1.7
308.15	0.8236	1039.4	1.9
308.15	0.8889	1065.7	2.2
308.15	0.9474	1092.7	2.4
308.15	1	1120.5	2.7
318.15	0	839.6	1
318.15	0.1819	874.6	1
318.15	0.3334	902.6	1
318.15	0.4616	929.4	1.1
318.15	0.5715	955.9	1.3
318.15	0.6668	982.2	1.4
318.15	0.7501	1007.5	1.6
318.15	0.8236	1033.3	1.9
318.15	0.8889	1059.2	2.1
318.15	0.9474	1085.5	2.4
318.15	1	1111.1	2.7

System: dimethyl sulfoxide + formamide; phases: Liquid
Fixed: Pressure, kPa = 100
Fixed: Temperature, K = 298.15
Property: Speed of sound, m/s (Liquid); method: Linear variable-path acoustic interferometer
Mole fraction of formamide	Speed of sound, m/s	uncertainty
0	1493	3.4
0.1616	1480.1	3.5
0.3025	1480.6	3.4
0.4264	1483.9	3.5
0.5363	1492.3	3.9
0.6343	1502.9	4.1
0.7224	1512.7	4.4
0.8019	1526.4	5.3
0.874	1543.7	6.1
0.9398	1561.2	8.3
1	1591.3	3.4

System: dimethyl sulfoxide + formamide; phases: Liquid
Fixed: Pressure, kPa = 101.3
Property: Viscosity, Pa*s (Liquid); method: Capillary tube (Ostwald; Ubbelohde) method
Temperature, K	Mole fraction of formamide	Viscosity, Pa*s	uncertainty
298.15	0	0.002042	3.4e-05
298.15	0.1616	0.002457	4.1e-05
298.15	0.3025	0.002868	4.8e-05
298.15	0.4264	0.003214	5.4e-05
298.15	0.5363	0.003468	5.8e-05
298.15	0.6343	0.003608	6.1e-05
298.15	0.7224	0.003652	6.2e-05
298.15	0.8019	0.003626	6.1e-05
298.15	0.874	0.00354	5.9e-05
298.15	0.9398	0.003426	5.7e-05
298.15	1	0.003302	5.5e-05
308.15	0	0.001568	2.6e-05
308.15	0.1616	0.001859	3.1e-05
308.15	0.3025	0.002135	3.6e-05
308.15	0.4264	0.002365	4e-05
308.15	0.5363	0.00252	4.3e-05
308.15	0.6343	0.002621	4.5e-05
308.15	0.7224	0.002653	4.5e-05
308.15	0.8019	0.002639	4.5e-05
308.15	0.874	0.002613	4.4e-05
308.15	0.9398	0.002571	4.4e-05
308.15	1	0.002542	4.3e-05
318.15	0	0.001485	2.4e-05
318.15	0.1616	0.00164	2.7e-05
318.15	0.3025	0.001823	3e-05
318.15	0.4264	0.001968	3.3e-05
318.15	0.5363	0.002059	3.5e-05
318.15	0.6343	0.002112	3.6e-05
318.15	0.7224	0.002118	3.6e-05
318.15	0.8019	0.002083	3.5e-05
318.15	0.874	0.002054	3.5e-05
318.15	0.9398	0.002021	3.4e-05
318.15	1	0.002001	3.4e-05

System: dimethyl sulfoxide + formamide; phases: Liquid
Fixed: Pressure, kPa = 101.3
Property: Mass density, kg/m3 (Liquid); method: Pycnometric method
Temperature, K	Mole fraction of formamide	Mass density, kg/m3	uncertainty
298.15	0	1095.4	2.5
298.15	0.1616	1099.3	2.5
298.15	0.3025	1102.8	2.5
298.15	0.4264	1106.3	2.5
298.15	0.5363	1109.5	2.6
298.15	0.6343	1112.6	2.6
298.15	0.7224	1115.8	2.6
298.15	0.8019	1119.1	2.6
298.15	0.874	1122.5	2.6
298.15	0.9398	1125.8	2.6
298.15	1	1129.2	2.6
308.15	0	1085.9	2.5
308.15	0.1616	1090.7	2.5
308.15	0.3025	1094.9	2.5
308.15	0.4264	1098.5	2.5
308.15	0.5363	1101.6	2.5
308.15	0.6343	1104.6	2.6
308.15	0.7224	1107.6	2.6
308.15	0.8019	1110.7	2.6
308.15	0.874	1113.9	2.6
308.15	0.9398	1117.2	2.6
308.15	1	1120.5	2.6
318.15	0	1076.9	2.5
318.15	0.1616	1082.7	2.5
318.15	0.3025	1087.3	2.5
318.15	0.4264	1090.9	2.5
318.15	0.5363	1093.9	2.5
318.15	0.6343	1096.7	2.5
318.15	0.7224	1099.5	2.6
318.15	0.8019	1102.3	2.6
318.15	0.874	1105.3	2.6
318.15	0.9398	1108.2	2.6
318.15	1	1111.1	2.6
