Measured thermophysical data. Excess Enthalpies and Thermal Conductivity Coefficients for Binary Mixtures of Carbon Tetrachloride and Four Alkanes (C5 to C8) at a Temperature of 298.15 K
Source: J. Chem. Eng. Data, 2008, 10.1021/je7007395
Compound 1: tetrachloromethane, CCl4, InChI=1S/CCl4/c2-1(3,4)5
Compound 2: pentane, C5H12, InChI=1S/C5H12/c1-3-5-4-2/h3-5H2,1-2H3
Compound 3: hexane, C6H14, InChI=1S/C6H14/c1-3-5-6-4-2/h3-6H2,1-2H3
Compound 4: heptane, C7H16, InChI=1S/C7H16/c1-3-5-7-6-4-2/h3-7H2,1-2H3
Compound 5: octane, C8H18, InChI=1S/C8H18/c1-3-5-7-8-6-4-2/h3-8H2,1-2H3

System: tetrachloromethane; phases: Liquid
Property: Refractive index (Na D-line) (Liquid); method: Standard Abbe refractometry
Temperature, K	Pressure, kPa	Refractive index (Na D-line)	uncertainty
298.1	101.325	1.4598	0.0007

System: tetrachloromethane; phases: Liquid
Property: Mass density, kg/m3 (Liquid); method: VIBTUB:UFactor:2
Temperature, K	Pressure, kPa	Mass density, kg/m3	uncertainty
298.1	101.325	1584.8	0.6

System: pentane; phases: Liquid
Property: Refractive index (Na D-line) (Liquid); method: Standard Abbe refractometry
Temperature, K	Pressure, kPa	Refractive index (Na D-line)	uncertainty
298.1	101.325	1.3587	0.0007

System: pentane; phases: Liquid
Property: Mass density, kg/m3 (Liquid); method: VIBTUB:UFactor:4
Temperature, K	Pressure, kPa	Mass density, kg/m3	uncertainty
298.1	101.325	622.6	0.7

System: hexane; phases: Liquid
Property: Refractive index (Na D-line) (Liquid); method: Standard Abbe refractometry
Temperature, K	Pressure, kPa	Refractive index (Na D-line)	uncertainty
298.1	101.325	1.3744	0.0007

System: hexane; phases: Liquid
Property: Mass density, kg/m3 (Liquid); method: VIBTUB:UFactor:6
Temperature, K	Pressure, kPa	Mass density, kg/m3	uncertainty
298.1	101.325	659.6	1.1

System: heptane; phases: Liquid
Property: Refractive index (Na D-line) (Liquid); method: Standard Abbe refractometry
Temperature, K	Pressure, kPa	Refractive index (Na D-line)	uncertainty
298.1	101.325	1.3885	0.0007

System: heptane; phases: Liquid
Property: Mass density, kg/m3 (Liquid); method: VIBTUB:UFactor:6
Temperature, K	Pressure, kPa	Mass density, kg/m3	uncertainty
298.1	101.325	683.9	1

System: octane; phases: Liquid
Property: Refractive index (Na D-line) (Liquid); method: Standard Abbe refractometry
Temperature, K	Pressure, kPa	Refractive index (Na D-line)	uncertainty
298.1	101.325	1.3978	0.0007

System: octane; phases: Liquid
Property: Mass density, kg/m3 (Liquid); method: VIBTUB:UFactor:6
Temperature, K	Pressure, kPa	Mass density, kg/m3	uncertainty
298.1	101.325	706.6	1

System: tetrachloromethane + pentane; phases: Liquid
Fixed: Temperature, K = 298.15
Fixed: Pressure, kPa = 101
Property: Excess molar enthalpy (molar enthalpy of mixing), kJ/mol (Liquid); method: CALVET:UFactor:6
Mole fraction of tetrachloromethane	Excess molar enthalpy (molar enthalpy of mixing), kJ/mol	uncertainty
0	0	0.006
0.105	0.1227	0.0104
0.154	0.1502	0.0116
0.248	0.2008	0.014
0.306	0.2253	0.0151
0.413	0.2653	0.017
0.533	0.2756	0.0175
0.601	0.2711	0.0172
0.69	0.2451	0.016
0.75	0.2253	0.0151
0.833	0.1806	0.013
0.903	0.1284	0.0106
1	0	0.006

System: tetrachloromethane + hexane; phases: Liquid
Fixed: Temperature, K = 298.15
Fixed: Pressure, kPa = 101
Property: Excess molar enthalpy (molar enthalpy of mixing), kJ/mol (Liquid); method: CALVET:UFactor:6
Mole fraction of tetrachloromethane	Excess molar enthalpy (molar enthalpy of mixing), kJ/mol	uncertainty
0	0	0.006
0.104	0.1385	0.0111
0.207	0.2016	0.014
0.298	0.2406	0.0158
0.394	0.2856	0.0179
0.505	0.3102	0.0191
0.568	0.3104	0.0191
0.636	0.2973	0.0185
0.693	0.2773	0.0175
0.764	0.2421	0.0159
0.848	0.2058	0.0142
0.93	0.1449	0.0114
1	0	0.006

System: tetrachloromethane + heptane; phases: Liquid
Fixed: Temperature, K = 298.15
Fixed: Pressure, kPa = 101
Property: Excess molar enthalpy (molar enthalpy of mixing), kJ/mol (Liquid); method: CALVET:UFactor:6
Mole fraction of tetrachloromethane	Excess molar enthalpy (molar enthalpy of mixing), kJ/mol	uncertainty
0	0	0.006
0.165	0.1821	0.0131
0.29	0.2509	0.0163
0.388	0.3116	0.0191
0.47	0.3378	0.0203
0.512	0.3454	0.0207
0.556	0.3403	0.0205
0.615	0.3357	0.0202
0.696	0.3104	0.0191
0.8	0.2602	0.0167
0.867	0.2019	0.014
1	0	0.006

System: tetrachloromethane + octane; phases: Liquid
Fixed: Temperature, K = 298.15
Fixed: Pressure, kPa = 101
Property: Excess molar enthalpy (molar enthalpy of mixing), kJ/mol (Liquid); method: CALVET:UFactor:6
Mole fraction of tetrachloromethane	Excess molar enthalpy (molar enthalpy of mixing), kJ/mol	uncertainty
0	0	0.006
0.11	0.1702	0.0126
0.236	0.2659	0.017
0.414	0.3507	0.0209
0.542	0.3653	0.0216
0.703	0.3452	0.0207
0.831	0.2756	0.0175
0.92	0.2104	0.0144
0.966	0.1582	0.012
1	0	0.006
