Measured thermophysical data. Densities and Viscosities of Ternary Mixtures of Heptane, Octane, Nonane, and Hexyl Benzene from 293.15 K to 313.15 K
Source: J. Chem. Eng. Data, 2007, 10.1021/je700202h
Compound 1: heptane, C7H16, InChI=1S/C7H16/c1-3-5-7-6-4-2/h3-7H2,1-2H3, purity 99.98%
Compound 2: octane, C8H18, InChI=1S/C8H18/c1-3-5-7-8-6-4-2/h3-8H2,1-2H3, purity 99.99%
Compound 3: nonane, C9H20, InChI=1S/C9H20/c1-3-5-7-9-8-6-4-2/h3-9H2,1-2H3, purity 99%
Compound 4: hexylbenzene, C12H18, InChI=1S/C12H18/c1-2-3-4-6-9-12-10-7-5-8-11-12/h5,7-8,10-11H,2-4,6,9H2,1H3, purity 97%

System: heptane; phases: Liquid
Fixed: Pressure, kPa = 101.325
Property: Viscosity, Pa*s (Liquid); method: CAPTUB:UFactor:2
Temperature, K	Viscosity, Pa*s	uncertainty
293.15	0.0004142	7.8e-06
298.15	0.0003928	7.5e-06
303.15	0.0003728	7.2e-06
308.15	0.0003541	7e-06
313.15	0.0003374	6.7e-06

System: heptane; phases: Liquid
Fixed: Pressure, kPa = 101.325
Property: Mass density, kg/m3 (Liquid); method: PYCNOM:UFactor:4
Temperature, K	Mass density, kg/m3	uncertainty
293.15	682.8	0.7
298.15	678.6	0.8
303.15	674.7	0.8
308.15	670.7	0.9
313.15	665.6	0.9

System: nonane; phases: Liquid
Fixed: Pressure, kPa = 101.325
Property: Viscosity, Pa*s (Liquid); method: CAPTUB:UFactor:2
Temperature, K	Viscosity, Pa*s	uncertainty
293.15	0.0007091	1.24e-05
298.15	0.000664	1.18e-05
303.15	0.0006217	1.11e-05
308.15	0.0005849	1.06e-05
313.15	0.00055	1.01e-05

System: nonane; phases: Liquid
Fixed: Pressure, kPa = 101.325
Property: Mass density, kg/m3 (Liquid); method: PYCNOM:UFactor:4
Temperature, K	Mass density, kg/m3	uncertainty
293.15	717.9	0.9
298.15	714	0.9
303.15	710.8	1
308.15	706.7	1
313.15	702.8	1.1

System: octane + nonane + heptane; phases: Liquid
Fixed: Pressure, kPa = 101
Fixed: Mole fraction of heptane = 0.2872
Fixed: Mole fraction of octane = 0.2077
Property: Viscosity, Pa*s (Liquid); method: CAPTUB:UFactor:2
Temperature, K	Viscosity, Pa*s	uncertainty
293.15	0.000559	1e-05
298.15	0.0005299	9.5e-06
303.15	0.0004985	9.1e-06
308.15	0.0004687	8.6e-06
313.15	0.0004448	8.3e-06

System: octane + nonane + heptane; phases: Liquid
Fixed: Pressure, kPa = 101
Fixed: Mole fraction of heptane = 0.2872
Fixed: Mole fraction of octane = 0.5051
Property: Mass density, kg/m3 (Liquid); method: PYCNOM:UFactor:4
Temperature, K	Mass density, kg/m3	uncertainty
293.15	703.6	0.7
298.15	699.4	0.8
303.15	695.8	0.9
308.15	691.7	0.9
313.15	687.8	1

System: octane + heptane + hexylbenzene; phases: Liquid
Fixed: Pressure, kPa = 101
Fixed: Mole fraction of heptane = 0.3026
Fixed: Mole fraction of octane = 0.6402
Property: Viscosity, Pa*s (Liquid); method: CAPTUB:UFactor:2
Temperature, K	Viscosity, Pa*s	uncertainty
293.15	0.0005163	9.2e-06
298.15	0.000487	9e-06
303.15	0.0004604	8.5e-06
308.15	0.0004368	8.1e-06
313.15	0.0004144	7.8e-06

System: octane + heptane + hexylbenzene; phases: Liquid
Fixed: Pressure, kPa = 101
Fixed: Mole fraction of heptane = 0.3026
Fixed: Mole fraction of octane = 0.6402
Property: Mass density, kg/m3 (Liquid); method: PYCNOM:UFactor:4
Temperature, K	Mass density, kg/m3	uncertainty
293.15	704.9	0.7
298.15	701.2	0.8
303.15	697.3	0.9
308.15	693.6	0.9
313.15	688.8	1

System: nonane + heptane + hexylbenzene; phases: Liquid
Fixed: Pressure, kPa = 101
Fixed: Mole fraction of heptane = 0.2762
Fixed: Mole fraction of nonane = 0.6386
Property: Viscosity, Pa*s (Liquid); method: CAPTUB:UFactor:2
Temperature, K	Viscosity, Pa*s	uncertainty
293.15	0.0006188	1.1e-05
298.15	0.0005811	1.05e-05
303.15	0.000547	1e-05
308.15	0.0005162	9.5e-06
313.15	0.0004871	9.1e-06

System: nonane + heptane + hexylbenzene; phases: Liquid
Fixed: Pressure, kPa = 101
Fixed: Mole fraction of heptane = 0.2762
Fixed: Mole fraction of nonane = 0.6386
Property: Mass density, kg/m3 (Liquid); method: PYCNOM:UFactor:4
Temperature, K	Mass density, kg/m3	uncertainty
293.15	717.3	0.9
298.15	713.8	0.9
303.15	709.8	1
308.15	705.4	1
313.15	701.4	1.1

System: octane + nonane + hexylbenzene; phases: Liquid
Fixed: Pressure, kPa = 101
Fixed: Mole fraction of octane = 0.5638
Fixed: Mole fraction of nonane = 0.3448
Property: Viscosity, Pa*s (Liquid); method: CAPTUB:UFactor:2
Temperature, K	Viscosity, Pa*s	uncertainty
293.15	0.0006375	1.11e-05
298.15	0.0005966	1.05e-05
303.15	0.0005611	1e-05
308.15	0.0005294	9.6e-06
313.15	0.0005006	9.1e-06

System: octane + nonane + hexylbenzene; phases: Liquid
Fixed: Pressure, kPa = 101
Fixed: Mole fraction of octane = 0.5638
Fixed: Mole fraction of nonane = 0.3448
Property: Mass density, kg/m3 (Liquid); method: PYCNOM:UFactor:4
Temperature, K	Mass density, kg/m3	uncertainty
293.15	719.4	0.8
298.15	715.7	0.9
303.15	711.8	0.9
308.15	707.4	1
313.15	704.8	1
