Measured thermophysical data. Binary LLE for Propyl Vinyl Ether (PVE) + Water, Ternary LLE for PVE + Methanol or Ethanol + Water at 298.15 K, and VE and centsR at 293.15 K for the Mixture of PVE + Ethanol + 2,2,4-Trimethylpentane
Source: J. Chem. Eng. Data, 2007, 10.1021/je7003512
Compound 1: propyl vinyl ether, C5H10O, InChI=1S/C5H10O/c1-3-5-6-4-2/h4H,2-3,5H2,1H3
Compound 2: ethanol, C2H6O, InChI=1S/C2H6O/c1-2-3/h3H,2H2,1H3
Compound 3: methanol, CH4O, InChI=1S/CH4O/c1-2/h2H,1H3
Compound 4: water, H2O, InChI=1S/H2O/h1H2
Compound 5: 2,2,4-trimethylpentane, C8H18, InChI=1S/C8H18/c1-7(2)6-8(3,4)5/h7H,6H2,1-5H3

System: propyl vinyl ether; phases: Liquid
Property: Mass density, kg/m3 (Liquid); method: VIBTUB:UFactor:6
Temperature, K	Pressure, kPa	Mass density, kg/m3	uncertainty
298.15	101.325	762.98	1.22

System: propyl vinyl ether; phases: Liquid
Property: Refractive index (Na D-line) (Liquid); method: Standard Abbe refractometry
Temperature, K	Pressure, kPa	Refractive index (Na D-line)	uncertainty
298.15	101.325	1.39094	0.00078

System: ethanol; phases: Liquid
Property: Mass density, kg/m3 (Liquid); method: VIBTUB:UFactor:6
Temperature, K	Pressure, kPa	Mass density, kg/m3	uncertainty
298.15	101.325	785.32	1.2

System: ethanol; phases: Liquid
Property: Refractive index (Na D-line) (Liquid); method: Standard Abbe refractometry
Temperature, K	Pressure, kPa	Refractive index (Na D-line)	uncertainty
298.15	101.325	1.36161	0.00078

System: methanol; phases: Liquid
Property: Refractive index (Na D-line) (Liquid); method: Standard Abbe refractometry
Temperature, K	Pressure, kPa	Refractive index (Na D-line)	uncertainty
298.15	101.325	1.3267	0.00082

System: methanol; phases: Liquid
Property: Mass density, kg/m3 (Liquid); method: VIBTUB:UFactor:6
Temperature, K	Pressure, kPa	Mass density, kg/m3	uncertainty
298.15	101.325	786.54	1.2

System: 2,2,4-trimethylpentane; phases: Liquid
Property: Mass density, kg/m3 (Liquid); method: VIBTUB:UFactor:6
Temperature, K	Pressure, kPa	Mass density, kg/m3	uncertainty
298.15	101.325	688.18	1.31

System: 2,2,4-trimethylpentane; phases: Liquid
Property: Refractive index (Na D-line) (Liquid); method: Standard Abbe refractometry
Temperature, K	Pressure, kPa	Refractive index (Na D-line)	uncertainty
298.15	101.325	1.39267	0.00078

System: propyl vinyl ether + water; phases: Liquid mixture 1, Liquid mixture 2
Fixed: Pressure, kPa = 101.3
Property: Mole fraction of propyl vinyl ether (Liquid mixture 1); method: Chromatography
Temperature, K	Mole fraction of propyl vinyl ether	uncertainty
288.15	0.9982	0.0018
293.15	0.9961	0.0039
298.15	0.9941	0.004
303.15	0.9889	0.004
308.15	0.9756	0.004
313.15	0.9595	0.004
318.15	0.9038	0.0041
323.15	0.826	0.0042

System: propyl vinyl ether + water; phases: Liquid mixture 2, Liquid mixture 1
Fixed: Pressure, kPa = 101.3
Property: Mole fraction of propyl vinyl ether (Liquid mixture 2); method: Chromatography
Temperature, K	Mole fraction of propyl vinyl ether	uncertainty
288.15	0.0004	0.0004
293.15	0.0007	0.0007
298.15	0.0012	0.001
303.15	0.0041	0.001
308.15	0.0067	0.001
313.15	0.0106	0.001
318.15	0.0167	0.001
323.15	0.0193	0.001

System: ethanol + propyl vinyl ether; phases: Liquid
Fixed: Pressure, kPa = 101
Fixed: Temperature, K = 298.15
Property: Refractive index (Na D-line) (Liquid); method: Standard Abbe refractometry
Mole fraction of propyl vinyl ether	Refractive index (Na D-line)	uncertainty
0	1.36161	0.00078
0.0499	1.36372	0.00078
0.1	1.3655	0.00078
0.2002	1.36949	0.00078
0.2996	1.37356	0.00078
0.4004	1.37689	0.00078
0.5006	1.38018	0.00079
0.6005	1.38262	0.00078
0.7005	1.38517	0.00078
0.8002	1.38724	0.00078
0.8997	1.38925	0.00078
0.9492	1.3901	0.00078
1	1.39094	0.00078

System: ethanol + 2,2,4-trimethylpentane; phases: Liquid
Fixed: Pressure, kPa = 101
Fixed: Temperature, K = 298.15
Property: Refractive index (Na D-line) (Liquid); method: Standard Abbe refractometry
Mole fraction of ethanol	Refractive index (Na D-line)	uncertainty
0	1.39267	0.00078
0.052	1.39087	0.00078
0.1002	1.38995	0.00078
0.199	1.38855	0.00078
0.2992	1.38682	0.00078
0.3991	1.38458	0.00078
0.5005	1.38228	0.00078
0.6006	1.37947	0.00078
0.7002	1.37613	0.00078
0.8006	1.37214	0.00078
0.8998	1.36728	0.00078
0.9503	1.36436	0.00078
1	1.36161	0.00078

System: 2,2,4-trimethylpentane + propyl vinyl ether; phases: Liquid
Fixed: Pressure, kPa = 101
Fixed: Temperature, K = 298.15
Property: Refractive index (Na D-line) (Liquid); method: Standard Abbe refractometry
Mole fraction of propyl vinyl ether	Refractive index (Na D-line)	uncertainty
0	1.39267	0.00078
0.0503	1.39117	0.00078
0.1011	1.39096	0.00078
0.2002	1.39064	0.00078
0.3002	1.39044	0.00078
0.3995	1.39004	0.00078
0.4998	1.38988	0.00078
0.6003	1.38967	0.00078
0.7004	1.38964	0.00078
0.7998	1.38978	0.00078
0.9002	1.39013	0.00078
0.9503	1.39035	0.00078
1	1.39094	0.00078

System: ethanol + propyl vinyl ether + water; phases: Liquid mixture 1, Liquid mixture 2
Fixed: Temperature, K = 298.15
Fixed: Pressure, kPa = 101.3
Property: Mole fraction of ethanol (Liquid mixture 1); method: Chromatography
Property: Mole fraction of propyl vinyl ether (Liquid mixture 2); method: Chromatography
Property: Mole fraction of ethanol (Liquid mixture 2); method: Chromatography
Mole fraction of propyl vinyl ether	Mole fraction of ethanol	uncertainty	Mole fraction of propyl vinyl ether	uncertainty	Mole fraction of ethanol	uncertainty
0.956	0.0251	0.006	0.0115	0.01	0.0648	
0.9208	0.0541	0.006	0.0042	0.0042	0.1459	
0.8835	0.0844	0.006	0.0075	0.0075	0.2126	
0.8325	0.1301	0.0061	0.0108	0.01	0.2759	
0.7476	0.1996	0.0062	0.0171	0.01	0.3534	
0.6815	0.2602	0.0063	0.0206	0.01	0.4336	
0.6077	0.3211	0.0064	0.0407	0.01	0.4874	
0.5634	0.3619	0.0065	0.0648	0.01	0.5478	
0.4877	0.4233	0.0067	0.0985	0.01	0.5911	

System: methanol + propyl vinyl ether + water; phases: Liquid mixture 1, Liquid mixture 2
Fixed: Temperature, K = 298.15
Fixed: Pressure, kPa = 101.3
Property: Mole fraction of methanol (Liquid mixture 1); method: Chromatography
Property: Mole fraction of propyl vinyl ether (Liquid mixture 2); method: Chromatography
Property: Mole fraction of methanol (Liquid mixture 2); method: Chromatography
Mole fraction of propyl vinyl ether	Mole fraction of methanol	uncertainty	Mole fraction of propyl vinyl ether	uncertainty	Mole fraction of methanol	uncertainty
0.9184	0.0422	0.001	0.0199	0.001	0.0266	
0.8088	0.1034	0.0012	0.0203	0.001	0.054	
0.659	0.1868	0.0017	0.0198	0.001	0.08	
0.5685	0.2324	0.0019	0.022	0.001	0.1107	
0.4487	0.2845	0.0022	0.0265	0.001	0.1363	
0.3276	0.3188	0.0025	0.0337	0.001	0.1624	
0.2018	0.344	0.0027	0.0364	0.001	0.2148	

System: ethanol + 2,2,4-trimethylpentane + propyl vinyl ether; phases: Liquid
Fixed: Pressure, kPa = 101
Fixed: Temperature, K = 298.15
Property: Refractive index (Na D-line) (Liquid); method: Standard Abbe refractometry
Mole fraction of propyl vinyl ether	Mole fraction of ethanol	Refractive index (Na D-line)	uncertainty
0.0194	0.8008	1.37204	0.00078
0.02	0.1798	1.38907	0.00078
0.0287	0.071	1.39038	0.00078
0.03	0.8999	1.36707	0.00078
0.0303	0.269	1.38721	0.00078
0.0306	0.7	1.37591	0.00078
0.04	0.6004	1.37913	0.00078
0.0405	0.3594	1.38533	0.00078
0.05	0.4506	1.38313	0.00078
0.0604	0.5402	1.38073	0.00079
0.07	0.9001	1.36673	0.00078
0.0703	0.0302	1.39087	0.00078
0.0895	0.209	1.38784	0.00078
0.0907	0.6994	1.37545	0.00078
0.1001	0.1004	1.38944	0.00078
0.1002	0.7998	1.37153	0.00078
0.1197	0.6005	1.3785	0.00078
0.1198	0.2797	1.38648	0.00078
0.1504	0.6995	1.37528	0.00079
0.1508	0.4996	1.38124	0.00078
0.1799	0.7999	1.36987	0.00078
0.1809	0.0186	1.39051	0.00078
0.1995	0.6005	1.37829	0.00078
0.2003	0.1995	1.38756	0.00078
0.2102	0.6998	1.37493	0.00078
0.2109	0.0881	1.38933	0.00078
0.2502	0.2497	1.38646	0.00078
0.2505	0.4995	1.38065	0.00079
0.2697	0.0307	1.39015	0.00078
0.2698	0.7004	1.37426	0.00078
0.2804	0.5998	1.37774	0.00079
0.2813	0.1181	1.38865	0.00078
0.2997	0.3	1.38511	0.00078
0.3	0.4001	1.38298	0.00078
0.3497	0.1489	1.38793	0.00078
0.3503	0.4992	1.38037	0.00079
0.3601	0.5995	1.37718	0.00078
0.3604	0.039	1.39002	0.00078
0.3996	0.3012	1.38478	0.00078
0.4001	0.0609	1.38947	0.00078
0.4006	0.1789	1.38732	0.00078
0.4198	0.4003	1.38276	0.00078
0.4494	0.5007	1.38043	0.00078
0.4976	0.0548	1.3892	0.00078
0.4983	0.2517	1.38563	0.00078
0.5001	0.3491	1.38349	0.00078
0.5002	0.1502	1.38765	0.00078
0.54	0.4003	1.38287	0.00078
0.5986	0.1218	1.38799	0.00078
0.5988	0.2814	1.38502	0.00078
0.5991	0.2012	1.38658	0.00078
0.5996	0.3601	1.38347	0.00078
0.6	0.0394	1.38935	0.00078
0.6988	0.0911	1.38851	0.00078
0.699	0.1508	1.3876	0.00078
0.6996	0.0309	1.38937	0.00078
0.6998	0.2101	1.38661	0.00078
0.7004	0.2695	1.38596	0.00078
0.7987	0.1016	1.38867	0.00078
0.8002	0.0201	1.38964	0.00078
0.8006	0.1797	1.38789	0.00078
0.9012	0.0293	1.38989	0.00078
0.9012	0.0694	1.38956	0.00078

System: ethanol + 2,2,4-trimethylpentane + propyl vinyl ether; phases: Liquid
Fixed: Pressure, kPa = 101
Fixed: Temperature, K = 298.15
Property: Mass density, kg/m3 (Liquid); method: VIBTUB:UFactor:6
Mole fraction of propyl vinyl ether	Mole fraction of ethanol	Mass density, kg/m3	uncertainty
0.0194	0.8008	749.83	1.23
0.02	0.1798	699.18	1.29
0.0287	0.071	695.51	1.29
0.03	0.8999	770.4	1.2
0.0303	0.269	703.67	1.28
0.0306	0.7	737.38	1.24
0.04	0.6004	727.59	1.25
0.0405	0.3594	709.37	1.27
0.05	0.4506	715.98	1.27
0.0604	0.5402	724.11	1.26
0.07	0.9001	779.23	1.19
0.0703	0.0302	696.74	1.29
0.0895	0.209	704.54	1.28
0.0907	0.6994	745.29	1.23
0.1001	0.1004	700.58	1.29
0.1002	0.7998	763.23	1.21
0.1197	0.6005	736.58	1.24
0.1198	0.2797	710.26	1.27
0.1504	0.6995	754.05	1.22
0.1508	0.4996	729.3	1.25
0.1799	0.7999	778.94	1.2
0.1809	0.0186	701.6	1.28
0.1995	0.6005	746.63	1.23
0.2003	0.1995	711.08	1.27
0.2102	0.6998	763.86	1.21
0.2109	0.0881	706.11	1.28
0.2502	0.2497	718.55	1.26
0.2505	0.4995	740.19	1.24
0.2697	0.0307	707.36	1.28
0.2698	0.7004	774.72	1.2
0.2804	0.5998	757.97	1.22
0.2813	0.1181	712.58	1.27
0.2997	0.3	725.84	1.26
0.3	0.4001	734.88	1.25
0.3497	0.1489	719.1	1.26
0.3503	0.4992	752.83	1.23
0.3601	0.5995	770.93	1.21
0.3604	0.039	713.29	1.27
0.3996	0.3012	735.16	1.25
0.4001	0.0609	717.14	1.27
0.4006	0.1789	724.81	1.26
0.4198	0.4003	748.63	1.23
0.4494	0.5007	767.78	1.21
0.4976	0.0548	723.85	1.26
0.4983	0.2517	740.39	1.24
0.5001	0.3491	752.09	1.23
0.5002	0.1502	731.14	1.25
0.54	0.4003	764.9	1.21
0.5986	0.1218	737.73	1.24
0.5988	0.2814	755.56	1.22
0.5991	0.2012	745.87	1.23
0.5996	0.3601	767.15	1.21
0.6	0.0394	731.14	1.25
0.6988	0.0911	744.84	1.23
0.699	0.1508	751.37	1.23
0.6996	0.0309	739.22	1.24
0.6998	0.2101	758.82	1.22
0.7004	0.2695	767.54	1.21
0.7987	0.1016	757.01	1.22
0.8002	0.0201	748.09	1.23
0.8006	0.1797	767.93	1.21
0.9012	0.0293	760.23	1.22
0.9012	0.0694	765.34	1.21
