Measured thermophysical data. Viscosities and Volumetric Properties of Binary and Ternary Mixtures of Tris(2-hydroxyethyl) Methylammonium Methylsulfate + Water + Ethanol at 298.15 K
Source: J. Chem. Eng. Data, 2008, 10.1021/je700618y
Compound 1: tris(2-hydroxyethyl) methylammonium methylsulfate, C8H21NO7S, InChI=1S/C7H18NO3.CH4O4S/c1-8(2-5-9,3-6-10)4-7-11;1-5-6(2,3)4/h9-11H,2-7H2,1H3;1H3,(H,2,3,4)/q+1;/p-1, purity 95%
Compound 2: water, H2O, InChI=1S/H2O/h1H2
Compound 3: ethanol, C2H6O, InChI=1S/C2H6O/c1-2-3/h3H,2H2,1H3, purity 99.8%

System: tris(2-hydroxyethyl) methylammonium methylsulfate; phases: Liquid
Property: Refractive index (Na D-line) (Liquid); method: Standard Abbe refractometry
Temperature, K	Pressure, kPa	Refractive index (Na D-line)	uncertainty
298.15	101.325	1.48489	0.00105

System: tris(2-hydroxyethyl) methylammonium methylsulfate; phases: Liquid
Property: Mass density, kg/m3 (Liquid); method: Vibrating tube method
Temperature, K	Pressure, kPa	Mass density, kg/m3	uncertainty
298.15	101.325	1344.13	9.86

System: tris(2-hydroxyethyl) methylammonium methylsulfate; phases: Liquid
Property: Viscosity, Pa*s (Liquid); method: Capillary tube (Ostwald; Ubbelohde) method
Temperature, K	Pressure, kPa	Viscosity, Pa*s	uncertainty
298.15	101.325	1.236	0.074

System: ethanol; phases: Liquid
Property: Refractive index (Na D-line) (Liquid); method: Standard Abbe refractometry
Temperature, K	Pressure, kPa	Refractive index (Na D-line)	uncertainty
298.15	101.325	1.35937	0.00031

System: ethanol; phases: Liquid
Property: Mass density, kg/m3 (Liquid); method: VIBTUB:UFactor:2
Temperature, K	Pressure, kPa	Mass density, kg/m3	uncertainty
298.15	101.325	785.12	0.24

System: ethanol; phases: Liquid
Property: Viscosity, Pa*s (Liquid); method: Capillary tube (Ostwald; Ubbelohde) method
Temperature, K	Pressure, kPa	Viscosity, Pa*s	uncertainty
298.15	101.325	0.001076	1.2e-05

System: ethanol + water; phases: Liquid
Fixed: Temperature, K = 298.15
Fixed: Pressure, kPa = 101
Property: Viscosity, Pa*s (Liquid); method: Capillary tube (Ostwald; Ubbelohde) method
Mole fraction of water	Viscosity, Pa*s	uncertainty
0.048	0.001158	1.3e-05
0.1116	0.001261	1.4e-05
0.1599	0.001326	1.5e-05
0.1761	0.00136	1.6e-05
0.2668	0.001496	1.7e-05
0.301	0.001556	1.8e-05
0.3994	0.001726	2e-05
0.497	0.001932	2.2e-05
0.6122	0.002161	2.4e-05
0.7116	0.002385	2.7e-05
0.7774	0.002353	2.7e-05
0.8145	0.002366	2.7e-05
0.8529	0.002193	2.5e-05
0.8967	0.00192	2.2e-05
0.9481	0.001432	1.7e-05

System: ethanol + water; phases: Liquid
Fixed: Temperature, K = 298.15
Fixed: Pressure, kPa = 101
Property: Refractive index (Na D-line) (Liquid); method: Standard Abbe refractometry
Mole fraction of water	Refractive index (Na D-line)	uncertainty
0.048	1.36013	0.00031
0.1116	1.361	0.00031
0.1599	1.3615	0.00031
0.1761	1.36168	0.00031
0.2668	1.36247	0.00031
0.301	1.36266	0.00031
0.3994	1.36295	0.00031
0.497	1.3628	0.00031
0.6122	1.36176	0.00031
0.7116	1.35974	0.00031
0.7774	1.35727	0.00031
0.8145	1.3554	0.00031
0.8529	1.35243	0.00031
0.8967	1.34783	0.00032
0.9481	1.34063	0.00032

System: ethanol + water; phases: Liquid
Fixed: Temperature, K = 298.15
Fixed: Pressure, kPa = 101
Property: Mass density, kg/m3 (Liquid); method: Vibrating tube method
Mole fraction of water	Mass density, kg/m3	uncertainty
0.048	791.06	0.13
0.1116	799.08	0.13
0.1599	805.32	0.12
0.1761	807.44	0.12
0.2668	820.06	0.12
0.301	825.06	0.12
0.3994	840.69	0.12
0.497	858.26	0.12
0.6122	882.42	0.12
0.7116	907.85	0.13
0.7774	926.61	0.13
0.8145	937.62	0.14
0.8529	949.42	0.13
0.8967	960.95	0.13
0.9481	976.77	0.13

System: water + tris(2-hydroxyethyl) methylammonium methylsulfate; phases: Liquid
Fixed: Temperature, K = 298.15
Fixed: Pressure, kPa = 101
Property: Viscosity, Pa*s (Liquid); method: Capillary tube (Ostwald; Ubbelohde) method
Mole fraction of tris(2-hydroxyethyl) methylammonium methylsulfate	Viscosity, Pa*s	uncertainty
0.0478	0.002341	2.7e-05
0.0967	0.005054	7.1e-05
0.1939	0.01679	0.00021
0.2421	0.027	0.00035
0.2894	0.04122	0.00057
0.3872	0.08607	0.00145
0.4858	0.1595	0.0039
0.6064	0.2901	0.0098
0.6698	0.3907	0.0152
0.7822	0.569	0.026
0.867	0.7562	0.0385
0.9398	0.9607	0.0531

System: water + tris(2-hydroxyethyl) methylammonium methylsulfate; phases: Liquid
Fixed: Temperature, K = 298.15
Fixed: Pressure, kPa = 101
Property: Refractive index (Na D-line) (Liquid); method: Standard Abbe refractometry
Mole fraction of tris(2-hydroxyethyl) methylammonium methylsulfate	Refractive index (Na D-line)	uncertainty
0.0478	1.38887	0.00046
0.0967	1.41769	0.00038
0.1939	1.44581	0.00039
0.2421	1.4539	0.00041
0.2894	1.45949	0.00044
0.3872	1.46758	0.00051
0.4858	1.47335	0.00059
0.6064	1.47587	0.00069
0.6698	1.47878	0.00074
0.7822	1.4813	0.00085
0.867	1.4827	0.00092
0.9398	1.48341	0.00099

System: water + tris(2-hydroxyethyl) methylammonium methylsulfate; phases: Liquid
Fixed: Temperature, K = 298.15
Fixed: Pressure, kPa = 101
Property: Mass density, kg/m3 (Liquid); method: Vibrating tube method
Mole fraction of tris(2-hydroxyethyl) methylammonium methylsulfate	Mass density, kg/m3	uncertainty
0.0478	1129.13	1.01
0.0967	1195.06	0.65
0.1939	1258.48	0.59
0.2421	1275.98	0.77
0.2894	1288.49	0.94
0.3872	1306.02	1.54
0.4858	1317.49	2.33
0.6064	1327.14	3.59
0.6698	1330.96	4.37
0.7822	1336.36	5.96
0.867	1339.64	7.35
0.9398	1342.07	8.67

System: ethanol + tris(2-hydroxyethyl) methylammonium methylsulfate; phases: Liquid
Fixed: Temperature, K = 298.15
Fixed: Pressure, kPa = 101
Property: Viscosity, Pa*s (Liquid); method: Capillary tube (Ostwald; Ubbelohde) method
Mole fraction of tris(2-hydroxyethyl) methylammonium methylsulfate	Viscosity, Pa*s	uncertainty
0.0482	0.00226	3.2e-05
0.0981	0.004523	5.8e-05
0.1509	0.008351	0.000105
0.1994	0.01332	0.00017
0.242	0.01962	0.00026
0.2922	0.02916	0.00041
0.3882	0.05872	0.00088
0.4841	0.1108	0.0023
0.5923	0.2043	0.0058
0.6288	0.2476	0.0078
0.6881	0.3336	0.0123
0.7379	0.4304	0.0177
0.7878	0.5181	0.023
0.8379	0.6571	0.0319
0.8738	0.7757	0.0399
0.9203	0.9021	0.0488

System: ethanol + tris(2-hydroxyethyl) methylammonium methylsulfate; phases: Liquid
Fixed: Temperature, K = 298.15
Fixed: Pressure, kPa = 101
Property: Refractive index (Na D-line) (Liquid); method: Standard Abbe refractometry
Mole fraction of tris(2-hydroxyethyl) methylammonium methylsulfate	Refractive index (Na D-line)	uncertainty
0.0482	1.3818	0.00035
0.0981	1.39899	0.00036
0.1509	1.41373	0.00038
0.1994	1.42476	0.0004
0.242	1.43322	0.00042
0.2922	1.44083	0.00045
0.3882	1.45307	0.00052
0.4841	1.46222	0.00059
0.5923	1.4695	0.00068
0.6288	1.47153	0.00072
0.6881	1.47511	0.00077
0.7379	1.47666	0.00081
0.7878	1.47867	0.00085
0.8379	1.48018	0.0009
0.8738	1.48134	0.00093
0.9203	1.48278	0.00097

System: ethanol + tris(2-hydroxyethyl) methylammonium methylsulfate; phases: Liquid
Fixed: Temperature, K = 298.15
Fixed: Pressure, kPa = 101
Property: Mass density, kg/m3 (Liquid); method: Vibrating tube method
Mole fraction of tris(2-hydroxyethyl) methylammonium methylsulfate	Mass density, kg/m3	uncertainty
0.0482	876.74	0.61
0.0981	951.17	0.55
0.1509	1014.1	0.48
0.1994	1061.07	0.51
0.242	1097.16	0.6
0.2922	1132.75	0.78
0.3882	1187.8	1.33
0.4841	1229.34	2.09
0.5923	1264.46	3.19
0.6288	1273.93	3.61
0.6881	1288.67	4.38
0.7379	1299.19	5.09
0.7878	1309.46	5.86
0.8379	1318.78	6.7
0.8738	1324.39	7.33
0.9203	1331.87	8.21

System: ethanol + water + tris(2-hydroxyethyl) methylammonium methylsulfate; phases: Liquid
Fixed: Temperature, K = 298.15
Fixed: Pressure, kPa = 101
Property: Viscosity, Pa*s (Liquid); method: Capillary tube (Ostwald; Ubbelohde) method
Mole fraction of tris(2-hydroxyethyl) methylammonium methylsulfate	Mole fraction of water	Viscosity, Pa*s	uncertainty
0	0.048	0.001158	1.3e-05
0	0.1116	0.001261	1.4e-05
0	0.1599	0.001326	1.5e-05
0	0.1761	0.00136	1.6e-05
0	0.2668	0.001496	1.7e-05
0	0.301	0.001556	1.8e-05
0	0.3994	0.001726	2e-05
0	0.497	0.001932	2.2e-05
0	0.6122	0.002161	2.4e-05
0	0.7116	0.002385	2.7e-05
0	0.7774	0.002353	2.7e-05
0	0.8145	0.002366	2.7e-05
0	0.8529	0.002193	2.5e-05
0	0.8967	0.00192	2.2e-05
0	0.9481	0.001432	1.7e-05
0.0096	0.9515	0.001522	1.9e-05
0.0185	0.9541	0.001646	2.1e-05
0.0193	0.9025	0.002221	2.7e-05
0.0274	0.9499	0.00187	2.3e-05
0.034	0.9508	0.002005	2.5e-05
0.0384	0.9046	0.002687	3.4e-05
0.0385	0.8054	0.00353	4.4e-05
0.04	0.9529	0.002096	2.7e-05
0.0478	0.9522	0.002341	3e-05
0.0482	0	0.00226	3.2e-05
0.0545	0.9004	0.003245	3.9e-05
0.0604	0.6951	0.004907	8.1e-05
0.0665	0.9037	0.003654	4.4e-05
0.0771	0.6108	0.005957	7.4e-05
0.0784	0.8056	0.00541	6.6e-05
0.0803	0.9053	0.004199	5.2e-05
0.0967	0.9033	0.005054	6.2e-05
0.0974	0.5081	0.007158	8.9e-05
0.0981	0	0.004523	5.8e-05
0.1061	0.8061	0.007224	8.8e-05
0.1144	0.716	0.008655	0.000103
0.1183	0.4028	0.008428	0.0001
0.1345	0.8054	0.009752	0.000119
0.1357	0.3151	0.009374	0.000118
0.1509	0	0.008351	0.000105
0.1578	0.2037	0.01089	0.00015
0.1601	0.6028	0.01407	0.00017
0.1627	0.8081	0.01253	0.00015
0.1628	0.7025	0.0142	0.00017
0.1775	0.1042	0.01183	0.00016
0.1939	0.8061	0.01679	0.00021
0.196	0.5137	0.01895	0.00024
0.1994	0	0.01332	0.00017
0.2047	0.7037	0.02043	0.00026
0.2148	0.6073	0.02307	0.00031
0.2303	0.4284	0.02428	0.00031
0.242	0	0.01962	0.00026
0.2421	0.7579	0.027	0.00034
0.258	0.6959	0.032	0.00042
0.2711	0.3273	0.03169	0.00042
0.2721	0.5027	0.03619	0.00048
0.2894	0.7106	0.04122	0.00055
0.2909	0.579	0.04183	0.00056
0.2922	0	0.02916	0.00041
0.3173	0.2125	0.04259	0.00059
0.3207	0.4139	0.05007	0.00067
0.3373	0.5118	0.05916	0.00083
0.3622	0.1012	0.05272	0.00075
0.3753	0.314	0.07039	0.00108
0.3872	0.6128	0.08607	0.00144
0.3882	0	0.05872	0.00088
0.4007	0.4199	0.08695	0.00149
0.4078	0.5193	0.09411	0.00168
0.4378	0.1998	0.09636	0.00179
0.4806	0.3043	0.1347	0.003
0.4841	0	0.1108	0.0023
0.4858	0.5142	0.1595	0.0039
0.4869	0.11	0.1228	0.0026
0.5015	0.4088	0.1613	0.004
0.5506	0.203	0.1889	0.0051
0.5789	0.3175	0.2343	0.0071
0.5923	0	0.2043	0.0058
0.6064	0.3936	0.2901	0.0098
0.6164	0.1078	0.2513	0.008
0.6288	0	0.2476	0.0078
0.6698	0.3302	0.3907	0.0152
0.6702	0.21	0.3715	0.0141
0.6881	0	0.3336	0.0123
0.709	0.1642	0.4134	0.0166
0.7379	0	0.4304	0.0177
0.753	0.1124	0.4802	0.0206
0.7822	0.2178	0.569	0.026
0.7878	0	0.5181	0.023
0.8379	0	0.6571	0.0319
0.867	0.133	0.7562	0.0385
0.8738	0	0.7757	0.0399
0.9203	0	0.9021	0.0488
0.9398	0.0602	0.9607	0.0531

System: ethanol + water + tris(2-hydroxyethyl) methylammonium methylsulfate; phases: Liquid
Fixed: Temperature, K = 298.15
Fixed: Pressure, kPa = 101
Property: Refractive index (Na D-line) (Liquid); method: Standard Abbe refractometry
Mole fraction of tris(2-hydroxyethyl) methylammonium methylsulfate	Mole fraction of water	Refractive index (Na D-line)	uncertainty
0	0.048	1.36013	0.00031
0	0.1116	1.361	0.00031
0	0.1599	1.3615	0.00031
0	0.1761	1.36168	0.00031
0	0.2668	1.36247	0.00031
0	0.301	1.36266	0.00031
0	0.3994	1.36295	0.00031
0	0.497	1.3628	0.00031
0	0.6122	1.36176	0.00031
0	0.7116	1.35974	0.00031
0	0.7774	1.35727	0.00031
0	0.8145	1.3554	0.00031
0	0.8529	1.35243	0.00031
0	0.8967	1.34783	0.00032
0	0.9481	1.34063	0.00032
0.0096	0.9515	1.35307	0.00056
0.0185	0.9541	1.3626	0.0005
0.0193	0.9025	1.36833	0.00047
0.0274	0.9499	1.37214	0.00052
0.034	0.9508	1.37802	0.00046
0.0384	0.9046	1.38445	0.0004
0.0385	0.8054	1.38821	0.00039
0.04	0.9529	1.3825	0.00045
0.0478	0.9522	1.38887	0.00046
0.0482	0	1.3818	0.00035
0.0545	0.9004	1.396	0.00044
0.0604	0.6951	1.40102	0.00034
0.0665	0.9037	1.40282	0.00041
0.0771	0.6108	1.40779	0.00038
0.0784	0.8056	1.41028	0.00038
0.0803	0.9053	1.41007	0.00038
0.0967	0.9033	1.41769	0.00038
0.0974	0.5081	1.41295	0.00037
0.0981	0	1.39899	0.00036
0.1061	0.8061	1.4221	0.00037
0.1144	0.716	1.42353	0.00039
0.1183	0.4028	1.41691	0.00039
0.1345	0.8054	1.43142	0.00037
0.1357	0.3151	1.41909	0.00037
0.1509	0	1.41373	0.00038
0.1578	0.2037	1.42127	0.00037
0.1601	0.6028	1.43423	0.00038
0.1627	0.8081	1.43874	0.00037
0.1628	0.7025	1.43775	0.00038
0.1775	0.1042	1.42317	0.00039
0.1939	0.8061	1.44581	0.00039
0.196	0.5137	1.43994	0.00039
0.1994	0	1.42476	0.0004
0.2047	0.7037	1.44641	0.00039
0.2148	0.6073	1.44684	0.00039
0.2303	0.4284	1.44363	0.00042
0.242	0	1.43322	0.00042
0.2421	0.7579	1.4539	0.00041
0.258	0.6959	1.45477	0.00042
0.2711	0.3273	1.44763	0.00043
0.2721	0.5027	1.45274	0.00043
0.2894	0.7106	1.45949	0.00044
0.2909	0.579	1.45521	0.00044
0.2922	0	1.44083	0.00045
0.3173	0.2125	1.45114	0.00046
0.3207	0.4139	1.45663	0.00046
0.3373	0.5118	1.46074	0.00047
0.3622	0.1012	1.45272	0.0005
0.3753	0.314	1.45992	0.0005
0.3872	0.6128	1.46758	0.00051
0.3882	0	1.45307	0.00052
0.4007	0.4199	1.46487	0.00052
0.4078	0.5193	1.46736	0.00052
0.4378	0.1998	1.46278	0.00055
0.4806	0.3043	1.46847	0.00059
0.4841	0	1.46222	0.00059
0.4858	0.5142	1.47335	0.00059
0.4869	0.11	1.46471	0.00059
0.5015	0.4088	1.47232	0.0006
0.5506	0.203	1.47091	0.00064
0.5789	0.3175	1.47504	0.00067
0.5923	0	1.4695	0.00068
0.6064	0.3936	1.47587	0.00069
0.6164	0.1078	1.47296	0.0007
0.6288	0	1.47153	0.00072
0.6698	0.3302	1.47878	0.00074
0.6702	0.21	1.47704	0.00075
0.6881	0	1.47511	0.00077
0.709	0.1642	1.47809	0.00078
0.7379	0	1.47666	0.00081
0.753	0.1124	1.4788	0.00082
0.7822	0.2178	1.4813	0.00085
0.7878	0	1.47867	0.00085
0.8379	0	1.48018	0.0009
0.867	0.133	1.4827	0.00092
0.8738	0	1.48134	0.00093
0.9203	0	1.48278	0.00097
0.9398	0.0602	1.48341	0.00099

System: ethanol + water + tris(2-hydroxyethyl) methylammonium methylsulfate; phases: Liquid
Fixed: Temperature, K = 298.15
Fixed: Pressure, kPa = 101
Property: Mass density, kg/m3 (Liquid); method: Vibrating tube method
Mole fraction of tris(2-hydroxyethyl) methylammonium methylsulfate	Mole fraction of water	Mass density, kg/m3	uncertainty
0	0.048	791.06	0.13
0	0.1116	799.08	0.13
0	0.1599	805.32	0.12
0	0.1761	807.44	0.12
0	0.2668	820.06	0.12
0	0.301	825.06	0.12
0	0.3994	840.69	0.12
0	0.497	858.26	0.12
0	0.6122	882.42	0.12
0	0.7116	907.85	0.13
0	0.7774	926.61	0.13
0	0.8145	937.62	0.14
0	0.8529	949.42	0.13
0	0.8967	960.95	0.13
0	0.9481	976.77	0.13
0.0096	0.9515	1017.73	1.43
0.0185	0.9541	1049.48	1.2
0.0193	0.9025	1033.57	1.12
0.0274	0.9499	1076.04	1.29
0.034	0.9508	1095.02	1.03
0.0384	0.9046	1087.21	0.81
0.0385	0.8054	1051.05	0.81
0.04	0.9529	1110.16	1
0.0478	0.9522	1129.13	1.01
0.0482	0	876.74	0.61
0.0545	0.9004	1122.38	1
0.0604	0.6951	1058.84	0.49
0.0665	0.9037	1146.85	0.83
0.0771	0.6108	1061.69	0.78
0.0784	0.8056	1130.36	0.74
0.0803	0.9053	1171.25	0.68
0.0967	0.9033	1195.06	0.65
0.0974	0.5081	1063.1	0.69
0.0981	0	951.17	0.55
0.1061	0.8061	1171.78	0.59
0.1144	0.716	1151.06	0.82
0.1183	0.4028	1063.36	0.78
0.1345	0.8054	1205.71	0.53
0.1357	0.3151	1062.69	0.56
0.1509	0	1014.1	0.48
0.1578	0.2037	1061.87	0.41
0.1601	0.6028	1167.21	0.58
0.1627	0.8081	1233.5	0.52
0.1628	0.7025	1201.04	0.63
0.1775	0.1042	1060.98	0.6
0.1939	0.8061	1258.48	0.59
0.196	0.5137	1175.06	0.59
0.1994	0	1061.07	0.51
0.2047	0.7037	1236.68	0.59
0.2148	0.6073	1216.6	0.59
0.2303	0.4284	1180.3	0.75
0.242	0	1097.16	0.6
0.2421	0.7579	1275.98	0.77
0.258	0.6959	1267.75	0.79
0.2711	0.3273	1185.01	0.78
0.2721	0.5027	1227.49	0.8
0.2894	0.7106	1288.49	0.94
0.2909	0.579	1256.91	0.92
0.2922	0	1132.75	0.78
0.3173	0.2125	1188.85	0.97
0.3207	0.4139	1234.27	1.03
0.3373	0.5118	1263.81	1.15
0.3622	0.1012	1191.67	1.2
0.3753	0.314	1239.94	1.34
0.3872	0.6128	1306.02	1.54
0.3882	0	1187.8	1.33
0.4007	0.4199	1271.13	1.56
0.4078	0.5193	1293.73	1.65
0.4378	0.1998	1244.78	1.77
0.4806	0.3043	1278.23	2.19
0.4841	0	1229.34	2.09
0.4858	0.5142	1317.49	2.33
0.4869	0.11	1247.75	2.16
0.5015	0.4088	1302.91	2.43
0.5506	0.203	1282.78	2.83
0.5789	0.3175	1308.43	3.21
0.5923	0	1264.46	3.19
0.6064	0.3936	1327.14	3.59
0.6164	0.1078	1286.15	3.53
0.6288	0	1273.93	3.61
0.6698	0.3302	1330.96	4.37
0.6702	0.21	1313.28	4.28
0.6881	0	1288.67	4.38
0.709	0.1642	1315.01	4.79
0.7379	0	1299.19	5.09
0.753	0.1124	1316.85	5.4
0.7822	0.2178	1336.36	5.96
0.7878	0	1309.46	5.86
0.8379	0	1318.78	6.7
0.867	0.133	1339.64	7.35
0.8738	0	1324.39	7.33
0.9203	0	1331.87	8.21
0.9398	0.0602	1342.07	8.67
