Measured thermophysical data. Densities of Ionic Liquids, 1-Butyl-3-methylimidazolium Hexafluorophosphate and 1-Butyl-3-methylimidazolium Tetrafluoroborate, with Benzene, Acetonitrile, and 1-Propanol at T = (293.15 to 343.15) K
Source: J. Chem. Eng. Data, 2007, 10.1021/je700266n
Compound 1: 1-butyl-3-methylimidazolium hexafluorophosphate, C8H15F6N2P, InChI=1S/C8H15N2.F6P/c1-3-4-5-10-7-6-9(2)8-10;1-7(2,3,4,5)6/h6-8H,3-5H2,1-2H3;/q+1;-1, purity 98%
Compound 2: 1-butyl-3-methylimidazolium tetrafluoroborate, C8H15BF4N2, InChI=1S/C8H15N2.BF4/c1-3-4-5-10-7-6-9(2)8-10;2-1(3,4)5/h6-8H,3-5H2,1-2H3;/q+1;-1, purity 98%
Compound 3: benzene, C6H6, InChI=1S/C6H6/c1-2-4-6-5-3-1/h1-6H
Compound 4: acetonitrile, C2H3N, InChI=1S/C2H3N/c1-2-3/h1H3
Compound 5: propan-1-ol, C3H8O, InChI=1S/C3H8O/c1-2-3-4/h4H,2-3H2,1H3

System: 1-butyl-3-methylimidazolium hexafluorophosphate; phases: Liquid
Fixed: Pressure, kPa = 101
Property: Mass density, kg/m3 (Liquid); method: VIBTUB:UFactor:6
Temperature, K	Mass density, kg/m3	uncertainty
293.15	1371.57	2.58
298.15	1367.22	2.56
303.15	1362.86	2.54
308.15	1358.56	2.52
313.15	1354.3	2.5
323.15	1345.98	2.46
333.15	1337.7	2.42
343.15	1330.76	2.39

System: 1-butyl-3-methylimidazolium tetrafluoroborate; phases: Liquid
Fixed: Pressure, kPa = 101
Property: Mass density, kg/m3 (Liquid); method: VIBTUB:UFactor:6
Temperature, K	Mass density, kg/m3	uncertainty
293.15	1195.71	1.8
298.15	1192.07	1.78
303.15	1188.37	1.77
308.15	1184.72	1.75
313.15	1181.43	1.74
323.15	1174.49	1.71
333.15	1166.89	1.68
343.15	1159.97	1.65

System: benzene; phases: Liquid
Fixed: Pressure, kPa = 101
Property: Mass density, kg/m3 (Liquid); method: VIBTUB:UFactor:6
Temperature, K	Mass density, kg/m3	uncertainty
293.15	878.23	0.48
298.15	873.11	0.49
303.15	867.59	0.5
308.15	862.21	0.52
313.15	856.82	0.53
323.15	846.05	0.55
333.15	835.76	0.58
343.15	824.89	0.6

System: acetonitrile; phases: Liquid
Fixed: Pressure, kPa = 101
Property: Mass density, kg/m3 (Liquid); method: VIBTUB:UFactor:6
Temperature, K	Mass density, kg/m3	uncertainty
293.15	782.3	0.7
298.15	776.93	0.71
303.15	771.44	0.73
308.15	765.97	0.74
313.15	760.68	0.75
323.15	749.73	0.78
333.15	738.19	0.81
343.15	726.94	0.83

System: propan-1-ol; phases: Liquid
Fixed: Pressure, kPa = 101
Property: Mass density, kg/m3 (Liquid); method: VIBTUB:UFactor:6
Temperature, K	Mass density, kg/m3	uncertainty
293.15	804.97	0.65
298.15	801.01	0.66
303.15	796.89	0.67
308.15	792.83	0.68
313.15	789.07	0.69
323.15	780.74	0.71
333.15	771.75	0.73
343.15	762.86	0.75

System: benzene + 1-butyl-3-methylimidazolium hexafluorophosphate; phases: Liquid
Fixed: Pressure, kPa = 101
Property: Mass density, kg/m3 (Liquid); method: VIBTUB:UFactor:6
Temperature, K	Mole fraction of 1-butyl-3-methylimidazolium hexafluorophosphate	Mass density, kg/m3	uncertainty
293.15	0	878.23	0.48
293.15	0.34	1166.34	0.76
293.15	0.3995	1197.59	0.89
293.15	0.4999	1239.2	1.12
293.15	0.5999	1274.25	1.36
293.15	0.7	1304.29	1.62
293.15	0.8003	1329.79	1.91
293.15	0.9001	1351.51	2.23
293.15	1	1371.57	2.58
298.15	0	873.11	0.49
298.15	0.34	1161.8	0.75
298.15	0.3995	1193.15	0.88
298.15	0.4999	1234.86	1.11
298.15	0.5999	1269.99	1.35
298.15	0.7	1299.95	1.61
298.15	0.8003	1325.97	1.9
298.15	0.9001	1347.29	2.21
298.15	1	1367.22	2.56
303.15	0	867.59	0.5
303.15	0.34	1157.16	0.74
303.15	0.3995	1188.62	0.87
303.15	0.4999	1230.38	1.09
303.15	0.5999	1265.61	1.33
303.15	0.7	1295.6	1.59
303.15	0.8003	1321.58	1.88
303.15	0.9001	1342.85	2.19
303.15	1	1362.86	2.54
308.15	0	862.21	0.52
308.15	0.34	1152.56	0.72
308.15	0.3995	1184.16	0.86
308.15	0.4999	1226.01	1.08
308.15	0.5999	1261.3	1.32
308.15	0.7	1291.34	1.58
308.15	0.8003	1317.28	1.87
308.15	0.9001	1338.55	2.17
308.15	1	1358.56	2.52
313.15	0	856.82	0.53
313.15	0.34	1148.35	0.71
313.15	0.3995	1180.04	0.85
313.15	0.4999	1222.02	1.07
313.15	0.5999	1257.39	1.31
313.15	0.7	1287.35	1.57
313.15	0.8003	1313.09	1.85
313.15	0.9001	1334.45	2.16
313.15	1	1354.3	2.5
323.15	0	846.05	0.55
323.15	0.34	1139.5	0.69
323.15	0.3995	1171.45	0.82
323.15	0.4999	1213.65	1.04
323.15	0.5999	1249.14	1.28
323.15	0.7	1279.03	1.54
323.15	0.8003	1304.76	1.82
323.15	0.9001	1326.2	2.12
323.15	1	1345.98	2.46
333.15	0	835.76	0.58
333.15	0.34	1129.94	0.67
333.15	0.3995	1162.13	0.8
333.15	0.4999	1204.95	1.02
333.15	0.5999	1240.67	1.25
333.15	0.7	1270.76	1.51
333.15	0.8003	1296.68	1.79
333.15	0.9001	1317.85	2.09
333.15	1	1337.7	2.42
343.15	0	824.89	0.6
343.15	0.34	1120.87	0.64
343.15	0.3995	1153.45	0.77
343.15	0.4999	1196.96	1
343.15	0.5999	1233.13	1.23
343.15	0.7	1263.66	1.49
343.15	0.8003	1289.79	1.76
343.15	0.9001	1310.77	2.06
343.15	1	1330.76	2.39

System: acetonitrile + 1-butyl-3-methylimidazolium hexafluorophosphate; phases: Liquid
Fixed: Pressure, kPa = 101
Property: Mass density, kg/m3 (Liquid); method: VIBTUB:UFactor:6
Temperature, K	Mole fraction of 1-butyl-3-methylimidazolium hexafluorophosphate	Mass density, kg/m3	uncertainty
293.15	0	782.3	0.7
293.15	0.1	974.06	0.42
293.15	0.1997	1089.47	0.51
293.15	0.3001	1167.16	0.74
293.15	0.4002	1221.32	0.96
293.15	0.4995	1261.57	1.18
293.15	0.5996	1293.48	1.42
293.15	0.7001	1318.51	1.67
293.15	0.8	1339.25	1.95
293.15	0.8992	1356.81	2.25
293.15	1	1371.57	2.58
298.15	0	776.93	0.71
298.15	0.1	969.05	0.42
298.15	0.1997	1084.37	0.5
298.15	0.3001	1162.48	0.73
298.15	0.4002	1216.77	0.95
298.15	0.4995	1257.1	1.17
298.15	0.5996	1289.08	1.41
298.15	0.7001	1314.15	1.66
298.15	0.8	1334.92	1.93
298.15	0.8992	1352.54	2.23
298.15	1	1367.22	2.56
303.15	0	771.44	0.73
303.15	0.1	963.9	0.43
303.15	0.1997	1079.44	0.48
303.15	0.3001	1157.73	0.71
303.15	0.4002	1212.1	0.93
303.15	0.4995	1252.55	1.16
303.15	0.5996	1284.55	1.39
303.15	0.7001	1309.69	1.64
303.15	0.8	1330.47	1.92
303.15	0.8992	1348.19	2.21
303.15	1	1362.86	2.54
308.15	0	765.97	0.74
308.15	0.1	958.79	0.44
308.15	0.1997	1074.57	0.47
308.15	0.3001	1153.01	0.7
308.15	0.4002	1207.52	0.92
308.15	0.4995	1248.07	1.14
308.15	0.5996	1280.12	1.38
308.15	0.7001	1305.51	1.63
308.15	0.8	1326.23	1.9
308.15	0.8992	1343.83	2.19
308.15	1	1358.56	2.52
313.15	0	760.68	0.75
313.15	0.1	953.96	0.45
313.15	0.1997	1070.04	0.46
313.15	0.3001	1148.67	0.69
313.15	0.4002	1203.29	0.91
313.15	0.4995	1243.97	1.13
313.15	0.5996	1276.12	1.36
313.15	0.7001	1301.33	1.61
313.15	0.8	1322.21	1.88
313.15	0.8992	1339.74	2.18
313.15	1	1354.3	2.5
323.15	0	749.73	0.78
323.15	0.1	943.95	0.46
323.15	0.1997	1060.53	0.44
323.15	0.3001	1139.57	0.67
323.15	0.4002	1194.5	0.9
323.15	0.4995	1235.37	1.11
323.15	0.5996	1267.65	1.34
323.15	0.7001	1292.68	1.58
323.15	0.8	1313.73	1.85
323.15	0.8992	1331.33	2.14
323.15	1	1345.98	2.46
333.15	0	738.19	0.81
333.15	0.1	933.35	0.48
333.15	0.1997	1050.42	0.42
333.15	0.3001	1129.8	0.6
333.15	0.4002	1184.99	0.86
333.15	0.4995	1226.09	1.08
333.15	0.5996	1258.64	1.31
333.15	0.7001	1283.91	1.55
333.15	0.8	1305.14	1.82
333.15	0.8992	1323.02	2.11
333.15	1	1337.7	2.4
343.15	0	726.94	0.83
343.15	0.1	923.24	0.51
343.15	0.1997	1040.99	0.4
343.15	0.3001	1120.72	0.62
343.15	0.4002	1176.43	0.84
343.15	0.4995	1217.82	1.06
343.15	0.5996	1250.62	1.28
343.15	0.7001	1276.41	1.53
343.15	0.8	1297.84	1.79
343.15	0.8992	1315.94	2.08
343.15	1	1330.76	2.39

System: benzene + 1-butyl-3-methylimidazolium tetrafluoroborate; phases: Liquid
Fixed: Pressure, kPa = 101
Property: Mass density, kg/m3 (Liquid); method: VIBTUB:UFactor:6
Temperature, K	Mole fraction of 1-butyl-3-methylimidazolium tetrafluoroborate	Mass density, kg/m3	uncertainty
293.15	0	878.23	0.48
293.15	0.4871	1105.2	0.72
293.15	0.5499	1120.99	0.82
293.15	0.5999	1132.31	0.91
293.15	0.7001	1151.84	1.11
293.15	0.8	1168.73	1.32
293.15	0.899	1182.8	1.54
293.15	0.9498	1189.44	1.67
293.15	1	1195.71	1.8
298.15	0	873.11	0.49
298.15	0.4871	1101.28	0.7
298.15	0.5499	1117.14	0.81
298.15	0.5999	1128.5	0.9
298.15	0.7001	1148.13	1.09
298.15	0.8	1165.02	1.3
298.15	0.899	1179.15	1.53
298.15	0.9498	1185.85	1.65
298.15	1	1192.07	1.78
303.15	0	867.59	0.5
303.15	0.4871	1097.21	0.69
303.15	0.5499	1113.2	0.8
303.15	0.5999	1124.57	0.89
303.15	0.7001	1144.26	1.08
303.15	0.8	1161.24	1.29
303.15	0.899	1175.38	1.52
303.15	0.9498	1182.12	1.64
303.15	1	1188.37	1.77
308.15	0	862.21	0.52
308.15	0.4871	1093.23	0.68
308.15	0.5499	1109.3	0.79
308.15	0.5999	1120.71	0.88
308.15	0.7001	1140.47	1.07
308.15	0.8	1157.48	1.28
308.15	0.899	1171.67	1.5
308.15	0.9498	1178.45	1.62
308.15	1	1184.72	1.75
313.15	0	856.82	0.53
313.15	0.4871	1089.58	0.67
313.15	0.5499	1105.72	0.78
313.15	0.5999	1117.22	0.87
313.15	0.7001	1137.04	1.06
313.15	0.8	1154.13	1.27
313.15	0.899	1168.35	1.49
313.15	0.9498	1175.16	1.61
313.15	1	1181.43	1.74
323.15	0	846.05	0.55
323.15	0.4871	1081.9	0.65
323.15	0.5499	1098.23	0.76
323.15	0.5999	1109.81	0.85
323.15	0.7001	1129.83	1.03
323.15	0.8	1147.03	1.24
323.15	0.899	1161.36	1.46
323.15	0.9498	1168.19	1.58
323.15	1	1174.49	1.71
333.15	0	835.76	0.58
333.15	0.4871	1073.73	0.63
333.15	0.5499	1090.17	0.73
333.15	0.5999	1101.75	0.82
333.15	0.7001	1121.95	1.01
333.15	0.8	1139.28	1.21
333.15	0.899	1153.64	1.43
333.15	0.9498	1160.54	1.55
333.15	1	1166.89	1.68
343.15	0	824.89	0.6
343.15	0.4871	1065.72	0.6
343.15	0.5499	1082.51	0.71
343.15	0.5999	1094.35	0.8
343.15	0.7001	1114.7	0.98
343.15	0.8	1132.17	1.19
343.15	0.899	1146.64	1.4
343.15	0.9498	1153.58	1.52
343.15	1	1159.97	1.65

System: propan-1-ol + 1-butyl-3-methylimidazolium tetrafluoroborate; phases: Liquid
Fixed: Pressure, kPa = 101
Property: Mass density, kg/m3 (Liquid); method: VIBTUB:UFactor:6
Temperature, K	Mole fraction of 1-butyl-3-methylimidazolium tetrafluoroborate	Mass density, kg/m3	uncertainty
293.15	0	804.97	0.65
293.15	0.3999	1054.66	0.51
293.15	0.4498	1072.68	0.59
293.15	0.5001	1089.08	0.68
293.15	0.6001	1117.7	0.87
293.15	0.6978	1141.41	1.07
293.15	0.8002	1163	1.3
293.15	0.9003	1180.65	1.54
293.15	1	1195.71	1.8
298.15	0	801.01	0.66
298.15	0.3999	1051.03	0.5
298.15	0.4498	1068.9	0.58
298.15	0.5001	1085.28	0.67
298.15	0.6001	1113.99	0.86
298.15	0.6978	1137.71	1.06
298.15	0.8002	1159.35	1.28
298.15	0.9003	1176.99	1.52
298.15	1	1192.07	1.78
303.15	0	796.89	0.67
303.15	0.3999	1047.17	0.49
303.15	0.4498	1065.03	0.57
303.15	0.5001	1081.39	0.66
303.15	0.6001	1110.15	0.85
303.15	0.6978	1133.91	1.04
303.15	0.8002	1155.61	1.27
303.15	0.9003	1173.25	1.51
303.15	1	1188.37	1.77
308.15	0	792.83	0.68
308.15	0.3999	1043.37	0.48
308.15	0.4498	1061.22	0.56
308.15	0.5001	1077.57	0.65
308.15	0.6001	1106.39	0.84
308.15	0.6978	1130.15	1.03
308.15	0.8002	1151.92	1.26
308.15	0.9003	1169.56	1.5
308.15	1	1184.72	1.75
313.15	0	789.07	0.69
313.15	0.3999	1039.88	0.47
313.15	0.4498	1057.72	0.55
313.15	0.5001	1074.09	0.64
313.15	0.6001	1103.01	0.83
313.15	0.6978	1126.78	1.02
313.15	0.8002	1148.61	1.25
313.15	0.9003	1166.26	1.48
313.15	1	1181.43	1.74
323.15	0	780.74	0.71
323.15	0.3999	1032.41	0.45
323.15	0.4498	1050.32	0.53
323.15	0.5001	1066.73	0.62
323.15	0.6001	1095.73	0.8
323.15	0.6978	1119.64	1
323.15	0.8002	1141.54	1.22
323.15	0.9003	1159.25	1.46
323.15	1	1174.49	1.71
333.15	0	771.75	0.73
333.15	0.3999	1024.28	0.42
333.15	0.4498	1042.29	0.51
333.15	0.5001	1058.77	0.6
333.15	0.6001	1087.82	0.78
333.15	0.6978	1111.83	0.97
333.15	0.8002	1133.81	1.19
333.15	0.9003	1151.58	1.43
333.15	1	1166.89	1.68
343.15	0	762.86	0.75
343.15	0.3999	1016.75	0.41
343.15	0.4498	1034.83	0.49
343.15	0.5001	1051.38	0.58
343.15	0.6001	1080.57	0.76
343.15	0.6978	1104.68	0.95
343.15	0.8002	1126.78	1.17
343.15	0.9003	1144.59	1.4
343.15	1	1159.97	1.65

System: acetonitrile + 1-butyl-3-methylimidazolium tetrafluoroborate; phases: Liquid
Fixed: Pressure, kPa = 101
Property: Mass density, kg/m3 (Liquid); method: VIBTUB:UFactor:6
Temperature, K	Mole fraction of 1-butyl-3-methylimidazolium tetrafluoroborate	Mass density, kg/m3	uncertainty
293.15	0	782.3	0.7
293.15	0.1	913.54	0.47
293.15	0.1997	993.5	0.29
293.15	0.3	1047.76	0.43
293.15	0.4005	1086.95	0.59
293.15	0.4995	1116.42	0.76
293.15	0.6015	1138.87	0.94
293.15	0.6998	1156.73	1.12
293.15	0.799	1171.64	1.33
293.15	0.9012	1185.23	1.56
293.15	1	1195.71	1.8
298.15	0	776.93	0.71
298.15	0.1	908.78	0.47
298.15	0.1997	989.03	0.3
298.15	0.3	1043.55	0.42
298.15	0.4005	1082.89	0.58
298.15	0.4995	1112.51	0.75
298.15	0.6015	1135.03	0.93
298.15	0.6998	1152.98	1.11
298.15	0.799	1167.96	1.31
298.15	0.9012	1181.58	1.54
298.15	1	1192.07	1.78
303.15	0	771.44	0.73
303.15	0.1	903.94	0.48
303.15	0.1997	984.51	0.31
303.15	0.3	1039.25	0.41
303.15	0.4005	1078.74	0.57
303.15	0.4995	1108.44	0.74
303.15	0.6015	1131.08	0.91
303.15	0.6998	1149.11	1.1
303.15	0.799	1164.16	1.3
303.15	0.9012	1177.8	1.53
303.15	1	1188.37	1.77
308.15	0	765.97	0.74
308.15	0.1	899.1	0.49
308.15	0.1997	980.03	0.32
308.15	0.3	1034.99	0.4
308.15	0.4005	1074.62	0.56
308.15	0.4995	1104.46	0.72
308.15	0.6015	1127.17	0.9
308.15	0.6998	1145.29	1.08
308.15	0.799	1160.39	1.29
308.15	0.9012	1174.09	1.51
308.15	1	1184.72	1.75
313.15	0	760.68	0.75
313.15	0.1	894.51	0.5
313.15	0.1997	975.82	0.33
313.15	0.3	1031.1	0.39
313.15	0.4005	1070.84	0.55
313.15	0.4995	1100.65	0.71
313.15	0.6015	1123.64	0.89
313.15	0.6998	1141.82	1.07
313.15	0.799	1157	1.27
313.15	0.9012	1170.73	1.5
313.15	1	1181.43	1.74
323.15	0	749.73	0.78
323.15	0.1	885.05	0.53
323.15	0.1997	967.07	0.35
323.15	0.3	1022.86	0.37
323.15	0.4005	1062.98	0.53
323.15	0.4995	1093.19	0.69
323.15	0.6015	1116.23	0.87
323.15	0.6998	1134.55	1.05
323.15	0.799	1149.88	1.25
323.15	0.9012	1163.8	1.47
323.15	1	1174.49	1.71
333.15	0	738.19	0.81
333.15	0.1	874.91	0.55
333.15	0.1997	957.71	0.37
333.15	0.3	1013.98	0.34
333.15	0.4005	1054.45	0.51
333.15	0.4995	1084.93	0.67
333.15	0.6015	1108.14	0.84
333.15	0.6998	1126.63	1.02
333.15	0.799	1142.09	1.22
333.15	0.9012	1156.07	1.44
333.15	1	1166.89	1.68
343.15	0	726.94	0.83
343.15	0.1	866.42	0.57
343.15	0.1997	948.85	0.39
343.15	0.3	1005.39	0.32
343.15	0.4005	1046.32	0.48
343.15	0.4995	1077.27	0.65
343.15	0.6015	1100.67	0.82
343.15	0.6998	1119.31	1
343.15	0.799	1134.92	1.2
343.15	0.9012	1149.06	1.42
343.15	1	1159.97	1.65
