Measured thermophysical data. Liquid-Liquid Equilibria of Aqueous Biphasic Systems Containing Selected Imidazolium Ionic Liquids and Salts
Source: J. Chem. Eng. Data, 2007, 10.1021/je700315u
Compound 1: water, H2O, InChI=1S/H2O/h1H2
Compound 2: tripotassium phosphate, K3O4P, InChI=1S/3K.H3O4P/c;;;1-5(2,3)4/h;;;(H3,1,2,3,4)/q3*+1;/p-3
Compound 3: 1-butyl-3-methylimidazolium bromide, C8H15BrN2, InChI=1S/C8H15N2.BrH/c1-3-4-5-10-7-6-9(2)8-10;/h6-8H,3-5H2,1-2H3;1H/q+1;/p-1
Compound 4: potassium carbonate, CK2O3, InChI=1S/CH2O3.2K/c2-1(3)4;;/h(H2,2,3,4);;/q;2*+1/p-2
Compound 5: potassium hydroxide, HKO, InChI=1S/K.H2O/h;1H2/q+1;/p-1
Compound 6: 3-hexyl-1-methyl-1H-imidazolium bromide, C10H19BrN2, InChI=1S/C10H19N2.BrH/c1-3-4-5-6-7-12-9-8-11(2)10-12;/h8-10H,3-7H2,1-2H3;1H/q+1;/p-1
Compound 7: dipotassium hydrogen phosphate, HK2O4P, InChI=1S/2K.H3O4P/c;;1-5(2,3)4/h;;(H3,1,2,3,4)/q2*+1;/p-2
Compound 8: 1-methyl-3-octylimidazolium bromide, C12H23BrN2, InChI=1S/C12H23N2.BrH/c1-3-4-5-6-7-8-9-14-11-10-13(2)12-14;/h10-12H,3-9H2,1-2H3;1H/q+1;/p-1
Compound 9: 1-decyl-3-methylimidazolium bromide, C14H27BrN2, InChI=1S/C14H27N2.BrH/c1-3-4-5-6-7-8-9-10-11-16-13-12-15(2)14-16;/h12-14H,3-11H2,1-2H3;1H/q+1;/p-1
Compound 10: 1-hexyl-3-methylimidazolium chloride, C10H19ClN2, InChI=1S/C10H19N2.ClH/c1-3-4-5-6-7-12-9-8-11(2)10-12;/h8-10H,3-7H2,1-2H3;1H/q+1;/p-1
Compound 11: 1-butyl-3-methylimidazolium chloride, C8H15ClN2, InChI=1S/C8H15N2.ClH/c1-3-4-5-10-7-6-9(2)8-10;/h6-8H,3-5H2,1-2H3;1H/q+1;/p-1

System: water + tripotassium phosphate + 1-butyl-3-methylimidazolium bromide; phases: Liquid mixture 1, Liquid mixture 2
Fixed: Temperature, K = 298.15
Fixed: Pressure, kPa = 101
Property: Mass fraction of 1-butyl-3-methylimidazolium bromide (Liquid mixture 1); method: TITR:UFactor:2
Mass fraction of tripotassium phosphate	Mass fraction of 1-butyl-3-methylimidazolium bromide	uncertainty
0.0393	0.4125	0.033
0.0574	0.3533	0.0283
0.0763	0.3095	0.0248
0.0957	0.2712	0.0217
0.1153	0.2339	0.0187
0.1306	0.2082	0.0167
0.1456	0.1857	0.0149
0.1553	0.167	0.0134
0.1657	0.1501	0.012
0.1879	0.1266	0.0101
0.1979	0.1129	0.009
0.2066	0.1005	0.008
0.214	0.0903	0.0072
0.224	0.0789	0.0063
0.2321	0.0693	0.0055
0.2406	0.0614	0.0049
0.2482	0.0548	0.0044
0.2563	0.0479	0.0038

System: potassium carbonate + water + 1-butyl-3-methylimidazolium bromide; phases: Liquid mixture 1, Liquid mixture 2
Fixed: Temperature, K = 298.15
Fixed: Pressure, kPa = 101
Property: Mass fraction of 1-butyl-3-methylimidazolium bromide (Liquid mixture 1); method: TITR:UFactor:2
Mass fraction of potassium carbonate	Mass fraction of 1-butyl-3-methylimidazolium bromide	uncertainty
0.0617	0.392	0.0314
0.0937	0.3208	0.0257
0.1127	0.2786	0.0223
0.1316	0.2474	0.0198
0.1526	0.2122	0.017
0.1681	0.1809	0.0145
0.1824	0.1602	0.0128
0.1944	0.1418	0.0113
0.2007	0.1313	0.0105
0.2085	0.1226	0.0098
0.2141	0.1143	0.0091
0.224	0.1042	0.0083
0.2304	0.0955	0.0076
0.2366	0.0872	0.007
0.2457	0.079	0.0063
0.2553	0.0701	0.0056
0.264	0.0624	0.005
0.2791	0.0508	0.0041
0.2923	0.042	0.0034

System: potassium hydroxide + water + 1-butyl-3-methylimidazolium bromide; phases: Liquid mixture 1, Liquid mixture 2
Fixed: Temperature, K = 298.15
Fixed: Pressure, kPa = 101
Property: Mass fraction of 1-butyl-3-methylimidazolium bromide (Liquid mixture 1); method: TITR:UFactor:2
Mass fraction of potassium hydroxide	Mass fraction of 1-butyl-3-methylimidazolium bromide	uncertainty
0.1378	0.3315	0.0265
0.1663	0.2744	0.022
0.1917	0.2345	0.0188
0.2052	0.205	0.0164
0.2184	0.1833	0.0147
0.232	0.1615	0.0129
0.2445	0.1453	0.0116
0.2552	0.1301	0.0104
0.2654	0.1185	0.0095
0.2739	0.1075	0.0086
0.2829	0.0975	0.0078
0.2912	0.0889	0.0071
0.2997	0.0818	0.0065
0.3115	0.0726	0.0058
0.3221	0.0643	0.0051
0.3309	0.057	0.0046
0.3418	0.0508	0.0041
0.3593	0.0413	0.0033

System: water + tripotassium phosphate + 3-hexyl-1-methyl-1H-imidazolium bromide; phases: Liquid mixture 1, Liquid mixture 2
Fixed: Temperature, K = 298.15
Fixed: Pressure, kPa = 101
Property: Mass fraction of 3-hexyl-1-methyl-1H-imidazolium bromide (Liquid mixture 1); method: TITR:UFactor:2
Mass fraction of tripotassium phosphate	Mass fraction of 3-hexyl-1-methyl-1H-imidazolium bromide	uncertainty
0.0395	0.455	0.0364
0.055	0.3961	0.0317
0.0747	0.3226	0.0258
0.0954	0.2658	0.0213
0.1111	0.2285	0.0183
0.1249	0.1962	0.0157
0.137	0.1753	0.014
0.145	0.1607	0.0129
0.1511	0.1467	0.0117
0.1565	0.1365	0.0109
0.1662	0.1222	0.0098
0.1726	0.1113	0.0089
0.1794	0.1016	0.0081
0.187	0.0915	0.0073
0.1936	0.083	0.0066
0.1985	0.0762	0.0061
0.2048	0.0697	0.0056
0.21	0.0642	0.0051
0.2143	0.0593	0.0047
0.2194	0.0548	0.0044

System: water + dipotassium hydrogen phosphate + 3-hexyl-1-methyl-1H-imidazolium bromide; phases: Liquid mixture 1, Liquid mixture 2
Fixed: Temperature, K = 298.15
Fixed: Pressure, kPa = 101
Property: Mass fraction of 3-hexyl-1-methyl-1H-imidazolium bromide (Liquid mixture 1); method: TITR:UFactor:2
Mass fraction of dipotassium hydrogen phosphate	Mass fraction of 3-hexyl-1-methyl-1H-imidazolium bromide	uncertainty
0.128	0.3142	0.0251
0.1439	0.1967	0.0157
0.1729	0.1492	0.0119
0.1939	0.1209	0.0097
0.2099	0.0999	0.008
0.2236	0.0834	0.0067
0.2311	0.0759	0.0061
0.2385	0.0693	0.0055
0.2454	0.063	0.005
0.2514	0.0581	0.0046
0.2583	0.0523	0.0042
0.2648	0.0483	0.0039
0.2689	0.0454	0.0036
0.2736	0.0419	0.0034
0.2779	0.0395	0.0032
0.2813	0.037	0.003
0.285	0.0349	0.0028
0.2887	0.0329	0.0026
0.2941	0.0302	0.0024

System: water + dipotassium hydrogen phosphate + 3-hexyl-1-methyl-1H-imidazolium bromide; phases: Liquid mixture 1, Liquid mixture 2
Fixed: Temperature, K = 298.15
Fixed: Pressure, kPa = 101
Property: Mass fraction of 3-hexyl-1-methyl-1H-imidazolium bromide (Liquid mixture 1); method: Spectra
Property: Mass fraction of dipotassium hydrogen phosphate (Liquid mixture 2); method: Spectra
Property: Mass fraction of 3-hexyl-1-methyl-1H-imidazolium bromide (Liquid mixture 2); method: Spectra
Mass fraction of dipotassium hydrogen phosphate	Mass fraction of 3-hexyl-1-methyl-1H-imidazolium bromide	uncertainty	Mass fraction of dipotassium hydrogen phosphate	uncertainty	Mass fraction of 3-hexyl-1-methyl-1H-imidazolium bromide	uncertainty
0.4287	0.0339	0.0202	0.0031	0.0031	0.7154	
0.4118	0.0276	0.0201	0.0087	0.0087	0.6836	
0.3847	0.0302	0.0211	0.0046	0.0046	0.6638	
0.3934	0.0294	0.0206	0.0152	0.0152	0.6542	
0.3725	0.0189	0.0189	0.0229	0.02	0.6212	
0.3586	0.0458	0.02	0.0088	0.0088	0.638	
0.3514	0.0315	0.0202	0.0157	0.0157	0.6127	
0.3405	0.0491	0.0205	0.0066	0.0066	0.6284	
0.3385	0.0304	0.0215	0.0107	0.0107	0.5934	
0.3167	0.0291	0.0216	0.0379	0.0203	0.5356	
0.2882	0.065	0.0208	0.0261	0.0221	0.5672	
0.2904	0.0492	0.021	0.0226	0.0205	0.5271	
0.2341	0.0578	0.0202	0.0541	0.0209	0.4221	

System: potassium carbonate + water + 3-hexyl-1-methyl-1H-imidazolium bromide; phases: Liquid mixture 1, Liquid mixture 2
Fixed: Temperature, K = 298.15
Fixed: Pressure, kPa = 101
Property: Mass fraction of 3-hexyl-1-methyl-1H-imidazolium bromide (Liquid mixture 1); method: TITR:UFactor:2
Mass fraction of potassium carbonate	Mass fraction of 3-hexyl-1-methyl-1H-imidazolium bromide	uncertainty
0.0524	0.4374	0.035
0.1184	0.2509	0.0201
0.1478	0.1942	0.0155
0.1693	0.1531	0.0122
0.1852	0.1282	0.0103
0.198	0.1077	0.0086
0.212	0.0909	0.0073
0.222	0.0804	0.0064
0.2265	0.0739	0.0059
0.2307	0.0697	0.0056
0.2378	0.0637	0.0051
0.2432	0.0592	0.0047
0.2459	0.0558	0.0045
0.2532	0.0505	0.004
0.2578	0.0466	0.0037
0.2621	0.0437	0.0035
0.2666	0.0402	0.0032
0.2723	0.037	0.003
0.2807	0.0319	0.0026
0.2878	0.0282	0.0023

System: potassium hydroxide + water + 3-hexyl-1-methyl-1H-imidazolium bromide; phases: Liquid mixture 1, Liquid mixture 2
Fixed: Temperature, K = 298.15
Fixed: Pressure, kPa = 101
Property: Mass fraction of 3-hexyl-1-methyl-1H-imidazolium bromide (Liquid mixture 1); method: TITR:UFactor:2
Mass fraction of potassium hydroxide	Mass fraction of 3-hexyl-1-methyl-1H-imidazolium bromide	uncertainty
0.0972	0.397	0.0318
0.1473	0.2735	0.0219
0.1783	0.1992	0.0159
0.2039	0.1568	0.0125
0.2163	0.1375	0.011
0.2274	0.1204	0.0096
0.2377	0.1082	0.0087
0.2451	0.0985	0.0079
0.2546	0.0888	0.0071
0.2613	0.0813	0.0065
0.2662	0.0739	0.0059
0.2742	0.0682	0.0055
0.2801	0.0631	0.005
0.2844	0.0593	0.0047
0.2907	0.0549	0.0044
0.2954	0.0513	0.0041
0.3005	0.048	0.0038
0.3114	0.0419	0.0034
0.3201	0.037	0.003
0.3292	0.0324	0.0026

System: water + tripotassium phosphate + 1-methyl-3-octylimidazolium bromide; phases: Liquid mixture 1, Liquid mixture 2
Fixed: Temperature, K = 298.15
Fixed: Pressure, kPa = 101
Property: Mass fraction of 1-methyl-3-octylimidazolium bromide (Liquid mixture 1); method: TITR:UFactor:2
Mass fraction of tripotassium phosphate	Mass fraction of 1-methyl-3-octylimidazolium bromide	uncertainty
0.0621	0.3965	0.0317
0.0766	0.3474	0.0278
0.0946	0.2966	0.0237
0.1083	0.2631	0.021
0.1189	0.2329	0.0186
0.1285	0.2111	0.0169
0.1382	0.1891	0.0151
0.151	0.1701	0.0136
0.1589	0.1505	0.012
0.1658	0.1361	0.0109
0.1736	0.1231	0.0098
0.1821	0.1102	0.0088
0.1897	0.1003	0.008
0.1962	0.0912	0.0073
0.2022	0.082	0.0066
0.2084	0.0745	0.006
0.2182	0.0643	0.0051
0.2257	0.0572	0.0046
0.2383	0.0459	0.0037
0.2434	0.0423	0.0034

System: water + dipotassium hydrogen phosphate + 1-methyl-3-octylimidazolium bromide; phases: Liquid mixture 1, Liquid mixture 2
Fixed: Temperature, K = 298.15
Fixed: Pressure, kPa = 101
Property: Mass fraction of 1-methyl-3-octylimidazolium bromide (Liquid mixture 1); method: TITR:UFactor:2
Mass fraction of dipotassium hydrogen phosphate	Mass fraction of 1-methyl-3-octylimidazolium bromide	uncertainty
0.0942	0.3238	0.0259
0.1225	0.2691	0.0215
0.1433	0.2221	0.0178
0.1563	0.1931	0.0154
0.1722	0.167	0.0134
0.1878	0.1414	0.0113
0.2078	0.1157	0.0093
0.2226	0.0964	0.0077
0.2351	0.0819	0.0066
0.2465	0.0704	0.0056
0.258	0.0607	0.0049
0.2681	0.0529	0.0042
0.2745	0.0486	0.0039
0.2816	0.0431	0.0034
0.2894	0.0383	0.0031
0.2921	0.0368	0.0029
0.3004	0.0323	0.0026
0.305	0.0294	0.0024
0.3108	0.0268	0.0021

System: water + dipotassium hydrogen phosphate + 1-methyl-3-octylimidazolium bromide; phases: Liquid mixture 1, Liquid mixture 2
Fixed: Temperature, K = 298.15
Fixed: Pressure, kPa = 101
Property: Mass fraction of 1-methyl-3-octylimidazolium bromide (Liquid mixture 1); method: spectra
Property: Mass fraction of dipotassium hydrogen phosphate (Liquid mixture 2); method: spectra
Property: Mass fraction of 1-methyl-3-octylimidazolium bromide (Liquid mixture 2); method: spectra
Mass fraction of dipotassium hydrogen phosphate	Mass fraction of 1-methyl-3-octylimidazolium bromide	uncertainty	Mass fraction of dipotassium hydrogen phosphate	uncertainty	Mass fraction of 1-methyl-3-octylimidazolium bromide	uncertainty
0.4128	0.0352	0.0234	0.0126	0.0126	0.7326	
0.3873	0.0197	0.0197	0.0336	0.02	0.6857	
0.3602	0.0202	0.0202	0.0256	0.0219	0.6667	
0.3729	0.0499	0.0202	0.0332	0.0202	0.692	
0.3488	0.0421	0.0217	0.026	0.02	0.6755	
0.343	0.0399	0.0203	0.0193	0.0193	0.6688	
0.324	0.0291	0.02	0.0102	0.0102	0.6402	
0.3165	0.0397	0.02	0.0292	0.0203	0.6212	
0.3136	0.0191	0.0191	0.0407	0.0205	0.5733	
0.2753	0.0411	0.0218	0.0367	0.0206	0.5609	
0.2045	0.0673	0.0213	0.0762	0.0208	0.422	

System: potassium carbonate + water + 1-methyl-3-octylimidazolium bromide; phases: Liquid mixture 1, Liquid mixture 2
Fixed: Temperature, K = 298.15
Fixed: Pressure, kPa = 101
Property: Mass fraction of 1-methyl-3-octylimidazolium bromide (Liquid mixture 1); method: TITR:UFactor:2
Mass fraction of potassium carbonate	Mass fraction of 1-methyl-3-octylimidazolium bromide	uncertainty
0.0717	0.4264	0.0341
0.111	0.3037	0.0243
0.1398	0.2276	0.0182
0.154	0.2026	0.0162
0.1671	0.1815	0.0145
0.1794	0.1615	0.0129
0.1906	0.1449	0.0116
0.2036	0.1216	0.0097
0.2163	0.1046	0.0084
0.2258	0.0917	0.0073
0.2361	0.0808	0.0065
0.246	0.0712	0.0057
0.2528	0.0643	0.0051
0.2598	0.0583	0.0047
0.2654	0.053	0.0042
0.2718	0.0483	0.0039
0.2774	0.0445	0.0036
0.2825	0.0412	0.0033
0.2875	0.0383	0.0031
0.2913	0.035	0.0028

System: potassium hydroxide + water + 1-methyl-3-octylimidazolium bromide; phases: Liquid mixture 1, Liquid mixture 2
Fixed: Temperature, K = 298.15
Fixed: Pressure, kPa = 101
Property: Mass fraction of 1-methyl-3-octylimidazolium bromide (Liquid mixture 1); method: TITR:UFactor:2
Mass fraction of potassium hydroxide	Mass fraction of 1-methyl-3-octylimidazolium bromide	uncertainty
0.099	0.4013	0.0321
0.1438	0.2799	0.0224
0.1774	0.2055	0.0164
0.2051	0.1601	0.0128
0.2243	0.1274	0.0102
0.2387	0.1072	0.0086
0.2494	0.0917	0.0073
0.263	0.0782	0.0063
0.2756	0.068	0.0054
0.2849	0.0598	0.0048
0.2935	0.0534	0.0043
0.3013	0.0474	0.0038
0.3062	0.0434	0.0035
0.3138	0.0391	0.0031
0.3191	0.036	0.0029
0.3231	0.0334	0.0027

System: water + dipotassium hydrogen phosphate + 1-decyl-3-methylimidazolium bromide; phases: Liquid mixture 1, Liquid mixture 2
Fixed: Temperature, K = 298.15
Fixed: Pressure, kPa = 101
Property: Mass fraction of 1-decyl-3-methylimidazolium bromide (Liquid mixture 1); method: TITR:UFactor:2
Mass fraction of dipotassium hydrogen phosphate	Mass fraction of 1-decyl-3-methylimidazolium bromide	uncertainty
0.1465	0.2125	0.017
0.1953	0.1381	0.011
0.211	0.1137	0.0091
0.2283	0.0906	0.0072
0.244	0.0727	0.0058
0.2546	0.0632	0.0051
0.2615	0.0571	0.0046
0.2696	0.0514	0.0041
0.2736	0.0484	0.0039
0.2794	0.045	0.0036
0.2815	0.0435	0.0035
0.2829	0.0423	0.0034
0.2873	0.0398	0.0032
0.295	0.0353	0.0028
0.2986	0.0333	0.0027
0.3016	0.0318	0.0025
0.3043	0.0304	0.0024
0.3061	0.0293	0.0023
0.3097	0.0276	0.0022
0.3139	0.0255	0.002

System: potassium carbonate + water + 1-decyl-3-methylimidazolium bromide; phases: Liquid mixture 1, Liquid mixture 2
Fixed: Temperature, K = 298.15
Fixed: Pressure, kPa = 101
Property: Mass fraction of 1-decyl-3-methylimidazolium bromide (Liquid mixture 1); method: TITR:UFactor:2
Mass fraction of potassium carbonate	Mass fraction of 1-decyl-3-methylimidazolium bromide	uncertainty
0.1188	0.2657	0.0213
0.1444	0.2035	0.0163
0.1802	0.1426	0.0114
0.191	0.1268	0.0101
0.1977	0.1162	0.0093
0.2022	0.1078	0.0086
0.2096	0.0989	0.0079
0.2158	0.0895	0.0072
0.2206	0.0831	0.0066
0.2255	0.0773	0.0062
0.2311	0.0716	0.0057
0.2349	0.0657	0.0053
0.2405	0.0612	0.0049
0.2451	0.0565	0.0045
0.2491	0.0526	0.0042
0.2525	0.0501	0.004
0.2578	0.0464	0.0037
0.2627	0.0429	0.0034
0.2665	0.0407	0.0033
0.2699	0.0385	0.0031
0.2729	0.0365	0.0029
0.2768	0.0342	0.0027
0.2797	0.0324	0.0026
0.2828	0.0306	0.0024

System: potassium hydroxide + water + 1-decyl-3-methylimidazolium bromide; phases: Liquid mixture 1, Liquid mixture 2
Fixed: Temperature, K = 298.15
Fixed: Pressure, kPa = 101
Property: Mass fraction of 1-decyl-3-methylimidazolium bromide (Liquid mixture 1); method: TITR:UFactor:2
Mass fraction of potassium hydroxide	Mass fraction of 1-decyl-3-methylimidazolium bromide	uncertainty
0.1395	0.3016	0.0241
0.1541	0.235	0.0188
0.1958	0.1612	0.0129
0.2187	0.126	0.0101
0.2327	0.1032	0.0083
0.2521	0.081	0.0065
0.2568	0.0744	0.006
0.2633	0.0673	0.0054
0.2695	0.0613	0.0049
0.2741	0.0569	0.0046
0.2788	0.0531	0.0042
0.2837	0.0495	0.004
0.289	0.0457	0.0037
0.2961	0.0417	0.0033
0.2996	0.039	0.0031
0.3027	0.0369	0.003
0.3072	0.0345	0.0028
0.3101	0.0324	0.0026
0.3139	0.0305	0.0024
0.3163	0.0291	0.0023
0.3195	0.0274	0.0022
0.3223	0.0258	0.0021
0.3257	0.0244	0.002
0.3281	0.0232	0.0019

System: water + tripotassium phosphate + 1-hexyl-3-methylimidazolium chloride; phases: Liquid mixture 1, Liquid mixture 2
Fixed: Temperature, K = 298.15
Fixed: Pressure, kPa = 101
Property: Mass fraction of 1-hexyl-3-methylimidazolium chloride (Liquid mixture 1); method: TITR:UFactor:2
Mass fraction of tripotassium phosphate	Mass fraction of 1-hexyl-3-methylimidazolium chloride	uncertainty
0.053	0.3994	0.032
0.0691	0.3423	0.0274
0.0967	0.2796	0.0224
0.1354	0.2079	0.0166
0.149	0.1873	0.015
0.1623	0.1676	0.0134
0.1713	0.1516	0.0121
0.1829	0.1367	0.0109
0.1922	0.1244	0.01
0.1996	0.1143	0.0091
0.2062	0.1058	0.0085
0.2161	0.0949	0.0076
0.2239	0.0859	0.0069
0.2314	0.0778	0.0062
0.2387	0.0712	0.0057
0.2452	0.0652	0.0052
0.2533	0.0577	0.0046
0.2604	0.052	0.0042
0.2646	0.0483	0.0039

System: water + dipotassium hydrogen phosphate + 1-hexyl-3-methylimidazolium chloride; phases: Liquid mixture 1, Liquid mixture 2
Fixed: Temperature, K = 298.15
Fixed: Pressure, kPa = 101
Property: Mass fraction of 1-hexyl-3-methylimidazolium chloride (Liquid mixture 1); method: TITR:UFactor:2
Mass fraction of dipotassium hydrogen phosphate	Mass fraction of 1-hexyl-3-methylimidazolium chloride	uncertainty
0.079	0.3554	0.0284
0.1534	0.2156	0.0172
0.1954	0.1618	0.0129
0.2163	0.1372	0.011
0.2392	0.1124	0.009
0.2561	0.0955	0.0076
0.2762	0.0776	0.0062
0.2841	0.0704	0.0056
0.2933	0.0636	0.0051
0.3001	0.0587	0.0047
0.3052	0.0552	0.0044
0.3107	0.0517	0.0041
0.3165	0.0478	0.0038
0.3231	0.044	0.0035
0.3293	0.0405	0.0032
0.3373	0.0362	0.0029
0.3422	0.0337	0.0027
0.3479	0.031	0.0025

System: potassium carbonate + water + 1-hexyl-3-methylimidazolium chloride; phases: Liquid mixture 1, Liquid mixture 2
Fixed: Temperature, K = 298.15
Fixed: Pressure, kPa = 101
Property: Mass fraction of 1-hexyl-3-methylimidazolium chloride (Liquid mixture 1); method: TITR:UFactor:2
Mass fraction of potassium carbonate	Mass fraction of 1-hexyl-3-methylimidazolium chloride	uncertainty
0.06	0.4398	0.0352
0.0856	0.3765	0.0301
0.1127	0.3097	0.0248
0.1374	0.2589	0.0207
0.1558	0.2234	0.0179
0.1749	0.1923	0.0154
0.1903	0.1697	0.0136
0.2049	0.1502	0.012
0.2162	0.1345	0.0108
0.2261	0.1218	0.0097
0.2338	0.1109	0.0089
0.2459	0.0977	0.0078
0.2556	0.0876	0.007
0.2655	0.0782	0.0063
0.2716	0.0714	0.0057
0.2788	0.0651	0.0052
0.2858	0.0587	0.0047
0.2927	0.0531	0.0042
0.2989	0.0485	0.0039
0.3044	0.0445	0.0036

System: potassium hydroxide + water + 1-hexyl-3-methylimidazolium chloride; phases: Liquid mixture 1, Liquid mixture 2
Fixed: Temperature, K = 298.15
Fixed: Pressure, kPa = 101
Property: Mass fraction of 1-hexyl-3-methylimidazolium chloride (Liquid mixture 1); method: TITR:UFactor:2
Mass fraction of potassium hydroxide	Mass fraction of 1-hexyl-3-methylimidazolium chloride	uncertainty
0.161	0.3379	0.027
0.2158	0.2438	0.0195
0.2375	0.2052	0.0164
0.2584	0.1741	0.0139
0.275	0.1525	0.0122
0.2914	0.1325	0.0106
0.3019	0.1167	0.0093
0.3171	0.1013	0.0081
0.3273	0.0907	0.0073
0.337	0.0814	0.0065
0.3473	0.0719	0.0058
0.3549	0.066	0.0053
0.3613	0.0607	0.0049
0.368	0.0557	0.0045
0.3769	0.0499	0.004
0.3875	0.0435	0.0035
0.3939	0.0399	0.0032
0.3983	0.0375	0.003

System: water + dipotassium hydrogen phosphate + 1-butyl-3-methylimidazolium bromide; phases: Liquid mixture 1, Liquid mixture 2
Fixed: Pressure, kPa = 101
Property: Mass fraction of 1-butyl-3-methylimidazolium bromide (Liquid mixture 1); method: TITR:UFactor:2
Temperature, K	Mass fraction of dipotassium hydrogen phosphate	Mass fraction of 1-butyl-3-methylimidazolium bromide	uncertainty
298.15	0.043	0.4353	0.0348
298.15	0.0932	0.2961	0.0237
298.15	0.1202	0.2498	0.02
298.15	0.1624	0.1935	0.0155
298.15	0.1841	0.1612	0.0129
298.15	0.1989	0.1439	0.0115
298.15	0.2141	0.1235	0.0099
298.15	0.2256	0.1118	0.0089
298.15	0.2373	0.0999	0.008
298.15	0.2474	0.0891	0.0071
298.15	0.2601	0.0776	0.0062
298.15	0.2827	0.0597	0.0048
298.15	0.2979	0.0489	0.0039
298.15	0.3119	0.04	0.0032
298.15	0.3242	0.0335	0.0027
298.15	0.3293	0.0312	0.0025
298.15	0.3355	0.0284	0.0023
298.15	0.3411	0.0262	0.0021
308.15	0.0514	0.4085	0.0327
308.15	0.0864	0.3206	0.0256
308.15	0.1374	0.2295	0.0184
308.15	0.173	0.1794	0.0144
308.15	0.1975	0.1466	0.0117
308.15	0.2222	0.1178	0.0094
308.15	0.2394	0.099	0.0079
308.15	0.2548	0.0837	0.0067
308.15	0.2697	0.0708	0.0057
308.15	0.2837	0.0598	0.0048
308.15	0.2963	0.0513	0.0041
308.15	0.3098	0.0431	0.0034
308.15	0.3207	0.0373	0.003
308.15	0.3319	0.032	0.0026
318.15	0.0487	0.4171	0.0334
318.15	0.0801	0.3432	0.0275
318.15	0.1146	0.2727	0.0218
318.15	0.1481	0.2206	0.0176
318.15	0.1734	0.1834	0.0147
318.15	0.1929	0.1559	0.0125
318.15	0.2164	0.1301	0.0104
318.15	0.2282	0.115	0.0092
318.15	0.2391	0.1024	0.0082
318.15	0.2559	0.0886	0.0071
318.15	0.2709	0.0755	0.006
318.15	0.2823	0.0663	0.0053
318.15	0.2944	0.0572	0.0046
318.15	0.3091	0.0477	0.0038
318.15	0.3212	0.0405	0.0032

System: water + dipotassium hydrogen phosphate + 1-butyl-3-methylimidazolium bromide; phases: Liquid mixture 1, Liquid mixture 2
Fixed: Temperature, K = 298.15
Fixed: Pressure, kPa = 101
Property: Mass fraction of 1-butyl-3-methylimidazolium bromide (Liquid mixture 1); method: spectra
Property: Mass fraction of dipotassium hydrogen phosphate (Liquid mixture 2); method: spectra
Property: Mass fraction of 1-butyl-3-methylimidazolium bromide (Liquid mixture 2); method: spectra
Mass fraction of dipotassium hydrogen phosphate	Mass fraction of 1-butyl-3-methylimidazolium bromide	uncertainty	Mass fraction of dipotassium hydrogen phosphate	uncertainty	Mass fraction of 1-butyl-3-methylimidazolium bromide	uncertainty
0.4415	0.0442	0.027	0.0347	0.0201	0.6341	
0.4251	0.0426	0.0211	0.0237	0.0207	0.6245	
0.4145	0.0197	0.0197	0.0206	0.02	0.5909	
0.392	0.0535	0.0202	0.0309	0.02	0.5973	
0.386	0.0369	0.0203	0.0289	0.02	0.5776	
0.3879	0.0225	0.0202	0.0267	0.02	0.5525	
0.3795	0.0309	0.0235	0.0259	0.0211	0.5457	
0.3653	0.0275	0.0217	0.0098	0.0098	0.524	
0.3593	0.0558	0.023	0.0428	0.02	0.5525	
0.3372	0.0555	0.02	0.0276	0.02	0.5324	
0.2374	0.0886	0.0211	0.071	0.0214	0.3642	

System: water + dipotassium hydrogen phosphate + 1-butyl-3-methylimidazolium chloride; phases: Liquid mixture 2, Liquid mixture 1
Fixed: Temperature, K = 298.15
Fixed: Pressure, kPa = 101
Property: Mass fraction of dipotassium hydrogen phosphate (Liquid mixture 2); method: spectra
Property: Mass fraction of 1-butyl-3-methylimidazolium chloride (Liquid mixture 1); method: spectra
Property: Mass fraction of dipotassium hydrogen phosphate (Liquid mixture 1); method: spectra
Mass fraction of 1-butyl-3-methylimidazolium chloride	Mass fraction of dipotassium hydrogen phosphate	uncertainty	Mass fraction of 1-butyl-3-methylimidazolium chloride	uncertainty	Mass fraction of dipotassium hydrogen phosphate	uncertainty
0.5642	0.0018	0.0001	0.0556	0.0017	0.4635	
0.5234	0.0153	0.0005	0.0317	0.001	0.4577	
0.5001	0.0152	0.0005	0.0275	0.0008	0.4472	
0.479	0.0128	0.0004	0.0246	0.0007	0.4314	
0.4871	0.019	0.0006	0.0376	0.0011	0.4272	
0.4344	0.0284	0.0009	0.0368	0.0011	0.4007	
0.386	0.0442	0.0013	0.0496	0.0015	0.3651	
0.3589	0.0632	0.0019	0.033	0.001	0.3625	
0.3403	0.0562	0.0017	0.0578	0.0017	0.3286	
