Measured thermophysical data. Thermophysical Properties of para-Anisaldehyde (1) + Chlorobenzene (2) at Temperatures of (303.15, 313.15, and 323.15) K and a Pressure of 0.1 MPa
Source: J. Chem. Eng. Data, 2008, 10.1021/je700714m
Compound 1: chlorobenzene, C6H5Cl, InChI=1S/C6H5Cl/c7-6-4-2-1-3-5-6/h1-5H, purity 99.5%
Compound 2: 4-methoxybenzaldehyde, C8H8O2, InChI=1S/C8H8O2/c1-10-8-4-2-7(6-9)3-5-8/h2-6H,1H3

System: chlorobenzene; phases: Liquid, Air at 1 atmosphere
Property: Surface tension liquid-gas, N/m (Liquid); method: RINGTE::UFactor:4
Temperature, K	Surface tension liquid-gas, N/m	uncertainty
303.15	0.0336	0.00187
313.15	0.0323	0.00181
323.15	0.03126	0.00176

System: chlorobenzene; phases: Liquid
Fixed: Pressure, kPa = 101.325
Property: Refractive index (Na D-line) (Liquid); method: ABBE::UFactor:4
Temperature, K	Refractive index (Na D-line)	uncertainty
303.15	1.559	0.0012
313.15	1.5509	0.0012
323.15	1.548	0.0012

System: chlorobenzene; phases: Liquid
Fixed: Pressure, kPa = 100
Property: Viscosity, Pa*s (Liquid); method: CAPTUB::UFactor:16
Temperature, K	Viscosity, Pa*s	uncertainty
303.15	0.0007105	7.38e-05
313.15	0.0006914	7.22e-05
323.15	0.0005543	6.03e-05

System: chlorobenzene; phases: Liquid
Fixed: Pressure, kPa = 100
Property: Speed of sound, m/s (Liquid); method: LVPAI::UFactor:128
Temperature, K	Speed of sound, m/s	uncertainty
303.15	1220	171
313.15	797	129
323.15	695	118

System: chlorobenzene; phases: Liquid
Fixed: Pressure, kPa = 100
Property: Mass density, kg/m3 (Liquid); method: PYCNOM::UFactor:16
Temperature, K	Mass density, kg/m3	uncertainty
303.15	1102	4.7
313.15	1080	4.9
323.15	1067.4	5.2

System: 4-methoxybenzaldehyde; phases: Liquid, Air at 1 atmosphere
Property: Surface tension liquid-gas, N/m (Liquid); method: RINGTE::UFactor:4
Temperature, K	Surface tension liquid-gas, N/m	uncertainty
303.15	0.09908	0.00492
313.15	0.09611	0.00478
323.15	0.0941	0.00469

System: 4-methoxybenzaldehyde; phases: Liquid
Fixed: Pressure, kPa = 101.325
Property: Refractive index (Na D-line) (Liquid); method: ABBE::UFactor:4
Temperature, K	Refractive index (Na D-line)	uncertainty
303.15	1.5571	0.0012
313.15	1.5488	0.0012
323.15	1.5463	0.0012

System: 4-methoxybenzaldehyde; phases: Liquid
Fixed: Pressure, kPa = 100
Property: Viscosity, Pa*s (Liquid); method: CAPTUB::UFactor:16
Temperature, K	Viscosity, Pa*s	uncertainty
303.15	0.0032753	0.0002913
313.15	0.0029695	0.0002657
323.15	0.0024418	0.0002214

System: 4-methoxybenzaldehyde; phases: Liquid
Fixed: Pressure, kPa = 100
Property: Speed of sound, m/s (Liquid); method: LVPAI::UFactor:128
Temperature, K	Speed of sound, m/s	uncertainty
303.15	1684	217
313.15	1631	211
323.15	1571	205

System: 4-methoxybenzaldehyde; phases: Liquid
Fixed: Pressure, kPa = 100
Property: Mass density, kg/m3 (Liquid); method: PYCNOM::UFactor:16
Temperature, K	Mass density, kg/m3	uncertainty
303.15	1125.5	4.8
313.15	1119.1	5.1
323.15	1114.1	5.5

System: chlorobenzene + 4-methoxybenzaldehyde; phases: Liquid, Air at 1 atmosphere
Property: Surface tension liquid-gas, N/m (Liquid); method: RINGTE:UFactor:4
Temperature, K	Mole fraction of 4-methoxybenzaldehyde	Surface tension liquid-gas, N/m	uncertainty
303.15	0	0.0336	0.00187
303.15	0.144	0.04312	0.00232
303.15	0.2517	0.05012	0.00264
303.15	0.3354	0.056	0.00292
303.15	0.4308	0.0625	0.00322
303.15	0.5457	0.07014	0.00357
303.15	0.6271	0.07582	0.00384
303.15	0.7371	0.08411	0.00422
303.15	0.8079	0.08759	0.00439
303.15	0.9439	0.09609	0.00478
303.15	1	0.09908	0.00492
313.15	0	0.0323	0.00181
313.15	0.144	0.0416	0.00225
313.15	0.2517	0.04911	0.0026
313.15	0.3354	0.05533	0.00288
313.15	0.4308	0.06212	0.0032
313.15	0.5457	0.07123	0.00362
313.15	0.6271	0.07822	0.00395
313.15	0.7371	0.08311	0.00418
313.15	0.8079	0.08641	0.00433
313.15	0.9439	0.09466	0.00472
313.15	1	0.09611	0.00478
323.15	0	0.03126	0.00176
323.15	0.144	0.04052	0.0022
323.15	0.2517	0.04799	0.00254
323.15	0.3354	0.05334	0.00279
323.15	0.4308	0.06011	0.00311
323.15	0.5457	0.06877	0.00351
323.15	0.6271	0.07522	0.00381
323.15	0.7371	0.08289	0.00417
323.15	0.8079	0.08522	0.00428
323.15	0.9439	0.09344	0.00466
323.15	1	0.0941	0.00469

System: chlorobenzene + 4-methoxybenzaldehyde; phases: Liquid
Fixed: Pressure, kPa = 100
Property: Viscosity, Pa*s (Liquid); method: CAPTUB:UFactor:16
Temperature, K	Mole fraction of 4-methoxybenzaldehyde	Viscosity, Pa*s	uncertainty
303.15	0	0.0007105	7.38e-05
303.15	0.144	0.0008478	8.56e-05
303.15	0.2517	0.0010227	0.0001006
303.15	0.3354	0.0011681	0.0001131
303.15	0.4308	0.001334	0.0001273
303.15	0.5457	0.0015661	0.0001471
303.15	0.6271	0.0017714	0.0001646
303.15	0.7371	0.0020864	0.0001913
303.15	0.8079	0.0023533	0.0002139
303.15	0.9439	0.0029476	0.0002639
303.15	1	0.0032753	0.0002913
313.15	0	0.0006914	7.22e-05
313.15	0.144	0.0007705	7.9e-05
313.15	0.2517	0.0009236	9.21e-05
313.15	0.3354	0.0010472	0.0001027
313.15	0.4308	0.0011777	0.0001139
313.15	0.5457	0.0013575	0.0001293
313.15	0.6271	0.0014969	0.0001412
313.15	0.7371	0.0017623	0.0001638
313.15	0.8079	0.0019856	0.0001828
313.15	0.9439	0.0025963	0.0002344
313.15	1	0.0029695	0.0002657
323.15	0	0.0005543	6.03e-05
323.15	0.144	0.0006646	6.99e-05
323.15	0.2517	0.0008222	8.34e-05
323.15	0.3354	0.0009386	9.34e-05
323.15	0.4308	0.0010594	0.0001038
323.15	0.5457	0.001192	0.0001151
323.15	0.6271	0.001287	0.0001233
323.15	0.7371	0.0014738	0.0001392
323.15	0.8079	0.0016348	0.000153
323.15	0.9439	0.0021221	0.0001943
323.15	1	0.0024418	0.0002214

System: chlorobenzene + 4-methoxybenzaldehyde; phases: Liquid
Fixed: Pressure, kPa = 100
Property: Refractive index (Na D-line) (Liquid); method: ABBE:UFactor:4
Temperature, K	Mole fraction of 4-methoxybenzaldehyde	Refractive index (Na D-line)	uncertainty
303.15	0	1.559	0.0012
303.15	0.144	1.5589	0.0012
303.15	0.2517	1.5587	0.0012
303.15	0.3354	1.5586	0.0012
303.15	0.4308	1.5585	0.0012
303.15	0.5457	1.5583	0.0012
303.15	0.6271	1.5581	0.0012
303.15	0.7371	1.5578	0.0012
303.15	0.8079	1.5576	0.0012
303.15	0.9439	1.5572	0.0012
303.15	1	1.5571	0.0012
313.15	0	1.5509	0.0012
313.15	0.144	1.5508	0.0012
313.15	0.2517	1.5507	0.0012
313.15	0.3354	1.5506	0.0012
313.15	0.4308	1.5504	0.0012
313.15	0.5457	1.5502	0.0012
313.15	0.6271	1.55	0.0012
313.15	0.7371	1.5497	0.0012
313.15	0.8079	1.5494	0.0012
313.15	0.9439	1.549	0.0012
313.15	1	1.5488	0.0012
323.15	0	1.548	0.0012
323.15	0.144	1.548	0.0012
323.15	0.2517	1.5479	0.0012
323.15	0.3354	1.5478	0.0012
323.15	0.4308	1.5477	0.0012
323.15	0.5457	1.5475	0.0012
323.15	0.6271	1.5475	0.0012
323.15	0.7371	1.5474	0.0012
323.15	0.8079	1.547	0.0012
323.15	0.9439	1.5466	0.0012
323.15	1	1.5463	0.0012

System: chlorobenzene + 4-methoxybenzaldehyde; phases: Liquid
Fixed: Pressure, kPa = 100
Property: Speed of sound, m/s (Liquid); method: LVPAI:UFactor:128
Temperature, K	Mole fraction of 4-methoxybenzaldehyde	Speed of sound, m/s	uncertainty
303.15	0	1220	171
303.15	0.144	1339	182
303.15	0.2517	1383	187
303.15	0.3354	1418	190
303.15	0.4308	1459	194
303.15	0.5457	1505	199
303.15	0.6271	1537	202
303.15	0.7371	1580	206
303.15	0.8079	1607	209
303.15	0.9439	1662	214
303.15	1	1684	217
313.15	0	797	129
313.15	0.144	820	131
313.15	0.2517	924	141
313.15	0.3354	1004	149
313.15	0.4308	1097	158
313.15	0.5457	1207	169
313.15	0.6271	1283	177
313.15	0.7371	1385	187
313.15	0.8079	1452	194
313.15	0.9439	1577	206
313.15	1	1631	211
323.15	0	695	118
323.15	0.144	738	123
323.15	0.2517	758	125
323.15	0.3354	850	134
323.15	0.4308	955	144
323.15	0.5457	1082	157
323.15	0.6271	1170	166
323.15	0.7371	1290	177
323.15	0.8079	1365	185
323.15	0.9439	1511	199
323.15	1	1571	205

System: chlorobenzene + 4-methoxybenzaldehyde; phases: Liquid
Fixed: Pressure, kPa = 100
Property: Mass density, kg/m3 (Liquid); method: PYCNOM:UFactor:16
Temperature, K	Mole fraction of 4-methoxybenzaldehyde	Mass density, kg/m3	uncertainty
303.15	0	1102	4.7
303.15	0.144	1105.1	4.7
303.15	0.2517	1107	4.7
303.15	0.3354	1109.1	4.7
303.15	0.4308	1111.2	4.7
303.15	0.5457	1113.2	4.7
303.15	0.6271	1115.3	4.7
303.15	0.7371	1118	4.7
303.15	0.8079	1122	4.8
303.15	0.9439	1124	4.8
303.15	1	1125.5	4.8
313.15	0	1080	4.9
313.15	0.144	1085.1	4.9
313.15	0.2517	1089.3	5
313.15	0.3354	1092.1	5
313.15	0.4308	1099.6	5
313.15	0.5457	1100.5	5
313.15	0.6271	1103.5	5
313.15	0.7371	1107.2	5.1
313.15	0.8079	1110.2	5.1
313.15	0.9439	1116.3	5.1
313.15	1	1119.1	5.1
323.15	0	1067.4	5.2
323.15	0.144	1073.5	5.3
323.15	0.2517	1078.6	5.3
323.15	0.3354	1082.5	5.3
323.15	0.4308	1086.3	5.3
323.15	0.5457	1091.6	5.4
323.15	0.6271	1095	5.4
323.15	0.7371	1100	5.4
323.15	0.8079	1103	5.4
323.15	0.9439	1110.1	5.4
323.15	1	1114.1	5.5
