Measured thermophysical data. Experimental Investigation of the Solubility of Ammonia in Methanol
Source: J. Chem. Eng. Data, 2007, 10.1021/je700033y
Compound 1: ammonia, H3N, InChI=1S/H3N/h1H3, purity 99.999%
Compound 2: methanol, CH4O, InChI=1S/CH4O/c1-2/h2H,1H3, purity 99.8%

System: methanol; phases: Liquid, Gas
Property: Vapor or sublimation pressure, kPa (Liquid); method: High pressure cell
Temperature, K	Vapor or sublimation pressure, kPa	uncertainty
353.1	181	3
393.1	635	3

System: methanol + ammonia; phases: Liquid, Gas
Property: Molality, mol/kg (Liquid); method: High pressure cell
Temperature, K	Pressure, kPa	Molality, mol/kg	uncertainty
353.1	181	0	0.078
353.1	215	1.334	0.076
353.1	254	2.726	0.076
353.1	288	3.782	0.076
353.1	349	5.546	0.086
353.1	374	6.292	0.09
353.1	414	7.28	0.095
353.1	470	8.695	0.105
353.1	573	11.17	0.137
353.1	653	13	0.152
393.1	635	0	0.07
393.1	740	1.533	0.072
393.1	846	3.039	0.051
393.1	963	4.547	0.058
393.1	1062	5.748	0.066
393.1	1190	7.211	0.079
393.1	1369	9.243	0.098
393.1	1549	11.3	0.12
393.1	1606	11.99	0.13

System: methanol + ammonia; phases: Liquid, Gas
Property: Molality, mol/kg (Liquid); method: High pressure view cell
Temperature, K	Pressure, kPa	Molality, mol/kg	uncertainty
313.75	123	7.087	3.01
313.75	161	10.66	2.15
313.75	211	13.08	1.47
313.75	260	15.18	2.01
313.75	308	19.14	1.76
313.75	410	23.63	1.59
313.75	461	26.64	2.08
313.75	596	35.34	2.42
313.75	699	43.66	2.81
313.75	760	48.32	3.34
313.75	875	60	4.26
313.75	913	66.35	5.98
354.35	248	1.506	1.023
354.35	336	4.313	1.002
354.35	382	5.676	0.844
354.35	472	7.908	0.792
354.35	598	10.97	1.39
354.35	673	12.68	1.63
354.35	695	13.12	1.6
354.35	795	15.35	0.49
354.35	1019	20.23	0.36
354.35	1165	23.75	0.44
354.35	1422	30.36	1.07
354.35	1801	41.18	1.41
395	835	2.182	0.426
395	939	3.548	0.411
395	1266	7.634	0.388
395	1617	11.49	0.36
395	1696	12.27	0.37
395	2027	15.94	0.44
395	2791	24.93	0.6
395	3509	34.54	0.92
395	4226	46.63	1.46

System: methanol + ammonia; phases: Liquid, Gas
Property: Mole fraction of ammonia (Liquid); method: Chromatography
Temperature, K	Pressure, kPa	Mole fraction of ammonia	uncertainty
353.1	215	0.15	0.01
353.1	254	0.31	0.01
353.1	288	0.4	0.01
353.1	349	0.53	0.01
353.1	374	0.57	0.01
353.1	414	0.62	0.01
353.1	470	0.68	0.01
353.1	573	0.75	0.01
353.1	653	0.79	0.01
393.1	846	0.35	0.01
393.1	963	0.43	0.01
393.1	1062	0.49	0.01
393.1	1190	0.56	0.01
393.1	1369	0.61	0.01
