Measured thermophysical data. Densities and Excess Enthalpies for Ionic Liquids + Ethanol or + Nitromethane
Source: J. Chem. Eng. Data, 2008, 10.1021/je700754k
Compound 1: 1-butyl-3-methylimidazolium tetrafluoroborate, C8H15BF4N2, InChI=1S/C8H15N2.BF4/c1-3-4-5-10-7-6-9(2)8-10;2-1(3,4)5/h6-8H,3-5H2,1-2H3;/q+1;-1, purity 99.8%
Compound 2: 1-butyl-3-methylimidazolium methyl sulfate, C9H18N2O4S, InChI=1S/C8H15N2.CH4O4S/c1-3-4-5-10-7-6-9(2)8-10;1-5-6(2,3)4/h6-8H,3-5H2,1-2H3;1H3,(H,2,3,4)/q+1;/p-1, purity 99.8%
Compound 3: ethanol, C2H6O, InChI=1S/C2H6O/c1-2-3/h3H,2H2,1H3, purity 99.5%
Compound 4: nitromethane, CH3NO2, InChI=1S/CH3NO2/c1-2(3)4/h1H3, purity 98.5%

System: ethanol + 1-butyl-3-methylimidazolium tetrafluoroborate; phases: Liquid
Fixed: Pressure, kPa = 101
Fixed: Temperature, K = 303.15
Property: Excess molar enthalpy (molar enthalpy of mixing), kJ/mol (Liquid); method: Calvet calorimetry
Mole fraction of 1-butyl-3-methylimidazolium tetrafluoroborate	Excess molar enthalpy (molar enthalpy of mixing), kJ/mol	uncertainty
0.0201	0.36	0.029
0.0573	0.852	0.068
0.1005	1.285	0.103
0.1962	1.956	0.157
0.3371	2.472	0.199
0.4225	2.609	0.21
0.5001	2.509	0.202
0.5874	2.279	0.183
0.6333	2.049	0.165
0.7422	1.668	0.134
0.8291	1.159	0.093
0.9257	0.625	0.05

System: ethanol + 1-butyl-3-methylimidazolium tetrafluoroborate; phases: Liquid
Fixed: Pressure, kPa = 101
Property: Mass density, kg/m3 (Liquid); method: VIBTUB:UFactor:8
Temperature, K	Mole fraction of 1-butyl-3-methylimidazolium tetrafluoroborate	Mass density, kg/m3	uncertainty
293.15	0	789.38	0.94
293.15	0.0517	854.59	0.74
293.15	0.0918	895.67	0.62
293.15	0.1479	943.11	0.48
293.15	0.1995	980.07	0.4
293.15	0.2518	1011.33	0.38
293.15	0.3228	1046.79	0.46
293.15	0.4219	1085.81	0.57
293.15	0.5356	1120.88	0.67
293.15	0.6244	1142.66	0.72
293.15	0.709	1160.24	0.77
293.15	0.8295	1181.36	0.83
293.15	0.9327	1196.33	0.88
293.15	1	1204.93	0.9
303.15	0	780.78	0.96
303.15	0.0517	846.27	0.76
303.15	0.0918	887.54	0.64
303.15	0.1479	935.12	0.5
303.15	0.1995	972.15	0.41
303.15	0.2518	1003.46	0.36
303.15	0.3228	1039.01	0.44
303.15	0.4219	1078.14	0.54
303.15	0.5356	1113.35	0.64
303.15	0.6244	1135.23	0.7
303.15	0.709	1152.89	0.75
303.15	0.8295	1174.12	0.81
303.15	0.9327	1189.16	0.85
303.15	1	1197.83	0.88
313.15	0	772.04	0.99
313.15	0.0517	837.83	0.79
313.15	0.0918	879.27	0.67
313.15	0.1479	927.02	0.52
313.15	0.1995	964.15	0.43
313.15	0.2518	995.56	0.36
313.15	0.3228	1031.22	0.42
313.15	0.4219	1070.51	0.52
313.15	0.5356	1105.88	0.62
313.15	0.6244	1127.86	0.68
313.15	0.709	1145.59	0.73
313.15	0.8295	1166.93	0.79
313.15	0.9327	1182.04	0.83
313.15	1	1190.74	0.86
323.15	0	763.14	1.02
323.15	0.0517	829.27	0.82
323.15	0.0918	870.9	0.69
323.15	0.1479	918.84	0.55
323.15	0.1995	956.11	0.45
323.15	0.2518	987.64	0.38
323.15	0.3228	1023.46	0.41
323.15	0.4219	1062.91	0.5
323.15	0.5356	1098.46	0.6
323.15	0.6244	1120.54	0.66
323.15	0.709	1138.37	0.7
323.15	0.8295	1159.8	0.77
323.15	0.9327	1174.97	0.81
323.15	1	1183.72	0.83

System: nitromethane + 1-butyl-3-methylimidazolium tetrafluoroborate; phases: Liquid
Fixed: Pressure, kPa = 101
Fixed: Temperature, K = 303.15
Property: Excess molar enthalpy (molar enthalpy of mixing), kJ/mol (Liquid); method: Calvet calorimetry
Mole fraction of 1-butyl-3-methylimidazolium tetrafluoroborate	Excess molar enthalpy (molar enthalpy of mixing), kJ/mol	uncertainty
0.0016	-0.007	0.001
0.0273	-0.092	0.008
0.0558	-0.182	0.015
0.1131	-0.287	0.023
0.202	-0.406	0.033
0.3621	-0.487	0.039
0.5067	-0.452	0.036
0.6037	-0.409	0.033
0.7226	-0.316	0.025
0.8827	-0.159	0.013

System: nitromethane + 1-butyl-3-methylimidazolium tetrafluoroborate; phases: Liquid
Fixed: Pressure, kPa = 101
Property: Mass density, kg/m3 (Liquid); method: VIBTUB:UFactor:16
Temperature, K	Mole fraction of 1-butyl-3-methylimidazolium tetrafluoroborate	Mass density, kg/m3	uncertainty
293.15	0	1137.98	1.94
293.15	0.0512	1154.27	2.01
293.15	0.0991	1164.29	2.03
293.15	0.1392	1170.56	2.04
293.15	0.2026	1178.15	2.03
293.15	0.2986	1186.08	2.01
293.15	0.3565	1189.62	1.98
293.15	0.3972	1191.64	1.97
293.15	0.4553	1194.13	1.94
293.15	0.5231	1196.42	1.91
293.15	0.5949	1198.48	1.89
293.15	0.6863	1200.57	1.86
293.15	0.8073	1202.6	1.82
293.15	0.8634	1203.37	1.81
293.15	1	1204.99	1.79
303.15	0	1124.39	1.84
303.15	0.0512	1142.08	1.92
303.15	0.0991	1152.98	1.95
303.15	0.1392	1159.82	1.96
303.15	0.2026	1168.09	1.96
303.15	0.2986	1176.78	1.94
303.15	0.3565	1180.67	1.92
303.15	0.3972	1182.9	1.91
303.15	0.4553	1185.65	1.89
303.15	0.5231	1188.18	1.86
303.15	0.5949	1190.48	1.84
303.15	0.6863	1192.82	1.81
303.15	0.8073	1195.13	1.77
303.15	0.8634	1196.01	1.76
303.15	1	1197.89	1.75
313.15	0	1110.68	1.74
313.15	0.0512	1129.84	1.83
313.15	0.0991	1141.66	1.87
313.15	0.1392	1149.08	1.89
313.15	0.2026	1158.06	1.89
313.15	0.2986	1167.52	1.88
313.15	0.3565	1171.76	1.86
313.15	0.3972	1174.2	1.85
313.15	0.4553	1177.21	1.83
313.15	0.5231	1179.99	1.81
313.15	0.5949	1182.53	1.78
313.15	0.6863	1185.11	1.76
313.15	0.8073	1187.69	1.73
313.15	0.8634	1188.69	1.72
313.15	1	1190.81	1.7
323.15	0	1096.88	1.64
323.15	0.0512	1117.57	1.74
323.15	0.0991	1130.32	1.79
323.15	0.1392	1138.35	1.81
323.15	0.2026	1148.05	1.82
323.15	0.2986	1158.31	1.82
323.15	0.3565	1162.9	1.8
323.15	0.3972	1165.55	1.79
323.15	0.4553	1168.83	1.78
323.15	0.5231	1171.87	1.75
323.15	0.5949	1174.65	1.73
323.15	0.6863	1177.48	1.71
323.15	0.8073	1180.33	1.68
323.15	0.8634	1181.43	1.67
323.15	1	1183.78	1.66

System: ethanol + 1-butyl-3-methylimidazolium methyl sulfate; phases: Liquid
Fixed: Pressure, kPa = 101
Fixed: Temperature, K = 303.15
Property: Excess molar enthalpy (molar enthalpy of mixing), kJ/mol (Liquid); method: Calvet calorimetry
Mole fraction of 1-butyl-3-methylimidazolium methyl sulfate	Excess molar enthalpy (molar enthalpy of mixing), kJ/mol	uncertainty
0.016	0.211	0.017
0.0338	0.368	0.03
0.1032	0.862	0.069
0.1897	1.157	0.093
0.2821	1.323	0.106
0.3379	1.277	0.103
0.5068	1.07	0.086
0.5946	0.958	0.077
0.7119	0.696	0.056
0.7889	0.51	0.041
0.9083	0.22	0.018

System: ethanol + 1-butyl-3-methylimidazolium methyl sulfate; phases: Liquid
Fixed: Pressure, kPa = 101
Property: Mass density, kg/m3 (Liquid); method: VIBTUB:UFactor:8
Temperature, K	Mole fraction of 1-butyl-3-methylimidazolium methyl sulfate	Mass density, kg/m3	uncertainty
293.15	0	789.53	0.94
293.15	0.0459	854.75	0.74
293.15	0.0987	913.25	0.56
293.15	0.142	952	0.46
293.15	0.1905	988.2	0.38
293.15	0.2357	1016.76	0.39
293.15	0.2733	1037.27	0.44
293.15	0.3516	1073.29	0.53
293.15	0.4381	1104.9	0.63
293.15	0.5335	1132.61	0.7
293.15	0.5712	1141.96	0.73
293.15	0.6742	1163.83	0.79
293.15	0.7665	1180.16	0.83
293.15	0.8482	1192.27	0.87
293.15	0.9248	1202.35	0.9
293.15	1	1211.17	0.92
303.15	0	780.94	0.96
303.15	0.0459	846.48	0.76
303.15	0.0987	905.23	0.59
303.15	0.142	944.14	0.48
303.15	0.1905	980.49	0.4
303.15	0.2357	1009.19	0.38
303.15	0.2733	1029.8	0.42
303.15	0.3516	1065.97	0.51
303.15	0.4381	1097.71	0.6
303.15	0.5335	1125.56	0.68
303.15	0.5712	1134.95	0.7
303.15	0.6742	1156.95	0.77
303.15	0.7665	1173.37	0.81
303.15	0.8482	1185.55	0.85
303.15	0.9248	1195.72	0.87
303.15	1	1204.48	0.9
313.15	0	772.2	0.99
313.15	0.0459	838.14	0.79
313.15	0.0987	897.17	0.61
313.15	0.142	936.26	0.5
313.15	0.1905	972.79	0.41
313.15	0.2357	1001.63	0.36
313.15	0.2733	1022.32	0.4
313.15	0.3516	1058.67	0.49
313.15	0.4381	1090.57	0.58
313.15	0.5335	1118.55	0.66
313.15	0.5712	1127.99	0.68
313.15	0.6742	1150.1	0.74
313.15	0.7665	1166.61	0.79
313.15	0.8482	1178.85	0.82
313.15	0.9248	1189.08	0.85
313.15	1	1197.92	0.88
323.15	0	763.28	1.02
323.15	0.0459	829.69	0.82
323.15	0.0987	889.06	0.64
323.15	0.142	928.36	0.52
323.15	0.1905	965.08	0.43
323.15	0.2357	994.07	0.37
323.15	0.2733	1014.88	0.39
323.15	0.3516	1051.41	0.47
323.15	0.4381	1083.48	0.56
323.15	0.5335	1111.6	0.64
323.15	0.5712	1121.09	0.66
323.15	0.6742	1143.31	0.72
323.15	0.7665	1159.9	0.77
323.15	0.8482	1172.21	0.8
323.15	0.9248	1182.49	0.83
323.15	1	1191.39	0.86

System: nitromethane + 1-butyl-3-methylimidazolium methyl sulfate; phases: Liquid
Fixed: Pressure, kPa = 101
Fixed: Temperature, K = 303.15
Property: Excess molar enthalpy (molar enthalpy of mixing), kJ/mol (Liquid); method: Calvet calorimetry
Mole fraction of 1-butyl-3-methylimidazolium methyl sulfate	Excess molar enthalpy (molar enthalpy of mixing), kJ/mol	uncertainty
0.0804	-0.159	0.013
0.1617	-0.285	0.023
0.2832	-0.396	0.032
0.394	-0.466	0.037
0.4351	-0.451	0.036
0.5566	-0.418	0.034
0.6675	-0.37	0.03
0.7671	-0.273	0.022
0.8761	-0.13	0.011

System: nitromethane + 1-butyl-3-methylimidazolium methyl sulfate; phases: Liquid
Fixed: Pressure, kPa = 101
Property: Mass density, kg/m3 (Liquid); method: VIBTUB:UFactor:16
Temperature, K	Mole fraction of 1-butyl-3-methylimidazolium methyl sulfate	Mass density, kg/m3	uncertainty
293.15	0	1137.92	1.94
293.15	0.0398	1152.79	2.01
293.15	0.1021	1167.13	2.05
293.15	0.1433	1174.03	2.06
293.15	0.1988	1181.04	2.06
293.15	0.2444	1185.56	2.05
293.15	0.2998	1189.98	2.03
293.15	0.3979	1195.81	1.99
293.15	0.4786	1199.41	1.96
293.15	0.5652	1202.31	1.93
293.15	0.7127	1206.24	1.88
293.15	0.8212	1208.19	1.85
293.15	0.8546	1208.81	1.85
293.15	1	1211.16	1.83
303.15	0	1124.32	1.84
303.15	0.0398	1140.52	1.92
303.15	0.1021	1156.18	1.97
303.15	0.1433	1163.71	1.99
303.15	0.1988	1171.38	1.99
303.15	0.2444	1176.34	1.98
303.15	0.2998	1181.18	1.97
303.15	0.3979	1187.57	1.94
303.15	0.4786	1191.53	1.91
303.15	0.5652	1194.73	1.88
303.15	0.7127	1199.08	1.83
303.15	0.8212	1201.28	1.81
303.15	0.8546	1201.97	1.8
303.15	1	1204.45	1.79
313.15	0	1110.62	1.74
313.15	0.0398	1128.19	1.83
313.15	0.1021	1145.2	1.89
313.15	0.1433	1153.39	1.91
313.15	0.1988	1161.73	1.92
313.15	0.2444	1167.13	1.92
313.15	0.2998	1172.41	1.91
313.15	0.3979	1179.37	1.88
313.15	0.4786	1183.69	1.86
313.15	0.5652	1187.19	1.83
313.15	0.7127	1191.95	1.79
313.15	0.8212	1194.38	1.76
313.15	0.8546	1195.14	1.76
313.15	1	1197.88	1.75
323.15	0	1096.82	1.64
323.15	0.0398	1115.81	1.74
323.15	0.1021	1134.22	1.82
323.15	0.1433	1143.09	1.84
323.15	0.1988	1152.11	1.85
323.15	0.2444	1157.97	1.86
323.15	0.2998	1163.68	1.85
323.15	0.3979	1171.23	1.83
323.15	0.4786	1175.91	1.81
323.15	0.5652	1179.71	1.78
323.15	0.7127	1184.88	1.74
323.15	0.8212	1187.53	1.72
323.15	0.8546	1188.36	1.72
323.15	1	1191.35	1.7
