Measured thermophysical data. Viscosity of the Tributyl Phosphate + Methyl Isobutyl Ketone + Phosphoric Acid System
Source: J. Chem. Eng. Data, 2008, 10.1021/je700746a
Compound 1: tributyl phosphate, C12H27O4P, InChI=1S/C12H27O4P/c1-4-7-10-14-17(13,15-11-8-5-2)16-12-9-6-3/h4-12H2,1-3H3
Compound 2: 4-methylpentan-2-one, C6H12O, InChI=1S/C6H12O/c1-5(2)4-6(3)7/h5H,4H2,1-3H3
Compound 3: phosphoric acid, H3O4P, InChI=1S/H3O4P/c1-5(2,3)4/h(H3,1,2,3,4)

System: tributyl phosphate; phases: Liquid
Property: Viscosity, Pa*s (Liquid); method: CAPTUB:UFactor:8
Temperature, K	Pressure, kPa	Viscosity, Pa*s	uncertainty
298.15	101.325	0.00345	0.00022

System: 4-methylpentan-2-one; phases: Liquid
Property: Viscosity, Pa*s (Liquid); method: CAPTUB:UFactor:8
Temperature, K	Pressure, kPa	Viscosity, Pa*s	uncertainty
298.15	101.325	0.00056	4e-05

System: 4-methylpentan-2-one + tributyl phosphate; phases: Liquid
Fixed: Pressure, kPa = 101
Property: Kinematic viscosity, m2/s (Liquid); method: CAPTUB:UFactor:8
Temperature, K	Volume ratio of solute to solvent of tributyl phosphate	Kinematic viscosity, m2/s	uncertainty
283.1	1.5	2.15e-06	1.1e-07
283.1	2.3	2.56e-06	1.3e-07
283.1	4	3.12e-06	1.6e-07
293.15	1.5	1.78e-06	9e-08
293.15	2.3	2.1e-06	1.1e-07
293.15	4	2.55e-06	1.3e-07
303.15	1.5	1.47e-06	8e-08
303.15	2.3	1.72e-06	9e-08
303.15	4	2.07e-06	1.1e-07
313.15	1.5	1.23e-06	7e-08
313.15	2.3	1.41e-06	8e-08
313.15	4	1.68e-06	9e-08
323.15	1.5	1.1e-06	6e-08
323.15	2.3	1.24e-06	7e-08
323.15	4	1.45e-06	8e-08

System: 4-methylpentan-2-one + tributyl phosphate; phases: Liquid
Fixed: Pressure, kPa = 101
Property: Mass density, kg/m3 (Liquid); method: Pycnometric method
Temperature, K	Volume ratio of solute to solvent of tributyl phosphate	Mass density, kg/m3	uncertainty
283.1	1.5	915	4.7
283.1	2.3	926	4.8
283.1	4	948.5	5.1
293.15	1.5	908.9	4.6
293.15	2.3	921.8	4.8
293.15	4	941.8	5
303.15	1.5	903.4	4.6
303.15	2.3	916.8	4.7
303.15	4	935.3	4.9
313.15	1.5	898.5	4.6
313.15	2.3	911	4.7
313.15	4	929	4.9
323.15	1.5	894.2	4.6
323.15	2.3	904.4	4.7
323.15	4	922.9	4.9

System: 4-methylpentan-2-one + tributyl phosphate + phosphoric acid; phases: Liquid
Fixed: Pressure, kPa = 101
Property: Kinematic viscosity, m2/s (Liquid); method: CAPTUB:UFactor:8
Mass fraction of phosphoric acid	Temperature, K	Solvent: Volume ratio of component to other component of binary solvent of tributyl phosphate	Kinematic viscosity, m2/s	uncertainty
0	283.1	1.5	2.15e-06	1.1e-07
0	283.1	2.3	2.56e-06	1.3e-07
0	283.1	4	3.12e-06	1.6e-07
0	293.15	1.5	1.78e-06	9e-08
0	293.15	2.3	2.1e-06	1.1e-07
0	293.15	4	2.55e-06	1.3e-07
0	303.15	1.5	1.47e-06	8e-08
0	303.15	2.3	1.72e-06	9e-08
0	303.15	4	2.07e-06	1.1e-07
0	313.15	1.5	1.23e-06	7e-08
0	313.15	2.3	1.41e-06	8e-08
0	313.15	4	1.68e-06	9e-08
0	323.15	1.5	1.1e-06	6e-08
0	323.15	2.3	1.24e-06	7e-08
0	323.15	4	1.45e-06	8e-08
0.009	283.1	1.5	2.39e-06	1.2e-07
0.009	293.15	1.5	1.99e-06	1e-07
0.009	303.15	1.5	1.65e-06	9e-08
0.009	313.15	1.5	1.36e-06	7e-08
0.009	323.15	1.5	1.2e-06	7e-08
0.0115	283.1	2.3	2.96e-06	1.5e-07
0.0115	293.15	2.3	2.43e-06	1.3e-07
0.0115	303.15	2.3	1.98e-06	1e-07
0.0115	313.15	2.3	1.62e-06	9e-08
0.0115	323.15	2.3	1.42e-06	8e-08
0.012	283.1	4	3.77e-06	1.9e-07
0.012	293.15	4	3.02e-06	1.6e-07
0.012	303.15	4	2.41e-06	1.3e-07
0.012	313.15	4	1.95e-06	1e-07
0.012	323.15	4	1.72e-06	9e-08
0.0318	283.1	1.5	3.28e-06	1.7e-07
0.0318	293.15	1.5	2.68e-06	1.4e-07
0.0318	303.15	1.5	2.17e-06	1.1e-07
0.0318	313.15	1.5	1.76e-06	9e-08
0.0318	323.15	1.5	1.53e-06	8e-08
0.0326	283.1	4	5.19e-06	2.6e-07
0.0326	293.15	4	4.09e-06	2.1e-07
0.0326	303.15	4	3.2e-06	1.6e-07
0.0326	313.15	4	2.52e-06	1.3e-07
0.0326	323.15	4	2.16e-06	1.1e-07
0.0334	283.1	2.3	4.17e-06	2.1e-07
0.0334	293.15	2.3	3.35e-06	1.7e-07
0.0334	303.15	2.3	2.67e-06	1.4e-07
0.0334	313.15	2.3	2.13e-06	1.1e-07
0.0334	323.15	2.3	1.84e-06	1e-07
0.0562	283.1	4	8.99e-06	4.1e-07
0.0562	293.15	4	6.87e-06	3.3e-07
0.0562	303.15	4	5.18e-06	2.6e-07
0.0562	313.15	4	3.93e-06	2e-07
0.0562	323.15	4	3.28e-06	1.7e-07
0.0622	283.1	1.5	5.59e-06	2.8e-07
0.0622	283.1	2.3	7.04e-06	3.3e-07
0.0622	293.15	1.5	4.39e-06	2.2e-07
0.0622	293.15	2.3	5.45e-06	2.7e-07
0.0622	303.15	1.5	3.42e-06	1.8e-07
0.0622	303.15	2.3	4.19e-06	2.1e-07
0.0622	313.15	1.5	2.68e-06	1.4e-07
0.0622	313.15	2.3	3.24e-06	1.7e-07
0.0622	323.15	1.5	2.29e-06	1.2e-07
0.0622	323.15	2.3	2.77e-06	1.4e-07
0.0813	283.1	4	1.369e-05	6.1e-07
0.0813	293.15	4	1.012e-05	4.6e-07
0.0813	303.15	4	7.36e-06	3.5e-07
0.0813	313.15	4	5.39e-06	2.7e-07
0.0813	323.15	4	4.47e-06	2.3e-07
0.0814	283.1	1.5	7.87e-06	3.7e-07
0.0814	293.15	1.5	6.04e-06	2.9e-07
0.0814	303.15	1.5	4.59e-06	2.3e-07
0.0814	313.15	1.5	3.51e-06	1.8e-07
0.0814	323.15	1.5	2.97e-06	1.5e-07
0.0897	283.1	2.3	1.203e-05	5.3e-07
0.0897	293.15	2.3	9.02e-06	4.1e-07
0.0897	303.15	2.3	6.67e-06	3.2e-07
0.0897	313.15	2.3	4.94e-06	2.5e-07
0.0897	323.15	2.3	4.09e-06	2.1e-07
0.1241	283.1	4	3.019e-05	1.28e-06
0.1241	293.15	4	2.137e-05	9.1e-07
0.1241	303.15	4	1.47e-05	6.5e-07
0.1241	313.15	4	1.016e-05	4.6e-07
0.1241	323.15	4	8.22e-06	3.8e-07
0.1249	283.1	1.5	1.807e-05	7.8e-07
0.1249	293.15	1.5	1.251e-05	5.6e-07
0.1249	303.15	1.5	8.5e-06	3.9e-07
0.1249	313.15	1.5	6.05e-06	2.9e-07
0.1249	323.15	1.5	5.4e-06	2.7e-07
0.1267	283.1	2.3	2.297e-05	9.8e-07
0.1267	293.15	2.3	1.648e-05	7.2e-07
0.1267	303.15	2.3	1.157e-05	5.2e-07
0.1267	313.15	2.3	8.22e-06	3.8e-07
0.1267	323.15	2.3	6.81e-06	3.2e-07
0.1699	283.1	2.3	4.257e-05	1.76e-06
0.1699	293.15	2.3	2.975e-05	1.26e-06
0.1699	303.15	2.3	1.989e-05	8.6e-07
0.1699	313.15	2.3	1.301e-05	5.8e-07
0.1699	323.15	2.3	9.73e-06	4.4e-07
0.1739	283.1	1.5	3.328e-05	1.39e-06
0.1739	293.15	1.5	2.33e-05	9.9e-07
0.1739	303.15	1.5	1.583e-05	6.9e-07
0.1739	313.15	1.5	1.088e-05	4.9e-07
0.1739	323.15	1.5	8.93e-06	4.1e-07
0.1745	283.1	4	6.349e-05	2.67e-06
0.1745	293.15	4	4.247e-05	1.78e-06
0.1745	303.15	4	2.712e-05	1.16e-06
0.1745	313.15	4	1.749e-05	7.6e-07
0.1745	323.15	4	1.435e-05	6.2e-07

System: 4-methylpentan-2-one + tributyl phosphate + phosphoric acid; phases: Liquid
Fixed: Pressure, kPa = 101
Property: Mass density, kg/m3 (Liquid); method: Pycnometric method
Mass fraction of phosphoric acid	Temperature, K	Solvent: Volume ratio of component to other component of binary solvent of tributyl phosphate	Mass density, kg/m3	uncertainty
0	283.1	1.5	915	4.7
0	283.1	2.3	926	4.8
0	283.1	4	948.5	5.1
0	293.15	1.5	908.9	4.6
0	293.15	2.3	921.8	4.8
0	293.15	4	941.8	5
0	303.15	1.5	903.4	4.6
0	303.15	2.3	916.8	4.7
0	303.15	4	935.3	4.9
0	313.15	1.5	898.5	4.6
0	313.15	2.3	911	4.7
0	313.15	4	929	4.9
0	323.15	1.5	894.2	4.6
0	323.15	2.3	904.4	4.7
0	323.15	4	922.9	4.9
0.009	283.1	1.5	920.3	4.8
0.009	293.15	1.5	916.9	4.7
0.009	303.15	1.5	911.9	4.7
0.009	313.15	1.5	905.3	4.7
0.009	323.15	1.5	897.1	4.6
0.0115	283.1	2.3	935.4	4.9
0.0115	293.15	2.3	930.2	4.9
0.0115	303.15	2.3	924.2	4.8
0.0115	313.15	2.3	917.4	4.8
0.0115	323.15	2.3	909.8	4.7
0.012	283.1	4	956	5.1
0.012	293.15	4	950.2	5.1
0.012	303.15	4	943.2	5
0.012	313.15	4	935	5
0.012	323.15	4	925.6	4.9
0.0318	283.1	1.5	936.9	4.9
0.0318	293.15	1.5	932	4.9
0.0318	303.15	1.5	927.3	4.8
0.0318	313.15	1.5	922.8	4.8
0.0318	323.15	1.5	918.3	4.8
0.0326	283.1	4	968	5.3
0.0326	293.15	4	964.2	5.2
0.0326	303.15	4	959.2	5.2
0.0326	313.15	4	953	5.1
0.0326	323.15	4	945.6	5.1
0.0334	283.1	2.3	951.2	5.1
0.0334	293.15	2.3	946.3	5
0.0334	303.15	2.3	940.8	5
0.0334	313.15	2.3	934.7	4.9
0.0334	323.15	2.3	928	4.9
0.0562	283.1	4	994.3	5.6
0.0562	293.15	4	986.8	5.5
0.0562	303.15	4	980.3	5.4
0.0562	313.15	4	974.8	5.4
0.0562	323.15	4	970.3	5.4
0.0622	283.1	1.5	962.6	5.2
0.0622	283.1	2.3	970.9	5.3
0.0622	293.15	1.5	957.5	5.1
0.0622	293.15	2.3	967	5.2
0.0622	303.15	1.5	952.2	5.1
0.0622	303.15	2.3	962.5	5.2
0.0622	313.15	1.5	946.7	5.1
0.0622	313.15	2.3	957.4	5.2
0.0622	323.15	1.5	941.2	5
0.0622	323.15	2.3	951.7	5.1
0.0813	283.1	4	1007.4	5.7
0.0813	293.15	4	999.6	5.6
0.0813	303.15	4	992.6	5.5
0.0813	313.15	4	986.4	5.5
0.0813	323.15	4	981	5.5
0.0814	283.1	1.5	978.5	5.4
0.0814	293.15	1.5	971.7	5.3
0.0814	303.15	1.5	965.7	5.3
0.0814	313.15	1.5	960.5	5.2
0.0814	323.15	1.5	956.1	5.2
0.0897	283.1	2.3	992	5.5
0.0897	293.15	2.3	988.2	5.5
0.0897	303.15	2.3	983.2	5.4
0.0897	313.15	2.3	977	5.4
0.0897	323.15	2.3	969.6	5.3
0.1241	283.1	4	1049.6	6.2
0.1241	293.15	4	1036.6	6
0.1241	303.15	4	1025.6	5.9
0.1241	313.15	4	1016.6	5.8
0.1241	323.15	4	1009.6	5.8
0.1249	283.1	1.5	1011	5.7
0.1249	293.15	1.5	1006.1	5.7
0.1249	303.15	1.5	1001.4	5.6
0.1249	313.15	1.5	996.7	5.6
0.1249	323.15	1.5	992.2	5.6
0.1267	283.1	2.3	1021.9	5.9
0.1267	293.15	2.3	1018.7	5.8
0.1267	303.15	2.3	1013.9	5.8
0.1267	313.15	2.3	1007.5	5.7
0.1267	323.15	2.3	999.5	5.7
0.1699	283.1	2.3	1066.3	6.4
0.1699	293.15	2.3	1057	6.2
0.1699	303.15	2.3	1051.5	6.2
0.1699	313.15	2.3	1047.6	6.2
0.1699	323.15	2.3	1044.6	6.2
0.1739	283.1	1.5	1055.4	6.3
0.1739	293.15	1.5	1048.3	6.1
0.1739	303.15	1.5	1041.8	6.1
0.1739	313.15	1.5	1035.9	6.1
0.1739	323.15	1.5	1030.6	6
0.1745	283.1	4	1093.9	6.7
0.1745	293.15	4	1085.4	6.6
0.1745	303.15	4	1077.9	6.5
0.1745	313.15	4	1071.4	6.5
0.1745	323.15	4	1065.9	6.4
