Measured thermophysical data. Densities, Viscosities, Surface Tensions, and Speeds of Sound of Aqueous Solutions of Piperidine + Pyrrolidine + Water
Source: J. Chem. Eng. Data, 2007, 10.1021/je700290j
Compound 1: water, H2O, InChI=1S/H2O/h1H2
Compound 2: piperidine, C5H11N, InChI=1S/C5H11N/c1-2-4-6-5-3-1/h6H,1-5H2
Compound 3: pyrrolidine, C4H9N, InChI=1S/C4H9N/c1-2-4-5-3-1/h5H,1-4H2

System: piperidine; phases: Liquid, Air at 1 atmosphere
Property: Surface tension liquid-gas, N/m (Liquid); method: Ring tensiometer
Temperature, K	Surface tension liquid-gas, N/m	uncertainty
298.15	0.02956	0.00043

System: piperidine; phases: Liquid, Air at 1 atmosphere
Property: Surface tension liquid-gas, N/m (Liquid); method: Ring tensiometer
Temperature, K	Surface tension liquid-gas, N/m	uncertainty
293.15	0.03027	0.00044

System: piperidine; phases: Liquid
Property: Viscosity, Pa*s (Liquid); method: CAPTUB::UFactor:12
Temperature, K	Pressure, kPa	Viscosity, Pa*s	uncertainty
293.15	101	0.0008207	8.07e-05

System: piperidine; phases: Liquid
Property: Speed of sound, m/s (Liquid); method: Sing-around technique in a fixed-path interferometer
Temperature, K	Pressure, kPa	Speed of sound, m/s	uncertainty
293.15	101	1389.4	1.5

System: piperidine; phases: Liquid
Property: Mass density, kg/m3 (Liquid); method: VIBTUB:UFactor:4
Temperature, K	Pressure, kPa	Mass density, kg/m3	uncertainty
293.15	101	859.87	0.38

System: pyrrolidine; phases: Liquid, Air at 1 atmosphere
Property: Surface tension liquid-gas, N/m (Liquid); method: Ring tensiometer
Temperature, K	Surface tension liquid-gas, N/m	uncertainty
298.15	0.02975	0.00045

System: pyrrolidine; phases: Liquid, Air at 1 atmosphere
Property: Surface tension liquid-gas, N/m (Liquid); method: Ring tensiometer
Temperature, K	Surface tension liquid-gas, N/m	uncertainty
293.15	0.03011	0.00045

System: pyrrolidine; phases: Liquid
Property: Viscosity, Pa*s (Liquid); method: CAPTUB::UFactor:12
Temperature, K	Pressure, kPa	Viscosity, Pa*s	uncertainty
293.15	101	0.0015506	0.0001414

System: pyrrolidine; phases: Liquid
Property: Speed of sound, m/s (Liquid); method: Sing-around technique in a fixed-path interferometer
Temperature, K	Pressure, kPa	Speed of sound, m/s	uncertainty
293.15	101	1384.4	1.8

System: pyrrolidine; phases: Liquid
Property: Mass density, kg/m3 (Liquid); method: VIBTUB::UFactor:4
Temperature, K	Pressure, kPa	Mass density, kg/m3	uncertainty
293.15	101	863.81	0.49

System: piperidine + pyrrolidine; phases: Liquid, Air at 1 atmosphere
Fixed: Temperature, K = 293.15
Property: Surface tension liquid-gas, N/m (Liquid); method: Ring tensiometer
Mole fraction of piperidine	Surface tension liquid-gas, N/m	uncertainty
0	0.03011	0.00045
0.1043	0.03036	0.00045
0.2304	0.03061	0.00045
0.496	0.03056	0.00045
0.6423	0.03051	0.00044
0.7053	0.03047	0.00044
0.8273	0.03042	0.00044
1	0.03027	0.00044

System: piperidine + pyrrolidine; phases: Liquid
Fixed: Temperature, K = 293.15
Fixed: Pressure, kPa = 101
Property: Viscosity, Pa*s (Liquid); method: CAPTUB:UFactor:12
Mole fraction of piperidine	Viscosity, Pa*s	uncertainty
0	0.0015506	0.0001414
0.1043	0.0014573	0.0001337
0.2304	0.0013642	0.0001259
0.496	0.001201	0.0001124
0.6423	0.0010381	9.88e-05
0.7053	0.0009752	9.36e-05
0.8273	0.0009124	8.83e-05
1	0.0008207	8.07e-05

System: piperidine + pyrrolidine; phases: Liquid
Fixed: Temperature, K = 293.15
Fixed: Pressure, kPa = 101
Property: Speed of sound, m/s (Liquid); method: Sing-around technique in a fixed-path interferometer
Mole fraction of piperidine	Speed of sound, m/s	uncertainty
0	1384.4	1.8
0.1043	1385.4	1.7
0.2304	1386.3	1.7
0.496	1388.2	1.6
0.6423	1390.1	1.6
0.7053	1390.8	1.6
0.8273	1391.5	1.6
1	1389.4	1.5

System: piperidine + pyrrolidine; phases: Liquid
Fixed: Temperature, K = 293.15
Fixed: Pressure, kPa = 101
Property: Mass density, kg/m3 (Liquid); method: VIBTUB:UFactor:4
Mole fraction of piperidine	Mass density, kg/m3	uncertainty
0	863.81	0.49
0.1043	863.61	0.47
0.2304	863.4	0.46
0.496	862.79	0.42
0.6423	862.19	0.41
0.7053	861.89	0.4
0.8273	861.6	0.39
1	859.87	0.38

System: piperidine + pyrrolidine + water; phases: Liquid, Air at 1 atmosphere
Fixed: Temperature, K = 293.15
Property: Surface tension liquid-gas, N/m (Liquid); method: Ring tensiometer
Mole fraction of piperidine	Mole fraction of pyrrolidine	Surface tension liquid-gas, N/m	uncertainty
0.0195	0.0297	0.03979	0.00055
0.0281	0.9433	0.03055	0.00046
0.0385	0.0588	0.0376	0.00052
0.0428	0.9137	0.03027	0.00045
0.0573	0.0874	0.03644	0.0005
0.0703	0.8581	0.03027	0.00045
0.0729	0.7786	0.03065	0.00045
0.0757	0.1154	0.03577	0.0005
0.0757	0.693	0.03084	0.00045
0.0787	0.6006	0.03196	0.00046
0.082	0.5005	0.03257	0.00047
0.0856	0.3917	0.03339	0.00047
0.0895	0.273	0.03407	0.00048
0.0937	0.143	0.03507	0.00049
0.146	0.7797	0.03021	0.00045
0.1516	0.694	0.03074	0.00045
0.1577	0.6015	0.03094	0.00045
0.1643	0.5012	0.03186	0.00046
0.1714	0.3923	0.03265	0.00047
0.1792	0.2734	0.03374	0.00048
0.1877	0.1432	0.03442	0.00048
0.2278	0.6949	0.03055	0.00045
0.2369	0.6023	0.03089	0.00045
0.2468	0.502	0.03158	0.00046
0.2575	0.3929	0.03206	0.00046
0.2692	0.2738	0.03339	0.00047
0.2821	0.1435	0.03429	0.00048
0.3163	0.6032	0.0305	0.00045
0.3295	0.5027	0.03085	0.00045
0.3439	0.3935	0.03117	0.00045
0.3596	0.2743	0.0321	0.00046
0.3768	0.1437	0.03275	0.00046
0.4125	0.5035	0.03023	0.00044
0.4305	0.3941	0.03102	0.00045
0.4502	0.2747	0.03158	0.00045
0.4718	0.144	0.03209	0.00046
0.5175	0.3947	0.03098	0.00045
0.5411	0.2752	0.03137	0.00045
0.5671	0.1442	0.03162	0.00045
0.6324	0.2757	0.03084	0.00045
0.6627	0.1444	0.03136	0.00045
0.7587	0.1447	0.03077	0.00044
0.7972	0.1448	0.03049	0.00044
0.8129	0.0886	0.03081	0.00044
0.8522	0.0886	0.0305	0.00044
0.9004	0.0597	0.03028	0.00044
0.9497	0.0302	0.03038	0.00044

System: piperidine + pyrrolidine + water; phases: Liquid
Fixed: Temperature, K = 293.15
Fixed: Pressure, kPa = 101
Property: Viscosity, Pa*s (Liquid); method: CAPTUB:UFactor:12
Mole fraction of piperidine	Mole fraction of pyrrolidine	Viscosity, Pa*s	uncertainty
0.0195	0.0297	0.0023183	0.0002084
0.0281	0.9433	0.0018103	0.0001629
0.0385	0.0588	0.0034382	0.0002985
0.0428	0.9137	0.0018039	0.0001624
0.0573	0.0874	0.0045682	0.0003877
0.0703	0.8581	0.0019815	0.0001771
0.0729	0.7786	0.0022197	0.0001968
0.0757	0.1154	0.0052652	0.0004375
0.0757	0.693	0.002885	0.0002513
0.0787	0.6006	0.003635	0.0003123
0.082	0.5005	0.0049897	0.0004212
0.0856	0.3917	0.0056461	0.0004611
0.0895	0.273	0.0061538	0.0004917
0.146	0.7797	0.001633	0.0001484
0.1516	0.694	0.0019755	0.0001767
0.1577	0.6015	0.0026439	0.0002315
0.1643	0.5012	0.0031985	0.0002768
0.1714	0.3923	0.0039671	0.000339
0.1792	0.2734	0.004575	0.0003877
0.1877	0.1432	0.0052004	0.0004337
0.2278	0.6949	0.00154	0.0001406
0.2369	0.6023	0.0018144	0.0001633
0.2468	0.502	0.0024935	0.0002191
0.2575	0.3929	0.0027324	0.0002386
0.2692	0.2738	0.0034339	0.0002957
0.2821	0.1435	0.0038814	0.0003319
0.3163	0.6032	0.0014031	0.0001292
0.3295	0.5027	0.0016248	0.0001476
0.3439	0.3935	0.0022299	0.0001974
0.3596	0.2743	0.0026888	0.000235
0.3768	0.1437	0.0028889	0.0002513
0.4125	0.5035	0.001307	0.0001212
0.4305	0.3941	0.0014964	0.0001369
0.4502	0.2747	0.0018461	0.0001658
0.4718	0.144	0.0021855	0.0001937
0.5175	0.3947	0.0011543	0.0001085
0.5411	0.2752	0.0014565	0.0001336
0.5671	0.1442	0.0016649	0.0001508
0.6324	0.2757	0.0010876	0.000103
0.6627	0.1444	0.0013718	0.0001265
0.7587	0.1447	0.0010352	9.86e-05
0.7972	0.1448	0.0009533	9.17e-05
0.8129	0.0886	0.0010042	9.6e-05
0.8522	0.0886	0.0009346	9.02e-05
0.9004	0.0597	0.0008961	8.7e-05
0.9497	0.0302	0.0008513	8.32e-05

System: piperidine + pyrrolidine + water; phases: Liquid
Fixed: Temperature, K = 293.15
Fixed: Pressure, kPa = 101
Property: Speed of sound, m/s (Liquid); method: Sing-around technique in a fixed-path interferometer
Mole fraction of piperidine	Mole fraction of pyrrolidine	Speed of sound, m/s	uncertainty
0.0195	0.0297	1616.7	1.7
0.0281	0.9433	1390.9	1.8
0.0385	0.0588	1623.9	1.7
0.0428	0.9137	1390.4	1.8
0.0573	0.0874	1614.6	1.6
0.0703	0.8581	1396.9	1.7
0.0729	0.7786	1412.7	1.7
0.0757	0.1154	1599.7	1.6
0.0757	0.693	1433.1	1.7
0.0787	0.6006	1455.8	1.7
0.082	0.5005	1483.2	1.7
0.0856	0.3917	1513.9	1.7
0.0895	0.273	1549.6	1.6
0.0937	0.143	1588.5	1.6
0.146	0.7797	1397.6	1.7
0.1516	0.694	1414.5	1.7
0.1577	0.6015	1434.4	1.7
0.1643	0.5012	1459.1	1.7
0.1714	0.3923	1487.7	1.7
0.1792	0.2734	1520.4	1.6
0.1877	0.1432	1560.4	1.6
0.2278	0.6949	1398.9	1.7
0.2369	0.6023	1416.2	1.7
0.2468	0.502	1437.3	1.7
0.2575	0.3929	1462.6	1.6
0.2692	0.2738	1492.9	1.6
0.2821	0.1435	1527.9	1.6
0.3163	0.6032	1399.6	1.7
0.3295	0.5027	1417.5	1.7
0.3439	0.3935	1438.7	1.6
0.3596	0.2743	1464.9	1.6
0.3768	0.1437	1497	1.6
0.4125	0.5035	1400.3	1.6
0.4305	0.3941	1418.2	1.6
0.4502	0.2747	1441	1.6
0.4718	0.144	1468.2	1.6
0.5175	0.3947	1402.9	1.6
0.5411	0.2752	1422.3	1.6
0.5671	0.1442	1442.7	1.6
0.6324	0.2757	1403.6	1.6
0.6627	0.1444	1422.1	1.6
0.7587	0.1447	1404.9	1.6
0.7972	0.1448	1397.7	1.6
0.8129	0.0886	1403.9	1.6
0.8522	0.0886	1397.5	1.6
0.9004	0.0597	1395	1.6
0.9497	0.0302	1392.7	1.5

System: piperidine + pyrrolidine + water; phases: Liquid
Fixed: Temperature, K = 293.15
Fixed: Pressure, kPa = 101
Property: Mass density, kg/m3 (Liquid); method: VIBTUB:UFactor:4
Mole fraction of piperidine	Mole fraction of pyrrolidine	Mass density, kg/m3	uncertainty
0.0195	0.0297	990.71	0.27
0.0281	0.9433	866.82	0.48
0.0385	0.0588	981.95	0.28
0.0428	0.9137	866.37	0.48
0.0573	0.0874	968.65	0.33
0.0703	0.8581	869.23	0.47
0.0729	0.7786	876.86	0.45
0.0757	0.1154	958.13	0.45
0.0757	0.693	886.01	0.42
0.0787	0.6006	895.14	0.39
0.082	0.5005	906.82	0.35
0.0856	0.3917	911.49	0.34
0.0895	0.273	934.7	0.3
0.0937	0.143	943.18	0.29
0.146	0.7797	868.52	0.46
0.1516	0.694	876.45	0.43
0.1577	0.6015	885.08	0.41
0.1643	0.5012	895.11	0.38
0.1714	0.3923	906.41	0.35
0.1792	0.2734	919.05	0.33
0.1877	0.1432	934.76	0.29
0.2278	0.6949	868.2	0.45
0.2369	0.6023	876.12	0.42
0.2468	0.502	885.02	0.4
0.2575	0.3929	895.01	0.37
0.2692	0.2738	906.5	0.34
0.2821	0.1435	919.44	0.32
0.3163	0.6032	867.69	0.44
0.3295	0.5027	875.67	0.41
0.3439	0.3935	884.43	0.39
0.3596	0.2743	894.46	0.36
0.3768	0.1437	906.21	0.33
0.4125	0.5035	867.27	0.43
0.4305	0.3941	875.09	0.4
0.4502	0.2747	884.27	0.37
0.4718	0.144	894.36	0.35
0.5175	0.3947	868.32	0.41
0.5411	0.2752	876.58	0.38
0.5671	0.1442	883.96	0.36
0.6324	0.2757	867.92	0.4
0.6627	0.1444	875.74	0.37
0.7587	0.1447	867.96	0.39
0.7972	0.1448	864.55	0.39
0.8129	0.0886	867.26	0.38
0.8522	0.0886	864.31	0.39
0.9004	0.0597	863.01	0.39
0.9497	0.0302	861.76	0.38
