Measured thermophysical data. Investigations of the (p, G, T) Properties and Apparent Molar Volumes VO of the LiCl + C2H5OH Solutions
Source: J. Chem. Eng. Data, 2008, 10.1021/je700438d
Compound 1: ethanol, C2H6O, InChI=1S/C2H6O/c1-2-3/h3H,2H2,1H3, purity 99.8%
Compound 2: lithium chloride, ClLi, InChI=1S/ClH.Li/h1H;/q;+1/p-1, purity 99.8%

System: ethanol + lithium chloride; phases: Liquid
Property: Mass density, kg/m3 (Liquid); method: Vibrating tube method
Molality, mol/kg of lithium chloride	Temperature, K	Pressure, kPa	Mass density, kg/m3	uncertainty
0.10487	298.15	210	789.29	0.42
0.10487	298.15	5120	793.51	0.43
0.10487	298.15	10030	797.57	0.44
0.10487	298.15	15240	801.71	0.45
0.10487	298.15	20060	805.39	0.47
0.10487	298.15	25410	809.29	0.49
0.10487	298.15	30060	812.53	0.5
0.10487	298.15	35710	816.28	0.52
0.10487	298.15	39980	818.97	0.54
0.10487	323.15	120	767.47	0.42
0.10487	323.15	5140	772.47	0.43
0.10487	323.15	10020	777.11	0.45
0.10487	323.15	15320	781.93	0.46
0.10487	323.15	20040	786.01	0.48
0.10487	323.15	25060	790.15	0.5
0.10487	323.15	30150	794.13	0.52
0.10487	323.15	35610	798.15	0.54
0.10487	323.15	39940	801.15	0.56
0.10487	348.15	140	743.86	0.42
0.10487	348.15	5080	749.63	0.44
0.10487	348.15	10060	755.18	0.45
0.10487	348.15	15410	760.81	0.47
0.10487	348.15	20060	765.44	0.49
0.10487	348.15	25840	770.86	0.52
0.10487	348.15	30710	775.12	0.54
0.10487	348.15	35240	778.84	0.56
0.10487	348.15	39930	782.45	0.59
0.10487	373.15	290	717.74	0.43
0.10487	373.15	5140	724.52	0.44
0.10487	373.15	10080	731.05	0.46
0.10487	373.15	15420	737.69	0.49
0.10487	373.15	20080	743.13	0.51
0.10487	373.15	25410	748.94	0.54
0.10487	373.15	30260	753.85	0.56
0.10487	373.15	35840	759.05	0.59
0.10487	373.15	39910	762.54	0.61
0.10487	398.15	740	688.68	0.44
0.10487	398.15	5010	695.99	0.45
0.10487	398.15	10450	704.75	0.48
0.10487	398.15	15420	712.2	0.5
0.10487	398.15	20090	718.73	0.53
0.10487	398.15	25840	726.13	0.56
0.10487	398.15	30150	731.22	0.59
0.10487	398.15	35860	737.37	0.62
0.10487	398.15	39860	741.26	0.65
0.30229	298.15	180	795.82	0.42
0.30229	298.15	5040	799.96	0.43
0.30229	298.15	10240	804.22	0.44
0.30229	298.15	15620	808.44	0.45
0.30229	298.15	20050	811.77	0.47
0.30229	298.15	25840	815.92	0.48
0.30229	298.15	30560	819.15	0.5
0.30229	298.15	35840	822.58	0.52
0.30229	298.15	39910	825.1	0.53
0.30229	323.15	140	774.35	0.42
0.30229	323.15	5210	779.31	0.43
0.30229	323.15	10230	784	0.44
0.30229	323.15	15060	788.31	0.46
0.30229	323.15	20450	792.88	0.48
0.30229	323.15	25040	796.57	0.49
0.30229	323.15	30060	800.4	0.51
0.30229	323.15	35020	803.97	0.53
0.30229	323.15	39980	807.32	0.55
0.30229	348.15	170	751.06	0.42
0.30229	348.15	5060	756.68	0.44
0.30229	348.15	10070	762.15	0.45
0.30229	348.15	15120	767.36	0.47
0.30229	348.15	20090	772.2	0.49
0.30229	348.15	25860	777.45	0.51
0.30229	348.15	30060	781.03	0.53
0.30229	348.15	35840	785.62	0.56
0.30229	348.15	39940	788.64	0.58
0.30229	373.15	310	725.29	0.43
0.30229	373.15	5060	731.82	0.44
0.30229	373.15	10070	738.32	0.46
0.30229	373.15	15020	744.36	0.48
0.30229	373.15	20310	750.38	0.51
0.30229	373.15	25410	755.77	0.53
0.30229	373.15	30060	760.33	0.55
0.30229	373.15	35160	764.94	0.58
0.30229	373.15	39960	768.9	0.6
0.30229	398.15	680	696.61	0.43
0.30229	398.15	5070	704.02	0.45
0.30229	398.15	10060	711.93	0.47
0.30229	398.15	15090	719.36	0.5
0.30229	398.15	20140	726.27	0.52
0.30229	398.15	25230	732.68	0.55
0.30229	398.15	30070	738.24	0.58
0.30229	398.15	35240	743.62	0.61
0.30229	398.15	39970	748.04	0.64
0.58732	298.15	250	804.88	0.42
0.58732	298.15	5520	809.31	0.43
0.58732	298.15	10440	813.28	0.44
0.58732	298.15	15170	816.95	0.45
0.58732	298.15	19250	819.98	0.46
0.58732	298.15	25640	824.52	0.48
0.58732	298.15	30110	827.53	0.49
0.58732	298.15	35560	831.01	0.51
0.58732	298.15	39820	833.6	0.52
0.58732	323.15	240	783.81	0.42
0.58732	323.15	5030	788.42	0.43
0.58732	323.15	10050	793.02	0.44
0.58732	323.15	15620	797.87	0.46
0.58732	323.15	20470	801.87	0.47
0.58732	323.15	25140	805.52	0.49
0.58732	323.15	30060	809.15	0.51
0.58732	323.15	35220	812.74	0.53
0.58732	323.15	39970	815.82	0.54
0.58732	348.15	740	761.48	0.42
0.58732	348.15	5060	766.32	0.43
0.58732	348.15	10530	772.13	0.45
0.58732	348.15	15290	776.89	0.47
0.58732	348.15	20480	781.78	0.49
0.58732	348.15	25320	786.04	0.5
0.58732	348.15	30610	790.37	0.53
0.58732	348.15	35840	794.33	0.55
0.58732	348.15	39860	797.14	0.57
0.58732	373.15	960	736.55	0.43
0.58732	373.15	5420	742.51	0.44
0.58732	373.15	10090	748.41	0.46
0.58732	373.15	15850	755.19	0.48
0.58732	373.15	20090	759.84	0.5
0.58732	373.15	25840	765.68	0.52
0.58732	373.15	30150	769.7	0.54
0.58732	373.15	35980	774.65	0.57
0.58732	373.15	39970	777.73	0.59
0.58732	398.15	1020	708.33	0.43
0.58732	398.15	5740	716.08	0.45
0.58732	398.15	10060	722.74	0.47
0.58732	398.15	15960	731.15	0.49
0.58732	398.15	20350	736.9	0.52
0.58732	398.15	25420	742.99	0.54
0.58732	398.15	30050	748.05	0.57
0.58732	398.15	34950	752.88	0.59
0.58732	398.15	39920	757.22	0.62
1.22211	298.15	210	823.5	0.41
1.22211	298.15	5470	827.84	0.42
1.22211	298.15	9820	831.28	0.43
1.22211	298.15	14990	835.2	0.44
1.22211	298.15	19040	838.14	0.45
1.22211	298.15	25460	842.57	0.46
1.22211	298.15	30190	845.65	0.48
1.22211	298.15	35870	849.13	0.49
1.22211	298.15	40070	851.57	0.5
1.22211	323.15	410	802.86	0.42
1.22211	323.15	5070	807.19	0.43
1.22211	323.15	10200	811.76	0.44
1.22211	323.15	15290	816.02	0.45
1.22211	323.15	20150	819.88	0.46
1.22211	323.15	25060	823.57	0.48
1.22211	323.15	30420	827.32	0.49
1.22211	323.15	35410	830.59	0.51
1.22211	323.15	39960	833.36	0.52
1.22211	348.15	420	780.84	0.42
1.22211	348.15	5060	785.85	0.43
1.22211	348.15	10210	791.09	0.44
1.22211	348.15	15280	795.92	0.46
1.22211	348.15	20140	800.25	0.47
1.22211	348.15	25070	804.33	0.49
1.22211	348.15	30410	808.41	0.51
1.22211	348.15	35420	811.91	0.53
1.22211	348.15	39970	814.81	0.54
1.22211	373.15	840	757.56	0.42
1.22211	373.15	5060	762.98	0.43
1.22211	373.15	10060	769.02	0.45
1.22211	373.15	15740	775.35	0.47
1.22211	373.15	20340	780.06	0.49
1.22211	373.15	25080	784.55	0.5
1.22211	373.15	30410	789.12	0.53
1.22211	373.15	35840	793.28	0.55
1.22211	373.15	39820	796.01	0.57
1.22211	398.15	960	731.58	0.43
1.22211	398.15	4860	737.73	0.44
1.22211	398.15	9680	744.82	0.46
1.22211	398.15	15060	752.07	0.48
1.22211	398.15	20470	758.65	0.5
1.22211	398.15	25620	764.26	0.53
1.22211	398.15	30410	768.9	0.55
1.22211	398.15	35950	773.57	0.57
1.22211	398.15	39940	776.48	0.59
2.02242	298.15	410	845.2	0.41
2.02242	298.15	5230	849.07	0.42
2.02242	298.15	10050	852.76	0.43
2.02242	298.15	15030	856.4	0.43
2.02242	298.15	20120	859.94	0.44
2.02242	298.15	25610	863.54	0.45
2.02242	298.15	30080	866.32	0.46
2.02242	298.15	35410	869.43	0.47
2.02242	298.15	39940	871.92	0.48
2.02242	323.15	230	824.57	0.41
2.02242	323.15	5410	829.25	0.42
2.02242	323.15	10080	833.25	0.43
2.02242	323.15	15230	837.42	0.44
2.02242	323.15	20410	841.36	0.45
2.02242	323.15	25310	844.84	0.46
2.02242	323.15	30010	847.97	0.47
2.02242	323.15	35420	851.3	0.49
2.02242	323.15	39970	853.89	0.5
2.02242	348.15	150	803.25	0.42
2.02242	348.15	4960	808.25	0.42
2.02242	348.15	10030	813.19	0.44
2.02242	348.15	14960	817.67	0.45
2.02242	348.15	20030	821.94	0.46
2.02242	348.15	25420	826.11	0.48
2.02242	348.15	30160	829.46	0.49
2.02242	348.15	35610	832.94	0.51
2.02242	348.15	39960	835.44	0.52
2.02242	373.15	320	781.71	0.42
2.02242	373.15	5860	788.43	0.43
2.02242	373.15	10090	793.18	0.44
2.02242	373.15	15720	799	0.46
2.02242	373.15	20310	803.31	0.47
2.02242	373.15	25050	807.37	0.49
2.02242	373.15	30060	811.2	0.51
2.02242	373.15	35410	814.8	0.52
2.02242	373.15	39970	817.45	0.54
2.02242	398.15	740	758.72	0.42
2.02242	398.15	5030	765.06	0.43
2.02242	398.15	10420	772.34	0.45
2.02242	398.15	15060	778	0.47
2.02242	398.15	20740	784.18	0.49
2.02242	398.15	25610	788.8	0.51
2.02242	398.15	30090	792.51	0.52
2.02242	398.15	35810	796.49	0.55
2.02242	398.15	39940	798.83	0.56
2.87989	298.15	120	865.97	0.41
2.87989	298.15	5040	869.78	0.42
2.87989	298.15	10320	873.67	0.42
2.87989	298.15	15640	877.37	0.43
2.87989	298.15	20610	880.65	0.43
2.87989	298.15	25080	883.43	0.44
2.87989	298.15	30410	886.56	0.45
2.87989	298.15	35090	889.13	0.46
2.87989	298.15	39980	891.64	0.46
2.87989	323.15	180	845.88	0.41
2.87989	323.15	5410	850.34	0.42
2.87989	323.15	10080	854.11	0.43
2.87989	323.15	15240	858.04	0.43
2.87989	323.15	20060	861.48	0.44
2.87989	323.15	25300	864.98	0.45
2.87989	323.15	30070	867.94	0.46
2.87989	323.15	35210	870.9	0.47
2.87989	323.15	39860	873.36	0.48
2.87989	348.15	540	825.55	0.41
2.87989	348.15	5140	829.96	0.42
2.87989	348.15	10080	834.46	0.43
2.87989	348.15	15060	838.73	0.44
2.87989	348.15	20070	842.77	0.45
2.87989	348.15	25640	846.96	0.46
2.87989	348.15	30840	850.58	0.48
2.87989	348.15	35190	853.39	0.49
2.87989	348.15	39860	856.19	0.5
2.87989	373.15	980	805.91	0.42
2.87989	373.15	5140	810.39	0.43
2.87989	373.15	9980	815.52	0.44
2.87989	373.15	14620	819.69	0.45
2.87989	373.15	21420	825.53	0.46
2.87989	373.15	24940	828.37	0.47
2.87989	373.15	30150	832.41	0.49
2.87989	373.15	35740	836.3	0.51
2.87989	373.15	39980	839.22	0.52
2.87989	398.15	1010	785.44	0.42
2.87989	398.15	5070	790.37	0.43
2.87989	398.15	10140	796.07	0.44
2.87989	398.15	15280	801.31	0.46
2.87989	398.15	20010	805.83	0.47
2.87989	398.15	25320	810.7	0.49
2.87989	398.15	30070	814.57	0.5
2.87989	398.15	34980	818	0.52
2.87989	398.15	39980	821.9	0.54
