Measured thermophysical data. Solubilities of Adamantane and Diamantane in Pressurized Hot Water
Source: J. Chem. Eng. Data, 2008, 10.1021/je700709m
Compound 1: adamantane, C10H16, InChI=1S/C10H16/c1-7-2-9-4-8(1)5-10(3-7)6-9/h7-10H,1-6H2
Compound 2: pentacyclo[7.3.1.1(4,12).0(2,7).0(6,11)]tetradecane, C14H20, InChI=1S/C14H20/c1-7-2-12-10-4-8-5-11(9(1)10)13(3-7)14(12)6-8/h7-14H,1-6H2
Compound 3: water, H2O, InChI=1S/H2O/h1H2

System: adamantane + water; phases: Liquid, Crystal
Property: Mole fraction of adamantane (Liquid); method: CHROM:UFactor:4
Temperature, K	Pressure, kPa	Mole fraction of adamantane	uncertainty
313.2	5200	2.85e-08	4.6e-09
333.2	5100	5.72e-08	8.5e-09
353.2	5000	1.43e-07	1.7e-08
373.2	5000	4.07e-07	3.3e-08
393.2	5000	1.09e-06	1.07e-07
413.2	5100	3.18e-06	2.42e-07
433.2	5000	1.05e-05	9.89e-07
453.2	5000	2.5e-05	2.329e-06
473.2	5000	6.57e-05	6.031e-06
493.2	5000	0.00017	1.7047e-05

System: pentacyclo[7.3.1.1(4,12).0(2,7).0(6,11)]tetradecane + water; phases: Liquid, Crystal
Property: Mole fraction of pentacyclo[7.3.1.1(4,12).0(2,7).0(6,11)]tetradecane (Liquid); method: CHROM:UFactor:4
Temperature, K	Pressure, kPa	Mole fraction of pentacyclo[7.3.1.1(4,12).0(2,7).0(6,11)]tetradecane	uncertainty
313.2	5300	9.12e-10	2.01e-10
333.2	5000	2.51e-09	4.6e-10
353.2	5000	1.12e-08	1.5e-09
373.2	5000	4.92e-08	5.3e-09
393.2	5000	1.73e-07	2.5e-08
413.2	5000	5.41e-07	6e-08
433.2	5400	1.86e-06	2.71e-07
453.2	5200	5.59e-06	6.29e-07
473.2	5000	1.46e-05	2.515e-06
493.2	4800	3.77e-05	3.715e-06
