Measured thermophysical data. Phase Equilibria in Binary Mixtures of Water with Cyclic Alkylene Carbonates
Source: J. Chem. Eng. Data, 2008, 10.1021/je700689w
Compound 1: water, H2O, InChI=1S/H2O/h1H2
Compound 2: ethylene carbonate, C3H4O3, InChI=1S/C3H4O3/c4-3-5-1-2-6-3/h1-2H2, purity 99.9%
Compound 3: 4-methyl-1,3-dioxolan-2-one, C4H6O3, InChI=1S/C4H6O3/c1-3-2-6-4(5)7-3/h3H,2H2,1H3, purity 99.9%
Compound 4: 1,2-butylene carbonate, C5H8O3, InChI=1S/C5H8O3/c1-2-4-3-7-5(6)8-4/h4H,2-3H2,1H3, purity 99.7%

System: 4-methyl-1,3-dioxolan-2-one + water; phases: Liquid mixture 1, Liquid mixture 2
Fixed: Pressure, kPa = 101
Property: Mole fraction of water (Liquid mixture 1); method: Density calibration data
Temperature, K	Mole fraction of water	uncertainty
283.15	0.2426	0.001
288.15	0.2673	0.001
293.15	0.2908	0.0009

System: 4-methyl-1,3-dioxolan-2-one + water; phases: Liquid mixture 2, Liquid mixture 1
Fixed: Pressure, kPa = 101
Property: Mole fraction of water (Liquid mixture 2); method: Density calibration data
Temperature, K	Mole fraction of water	uncertainty
283.15	0.9575	0.0001
288.15	0.9561	0.0001
293.15	0.9539	0.0001

System: 4-methyl-1,3-dioxolan-2-one + water; phases: Liquid mixture 1, Liquid mixture 2
Fixed: Pressure, kPa = 101
Property: Mole fraction of water (Liquid mixture 1); method: Titration method
Temperature, K	Mole fraction of water	uncertainty
282.95	0.253	0.0051
287.95	0.268	0.0054

System: 4-methyl-1,3-dioxolan-2-one + water; phases: Liquid mixture 2, Liquid mixture 1
Fixed: Pressure, kPa = 101
Property: Mole fraction of water (Liquid mixture 2); method: Titration method
Temperature, K	Mole fraction of water	uncertainty
282.95	0.9603	0.0008
287.95	0.9591	0.0008

System: 1,2-butylene carbonate + water; phases: Liquid mixture 1, Liquid mixture 2
Property: Mole fraction of water (Liquid mixture 1); method: Titration method
Temperature, K	Pressure, kPa	Mole fraction of water	uncertainty
288.15	101	0.1433	0.0029

System: 1,2-butylene carbonate + water; phases: Liquid mixture 2, Liquid mixture 1
Property: Mole fraction of water (Liquid mixture 2); method: Titration method
Temperature, K	Pressure, kPa	Mole fraction of water	uncertainty
288.15	101	0.9885	0.0002

System: 1,2-butylene carbonate + water; phases: Liquid mixture 2, Liquid mixture 1
Fixed: Pressure, kPa = 101
Property: Mole fraction of water (Liquid mixture 2); method: Density calibration data
Temperature, K	Mole fraction of water	uncertainty
280.6	0.9896	0.002
283.1	0.9873	0.002
285.7	0.9887	0.002
288.2	0.9893	0.002
290.7	0.9892	0.002
293.2	0.9891	0.002

System: 1,2-butylene carbonate + water; phases: Liquid mixture 1, Liquid mixture 2
Fixed: Pressure, kPa = 101
Property: Mole fraction of water (Liquid mixture 1); method: Density calibration data
Temperature, K	Mole fraction of water	uncertainty
280.6	0.1328	0.0053
283.05	0.1328	0.0053
285.75	0.1418	0.0057
288.15	0.1448	0.0058
290.45	0.1502	0.006
293.05	0.1561	0.0063

System: ethylene carbonate + water; phases: Liquid, Gas
Property: Vapor or sublimation pressure, kPa (Liquid); method: Ebulliometric method (Recirculating still)
Mole fraction of water	Temperature, K	Vapor or sublimation pressure, kPa	uncertainty
0.4	314.23	6.58	0.27
0.4	319.95	8.73	0.36
0.4	325.63	11.43	0.24
0.4	333.13	16.16	0.34
0.4	340.17	21.6	0.45
0.4	347.39	28.82	0.6
0.4	353.95	37.42	0.77
0.4	360.15	46.75	0.96
0.4	365.87	57.24	1.17
0.4	372.15	70.03	1.43
0.4	378.02	84.38	1.73
0.4	383.13	98.73	2.02
0.6	312.99	6.61	0.27
0.6	318.53	8.85	0.36
0.6	323.9	11.5	0.24
0.6	331.35	16.36	0.34
0.6	337.81	21.89	0.46
0.6	344.39	29.05	0.6
0.6	350.47	37.28	0.77
0.6	356.26	46.74	0.96
0.6	361.65	57.44	1.18
0.6	367.27	70.14	1.44
0.6	372.69	85.13	1.75
0.6	377.48	99.97	2.04
0.8	312.91	6.74	0.28
0.8	319.29	9.41	0.38
0.8	324.66	12.3	0.26
0.8	332.14	17.63	0.37
0.8	338.09	23.11	0.48
0.8	344.45	30.43	0.63
0.8	351.27	40.39	0.83
0.8	356.72	50.23	1.03
0.8	361.61	60.72	1.25
0.8	366.88	73.88	1.52
0.8	372.12	89.27	1.83
0.8	375.15	99.37	2.04
