Measured thermophysical data. Partition Behavior of Hexachlorocyclohexane Isomers
Source: J. Chem. Eng. Data, 2008, 10.1021/je700595y
Compound 1: octan-1-ol, C8H18O, InChI=1S/C8H18O/c1-2-3-4-5-6-7-8-9/h9H,2-8H2,1H3
Compound 2: water, H2O, InChI=1S/H2O/h1H2
Compound 3: r-1,c-2,t-3,c-4,t-5,t-6-hexachlorocyclohexane, C6H6Cl6, InChI=1S/C6H6Cl6/c7-1-2(8)4(10)6(12)5(11)3(1)9/h1-6H/t1-,2-,3-,4-,5+,6+/m1/s1
Compound 4: .beta.-1,2,3,4,5,6-hexachlorocyclohexane, C6H6Cl6, InChI=1S/C6H6Cl6/c7-1-2(8)4(10)6(12)5(11)3(1)9/h1-6H/t1-,2-,3+,4+,5-,6-
Compound 5: .gamma.-1,2,3,4,5,6-hexachlorocyclohexane, C6H6Cl6, InChI=1S/C6H6Cl6/c7-1-2(8)4(10)6(12)5(11)3(1)9/h1-6H/t1-,2-,3-,4+,5+,6+

System: r-1,c-2,t-3,c-4,t-5,t-6-hexachlorocyclohexane + water; phases: Gas, Liquid
Property: Amount concentration (molarity), mol/dm3 (Gas); method: Chromatography
Temperature, K	Mole fraction of r-1,c-2,t-3,c-4,t-5,t-6-hexachlorocyclohexane	Amount concentration (molarity), mol/dm3	uncertainty
298.15	0	0.000263027	0.0001052

System: .beta.-1,2,3,4,5,6-hexachlorocyclohexane + water; phases: Gas, Liquid
Property: Amount concentration (molarity), mol/dm3 (Gas); method: chromotopgraphy
Temperature, K	Mole fraction of .beta.-1,2,3,4,5,6-hexachlorocyclohexane	Amount concentration (molarity), mol/dm3	uncertainty
298.15	0	1.51356e-05	6.054e-06

System: .gamma.-1,2,3,4,5,6-hexachlorocyclohexane + water; phases: Gas, Liquid
Property: Amount concentration (molarity), mol/dm3 (Gas); method: chromotopgraphy
Temperature, K	Mole fraction of .gamma.-1,2,3,4,5,6-hexachlorocyclohexane	Amount concentration (molarity), mol/dm3	uncertainty
298.15	0	0.000109648	4.386e-05

System: octan-1-ol + r-1,c-2,t-3,c-4,t-5,t-6-hexachlorocyclohexane; phases: Liquid, Gas
Property: Amount concentration (molarity), mol/dm3 (Liquid); method: chromotopgraphy
Temperature, K	Mole fraction of r-1,c-2,t-3,c-4,t-5,t-6-hexachlorocyclohexane	Amount concentration (molarity), mol/dm3	uncertainty
298.15	0	40738028	16300000

System: octan-1-ol + .beta.-1,2,3,4,5,6-hexachlorocyclohexane; phases: Liquid, Gas
Property: Amount concentration (molarity), mol/dm3 (Liquid); method: chromotopgraphy
Temperature, K	Mole fraction of .beta.-1,2,3,4,5,6-hexachlorocyclohexane	Amount concentration (molarity), mol/dm3	uncertainty
298.15	0	758577580	303400000

System: .gamma.-1,2,3,4,5,6-hexachlorocyclohexane + octan-1-ol; phases: Liquid, Gas
Property: Amount concentration (molarity), mol/dm3 (Liquid); method: chromotopgraphy
Temperature, K	Mole fraction of .gamma.-1,2,3,4,5,6-hexachlorocyclohexane	Amount concentration (molarity), mol/dm3	uncertainty
298.15	0	70794578	28320000
