Measured thermophysical data. Liquid Liquid Equilibria of Water + 2,3-Butanediol + Butyl Acetate at T ) 298.15 K, T ) 308.15 K, and T ) 318.15 K
Source: J. Chem. Eng. Data, 2008, 10.1021/je700705d
Compound 1: water, H2O, InChI=1S/H2O/h1H2
Compound 2: 2,3-butanediol, C4H10O2, InChI=1S/C4H10O2/c1-3(5)4(2)6/h3-6H,1-2H3, purity 99.2%
Compound 3: butyl ethanoate, C6H12O2, InChI=1S/C6H12O2/c1-3-4-5-8-6(2)7/h3-5H2,1-2H3, purity 99.5%

System: 2,3-butanediol; phases: Liquid, Gas
Property: Normal boiling temperature, K (Liquid); method: Ebulliometric method (Recirculating still)
Normal boiling temperature, K	uncertainty
454.21	0.2

System: 2,3-butanediol; phases: Liquid
Property: Refractive index (Na D-line) (Liquid); method: Standard Abbe refractometry
Temperature, K	Pressure, kPa	Refractive index (Na D-line)	uncertainty
293.15	101.325	1.4375	0.0007

System: butyl ethanoate; phases: Liquid, Gas
Property: Normal boiling temperature, K (Liquid); method: Ebulliometric method (Recirculating still)
Normal boiling temperature, K	uncertainty
399.11	0.2

System: butyl ethanoate; phases: Liquid
Property: Refractive index (Na D-line) (Liquid); method: Standard Abbe refractometry
Temperature, K	Pressure, kPa	Refractive index (Na D-line)	uncertainty
293.15	101.325	1.3941	0.0007

System: butyl ethanoate + 2,3-butanediol + water; phases: Liquid mixture 1, Liquid mixture 2
Fixed: Pressure, kPa = 101
Property: Mass fraction of butyl ethanoate (Liquid mixture 1); method: TITR:UFactor:3
Temperature, K	Mass fraction of water	Mass fraction of butyl ethanoate	uncertainty
298.15	0.0108	0.9892	0.0021
298.15	0.0182	0.9448	0.0054
298.15	0.0271	0.8977	0.0096
298.15	0.0401	0.8401	0.0149
298.15	0.0598	0.765	0.0219
298.15	0.09	0.66	0.0316
298.15	0.1272	0.529	0.0438
298.15	0.1334	0.5147	0.0451
298.15	0.149	0.4727	0.044
298.15	0.1605	0.4415	0.0411
298.15	0.1763	0.4	0.0372
298.15	0.1966	0.3497	0.0325
298.15	0.2102	0.3202	0.0298
298.15	0.2236	0.2922	0.0272
298.15	0.2392	0.2626	0.0244
298.15	0.2487	0.2459	0.0229
298.15	0.2764	0.2045	0.019
298.15	0.3037	0.1684	0.0157
298.15	0.3392	0.1311	0.0122
298.15	0.3575	0.1149	0.0107
298.15	0.436	0.0665	0.0062
298.15	0.5	0.0405	0.0038
298.15	0.5299	0.0295	0.0027
298.15	0.5834	0.0212	0.002
298.15	0.675	0.0133	0.0012
298.15	0.7321	0.0109	0.001
298.15	0.9876	0.0124	0.0012
308.15	0.0243	0.9757	0.0026
308.15	0.0333	0.9076	0.0087
308.15	0.0419	0.8726	0.0119
308.15	0.0501	0.8401	0.0149
308.15	0.0686	0.765	0.0219
308.15	0.105	0.66	0.0316
308.15	0.133	0.564	0.0405
308.15	0.1717	0.4604	0.0428
308.15	0.1817	0.4352	0.0405
308.15	0.1952	0.4009	0.0373
308.15	0.2041	0.3809	0.0354
308.15	0.2144	0.3577	0.0333
308.15	0.2234	0.3389	0.0315
308.15	0.2352	0.3138	0.0292
308.15	0.2514	0.2811	0.0261
308.15	0.2659	0.2549	0.0237
308.15	0.3037	0.1684	0.0157
308.15	0.3392	0.1311	0.0122
308.15	0.415	0.0915	0.0085
308.15	0.476	0.0595	0.0055
308.15	0.4942	0.0481	0.0045
308.15	0.5186	0.0423	0.0039
308.15	0.5521	0.0338	0.0031
308.15	0.6246	0.0197	0.0018
308.15	0.6696	0.018	0.0017
308.15	0.7034	0.0155	0.0014
308.15	0.7536	0.0133	0.0012
308.15	0.7934	0.0122	0.0011
308.15	0.8583	0.0101	0.0009
308.15	0.9919	0.0081	0.0008
318.15	0.0243	0.9757	0.0025
318.15	0.0386	0.898	0.0095
318.15	0.0588	0.823	0.0165
318.15	0.0786	0.765	0.0219
318.15	0.107	0.69	0.0288
318.15	0.119	0.665	0.0312
318.15	0.148	0.564	0.0405
318.15	0.1845	0.469	0.0436
318.15	0.239	0.348	0.0324
318.15	0.2859	0.2549	0.0237
318.15	0.3037	0.1954	0.0182
318.15	0.361	0.1515	0.0141
318.15	0.401	0.1165	0.0108
318.15	0.463	0.0706	0.0066
318.15	0.509	0.053	0.0049
318.15	0.563	0.0385	0.0036
318.15	0.6105	0.0325	0.003
318.15	0.626	0.0283	0.0026
318.15	0.726	0.016	0.0015
318.15	0.7755	0.0138	0.0013
318.15	0.823	0.0107	0.001
318.15	0.9128	0.009	0.0008
318.15	0.945	0.0082	0.0008
318.15	0.993	0.0069	0.0006

System: butyl ethanoate + 2,3-butanediol + water; phases: Liquid mixture 1, Liquid mixture 2
Fixed: Pressure, kPa = 101.3
Property: Mass fraction of 2,3-butanediol (Liquid mixture 1); method: Chromatography
Property: Mass fraction of water (Liquid mixture 2); method: Chromatography
Property: Mass fraction of 2,3-butanediol (Liquid mixture 2); method: Chromatography
Temperature, K	Mass fraction of water	Mass fraction of 2,3-butanediol	uncertainty	Mass fraction of water	uncertainty	Mass fraction of 2,3-butanediol	uncertainty
298.15	0.7574	0.2224	0.0062	0.0216	0.006	0.027	
298.15	0.6689	0.311	0.0064	0.0231	0.006	0.044	
298.15	0.4291	0.4996	0.007	0.0408	0.006	0.1121	
298.15	0.4839	0.4622	0.0068	0.0396	0.006	0.0931	
298.15	0.5799	0.3891	0.0066	0.0264	0.006	0.0604	
298.15	0.4001	0.5057	0.0069	0.0405	0.006	0.1186	
308.15	0.4144	0.5034	0.007	0.052	0.006	0.1137	
308.15	0.4794	0.4607	0.0068	0.0479	0.006	0.096	
308.15	0.5714	0.393	0.0066	0.0383	0.006	0.0634	
308.15	0.3901	0.4991	0.007	0.0559	0.006	0.1319	
308.15	0.6703	0.3112	0.0064	0.0299	0.006	0.0419	
308.15	0.7333	0.2432	0.0062	0.03	0.006	0.0314	
308.15	0.623	0.3452	0.0065	0.0373	0.006	0.0518	
318.15	0.6628	0.3137	0.0064	0.0309	0.006	0.0348	
318.15	0.7173	0.2588	0.0063	0.0268	0.006	0.0273	
318.15	0.6128	0.3506	0.0065	0.034	0.006	0.0417	
318.15	0.4069	0.4977	0.007	0.0672	0.006	0.1264	
318.15	0.4711	0.4574	0.0068	0.0568	0.006	0.1082	
318.15	0.556	0.3986	0.0066	0.0438	0.006	0.0675	
318.15	0.3809	0.4895	0.0069	0.0736	0.006	0.1509	
