Measured thermophysical data. Density and Viscosity Studies of Aqueous Solutions of Cesium Trifluoroacetate at Different Temperatures
Source: J. Chem. Eng. Data, 2008, 10.1021/je700703h
Compound 1: cesium trifluoroacetate, C2CsF3O2, InChI=1S/C2HF3O2.Cs/c3-2(4,5)1(6)7;/h(H,6,7);/q;+1/p-1
Compound 2: water, H2O, InChI=1S/H2O/h1H2

System: water + cesium trifluoroacetate; phases: Liquid
Fixed: Pressure, kPa = 101
Property: Viscosity, Pa*s (Liquid); method: Capillary tube (Ostwald; Ubbelohde) method
Temperature, K	Molality, mol/kg of cesium trifluoroacetate	Viscosity, Pa*s	uncertainty
298.15	0	0.000894	9e-06
298.15	0.0567	0.000897	9e-06
298.15	0.0813	0.000899	9e-06
298.15	0.1225	0.000904	9e-06
298.15	0.1687	0.000909	9e-06
298.15	0.2033	0.000913	9e-06
298.15	0.2445	0.000918	9e-06
298.15	0.2866	0.000923	9e-06
298.15	0.3263	0.000928	9e-06
298.15	0.3741	0.000933	9e-06
298.15	0.4066	0.000937	9e-06
298.15	0.4509	0.000943	9e-06
298.15	0.4879	0.000947	9e-06
298.15	0.5185	0.00095	9e-06
298.15	0.5671	0.000956	9e-06
303.15	0	0.0008	8e-06
303.15	0.0567	0.000805	8e-06
303.15	0.0813	0.000808	8e-06
303.15	0.1225	0.000812	8e-06
303.15	0.1687	0.000817	8e-06
303.15	0.2033	0.000821	8e-06
303.15	0.2445	0.000826	8e-06
303.15	0.2866	0.00083	8e-06
303.15	0.3263	0.000836	8e-06
303.15	0.3741	0.000841	8e-06
303.15	0.4066	0.000845	8e-06
303.15	0.4509	0.00085	9e-06
303.15	0.4879	0.000855	9e-06
303.15	0.5185	0.000858	9e-06
303.15	0.5671	0.000864	9e-06
308.15	0	0.000722	8e-06
308.15	0.0567	0.000727	8e-06
308.15	0.0813	0.000729	8e-06
308.15	0.1225	0.000734	8e-06
308.15	0.1687	0.000739	8e-06
308.15	0.2033	0.000743	8e-06
308.15	0.2445	0.000747	8e-06
308.15	0.2866	0.000752	8e-06
308.15	0.3263	0.000757	8e-06
308.15	0.3741	0.000762	8e-06
308.15	0.4066	0.000767	8e-06
308.15	0.4509	0.000772	8e-06
308.15	0.4879	0.000777	8e-06
308.15	0.5185	0.00078	8e-06
308.15	0.5671	0.000784	8e-06
313.15	0	0.000658	8e-06
313.15	0.0567	0.000663	8e-06
313.15	0.0813	0.000666	8e-06
313.15	0.1225	0.00067	8e-06
313.15	0.1687	0.000675	8e-06
313.15	0.2033	0.000679	8e-06
313.15	0.2445	0.000684	8e-06
313.15	0.2866	0.000689	8e-06
313.15	0.3263	0.000693	8e-06
313.15	0.3741	0.000698	8e-06
313.15	0.4066	0.000702	8e-06
313.15	0.4509	0.000707	8e-06
313.15	0.4879	0.000711	8e-06
313.15	0.5185	0.000716	8e-06
313.15	0.5671	0.000721	8e-06

System: water + cesium trifluoroacetate; phases: Liquid
Fixed: Pressure, kPa = 101
Property: Mass density, kg/m3 (Liquid); method: PYCNOM:UFactor:4
Temperature, K	Molality, mol/kg of cesium trifluoroacetate	Mass density, kg/m3	uncertainty
298.15	0	997	1
298.15	0.0567	1005.2	1
298.15	0.0813	1008.8	1
298.15	0.1225	1014.9	1
298.15	0.1687	1021.7	1
298.15	0.2033	1026.9	1
298.15	0.2445	1033	1
298.15	0.2866	1039.3	1
298.15	0.3263	1045.1	1
298.15	0.3741	1052.2	1.1
298.15	0.4066	1057	1.1
298.15	0.4509	1063.6	1.1
298.15	0.4879	1069	1.1
298.15	0.5185	1073.4	1.1
298.15	0.5671	1080.6	1.1
303.15	0	995.6	1
303.15	0.0567	1003.6	1
303.15	0.0813	1007.2	1
303.15	0.1225	1013.3	1.1
303.15	0.1687	1020.1	1.1
303.15	0.2033	1025.3	1.1
303.15	0.2445	1031.4	1.1
303.15	0.2866	1037.7	1.1
303.15	0.3263	1043.5	1.1
303.15	0.3741	1050.6	1.1
303.15	0.4066	1055.4	1.1
303.15	0.4509	1062	1.1
303.15	0.4879	1067.4	1.1
303.15	0.5185	1071.8	1.1
303.15	0.5671	1079	1.1
308.15	0	994	1.1
308.15	0.0567	1001.8	1.1
308.15	0.0813	1005.4	1.1
308.15	0.1225	1011.5	1.1
308.15	0.1687	1018.3	1.1
308.15	0.2033	1023.5	1.1
308.15	0.2445	1029.6	1.1
308.15	0.2866	1035.9	1.1
308.15	0.3263	1041.7	1.1
308.15	0.3741	1048.8	1.1
308.15	0.4066	1053.6	1.2
308.15	0.4509	1060.2	1.2
308.15	0.4879	1065.6	1.2
308.15	0.5185	1070	1.2
308.15	0.5671	1077.2	1.2
313.15	0	992.3	1.1
313.15	0.0567	1000	1.1
313.15	0.0813	1003.6	1.1
313.15	0.1225	1009.7	1.1
313.15	0.1687	1016.5	1.2
313.15	0.2033	1021.7	1.2
313.15	0.2445	1027.8	1.2
313.15	0.2866	1034.1	1.2
313.15	0.3263	1039.9	1.2
313.15	0.3741	1047	1.2
313.15	0.4066	1051.8	1.2
313.15	0.4509	1058.4	1.2
313.15	0.4879	1063.8	1.2
313.15	0.5185	1068.2	1.2
313.15	0.5671	1075.4	1.2
