Measured thermophysical data. Liquid - Liquid Equilibria for the Binary Systems of Sulfolane with Alkanes
Source: J. Chem. Eng. Data, 2007, 10.1021/je7001607
Compound 1: sulfolane, C4H8O2S, InChI=1S/C4H8O2S/c5-7(6)3-1-2-4-7/h1-4H2
Compound 2: pentane, C5H12, InChI=1S/C5H12/c1-3-5-4-2/h3-5H2,1-2H3
Compound 3: hexane, C6H14, InChI=1S/C6H14/c1-3-5-6-4-2/h3-6H2,1-2H3
Compound 4: heptane, C7H16, InChI=1S/C7H16/c1-3-5-7-6-4-2/h3-7H2,1-2H3
Compound 5: octane, C8H18, InChI=1S/C8H18/c1-3-5-7-8-6-4-2/h3-8H2,1-2H3

System: pentane + sulfolane; phases: Liquid mixture 1, Liquid mixture 2
Fixed: Pressure, kPa = 101
Property: Mole fraction of pentane (Liquid mixture 1); method: Chromatography
Temperature, K	Mole fraction of pentane	uncertainty
304.31	0.9989	0.0011
310.8	0.9984	0.0016
320.72	0.9972	0.002
330.41	0.995	0.002
340.5	0.9909	0.002
350.15	0.9838	0.002
354.82	0.9785	0.002
359.64	0.9708	0.002
364.75	0.9592	0.002
369.78	0.9422	0.0021
374.11	0.9204	0.0022
376.49	0.9043	0.0025
379.39	0.8788	0.0027
380.35	0.8687	0.0029

System: pentane + sulfolane; phases: Liquid mixture 2, Liquid mixture 1
Fixed: Pressure, kPa = 101
Property: Mole fraction of pentane (Liquid mixture 2); method: Chromatography
Temperature, K	Mole fraction of pentane	uncertainty
304.31	0.0584	0.0005
310.8	0.0661	0.0006
320.72	0.0796	0.0007
330.41	0.0952	0.0008
340.5	0.1148	0.001
350.15	0.1377	0.0012
354.82	0.1507	0.0013
359.64	0.1661	0.0015
364.75	0.1849	0.0016
369.78	0.2071	0.0019
374.11	0.2303	0.0021
376.49	0.2455	0.0024
379.39	0.2672	0.0026
380.35	0.2756	0.0028

System: hexane + sulfolane; phases: Liquid mixture 1, Liquid mixture 2
Fixed: Pressure, kPa = 101
Property: Mole fraction of hexane (Liquid mixture 1); method: Chromatography
Temperature, K	Mole fraction of hexane	uncertainty
300.3	0.9999	0.0001
307.43	0.9995	0.0005
323.51	0.9987	0.0013
348.72	0.9966	0.002
363.36	0.9918	0.002
372.41	0.9893	0.002
377.72	0.9849	0.002
384.43	0.9842	0.002
393.92	0.9788	0.002
403.51	0.9756	0.002
412.29	0.9706	0.002
422.92	0.9681	0.002
429.93	0.9608	0.002

System: hexane + sulfolane; phases: Liquid mixture 2, Liquid mixture 1
Fixed: Pressure, kPa = 101
Property: Mole fraction of hexane (Liquid mixture 2); method: Chromatography
Temperature, K	Mole fraction of hexane	uncertainty
300.3	0.0092	0.006
307.43	0.015	0.006
323.51	0.0203	0.006
348.72	0.0276	0.006
363.36	0.0332	0.006
372.41	0.0432	0.006
377.72	0.0469	0.006
384.43	0.052	0.006
393.92	0.0584	0.006
403.51	0.0698	0.006
412.29	0.0794	0.006
422.92	0.098	0.0061
429.93	0.1161	0.0061

System: sulfolane + heptane; phases: Liquid mixture 1, Liquid mixture 2
Fixed: Pressure, kPa = 101
Property: Mole fraction of heptane (Liquid mixture 1); method: Chromatography
Temperature, K	Mole fraction of heptane	uncertainty
302.09	0.9995	0.0005
308.03	0.9981	0.0019
323.93	0.9974	0.002
342.74	0.9955	0.002
364.62	0.9934	0.002
373.78	0.9893	0.002
382.81	0.9854	0.002
385.17	0.9854	0.002
389.11	0.9854	0.002
395.41	0.98	0.002
404.3	0.9781	0.002
413.87	0.9716	0.002
423.39	0.9661	0.002
429.24	0.9603	0.002

System: sulfolane + heptane; phases: Liquid mixture 2, Liquid mixture 1
Fixed: Pressure, kPa = 101
Property: Mole fraction of heptane (Liquid mixture 2); method: Chromatography
Temperature, K	Mole fraction of heptane	uncertainty
302.09	0.0059	0.0059
308.03	0.0109	0.006
323.93	0.0186	0.006
342.74	0.023	0.006
364.62	0.0312	0.006
373.78	0.0367	0.006
382.81	0.0424	0.006
385.17	0.0392	0.006
389.11	0.0423	0.006
404.3	0.0475	0.006
413.87	0.0546	0.006
423.39	0.0567	0.006
429.24	0.0637	0.006

System: octane + sulfolane; phases: Liquid mixture 1, Liquid mixture 2
Fixed: Pressure, kPa = 101
Property: Mole fraction of octane (Liquid mixture 1); method: Chromatography
Temperature, K	Mole fraction of octane	uncertainty
298.15	0.999	0.001
303.15	0.9986	0.0014
308.34	0.9968	0.002
313.15	0.9981	0.0019
318.25	0.9964	0.002
323.15	0.9958	0.002
328.15	0.9959	0.002
332.8	0.9957	0.002
339.15	0.9937	0.002
348.15	0.9925	0.002
352.65	0.9866	0.002
361.65	0.9838	0.002
373.15	0.9811	0.002

System: octane + sulfolane; phases: Liquid mixture 2, Liquid mixture 1
Fixed: Pressure, kPa = 101
Property: Mole fraction of octane (Liquid mixture 2); method: Chromatography
Temperature, K	Mole fraction of octane	uncertainty
298.15	0.0092	0.004
303.15	0.01	0.004
308.34	0.011	0.004
313.15	0.012	0.004
318.25	0.0134	0.004
323.15	0.014	0.004
328.15	0.0143	0.004
332.8	0.015	0.004
339.15	0.0178	0.004
348.15	0.0203	0.004
352.65	0.0233	0.004
361.65	0.0287	0.004
373.15	0.0322	0.004
