Measured thermophysical data. Experimental Measurements of Vapor Liquid Equilibria of the H2O + CO2 + CH4 Ternary System
Source: J. Chem. Eng. Data, 2008, 10.1021/je700473e
Compound 1: water, H2O, InChI=1S/H2O/h1H2
Compound 2: carbon dioxide, CO2, InChI=1S/CO2/c2-1-3
Compound 3: methane, CH4, InChI=1S/CH4/h1H4

System: carbon dioxide + water; phases: Liquid, Gas
Property: Mole fraction of carbon dioxide (Liquid); method: Titration method
Temperature, K	Pressure, kPa	Mole fraction of carbon dioxide	uncertainty
323.6	30100	0.0247	0.0015
324.1	49600	0.0302	0.0018
375	49900	0.0275	0.0017
375.2	10600	0.0153	0.0009
375.3	20300	0.0208	0.0013
375.5	40300	0.0256	0.0015
375.8	30400	0.0234	0.0014

System: methane + water; phases: Liquid, Gas
Property: Mole fraction of methane (Liquid); method: gas volumes
Temperature, K	Pressure, kPa	Mole fraction of methane	uncertainty
324.2	30100	0.003	0.0002
324.4	49500	0.0039	0.0002
375.6	30200	0.003	0.0002
375.7	10900	0.0014	0.0004
375.8	40200	0.0035	0.0002
375.8	49900	0.0041	0.0003
376.1	20600	0.0023	0.0001

System: methane + carbon dioxide + water; phases: Liquid, Gas
Property: Mole fraction of methane (Liquid); method: gas volumes
Temperature, K	Pressure, kPa	Mole fraction of carbon dioxide	Mole fraction of methane	uncertainty
324	30800	0.01446	0.00123	0.00012
324.2	49900	0.00982	0.00219	0.00014
324.3	30400	0.00822	0.00189	0.00013
324.6	50300	0.0181	0.00153	0.00014
324.8	30600	0.01891	0.00069	0.00014
324.8	49300	0.02241	0.00097	0.00017
374.8	10500	0.00669	0.00075	7e-05
375.2	40300	0.01321	0.00164	0.00015
375.3	30500	0.01245	0.00126	0.00012
375.4	20200	0.00872	0.00129	0.00011
375.4	30200	0.00968	0.0017	0.00014
375.5	40200	0.01806	0.00095	0.00016
375.5	49900	0.01935	0.0011	0.00019
375.6	20600	0.01508	0.00058	0.00011
375.6	20700	0.01073	0.00106	0.0001
375.6	30400	0.01664	0.00079	0.00012
375.6	40200	0.01033	0.00205	0.00015
375.7	50600	0.01096	0.00238	0.00017
375.8	11000	0.00866	0.00057	0.00015
375.9	10700	0.01115	0.00035	0.00013
376.2	49800	0.01423	0.00188	0.00017
