Measured thermophysical data. High-Pressure Vapor-Liquid Equilibrium Data for Systems Involving Carbon Dioxide + Organic Solvent + a-Carotene
Source: J. Chem. Eng. Data, 2007, 10.1021/je700125v
Compound 1: .beta.-carotene, C40H56, InChI=1S/C40H56/c1-31(19-13-21-33(3)25-27-37-35(5)23-15-29-39(37,7)8)17-11-12-18-32(2)20-14-22-34(4)26-28-38-36(6)24-16-30-40(38,9)10/h11-14,17-22,25-28H,15-16,23-24,29-30H2,1-10H3/b12-11+,19-13+,20-14+,27-25+,28-26+,31-17+,32-18+,33-21+,34-22+
Compound 2: carbon dioxide, CO2, InChI=1S/CO2/c2-1-3
Compound 3: ethyl acetate, C4H8O2, InChI=1S/C4H8O2/c1-3-6-4(2)5/h3H2,1-2H3
Compound 4: ethanol, C2H6O, InChI=1S/C2H6O/c1-2-3/h3H,2H2,1H3

System: carbon dioxide + ethyl acetate; phases: Gas, Liquid
Property: Vapor or sublimation pressure, kPa (Gas); method: CCELL:UFactor:8
Temperature, K	Mole fraction of carbon dioxide	Vapor or sublimation pressure, kPa	uncertainty
323	0.969	8890	220
343	0.936	10130	250

System: carbon dioxide + ethyl acetate; phases: Liquid, Gas
Property: Vapor or sublimation pressure, kPa (Liquid); method: CCELL:UFactor:8
Temperature, K	Mole fraction of carbon dioxide	Vapor or sublimation pressure, kPa	uncertainty
303	0.461	2510	60
303	0.666	3920	100
303	0.823	5020	120
303	0.936	6020	150
303	0.969	6220	150
313	0.461	3130	80
313	0.666	4740	120
313	0.823	6040	150
313	0.936	7240	180
313	0.969	7580	190
323	0.461	3670	90
323	0.666	5630	140
323	0.823	7130	180
323	0.936	8560	210
333	0.461	4180	100
333	0.666	6340	160
333	0.823	8240	200
333	0.936	9220	230
343	0.461	4660	120
343	0.666	7160	180
343	0.823	9270	230

System: ethanol + carbon dioxide + .beta.-carotene; phases: Gas, Liquid
Property: Vapor or sublimation pressure, kPa (Gas); method: CCELL:UFactor:8
Temperature, K	Mole fraction of carbon dioxide	Solvent: Ratio of component mass to volume of solvent, kg/m3 of .beta.-carotene	Vapor or sublimation pressure, kPa	uncertainty
323	0.952	0.303	8660	280
333	0.956	0.096	9730	310
343	0.904	0.096	11230	360

System: ethanol + carbon dioxide + .beta.-carotene; phases: Liquid, Gas
Property: Vapor or sublimation pressure, kPa (Liquid); method: CCELL:UFactor:8
Temperature, K	Mole fraction of carbon dioxide	Solvent: Ratio of component mass to volume of solvent, kg/m3 of .beta.-carotene	Vapor or sublimation pressure, kPa	uncertainty
303	0.208	0.096	3120	90
303	0.421	0.096	5420	140
303	0.61	0.096	5900	150
303	0.628	0.303	5800	200
303	0.795	0.096	6320	160
303	0.806	0.303	6220	160
303	0.904	0.096	6320	160
303	0.904	0.303	6250	160
303	0.952	0.303	6260	160
303	0.956	0.096	6670	170
313	0.208	0.096	3610	100
313	0.421	0.096	6340	160
313	0.61	0.096	7120	180
313	0.628	0.303	7110	180
313	0.795	0.096	7410	190
313	0.806	0.303	7540	190
313	0.904	0.096	7540	190
313	0.904	0.303	7680	190
313	0.952	0.303	7770	190
313	0.956	0.096	8080	200
323	0.208	0.096	4100	110
323	0.421	0.096	7230	180
323	0.61	0.096	8450	210
323	0.628	0.303	8460	210
323	0.795	0.096	8920	220
323	0.806	0.303	8920	220
323	0.904	0.096	8920	220
323	0.904	0.303	8910	220
323	0.952	0.303	8660	220
323	0.956	0.096	9040	230
333	0.208	0.096	4660	120
333	0.421	0.096	8010	200
333	0.61	0.096	9670	240
333	0.628	0.303	9740	240
333	0.795	0.096	10210	260
333	0.806	0.303	10440	260
333	0.904	0.096	10100	250
333	0.904	0.303	10030	250
333	0.956	0.096	9730	240
343	0.208	0.096	5140	130
343	0.421	0.096	8920	220
343	0.61	0.096	10820	270
343	0.628	0.303	10900	300
343	0.795	0.096	11430	290
343	0.806	0.303	11730	290
343	0.904	0.096	11230	280
343	0.904	0.303	11140	280

System: carbon dioxide + ethyl acetate + .beta.-carotene; phases: Liquid, Gas
Fixed: Solvent: Ratio of component mass to volume of solvent, kg/m3 of .beta.-carotene = 0.338
Property: Vapor or sublimation pressure, kPa (Liquid); method: CCELL:UFactor:8
Temperature, K	Mole fraction of carbon dioxide	Vapor or sublimation pressure, kPa	uncertainty
303	0.462	2520	80
303	0.668	3770	110
303	0.824	5020	130
303	0.951	6220	160
313	0.462	3010	90
313	0.668	4720	120
313	0.824	6120	150
313	0.951	7640	190
323	0.462	3540	100
323	0.668	5510	140
323	0.824	7130	180
323	0.951	8680	220
333	0.462	4060	110
333	0.668	6340	160
333	0.824	8220	210
333	0.951	9420	240
343	0.462	4520	120
343	0.668	7160	180
343	0.824	9240	230
343	0.951	10880	270

System: carbon dioxide + ethyl acetate + .beta.-carotene; phases: Gas, Liquid
Fixed: Mole fraction of carbon dioxide = 0.951
Fixed: Solvent: Ratio of component mass to volume of solvent, kg/m3 of .beta.-carotene = 0.338
Property: Vapor or sublimation pressure, kPa (Gas); method: CCELL:UFactor:8
Temperature, K	Vapor or sublimation pressure, kPa	uncertainty
333	9420	300
343	10880	350
