Measured thermophysical data. Liquid-Liquid Equilibrium for 2,2,2-Trifluoroethanol + Ethanol + Cyclohexane from (288.15 to 308.15) K
Source: J. Chem. Eng. Data, 2008, 10.1021/je700741x
Compound 1: 2,2,2-trifluoroethanol, C2H3F3O, InChI=1S/C2H3F3O/c3-2(4,5)1-6/h6H,1H2, purity 99.2%
Compound 2: ethanol, C2H6O, InChI=1S/C2H6O/c1-2-3/h3H,2H2,1H3, purity 99.8%
Compound 3: cyclohexane, C6H12, InChI=1S/C6H12/c1-2-4-6-5-3-1/h1-6H2, purity 99.8%
Compound 4: propan-2-ol, C3H8O, InChI=1S/C3H8O/c1-3(2)4/h3-4H,1-2H3, purity 99.5%

System: 2,2,2-trifluoroethanol; phases: Liquid
Property: Mass density, kg/m3 (Liquid); method: VIBTUB:UFactor:6
Temperature, K	Pressure, kPa	Mass density, kg/m3	uncertainty
298.15	101.325	1382.4	1.6

System: ethanol; phases: Liquid
Property: Mass density, kg/m3 (Liquid); method: VIBTUB:UFactor:2
Temperature, K	Pressure, kPa	Mass density, kg/m3	uncertainty
298.15	101.325	785.2	1

System: cyclohexane; phases: Liquid
Property: Mass density, kg/m3 (Liquid); method: VIBTUB:UFactor:2
Temperature, K	Pressure, kPa	Mass density, kg/m3	uncertainty
298.15	101.325	774	1

System: propan-2-ol; phases: Liquid
Property: Mass density, kg/m3 (Liquid); method: VIBTUB:UFactor:4
Temperature, K	Pressure, kPa	Mass density, kg/m3	uncertainty
298.15	101.325	781.4	1.1

System: ethanol + 2,2,2-trifluoroethanol + cyclohexane; phases: Liquid mixture 1, Liquid mixture 2
Fixed: Pressure, kPa = 100
Property: Mole fraction of ethanol (Liquid mixture 1); method: Chromatography
Property: Mole fraction of 2,2,2-trifluoroethanol (Liquid mixture 2); method: Chromatography
Property: Mole fraction of ethanol (Liquid mixture 2); method: Chromatography
Temperature, K	Mole fraction of 2,2,2-trifluoroethanol	Mole fraction of ethanol	uncertainty	Mole fraction of 2,2,2-trifluoroethanol	uncertainty	Mole fraction of ethanol	uncertainty
288.15	0.471	0.405	0.008	0.111	0.006	0.295	
288.15	0.536	0.361	0.008	0.104	0.006	0.245	
288.15	0.573	0.336	0.008	0.095	0.006	0.208	
288.15	0.635	0.289	0.008	0.093	0.006	0.17	
288.15	0.679	0.255	0.008	0.086	0.006	0.129	
288.15	0.715	0.227	0.008	0.081	0.006	0.095	
288.15	0.777	0.176	0.008	0.077	0.006	0.07	
298.15	0.448	0.396	0.007	0.142	0.007	0.306	
298.15	0.51	0.356	0.008	0.118	0.006	0.248	
298.15	0.581	0.312	0.007	0.108	0.006	0.195	
298.15	0.614	0.292	0.008	0.101	0.006	0.168	
298.15	0.661	0.258	0.008	0.09	0.006	0.131	
298.15	0.697	0.232	0.007	0.083	0.006	0.097	
298.15	0.749	0.198	0.007	0.072	0.006	0.066	
308.15	0.436	0.355	0.007	0.163	0.007	0.236	
308.15	0.495	0.33	0.007	0.141	0.006	0.192	
308.15	0.549	0.298	0.007	0.131	0.006	0.136	
308.15	0.608	0.267	0.007	0.113	0.007	0.092	
308.15	0.656	0.23	0.008	0.097	0.007	0.057	
308.15	0.685	0.211	0.007	0.086	0.007	0.033	

System: ethanol + 2,2,2-trifluoroethanol + cyclohexane; phases: Liquid, Liquid mixture 1
Fixed: Pressure, kPa = 100
Property: Mole fraction of ethanol (Liquid); method: Titration method
Temperature, K	Mole fraction of 2,2,2-trifluoroethanol	Mole fraction of ethanol	uncertainty
288.15	0.116	0.329	0.019
288.15	0.142	0.394	0.017
288.15	0.168	0.424	0.015
288.15	0.2	0.452	0.015
288.15	0.249	0.472	0.015
288.15	0.284	0.475	0.015
288.15	0.309	0.473	0.015
288.15	0.337	0.472	0.015
288.15	0.392	0.444	0.014
288.15	0.459	0.413	0.014
288.15	0.532	0.37	0.013
288.15	0.587	0.333	0.012
288.15	0.644	0.283	0.011
288.15	0.746	0.205	0.01
288.15	0.785	0.165	0.009
288.15	0.819	0.148	0.008
298.15	0.037	0.173	0.015
298.15	0.06	0.223	0.017
298.15	0.081	0.279	0.017
298.15	0.111	0.342	0.012
298.15	0.146	0.382	0.013
298.15	0.184	0.42	0.015
298.15	0.216	0.437	0.014
298.15	0.265	0.441	0.014
298.15	0.305	0.436	0.014
298.15	0.342	0.43	0.014
298.15	0.386	0.407	0.013
298.15	0.453	0.367	0.012
298.15	0.508	0.338	0.012
298.15	0.593	0.281	0.01
298.15	0.662	0.261	0.01
298.15	0.72	0.213	0.01
308.15	0.172	0.255	0.012
308.15	0.201	0.294	0.012
308.15	0.22	0.31	0.012
308.15	0.248	0.334	0.012
308.15	0.274	0.355	0.012
308.15	0.296	0.368	0.012
308.15	0.326	0.372	0.012
308.15	0.368	0.376	0.012
308.15	0.402	0.369	0.012
308.15	0.448	0.356	0.012
308.15	0.563	0.294	0.011
308.15	0.607	0.271	0.01
308.15	0.655	0.238	0.01
308.15	0.712	0.194	0.009
308.15	0.764	0.158	0.009
308.15	0.832	0.102	0.008
