Measured thermophysical data. Density and Viscosity of Acrylonitrile + Cinnamaldehyde, + Anisaldehyde, and + Benzaldehyde at (298.15, 308.15, and 318.15) K
Source: J. Chem. Eng. Data, 2008, 10.1021/je7006742
Compound 1: acrylonitrile, C3H3N, InChI=1S/C3H3N/c1-2-3-4/h2H,1H2
Compound 2: (E)-3-phenyl-2-propanal, C9H8O, InChI=1S/C9H8O/c10-8-4-7-9-5-2-1-3-6-9/h1-8H
Compound 3: 4-methoxybenzaldehyde, C8H8O2, InChI=1S/C8H8O2/c1-10-8-4-2-7(6-9)3-5-8/h2-6H,1H3
Compound 4: benzaldehyde, C7H6O, InChI=1S/C7H6O/c8-6-7-4-2-1-3-5-7/h1-6H

System: acrylonitrile; phases: Liquid
Fixed: Pressure, kPa = 101
Property: Viscosity, Pa*s (Liquid); method: CAPTUB:UFactor:16
Temperature, K	Viscosity, Pa*s	uncertainty
298.15	0.000344	4.2e-05
308.15	0.000307	3.9e-05
318.15	0.000284	3.7e-05

System: acrylonitrile; phases: Liquid
Fixed: Pressure, kPa = 101
Property: Mass density, kg/m3 (Liquid); method: PYCNOM:UFactor:8
Temperature, K	Mass density, kg/m3	uncertainty
298.15	794	2
308.15	788	2
318.15	783	2

System: (E)-3-phenyl-2-propanal; phases: Liquid
Fixed: Pressure, kPa = 101
Property: Viscosity, Pa*s (Liquid); method: CAPTUB::UFactor:16
Temperature, K	Viscosity, Pa*s	uncertainty
298.15	0.003478	0.000309
308.15	0.002688	0.000242
318.15	0.002296	0.000209

System: (E)-3-phenyl-2-propanal; phases: Liquid
Fixed: Pressure, kPa = 101
Property: Mass density, kg/m3 (Liquid); method: PYCNOM::UFactor:8
Temperature, K	Mass density, kg/m3	uncertainty
298.15	1046	2
308.15	1039	3
318.15	1032	3

System: 4-methoxybenzaldehyde; phases: Liquid
Fixed: Pressure, kPa = 101
Property: Viscosity, Pa*s (Liquid); method: CAPTUB::UFactor:16
Temperature, K	Viscosity, Pa*s	uncertainty
298.15	0.003706	0.000328
308.15	0.00283	0.000254
318.15	0.002232	0.000204

System: 4-methoxybenzaldehyde; phases: Liquid
Fixed: Pressure, kPa = 101
Property: Mass density, kg/m3 (Liquid); method: PYCNOM::UFactor:8
Temperature, K	Mass density, kg/m3	uncertainty
298.15	1120	3
308.15	1112	3
318.15	1105	3

System: benzaldehyde; phases: Liquid
Fixed: Pressure, kPa = 101
Property: Viscosity, Pa*s (Liquid); method: CAPTUB::UFactor:16
Temperature, K	Viscosity, Pa*s	uncertainty
298.15	0.001399	0.000133
308.15	0.001224	0.000118
318.15	0.00112	0.000109

System: benzaldehyde; phases: Liquid
Fixed: Pressure, kPa = 101
Property: Mass density, kg/m3 (Liquid); method: PYCNOM::UFactor:8
Temperature, K	Mass density, kg/m3	uncertainty
298.15	1041	2
308.15	1034	2
318.15	1027	3

System: (E)-3-phenyl-2-propanal + acrylonitrile; phases: Liquid
Fixed: Pressure, kPa = 101
Fixed: Temperature, K = 298.15
Property: Speed of sound, m/s (Liquid); method: FPINT:UFactor:16
Mole fraction of acrylonitrile	Speed of sound, m/s	uncertainty
0.217	1487.6	11.8
0.384	1433.3	11.4
0.516	1403	11.2
0.624	1372	11
0.714	1330.3	10.8
0.789	1288.7	10.5
0.853	1251.2	10.3
0.909	1224.1	10.1
0.957	1186.8	9.9

System: (E)-3-phenyl-2-propanal + acrylonitrile; phases: Liquid
Fixed: Pressure, kPa = 101
Property: Viscosity, Pa*s (Liquid); method: CAPTUB:UFactor:16
Temperature, K	Mole fraction of acrylonitrile	Viscosity, Pa*s	uncertainty
298.15	0	0.003478	0.000309
298.15	0.2168	0.002014	0.000185
298.15	0.3837	0.0014	0.000133
298.15	0.5163	0.00102	0.000101
298.15	0.6241	0.000795	8.1e-05
298.15	0.7135	0.000646	6.8e-05
298.15	0.7889	0.00056	6.1e-05
298.15	0.8532	0.000474	5.3e-05
298.15	0.9088	0.000423	4.9e-05
298.15	0.9573	0.000388	4.6e-05
298.15	1	0.000344	4.2e-05
308.15	0	0.002688	0.000242
308.15	0.2168	0.001698	0.000159
308.15	0.3837	0.001215	0.000117
308.15	0.5163	0.000906	9.1e-05
308.15	0.6241	0.000724	7.5e-05
308.15	0.7135	0.000603	6.5e-05
308.15	0.7889	0.000519	5.7e-05
308.15	0.8532	0.000441	5.1e-05
308.15	0.9088	0.000405	4.7e-05
308.15	0.9573	0.000359	4.4e-05
308.15	1	0.000307	3.9e-05
318.15	0	0.002296	0.000209
318.15	0.217	0.001456	0.000138
318.15	0.384	0.001078	0.000105
318.15	0.516	0.00083	8.4e-05
318.15	0.624	0.000684	7.2e-05
318.15	0.714	0.000581	6.3e-05
318.15	0.789	0.000457	5.2e-05
318.15	0.853	0.00043	5e-05
318.15	0.909	0.000394	4.7e-05
318.15	0.957	0.000348	4.3e-05
318.15	1	0.000284	3.7e-05

System: (E)-3-phenyl-2-propanal + acrylonitrile; phases: Liquid
Fixed: Pressure, kPa = 101
Property: Mass density, kg/m3 (Liquid); method: PYCNOM:UFactor:8
Temperature, K	Mole fraction of acrylonitrile	Mass density, kg/m3	uncertainty
298.15	0	1046	2
298.15	0.2168	1017	2
298.15	0.3837	990	2
298.15	0.5163	964	2
298.15	0.6241	937	2
298.15	0.7135	911	2
298.15	0.7889	886	2
298.15	0.8532	862	2
298.15	0.9088	839	2
298.15	0.9573	817	2
298.15	1	794	2
308.15	0	1039	3
308.15	0.2168	1011	2
308.15	0.3837	985	2
308.15	0.5163	958	2
308.15	0.6241	931	2
308.15	0.7135	905	2
308.15	0.7889	881	2
308.15	0.8532	856	2
308.15	0.9088	833	2
308.15	0.9573	810	2
308.15	1	788	2
318.15	0	1032	3
318.15	0.217	1009	3
318.15	0.384	983	3
318.15	0.516	957	2
318.15	0.624	930	2
318.15	0.714	904	2
318.15	0.789	878	2
318.15	0.853	854	2
318.15	0.909	830	2
318.15	0.957	805	2
318.15	1	783	2

System: acrylonitrile + 4-methoxybenzaldehyde; phases: Liquid
Fixed: Pressure, kPa = 101
Fixed: Temperature, K = 298.15
Property: Speed of sound, m/s (Liquid); method: FPINT:UFactor:16
Mole fraction of acrylonitrile	Speed of sound, m/s	uncertainty
0.222	1446.6	11.5
0.391	1384.8	11.1
0.524	1345.8	10.9
0.631	1310	10.7
0.72	1277.6	10.5
0.794	1244.6	10.3
0.857	1217.8	10.1
0.911	1201.6	10
0.959	1186.8	9.9

System: acrylonitrile + 4-methoxybenzaldehyde; phases: Liquid
Fixed: Pressure, kPa = 101
Property: Viscosity, Pa*s (Liquid); method: CAPTUB:UFactor:16
Temperature, K	Mole fraction of acrylonitrile	Viscosity, Pa*s	uncertainty
298.15	0	0.003706	0.000328
298.15	0.222	0.002035	0.000187
298.15	0.391	0.001341	0.000128
298.15	0.524	0.000865	8.7e-05
298.15	0.631	0.000742	7.7e-05
298.15	0.72	0.00055	6e-05
298.15	0.794	0.000545	6e-05
298.15	0.857	0.000415	4.8e-05
298.15	0.911	0.000435	5e-05
298.15	0.958	0.000379	4.5e-05
298.15	1	0.000344	4.2e-05
308.15	0	0.00283	0.000254
308.15	0.222	0.001828	0.00017
308.15	0.391	0.001226	0.000118
308.15	0.524	0.000852	8.6e-05
308.15	0.631	0.000678	7.1e-05
308.15	0.72	0.000538	5.9e-05
308.15	0.794	0.000469	5.3e-05
308.15	0.857	0.000404	4.7e-05
308.15	0.911	0.000369	4.4e-05
308.15	0.958	0.000333	4.1e-05
308.15	1	0.000307	3.9e-05
318.15	0	0.002232	0.000204
318.15	0.222	0.00153	0.000144
318.15	0.391	0.001095	0.000107
318.15	0.524	0.000798	8.1e-05
318.15	0.631	0.000644	6.8e-05
318.15	0.72	0.000515	5.7e-05
318.15	0.794	0.000443	5.1e-05
318.15	0.857	0.00039	4.6e-05
318.15	0.911	0.00037	4.4e-05
318.15	0.958	0.000322	4e-05
318.15	1	0.000284	3.7e-05

System: acrylonitrile + 4-methoxybenzaldehyde; phases: Liquid
Fixed: Pressure, kPa = 101
Property: Mass density, kg/m3 (Liquid); method: PYCNOM:UFactor:8
Temperature, K	Mole fraction of acrylonitrile	Mass density, kg/m3	uncertainty
298.15	0	1120	3
298.15	0.222	1079	2
298.15	0.391	1040	2
298.15	0.524	1003	2
298.15	0.631	968	2
298.15	0.72	934	2
298.15	0.794	903	2
298.15	0.857	873	2
298.15	0.911	845	2
298.15	0.958	819	2
298.15	1	794	2
308.15	0	1112	3
308.15	0.222	1072	3
308.15	0.391	1034	2
308.15	0.524	997	2
308.15	0.631	962	2
308.15	0.72	930	2
308.15	0.794	898	2
308.15	0.857	868	2
308.15	0.911	840	2
308.15	0.958	813	2
308.15	1	788	2
318.15	0	1105	3
318.15	0.222	1066	3
318.15	0.391	1029	3
318.15	0.524	992	3
318.15	0.631	957	2
318.15	0.72	924	2
318.15	0.794	893	2
318.15	0.857	864	2
318.15	0.911	835	2
318.15	0.958	808	2
318.15	1	783	2

System: benzaldehyde + acrylonitrile; phases: Liquid
Fixed: Pressure, kPa = 101
Fixed: Temperature, K = 298.15
Property: Speed of sound, m/s (Liquid); method: FPINT:UFactor:16
Mole fraction of acrylonitrile	Speed of sound, m/s	uncertainty
0.182	1412.7	11.3
0.333	1394.7	11.2
0.462	1353.1	10.9
0.571	1322.4	10.7
0.667	1292.8	10.6
0.75	1259.4	10.3
0.824	1237.6	10.2
0.889	1212	10.1
0.947	1186.8	9.9

System: benzaldehyde + acrylonitrile; phases: Liquid
Fixed: Pressure, kPa = 101
Property: Viscosity, Pa*s (Liquid); method: CAPTUB:UFactor:16
Temperature, K	Mole fraction of acrylonitrile	Viscosity, Pa*s	uncertainty
298.15	0	0.001399	0.000133
298.15	0.182	0.001224	0.000118
298.15	0.333	0.001079	0.000106
298.15	0.462	0.000958	9.5e-05
298.15	0.571	0.000842	8.5e-05
298.15	0.667	0.00074	7.6e-05
298.15	0.75	0.000649	6.9e-05
298.15	0.824	0.000565	6.1e-05
298.15	0.889	0.000484	5.4e-05
298.15	0.947	0.00041	4.8e-05
298.15	1	0.000344	4.2e-05
308.15	0	0.001224	0.000118
308.15	0.182	0.001071	0.000105
308.15	0.333	0.000941	9.4e-05
308.15	0.462	0.000827	8.4e-05
308.15	0.571	0.000724	7.5e-05
308.15	0.667	0.00063	6.7e-05
308.15	0.75	0.00055	6e-05
308.15	0.824	0.000478	5.4e-05
308.15	0.889	0.000416	4.8e-05
308.15	0.947	0.000358	4.3e-05
308.15	1	0.000307	3.9e-05
318.15	0	0.00112	0.000109
318.15	0.182	0.000973	9.6e-05
318.15	0.333	0.000851	8.6e-05
318.15	0.462	0.000746	7.7e-05
318.15	0.571	0.000653	6.9e-05
318.15	0.667	0.000571	6.2e-05
318.15	0.75	0.0005	5.6e-05
318.15	0.824	0.000436	5e-05
318.15	0.889	0.000379	4.5e-05
318.15	0.947	0.000328	4.1e-05
318.15	1	0.000284	3.7e-05

System: benzaldehyde + acrylonitrile; phases: Liquid
Fixed: Pressure, kPa = 101
Property: Mass density, kg/m3 (Liquid); method: PYCNOM:UFactor:8
Temperature, K	Mole fraction of acrylonitrile	Mass density, kg/m3	uncertainty
298.15	0	1041	2
298.15	0.182	1022	2
298.15	0.333	995	2
298.15	0.462	969	2
298.15	0.571	940	2
298.15	0.667	914	2
298.15	0.75	887	2
298.15	0.824	863	2
298.15	0.889	839	2
298.15	0.947	816	2
298.15	1	794	2
308.15	0	1034	2
308.15	0.182	1011	2
308.15	0.333	985	2
308.15	0.462	959	2
308.15	0.571	932	2
308.15	0.667	906	2
308.15	0.75	880	2
308.15	0.824	856	2
308.15	0.889	833	2
308.15	0.947	810	2
308.15	1	788	2
318.15	0	1027	3
318.15	0.182	1005	3
318.15	0.333	980	3
318.15	0.462	954	2
318.15	0.571	928	2
318.15	0.667	902	2
318.15	0.75	877	2
318.15	0.824	854	2
318.15	0.889	830	2
318.15	0.947	806	2
318.15	1	783	2
