Measured thermophysical data. Liquid Liquid Equilibria for the Ternary System Water + Methyl Isobutyl Ketone + tert-Butyl Alcohol at Several Temperatures
Source: J. Chem. Eng. Data, 2008, 10.1021/je700554u
Compound 1: water, H2O, InChI=1S/H2O/h1H2
Compound 2: 4-methylpentan-2-one, C6H12O, InChI=1S/C6H12O/c1-5(2)4-6(3)7/h5H,4H2,1-3H3
Compound 3: 2-methylpropan-2-ol, C4H10O, InChI=1S/C4H10O/c1-4(2,3)5/h5H,1-3H3

System: 4-methylpentan-2-one + water; phases: Liquid mixture 1, Liquid mixture 2
Fixed: Pressure, kPa = 101
Property: Mass fraction of 4-methylpentan-2-one (Liquid mixture 1); method: CHROM:UFactor:8
Temperature, K	Mass fraction of 4-methylpentan-2-one	uncertainty
292.25	0.0184	0.0012
312.65	0.0142	0.0009
323.25	0.0138	0.0009
343.35	0.0123	0.0008

System: 4-methylpentan-2-one + water; phases: Liquid mixture 2, Liquid mixture 1
Fixed: Pressure, kPa = 101
Property: Mass fraction of water (Liquid mixture 2); method: CHROM:UFactor:4
Temperature, K	Mass fraction of water	uncertainty
292.25	0.0237	0.0009
312.65	0.0246	0.0009
323.25	0.0267	0.001
343.35	0.0312	0.0012

System: 2-methylpropan-2-ol + 4-methylpentan-2-one + water; phases: Liquid mixture 1, Liquid mixture 2
Fixed: Pressure, kPa = 101
Property: Mass fraction of 4-methylpentan-2-one (Liquid mixture 1); method: CHROM:UFactor:6
Property: Mass fraction of water (Liquid mixture 2); method: CHROM:UFactor:6
Property: Mass fraction of 4-methylpentan-2-one (Liquid mixture 2); method: CHROM:UFactor:6
Temperature, K	Mass fraction of water	Mass fraction of 4-methylpentan-2-one	uncertainty	Mass fraction of water	uncertainty	Mass fraction of 4-methylpentan-2-one	uncertainty
287.65	0.9391	0.019	0.0045	0.0309	0.0055	0.9158	
287.65	0.8944	0.0276	0.0031	0.047	0.0069	0.8369	
287.65	0.8725	0.0261	0.004	0.0651	0.0091	0.7653	
287.65	0.8662	0.0216	0.0146	0.0913	0.0112	0.6935	
287.65	0.8295	0.0264	0.0036	0.145	0.0164	0.5521	
287.65	0.8125	0.0295	0.0023	0.1803	0.0189	0.4565	
287.65	0.7768	0.0285	0.0021	0.231	0.0227	0.3414	
304.05	0.9484	0.0156	0.008	0.0172	0.0024	0.9176	
304.05	0.9307	0.0104	0.0008	0.0282	0.0045	0.8187	
304.05	0.9006	0.0146	0.0049	0.0519	0.0066	0.7131	
304.05	0.8871	0.0131	0.0021	0.0789	0.008	0.6082	
304.05	0.8663	0.0136	0.0008	0.1001	0.0113	0.4985	
304.05	0.856	0.0115	0.0019	0.1244	0.0135	0.4456	
304.05	0.8208	0.0132	0.0014	0.2054	0.0202	0.2791	
304.05	0.778	0.0167	0.0022	0.2835	0.0268	0.1712	
318.35	0.9851	0.0149	0.0009	0.011	0.0014	0.989	
318.35	0.9644	0.0149	0.0019	0.0153	0.0021	0.933	
318.35	0.9243	0.0191	0.0012	0.0219	0.0026	0.8301	
318.35	0.9106	0.0179	0.0041	0.0294	0.0049	0.7601	
318.35	0.8929	0.0243	0.0042	0.0635	0.0074	0.642	
318.35	0.8804	0.0172	0.0043	0.0768	0.008	0.6074	
318.35	0.8858	0.014	0.0098	0.0995	0.0096	0.4791	
318.35	0.8681	0.0167	0.0018	0.1201	0.0118	0.4217	
318.35	0.8401	0.0143	0.0018	0.1747	0.0166	0.2851	
333.35	0.9751	0.0111	0.0022	0.0108	0.0031	0.9369	
333.35	0.9536	0.013	0.0008	0.0263	0.0037	0.8205	
333.35	0.9357	0.0112	0.0034	0.0408	0.0045	0.7233	
333.35	0.9254	0.0089	0.0013	0.0533	0.0062	0.6237	
333.35	0.9028	0.0112	0.0023	0.084	0.0089	0.5178	
333.35	0.8886	0.0124	0.0016	0.1256	0.0124	0.4154	
333.35	0.8566	0.0145	0.0013	0.1884	0.0178	0.2729	
333.35	0.834	0.0149	0.0008	0.2154	0.0202	0.2077	
