Measured thermophysical data. Thermodynamic Properties of Ternary Aqueous Solutions with the Common Magnesium Cation {Mg/Cl/NO3/SO4}(aq) at T ) 298.15 K
Source: J. Chem. Eng. Data, 2007, 10.1021/je7002176
Compound 1: magnesium chloride, Cl2Mg, InChI=1S/2ClH.Mg/h2*1H;/q;;+2/p-2
Compound 2: magnesium sulfate, MgO4S, InChI=1S/Mg.H2O4S/c;1-5(2,3)4/h;(H2,1,2,3,4)/q+2;/p-2
Compound 3: magnesium nitrate, MgN2O6, InChI=1S/Mg.2NO3/c;2*2-1(3)4/q+2;2*-1
Compound 4: water, H2O, InChI=1S/H2O/h1H2

System: magnesium sulfate + water + magnesium chloride; phases: Liquid
Fixed: Pressure, kPa = 101
Fixed: Temperature, K = 298.15
Property: (Relative) activity of water (Liquid); method: hygrometric method
Molality, mol/kg of magnesium chloride	Molality, mol/kg of magnesium sulfate	(Relative) activity of water	uncertainty
0.15	0.45	0.983	0.001
0.2	0.15	0.987	0.001
0.2	0.6	0.977	0.001
0.25	0.75	0.97	0.001
0.3	0.9	0.963	0.001
0.4	0.3	0.971	0.001
0.4	1.2	0.946	0.002
0.5	1.5	0.925	0.002
0.6	0.45	0.955	0.001
0.6	1.8	0.898	0.004
0.7	2.1	0.87	0.004
0.74	2.22	0.857	0.003
0.8	0.15	0.951	0.001
0.8	0.6	0.934	0.002
1	0.75	0.91	0.002
1.07	0.2	0.929	0.002
1.2	0.9	0.882	0.004
1.3	0.24	0.906	0.002
1.4	1.05	0.85	0.003
1.6	0.3	0.873	0.004
1.6	1.2	0.816	0.003
1.8	1.35	0.777	0.003
1.85	0.35	0.842	0.003
2	1.5	0.738	0.003
2.13	0.4	0.805	0.003
2.4	0.45	0.766	0.003
2.78	0.52	0.708	0.003
3.2	0.6	0.64	0.003

System: magnesium sulfate + water + magnesium nitrate; phases: Liquid
Fixed: Pressure, kPa = 101
Fixed: Temperature, K = 298.15
Property: (Relative) activity of water (Liquid); method: hygrometric method
Molality, mol/kg of magnesium sulfate	Molality, mol/kg of magnesium nitrate	(Relative) activity of water	uncertainty
0.1	0.3	0.989	0.001
0.15	0.45	0.983	0.001
0.2	0.15	0.987	0.001
0.2	0.6	0.977	0.001
0.25	0.75	0.971	0.001
0.3	0.9	0.964	0.001
0.4	0.3	0.973	0.001
0.4	1.2	0.948	0.002
0.5	1.5	0.928	0.002
0.6	0.45	0.957	0.001
0.6	1.8	0.905	0.002
0.65	1.95	0.891	0.004
0.7	2.1	0.877	0.004
0.8	0.15	0.953	0.001
0.8	0.6	0.938	0.002
1	0.75	0.915	0.002
1.05	0.2	0.934	0.002
1.2	0.9	0.89	0.004
1.3	0.25	0.912	0.002
1.4	1.05	0.862	0.003
1.6	0.3	0.884	0.004
1.6	1.2	0.832	0.003
1.85	0.35	0.857	0.003
2.16	0.41	0.822	0.003
2.4	0.45	0.793	0.003
2.64	0.5	0.763	0.003
2.9	0.54	0.729	0.003
3.2	0.6	0.688	0.003
