Measured thermophysical data. Surface Tension of Aqueous Binary Mixtures of 2-(Methylamino)ethanol and 2-(Ethylamino)ethanol and Aqueous Ternary Mixtures of These Amines with Triethanolamine or N-Methyldiethanolamine from (293.15 to 323.15) K
Source: J. Chem. Eng. Data, 2008, 10.1021/je700536m
Compound 1: 2-(methylamino)ethanol, C3H9NO, InChI=1S/C3H9NO/c1-4-2-3-5/h4-5H,2-3H2,1H3
Compound 2: 2-(ethylamino)ethanol, C4H11NO, InChI=1S/C4H11NO/c1-2-5-3-4-6/h5-6H,2-4H2,1H3
Compound 3: N-methyldiethanolamine, C5H13NO2, InChI=1S/C5H13NO2/c1-6(2-4-7)3-5-8/h7-8H,2-5H2,1H3
Compound 4: triethanolamine, C6H15NO3, InChI=1S/C6H15NO3/c8-4-1-7(2-5-9)3-6-10/h8-10H,1-6H2
Compound 5: water, H2O, InChI=1S/H2O/h1H2

System: water; phases: Liquid, Air at 1 atmosphere
Property: Surface tension liquid-gas, N/m (Liquid); method: RINGTE:UFactor:0.5
Temperature, K	Surface tension liquid-gas, N/m	uncertainty
293.15	0.07275	0.00046
298.15	0.07201	0.00046
303.15	0.07121	0.00045
308.15	0.07042	0.00045
313.15	0.06952	0.00045
318.15	0.06884	0.00044
323.15	0.06792	0.00044

System: 2-(methylamino)ethanol + water; phases: Liquid, Air at 1 atmosphere
Property: Surface tension liquid-gas, N/m (Liquid); method: RINGTE:UFactor:0.5
Temperature, K	Mole fraction of 2-(methylamino)ethanol	Surface tension liquid-gas, N/m	uncertainty
293.15	0	0.07275	0.00046
293.15	0.0125	0.06799	0.00059
293.15	0.026	0.06431	0.00048
293.15	0.0587	0.05879	0.00042
293.15	0.0931	0.05512	0.00039
293.15	0.1379	0.05196	0.00036
293.15	0.1932	0.04916	0.00035
293.15	0.2643	0.04629	0.00034
293.15	0.3586	0.04385	0.00034
293.15	0.473	0.04166	0.00035
293.15	0.6769	0.03898	0.00038
293.15	0.8169	0.03746	0.0004
293.15	0.9206	0.03639	0.00042
293.15	1	0.03568	0.00043
298.15	0	0.07201	0.00046
298.15	0.0125	0.06718	0.00059
298.15	0.026	0.06336	0.00047
298.15	0.0587	0.05787	0.00042
298.15	0.0931	0.05416	0.00038
298.15	0.1379	0.05114	0.00036
298.15	0.1932	0.04842	0.00034
298.15	0.2643	0.04557	0.00034
298.15	0.3586	0.04323	0.00034
298.15	0.473	0.04113	0.00035
298.15	0.6769	0.03846	0.00037
298.15	0.8169	0.03701	0.0004
298.15	0.9206	0.03596	0.00042
298.15	1	0.03528	0.00043
303.15	0	0.07121	0.00045
303.15	0.0125	0.06621	0.00059
303.15	0.026	0.06248	0.00047
303.15	0.0587	0.05696	0.00041
303.15	0.0931	0.05321	0.00037
303.15	0.1379	0.05021	0.00035
303.15	0.1932	0.0476	0.00034
303.15	0.2643	0.04486	0.00033
303.15	0.3586	0.04261	0.00033
303.15	0.473	0.04059	0.00034
303.15	0.6769	0.03794	0.00037
303.15	0.8169	0.03656	0.00039
303.15	0.9206	0.03556	0.00041
303.15	1	0.0349	0.00042
308.15	0	0.07042	0.00045
308.15	0.0125	0.06544	0.00059
308.15	0.026	0.0616	0.00046
308.15	0.0587	0.05604	0.00041
308.15	0.0931	0.05228	0.00037
308.15	0.1379	0.04929	0.00035
308.15	0.1932	0.04676	0.00033
308.15	0.2643	0.04415	0.00033
308.15	0.3586	0.04199	0.00033
308.15	0.473	0.04004	0.00034
308.15	0.6769	0.03743	0.00037
308.15	0.8169	0.03612	0.00039
308.15	0.9206	0.03514	0.00041
308.15	1	0.03454	0.00042
313.15	0	0.06952	0.00045
313.15	0.0125	0.06458	0.00058
313.15	0.026	0.0607	0.00046
313.15	0.0587	0.05513	0.0004
313.15	0.0931	0.05135	0.00036
313.15	0.1379	0.04838	0.00034
313.15	0.1932	0.04594	0.00033
313.15	0.2643	0.04346	0.00032
313.15	0.3586	0.04136	0.00032
313.15	0.473	0.03951	0.00033
313.15	0.6769	0.03691	0.00036
313.15	0.8169	0.03567	0.00038
313.15	0.9206	0.03472	0.0004
313.15	1	0.03415	0.00042
318.15	0	0.06884	0.00044
318.15	0.0125	0.06371	0.00059
318.15	0.026	0.05979	0.00046
318.15	0.0587	0.05411	0.0004
318.15	0.0931	0.05042	0.00035
318.15	0.1379	0.04755	0.00033
318.15	0.1932	0.04511	0.00032
318.15	0.2643	0.04276	0.00032
318.15	0.3586	0.04073	0.00032
318.15	0.473	0.03897	0.00033
318.15	0.6769	0.03641	0.00036
318.15	0.8169	0.03524	0.00038
318.15	0.9206	0.03431	0.0004
318.15	1	0.03375	0.00041
323.15	0	0.06792	0.00044
323.15	0.0125	0.0628	0.00058
323.15	0.026	0.05891	0.00045
323.15	0.0587	0.05319	0.00039
323.15	0.0931	0.04947	0.00035
323.15	0.1379	0.04665	0.00033
323.15	0.1932	0.04429	0.00032
323.15	0.2643	0.04206	0.00031
323.15	0.3586	0.04012	0.00031
323.15	0.473	0.03843	0.00033
323.15	0.6769	0.03592	0.00035
323.15	0.8169	0.03479	0.00038
323.15	0.9206	0.03391	0.00039
323.15	1	0.03337	0.00041

System: 2-(ethylamino)ethanol + water; phases: Liquid, Air at 1 atmosphere
Property: Surface tension liquid-gas, N/m (Liquid); method: RINGTE:UFactor:0.5
Temperature, K	Mole fraction of 2-(ethylamino)ethanol	Surface tension liquid-gas, N/m	uncertainty
293.15	0	0.07275	0.00046
293.15	0.0104	0.06069	0.00107
293.15	0.022	0.05461	0.00052
293.15	0.0482	0.04875	0.00038
293.15	0.0795	0.04573	0.00033
293.15	0.1189	0.04372	0.00031
293.15	0.1679	0.04216	0.0003
293.15	0.2292	0.04088	0.0003
293.15	0.3064	0.03968	0.0003
293.15	0.4252	0.03828	0.00031
293.15	0.6476	0.03606	0.00035
293.15	0.7929	0.03464	0.00037
293.15	0.8852	0.03379	0.00038
293.15	1	0.03275	0.0004
298.15	0	0.07201	0.00046
298.15	0.0104	0.05957	0.00107
298.15	0.022	0.05358	0.00049
298.15	0.0482	0.04789	0.00037
298.15	0.0795	0.04495	0.00032
298.15	0.1189	0.04297	0.0003
298.15	0.1679	0.04151	0.0003
298.15	0.2292	0.04034	0.0003
298.15	0.3064	0.03919	0.0003
298.15	0.4252	0.03775	0.00031
298.15	0.6476	0.03558	0.00034
298.15	0.7929	0.03413	0.00036
298.15	0.8852	0.03323	0.00038
298.15	1	0.03221	0.00039
303.15	0	0.07121	0.00045
303.15	0.0104	0.05847	0.00107
303.15	0.022	0.05254	0.00048
303.15	0.0482	0.04691	0.00036
303.15	0.0795	0.04415	0.00031
303.15	0.1189	0.04225	0.0003
303.15	0.1679	0.04088	0.00029
303.15	0.2292	0.03978	0.00029
303.15	0.3064	0.03868	0.0003
303.15	0.4252	0.03728	0.00031
303.15	0.6476	0.03509	0.00034
303.15	0.7929	0.03362	0.00036
303.15	0.8852	0.03271	0.00037
303.15	1	0.03167	0.00039
308.15	0	0.07042	0.00045
308.15	0.0104	0.05737	0.00108
308.15	0.022	0.05151	0.00047
308.15	0.0482	0.04607	0.00035
308.15	0.0795	0.04342	0.00031
308.15	0.1189	0.04147	0.00029
308.15	0.1679	0.0403	0.00029
308.15	0.2292	0.03926	0.00029
308.15	0.3064	0.03822	0.00029
308.15	0.4252	0.03678	0.0003
308.15	0.6476	0.03452	0.00033
308.15	0.7929	0.03305	0.00035
308.15	0.8852	0.03218	0.00037
308.15	1	0.0311	0.00038
313.15	0	0.06952	0.00045
313.15	0.0104	0.05629	0.00109
313.15	0.022	0.05045	0.00046
313.15	0.0482	0.04516	0.00035
313.15	0.0795	0.04264	0.0003
313.15	0.1189	0.04071	0.00029
313.15	0.1679	0.03962	0.00028
313.15	0.2292	0.0387	0.00028
313.15	0.3064	0.03762	0.00029
313.15	0.4252	0.03626	0.0003
313.15	0.6476	0.03401	0.00033
313.15	0.7929	0.03253	0.00035
313.15	0.8852	0.03164	0.00036
313.15	1	0.03054	0.00037
318.15	0	0.06884	0.00044
318.15	0.0104	0.05519	0.00111
318.15	0.022	0.04934	0.00045
318.15	0.0482	0.0443	0.00034
318.15	0.0795	0.04184	0.0003
318.15	0.1189	0.04003	0.00028
318.15	0.1679	0.03905	0.00028
318.15	0.2292	0.0382	0.00028
318.15	0.3064	0.03716	0.00029
318.15	0.4252	0.03575	0.0003
318.15	0.6476	0.03346	0.00032
318.15	0.7929	0.03202	0.00034
318.15	0.8852	0.0311	0.00035
318.15	1	0.02998	0.00037
323.15	0	0.06792	0.00044
323.15	0.0104	0.05405	0.00112
323.15	0.022	0.04834	0.00045
323.15	0.0482	0.04334	0.00033
323.15	0.0795	0.04101	0.00029
323.15	0.1189	0.03932	0.00028
323.15	0.1679	0.03844	0.00028
323.15	0.2292	0.0376	0.00028
323.15	0.3064	0.03665	0.00028
323.15	0.4252	0.03528	0.00029
323.15	0.6476	0.03293	0.00032
323.15	0.7929	0.03141	0.00034
323.15	0.8852	0.03051	0.00035
323.15	1	0.02941	0.00036

System: triethanolamine + 2-(methylamino)ethanol + water; phases: Liquid, Air at 1 atmosphere
Property: Surface tension liquid-gas, N/m (Liquid); method: RINGTE:UFactor:0.5
Temperature, K	Mass fraction of 2-(methylamino)ethanol	Mass fraction of triethanolamine	Surface tension liquid-gas, N/m	uncertainty
293.15	0	0.5	0.05372	0.00038
293.15	0.1	0.4	0.05307	0.00039
293.15	0.2	0.3	0.0524	0.0004
293.15	0.3	0.2	0.05149	0.0004
293.15	0.4	0.1	0.05039	0.00041
293.15	0.5	0	0.04916	0.00041
298.15	0	0.5	0.05288	0.00038
298.15	0.1	0.4	0.05218	0.00038
298.15	0.2	0.3	0.05154	0.00039
298.15	0.3	0.2	0.05051	0.0004
298.15	0.4	0.1	0.04951	0.0004
298.15	0.5	0	0.04842	0.00041
303.15	0	0.5	0.05208	0.00037
303.15	0.1	0.4	0.05136	0.00038
303.15	0.2	0.3	0.05065	0.00038
303.15	0.3	0.2	0.04973	0.00039
303.15	0.4	0.1	0.04868	0.0004
303.15	0.5	0	0.0476	0.0004
308.15	0	0.5	0.05129	0.00037
308.15	0.1	0.4	0.05055	0.00037
308.15	0.2	0.3	0.04979	0.00038
308.15	0.3	0.2	0.04895	0.00038
308.15	0.4	0.1	0.04784	0.00039
308.15	0.5	0	0.04676	0.0004
313.15	0	0.5	0.05037	0.00036
313.15	0.1	0.4	0.04964	0.00036
313.15	0.2	0.3	0.04894	0.00037
313.15	0.3	0.2	0.048	0.00038
313.15	0.4	0.1	0.04696	0.00038
313.15	0.5	0	0.04594	0.00039
318.15	0	0.5	0.04968	0.00035
318.15	0.1	0.4	0.04882	0.00036
318.15	0.2	0.3	0.04804	0.00037
318.15	0.3	0.2	0.04725	0.00037
318.15	0.4	0.1	0.04614	0.00038
318.15	0.5	0	0.04511	0.00038
323.15	0	0.5	0.04876	0.00035
323.15	0.1	0.4	0.04802	0.00035
323.15	0.2	0.3	0.04727	0.00036
323.15	0.3	0.2	0.04632	0.00037
323.15	0.4	0.1	0.04536	0.00037
323.15	0.5	0	0.04429	0.00038

System: N-methyldiethanolamine + 2-(methylamino)ethanol + water; phases: Liquid, Air at 1 atmosphere
Property: Surface tension liquid-gas, N/m (Liquid); method: RINGTE:UFactor:0.5
Temperature, K	Mass fraction of 2-(methylamino)ethanol	Mass fraction of N-methyldiethanolamine	Surface tension liquid-gas, N/m	uncertainty
293.15	0	0.5	0.05061	0.00043
293.15	0.1	0.4	0.05035	0.00042
293.15	0.2	0.3	0.0501	0.00042
293.15	0.3	0.2	0.04981	0.00042
293.15	0.4	0.1	0.04952	0.00042
293.15	0.5	0	0.04916	0.00041
298.15	0	0.5	0.04979	0.00042
298.15	0.1	0.4	0.0495	0.00042
298.15	0.2	0.3	0.04928	0.00042
298.15	0.3	0.2	0.04897	0.00041
298.15	0.4	0.1	0.04868	0.00041
298.15	0.5	0	0.04842	0.00041
303.15	0	0.5	0.04906	0.00041
303.15	0.1	0.4	0.04869	0.00041
303.15	0.2	0.3	0.04845	0.00041
303.15	0.3	0.2	0.04814	0.00041
303.15	0.4	0.1	0.04791	0.0004
303.15	0.5	0	0.0476	0.0004
308.15	0	0.5	0.04824	0.00041
308.15	0.1	0.4	0.04789	0.0004
308.15	0.2	0.3	0.04761	0.0004
308.15	0.3	0.2	0.0473	0.0004
308.15	0.4	0.1	0.04706	0.0004
308.15	0.5	0	0.04676	0.0004
313.15	0	0.5	0.0475	0.0004
313.15	0.1	0.4	0.04704	0.0004
313.15	0.2	0.3	0.04678	0.0004
313.15	0.3	0.2	0.04646	0.00039
313.15	0.4	0.1	0.04624	0.00039
313.15	0.5	0	0.04594	0.00039
318.15	0	0.5	0.0467	0.0004
318.15	0.1	0.4	0.04623	0.00039
318.15	0.2	0.3	0.04593	0.00039
318.15	0.3	0.2	0.04564	0.00039
318.15	0.4	0.1	0.0454	0.00039
318.15	0.5	0	0.04511	0.00038
323.15	0	0.5	0.0458	0.00039
323.15	0.1	0.4	0.04542	0.00039
323.15	0.2	0.3	0.0451	0.00038
323.15	0.3	0.2	0.04484	0.00038
323.15	0.4	0.1	0.04455	0.00038
323.15	0.5	0	0.04429	0.00038

System: triethanolamine + 2-(ethylamino)ethanol + water; phases: Liquid, Air at 1 atmosphere
Property: Surface tension liquid-gas, N/m (Liquid); method: RINGTE:UFactor:0.5
Temperature, K	Mass fraction of 2-(ethylamino)ethanol	Mass fraction of triethanolamine	Surface tension liquid-gas, N/m	uncertainty
293.15	0	0.5	0.05372	0.00038
293.15	0.1	0.4	0.0516	0.00038
293.15	0.2	0.3	0.04927	0.00037
293.15	0.3	0.2	0.04667	0.00037
293.15	0.4	0.1	0.0445	0.00036
293.15	0.5	0	0.04216	0.00036
298.15	0	0.5	0.05288	0.00038
298.15	0.1	0.4	0.05079	0.00037
298.15	0.2	0.3	0.04842	0.00037
298.15	0.3	0.2	0.04589	0.00036
298.15	0.4	0.1	0.04386	0.00036
298.15	0.5	0	0.04151	0.00035
303.15	0	0.5	0.05208	0.00037
303.15	0.1	0.4	0.04996	0.00037
303.15	0.2	0.3	0.04764	0.00036
303.15	0.3	0.2	0.04511	0.00036
303.15	0.4	0.1	0.0431	0.00035
303.15	0.5	0	0.04083	0.00035
308.15	0	0.5	0.05129	0.00037
308.15	0.1	0.4	0.0492	0.00036
308.15	0.2	0.3	0.0469	0.00036
308.15	0.3	0.2	0.04442	0.00035
308.15	0.4	0.1	0.0424	0.00035
308.15	0.5	0	0.0403	0.00035
313.15	0	0.5	0.05037	0.00036
313.15	0.1	0.4	0.04833	0.00036
313.15	0.2	0.3	0.04615	0.00035
313.15	0.3	0.2	0.04367	0.00035
313.15	0.4	0.1	0.04179	0.00034
313.15	0.5	0	0.03972	0.00034
318.15	0	0.5	0.04968	0.00035
318.15	0.1	0.4	0.04762	0.00035
318.15	0.2	0.3	0.04531	0.00035
318.15	0.3	0.2	0.04291	0.00034
318.15	0.4	0.1	0.04108	0.00034
318.15	0.5	0	0.03909	0.00034
323.15	0	0.5	0.04876	0.00035
323.15	0.1	0.4	0.04674	0.00035
323.15	0.2	0.3	0.04458	0.00034
323.15	0.3	0.2	0.04218	0.00034
323.15	0.4	0.1	0.0404	0.00033
323.15	0.5	0	0.03848	0.00033

System: N-methyldiethanolamine + 2-(ethylamino)ethanol + water; phases: Liquid, Air at 1 atmosphere
Property: Surface tension liquid-gas, N/m (Liquid); method: RINGTE:UFactor:0.5
Temperature, K	Mass fraction of 2-(ethylamino)ethanol	Mass fraction of N-methyldiethanolamine	Surface tension liquid-gas, N/m	uncertainty
293.15	0	0.5	0.05061	0.00043
293.15	0.1	0.4	0.0495	0.00042
293.15	0.2	0.3	0.04794	0.0004
293.15	0.3	0.2	0.04575	0.00039
293.15	0.4	0.1	0.04386	0.00037
293.15	0.5	0	0.04216	0.00036
298.15	0	0.5	0.04979	0.00042
298.15	0.1	0.4	0.04881	0.00041
298.15	0.2	0.3	0.04718	0.0004
298.15	0.3	0.2	0.04504	0.00038
298.15	0.4	0.1	0.04323	0.00037
298.15	0.5	0	0.04151	0.00035
303.15	0	0.5	0.04906	0.00041
303.15	0.1	0.4	0.04806	0.00041
303.15	0.2	0.3	0.0463	0.00039
303.15	0.3	0.2	0.04431	0.00038
303.15	0.4	0.1	0.04252	0.00036
303.15	0.5	0	0.04083	0.00035
308.15	0	0.5	0.04824	0.00041
308.15	0.1	0.4	0.04722	0.0004
308.15	0.2	0.3	0.0456	0.00039
308.15	0.3	0.2	0.04365	0.00037
308.15	0.4	0.1	0.04193	0.00036
308.15	0.5	0	0.0403	0.00035
313.15	0	0.5	0.0475	0.0004
313.15	0.1	0.4	0.04646	0.00039
313.15	0.2	0.3	0.04486	0.00038
313.15	0.3	0.2	0.04294	0.00037
313.15	0.4	0.1	0.04127	0.00035
313.15	0.5	0	0.03972	0.00034
318.15	0	0.5	0.0467	0.0004
318.15	0.1	0.4	0.04567	0.00039
318.15	0.2	0.3	0.04411	0.00038
318.15	0.3	0.2	0.04224	0.00036
318.15	0.4	0.1	0.04054	0.00035
318.15	0.5	0	0.03909	0.00034
323.15	0	0.5	0.0458	0.00039
323.15	0.1	0.4	0.04489	0.00038
323.15	0.2	0.3	0.04336	0.00037
323.15	0.3	0.2	0.04161	0.00036
323.15	0.4	0.1	0.03989	0.00034
323.15	0.5	0	0.03848	0.00033
