Measured thermophysical data. Relative Permittivity and Dipole Moments of Replacement Refrigerant Mixtures (R408A and R409A) in the Liquid State
Source: J. Chem. Eng. Data, 2008, 10.1021/je700433f
Compound 1: pentafluoroethane, C2HF5, InChI=1S/C2HF5/c3-1(4)2(5,6)7/h1H
Compound 2: 1,1,1-trifluoroethane, C2H3F3, InChI=1S/C2H3F3/c1-2(3,4)5/h1H3
Compound 3: chlorodifluoromethane, CHClF2, InChI=1S/CHClF2/c2-1(3)4/h1H
Compound 4: 2-chloro-1,1,1,2-tetrafluoroethane, C2HClF4, InChI=1S/C2HClF4/c3-1(4)2(5,6)7/h1H
Compound 5: 1-chloro-1,1-difluoroethane, C2H3ClF2, InChI=1S/C2H3ClF2/c1-2(3,4)5/h1H3

System: chlorodifluoromethane + pentafluoroethane + 1,1,1-trifluoroethane; phases: Liquid
Fixed: Mass fraction of pentafluoroethane = 0.07
Fixed: Mass fraction of 1,1,1-trifluoroethane = 0.46
Property: Relative permittivity at zero frequency (Liquid); method: Parallel plate capacitor
Temperature, K	Pressure, kPa	Relative permittivity at zero frequency	uncertainty
233.15	1000	12.8513	0.0345
233.15	2000	12.8737	0.0345
233.15	3000	12.9051	0.0345
233.15	4000	12.9361	0.0346
233.15	5000	12.9621	0.0346
233.15	6000	12.9908	0.0346
233.15	7000	13.0163	0.0347
233.15	8000	13.0441	0.0347
233.15	9000	13.0719	0.0347
233.15	10000	13.0998	0.0348
233.15	11000	13.1276	0.0348
233.15	12000	13.1569	0.0348
233.15	13000	13.1877	0.0349
233.15	14000	13.2126	0.0349
233.15	15000	13.2354	0.0349
233.15	16000	13.2626	0.0349
243.12	1000	11.8665	0.0327
243.12	2000	11.8959	0.0327
243.12	3000	11.9253	0.0327
243.12	4000	11.9547	0.0328
243.13	5000	11.9841	0.0328
243.13	6000	12.0135	0.0328
243.13	7000	12.0429	0.0328
243.13	8000	12.0723	0.0328
243.13	9000	12.1017	0.0328
243.13	10000	12.1311	0.0329
243.13	11000	12.1605	0.0329
243.13	12000	12.1899	0.0329
243.13	13000	12.2193	0.0329
243.13	14000	12.2487	0.033
243.13	15000	12.2786	0.033
243.13	16000	12.3055	0.033
253.11	7000	11.0858	0.0305
253.11	8000	11.1187	0.0305
253.12	4000	10.9871	0.0304
253.12	6000	11.0529	0.0304
253.12	9000	11.1516	0.0305
253.12	10000	11.1845	0.0305
253.13	3000	10.9542	0.0304
253.13	5000	11.02	0.0304
253.13	11000	11.2174	0.0305
253.13	14000	11.3183	0.0306
253.13	15000	11.3482	0.0306
253.13	16000	11.3787	0.0306
253.14	1000	10.8884	0.0303
253.14	2000	10.9213	0.0304
253.14	12000	11.2503	0.0305
253.14	13000	11.285	0.0306
263.14	1000	10.0046	0.0272
263.14	2000	10.0404	0.0272
263.14	5000	10.1479	0.0272
263.14	6000	10.1837	0.0273
263.14	7000	10.2195	0.0273
263.15	3000	10.0762	0.0272
263.15	4000	10.1121	0.0273
263.15	8000	10.2554	0.0273
263.15	9000	10.2915	0.0273
263.15	10000	10.327	0.0274
263.16	11000	10.3629	0.0274
263.16	12000	10.3987	0.0274
263.17	13000	10.4345	0.0274
263.17	14000	10.4704	0.0274
263.18	15000	10.5061	0.0275
263.18	16000	10.5386	0.0276
273.12	9000	9.6209	0.0251
273.13	3000	9.3723	0.0249
273.13	4000	9.4137	0.0249
273.13	6000	9.4966	0.025
273.13	10000	9.6623	0.0251
273.14	2000	9.3309	0.0248
273.14	7000	9.538	0.025
273.14	8000	9.5794	0.0251
273.15	11000	9.7037	0.0252
273.15	12000	9.7451	0.0252
273.15	13000	9.7866	0.0252
273.15	14000	9.8327	0.0253
273.15	15000	9.864	0.025
273.16	1000	9.2894	0.0248
273.16	16000	9.8966	0.0253
273.18	5000	9.4551	0.0249
283.15	1000	8.6035	0.0234
283.15	2000	8.6417	0.0234
283.15	3000	8.6851	0.0235
283.15	4000	8.7286	0.0236
283.16	5000	8.772	0.0236
283.16	6000	8.8154	0.0236
283.17	7000	8.8588	0.0237
283.17	8000	8.9022	0.0237
283.17	9000	8.9456	0.0238
283.17	10000	8.9891	0.0238
283.17	11000	9.0325	0.0239
283.17	12000	9.0759	0.0239
283.17	13000	9.1193	0.024
283.17	15000	9.2066	0.024
283.18	14000	9.1695	0.0241
283.18	16000	9.2426	0.0241
293.28	3000	7.9947	0.0215
293.29	2000	7.9511	0.0215
293.29	4000	8.0417	0.0214
293.29	5000	8.0888	0.0214
293.3	6000	8.1358	0.0214
293.3	7000	8.1828	0.0214
293.3	8000	8.2299	0.0214
293.31	9000	8.2769	0.0214
293.32	10000	8.3239	0.0215
293.32	11000	8.3709	0.0216
293.32	12000	8.4179	0.0216
293.33	13000	8.465	0.0217
293.33	14000	8.512	0.0218
293.34	15000	8.5648	0.0219
293.34	16000	8.6004	0.022
303.78	3000	7.4179	0.0197
303.78	5000	7.5499	0.0196
303.78	6000	7.6152	0.0195
303.78	7000	7.6727	0.0195
303.79	2000	7.3431	0.0199
303.79	4000	7.4858	0.0196
303.79	8000	7.7259	0.0196
303.79	9000	7.7804	0.0196
303.79	10000	7.8315	0.0197
303.79	11000	7.8786	0.0197
303.79	13000	7.9712	0.0199
303.79	14000	8.0173	0.02
303.8	12000	7.9254	0.0198
303.8	15000	8.0632	0.0202
303.8	16000	8.0996	0.0202

System: chlorodifluoromethane + 1-chloro-1,1-difluoroethane + 2-chloro-1,1,1,2-tetrafluoroethane; phases: Liquid
Fixed: Mass fraction of chlorodifluoromethane = 0.6
Fixed: Mass fraction of 2-chloro-1,1,1,2-tetrafluoroethane = 0.25
Property: Relative permittivity at zero frequency (Liquid); method: Parallel plate capacitor
Temperature, K	Pressure, kPa	Relative permittivity at zero frequency	uncertainty
243.2	1000	10.6922	0.0302
243.2	2000	10.7256	0.0304
243.21	3000	10.7619	0.0303
243.21	4000	10.7959	0.0305
243.21	5000	10.8301	0.0305
243.21	6000	10.858	0.0307
243.21	7000	10.9205	0.0309
243.21	8000	10.9603	0.0312
243.21	9000	10.9882	0.0313
243.21	10000	11.0394	0.0315
243.21	12000	11.126	0.0321
243.22	11000	11.0765	0.0318
243.22	13000	11.159	0.0323
243.22	14000	11.1971	0.0325
243.22	15000	11.2268	0.0322
243.22	16000	11.2524	0.0321
253.01	2000	9.7909	0.0278
253.02	1000	9.7597	0.0278
253.02	3000	9.8325	0.0279
253.02	4000	9.86	0.028
253.02	5000	9.897	0.0281
253.02	6000	9.923	0.0281
253.02	7000	9.9577	0.0283
253.02	9000	10.0186	0.0284
253.02	10000	10.0499	0.0287
253.02	11000	10.0775	0.0287
253.02	12000	10.1068	0.0289
253.02	13000	10.1323	0.029
253.03	8000	9.9886	0.0284
253.03	14000	10.1575	0.0291
253.03	15000	10.2157	0.0292
253.03	16000	10.2488	0.0293
262.95	1000	8.9504	0.0245
262.96	2000	8.9887	0.0245
262.96	3000	9.0189	0.0246
262.96	4000	9.049	0.0246
262.96	5000	9.0802	0.0247
262.96	6000	9.1183	0.0247
262.97	7000	9.1466	0.0247
262.97	8000	9.1802	0.0248
262.97	9000	9.2115	0.0248
262.97	10000	9.2393	0.0249
262.98	11000	9.2701	0.0249
262.98	12000	9.3013	0.0249
262.98	13000	9.3273	0.0249
262.98	14000	9.3634	0.025
262.99	15000	9.3892	0.0252
262.99	16000	9.4125	0.0253
273.08	1000	8.2901	0.0221
273.08	2000	8.3384	0.0221
273.08	3000	8.3694	0.0221
273.08	4000	8.4086	0.0222
273.08	6000	8.4823	0.0222
273.09	5000	8.4455	0.0222
273.09	7000	8.5142	0.0222
273.09	8000	8.5445	0.0223
273.09	9000	8.5834	0.0223
273.09	10000	8.6134	0.0223
273.1	11000	8.6468	0.0224
273.1	12000	8.6754	0.0224
273.1	13000	8.7094	0.0224
273.1	14000	8.7394	0.0225
273.1	15000	8.763	0.0225
273.11	16000	8.8001	0.0226
283.14	1000	7.6985	0.0207
283.14	2000	7.7404	0.0207
283.15	3000	7.7788	0.0207
283.15	4000	7.8174	0.0208
283.15	5000	7.8573	0.0208
283.15	6000	7.8993	0.0208
283.15	7000	7.9372	0.0209
283.15	8000	7.9731	0.0209
283.16	9000	8.012	0.0209
283.16	10000	8.0487	0.021
283.16	11000	8.0807	0.021
283.17	12000	8.114	0.021
283.17	13000	8.1502	0.0211
283.18	14000	8.1815	0.0211
283.18	15000	8.2115	0.0211
283.18	16000	8.2426	0.0212
293.27	1000	7.1006	0.0195
293.28	2000	7.1484	0.0196
293.28	4000	7.2332	0.0196
293.29	3000	7.1941	0.0196
293.29	5000	7.282	0.0196
293.29	6000	7.3232	0.0197
293.29	7000	7.3609	0.0197
293.3	8000	7.4046	0.0197
293.3	9000	7.4444	0.0198
293.3	10000	7.4754	0.0198
293.3	11000	7.5189	0.0199
293.31	12000	7.5527	0.0199
293.31	13000	7.5925	0.02
293.31	14000	7.6304	0.02
293.32	15000	7.6627	0.0201
293.32	16000	7.693	0.0201
303.25	1000	6.5291	0.0184
303.25	2000	6.5708	0.0185
303.26	3000	6.6223	0.0186
303.26	4000	6.6718	0.0185
303.26	6000	6.7653	0.0187
303.26	7000	6.808	0.0186
303.26	10000	6.9365	0.0187
303.26	11000	6.9744	0.0189
303.27	5000	6.719	0.0186
303.27	8000	6.8537	0.0187
303.27	9000	6.8958	0.0188
303.27	12000	7.0128	0.0189
303.27	13000	7.0541	0.019
303.27	14000	7.0876	0.019
303.27	15000	7.1222	0.0191
303.28	16000	7.16	0.0191
