Measured thermophysical data. Physiochemical Properties of Several Aqueous Potassium Amino Acid Salts
Source: J. Chem. Eng. Data, 2008, 10.1021/je700699u
Compound 1: water, H2O, InChI=1S/H2O/h1H2
Compound 2: potassium Salt of sarcosine, C3H6KNO2, InChI=1S/C3H7NO2.K/c1-4-2-3(5)6;/h4H,2H2,1H3,(H,5,6);/q;+1/p-1, purity 98%
Compound 3: potassium Salt of B-alanine, C3H6KNO2, InChI=1S/C3H7NO2.K/c4-2-1-3(5)6;/h1-2,4H2,(H,5,6);/q;+1/p-1, purity 98%
Compound 4: potassium Salt of 6-aminohexanoic acid, C6H12KNO2, InChI=1S/C6H13NO2.K/c7-5-3-1-2-4-6(8)9;/h1-5,7H2,(H,8,9);/q;+1/p-1, purity 98%
Compound 5: potassium (S)-2-amino-3-carboxypropanoate, C4H6KNO4, InChI=1S/C4H7NO4.K/c5-2(4(8)9)1-3(6)7;/h2H,1,5H2,(H,6,7)(H,8,9);/q;+1/p-1/t2-;/m0./s1, purity 98%
Compound 6: potassium L-prolinate, C5H8KNO2, InChI=1S/C5H9NO2.K/c7-5(8)4-2-1-3-6-4;/h4,6H,1-3H2,(H,7,8);/q;+1/p-1/t4-;/m0./s1, purity 98%
Compound 7: potassium (S)-2-amino-4-carboxybutanoate, C5H8KNO4, InChI=1S/C5H9NO4.K/c6-3(5(9)10)1-2-4(7)8;/h3H,1-2,6H2,(H,7,8)(H,9,10);/q;+1/p-1/t3-;/m0./s1, purity 98%
Compound 8: potassium salt of DL-methionine, C5H10KNO2S, InChI=1S/C5H11NO2S.K/c1-9-3-2-4(6)5(7)8;/h4H,2-3,6H2,1H3,(H,7,8);/q;+1/p-1, purity 98%
Compound 9: potassium L-argininate, C6H13KN4O2, InChI=1S/C6H14N4O2.K/c7-4(5(11)12)2-1-3-10-6(8)9;/h4H,1-3,7H2,(H,11,12)(H4,8,9,10);/q;+1/p-1/t4-;/m0./s1, purity 98%
Compound 10: potassium L-phenylalaninate, C9H10KNO2, InChI=1S/C9H11NO2.K/c10-8(9(11)12)6-7-4-2-1-3-5-7;/h1-5,8H,6,10H2,(H,11,12);/q;+1/p-1/t8-;/m0./s1, purity 98%

System: water + potassium Salt of sarcosine; phases: Liquid
Fixed: Pressure, kPa = 101
Property: Viscosity, Pa*s (Liquid); method: CAPTUB:UFactor:4
Temperature, K	Amount concentration (molarity), mol/dm3 of potassium Salt of sarcosine	Viscosity, Pa*s	uncertainty
298.15	0.51	0.001018	3.2e-05
298.15	1.019	0.001185	3.7e-05
298.15	1.534	0.001408	4.3e-05
298.15	2.019	0.001663	5e-05
298.15	2.445	0.001959	5.9e-05
298.15	2.987	0.002493	7.4e-05
303.15	0.51	0.000913	3e-05
303.15	1.019	0.00106	3.4e-05
303.15	1.534	0.001252	3.9e-05
303.15	2.019	0.001466	4.5e-05
303.15	2.445	0.001707	5.2e-05
303.15	2.987	0.002185	6.5e-05
313.15	0.51	0.000748	2.5e-05
313.15	1.019	0.000876	2.8e-05
313.15	1.534	0.001005	3.2e-05
313.15	2.019	0.00118	3.7e-05
313.15	2.445	0.001356	4.2e-05
313.15	2.987	0.001721	5.2e-05
323.15	0.51	0.000627	2.2e-05
323.15	1.019	0.000759	2.5e-05
323.15	1.534	0.000833	2.7e-05
323.15	2.019	0.000968	3.1e-05
323.15	2.445	0.001098	3.5e-05
323.15	2.987	0.001395	4.3e-05
333.15	0.51	0.000538	1.9e-05
333.15	1.019	0.000614	2.1e-05
333.15	1.534	0.000703	2.4e-05
333.15	2.019	0.000811	2.7e-05
333.15	2.445	0.000919	3e-05
333.15	2.987	0.001115	3.5e-05

System: water + potassium Salt of sarcosine; phases: Liquid
Fixed: Pressure, kPa = 101
Property: Mass density, kg/m3 (Liquid); method: VIBTUB:UFactor:32
Temperature, K	Amount concentration (molarity), mol/dm3 of potassium Salt of sarcosine	Mass density, kg/m3	uncertainty
298.15	0.51	1024	2
298.15	1.01	1051	2
298.15	1.534	1077	3
298.15	2.019	1103	3
298.15	2.445	1124	3
298.15	2.987	1150	4
303.15	0.51	1023	2
303.15	1.01	1049	2
303.15	1.534	1074	3
303.15	2.019	1100	3
303.15	2.445	1121	3
303.15	2.987	1148	4
313.15	0.51	1019	2
313.15	1.01	1045	2
313.15	1.534	1070	3
313.15	2.019	1096	3
313.15	2.445	1117	3
313.15	2.987	1143	4
323.15	0.51	1015	2
323.15	1.01	1041	2
323.15	1.534	1065	2
323.15	2.019	1091	3
323.15	2.445	1111	3
323.15	2.987	1138	4
333.15	0.51	1010	2
333.15	1.01	1036	2
333.15	1.534	1060	2
333.15	2.019	1085	3
333.15	2.445	1106	3
333.15	2.987	1132	4

System: water + potassium Salt of B-alanine; phases: Liquid
Fixed: Pressure, kPa = 101
Property: Viscosity, Pa*s (Liquid); method: CAPTUB:UFactor:4
Temperature, K	Amount concentration (molarity), mol/dm3 of potassium Salt of B-alanine	Viscosity, Pa*s	uncertainty
298.15	0.496	0.00105	3.3e-05
298.15	1.003	0.00123	3.8e-05
298.15	1.492	0.001453	4.5e-05
298.15	2.019	0.001759	5.3e-05
298.15	2.492	0.002131	6.3e-05
298.15	2.964	0.002609	7.7e-05
298.15	3.417	0.003245	9.4e-05
303.15	0.496	0.000944	3e-05
303.15	1.003	0.001097	3.5e-05
303.15	1.492	0.001293	4e-05
303.15	2.019	0.001548	4.7e-05
303.15	2.492	0.001881	5.7e-05
303.15	2.964	0.002293	6.8e-05
303.15	3.417	0.002832	8.3e-05
313.15	0.496	0.000762	2.5e-05
313.15	1.003	0.000892	2.9e-05
313.15	1.492	0.001049	3.3e-05
313.15	2.019	0.00125	3.9e-05
313.15	2.492	0.001497	4.6e-05
313.15	2.964	0.001808	5.5e-05
313.15	3.417	0.002209	6.6e-05
323.15	0.496	0.000638	2.2e-05
323.15	1.003	0.000744	2.5e-05
323.15	1.492	0.000871	2.8e-05
323.15	2.019	0.001027	3.3e-05
323.15	2.492	0.001223	3.8e-05
323.15	2.964	0.001464	4.5e-05
323.15	3.417	0.00177	5.4e-05
333.15	0.496	0.000546	1.9e-05
333.15	1.003	0.000634	2.2e-05
333.15	1.492	0.000737	2.5e-05
333.15	2.019	0.000866	2.8e-05
333.15	2.492	0.001022	3.3e-05
333.15	2.964	0.001217	3.8e-05
333.15	3.417	0.001459	4.5e-05

System: water + potassium Salt of B-alanine; phases: Liquid
Fixed: Pressure, kPa = 101
Property: Mass density, kg/m3 (Liquid); method: VIBTUB:UFactor:32
Temperature, K	Amount concentration (molarity), mol/dm3 of potassium Salt of B-alanine	Mass density, kg/m3	uncertainty
298.15	0.496	1026	2
298.15	1.003	1053	2
298.15	1.492	1079	3
298.15	2.019	1107	3
298.15	2.492	1133	4
298.15	2.964	1157	4
298.15	3.417	1181	4
303.15	0.496	1024	2
303.15	1.003	1053	2
303.15	1.492	1078	3
303.15	2.019	1106	3
303.15	2.492	1131	4
303.15	2.964	1155	4
303.15	3.417	1179	4
313.15	0.496	1020	2
313.15	1.003	1048	2
313.15	1.492	1074	3
313.15	2.019	1100	3
313.15	2.492	1126	3
313.15	2.964	1150	4
313.15	3.417	1174	4
323.15	0.496	1017	2
323.15	1.003	1043	2
323.15	1.492	1070	3
323.15	2.019	1096	3
323.15	2.492	1121	3
323.15	2.964	1145	4
323.15	3.417	1169	4
333.15	0.496	1011	2
333.15	1.003	1038	2
333.15	1.492	1065	2
333.15	2.019	1090	3
333.15	2.492	1116	3
333.15	2.964	1140	4
333.15	3.417	1162	4

System: water + potassium Salt of 6-aminohexanoic acid; phases: Liquid
Fixed: Pressure, kPa = 101
Property: Viscosity, Pa*s (Liquid); method: CAPTUB:UFactor:4
Temperature, K	Amount concentration (molarity), mol/dm3 of potassium Salt of 6-aminohexanoic acid	Viscosity, Pa*s	uncertainty
298.15	0.497	0.001191	3.7e-05
298.15	1.002	0.001608	4.9e-05
298.15	1.429	0.002152	6.4e-05
298.15	1.982	0.003091	9e-05
298.15	2.458	0.004445	0.000128
298.15	2.942	0.006601	0.000175
303.15	0.497	0.001058	3.4e-05
303.15	1.002	0.001418	4.4e-05
303.15	1.429	0.001882	5.6e-05
303.15	1.982	0.002669	7.8e-05
303.15	2.458	0.003796	0.000109
303.15	2.942	0.005573	0.000154
313.15	0.497	0.000854	2.8e-05
313.15	1.002	0.001126	3.5e-05
313.15	1.429	0.001497	4.6e-05
313.15	1.982	0.002035	6.1e-05
313.15	2.458	0.00285	8.3e-05
313.15	2.942	0.004112	0.000118
323.15	0.497	0.000706	2.4e-05
323.15	1.002	0.000913	3e-05
323.15	1.429	0.001199	3.8e-05
323.15	1.982	0.001608	4.9e-05
323.15	2.458	0.002211	6.6e-05
323.15	2.942	0.003145	9.2e-05
333.15	0.497	0.000599	2.1e-05
333.15	1.002	0.000762	2.5e-05
333.15	1.429	0.000987	3.2e-05
333.15	1.982	0.001307	4.1e-05
333.15	2.458	0.001768	5.3e-05
333.15	2.942	0.002458	7.3e-05

System: water + potassium Salt of 6-aminohexanoic acid; phases: Liquid
Fixed: Pressure, kPa = 101
Property: Mass density, kg/m3 (Liquid); method: VIBTUB:UFactor:32
Temperature, K	Amount concentration (molarity), mol/dm3 of potassium Salt of 6-aminohexanoic acid	Mass density, kg/m3	uncertainty
298.15	0.497	1024	2
298.15	1.002	1049	2
298.15	1.429	1072	3
298.15	1.982	1098	3
298.15	2.458	1119	3
298.15	2.942	1141	4
303.15	0.497	1022	2
303.15	1.002	1048	2
303.15	1.429	1070	3
303.15	1.982	1095	3
303.15	2.458	1117	3
303.15	2.942	1139	4
313.15	0.497	1018	2
313.15	1.002	1044	2
313.15	1.429	1067	2
313.15	1.982	1089	3
313.15	2.458	1111	3
313.15	2.942	1132	4
323.15	0.497	1014	2
323.15	1.002	1038	2
323.15	1.429	1061	2
323.15	1.982	1084	3
323.15	2.458	1105	3
323.15	2.942	1126	4
333.15	0.497	1009	2
333.15	1.002	1034	2
333.15	1.429	1057	2
333.15	1.982	1078	3
333.15	2.458	1098	3
333.15	2.942	1118	3

System: potassium (S)-2-amino-3-carboxypropanoate + water; phases: Liquid
Fixed: Pressure, kPa = 101
Property: Viscosity, Pa*s (Liquid); method: CAPTUB:UFactor:4
Temperature, K	Amount concentration (molarity), mol/dm3 of potassium (S)-2-amino-3-carboxypropanoate	Viscosity, Pa*s	uncertainty
298.15	0.255	0.000992	3.2e-05
298.15	0.47	0.001104	3.5e-05
298.15	0.708	0.001239	3.9e-05
298.15	0.979	0.001419	4.4e-05
298.15	1.208	0.001615	4.9e-05
298.15	1.449	0.001856	5.6e-05
303.15	0.255	0.000887	2.9e-05
303.15	0.47	0.000998	3.2e-05
303.15	0.708	0.001115	3.5e-05
303.15	0.979	0.001269	3.9e-05
303.15	1.208	0.00145	4.4e-05
303.15	1.449	0.001667	5.1e-05
313.15	0.255	0.000725	2.4e-05
313.15	0.47	0.000816	2.7e-05
313.15	0.708	0.000914	3e-05
313.15	0.979	0.001041	3.3e-05
313.15	1.208	0.001185	3.7e-05
313.15	1.449	0.001353	4.2e-05
323.15	0.255	0.000613	2.1e-05
323.15	0.47	0.000693	2.3e-05
323.15	0.708	0.000771	2.6e-05
323.15	0.979	0.000865	2.8e-05
323.15	1.208	0.000994	3.2e-05
323.15	1.449	0.001142	3.6e-05
333.15	0.255	0.000525	1.9e-05
333.15	0.47	0.000593	2.1e-05
333.15	0.708	0.000663	2.3e-05
333.15	0.979	0.000743	2.5e-05
333.15	1.208	0.000836	2.7e-05
333.15	1.449	0.000957	3.1e-05

System: potassium (S)-2-amino-3-carboxypropanoate + water; phases: Liquid
Fixed: Pressure, kPa = 101
Property: Mass density, kg/m3 (Liquid); method: VIBTUB:UFactor:32
Temperature, K	Amount concentration (molarity), mol/dm3 of potassium (S)-2-amino-3-carboxypropanoate	Mass density, kg/m3	uncertainty
298.15	0.255	1029	2
298.15	0.47	1059	2
298.15	0.708	1089	3
298.15	0.979	1119	3
298.15	1.208	1147	4
298.15	1.449	1176	4
303.15	0.255	1027	2
303.15	0.47	1057	2
303.15	0.708	1087	3
303.15	0.979	1117	3
303.15	1.208	1145	4
303.15	1.449	1173	4
313.15	0.255	1024	2
313.15	0.47	1053	2
313.15	0.708	1083	3
313.15	0.979	1113	3
313.15	1.208	1141	4
313.15	1.449	1169	4
323.15	0.255	1020	2
323.15	0.47	1049	2
323.15	0.708	1079	3
323.15	0.979	1109	3
323.15	1.208	1137	4
323.15	1.449	1166	4
333.15	0.255	1015	2
333.15	0.47	1045	2
333.15	0.708	1074	3
333.15	0.979	1105	3
333.15	1.208	1133	4
333.15	1.449	1162	4

System: water + potassium L-prolinate; phases: Liquid
Fixed: Pressure, kPa = 101
Property: Viscosity, Pa*s (Liquid); method: CAPTUB:UFactor:4
Temperature, K	Amount concentration (molarity), mol/dm3 of potassium L-prolinate	Viscosity, Pa*s	uncertainty
298.15	0.507	0.001107	3.5e-05
298.15	1.01	0.0014	4.3e-05
298.15	1.523	0.001811	5.5e-05
298.15	2.01	0.002365	7e-05
298.15	2.521	0.003163	9.2e-05
298.15	2.983	0.004112	0.000119
298.15	3.448	0.005732	0.000157
303.15	0.507	0.000986	3.2e-05
303.15	1.01	0.001242	3.9e-05
303.15	1.523	0.00159	4.8e-05
303.15	2.01	0.002061	6.2e-05
303.15	2.521	0.002721	8e-05
303.15	2.983	0.003516	0.000102
303.15	3.448	0.004837	0.000138
313.15	0.507	0.000799	2.6e-05
313.15	1.01	0.000992	3.2e-05
313.15	1.523	0.001251	3.9e-05
313.15	2.01	0.001599	4.9e-05
313.15	2.521	0.002076	6.2e-05
313.15	2.983	0.002664	7.8e-05
313.15	3.448	0.003587	0.000104
323.15	0.507	0.000664	2.3e-05
323.15	1.01	0.000816	2.7e-05
323.15	1.523	0.001017	3.2e-05
323.15	2.01	0.001286	4e-05
323.15	2.521	0.001636	5e-05
323.15	2.983	0.002068	6.2e-05
323.15	3.448	0.002767	8.1e-05
333.15	0.507	0.000565	2e-05
333.15	1.01	0.000685	2.3e-05
333.15	1.523	0.000846	2.8e-05
333.15	2.01	0.001061	3.4e-05
333.15	2.521	0.001331	4.1e-05
333.15	2.983	0.001658	5e-05
333.15	3.448	0.002181	6.5e-05

System: water + potassium L-prolinate; phases: Liquid
Fixed: Pressure, kPa = 101
Property: Mass density, kg/m3 (Liquid); method: VIBTUB:UFactor:32
Temperature, K	Amount concentration (molarity), mol/dm3 of potassium L-prolinate	Mass density, kg/m3	uncertainty
298.15	0.507	1028	2
298.15	1.01	1059	2
298.15	1.523	1089	3
298.15	2.01	1118	3
298.15	2.521	1146	4
298.15	2.983	1171	4
298.15	3.448	1197	5
303.15	0.507	1027	2
303.15	1.01	1057	2
303.15	1.523	1087	3
303.15	2.01	1115	3
303.15	2.521	1144	4
303.15	2.983	1168	4
303.15	3.448	1194	5
313.15	0.507	1023	2
313.15	1.01	1053	2
313.15	1.523	1082	3
313.15	2.01	1110	3
313.15	2.521	1138	4
313.15	2.983	1162	4
313.15	3.448	1188	5
323.15	0.507	1019	2
323.15	1.01	1048	2
323.15	1.523	1077	3
323.15	2.01	1105	3
323.15	2.521	1133	4
323.15	2.983	1156	4
323.15	3.448	1182	4
333.15	0.507	1014	2
333.15	1.01	1043	2
333.15	1.523	1072	3
333.15	2.01	1100	3
333.15	2.521	1127	4
333.15	2.983	1150	4
333.15	3.448	1176	4

System: water + potassium (S)-2-amino-4-carboxybutanoate; phases: Liquid
Fixed: Pressure, kPa = 101
Property: Viscosity, Pa*s (Liquid); method: CAPTUB:UFactor:4
Temperature, K	Amount concentration (molarity), mol/dm3 of potassium (S)-2-amino-4-carboxybutanoate	Viscosity, Pa*s	uncertainty
298.15	0.248	0.001011	3.2e-05
298.15	0.493	0.001163	3.6e-05
298.15	0.733	0.001344	4.2e-05
298.15	1	0.001579	4.8e-05
298.15	1.24	0.001844	5.5e-05
298.15	1.469	0.002194	6.5e-05
303.15	0.248	0.000908	2.9e-05
303.15	0.493	0.001041	3.3e-05
303.15	0.733	0.001199	3.7e-05
303.15	1	0.001404	4.3e-05
303.15	1.24	0.001644	5e-05
303.15	1.469	0.001962	5.9e-05
313.15	0.248	0.000744	2.5e-05
313.15	0.493	0.000854	2.8e-05
313.15	0.733	0.000982	3.1e-05
313.15	1	0.001143	3.6e-05
313.15	1.24	0.001336	4.1e-05
313.15	1.469	0.00157	4.8e-05
323.15	0.248	0.000623	2.1e-05
323.15	0.493	0.000713	2.4e-05
323.15	0.733	0.000817	2.7e-05
323.15	1	0.000953	3.1e-05
323.15	1.24	0.001101	3.5e-05
323.15	1.469	0.001295	4e-05
333.15	0.248	0.000535	1.9e-05
333.15	0.493	0.000611	2.1e-05
333.15	0.733	0.000699	2.4e-05
333.15	1	0.000809	2.7e-05
333.15	1.24	0.000933	3e-05
333.15	1.469	0.001089	3.4e-05

System: water + potassium (S)-2-amino-4-carboxybutanoate; phases: Liquid
Fixed: Pressure, kPa = 101
Property: Mass density, kg/m3 (Liquid); method: VIBTUB:UFactor:32
Temperature, K	Amount concentration (molarity), mol/dm3 of potassium (S)-2-amino-4-carboxybutanoate	Mass density, kg/m3	uncertainty
298.15	0.248	1029	2
298.15	0.493	1059	2
298.15	0.733	1088	3
298.15	1	1117	3
298.15	1.24	1145	4
298.15	1.469	1173	4
303.15	0.248	1027	2
303.15	0.493	1057	2
303.15	0.733	1086	3
303.15	1	1116	3
303.15	1.24	1143	4
303.15	1.469	1171	4
313.15	0.248	1024	2
313.15	0.493	1054	2
313.15	0.733	1083	3
313.15	1	1112	3
313.15	1.24	1139	4
313.15	1.469	1167	4
323.15	0.248	1019	2
323.15	0.493	1049	2
323.15	0.733	1078	3
323.15	1	1107	3
323.15	1.24	1134	4
323.15	1.469	1162	4
333.15	0.248	1017	2
333.15	0.493	1047	2
333.15	0.733	1076	3
333.15	1	1105	3
333.15	1.24	1132	4
333.15	1.469	1160	4

System: water + potassium salt of DL-methionine; phases: Liquid
Fixed: Pressure, kPa = 101
Property: Viscosity, Pa*s (Liquid); method: CAPTUB:UFactor:4
Temperature, K	Amount concentration (molarity), mol/dm3 of potassium salt of DL-methionine	Viscosity, Pa*s	uncertainty
298.15	0.252	0.000987	3.2e-05
298.15	0.503	0.001109	3.5e-05
298.15	0.732	0.001263	3.9e-05
298.15	0.994	0.001425	4.4e-05
298.15	1.252	0.001654	5e-05
298.15	1.479	0.001883	5.7e-05
303.15	0.252	0.000884	2.9e-05
303.15	0.503	0.000987	3.2e-05
303.15	0.732	0.001125	3.5e-05
303.15	0.994	0.001264	3.9e-05
303.15	1.252	0.001478	4.5e-05
303.15	1.479	0.001657	5e-05
313.15	0.252	0.000722	2.4e-05
313.15	0.503	0.000806	2.7e-05
313.15	0.732	0.000909	2.9e-05
313.15	0.994	0.001019	3.3e-05
313.15	1.252	0.001161	3.6e-05
313.15	1.479	0.001316	4.1e-05
323.15	0.252	0.000608	2.1e-05
323.15	0.503	0.000675	2.3e-05
323.15	0.732	0.000754	2.5e-05
323.15	0.994	0.00084	2.8e-05
323.15	1.252	0.000952	3.1e-05
323.15	1.479	0.001071	3.4e-05
333.15	0.252	0.000519	1.9e-05
333.15	0.503	0.000575	2e-05
333.15	0.732	0.00064	2.2e-05
333.15	0.994	0.000708	2.4e-05
333.15	1.252	0.000799	2.6e-05
333.15	1.479	0.000893	2.9e-05

System: water + potassium salt of DL-methionine; phases: Liquid
Fixed: Pressure, kPa = 101
Property: Mass density, kg/m3 (Liquid); method: VIBTUB:UFactor:32
Temperature, K	Amount concentration (molarity), mol/dm3 of potassium salt of DL-methionine	Mass density, kg/m3	uncertainty
298.15	0.252	1016	2
298.15	0.503	1033	2
298.15	0.732	1051	2
298.15	0.994	1067	2
298.15	1.252	1084	3
298.15	1.479	1100	3
303.15	0.252	1014	2
303.15	0.503	1032	2
303.15	0.732	1049	2
303.15	0.994	1065	2
303.15	1.252	1083	3
303.15	1.479	1098	3
313.15	0.252	1010	2
313.15	0.503	1027	2
313.15	0.732	1044	2
313.15	0.994	1060	2
313.15	1.252	1077	3
313.15	1.479	1093	3
323.15	0.252	1006	1
323.15	0.503	1023	2
323.15	0.732	1039	2
323.15	0.994	1055	2
323.15	1.252	1072	3
323.15	1.479	1087	3
333.15	0.252	1003	1
333.15	0.503	1020	2
333.15	0.732	1037	2
333.15	0.994	1053	2
333.15	1.252	1069	3
333.15	1.479	1085	3

System: water + potassium L-argininate; phases: Liquid
Fixed: Pressure, kPa = 101
Property: Viscosity, Pa*s (Liquid); method: CAPTUB:UFactor:4
Temperature, K	Amount concentration (molarity), mol/dm3 of potassium L-argininate	Viscosity, Pa*s	uncertainty
298.15	0.238	0.001026	3.3e-05
298.15	0.479	0.001215	3.8e-05
298.15	0.725	0.001431	4.4e-05
298.15	0.971	0.001882	5.7e-05
303.15	0.238	0.000917	3e-05
303.15	0.479	0.001098	3.5e-05
303.15	0.725	0.001276	4e-05
303.15	0.971	0.001553	4.7e-05
313.15	0.238	0.00075	2.5e-05
313.15	0.479	0.000886	2.9e-05
313.15	0.725	0.001035	3.3e-05
313.15	0.971	0.001244	3.9e-05
323.15	0.238	0.00063	2.2e-05
323.15	0.479	0.000738	2.5e-05
323.15	0.725	0.000856	2.8e-05
323.15	0.971	0.001019	3.3e-05
333.15	0.238	0.000539	1.9e-05
333.15	0.479	0.000632	2.2e-05
333.15	0.725	0.000723	2.4e-05
333.15	0.971	0.000848	2.8e-05

System: water + potassium L-argininate; phases: Liquid
Fixed: Pressure, kPa = 101
Property: Mass density, kg/m3 (Liquid); method: VIBTUB:UFactor:32
Temperature, K	Amount concentration (molarity), mol/dm3 of potassium L-argininate	Mass density, kg/m3	uncertainty
298.15	0.238	1021	2
298.15	0.479	1043	2
298.15	0.725	1064	2
298.15	0.971	1087	3
303.15	0.238	1019	2
303.15	0.479	1041	2
303.15	0.725	1062	2
303.15	0.971	1085	3
313.15	0.238	1016	2
313.15	0.479	1037	2
313.15	0.725	1058	2
313.15	0.971	1080	3
323.15	0.238	1011	2
323.15	0.479	1032	2
323.15	0.725	1053	2
323.15	0.971	1075	3
333.15	0.238	1007	2
333.15	0.479	1027	2
333.15	0.725	1048	2
333.15	0.971	1069	3

System: water + potassium L-phenylalaninate; phases: Liquid
Fixed: Pressure, kPa = 101
Property: Viscosity, Pa*s (Liquid); method: CAPTUB:UFactor:4
Temperature, K	Amount concentration (molarity), mol/dm3 of potassium L-phenylalaninate	Viscosity, Pa*s	uncertainty
298.15	0.25	0.001059	3.4e-05
298.15	0.496	0.001224	3.8e-05
298.15	0.746	0.001441	4.4e-05
298.15	0.996	0.001695	5.1e-05
298.15	1.227	0.00203	6.1e-05
298.15	1.453	0.002483	7.3e-05
303.15	0.25	0.000938	3e-05
303.15	0.496	0.001092	3.4e-05
303.15	0.746	0.001279	4e-05
303.15	0.996	0.001495	4.6e-05
303.15	1.227	0.001782	5.4e-05
303.15	1.453	0.002169	6.4e-05
313.15	0.25	0.000769	2.5e-05
313.15	0.496	0.000884	2.9e-05
313.15	0.746	0.001032	3.3e-05
313.15	0.996	0.001194	3.7e-05
313.15	1.227	0.00141	4.3e-05
313.15	1.453	0.001702	5.2e-05
323.15	0.25	0.000641	2.2e-05
323.15	0.496	0.000738	2.5e-05
323.15	0.746	0.000852	2.8e-05
323.15	0.996	0.00098	3.1e-05
323.15	1.227	0.00115	3.6e-05
323.15	1.453	0.001377	4.3e-05
333.15	0.25	0.000549	1.9e-05
333.15	0.496	0.000631	2.2e-05
333.15	0.746	0.00072	2.4e-05
333.15	0.996	0.000823	2.7e-05
333.15	1.227	0.000963	3.1e-05
333.15	1.453	0.001139	3.6e-05

System: water + potassium L-phenylalaninate; phases: Liquid
Fixed: Pressure, kPa = 101
Property: Mass density, kg/m3 (Liquid); method: VIBTUB:UFactor:32
Temperature, K	Amount concentration (molarity), mol/dm3 of potassium L-phenylalaninate	Mass density, kg/m3	uncertainty
298.15	0.25	1015	2
298.15	0.496	1032	2
298.15	0.745	1051	2
298.15	0.996	1067	2
298.15	1.226	1084	3
298.15	1.453	1100	3
303.15	0.25	1014	2
303.15	0.496	1031	2
303.15	0.745	1049	2
303.15	0.996	1065	2
303.15	1.226	1081	3
303.15	1.453	1097	3
313.15	0.25	1010	2
313.15	0.496	1027	2
313.15	0.745	1044	2
313.15	0.996	1060	2
313.15	1.226	1077	3
313.15	1.453	1092	3
323.15	0.25	1005	1
323.15	0.496	1022	2
323.15	0.745	1039	2
323.15	0.996	1055	2
323.15	1.226	1071	3
323.15	1.453	1087	3
333.15	0.25	1001	1
333.15	0.496	1017	2
333.15	0.745	1034	2
333.15	0.996	1049	2
333.15	1.226	1066	2
333.15	1.453	1081	3
