Measured thermophysical data. Density and Surface Tension Measurements of Imidazolium-, Quaternary Phosphonium-, and Ammonium-Based Room-Temperature Ionic Liquids: Data and Correlations
Source: J. Chem. Eng. Data, 2007, 10.1021/je7003098
Compound 1: 1-ethyl-3-methylimidazolium bis((trifluoromethyl)sulfonyl)imide, C8H11F6N3O4S2, InChI=1S/C6H11N2.C2F6NO4S2/c1-3-8-5-4-7(2)6-8;3-1(4,5)14(10,11)9-15(12,13)2(6,7)8/h4-6H,3H2,1-2H3;/q+1;-1
Compound 2: 1-hexyl-3-methylimidazolium bis[(trifluoromethyl)sulfonyl]imide, C12H19F6N3O4S2, InChI=1S/C10H19N2.C2F6NO4S2/c1-3-4-5-6-7-12-9-8-11(2)10-12;3-1(4,5)14(10,11)9-15(12,13)2(6,7)8/h8-10H,3-7H2,1-2H3;/q+1;-1
Compound 3: 1-ethyl-3-methylimidazolium trifluoromethanesulfonate, C7H11F3N2O3S, InChI=1S/C6H11N2.CHF3O3S/c1-3-8-5-4-7(2)6-8;2-1(3,4)8(5,6)7/h4-6H,3H2,1-2H3;(H,5,6,7)/q+1;/p-1, purity 99%
Compound 4: 1-butyl-3-methylimidazolium hexafluorophosphate, C8H15F6N2P, InChI=1S/C8H15N2.F6P/c1-3-4-5-10-7-6-9(2)8-10;1-7(2,3,4,5)6/h6-8H,3-5H2,1-2H3;/q+1;-1
Compound 5: trihexyl(tetradecyl)phosphonium chloride, C32H68ClP, InChI=1S/C32H68P.ClH/c1-5-9-13-17-18-19-20-21-22-23-24-28-32-33(29-25-14-10-6-2,30-26-15-11-7-3)31-27-16-12-8-4;/h5-32H2,1-4H3;1H/q+1;/p-1
Compound 6: tetradecyl(trihexyl)phosphonium dicyanamide, C34H68N3P, InChI=1S/C32H68P.C2N3/c1-5-9-13-17-18-19-20-21-22-23-24-28-32-33(29-25-14-10-6-2,30-26-15-11-7-3)31-27-16-12-8-4;3-1-5-2-4/h5-32H2,1-4H3;/q+1;-1
Compound 7: trihexyl(tetradecyl)phosphonium bis[(trifluoromethyl)sulfonyl]imide, C34H68F6NO4PS2, InChI=1S/C32H68P.C2F6NO4S2/c1-5-9-13-17-18-19-20-21-22-23-24-28-32-33(29-25-14-10-6-2,30-26-15-11-7-3)31-27-16-12-8-4;3-1(4,5)14(10,11)9-15(12,13)2(6,7)8/h5-32H2,1-4H3;/q+1;-1
Compound 8: tributylethylphosphonium diethylphosphate, C18H42O4P2, InChI=1S/C14H32P.C4H11O4P/c1-5-9-12-15(8-4,13-10-6-2)14-11-7-3;1-3-7-9(5,6)8-4-2/h5-14H2,1-4H3;3-4H2,1-2H3,(H,5,6)/q+1;/p-1
Compound 9: tributyl(tetradecyl)phosphonium 2-dodecylbenzenesulfonate, C44H85O3PS, InChI=1S/C26H56P.C18H30O3S/c1-5-9-13-14-15-16-17-18-19-20-21-22-26-27(23-10-6-2,24-11-7-3)25-12-8-4;1-2-3-4-5-6-7-8-9-10-11-14-17-15-12-13-16-18(17)22(19,20)21/h5-26H2,1-4H3;12-13,15-16H,2-11,14H2,1H3,(H,19,20,21)/q+1;/p-1
Compound 10: N,N-dimethyl-N-propyl-1-butanaminium 1,1,1-trifluoro-N-[(trifluoromethyl)sulfonyl]methanesulfonamide, C11H22F6N2O4S2, InChI=1S/C9H22N.C2F6NO4S2/c1-5-7-9-10(3,4)8-6-2;3-1(4,5)14(10,11)9-15(12,13)2(6,7)8/h5-9H2,1-4H3;/q+1;-1
Compound 11: N-Hexyl-N,N-dimethyl-1-propanaminium bis[(trifluoromethyl)sulfonyl]imide, C13H26F6N2O4S2, InChI=1S/C11H26N.C2F6NO4S2/c1-5-7-8-9-11-12(3,4)10-6-2;3-1(4,5)14(10,11)9-15(12,13)2(6,7)8/h5-11H2,1-4H3;/q+1;-1
Compound 12: N,N-dimethyl-N-propyldecanaminium 1,1,1-trifluoro-N-[(trifluoromethyl)sulfonyl]methanesulfonamide, C17H34F6N2O4S2, InChI=1S/C15H34N.C2F6NO4S2/c1-5-7-8-9-10-11-12-13-15-16(3,4)14-6-2;3-1(4,5)14(10,11)9-15(12,13)2(6,7)8/h5-15H2,1-4H3;/q+1;-1
Compound 13: methyltrioctylammonium 1,1,1-trifluoro-N-[(trifluoromethyl)sulfonyl]methanesulfonamide, C27H54F6N2O4S2, InChI=1S/C25H54N.C2F6NO4S2/c1-5-8-11-14-17-20-23-26(4,24-21-18-15-12-9-6-2)25-22-19-16-13-10-7-3;3-1(4,5)14(10,11)9-15(12,13)2(6,7)8/h5-25H2,1-4H3;/q+1;-1
Compound 14: butyltrimethylammonium bis(trifluoromethylsulfonyl)imide, C9H18F6N2O4S2, InChI=1S/C7H18N.C2F6NO4S2/c1-5-6-7-8(2,3)4;3-1(4,5)14(10,11)9-15(12,13)2(6,7)8/h5-7H2,1-4H3;/q+1;-1
Compound 15: hexyltrimethylammonium bis[(trifluoromethyl)sulfonyl]imide, C11H22F6N2O4S2, InChI=1S/C9H22N.C2F6NO4S2/c1-5-6-7-8-9-10(2,3)4;3-1(4,5)14(10,11)9-15(12,13)2(6,7)8/h5-9H2,1-4H3;/q+1;-1
Compound 16: N,N,N-Trimethyl-1-decanaminium bis[(trifluoromethyl)sulfonyl]imide, C15H30F6N2O4S2, InChI=1S/C13H30N.C2F6NO4S2/c1-5-6-7-8-9-10-11-12-13-14(2,3)4;3-1(4,5)14(10,11)9-15(12,13)2(6,7)8/h5-13H2,1-4H3;/q+1;-1
Compound 17: triethylhexylammonium bis((trifluoromethyl)sulfonyl)imide, C14H28F6N2O4S2, InChI=1S/C12H28N.C2F6NO4S2/c1-5-9-10-11-12-13(6-2,7-3)8-4;3-1(4,5)14(10,11)9-15(12,13)2(6,7)8/h5-12H2,1-4H3;/q+1;-1

System: 1-ethyl-3-methylimidazolium bis((trifluoromethyl)sulfonyl)imide; phases: Liquid, Air at 1 atmosphere
Property: Surface tension liquid-gas, N/m (Liquid); method: Ring tensiometer
Temperature, K	Surface tension liquid-gas, N/m	uncertainty
298.7	0.04162	0.00585
302.05	0.04138	0.00582
305.74	0.04119	0.00579
309.16	0.04102	0.00577
312.6	0.04087	0.00575
316.2	0.04067	0.00572
319.33	0.0405	0.0057
322.63	0.04039	0.00568
326.13	0.04019	0.00565
331.02	0.03994	0.00562

System: 1-hexyl-3-methylimidazolium bis[(trifluoromethyl)sulfonyl]imide; phases: Liquid, Air at 1 atmosphere
Property: Surface tension liquid-gas, N/m (Liquid); method: Ring tensiometer
Temperature, K	Surface tension liquid-gas, N/m	uncertainty
297.22	0.03598	0.00506
301.22	0.03579	0.00503
305.48	0.03554	0.005
309.14	0.03535	0.00497
312.48	0.03515	0.00494
316.28	0.03503	0.00493
319.87	0.03484	0.0049
323.57	0.03463	0.00487
327.48	0.03445	0.00485
331.24	0.03426	0.00482
334.91	0.03407	0.00479
340.92	0.03376	0.00475
346.42	0.03344	0.0047

System: 1-ethyl-3-methylimidazolium trifluoromethanesulfonate; phases: Liquid, Air at 1 atmosphere
Property: Surface tension liquid-gas, N/m (Liquid); method: Ring tensiometer
Temperature, K	Surface tension liquid-gas, N/m	uncertainty
296.28	0.04446	0.00625
300.79	0.04436	0.00624
304.95	0.0442	0.00622
308.14	0.04407	0.0062
312.41	0.0439	0.00617
317.15	0.04381	0.00616
321.93	0.04364	0.00614
328.68	0.04337	0.0061
333.64	0.04315	0.00607
337.82	0.04299	0.00605
343.49	0.04282	0.00602
347.91	0.04262	0.00599
353.56	0.04249	0.00598

System: 1-butyl-3-methylimidazolium hexafluorophosphate; phases: Liquid, Air at 1 atmosphere
Property: Surface tension liquid-gas, N/m (Liquid); method: Ring tensiometer
Temperature, K	Surface tension liquid-gas, N/m	uncertainty
298.15	0.04792	0.0068
301.32	0.04771	0.00677
305.79	0.04748	0.00674
309.6	0.04729	0.00671
315.44	0.04692	0.00666
319.95	0.04655	0.00661
325.06	0.04615	0.00655
328.68	0.04604	0.00654
332.22	0.04581	0.0065
335.61	0.04541	0.00645

System: trihexyl(tetradecyl)phosphonium chloride; phases: Liquid, Air at 1 atmosphere
Property: Surface tension liquid-gas, N/m (Liquid); method: Ring tensiometer
Temperature, K	Surface tension liquid-gas, N/m	uncertainty
297.99	0.03362	0.00477
302.94	0.03315	0.00471
307.4	0.03272	0.00465
312.09	0.0323	0.00459
315.84	0.03201	0.00455
319.49	0.03174	0.00451
323.95	0.03143	0.00446
327.96	0.03115	0.00442
332.81	0.03076	0.00437
337.27	0.03042	0.00432
342.09	0.03	0.00426
347.68	0.02955	0.0042

System: trihexyl(tetradecyl)phosphonium chloride; phases: Liquid
Fixed: Pressure, kPa = 101.325
Property: Mass density, kg/m3 (Liquid); method: Pycnometric method
Temperature, K	Mass density, kg/m3	uncertainty
298.15	882.6	25.1
303.15	880.1	25.1
308.15	877.9	25.1
313.15	875.4	25.1
318.15	873.1	25.1
323.15	869.4	25.1
328.15	866.9	25.1
333.15	864.4	25.1

System: tetradecyl(trihexyl)phosphonium dicyanamide; phases: Liquid, Air at 1 atmosphere
Property: Surface tension liquid-gas, N/m (Liquid); method: Ring tensiometer
Temperature, K	Surface tension liquid-gas, N/m	uncertainty
295.06	0.03522	0.00503
299.35	0.03485	0.00498
302.95	0.03458	0.00494
305.04	0.03445	0.00492
310.4	0.03406	0.00486
314.39	0.0338	0.00483
318.38	0.0335	0.00478
322.47	0.03324	0.00475
326.14	0.03294	0.0047
327.42	0.03261	0.00466
333.02	0.0322	0.0046
338.6	0.03166	0.00452
343.13	0.03133	0.00447
348.47	0.03109	0.00444

System: tetradecyl(trihexyl)phosphonium dicyanamide; phases: Liquid
Fixed: Pressure, kPa = 101.325
Property: Mass density, kg/m3 (Liquid); method: Pycnometric method
Temperature, K	Mass density, kg/m3	uncertainty
298.15	920.9	25.4
303.15	917.3	25.4
308.15	916.3	25.4
313.15	913.1	25.4
318.15	910.1	25.4
323.15	907.5	25.4
328.15	905	25.4
333.15	902.4	25.4

System: trihexyl(tetradecyl)phosphonium bis[(trifluoromethyl)sulfonyl]imide; phases: Liquid, Air at 1 atmosphere
Property: Surface tension liquid-gas, N/m (Liquid); method: Ring tensiometer
Temperature, K	Surface tension liquid-gas, N/m	uncertainty
298.2	0.03308	0.00468
303	0.03257	0.0046
308	0.03215	0.00455
313	0.03177	0.00449
318	0.0314	0.00444
323.3	0.03109	0.0044
327.9	0.03065	0.00433
332.9	0.03028	0.00428
338.9	0.02968	0.0042
344.2	0.02945	0.00416
349.8	0.02893	0.00409

System: trihexyl(tetradecyl)phosphonium bis[(trifluoromethyl)sulfonyl]imide; phases: Liquid
Fixed: Pressure, kPa = 101.325
Property: Mass density, kg/m3 (Liquid); method: Pycnometric method
Temperature, K	Mass density, kg/m3	uncertainty
298.15	1050.1	25.1
303.15	1048.3	25.1
308.15	1045.2	25.1
313.15	1042	25.1
318.15	1039.2	25.1
323.15	1035.6	25.1
328.15	1032.9	25.1
333.15	1029.6	25.1

System: tributylethylphosphonium diethylphosphate; phases: Liquid, Air at 1 atmosphere
Property: Surface tension liquid-gas, N/m (Liquid); method: Ring tensiometer
Temperature, K	Surface tension liquid-gas, N/m	uncertainty
296.66	0.0336	0.0048
302.18	0.03329	0.00475
307.24	0.03314	0.00473
312.34	0.03282	0.00469
318.36	0.03224	0.0046
323.59	0.03162	0.00452
329.67	0.03114	0.00445
336.36	0.03066	0.00438
343.4	0.03015	0.00431
347.75	0.02982	0.00426
350.86	0.02959	0.00423

System: tributylethylphosphonium diethylphosphate; phases: Liquid
Fixed: Pressure, kPa = 101.325
Property: Mass density, kg/m3 (Liquid); method: Pycnometric method
Temperature, K	Mass density, kg/m3	uncertainty
298.15	997.8	25.5
303.15	995.7	25.5
308.15	992.8	25.5
313.15	989.7	25.5
318.15	985.8	25.5
323.15	982.6	25.5
328.15	979.5	25.5
333.15	975.8	25.5

System: tributyl(tetradecyl)phosphonium 2-dodecylbenzenesulfonate; phases: Liquid
Fixed: Pressure, kPa = 101.325
Property: Mass density, kg/m3 (Liquid); method: Pycnometric method
Temperature, K	Mass density, kg/m3	uncertainty
298.15	938.4	25.4
303.15	937.1	25.4
308.15	933.7	25.4
313.15	931.1	25.4
318.15	928.4	25.4
323.15	925.4	25.4
328.15	922.8	25.4
333.15	920.1	25.4

System: N,N-dimethyl-N-propyl-1-butanaminium 1,1,1-trifluoro-N-[(trifluoromethyl)sulfonyl]methanesulfonamide; phases: Liquid, Air at 1 atmosphere
Property: Surface tension liquid-gas, N/m (Liquid); method: Ring tensiometer
Temperature, K	Surface tension liquid-gas, N/m	uncertainty
299.1	0.03838	0.00548
300.1	0.03833	0.00547
301.4	0.03825	0.00546
303	0.03817	0.00545
305.2	0.03803	0.00543
307.8	0.03786	0.0054
310.6	0.0377	0.00538
313.4	0.03754	0.00536
315.4	0.03741	0.00534
317	0.03732	0.00533
319	0.03721	0.00531
321.1	0.0371	0.0053
323.1	0.03703	0.00529
324.9	0.03693	0.00527

System: N,N-dimethyl-N-propyl-1-butanaminium 1,1,1-trifluoro-N-[(trifluoromethyl)sulfonyl]methanesulfonamide; phases: Liquid
Fixed: Pressure, kPa = 101.325
Property: Mass density, kg/m3 (Liquid); method: Pycnometric method
Temperature, K	Mass density, kg/m3	uncertainty
298.15	1348.3	26.6
303.15	1345.7	26.6
308.15	1342.1	26.6
313.15	1337.8	26.6
318.15	1334.1	26.6
323.15	1329.7	26.6
328.15	1325.8	26.6
333.15	1321.5	26.6

System: N-Hexyl-N,N-dimethyl-1-propanaminium bis[(trifluoromethyl)sulfonyl]imide; phases: Liquid, Air at 1 atmosphere
Property: Surface tension liquid-gas, N/m (Liquid); method: Ring tensiometer
Temperature, K	Surface tension liquid-gas, N/m	uncertainty
300.1	0.03674	0.00525
302	0.03658	0.00522
303.1	0.03649	0.00521
304	0.03642	0.0052
306	0.03625	0.00518
308.1	0.03611	0.00516
312.3	0.03578	0.00511
315.2	0.03555	0.00508
318	0.03533	0.00504
320.6	0.03514	0.00502
322.6	0.03501	0.005

System: N-Hexyl-N,N-dimethyl-1-propanaminium bis[(trifluoromethyl)sulfonyl]imide; phases: Liquid
Fixed: Pressure, kPa = 101.325
Property: Mass density, kg/m3 (Liquid); method: Pycnometric method
Temperature, K	Mass density, kg/m3	uncertainty
298.15	1284.6	26.4
303.15	1281.6	26.4
308.15	1277.5	26.4
313.15	1273.2	26.3
318.15	1269.9	26.3
323.15	1266	26.3
328.15	1266	26.3
333.15	1258.5	26.3

System: N,N-dimethyl-N-propyldecanaminium 1,1,1-trifluoro-N-[(trifluoromethyl)sulfonyl]methanesulfonamide; phases: Liquid, Air at 1 atmosphere
Property: Surface tension liquid-gas, N/m (Liquid); method: Ring tensiometer
Temperature, K	Surface tension liquid-gas, N/m	uncertainty
300	0.03613	0.00516
300.6	0.03606	0.00515
301.8	0.03594	0.00513
303	0.03581	0.00511
305.1	0.03561	0.00508
306.5	0.03548	0.00507
308.1	0.03535	0.00505
310.2	0.03514	0.00502
313	0.03492	0.00499
315.2	0.03474	0.00496
317	0.03459	0.00494
318.2	0.03448	0.00492
320.3	0.03432	0.0049
323.1	0.0341	0.00487
325.3	0.03396	0.00485
328.1	0.03379	0.00482

System: N,N-dimethyl-N-propyldecanaminium 1,1,1-trifluoro-N-[(trifluoromethyl)sulfonyl]methanesulfonamide; phases: Liquid
Fixed: Pressure, kPa = 101.325
Property: Mass density, kg/m3 (Liquid); method: Pycnometric method
Temperature, K	Mass density, kg/m3	uncertainty
298.15	1200.7	26.1
303.15	1197.7	26.1
308.15	1194.2	26
313.15	1190.8	26
318.15	1186.9	26
323.15	1186.9	26
328.15	1183.8	26
333.15	1176	26

System: methyltrioctylammonium 1,1,1-trifluoro-N-[(trifluoromethyl)sulfonyl]methanesulfonamide; phases: Liquid, Air at 1 atmosphere
Property: Surface tension liquid-gas, N/m (Liquid); method: Ring tensiometer
Temperature, K	Surface tension liquid-gas, N/m	uncertainty
299.46	0.02906	0.00415
303.25	0.02893	0.00413
310.18	0.02853	0.00407
313.77	0.02823	0.00403
318.67	0.02785	0.00398
321	0.02763	0.00395
326.3	0.02718	0.00388
329.6	0.02701	0.00386
336.79	0.02669	0.00381

System: methyltrioctylammonium 1,1,1-trifluoro-N-[(trifluoromethyl)sulfonyl]methanesulfonamide; phases: Liquid
Fixed: Pressure, kPa = 101.325
Property: Mass density, kg/m3 (Liquid); method: Pycnometric method
Temperature, K	Mass density, kg/m3	uncertainty
298.15	1082.3	25.7
303.15	1080.3	25.7
308.15	1077.3	25.7
313.15	1073.8	25.7
318.15	1073.8	25.7
323.15	1067.2	25.7
328.15	1063.9	25.7
333.15	1061.1	25.7

System: butyltrimethylammonium bis(trifluoromethylsulfonyl)imide; phases: Liquid, Air at 1 atmosphere
Property: Surface tension liquid-gas, N/m (Liquid); method: Ring tensiometer
Temperature, K	Surface tension liquid-gas, N/m	uncertainty
298.35	0.03805	0.00543
302.33	0.0379	0.00541
306.15	0.0378	0.0054
309.93	0.03769	0.00538
314.79	0.03748	0.00535
320.39	0.03728	0.00532
326.4	0.03709	0.0053
330.16	0.03691	0.00527
335.64	0.03668	0.00524
340.58	0.0365	0.00521

System: butyltrimethylammonium bis(trifluoromethylsulfonyl)imide; phases: Liquid
Fixed: Pressure, kPa = 101.325
Property: Mass density, kg/m3 (Liquid); method: Pycnometric method
Temperature, K	Mass density, kg/m3	uncertainty
298.15	1374.7	26.8
303.15	1368.6	26.8
308.15	1365.6	26.7
313.15	1361.4	26.7
318.15	1357.3	26.7
323.15	1353.7	26.7
328.15	1349.7	26.7
333.15	1343.9	26.7

System: hexyltrimethylammonium bis[(trifluoromethyl)sulfonyl]imide; phases: Liquid, Air at 1 atmosphere
Property: Surface tension liquid-gas, N/m (Liquid); method: Ring tensiometer
Temperature, K	Surface tension liquid-gas, N/m	uncertainty
300.35	0.03588	0.00512
302.35	0.03571	0.0051
304.25	0.03557	0.00508
307.65	0.03532	0.00504
311.05	0.03509	0.00501
314.75	0.03486	0.00498
318.15	0.03464	0.00495
322.55	0.03436	0.00491
326.25	0.03414	0.00487
331.35	0.03386	0.00483
333.35	0.03377	0.00482

System: hexyltrimethylammonium bis[(trifluoromethyl)sulfonyl]imide; phases: Liquid
Fixed: Pressure, kPa = 101.325
Property: Mass density, kg/m3 (Liquid); method: Pycnometric method
Temperature, K	Mass density, kg/m3	uncertainty
298.15	1310.6	26.5
303.15	1307.8	26.5
308.15	1304	26.5
313.15	1299.5	26.4
318.15	1295.7	26.4
323.15	1292.1	26.4
328.15	1287.9	26.4
333.15	1283.9	26.4

System: N,N,N-Trimethyl-1-decanaminium bis[(trifluoromethyl)sulfonyl]imide; phases: Liquid, Air at 1 atmosphere
Property: Surface tension liquid-gas, N/m (Liquid); method: Ring tensiometer
Temperature, K	Surface tension liquid-gas, N/m	uncertainty
300.96	0.03542	0.00506
302.95	0.03512	0.00501
307.75	0.03481	0.00497
312.28	0.03455	0.00493
318.08	0.0342	0.00488
324.03	0.03371	0.00481
330.53	0.03336	0.00476
337.12	0.03282	0.00469
342.53	0.03251	0.00464
347.26	0.03223	0.0046

System: N,N,N-Trimethyl-1-decanaminium bis[(trifluoromethyl)sulfonyl]imide; phases: Liquid
Fixed: Pressure, kPa = 101.325
Property: Mass density, kg/m3 (Liquid); method: Pycnometric method
Temperature, K	Mass density, kg/m3	uncertainty
298.15	1226.3	26.2
303.15	1222.2	26.1
308.15	1218.6	26.1
313.15	1214.7	26.1
318.15	1210.6	26.1
323.15	1206.3	26.1
328.15	1204.7	26.1
333.15	1200.3	26.1

System: triethylhexylammonium bis((trifluoromethyl)sulfonyl)imide; phases: Liquid, Air at 1 atmosphere
Property: Surface tension liquid-gas, N/m (Liquid); method: Ring tensiometer
Temperature, K	Surface tension liquid-gas, N/m	uncertainty
299.54	0.03517	0.00502
302.65	0.0349	0.00498
307.05	0.03445	0.00492
313.73	0.03388	0.00484
319.84	0.03349	0.00478
324.94	0.03298	0.00471
329.34	0.03272	0.00467
335.04	0.03247	0.00464
341.93	0.03198	0.00457
347.11	0.03145	0.00449

System: triethylhexylammonium bis((trifluoromethyl)sulfonyl)imide; phases: Liquid
Fixed: Pressure, kPa = 101.325
Property: Mass density, kg/m3 (Liquid); method: Pycnometric method
Temperature, K	Mass density, kg/m3	uncertainty
298.15	1279.3	26.4
303.15	1275.4	26.3
308.15	1271.9	26.3
313.15	1267.6	26.3
318.15	1264.4	26.3
323.15	1260.8	26.3
328.15	1257.4	26.3
333.15	1253	26.3
