Measured thermophysical data. Henry s Law Constants of Some Aromatic Aldehydes and Ketones Measured by an Internal Standard Method
Source: J. Chem. Eng. Data, 2008, 10.1021/je700612b
Compound 1: acetophenone, C8H8O, InChI=1S/C8H8O/c1-7(9)8-5-3-2-4-6-8/h2-6H,1H3
Compound 2: phenol, C6H6O, InChI=1S/C6H6O/c7-6-4-2-1-3-5-6/h1-5,7H
Compound 3: 2-hydroxybenzaldehyde, C7H6O2, InChI=1S/C7H6O2/c8-5-6-3-1-2-4-7(6)9/h1-5,9H
Compound 4: 2-methylbenzaldehyde, C8H8O, InChI=1S/C8H8O/c1-7-4-2-3-5-8(7)6-9/h2-6H,1H3
Compound 5: 3-methylbenzaldehyde, C8H8O, InChI=1S/C8H8O/c1-7-3-2-4-8(5-7)6-9/h2-6H,1H3
Compound 6: 4-methylbenzaldehyde, C8H8O, InChI=1S/C8H8O/c1-7-2-4-8(6-9)5-3-7/h2-6H,1H3
Compound 7: 2-methoxybenzaldehyde, C8H8O2, InChI=1S/C8H8O2/c1-10-8-5-3-2-4-7(8)6-9/h2-6H,1H3
Compound 8: 3-methoxybenzaldehyde, C8H8O2, InChI=1S/C8H8O2/c1-10-8-4-2-3-7(5-8)6-9/h2-6H,1H3
Compound 9: 4-methoxybenzaldehyde, C8H8O2, InChI=1S/C8H8O2/c1-10-8-4-2-7(6-9)3-5-8/h2-6H,1H3
Compound 10: ethyl phenyl ketone, C9H10O, InChI=1S/C9H10O/c1-2-9(10)8-6-4-3-5-7-8/h3-7H,2H2,1H3
Compound 11: 2-methylacetophenone, C9H10O, InChI=1S/C9H10O/c1-7-5-3-4-6-9(7)8(2)10/h3-6H,1-2H3
Compound 12: 3'-methylacetophenone, C9H10O, InChI=1S/C9H10O/c1-7-4-3-5-9(6-7)8(2)10/h3-6H,1-2H3
Compound 13: 2'-methoxyacetophenone, C9H10O2, InChI=1S/C9H10O2/c1-7(10)8-5-3-4-6-9(8)11-2/h3-6H,1-2H3
Compound 14: 3'-methoxyacetophenone, C9H10O2, InChI=1S/C9H10O2/c1-7(10)8-4-3-5-9(6-8)11-2/h3-6H,1-2H3
Compound 15: 1-(2-hydroxyphenyl)ethanone, C8H8O2, InChI=1S/C8H8O2/c1-6(9)7-4-2-3-5-8(7)10/h2-5,10H,1H3
Compound 16: water, H2O, InChI=1S/H2O/h1H2
Compound 17: 4'-methylacetophenone, C9H10O, InChI=1S/C9H10O/c1-7-3-5-9(6-4-7)8(2)10/h3-6H,1-2H3

System: acetophenone + water; phases: Gas, Liquid
Fixed: Mole fraction of acetophenone = 0
Property: Amount concentration (molarity), mol/dm3 of acetophenone (Gas); method: Chromatography
Temperature, K	Amount concentration (molarity), mol/dm3 of acetophenone	uncertainty
278	5.6e-05	1.8e-05
283	8.1e-05	2.4e-05
288	0.00013	4e-05
293	0.00019	6e-05
298	0.00035	8e-05

System: phenol + water; phases: Gas, Liquid
Fixed: Mole fraction of phenol = 0
Property: Amount concentration (molarity), mol/dm3 of phenol (Gas); method: Chromatography
Temperature, K	Amount concentration (molarity), mol/dm3 of phenol	uncertainty
278	1.8e-06	8e-07
283	3.2e-06	1.2e-06
288	6e-06	2.2e-06
293	1.1e-05	4e-06
298	1.7e-05	6e-06

System: 2-hydroxybenzaldehyde + water; phases: Gas, Liquid
Fixed: Mole fraction of 2-hydroxybenzaldehyde = 0
Property: Amount concentration (molarity), mol/dm3 of 2-hydroxybenzaldehyde (Gas); method: Chromatography
Temperature, K	Amount concentration (molarity), mol/dm3 of 2-hydroxybenzaldehyde	uncertainty
278	9.1e-05	3.2e-05
283	0.00012	4e-05
288	0.00019	6e-05
293	0.00025	8e-05
298	0.00038	0.0001

System: 2-methylbenzaldehyde + water; phases: Gas, Liquid
Fixed: Mole fraction of 2-methylbenzaldehyde = 0
Property: Amount concentration (molarity), mol/dm3 of 2-methylbenzaldehyde (Gas); method: Chromatography
Temperature, K	Amount concentration (molarity), mol/dm3 of 2-methylbenzaldehyde	uncertainty
278	0.00027	0.0001
283	0.00039	0.00012
288	0.00057	0.00016
293	0.00085	0.00026
298	0.00136	0.0003

System: 3-methylbenzaldehyde + water; phases: Gas, Liquid
Fixed: Mole fraction of 3-methylbenzaldehyde = 0
Property: Amount concentration (molarity), mol/dm3 of 3-methylbenzaldehyde (Gas); method: Chromatography
Temperature, K	Amount concentration (molarity), mol/dm3 of 3-methylbenzaldehyde	uncertainty
278	0.00023	8e-05
283	0.00034	0.0001
288	0.00048	0.00014
293	0.00073	0.00022
298	0.00126	0.00028

System: 4-methylbenzaldehyde + water; phases: Gas, Liquid
Fixed: Mole fraction of 4-methylbenzaldehyde = 0
Property: Amount concentration (molarity), mol/dm3 of 4-methylbenzaldehyde (Gas); method: Chromatography
Temperature, K	Amount concentration (molarity), mol/dm3 of 4-methylbenzaldehyde	uncertainty
278	0.00015	6e-05
283	0.00022	6e-05
288	0.00031	0.0001
293	0.00047	0.00014
298	0.00083	0.0002

System: 2-methoxybenzaldehyde + water; phases: Gas, Liquid
Fixed: Mole fraction of 2-methoxybenzaldehyde = 0
Property: Amount concentration (molarity), mol/dm3 of 2-methoxybenzaldehyde (Gas); method: Chromatography
Temperature, K	Amount concentration (molarity), mol/dm3 of 2-methoxybenzaldehyde	uncertainty
278	5e-06	1.8e-06
283	8.9e-06	2.8e-06
288	1.3e-05	4e-06
293	2.2e-05	8e-06
298	4.3e-05	1e-05

System: 3-methoxybenzaldehyde + water; phases: Gas, Liquid
Fixed: Mole fraction of 3-methoxybenzaldehyde = 0
Property: Amount concentration (molarity), mol/dm3 of 3-methoxybenzaldehyde (Gas); method: Chromatography
Temperature, K	Amount concentration (molarity), mol/dm3 of 3-methoxybenzaldehyde	uncertainty
278	1e-05	4e-06
283	1.9e-05	6e-06
288	2.7e-05	8e-06
293	4.3e-05	1.4e-05
298	8.6e-05	2e-05

System: 4-methoxybenzaldehyde + water; phases: Gas, Liquid
Fixed: Mole fraction of 4-methoxybenzaldehyde = 0
Property: Amount concentration (molarity), mol/dm3 of 4-methoxybenzaldehyde (Gas); method: Chromatography
Temperature, K	Amount concentration (molarity), mol/dm3 of 4-methoxybenzaldehyde	uncertainty
278	2.1e-06	8e-07
283	4e-06	1.4e-06
288	6.2e-06	2e-06
293	9.9e-06	3.2e-06
298	1.7e-05	4e-06

System: ethyl phenyl ketone + water; phases: Gas, Liquid
Fixed: Mole fraction of ethyl phenyl ketone = 0
Property: Amount concentration (molarity), mol/dm3 of ethyl phenyl ketone (Gas); method: Chromatography
Temperature, K	Amount concentration (molarity), mol/dm3 of ethyl phenyl ketone	uncertainty
278	6.7e-05	2.6e-05
283	0.00011	4e-05
288	0.00014	4e-05
293	0.00026	8e-05
298	0.00043	0.00012

System: 2-methylacetophenone + water; phases: Gas, Liquid
Fixed: Mole fraction of 2-methylacetophenone = 0
Property: Amount concentration (molarity), mol/dm3 of 2-methylacetophenone (Gas); method: Chromatography
Temperature, K	Amount concentration (molarity), mol/dm3 of 2-methylacetophenone	uncertainty
278	9.1e-05	3.4e-05
283	0.00015	4e-05
288	0.00021	6e-05
293	0.00033	0.0001
298	0.00056	0.00014

System: 3'-methylacetophenone + water; phases: Gas, Liquid
Fixed: Mole fraction of 3'-methylacetophenone = 0
Property: Amount concentration (molarity), mol/dm3 of 3'-methylacetophenone (Gas); method: Chromatography
Temperature, K	Amount concentration (molarity), mol/dm3 of 3'-methylacetophenone	uncertainty
278	4.5e-05	1.6e-05
283	7.3e-05	2.4e-05
288	0.00011	4e-05
293	0.00016	6e-05
298	0.00028	8e-05

System: 4'-methylacetophenone + water; phases: Gas, Liquid
Fixed: Mole fraction of 4'-methylacetophenone = 0
Property: Amount concentration (molarity), mol/dm3 of 4'-methylacetophenone (Gas); method: Chromatography
Temperature, K	Amount concentration (molarity), mol/dm3 of 4'-methylacetophenone	uncertainty
278	3.4e-05	1.2e-05
283	5.1e-05	1.6e-05
288	7.3e-05	2.4e-05
293	0.00014	4e-05
298	0.00024	8e-05

System: 2'-methoxyacetophenone + water; phases: Gas, Liquid
Fixed: Mole fraction of 2'-methoxyacetophenone = 0
Property: Amount concentration (molarity), mol/dm3 of 2'-methoxyacetophenone (Gas); method: Chromatography
Temperature, K	Amount concentration (molarity), mol/dm3 of 2'-methoxyacetophenone	uncertainty
278	2.5e-06	1e-06
283	5e-06	1.6e-06
288	7.2e-06	2.4e-06
293	1.3e-05	4e-06
298	2.5e-05	6e-06

System: 3'-methoxyacetophenone + water; phases: Gas, Liquid
Fixed: Mole fraction of 3'-methoxyacetophenone = 0
Property: Amount concentration (molarity), mol/dm3 of 3'-methoxyacetophenone (Gas); method: Chromatography
Temperature, K	Amount concentration (molarity), mol/dm3 of 3'-methoxyacetophenone	uncertainty
278	2.3e-06	1e-06
283	4.4e-06	1.4e-06
288	6.4e-06	2.2e-06
293	1.1e-05	4e-06
298	2.3e-05	6e-06

System: 1-(2-hydroxyphenyl)ethanone + water; phases: Gas, Liquid
Fixed: Mole fraction of 1-(2-hydroxyphenyl)ethanone = 0
Property: Amount concentration (molarity), mol/dm3 of 1-(2-hydroxyphenyl)ethanone (Gas); method: Chromatography
Temperature, K	Amount concentration (molarity), mol/dm3 of 1-(2-hydroxyphenyl)ethanone	uncertainty
278	5.8e-05	2.2e-05
283	9.2e-05	2.8e-05
288	0.00015	4e-05
293	0.00024	8e-05
298	0.00041	0.0001
