Measured thermophysical data. Critical Properties of 1,2,2,2-Tetrafluoroethyl Trifluoromethyl Ether (HFE-227me) + Trifluoromethoxymethane (HFE-143m) and + Methyl Pentafluoroethyl Ether (HFE-245mc)
Source: J. Chem. Eng. Data, 2007, 10.1021/je700123q
Compound 1: trifluoromethoxymethane, C2H3F3O, InChI=1S/C2H3F3O/c1-6-2(3,4)5/h1H3, purity 99.9%
Compound 2: 1,1,1,2-tetrafluoro-2-(trifluoromethoxy)ethane, C3HF7O, InChI=1S/C3HF7O/c4-1(2(5,6)7)11-3(8,9)10/h1H, purity 99.9%
Compound 3: methyl pentafluoroethyl ether, C3H3F5O, InChI=1S/C3H3F5O/c1-9-3(7,8)2(4,5)6/h1H3, purity 99.9%

System: trifluoromethoxymethane; phases: Liquid, Gas
Property: Critical pressure, kPa (Liquid); method: Direct measurement
Critical pressure, kPa	uncertainty
3640	6

System: trifluoromethoxymethane; phases: Liquid, Gas
Property: Critical temperature, K (Liquid); method: Visual observation in an unstirred cell
Critical temperature, K	uncertainty
377.92	0.06

System: trifluoromethoxymethane; phases: Liquid, Gas
Property: Critical density, kg/m3 (Liquid); method: RECTID::UFactor:0.5
Critical density, kg/m3	uncertainty
459	5

System: 1,1,1,2-tetrafluoro-2-(trifluoromethoxy)ethane; phases: Liquid, Gas
Property: Critical pressure, kPa (Liquid); method: Direct measurement
Critical pressure, kPa	uncertainty
2621	4

System: 1,1,1,2-tetrafluoro-2-(trifluoromethoxy)ethane; phases: Liquid, Gas
Property: Critical temperature, K (Liquid); method: Visual observation in an unstirred cell
Critical temperature, K	uncertainty
377.26	0.06

System: 1,1,1,2-tetrafluoro-2-(trifluoromethoxy)ethane; phases: Liquid, Gas
Property: Critical density, kg/m3 (Liquid); method: RECTID:UFactor:0.5
Critical density, kg/m3	uncertainty
580	4

System: methyl pentafluoroethyl ether; phases: Liquid, Gas
Property: Critical pressure, kPa (Liquid); method: Direct measurement
Critical pressure, kPa	uncertainty
2885	6

System: methyl pentafluoroethyl ether; phases: Liquid, Gas
Property: Critical temperature, K (Liquid); method: Visual observation in an unstirred cell
Critical temperature, K	uncertainty
406.82	0.06

System: methyl pentafluoroethyl ether; phases: Liquid, Gas
Property: Critical density, kg/m3 (Liquid); method: RECTID::UFactor:0.5
Critical density, kg/m3	uncertainty
491	6

System: trifluoromethoxymethane + 1,1,1,2-tetrafluoro-2-(trifluoromethoxy)ethane; phases: Liquid, Gas
Property: Critical pressure, kPa (Liquid); method: Direct measurement
Mole fraction of 1,1,1,2-tetrafluoro-2-(trifluoromethoxy)ethane	Critical pressure, kPa	uncertainty
0	3640	6
0.1455	3480	6
0.2585	3357	7
0.4147	3191	8
0.5954	3009	9
0.7403	2871	9
1	2621	6

System: trifluoromethoxymethane + 1,1,1,2-tetrafluoro-2-(trifluoromethoxy)ethane; phases: Liquid, Gas
Property: Critical temperature, K (Liquid); method: Visual observation in an unstirred cell
Mole fraction of 1,1,1,2-tetrafluoro-2-(trifluoromethoxy)ethane	Critical temperature, K	uncertainty
0	377.92	0.06
0.1455	377.45	0.1
0.2585	377.16	0.1
0.4147	376.89	0.1
0.5954	376.82	0.1
0.7403	376.89	0.1
1	377.26	0.06

System: trifluoromethoxymethane + 1,1,1,2-tetrafluoro-2-(trifluoromethoxy)ethane; phases: Liquid, Gas
Property: Critical density, kg/m3 (Liquid); method: RECTID:UFactor:0.5
Mole fraction of 1,1,1,2-tetrafluoro-2-(trifluoromethoxy)ethane	Critical density, kg/m3	uncertainty
0	459	5
0.1455	480	6
0.2585	506	6
0.4147	523	6
0.5954	539	6
0.7403	558	7
1	580	7

System: 1,1,1,2-tetrafluoro-2-(trifluoromethoxy)ethane + methyl pentafluoroethyl ether; phases: Liquid, Gas
Property: Critical pressure, kPa (Liquid); method: Direct measurement
Mole fraction of 1,1,1,2-tetrafluoro-2-(trifluoromethoxy)ethane	Critical pressure, kPa	uncertainty
0	2885	6
0.1694	2866	6
0.2941	2836	6
0.4706	2794	6
0.6565	2738	7
0.7952	2692	7
1	2621	6

System: 1,1,1,2-tetrafluoro-2-(trifluoromethoxy)ethane + methyl pentafluoroethyl ether; phases: Liquid, Gas
Property: Critical temperature, K (Liquid); method: Visual observation in an unstirred cell
Mole fraction of 1,1,1,2-tetrafluoro-2-(trifluoromethoxy)ethane	Critical temperature, K	uncertainty
0	406.82	0.06
0.1694	401.38	0.1
0.2941	397.49	0.1
0.4706	392.17	0.1
0.6565	386.73	0.1
0.7952	382.8	0.1
1	377.26	0.06

System: 1,1,1,2-tetrafluoro-2-(trifluoromethoxy)ethane + methyl pentafluoroethyl ether; phases: Liquid, Gas
Property: Critical density, kg/m3 (Liquid); method: RECTID:UFactor:0.5
Mole fraction of 1,1,1,2-tetrafluoro-2-(trifluoromethoxy)ethane	Critical density, kg/m3	uncertainty
0	491	6
0.1694	510	6
0.2941	521	6
0.4706	536	6
0.6565	554	6
0.7952	566	7
1	580	7
