Measured thermophysical data. Densities and Volumetric Properties of Binary and Ternary Liquid Mixtures of Water (1) + Acetonitrile (2) + Dimethyl Sulfoxide (3) at Temperatures from (293.15 to 333.15) K and at Ambient Pressure (81.5 kPa)
Source: J. Chem. Eng. Data, 2008, 10.1021/je700645p
Compound 1: water, H2O, InChI=1S/H2O/h1H2
Compound 2: acetonitrile, C2H3N, InChI=1S/C2H3N/c1-2-3/h1H3
Compound 3: dimethyl sulfoxide, C2H6OS, InChI=1S/C2H6OS/c1-4(2)3/h1-2H3

System: acetonitrile; phases: Liquid
Property: Refractive index (Na D-line) (Liquid); method: Standard Abbe refractometry
Pressure, kPa	Temperature, K	Refractive index (Na D-line)	uncertainty
81.5	298.15	1.3417	0.0008

System: acetonitrile; phases: Liquid
Fixed: Pressure, kPa = 81.5
Property: Mass density, kg/m3 (Liquid); method: VIBTUB::UFactor:2
Temperature, K	Mass density, kg/m3	uncertainty
293.15	781.97	0.24
303.15	771.15	0.25
313.15	760.2	0.3
323.15	749.12	0.26
333.15	737.87	0.27

System: dimethyl sulfoxide; phases: Liquid
Property: Refractive index (Na D-line) (Liquid); method: Standard Abbe refractometry
Pressure, kPa	Temperature, K	Refractive index (Na D-line)	uncertainty
81.5	298.15	1.4767	0.0008

System: dimethyl sulfoxide; phases: Liquid
Fixed: Pressure, kPa = 81.5
Property: Mass density, kg/m3 (Liquid); method: VIBTUB:UFactor:4
Temperature, K	Mass density, kg/m3	uncertainty
293.15	1100.41	0.34
303.15	1090.37	0.32
313.15	1080.34	0.31
323.15	1070.3	0.29
333.15	1060.27	0.27

System: acetonitrile + water; phases: Liquid
Fixed: Pressure, kPa = 81.5
Property: Mass density, kg/m3 (Liquid); method: VIBTUB:UFactor:2
Temperature, K	Mole fraction of water	Mass density, kg/m3	uncertainty
293.15	0	781.97	0.24
293.15	0.0417	785.6	0.2
293.15	0.0833	789.62	0.23
293.15	0.1568	797.67	0.23
293.15	0.2095	804.01	0.22
293.15	0.3247	819.96	0.21
293.15	0.4127	834.27	0.2
293.15	0.496	849.71	0.18
293.15	0.5704	864.78	0.17
293.15	0.6361	880.12	0.16
293.15	0.7201	902.94	0.14
293.15	0.7961	926.99	0.12
293.15	0.8788	956.73	0.1
293.15	0.9573	984.72	0.08
293.15	1	998.2	0.07
303.15	0	771.15	0.25
303.15	0.0417	774.79	0.24
303.15	0.0833	778.83	0.24
303.15	0.1568	786.95	0.23
303.15	0.2095	793.33	0.23
303.15	0.3247	809.63	0.22
303.15	0.4127	824.27	0.2
303.15	0.496	840.11	0.19
303.15	0.5704	855.57	0.18
303.15	0.6361	871.32	0.17
303.15	0.7201	894.74	0.15
303.15	0.7961	919.47	0.13
303.15	0.8788	950.35	0.1
303.15	0.9573	980.43	0.08
303.15	1	995.64	0.07
313.15	0	760.2	0.3
313.15	0.0417	763.85	0.25
313.15	0.0833	767.91	0.25
313.15	0.1568	776.09	0.24
313.15	0.2095	782.6	0.2
313.15	0.3247	799.11	0.22
313.15	0.4127	814.05	0.21
313.15	0.496	830.25	0.2
313.15	0.5704	846.08	0.19
313.15	0.6361	862.22	0.17
313.15	0.7201	886.22	0.15
313.15	0.7961	911.61	0.13
313.15	0.8788	943.52	0.11
313.15	0.9573	975.45	0.08
313.15	1	992.21	0.07
323.15	0	749.12	0.26
323.15	0.0417	752.77	0.26
323.15	0.0833	756.84	0.26
323.15	0.1568	765.06	0.25
323.15	0.2095	771.62	0.25
323.15	0.3247	788.38	0.23
323.15	0.4127	803.6	0.2
323.15	0.496	820.14	0.21
323.15	0.5704	836.32	0.19
323.15	0.6361	852.82	0.18
323.15	0.7201	877.38	0.16
323.15	0.7961	903.39	0.14
323.15	0.8788	936.28	0.12
323.15	0.9573	969.87	0.09
323.15	1	988.03	0.07
333.15	0	737.87	0.27
333.15	0.0417	741.52	0.27
333.15	0.0833	745.6	0.3
333.15	0.1568	753.85	0.26
333.15	0.2095	760.47	0.25
333.15	0.3247	777.43	0.24
333.15	0.4127	792.91	0.23
333.15	0.496	809.77	0.21
333.15	0.5704	826.29	0.2
333.15	0.6361	843.13	0.19
333.15	0.7201	868.22	0.17
333.15	0.7961	894.84	0.15
333.15	0.8788	928.67	0.12
333.15	0.9573	963.64	0.09
333.15	1	983.19	0.08

System: dimethyl sulfoxide + water; phases: Liquid
Fixed: Pressure, kPa = 81.5
Property: Mass density, kg/m3 (Liquid); method: VIBTUB:UFactor:4
Temperature, K	Mole fraction of water	Mass density, kg/m3	uncertainty
293.15	0	1100.41	0.34
293.15	0.0568	1100.94	0.34
293.15	0.1605	1101.91	0.33
293.15	0.2252	1102.54	0.32
293.15	0.3187	1103.26	0.32
293.15	0.3953	1103.54	0.31
293.15	0.4582	1103.48	0.31
293.15	0.5473	1102.05	0.3
293.15	0.6473	1097.2	0.29
293.15	0.7213	1089.55	0.27
293.15	0.7997	1075.48	0.25
293.15	0.8828	1051.12	0.21
293.15	0.9632	1016.98	0.15
293.15	1	998.2	0.13
303.15	0	1090.37	0.32
303.15	0.0568	1090.97	0.32
303.15	0.1605	1092.1	0.31
303.15	0.2252	1092.83	0.31
303.15	0.3187	1093.73	0.3
303.15	0.3953	1094.31	0.3
303.15	0.4582	1094.25	0.3
303.15	0.5473	1093.11	0.29
303.15	0.6473	1088.67	0.28
303.15	0.7213	1081.52	0.26
303.15	0.7997	1068.31	0.24
303.15	0.8828	1045.47	0.2
303.15	0.9632	1013.46	0.15
303.15	1	995.64	0.13
313.15	0	1080.34	0.31
313.15	0.0568	1081.01	0.3
313.15	0.1605	1082.26	0.3
313.15	0.2252	1083.1	0.3
313.15	0.3187	1084.18	0.29
313.15	0.3953	1084.89	0.28
313.15	0.4582	1084.95	0.28
313.15	0.5473	1084.03	0.27
313.15	0.6473	1079.97	0.26
313.15	0.7213	1073.28	0.25
313.15	0.7997	1060.87	0.23
313.15	0.8828	1039.4	0.19
313.15	0.9632	1009.19	0.14
313.15	1	992.21	0.14
323.15	0	1070.3	0.29
323.15	0.0568	1071.03	0.29
323.15	0.1605	1072.41	0.28
323.15	0.2252	1073.32	0.28
323.15	0.3187	1074.52	0.27
323.15	0.3953	1075.37	0.27
323.15	0.4582	1075.54	0.27
323.15	0.5473	1074.8	0.26
323.15	0.6473	1071.08	0.25
323.15	0.7213	1064.82	0.24
323.15	0.7997	1053.13	0.21
323.15	0.8828	1032.81	0.18
323.15	0.9632	1003.92	0.13
323.15	1	988.03	0.14
333.15	0	1060.27	0.27
333.15	0.0568	1061.04	0.27
333.15	0.1605	1062.5	0.3
333.15	0.2252	1063.49	0.26
333.15	0.3187	1064.79	0.26
333.15	0.3953	1065.74	0.25
333.15	0.4582	1066	0.25
333.15	0.5473	1065.41	0.24
333.15	0.6473	1062	0.23
333.15	0.7213	1056.12	0.22
333.15	0.7997	1045.11	0.2
333.15	0.8828	1024.92	0.17
333.15	0.9632	998.73	0.13
333.15	1	983.19	0.15

System: dimethyl sulfoxide + acetonitrile; phases: Liquid
Fixed: Pressure, kPa = 81.5
Property: Mass density, kg/m3 (Liquid); method: VIBTUB:UFactor:4
Temperature, K	Mole fraction of acetonitrile	Mass density, kg/m3	uncertainty
293.15	0	1100.41	0.34
293.15	0.0563	1087.32	0.32
293.15	0.1195	1072.32	0.29
293.15	0.1751	1058.54	0.26
293.15	0.2996	1025.83	0.2
293.15	0.3723	1005.56	0.16
293.15	0.4529	981.91	0.18
293.15	0.5273	959	0.21
293.15	0.579	942.39	0.23
293.15	0.6896	904.94	0.29
293.15	0.7579	880.41	0.32
293.15	0.8337	851.62	0.37
293.15	0.933	811.3	0.43
293.15	1	781.97	0.47
303.15	0	1090.37	0.32
303.15	0.0563	1077.27	0.3
303.15	0.1195	1062.27	0.27
303.15	0.1751	1048.48	0.24
303.15	0.2996	1015.69	0.18
303.15	0.3723	995.38	0.16
303.15	0.4529	971.68	0.19
303.15	0.5273	948.69	0.23
303.15	0.579	932.08	0.25
303.15	0.6896	894.48	0.3
303.15	0.7579	869.88	0.34
303.15	0.8337	841	0.38
303.15	0.933	800.6	0.44
303.15	1	771.15	0.49
313.15	0	1080.34	0.31
313.15	0.0563	1067.22	0.28
313.15	0.1195	1052.21	0.25
313.15	0.1751	1038.38	0.23
313.15	0.2996	1005.54	0.17
313.15	0.3723	985.18	0.18
313.15	0.4529	961.4	0.21
313.15	0.5273	938.36	0.24
313.15	0.579	921.68	0.26
313.15	0.6896	883.96	0.32
313.15	0.7579	859.27	0.36
313.15	0.8337	830.29	0.4
313.15	0.933	789.76	0.46
313.15	1	760.2	0.5
323.15	0	1070.3	0.29
323.15	0.0563	1057.17	0.27
323.15	0.1195	1042.11	0.24
323.15	0.1751	1028.38	0.21
323.15	0.2996	995.35	0.17
323.15	0.3723	974.94	0.19
323.15	0.4529	951.09	0.22
323.15	0.5273	927.96	0.26
323.15	0.579	911.22	0.28
323.15	0.6896	873.36	0.34
323.15	0.7579	848.57	0.37
323.15	0.8337	819.48	0.41
323.15	0.933	778.79	0.48
323.15	1	749.12	0.52
333.15	0	1060.27	0.27
333.15	0.0563	1047.11	0.25
333.15	0.1195	1032.03	0.22
333.15	0.1751	1018.15	0.19
333.15	0.2996	985.14	0.18
333.15	0.3723	964.64	0.21
333.15	0.4529	940.71	0.24
333.15	0.5273	917.5	0.27
333.15	0.579	900.68	0.3
333.15	0.6896	862.66	0.35
333.15	0.7579	837.77	0.39
333.15	0.8337	808.55	0.43
333.15	0.933	767.68	0.49
333.15	1	737.87	0.54

System: dimethyl sulfoxide + acetonitrile + water; phases: Liquid
Fixed: Pressure, kPa = 81.5
Property: Mass density, kg/m3 (Liquid); method: VIBTUB:UFactor:5
Temperature, K	Mole fraction of water	Mole fraction of acetonitrile	Mass density, kg/m3	uncertainty
298.15	0.0874	0.2065	1047.98	0.28
298.15	0.1026	0.3122	1016.73	0.21
298.15	0.1085	0.591	922.48	0.32
298.15	0.1138	0.6825	885.13	0.39
298.15	0.1166	0.7823	841.36	0.47
298.15	0.118	0.1128	1073.16	0.34
298.15	0.1181	0.3987	988.34	0.2
298.15	0.1389	0.4808	957.57	0.25
298.15	0.1917	0.7055	853.65	0.45
298.15	0.203	0.3966	978.77	0.21
298.15	0.2054	0.201	1044.52	0.27
298.15	0.21	0.0961	1075.84	0.34
298.15	0.2151	0.4859	942.93	0.28
298.15	0.2231	0.5756	903.97	0.35
298.15	0.2357	0.289	1013.27	0.2
298.15	0.2993	0.2094	1036.39	0.25
298.15	0.3003	0.3025	1002.63	0.18
298.15	0.3153	0.3889	965.1	0.24
298.15	0.3223	0.4823	922.38	0.32
298.15	0.3239	0.5743	876.2	0.4
298.15	0.3256	0.0928	1074.41	0.33
298.15	0.4013	0.2953	991.98	0.18
298.15	0.4132	0.4885	892.5	0.37
298.15	0.4224	0.3842	945.35	0.27
298.15	0.4239	0.1958	1031.14	0.23
298.15	0.4434	0.0926	1071.75	0.31
298.15	0.4955	0.4025	914.06	0.33
298.15	0.513	0.194	1019.78	0.21
298.15	0.5134	0.3114	960.85	0.24
298.15	0.5271	0.0868	1066.86	0.3
298.15	0.5986	0.2022	999.93	0.16
298.15	0.5988	0.295	945.76	0.27
298.15	0.6116	0.1041	1050.75	0.27
298.15	0.6955	0.2045	971.98	0.22
298.15	0.7072	0.1014	1033.56	0.23
298.15	0.8073	0.0936	1009.89	0.18
313.15	0.0874	0.2065	1038.02	0.26
313.15	0.1026	0.3122	1006.67	0.2
313.15	0.1085	0.591	912.12	0.34
313.15	0.1138	0.6825	874.66	0.41
313.15	0.1166	0.7823	830.74	0.49
313.15	0.118	0.1128	1063.23	0.32
313.15	0.1181	0.3987	978.28	0.22
313.15	0.1389	0.4808	947.39	0.27
313.15	0.1917	0.7055	843.15	0.47
313.15	0.203	0.3966	968.73	0.23
313.15	0.2054	0.201	1034.7	0.25
313.15	0.21	0.0961	1066.02	0.32
313.15	0.2151	0.4859	932.78	0.3
313.15	0.2231	0.5756	893.68	0.37
313.15	0.2357	0.289	1003.39	0.18
313.15	0.2993	0.2094	1026.71	0.23
313.15	0.3003	0.3025	992.84	0.19
313.15	0.3153	0.3889	955.16	0.26
313.15	0.3223	0.4823	912.31	0.34
313.15	0.3239	0.5743	866.04	0.42
313.15	0.3256	0.0928	1064.85	0.31
313.15	0.4013	0.2953	982.31	0.2
313.15	0.4132	0.4885	882.61	0.39
313.15	0.4224	0.3842	935.58	0.29
313.15	0.4239	0.1958	1021.69	0.21
313.15	0.4434	0.0926	1061.12	0.29
313.15	0.4955	0.4025	904.53	0.35
313.15	0.513	0.194	1010.49	0.19
313.15	0.5134	0.3114	951.46	0.26
313.15	0.5271	0.0868	1057.8	0.28
313.15	0.5986	0.2022	990.93	0.18
313.15	0.5988	0.295	936.73	0.28
313.15	0.6116	0.1041	1041.94	0.25
313.15	0.6955	0.2045	963	0.23
313.15	0.7072	0.1014	1025.3	0.21
313.15	0.8073	0.0936	1002.54	0.17
313.15	0.0874	0.2065	1028.01	0.24
313.15	0.1026	0.3122	996.62	0.19
313.15	0.1085	0.591	901.74	0.36
313.15	0.1138	0.6825	864.1	0.43
313.15	0.1166	0.7823	820.01	0.51
313.15	0.118	0.1128	1053.31	0.3
313.15	0.1181	0.3987	968.13	0.24
313.15	0.1389	0.4808	937.13	0.29
313.15	0.1917	0.7055	832.52	0.49
313.15	0.203	0.3966	958.61	0.25
313.15	0.2054	0.201	1024.81	0.23
313.15	0.21	0.0961	1056.16	0.3
313.15	0.2151	0.4859	922.52	0.32
313.15	0.2231	0.5756	883.27	0.39
313.15	0.2357	0.289	993.45	0.19
313.15	0.2993	0.2094	1016.93	0.21
313.15	0.3003	0.3025	982.93	0.21
313.15	0.3153	0.3889	945.11	0.27
313.15	0.3223	0.4823	902.1	0.36
313.15	0.3239	0.5743	855.69	0.44
313.15	0.3256	0.0928	1055.22	0.29
313.15	0.4013	0.2953	972.51	0.22
313.15	0.4132	0.4885	872.53	0.41
313.15	0.4224	0.3842	925.67	0.31
313.15	0.4239	0.1958	1012.08	0.19
313.15	0.4434	0.0926	1051.69	0.28
313.15	0.4955	0.4025	894.77	0.37
313.15	0.513	0.194	1001.04	0.17
313.15	0.5134	0.3114	941.86	0.28
313.15	0.5271	0.0868	1048.56	0.27
313.15	0.5986	0.2022	981.74	0.2
313.15	0.5988	0.295	927.5	0.3
313.15	0.6116	0.1041	1032.96	0.23
313.15	0.6955	0.2045	954.33	0.25
313.15	0.7072	0.1014	1016.83	0.2
313.15	0.8073	0.0936	994.91	0.17
323.15	0.0874	0.2065	1017.97	0.23
323.15	0.1026	0.3122	986.49	0.21
323.15	0.1085	0.591	891.23	0.38
323.15	0.1138	0.6825	853.43	0.45
323.15	0.1166	0.7823	809.14	0.53
323.15	0.118	0.1128	1042.87	0.28
323.15	0.1181	0.3987	957.9	0.26
323.15	0.1389	0.4808	926.79	0.31
323.15	0.1917	0.7055	821.74	0.51
323.15	0.203	0.3966	948.4	0.27
323.15	0.2054	0.201	1014.86	0.21
323.15	0.21	0.0961	1046.31	0.28
323.15	0.2151	0.4859	912.16	0.34
323.15	0.2231	0.5756	872.73	0.41
323.15	0.2357	0.289	983.41	0.21
323.15	0.2993	0.2094	1007.04	0.19
323.15	0.3003	0.3025	972.91	0.23
323.15	0.3153	0.3889	934.93	0.3
323.15	0.3223	0.4823	891.75	0.38
323.15	0.3239	0.5743	845.17	0.46
323.15	0.3256	0.0928	1045.51	0.27
323.15	0.4013	0.2953	962.57	0.24
323.15	0.4132	0.4885	862.25	0.43
323.15	0.4224	0.3842	915.59	0.33
323.15	0.4239	0.1958	1002.33	0.18
323.15	0.4434	0.0926	1042.14	0.26
323.15	0.4955	0.4025	884.8	0.39
323.15	0.513	0.194	991.44	0.19
323.15	0.5134	0.3114	932.07	0.3
323.15	0.5271	0.0868	1039.16	0.25
323.15	0.5986	0.2022	972.36	0.22
323.15	0.5988	0.295	918.01	0.32
323.15	0.6116	0.1041	1023.79	0.21
323.15	0.6955	0.2045	945.41	0.27
323.15	0.7072	0.1014	1008.1	0.18
323.15	0.8073	0.0936	986.98	0.19
333.15	0.0874	0.2065	1007.87	0.2
333.15	0.1026	0.3122	976.3	0.23
333.15	0.1085	0.591	880.63	0.4
333.15	0.1138	0.6825	842.63	0.47
333.15	0.1166	0.7823	798.13	0.56
333.15	0.118	0.1128	1032.85	0.26
333.15	0.1181	0.3987	947.61	0.28
333.15	0.1389	0.4808	916.36	0.33
333.15	0.1917	0.7055	810.81	0.53
333.15	0.203	0.3966	938.08	0.29
333.15	0.2054	0.201	1004.84	0.19
333.15	0.21	0.0961	1036.38	0.26
333.15	0.2151	0.4859	901.67	0.36
333.15	0.2231	0.5756	862.05	0.43
333.15	0.2357	0.289	973.28	0.23
333.15	0.2993	0.2094	997.07	0.18
333.15	0.3003	0.3025	962.77	0.24
333.15	0.3153	0.3889	924.63	0.31
333.15	0.3223	0.4823	881.25	0.4
333.15	0.3239	0.5743	834.47	0.48
333.15	0.3256	0.0928	1035.47	0.25
333.15	0.4013	0.2953	952.49	0.26
333.15	0.4132	0.4885	851.78	0.45
333.15	0.4224	0.3842	905.32	0.35
333.15	0.4239	0.1958	992.46	0.19
333.15	0.4434	0.0926	1032.44	0.24
333.15	0.4955	0.4025	874.63	0.41
333.15	0.513	0.194	981.66	0.2
333.15	0.5134	0.3114	922.1	0.32
333.15	0.5271	0.0868	1029.61	0.23
333.15	0.5986	0.2022	962.77	0.24
333.15	0.5988	0.295	908.3	0.34
333.15	0.6116	0.1041	1014.42	0.2
333.15	0.6955	0.2045	936.23	0.28
333.15	0.7072	0.1014	999.16	0.17
333.15	0.8073	0.0936	978.73	0.2
