Measured thermophysical data. Liquid-Liquid Equilibria for Binary System of Ethanol + Hexadecane at Elevated Temperature and the Ternary Systems of Ethanol + Heterocyclic Nitrogen Compounds + Hexadecane at 298.15 K
Source: J. Chem. Eng. Data, 2007, 10.1021/je700233p
Compound 1: ethanol, C2H6O, InChI=1S/C2H6O/c1-2-3/h3H,2H2,1H3
Compound 2: hexadecane, C16H34, InChI=1S/C16H34/c1-3-5-7-9-11-13-15-16-14-12-10-8-6-4-2/h3-16H2,1-2H3
Compound 3: quinoline, C9H7N, InChI=1S/C9H7N/c1-2-6-9-8(4-1)5-3-7-10-9/h1-7H
Compound 4: pyridine, C5H5N, InChI=1S/C5H5N/c1-2-4-6-5-3-1/h1-5H
Compound 5: acridine, C13H9N, InChI=1S/C13H9N/c1-3-7-12-10(5-1)9-11-6-2-4-8-13(11)14-12/h1-9H
Compound 6: 1H-indole, C8H7N, InChI=1S/C8H7N/c1-2-4-8-7(3-1)5-6-9-8/h1-6,9H
Compound 7: pyrrole, C4H5N, InChI=1S/C4H5N/c1-2-4-5-3-1/h1-5H
Compound 8: aniline, C6H7N, InChI=1S/C6H7N/c7-6-4-2-1-3-5-6/h1-5H,7H2

System: ethanol; phases: Liquid
Property: Mass density, kg/m3 (Liquid); method: Pycnometric method
Temperature, K	Pressure, kPa	Mass density, kg/m3	uncertainty
298.15	101.325	785.32	0.72

System: hexadecane; phases: Liquid
Property: Mass density, kg/m3 (Liquid); method: Pycnometric method
Temperature, K	Pressure, kPa	Mass density, kg/m3	uncertainty
298.15	101.325	770.14	0.7

System: quinoline; phases: Liquid
Property: Mass density, kg/m3 (Liquid); method: Pycnometric method
Temperature, K	Pressure, kPa	Mass density, kg/m3	uncertainty
298.15	101.325	1089.3	1.02

System: pyridine; phases: Liquid
Property: Mass density, kg/m3 (Liquid); method: Pycnometric method
Temperature, K	Pressure, kPa	Mass density, kg/m3	uncertainty
298.15	101.325	978.13	0.91

System: acridine; phases: Crystal
Property: Mass density, kg/m3 (Crystal); method: Pycnometric method
Temperature, K	Pressure, kPa	Mass density, kg/m3	uncertainty
298.15	101.325	1073.52	3.23

System: 1H-indole; phases: Crystal
Property: Mass density, kg/m3 (Crystal); method: Pycnometric method
Temperature, K	Pressure, kPa	Mass density, kg/m3	uncertainty
298.15	101.325	1216.65	1.29

System: pyrrole; phases: Liquid
Property: Mass density, kg/m3 (Liquid); method: Pycnometric method
Temperature, K	Pressure, kPa	Mass density, kg/m3	uncertainty
298.15	101.325	965.95	2.66

System: aniline; phases: Liquid
Property: Mass density, kg/m3 (Liquid); method: Pycnometric method
Temperature, K	Pressure, kPa	Mass density, kg/m3	uncertainty
298.15	101.325	1017.38	0.95

System: ethanol + hexadecane; phases: Liquid mixture 2, Liquid mixture 1
Fixed: Pressure, kPa = 101
Property: Mole fraction of ethanol (Liquid mixture 2); method: CHROM:UFactor:8
Temperature, K	Mole fraction of ethanol	uncertainty
294.4	0.2551	0.0158
298.15	0.2918	0.0181
308.15	0.3836	0.0238
318.15	0.4907	0.0304
323.15	0.5544	0.0276

System: ethanol + hexadecane; phases: Liquid mixture 1, Liquid mixture 2
Fixed: Pressure, kPa = 101
Property: Mole fraction of ethanol (Liquid mixture 1); method: CHROM:UFactor:8
Temperature, K	Mole fraction of ethanol	uncertainty
294.4	0.9621	0.0023
298.15	0.9597	0.0025
308.15	0.951	0.003
318.15	0.9359	0.004
323.15	0.9054	0.0059

System: ethanol + quinoline + hexadecane; phases: Liquid mixture 1, Liquid mixture 2
Fixed: Temperature, K = 298.15
Fixed: Pressure, kPa = 101.3
Property: Mole fraction of quinoline (Liquid mixture 1); method: CHROM:UFactor:8
Property: Mole fraction of quinoline (Liquid mixture 2); method: CHROM:UFactor:8
Property: Mole fraction of ethanol (Liquid mixture 2); method: CHROM:UFactor:8
Mole fraction of ethanol	Mole fraction of quinoline	uncertainty	Mole fraction of quinoline	uncertainty	Mole fraction of ethanol	uncertainty
0.9112	0.0244	0.0015	0.0194	0.0012	0.3658	
0.8788	0.0455	0.0028	0.0398	0.0025	0.4416	
0.784	0.0783	0.0049	0.0663	0.0041	0.5687	
0.6742	0.0924	0.0057	0.091	0.0056	0.67	
0.7801	0.0793	0.0049	0.0707	0.0044	0.5739	
0.754	0.0853	0.0053	0.0763	0.0047	0.6016	

System: ethanol + pyridine + hexadecane; phases: Liquid mixture 1, Liquid mixture 2
Fixed: Temperature, K = 298.15
Fixed: Pressure, kPa = 101.3
Property: Mole fraction of pyridine (Liquid mixture 1); method: CHROM:UFactor:16
Property: Mole fraction of pyridine (Liquid mixture 2); method: CHROM:UFactor:16
Property: Mole fraction of ethanol (Liquid mixture 2); method: CHROM:UFactor:16
Mole fraction of ethanol	Mole fraction of pyridine	uncertainty	Mole fraction of pyridine	uncertainty	Mole fraction of ethanol	uncertainty
0.885	0.0729	0.009	0.0494	0.0061	0.3109	
0.8026	0.1406	0.0174	0.0967	0.012	0.3451	
0.7262	0.1915	0.0237	0.1381	0.0171	0.3843	
0.6656	0.2359	0.0292	0.1825	0.0226	0.402	
0.5716	0.2841	0.0352	0.2517	0.0312	0.4493	

System: ethanol + acridine + hexadecane; phases: Liquid mixture 1, Liquid mixture 2
Fixed: Temperature, K = 298.15
Fixed: Pressure, kPa = 101.3
Property: Mole fraction of acridine (Liquid mixture 1); method: CHROM:UFactor:8
Property: Mole fraction of acridine (Liquid mixture 2); method: CHROM:UFactor:8
Property: Mole fraction of ethanol (Liquid mixture 2); method: CHROM:UFactor:8
Mole fraction of ethanol	Mole fraction of acridine	uncertainty	Mole fraction of acridine	uncertainty	Mole fraction of ethanol	uncertainty
0.863	0.0161	0.001	0.0118	0.0007	0.2895	
0.7899	0.0293	0.0018	0.023	0.0014	0.3402	
0.7429	0.039	0.0024	0.026	0.0016	0.3697	
0.6653	0.045	0.0028	0.0314	0.0019	0.4397	

System: ethanol + 1H-indole + hexadecane; phases: Liquid mixture 1, Liquid mixture 2
Fixed: Pressure, kPa = 101.3
Fixed: Temperature, K = 298.15
Property: Mole fraction of 1H-indole (Liquid mixture 1); method: CHROM:UFactor:8
Property: Mole fraction of 1H-indole (Liquid mixture 2); method: CHROM:UFactor:8
Property: Mole fraction of ethanol (Liquid mixture 2); method: CHROM:UFactor:8
Mole fraction of ethanol	Mole fraction of 1H-indole	uncertainty	Mole fraction of 1H-indole	uncertainty	Mole fraction of ethanol	uncertainty
0.9024	0.0409	0.0025	0.0188	0.0014	0.3373	
0.8521	0.0817	0.0051	0.0395	0.0025	0.3426	
0.8143	0.1172	0.0073	0.061	0.0038	0.3543	
0.7194	0.2198	0.0136	0.0919	0.0057	0.3272	
0.716	0.2245	0.0139	0.0947	0.0059	0.3033	
0.6902	0.2511	0.0156	0.1014	0.0063	0.2742	
0.6369	0.3138	0.0194	0.1093	0.0068	0.2305	
0.5976	0.362	0.0224	0.1125	0.007	0.2074	
0.5345	0.4213	0.0261	0.1183	0.0073	0.1787	
0.4598	0.4912	0.0304	0.1228	0.0076	0.1528	
0.3778	0.5688	0.0267	0.1258	0.0078	0.1373	
0.3097	0.6332	0.0227	0.1305	0.0081	0.1079	
0.2485	0.7083	0.0181	0.1357	0.0084	0.0899	
0.1849	0.7732	0.0141	0.1375	0.0085	0.0685	
0.1363	0.8367	0.0101	0.1431	0.0089	0.0393	
0.0779	0.8878	0.007	0.1491	0.0092	0.0181	
0.0351	0.9344	0.0041	0.1532	0.0095	0.0156	

System: ethanol + pyrrole + hexadecane; phases: Liquid mixture 1, Liquid mixture 2
Fixed: Pressure, kPa = 101.3
Fixed: Temperature, K = 298.15
Property: Mole fraction of pyrrole (Liquid mixture 1); method: CHROM:UFactor:8
Property: Mole fraction of pyrrole (Liquid mixture 2); method: CHROM:UFactor:8
Property: Mole fraction of ethanol (Liquid mixture 2); method: CHROM:UFactor:8
Mole fraction of ethanol	Mole fraction of pyrrole	uncertainty	Mole fraction of pyrrole	uncertainty	Mole fraction of ethanol	uncertainty
0.9029	0.0459	0.0029	0.0177	0.0011	0.2841	
0.8281	0.1247	0.0077	0.0455	0.0028	0.261	
0.7486	0.2065	0.0128	0.0768	0.0048	0.2355	
0.6802	0.2805	0.0174	0.1023	0.0063	0.209	
0.6404	0.3212	0.0199	0.1112	0.0069	0.1939	
0.6044	0.3608	0.0224	0.1202	0.0074	0.176	
0.5681	0.3956	0.0245	0.1289	0.008	0.1677	
0.5409	0.4241	0.0263	0.1379	0.0085	0.1566	
0.51	0.46	0.0285	0.137	0.0085	0.1408	
0.4356	0.5399	0.0285	0.1532	0.0095	0.1188	
0.3511	0.6279	0.0231	0.1529	0.0095	0.0833	
0.3009	0.6822	0.0197	0.1631	0.0101	0.0723	
0.2648	0.7181	0.0175	0.1627	0.0101	0.0608	
0.1916	0.7954	0.0127	0.1666	0.0103	0.0436	
0.1909	0.7932	0.0128	0.1585	0.0098	0.0412	
0.1501	0.8335	0.0103	0.1575	0.0098	0.0319	
0.1163	0.8717	0.008	0.1646	0.0102	0.0243	
0.0786	0.9091	0.0056	0.1641	0.0102	0.018	
0.0382	0.9535	0.0029	0.1683	0.0104	0.0164	
0.0061	0.9843	0.001	0.163	0.0102	0.0156	

System: aniline + ethanol + hexadecane; phases: Liquid mixture 1, Liquid mixture 2
Fixed: Pressure, kPa = 101.3
Fixed: Temperature, K = 298.15
Property: Mole fraction of aniline (Liquid mixture 1); method: CHROM:UFactor:8
Property: Mole fraction of aniline (Liquid mixture 2); method: CHROM:UFactor:8
Property: Mole fraction of ethanol (Liquid mixture 2); method: CHROM:UFactor:8
Mole fraction of ethanol	Mole fraction of aniline	uncertainty	Mole fraction of aniline	uncertainty	Mole fraction of ethanol	uncertainty
0.9339	0.0356	0.0022	0.0165	0.001	0.2734	
0.8941	0.0753	0.0047	0.0313	0.0019	0.2564	
0.8573	0.113	0.007	0.043	0.0027	0.2419	
0.8161	0.1552	0.0096	0.0529	0.0033	0.2165	
0.7894	0.1873	0.0116	0.0632	0.0039	0.2007	
0.7502	0.2279	0.0141	0.0701	0.0043	0.1847	
0.7167	0.2633	0.0163	0.0751	0.0047	0.165	
0.6833	0.2956	0.0183	0.0823	0.0051	0.1537	
0.6455	0.3351	0.0208	0.084	0.0052	0.1376	
0.6099	0.3726	0.0231	0.0854	0.0053	0.1236	
0.5795	0.4046	0.0251	0.0878	0.0054	0.1103	
0.521	0.4715	0.0292	0.0957	0.0059	0.1002	
0.4909	0.5023	0.0308	0.0931	0.0058	0.0836	
0.4566	0.536	0.0288	0.0967	0.006	0.0778	
0.4132	0.5796	0.0261	0.0989	0.0061	0.0682	
0.2636	0.7295	0.0168	0.1005	0.0062	0.032	
0.1537	0.841	0.0099	0.1038	0.0064	0.0186	
0.116	0.8786	0.0075	0.1053	0.0065	0.0172	
0.0648	0.9308	0.0043	0.1074	0.0067	0.0074	
0	0.9949	0.0004	0.1118	0.0069	0	
