Measured thermophysical data. Naphthalene Solubility in Binary Solvent Mixtures of 2,2,4-Trimethylpentane + Alcohols at 298.15 K
Source: J. Chem. Eng. Data, 2008, 10.1021/je7005049
Compound 1: naphthalene, C10H8, InChI=1S/C10H8/c1-2-6-10-8-4-3-7-9(10)5-1/h1-8H
Compound 2: 2,2,4-trimethylpentane, C8H18, InChI=1S/C8H18/c1-7(2)6-8(3,4)5/h7H,6H2,1-5H3
Compound 3: butan-1-ol, C4H10O, InChI=1S/C4H10O/c1-2-3-4-5/h5H,2-4H2,1H3
Compound 4: propan-1-ol, C3H8O, InChI=1S/C3H8O/c1-2-3-4/h4H,2-3H2,1H3
Compound 5: ethanol, C2H6O, InChI=1S/C2H6O/c1-2-3/h3H,2H2,1H3
Compound 6: methanol, CH4O, InChI=1S/CH4O/c1-2/h2H,1H3
Compound 7: propan-2-ol, C3H8O, InChI=1S/C3H8O/c1-3(2)4/h3-4H,1-2H3

System: naphthalene + 2,2,4-trimethylpentane; phases: Liquid, Crystal
Property: Amount concentration (molarity), mol/dm3 (Liquid); method: SPECTR
Temperature, K	Pressure, kPa	Amount concentration (molarity), mol/dm3	uncertainty
298.15	101	0.692	0.029

System: methanol + naphthalene; phases: Liquid, Crystal
Property: Amount concentration (molarity), mol/dm3 (Liquid); method: SPECTR
Temperature, K	Pressure, kPa	Amount concentration (molarity), mol/dm3	uncertainty
298.15	101	0.54	0.023

System: ethanol + naphthalene; phases: Liquid, Crystal
Property: Amount concentration (molarity), mol/dm3 (Liquid); method: SPECTR
Temperature, K	Pressure, kPa	Amount concentration (molarity), mol/dm3	uncertainty
298.15	101	0.558	0.024

System: propan-1-ol + naphthalene; phases: Liquid, Crystal
Property: Amount concentration (molarity), mol/dm3 (Liquid); method: SPECTR
Temperature, K	Pressure, kPa	Amount concentration (molarity), mol/dm3	uncertainty
298.15	101	0.601	0.026

System: propan-2-ol + naphthalene; phases: Liquid, Crystal
Property: Amount concentration (molarity), mol/dm3 (Liquid); method: SPECTR
Temperature, K	Pressure, kPa	Amount concentration (molarity), mol/dm3	uncertainty
298.15	101	0.571	0.024

System: butan-1-ol + naphthalene; phases: Liquid, Crystal
Property: Amount concentration (molarity), mol/dm3 (Liquid); method: SPECTR
Temperature, K	Pressure, kPa	Amount concentration (molarity), mol/dm3	uncertainty
298.15	101	0.705	0.03

System: methanol + naphthalene + 2,2,4-trimethylpentane; phases: Liquid, Crystal
Fixed: Pressure, kPa = 101
Fixed: Temperature, K = 298.15
Property: Amount concentration (molarity), mol/dm3 of naphthalene (Liquid); method: SPECTR
Solvent: Mole fraction of 2,2,4-trimethylpentane	Amount concentration (molarity), mol/dm3 of naphthalene	uncertainty
0	0.54	0.023
0.026	0.623	0.028
0.058	0.668	0.029
0.095	0.705	0.03
0.14	0.746	0.032
0.196	0.85	0.036
0.268	0.882	0.037
0.363	0.922	0.039
0.494	0.871	0.037
0.687	0.823	0.035
1	0.692	0.029

System: ethanol + naphthalene + 2,2,4-trimethylpentane; phases: Liquid, Crystal
Fixed: Pressure, kPa = 101
Fixed: Temperature, K = 298.15
Property: Amount concentration (molarity), mol/dm3 of naphthalene (Liquid); method: SPECTR
Solvent: Mole fraction of 2,2,4-trimethylpentane	Amount concentration (molarity), mol/dm3 of naphthalene	uncertainty
0	0.558	0.024
0.038	0.596	0.026
0.081	0.652	0.028
0.131	0.7	0.03
0.19	0.746	0.032
0.26	0.82	0.035
0.345	0.847	0.036
0.45	0.901	0.038
0.584	0.871	0.037
0.76	0.796	0.034
1	0.692	0.029

System: propan-1-ol + naphthalene + 2,2,4-trimethylpentane; phases: Liquid, Crystal
Fixed: Pressure, kPa = 101
Fixed: Temperature, K = 298.15
Property: Amount concentration (molarity), mol/dm3 of naphthalene (Liquid); method: SPECTR
Solvent: Mole fraction of 2,2,4-trimethylpentane	Amount concentration (molarity), mol/dm3 of naphthalene	uncertainty
0	0.601	0.026
0.048	0.683	0.029
0.102	0.698	0.03
0.162	0.723	0.031
0.232	0.77	0.033
0.312	0.789	0.033
0.404	0.81	0.034
0.514	0.82	0.035
0.644	0.836	0.035
0.803	0.772	0.033
1	0.692	0.029

System: propan-2-ol + naphthalene + 2,2,4-trimethylpentane; phases: Liquid, Crystal
Fixed: Pressure, kPa = 101
Fixed: Temperature, K = 298.15
Property: Amount concentration (molarity), mol/dm3 of naphthalene (Liquid); method: SPECTR
Solvent: Mole fraction of 2,2,4-trimethylpentane	Amount concentration (molarity), mol/dm3 of naphthalene	uncertainty
0	0.571	0.024
0.049	0.649	0.028
0.104	0.693	0.03
0.166	0.73	0.031
0.236	0.751	0.032
0.317	0.778	0.033
0.41	0.816	0.035
0.52	0.865	0.037
0.65	0.835	0.035
0.807	0.804	0.034
1	0.692	0.029

System: butan-1-ol + naphthalene + 2,2,4-trimethylpentane; phases: Liquid, Crystal
Fixed: Pressure, kPa = 101
Fixed: Temperature, K = 298.15
Property: Amount concentration (molarity), mol/dm3 of naphthalene (Liquid); method: SPECTR
Solvent: Mole fraction of 2,2,4-trimethylpentane	Amount concentration (molarity), mol/dm3 of naphthalene	uncertainty
0	0.705	0.03
0.058	0.732	0.031
0.122	0.764	0.032
0.192	0.786	0.033
0.27	0.812	0.034
0.356	0.834	0.035
0.454	0.845	0.036
0.564	0.877	0.037
0.689	0.847	0.036
0.833	0.815	0.035
1	0.692	0.029
