Measured thermophysical data. Limiting Diffusion Coefficients of Ethyl Benzoate, Benzylacetone, and Eugenol in Carbon Dioxide at Supercritical Conditions
Source: J. Chem. Eng. Data, 2008, 10.1021/je700646e
Compound 1: carbon dioxide, CO2, InChI=1S/CO2/c2-1-3
Compound 2: ethyl benzoate, C9H10O2, InChI=1S/C9H10O2/c1-2-11-9(10)8-6-4-3-5-7-8/h3-7H,2H2,1H3
Compound 3: 4-phenyl-2-butanone, C10H12O, InChI=1S/C10H12O/c1-9(11)7-8-10-5-3-2-4-6-10/h2-6H,7-8H2,1H3
Compound 4: 2-hydroxy-5-allylanisole, C10H12O2, InChI=1S/C10H12O2/c1-3-4-8-5-6-9(11)10(7-8)12-2/h3,5-7,11H,1,4H2,2H3

System: ethyl benzoate + carbon dioxide; phases: Fluid (supercritical or subcritical phases)
Fixed: Mole fraction of ethyl benzoate = 0
Property: Binary diffusion coefficient, m2/s (Fluid (supercritical or subcritical phases)); method: Taylor dispersion method
Pressure, kPa	Temperature, K	Binary diffusion coefficient, m2/s	uncertainty
15000	313.16	1.046e-08	0.98
15000	323.16	1.296e-08	1.16
15000	333.16	1.493e-08	2.68
20000	313.16	8.06e-09	0.35
20000	323.16	1.012e-08	0.65
20000	333.16	1.19e-08	0.96
25000	313.16	7.53e-09	0.32
25000	323.16	8.65e-09	0.44
25000	333.16	9.82e-09	0.65
30000	313.16	6.82e-09	0.19
30000	323.16	7.82e-09	0.32
30000	333.16	8.78e-09	0.38
35000	313.16	6.7e-09	0.36
35000	323.16	7.25e-09	0.44
35000	333.16	8.36e-09	0.74

System: carbon dioxide + 4-phenyl-2-butanone; phases: Fluid (supercritical or subcritical phases)
Fixed: Mole fraction of 4-phenyl-2-butanone = 0
Property: Binary diffusion coefficient, m2/s (Fluid (supercritical or subcritical phases)); method: Taylor dispersion method
Pressure, kPa	Temperature, K	Binary diffusion coefficient, m2/s	uncertainty
15000	313.16	8.97e-09	0.29
15000	323.16	1.055e-08	0.41
15000	333.16	1.15e-08	0.54
20000	313.16	8.05e-09	0.2
20000	323.16	9.25e-09	0.36
20000	333.16	1.079e-08	0.35
25000	313.16	7.39e-09	0.38
25000	323.16	8.65e-09	0.22
25000	333.16	9.59e-09	0.29
30000	313.16	6.95e-09	0.21
30000	323.16	7.83e-09	0.35
30000	333.16	8.92e-09	0.21
35000	313.16	6.58e-09	0.17
35000	323.16	7.5e-09	0.41
35000	333.16	8.29e-09	0.3

System: 2-hydroxy-5-allylanisole + carbon dioxide; phases: Fluid (supercritical or subcritical phases)
Fixed: Mole fraction of 2-hydroxy-5-allylanisole = 0
Property: Binary diffusion coefficient, m2/s (Fluid (supercritical or subcritical phases)); method: Taylor dispersion method
Pressure, kPa	Temperature, K	Binary diffusion coefficient, m2/s	uncertainty
15000	313.16	9.29e-09	0.96
15000	323.16	1.145e-08	1.91
15000	333.16	1.214e-08	1.06
20000	313.16	7.69e-09	0.49
20000	323.16	9.08e-09	0.29
20000	333.16	1.04e-08	0.39
25000	313.16	6.96e-09	0.32
25000	323.16	8.03e-09	0.22
25000	333.16	9.19e-09	0.25
30000	313.16	6.37e-09	0.29
30000	323.16	7.39e-09	0.22
30000	333.16	8.32e-09	0.24
35000	313.16	6.1e-09	0.17
35000	323.16	6.91e-09	0.17
35000	333.16	7.9e-09	0.66
