Measured thermophysical data. Henry s Law Constants and Infinite Dilution Activity Coefficients of Propane, Propene, Butane, 2-Methylpropane, 1-Butene, 2-Methylpropene, trans-2-Butene, cis-2-Butene, 1,3-Butadiene, Dimethylether, Chloroethane, 1,1-Difluoroethane, and Hexane in Tetrahydropyran
Source: J. Chem. Eng. Data, 2007, 10.1021/je700270d
Compound 1: tetrahydropyran, C5H10O, InChI=1S/C5H10O/c1-2-4-6-5-3-1/h1-5H2
Compound 2: propane, C3H8, InChI=1S/C3H8/c1-3-2/h3H2,1-2H3, purity 99.5%
Compound 3: propene, C3H6, InChI=1S/C3H6/c1-3-2/h3H,1H2,2H3, purity 99.5%
Compound 4: butane, C4H10, InChI=1S/C4H10/c1-3-4-2/h3-4H2,1-2H3, purity 99.8%
Compound 5: 2-methylpropane, C4H10, InChI=1S/C4H10/c1-4(2)3/h4H,1-3H3, purity 99%
Compound 6: 1-butene, C4H8, InChI=1S/C4H8/c1-3-4-2/h3H,1,4H2,2H3, purity 99%
Compound 7: 2-methylpropene, C4H8, InChI=1S/C4H8/c1-4(2)3/h1H2,2-3H3, purity 99%
Compound 8: (E)-2-butene, C4H8, InChI=1S/C4H8/c1-3-4-2/h3-4H,1-2H3/b4-3+
Compound 9: (Z)-2-butene, C4H8, InChI=1S/C4H8/c1-3-4-2/h3-4H,1-2H3/b4-3-
Compound 10: 1,3-butadiene, C4H6, InChI=1S/C4H6/c1-3-4-2/h3-4H,1-2H2
Compound 11: dimethyl ether, C2H6O, InChI=1S/C2H6O/c1-3-2/h1-2H3
Compound 12: chloroethane, C2H5Cl, InChI=1S/C2H5Cl/c1-2-3/h2H2,1H3
Compound 13: 1,1-difluoroethane, C2H4F2, InChI=1S/C2H4F2/c1-2(3)4/h2H,1H3
Compound 14: hexane, C6H14, InChI=1S/C6H14/c1-3-5-6-4-2/h3-6H2,1-2H3

System: tetrahydropyran; phases: Liquid, Gas
Property: Vapor or sublimation pressure, kPa (Liquid); method: Closed cell (Static) method
Temperature, K	Vapor or sublimation pressure, kPa	uncertainty
257.96	0.98	0.01
260.07	1.13	0.01
270.28	2.16	0.02
279.82	3.7	0.02
289.94	6.28	0.02
290	6.3	0.02
300.01	10.23	0.04
332.98	40	0.1
341.09	53.33	0.12
347.72	66.66	0.15
353.38	79.99	0.18
358.37	93.33	0.21
360.22	98.66	0.22

System: propane + tetrahydropyran; phases: Liquid, Gas
Fixed: Mole fraction of propane = 0
Property: Activity coefficient of propane (Liquid); method: Chromatography
Temperature, K	Activity coefficient of propane	uncertainty
250.06	2.08	0.09
270.12	1.98	0.09
289.97	1.9	0.08
309.98	1.84	0.08
329.97	1.79	0.08

System: propane + tetrahydropyran; phases: Liquid, Gas
Fixed: Mole fraction of propane = 0
Property: Henry's Law constant (mole fraction scale), kPa of propane (Liquid); method: Chromatography
Temperature, K	Henry's Law constant (mole fraction scale), kPa of propane	uncertainty
250.06	428	17
270.12	780	31
289.97	1270	51
309.98	1920	77
329.97	2710	109

System: propene + tetrahydropyran; phases: Liquid, Gas
Fixed: Mole fraction of propene = 0
Property: Activity coefficient of propene (Liquid); method: Chromatography
Temperature, K	Activity coefficient of propene	uncertainty
250.06	1.42	0.05
270.12	1.42	0.05
289.97	1.43	0.05
309.98	1.44	0.05
329.97	1.44	0.05

System: propene + tetrahydropyran; phases: Liquid, Gas
Fixed: Mole fraction of propene = 0
Property: Henry's Law constant (mole fraction scale), kPa of propene (Liquid); method: Chromatography
Temperature, K	Henry's Law constant (mole fraction scale), kPa of propene	uncertainty
250.06	362	15
270.12	680	27
289.97	1140	46
309.98	1760	71
329.97	2520	101

System: butane + tetrahydropyran; phases: Liquid, Gas
Fixed: Mole fraction of butane = 0
Property: Activity coefficient of butane (Liquid); method: Chromatography
Temperature, K	Activity coefficient of butane	uncertainty
250.06	2.04	0.09
270.12	1.94	0.09
289.97	1.85	0.08
309.98	1.78	0.08
329.97	1.72	0.07

System: butane + tetrahydropyran; phases: Liquid, Gas
Fixed: Mole fraction of butane = 0
Property: Henry's Law constant (mole fraction scale), kPa of butane (Liquid); method: Chromatography
Temperature, K	Henry's Law constant (mole fraction scale), kPa of butane	uncertainty
250.06	79	3
270.12	173	7
289.97	326	13
309.98	560	23
329.97	890	36

System: 2-methylpropane + tetrahydropyran; phases: Liquid, Gas
Fixed: Mole fraction of 2-methylpropane = 0
Property: Activity coefficient of 2-methylpropane (Liquid); method: Chromatography
Temperature, K	Activity coefficient of 2-methylpropane	uncertainty
250.06	2.14	0.1
270.12	2.04	0.09
289.97	1.94	0.09
309.98	1.88	0.08
329.97	1.82	0.08

System: 2-methylpropane + tetrahydropyran; phases: Liquid, Gas
Fixed: Mole fraction of 2-methylpropane = 0
Property: Henry's Law constant (mole fraction scale), kPa of 2-methylpropane (Liquid); method: Chromatography
Temperature, K	Henry's Law constant (mole fraction scale), kPa of 2-methylpropane	uncertainty
250.06	131	5
270.12	272	11
289.97	486	20
309.98	810	33
329.97	1230	49

System: 1-butene + tetrahydropyran; phases: Liquid, Gas
Fixed: Mole fraction of 1-butene = 0
Property: Activity coefficient of 1-butene (Liquid); method: Gas Stripping Method
Temperature, K	Activity coefficient of 1-butene	uncertainty
250.06	1.39	0.01
270.12	1.39	0.01
289.97	1.38	0.01
309.98	1.38	0.01
329.97	1.38	0.01

System: 1-butene + tetrahydropyran; phases: Liquid, Gas
Fixed: Mole fraction of 1-butene = 0
Property: Henry's Law constant (mole fraction scale), kPa of 1-butene (Liquid); method: Chromatography
Temperature, K	Henry's Law constant (mole fraction scale), kPa of 1-butene	uncertainty
250.06	68	3
270.12	153	6
289.97	296	12
309.98	520	21
329.97	840	34

System: 2-methylpropene + tetrahydropyran; phases: Liquid, Gas
Fixed: Mole fraction of 2-methylpropene = 0
Property: Activity coefficient of 2-methylpropene (Liquid); method: Chromatography
Temperature, K	Activity coefficient of 2-methylpropene	uncertainty
250.06	1.39	0.05
270.12	1.39	0.05
289.97	1.38	0.05
309.98	1.38	0.05
329.97	1.37	0.05

System: 2-methylpropene + tetrahydropyran; phases: Liquid, Gas
Fixed: Mole fraction of 2-methylpropene = 0
Property: Henry's Law constant (mole fraction scale), kPa of 2-methylpropene (Liquid); method: Chromatography
Temperature, K	Henry's Law constant (mole fraction scale), kPa of 2-methylpropene	uncertainty
250.06	69	3
270.12	155	6
289.97	300	12
309.98	530	21
329.97	850	34

System: tetrahydropyran + (E)-2-butene; phases: Liquid, Gas
Fixed: Mole fraction of (E)-2-butene = 0
Property: Activity coefficient of (E)-2-butene (Liquid); method: Chromatography
Temperature, K	Activity coefficient of (E)-2-butene	uncertainty
250.06	1.43	0.05
270.12	1.41	0.05
289.97	1.4	0.05
309.98	1.4	0.05
329.97	1.4	0.05

System: tetrahydropyran + (E)-2-butene; phases: Liquid, Gas
Fixed: Mole fraction of (E)-2-butene = 0
Property: Henry's Law constant (mole fraction scale), kPa of (E)-2-butene (Liquid); method: Chromatography
Temperature, K	Henry's Law constant (mole fraction scale), kPa of (E)-2-butene	uncertainty
250.06	52	2
270.12	119	5
289.97	236	9
309.98	427	17
329.97	700	28

System: tetrahydropyran + (Z)-2-butene; phases: Liquid, Gas
Fixed: Mole fraction of (Z)-2-butene = 0
Property: Activity coefficient of (Z)-2-butene (Liquid); method: Chromatography
Temperature, K	Activity coefficient of (Z)-2-butene	uncertainty
250	1.36	0.05
270.07	1.33	0.05
289.98	1.32	0.05
309.98	1.31	0.05
330	1.32	0.05

System: tetrahydropyran + (Z)-2-butene; phases: Liquid, Gas
Fixed: Mole fraction of (Z)-2-butene = 0
Property: Henry's Law constant (mole fraction scale), kPa of (Z)-2-butene (Liquid); method: Chromatography
Temperature, K	Henry's Law constant (mole fraction scale), kPa of (Z)-2-butene	uncertainty
250	42.8	1.7
270.07	100	4
289.98	204	8
309.98	372	15
330	630	25

System: 1,3-butadiene + tetrahydropyran; phases: Liquid, Gas
Fixed: Mole fraction of 1,3-butadiene = 0
Property: Activity coefficient of 1,3-butadiene (Liquid); method: Chromatography
Temperature, K	Activity coefficient of 1,3-butadiene	uncertainty
250.06	0.95	0.03
270.12	0.97	0.03
289.97	1.01	0.03
309.98	1.05	0.03
329.97	1.09	0.03

System: 1,3-butadiene + tetrahydropyran; phases: Liquid, Gas
Fixed: Mole fraction of 1,3-butadiene = 0
Property: Henry's Law constant (mole fraction scale), kPa of 1,3-butadiene (Liquid); method: Chromatography
Temperature, K	Henry's Law constant (mole fraction scale), kPa of 1,3-butadiene	uncertainty
250.06	43.1	1.7
270.12	101	4
289.97	207	8
309.98	382	15
329.97	650	26

System: dimethyl ether + tetrahydropyran; phases: Liquid, Gas
Fixed: Mole fraction of dimethyl ether = 0
Property: Activity coefficient of dimethyl ether (Liquid); method: Chromatography
Temperature, K	Activity coefficient of dimethyl ether	uncertainty
250	1.29	0.04
270.07	1.26	0.04
289.98	1.26	0.04
309.98	1.26	0.04
330	1.26	0.04

System: dimethyl ether + tetrahydropyran; phases: Liquid, Gas
Fixed: Mole fraction of dimethyl ether = 0
Property: Henry's Law constant (mole fraction scale), kPa of dimethyl ether (Liquid); method: Chromatography
Temperature, K	Henry's Law constant (mole fraction scale), kPa of dimethyl ether	uncertainty
250	135	5
270.07	284	11
289.98	530	21
309.98	890	36
330	1390	56

System: chloroethane + tetrahydropyran; phases: Liquid, Gas
Fixed: Mole fraction of chloroethane = 0
Property: Activity coefficient of chloroethane (Liquid); method: Chromatography
Temperature, K	Activity coefficient of chloroethane	uncertainty
250	0.9	0.03
270.07	0.89	0.03
289.98	0.89	0.03
309.98	0.94	0.03
330	0.98	0.03

System: chloroethane + tetrahydropyran; phases: Liquid, Gas
Fixed: Mole fraction of chloroethane = 0
Property: Henry's Law constant (mole fraction scale), kPa of chloroethane (Liquid); method: Chromatography
Temperature, K	Henry's Law constant (mole fraction scale), kPa of chloroethane	uncertainty
250	19.1	0.8
270.07	47.7	1.9
289.98	103	4
309.98	209	8
330	375	15

System: 1,1-difluoroethane + tetrahydropyran; phases: Liquid, Gas
Fixed: Mole fraction of 1,1-difluoroethane = 0
Property: Activity coefficient of 1,1-difluoroethane (Liquid); method: Chromatography
Temperature, K	Activity coefficient of 1,1-difluoroethane	uncertainty
250.06	1.57	0.06
270.12	1.64	0.07
289.97	1.67	0.07
309.98	1.69	0.07
329.97	1.66	0.07

System: 1,1-difluoroethane + tetrahydropyran; phases: Liquid, Gas
Fixed: Mole fraction of 1,1-difluoroethane = 0
Property: Henry's Law constant (mole fraction scale), kPa of 1,1-difluoroethane (Liquid); method: Chromatography
Temperature, K	Henry's Law constant (mole fraction scale), kPa of 1,1-difluoroethane	uncertainty
250.06	166	7
270.12	376	15
289.97	720	29
309.98	1230	49
329.97	1880	76

System: hexane + tetrahydropyran; phases: Liquid, Gas
Fixed: Mole fraction of hexane = 0
Property: Activity coefficient of hexane (Liquid); method: Chromatography
Temperature, K	Activity coefficient of hexane	uncertainty
290	1.76	0.07
299.89	1.71	0.07
309.98	1.67	0.07
319.99	1.65	0.07
330.02	1.61	0.06

System: hexane + tetrahydropyran; phases: Liquid, Gas
Fixed: Mole fraction of hexane = 0
Property: Henry's Law constant (mole fraction scale), kPa of hexane (Liquid); method: Chromatography
Temperature, K	Henry's Law constant (mole fraction scale), kPa of hexane	uncertainty
290	24.5	1
299.89	36.7	1.5
309.98	54	2
319.99	78	3
330.02	107	4
