Measured thermophysical data. Solubility of Cyclotrimethylenetrinitramine (RDX) in Binary Solvent Mixtures
Source: J. Chem. Eng. Data, 2007, 10.1021/je7002463
Compound 1: 1,3,5-triaza-1,3,5-trinitrocyclohexane, C3H6N6O6, InChI=1S/C3H6N6O6/c10-7(11)4-1-5(8(12)13)3-6(2-4)9(14)15/h1-3H2, purity 99.9%
Compound 2: .gamma.-butyrolactone, C4H6O2, InChI=1S/C4H6O2/c5-4-2-1-3-6-4/h1-3H2
Compound 3: N-methylpyrrolidone, C5H9NO, InChI=1S/C5H9NO/c1-6-4-2-3-5(6)7/h2-4H2,1H3
Compound 4: cyclohexanone, C6H10O, InChI=1S/C6H10O/c7-6-4-2-1-3-5-6/h1-5H2
Compound 5: acetone, C3H6O, InChI=1S/C3H6O/c1-3(2)4/h1-2H3
Compound 6: water, H2O, InChI=1S/H2O/h1H2

System: .gamma.-butyrolactone + 1,3,5-triaza-1,3,5-trinitrocyclohexane + water; phases: Liquid, Crystal
Fixed: Pressure, kPa = 101
Property: Mole fraction of 1,3,5-triaza-1,3,5-trinitrocyclohexane (Liquid); method: Addition of solute until saturation
Temperature, K	Solvent: Mass fraction of .gamma.-butyrolactone	Mole fraction of 1,3,5-triaza-1,3,5-trinitrocyclohexane	uncertainty
20	0.5	0.0005	0.0002
20	0.75	0.0048	0.0005
20	0.83	0.0096	0.001
20	1	0.0472	0.0047
40	0.5	0.001	0.0002
40	0.75	0.0101	0.001
40	0.83	0.0201	0.002
40	1	0.0714	0.0072
60	0.5	0.0025	0.0003
60	0.75	0.0229	0.0023
60	0.83	0.0459	0.0046
60	1	0.1046	0.0105
80	0.5	0.0101	0.001
80	0.75	0.0596	0.006
80	0.83	0.0818	0.0082
80	1	0.1477	0.0148
90	0.5	0.0343	0.0035
90	0.75	0.072	0.0072
90	0.83	0.102	0.0102
90	1	0.1727	0.0173

System: cyclohexanone + 1,3,5-triaza-1,3,5-trinitrocyclohexane + water; phases: Liquid, Crystal
Fixed: Pressure, kPa = 101
Property: Mole fraction of 1,3,5-triaza-1,3,5-trinitrocyclohexane (Liquid); method: Addition of solute until saturation
Temperature, K	Solvent: Mass fraction of cyclohexanone	Mole fraction of 1,3,5-triaza-1,3,5-trinitrocyclohexane	uncertainty
20	0.5	0.0053	0.0005
20	0.75	0.0141	0.0014
20	0.83	0.0183	0.0018
20	1	0.0291	0.0029
40	0.5	0.0097	0.001
40	0.75	0.0192	0.0019
40	0.83	0.0257	0.0026
40	1	0.0451	0.0045
60	0.5	0.0127	0.0013
60	0.75	0.0257	0.0026
60	0.83	0.0373	0.0037
60	1	0.0734	0.0074
80	0.5	0.0153	0.0015
80	0.75	0.0328	0.0033
80	0.83	0.0506	0.0051
80	1	0.0906	0.0091
90	0.5	0.0175	0.0018
90	0.75	0.0376	0.0038
90	0.83	0.0598	0.006
90	1	0.1047	0.0105

System: 1,3,5-triaza-1,3,5-trinitrocyclohexane + N-methylpyrrolidone + water; phases: Liquid, Crystal
Fixed: Pressure, kPa = 101
Property: Mole fraction of 1,3,5-triaza-1,3,5-trinitrocyclohexane (Liquid); method: Addition of solute until saturation
Temperature, K	Solvent: Mass fraction of N-methylpyrrolidone	Mole fraction of 1,3,5-triaza-1,3,5-trinitrocyclohexane	uncertainty
20	0.5	0.0002	0.0002
20	0.75	0.0082	0.0008
20	0.83	0.0237	0.0024
20	1	0.1611	0.0161
40	0.5	0.0005	0.0002
40	0.75	0.0152	0.0015
40	0.83	0.0398	0.004
40	1	0.1885	0.0189
60	0.5	0.0023	0.0002
60	0.75	0.032	0.0032
60	0.83	0.0642	0.0064
60	1	0.2201	0.0221
80	0.5	0.0062	0.0006
80	0.75	0.0615	0.0062
80	0.83	0.1039	0.0104
80	1	0.2581	0.0259
90	0.5	0.0122	0.0012
90	0.75	0.0877	0.0088
90	0.83	0.1308	0.0131
90	1	0.2794	0.028

System: acetone + 1,3,5-triaza-1,3,5-trinitrocyclohexane + water; phases: Liquid, Crystal
Fixed: Pressure, kPa = 101
Property: Mole fraction of 1,3,5-triaza-1,3,5-trinitrocyclohexane (Liquid); method: Addition of solute until saturation
Temperature, K	Solvent: Mass fraction of acetone	Mole fraction of 1,3,5-triaza-1,3,5-trinitrocyclohexane	uncertainty
20	0.5	0.0003	0.0002
20	0.75	0.0029	0.0003
20	0.83	0.0048	0.0005
20	1	0.0129	0.0013
40	0.5	0.0005	0.0002
40	0.75	0.0038	0.0004
40	0.83	0.0063	0.0006
40	1	0.0152	0.0015
60	0.5	0.0007	0.0002
60	0.75	0.0049	0.0005
60	0.83	0.0088	0.0009
60	1	0.0193	0.0019
80	0.5	0.0009	0.0002
80	0.75	0.0064	0.0006
80	0.83	0.0112	0.0011
80	1	0.0234	0.0023
90	0.5	0.0014	0.0002
90	0.75	0.0077	0.0008
90	0.83	0.0133	0.0013
90	1	0.0259	0.0026
