Measured thermophysical data. Critical Point Measurements for n-Alkyl Benzoates (C8 to C13)
Source: J. Chem. Eng. Data, 2007, 10.1021/je700049s
Compound 1: methyl benzoate, C8H8O2, InChI=1S/C8H8O2/c1-10-8(9)7-5-3-2-4-6-7/h2-6H,1H3
Compound 2: ethyl benzoate, C9H10O2, InChI=1S/C9H10O2/c1-2-11-9(10)8-6-4-3-5-7-8/h3-7H,2H2,1H3
Compound 3: propyl benzoate, C10H12O2, InChI=1S/C10H12O2/c1-2-8-12-10(11)9-6-4-3-5-7-9/h3-7H,2,8H2,1H3
Compound 4: butyl benzoate, C11H14O2, InChI=1S/C11H14O2/c1-2-3-9-13-11(12)10-7-5-4-6-8-10/h4-8H,2-3,9H2,1H3
Compound 5: pentyl benzoate, C12H16O2, InChI=1S/C12H16O2/c1-2-3-7-10-14-12(13)11-8-5-4-6-9-11/h4-6,8-9H,2-3,7,10H2,1H3
Compound 6: benzoic acid, hexyl ester, C13H18O2, InChI=1S/C13H18O2/c1-2-3-4-8-11-15-13(14)12-9-6-5-7-10-12/h5-7,9-10H,2-4,8,11H2,1H3

System: methyl benzoate; phases: Liquid, Gas
Property: Critical pressure, kPa (Liquid); method: Pulse Heating Apparatus
Critical pressure, kPa	uncertainty
3460	200

System: methyl benzoate; phases: Liquid, Gas
Property: Critical temperature, K (Liquid); method: Pulse Heating Apparatus
Critical temperature, K	uncertainty
695	14

System: ethyl benzoate; phases: Liquid, Gas
Property: Critical pressure, kPa (Liquid); method: Pulse Heating Apparatus
Critical pressure, kPa	uncertainty
3050	180

System: ethyl benzoate; phases: Liquid, Gas
Property: Critical temperature, K (Liquid); method: Pulse Heating Apparatus
Critical temperature, K	uncertainty
700	14

System: propyl benzoate; phases: Liquid, Gas
Property: Critical pressure, kPa (Liquid); method: Pulse Heating Apparatus
Critical pressure, kPa	uncertainty
2600	160

System: propyl benzoate; phases: Liquid, Gas
Property: Critical temperature, K (Liquid); method: Pulse Heating Apparatus
Critical temperature, K	uncertainty
710	14

System: butyl benzoate; phases: Liquid, Gas
Property: Critical pressure, kPa (Liquid); method: Pulse Heating Apparatus
Critical pressure, kPa	uncertainty
2400	140

System: butyl benzoate; phases: Liquid, Gas
Property: Critical temperature, K (Liquid); method: Pulse Heating Apparatus
Critical temperature, K	uncertainty
725	14

System: pentyl benzoate; phases: Liquid, Gas
Property: Critical pressure, kPa (Liquid); method: Pulse Heating Apparatus
Critical pressure, kPa	uncertainty
2190	140

System: pentyl benzoate; phases: Liquid, Gas
Property: Critical temperature, K (Liquid); method: Pulse Heating Apparatus
Critical temperature, K	uncertainty
736	14

System: benzoic acid, hexyl ester; phases: Liquid, Gas
Property: Critical pressure, kPa (Liquid); method: Pulse Heating Apparatus
Critical pressure, kPa	uncertainty
1980	120

System: benzoic acid, hexyl ester; phases: Liquid, Gas
Property: Critical temperature, K (Liquid); method: Pulse Heating Apparatus
Critical temperature, K	uncertainty
748	14
