Measured thermophysical data. Solid-Liquid Equilibria of Binary Mixtures of Dimethylnaphthalene Isomers
Source: J. Chem. Eng. Data, 2007, 10.1021/je700088n
Compound 1: 1-methylnaphthalene, C11H10, InChI=1S/C11H10/c1-9-5-4-7-10-6-2-3-8-11(9)10/h2-8H,1H3
Compound 2: 2-methylnaphthalene, C11H10, InChI=1S/C11H10/c1-9-6-7-10-4-2-3-5-11(10)8-9/h2-8H,1H3
Compound 3: 2,6-dimethylnaphthalene, C12H12, InChI=1S/C12H12/c1-9-3-5-12-8-10(2)4-6-11(12)7-9/h3-8H,1-2H3
Compound 4: 2,7-dimethylnaphthalene, C12H12, InChI=1S/C12H12/c1-9-3-5-11-6-4-10(2)8-12(11)7-9/h3-8H,1-2H3
Compound 5: 2,3-dimethylnaphthalene, C12H12, InChI=1S/C12H12/c1-9-7-11-5-3-4-6-12(11)8-10(9)2/h3-8H,1-2H3
Compound 6: 1,6-dimethylnaphthalene, C12H12, InChI=1S/C12H12/c1-9-6-7-12-10(2)4-3-5-11(12)8-9/h3-8H,1-2H3
Compound 7: 1,4-dimethylnaphthalene, C12H12, InChI=1S/C12H12/c1-9-7-8-10(2)12-6-4-3-5-11(9)12/h3-8H,1-2H3
Compound 8: 1,8-dimethylnaphthalene, C12H12, InChI=1S/C12H12/c1-9-5-3-7-11-8-4-6-10(2)12(9)11/h3-8H,1-2H3
Compound 9: 1,5-dimethylnaphthalene, C12H12, InChI=1S/C12H12/c1-9-5-3-8-12-10(2)6-4-7-11(9)12/h3-8H,1-2H3

System: 1-methylnaphthalene; phases: Crystal, Liquid, Air at 1 atmosphere
Property: Normal melting temperature, K (Crystal); method: DTA
Normal melting temperature, K	uncertainty
242.2	0.5

System: 2-methylnaphthalene; phases: Crystal, Liquid, Air at 1 atmosphere
Property: Normal melting temperature, K (Crystal); method: DTA
Normal melting temperature, K	uncertainty
307.85	0.5

System: 2,6-dimethylnaphthalene; phases: Crystal, Liquid, Air at 1 atmosphere
Property: Molar enthalpy of transition or fusion, kJ/mol (Crystal); method: DSC
Molar enthalpy of transition or fusion, kJ/mol	uncertainty
25.3	0.73

System: 2,6-dimethylnaphthalene; phases: Crystal, Liquid, Air at 1 atmosphere
Property: Normal melting temperature, K (Crystal); method: DTA
Normal melting temperature, K	uncertainty
385.15	0.5

System: 2,6-dimethylnaphthalene; phases: Crystal
Property: Mass density, kg/m3 (Crystal); method: digital densimeter
Temperature, K	Pressure, kPa	Mass density, kg/m3	uncertainty
298.1	101.325	1021	10

System: 2,7-dimethylnaphthalene; phases: Crystal, Liquid, Air at 1 atmosphere
Property: Molar enthalpy of transition or fusion, kJ/mol (Crystal); method: DSC
Molar enthalpy of transition or fusion, kJ/mol	uncertainty
22.2	0.66

System: 2,7-dimethylnaphthalene; phases: Crystal, Liquid, Air at 1 atmosphere
Property: Normal melting temperature, K (Crystal); method: DTA
Normal melting temperature, K	uncertainty
370.15	0.5

System: 2,7-dimethylnaphthalene; phases: Crystal
Property: Mass density, kg/m3 (Crystal); method: digital densimeter
Temperature, K	Pressure, kPa	Mass density, kg/m3	uncertainty
298.1	101.325	1010	10

System: 2,3-dimethylnaphthalene; phases: Crystal, Liquid, Air at 1 atmosphere
Property: Molar enthalpy of transition or fusion, kJ/mol (Crystal); method: DSC
Molar enthalpy of transition or fusion, kJ/mol	uncertainty
23.97	0.7

System: 2,3-dimethylnaphthalene; phases: Crystal, Liquid, Air at 1 atmosphere
Property: Normal melting temperature, K (Crystal); method: DTA
Normal melting temperature, K	uncertainty
377.15	0.5

System: 2,3-dimethylnaphthalene; phases: Crystal
Property: Mass density, kg/m3 (Crystal); method: digital densimeter
Temperature, K	Pressure, kPa	Mass density, kg/m3	uncertainty
298.1	101.325	1012	10

System: 1,6-dimethylnaphthalene; phases: Crystal, Liquid, Air at 1 atmosphere
Property: Molar enthalpy of transition or fusion, kJ/mol (Crystal); method: DSC
Molar enthalpy of transition or fusion, kJ/mol	uncertainty
8.5	0.31

System: 1,6-dimethylnaphthalene; phases: Crystal, Liquid, Air at 1 atmosphere
Property: Normal melting temperature, K (Crystal); method: DTA
Normal melting temperature, K	uncertainty
256.95	0.5

System: 1,4-dimethylnaphthalene; phases: Crystal, Liquid, Air at 1 atmosphere
Property: Molar enthalpy of transition or fusion, kJ/mol (Crystal); method: DSC
Molar enthalpy of transition or fusion, kJ/mol	uncertainty
10.6	0.37

System: 1,4-dimethylnaphthalene; phases: Crystal, Liquid, Air at 1 atmosphere
Property: Normal melting temperature, K (Crystal); method: DTA
Normal melting temperature, K	uncertainty
279.15	0.5

System: 1,8-dimethylnaphthalene; phases: Crystal, Liquid, Air at 1 atmosphere
Property: Molar enthalpy of transition or fusion, kJ/mol (Crystal); method: DSC
Molar enthalpy of transition or fusion, kJ/mol	uncertainty
18.53	0.56

System: 1,8-dimethylnaphthalene; phases: Crystal, Liquid, Air at 1 atmosphere
Property: Normal melting temperature, K (Crystal); method: DTA
Normal melting temperature, K	uncertainty
338.15	0.5

System: 1,5-dimethylnaphthalene; phases: Crystal, Liquid, Air at 1 atmosphere
Property: Molar enthalpy of transition or fusion, kJ/mol (Crystal); method: DSC
Molar enthalpy of transition or fusion, kJ/mol	uncertainty
20	0.6

System: 1,5-dimethylnaphthalene; phases: Crystal, Liquid, Air at 1 atmosphere
Property: Normal melting temperature, K (Crystal); method: DTA
Normal melting temperature, K	uncertainty
355.15	0.5

System: 2,3-dimethylnaphthalene + 2,6-dimethylnaphthalene; phases: Liquid, Crystal
Fixed: Pressure, kPa = 101
Property: Solid-liquid equilibrium temperature, K (Liquid); method: VISOBS:UFactor:8
Mole fraction of 2,6-dimethylnaphthalene	Solid-liquid equilibrium temperature, K	uncertainty
0.45	349.15	1.24
0.5	355.15	1.24
0.6	362.15	1.24
0.7	368.15	1.24
0.8	374.15	1.24
0.9	379.15	1.24
1	385.15	1.24

System: 2,3-dimethylnaphthalene + 2,6-dimethylnaphthalene; phases: Liquid, Crystal
Fixed: Pressure, kPa = 101
Property: Solid-liquid equilibrium temperature, K (Liquid); method: VISOBS:UFactor:8
Mole fraction of 2,6-dimethylnaphthalene	Solid-liquid equilibrium temperature, K	uncertainty
0	377.15	1.24
0.1	373.15	1.24
0.2	368.15	1.24
0.3	362.15	1.24
0.4	354.15	1.24

System: 1,8-dimethylnaphthalene + 2,6-dimethylnaphthalene; phases: Liquid, Crystal
Fixed: Pressure, kPa = 101
Property: Solid-liquid equilibrium temperature, K (Liquid); method: VISOBS:UFactor:8
Mole fraction of 2,6-dimethylnaphthalene	Solid-liquid equilibrium temperature, K	uncertainty
0.25	325.15	1.24
0.3	331.15	1.24
0.4	343.25	1.24
0.5	355.15	1.24
0.6	362.15	1.24
0.7	368.15	1.24
0.8	374.25	1.24
0.9	379.25	1.24
0.9	379.15	1.24
0.9	379.25	1.24
1	385.15	1.24
1	385.15	1.24
1	385.15	1.24

System: 1,8-dimethylnaphthalene + 2,6-dimethylnaphthalene; phases: Liquid, Crystal
Fixed: Pressure, kPa = 101
Property: Solid-liquid equilibrium temperature, K (Liquid); method: VISOBS:UFactor:8
Mole fraction of 2,6-dimethylnaphthalene	Solid-liquid equilibrium temperature, K	uncertainty
0	338.15	1.24
0.1	330.15	1.24
0.2	323.25	1.24

System: 2,6-dimethylnaphthalene + 2,7-dimethylnaphthalene; phases: Liquid, Crystal
Fixed: Pressure, kPa = 101
Property: Solid-liquid equilibrium temperature, K (Liquid); method: VISOBS:UFactor:8
Mole fraction of 2,6-dimethylnaphthalene	Solid-liquid equilibrium temperature, K	uncertainty
0.4	343.15	1.24
0.5	355.15	1.24
0.6	362.15	1.24
0.7	368.15	1.24
0.8	374.15	1.24
0.9	379.15	1.24
1	385.15	1.24

System: 2,6-dimethylnaphthalene + 2,7-dimethylnaphthalene; phases: Liquid, Crystal
Fixed: Pressure, kPa = 101
Property: Solid-liquid equilibrium temperature, K (Liquid); method: VISOBS:UFactor:8
Mole fraction of 2,6-dimethylnaphthalene	Solid-liquid equilibrium temperature, K	uncertainty
0	370.15	1.24
0.1	366.15	1.24
0.2	361.15	1.24
0.3	354.15	1.24

System: 1,4-dimethylnaphthalene + 2,6-dimethylnaphthalene; phases: Liquid, Crystal
Fixed: Pressure, kPa = 101
Property: Solid-liquid equilibrium temperature, K (Liquid); method: VISOBS:UFactor:8
Mole fraction of 2,6-dimethylnaphthalene	Solid-liquid equilibrium temperature, K	uncertainty
0.08	280.75	1.24
0.1	285.15	1.24
0.2	309.15	1.24
0.3	331.15	1.24
0.4	343.35	1.24
0.5	355.15	1.24
0.6	362.45	1.24
0.7	368.25	1.24
0.7	368.05	1.24
0.8	374.05	1.24
0.8	374.15	1.24

System: 1,4-dimethylnaphthalene + 2,6-dimethylnaphthalene; phases: Liquid, Crystal
Fixed: Pressure, kPa = 101
Property: Solid-liquid equilibrium temperature, K (Liquid); method: VISOBS:UFactor:8
Mole fraction of 2,6-dimethylnaphthalene	Solid-liquid equilibrium temperature, K	uncertainty
0	279.15	1.24
0.03	278.15	1.24
0.06	276.35	1.24

System: 1,5-dimethylnaphthalene + 2,6-dimethylnaphthalene; phases: Liquid, Crystal
Fixed: Pressure, kPa = 101
Property: Solid-liquid equilibrium temperature, K (Liquid); method: VISOBS:UFactor:8
Mole fraction of 2,6-dimethylnaphthalene	Solid-liquid equilibrium temperature, K	uncertainty
0.4	343.25	1.24
0.5	355.25	1.24
0.6	362.15	1.24
0.7	368.05	1.24
0.8	374.15	1.24
0.9	379.25	1.24
1	385.15	1.24

System: 1,5-dimethylnaphthalene + 2,6-dimethylnaphthalene; phases: Liquid, Crystal
Fixed: Pressure, kPa = 101
Property: Solid-liquid equilibrium temperature, K (Liquid); method: VISOBS:UFactor:8
Mole fraction of 2,6-dimethylnaphthalene	Solid-liquid equilibrium temperature, K	uncertainty
0	355.15	1.24
0.1	351.05	1.24
0.2	343.15	1.24
0.3	335.15	1.24

System: 1,6-dimethylnaphthalene + 2,6-dimethylnaphthalene; phases: Liquid, Crystal
Fixed: Pressure, kPa = 101
Property: Solid-liquid equilibrium temperature, K (Liquid); method: VISOBS:UFactor:8
Mole fraction of 2,6-dimethylnaphthalene	Solid-liquid equilibrium temperature, K	uncertainty
0.03	263.15	1.25
0.04	267.15	1.26
0.05	273.15	1.26
0.1	288.35	1.24
0.2	311.15	1.24
0.3	331.15	1.24
0.4	342.25	1.24
0.5	355.15	1.24
0.6	362.15	1.24

System: 1,6-dimethylnaphthalene + 2,6-dimethylnaphthalene; phases: Liquid, Crystal
Fixed: Pressure, kPa = 101
Property: Solid-liquid equilibrium temperature, K (Liquid); method: VISOBS:UFactor:8
Mole fraction of 2,6-dimethylnaphthalene	Solid-liquid equilibrium temperature, K	uncertainty
0	256.95	1.24
0.01	255.25	1.25
0.02	250.15	1.26

System: 1-methylnaphthalene + 2,6-dimethylnaphthalene; phases: Liquid, Crystal
Fixed: Pressure, kPa = 101
Property: Solid-liquid equilibrium temperature, K (Liquid); method: VISOBS:UFactor:8
Mole fraction of 2,6-dimethylnaphthalene	Solid-liquid equilibrium temperature, K	uncertainty
0.0037	241.25	1.57
0.0098	255.85	1.45
0.0216	275.45	1.29
0.0387	283.55	1.25
0.0589	289.95	1.24
0.084	296.95	1.24
0.1271	306.65	1.24
0.1616	314.15	1.24
0.2048	321.35	1.24
0.2801	331.05	1.24
0.3657	339.95	1.24
0.4459	348.25	1.24
0.5266	355.95	1.24
0.6239	363.15	1.24
0.6582	365.15	1.24
0.6887	368.15	1.24

System: 1-methylnaphthalene + 2,6-dimethylnaphthalene; phases: Liquid, Crystal
Property: Solid-liquid equilibrium temperature, K (Liquid); method: VISOBS:UFactor:8
Mole fraction of 2,6-dimethylnaphthalene	Pressure, kPa	Solid-liquid equilibrium temperature, K	uncertainty
0.0012	101	241.95	1.24

System: 2-methylnaphthalene + 2,7-dimethylnaphthalene; phases: Liquid, Crystal
Fixed: Pressure, kPa = 101
Property: Solid-liquid equilibrium temperature, K (Liquid); method: VISOBS:UFactor:8
Mole fraction of 2,7-dimethylnaphthalene	Solid-liquid equilibrium temperature, K	uncertainty
0.1801	298.55	1.24
0.2155	307.65	1.24
0.2479	312.75	1.24
0.2777	316.15	1.24
0.3053	319.75	1.24
0.3973	329.35	1.24
0.4678	334.65	1.24
0.5687	343.65	1.24
0.6374	349.55	1.24
0.6641	351.05	1.24
0.6872	352.85	1.24

System: 2-methylnaphthalene + 2,7-dimethylnaphthalene; phases: Liquid, Crystal
Fixed: Pressure, kPa = 101
Property: Solid-liquid equilibrium temperature, K (Liquid); method: VISOBS:UFactor:8
Mole fraction of 2,7-dimethylnaphthalene	Solid-liquid equilibrium temperature, K	uncertainty
0.0054	306.65	1.24
0.0109	305.35	1.24
0.0215	304.55	1.24
0.0521	302.65	1.24
0.099	300.75	1.24
0.1415	298.95	1.24

System: 2-methylnaphthalene + 2,6-dimethylnaphthalene; phases: Liquid, Crystal
Fixed: Pressure, kPa = 101
Property: Solid-liquid equilibrium temperature, K (Liquid); method: VISOBS:UFactor:8
Mole fraction of 2,6-dimethylnaphthalene	Solid-liquid equilibrium temperature, K	uncertainty
0.099	306.05	1.24
0.1207	310.05	1.24
0.1415	313.15	1.24
0.2155	323.15	1.24
0.2918	332.15	1.24
0.3545	340.15	1.24
0.4071	345.25	1.24
0.4517	348.95	1.24
0.4901	352.45	1.24
0.5235	355.05	1.24
0.5528	357.15	1.24
0.5786	359.85	1.24
0.6017	361.25	1.24
0.6223	362.55	1.24
0.6872	366.35	1.24

System: 2-methylnaphthalene + 2,6-dimethylnaphthalene; phases: Liquid, Crystal
Fixed: Pressure, kPa = 101
Property: Solid-liquid equilibrium temperature, K (Liquid); method: VISOBS:UFactor:8
Mole fraction of 2,6-dimethylnaphthalene	Solid-liquid equilibrium temperature, K	uncertainty
0.0521	305.85	1.24
0.0761	305.25	1.24

System: 1-methylnaphthalene + 1,5-dimethylnaphthalene; phases: Liquid, Crystal
Fixed: Pressure, kPa = 101
Property: Solid-liquid equilibrium temperature, K (Liquid); method: VISOBS:UFactor:8
Mole fraction of 1,5-dimethylnaphthalene	Solid-liquid equilibrium temperature, K	uncertainty
0.0224	239.15	1.25
0.0403	244.75	1.25
0.0609	254.85	1.25
0.0831	262.75	1.25
0.106	270.05	1.24
0.1441	280.55	1.24
0.2258	292.75	1.24
0.2608	299.65	1.24
0.34	311.65	1.24
0.3846	315.75	1.24
0.4345	322.05	1.24
0.4664	323.85	1.24
0.5322	329.55	1.24
0.6321	335.85	1.24
0.6932	340.25	1.24

System: 1-methylnaphthalene + 1,5-dimethylnaphthalene; phases: Liquid, Crystal
Fixed: Pressure, kPa = 101
Property: Solid-liquid equilibrium temperature, K (Liquid); method: VISOBS:UFactor:8
Mole fraction of 1,5-dimethylnaphthalene	Solid-liquid equilibrium temperature, K	uncertainty
0.0043	241.35	1.24
0.0106	239.75	1.24

System: 1-methylnaphthalene + 2,7-dimethylnaphthalene; phases: Liquid, Crystal
Fixed: Pressure, kPa = 101
Property: Solid-liquid equilibrium temperature, K (Liquid); method: VISOBS:UFactor:8
Mole fraction of 2,7-dimethylnaphthalene	Solid-liquid equilibrium temperature, K	uncertainty
0.0166	239.95	1.25
0.0231	242.35	1.25
0.0609	268.65	1.27
0.0831	280.15	1.25
0.106	285.55	1.24
0.1441	292.75	1.24
0.2258	305.95	1.24
0.2608	311.65	1.24
0.34	320.05	1.24
0.3846	325.25	1.24
0.4345	329.55	1.24
0.4664	333.85	1.24
0.5322	340.25	1.24
0.6321	346.25	1.24
0.6932	349.65	1.24

System: 1-methylnaphthalene + 2,7-dimethylnaphthalene; phases: Liquid, Crystal
Fixed: Pressure, kPa = 101
Property: Solid-liquid equilibrium temperature, K (Liquid); method: VISOBS:UFactor:8
Mole fraction of 2,7-dimethylnaphthalene	Solid-liquid equilibrium temperature, K	uncertainty
0.0037	241.45	1.24
0.0093	240.35	1.24

System: 2-methylnaphthalene + 1,5-dimethylnaphthalene; phases: Liquid, Crystal
Fixed: Pressure, kPa = 101
Property: Solid-liquid equilibrium temperature, K (Liquid); method: VISOBS:UFactor:8
Mole fraction of 1,5-dimethylnaphthalene	Solid-liquid equilibrium temperature, K	uncertainty
0.2479	289.65	1.24
0.2777	294.25	1.24
0.3053	298.55	1.24
0.3973	307.65	1.24
0.4678	316.35	1.24
0.5687	323.85	1.24
0.6374	329.55	1.24
0.6641	331.95	1.24
0.6872	333.55	1.24

System: 2-methylnaphthalene + 1,5-dimethylnaphthalene; phases: Liquid, Crystal
Fixed: Pressure, kPa = 101
Property: Solid-liquid equilibrium temperature, K (Liquid); method: VISOBS:UFactor:8
Mole fraction of 1,5-dimethylnaphthalene	Solid-liquid equilibrium temperature, K	uncertainty
0.0054	305.15	1.25
0.0109	303.25	1.24
0.0215	302.65	1.24
0.0521	300.75	1.24
0.099	298.05	1.24
0.1415	295.35	1.24
0.1801	292.75	1.24
0.2155	290.65	1.24
