Measured thermophysical data. Solubility of Acetylsalicylic Acid in Ethanol, Acetone, Propylene Glycol, and 2-Propanol
Source: J. Chem. Eng. Data, 2008, 10.1021/je7005693
Compound 1: 2-acetoxybenzoic acid, C9H8O4, InChI=1S/C9H8O4/c1-6(10)13-8-5-3-2-4-7(8)9(11)12/h2-5H,1H3,(H,11,12)
Compound 2: ethanol, C2H6O, InChI=1S/C2H6O/c1-2-3/h3H,2H2,1H3
Compound 3: acetone, C3H6O, InChI=1S/C3H6O/c1-3(2)4/h1-2H3
Compound 4: 1,2-propanediol, C3H8O2, InChI=1S/C3H8O2/c1-3(5)2-4/h3-5H,2H2,1H3
Compound 5: propan-2-ol, C3H8O, InChI=1S/C3H8O/c1-3(2)4/h3-4H,1-2H3

System: 2-acetoxybenzoic acid + ethanol; phases: Liquid, Crystal
Fixed: Pressure, kPa = 101
Property: Solid-liquid equilibrium temperature, K (Liquid); method: VISOBS:UFactor:4
Mole fraction of 2-acetoxybenzoic acid	Solid-liquid equilibrium temperature, K	uncertainty
0.025	276.3	0.8
0.049	291.9	0.8
0.071	302.4	0.8
0.093	310	0.8
0.113	316.5	0.8
0.133	321.5	0.8
0.152	325.9	0.8
0.17	330.4	0.8
0.187	333.4	0.8
0.204	336.6	0.8

System: 2-acetoxybenzoic acid + acetone; phases: Liquid, Crystal
Fixed: Pressure, kPa = 101
Property: Solid-liquid equilibrium temperature, K (Liquid); method: VISOBS:UFactor:4
Mole fraction of 2-acetoxybenzoic acid	Solid-liquid equilibrium temperature, K	uncertainty
0.061	281.9	0.8
0.075	290.6	0.8
0.088	297.9	0.8
0.101	304.4	0.8
0.114	310.6	0.8
0.127	315.3	0.8
0.139	319.8	0.8
0.151	323.3	0.8
0.162	326.3	0.8

System: 2-acetoxybenzoic acid + 1,2-propanediol; phases: Liquid, Crystal
Fixed: Pressure, kPa = 101
Property: Solid-liquid equilibrium temperature, K (Liquid); method: VISOBS:UFactor:4
Mole fraction of 2-acetoxybenzoic acid	Solid-liquid equilibrium temperature, K	uncertainty
0.017	295.7	0.8
0.025	301.1	0.8
0.033	305.1	0.8
0.041	308.2	0.8
0.056	313.6	0.8
0.071	318.3	0.8
0.092	323.7	0.8
0.112	327.9	0.8
0.126	330.7	0.8
0.145	333.9	0.8

System: 2-acetoxybenzoic acid + propan-2-ol; phases: Liquid, Crystal
Fixed: Pressure, kPa = 101
Property: Solid-liquid equilibrium temperature, K (Liquid); method: VISOBS:UFactor:4
Mole fraction of 2-acetoxybenzoic acid	Solid-liquid equilibrium temperature, K	uncertainty
0.013	281.6	0.8
0.032	291.8	0.8
0.063	304.1	0.8
0.091	312.9	0.8
0.102	316.1	0.8
0.118	320.4	0.8
0.128	322.7	0.8
0.143	325.8	0.8
0.153	327.7	0.8
0.167	330.2	0.8
