Measured thermophysical data. Density of Diethyl Adipate using a New Vibrating Tube Densimeter from (293.15 to 403.15) K and up to 140 MPa. Calibration and Measurements
Source: J. Chem. Eng. Data, 2008, 10.1021/je700737c
Compound 1: diethyl hexanedioate, C10H18O4, InChI=1S/C10H18O4/c1-3-13-9(11)7-5-6-8-10(12)14-4-2/h3-8H2,1-2H3

System: diethyl hexanedioate; phases: Liquid
Property: Mass density, kg/m3 (Liquid); method: Vibrating tube method
Temperature, K	Pressure, kPa	Mass density, kg/m3	uncertainty
293.15	100	1006.6	1
293.15	10000	1013.1	1
293.15	20000	1019.4	1
293.15	30000	1025.3	1.1
293.15	40000	1030.9	1.1
293.15	50000	1036.2	1.1
293.15	60000	1041.2	1.1
293.15	70000	1046	1.1
293.15	80000	1050.8	1.1
293.15	90000	1055.2	1.1
293.15	100000	1059.6	1.1
293.15	110000	1063.8	1.1
293.15	120000	1067.9	1.1
293.15	130000	1071.8	1.1
293.15	140000	1075.7	1.1
303.15	100	997	1
303.15	10000	1003.9	1
303.15	20000	1010.4	1
303.15	30000	1016.6	1
303.15	40000	1022.5	1.1
303.15	50000	1028	1.1
303.15	60000	1033.3	1.1
303.15	70000	1038.3	1.1
303.15	80000	1043.2	1.1
303.15	90000	1047.8	1.1
303.15	100000	1052.3	1.1
303.15	110000	1056.5	1.1
303.15	120000	1060.9	1.1
303.15	130000	1064.8	1.1
303.15	140000	1068.9	1.1
313.15	100	987.7	1
313.15	10000	994.9	1
313.15	20000	1001.8	1
313.15	30000	1008.3	1
313.15	40000	1014.3	1
313.15	50000	1020.1	1.1
313.15	60000	1025.6	1.1
313.15	70000	1030.8	1.1
313.15	80000	1035.9	1.1
313.15	90000	1040.7	1.1
313.15	100000	1045.1	1.1
313.15	110000	1049.5	1.1
313.15	120000	1053.9	1.1
313.15	130000	1058.1	1.1
313.15	140000	1062.1	1.1
323.15	100	978.3	1
323.15	10000	986.2	1
323.15	20000	993.4	1
323.15	30000	1000.1	1
323.15	40000	1006.4	1
323.15	50000	1012.4	1
323.15	60000	1018	1
323.15	70000	1023.4	1.1
323.15	80000	1028.6	1.1
323.15	90000	1033.6	1.1
323.15	100000	1038.3	1.1
323.15	110000	1042.8	1.1
323.15	120000	1047.4	1.1
323.15	130000	1051.6	1.1
323.15	140000	1055.8	1.1
333.15	100	969	1
333.15	10000	977.1	1
333.15	20000	984.8	1
333.15	30000	991.7	1
333.15	40000	998.3	1
333.15	50000	1004.6	1
333.15	60000	1010.4	1
333.15	70000	1016	1
333.15	80000	1021.3	1.1
333.15	90000	1026.4	1.1
333.15	100000	1031.3	1.1
333.15	110000	1035.9	1.1
333.15	120000	1040.4	1.1
333.15	130000	1045	1.1
333.15	140000	1049.3	1.1
343.15	100	959.8	1
343.15	10000	968.2	1
343.15	20000	976.1	1
343.15	30000	983.3	1
343.15	40000	990.3	1
343.15	50000	996.7	1
343.15	60000	1002.9	1
343.15	70000	1008.7	1
343.15	80000	1014.3	1
343.15	90000	1019.5	1.1
343.15	100000	1024.6	1.1
343.15	110000	1029.5	1.1
343.15	120000	1034.2	1.1
343.15	130000	1038.5	1.1
343.15	140000	1042.9	1.1
353.15	100	949.7	1
353.15	10000	958.7	1
353.15	20000	967	1
353.15	30000	974.8	1
353.15	40000	982.1	1
353.15	50000	989	1
353.15	60000	995.4	1
353.15	70000	1001.2	1
353.15	80000	1006.9	1
353.15	90000	1012.4	1
353.15	100000	1017.4	1
353.15	110000	1022.3	1.1
353.15	120000	1026.7	1.1
353.15	130000	1031.4	1.1
353.15	140000	1036.2	1.1
363.15	100	940.2	1
363.15	10000	949.9	1
363.15	20000	958.6	1
363.15	30000	966.6	1
363.15	40000	974.2	1
363.15	50000	981.3	1
363.15	60000	987.7	1
363.15	70000	994	1
363.15	80000	999.9	1
363.15	90000	1005.4	1
363.15	100000	1010.8	1
363.15	110000	1015.9	1
363.15	120000	1021	1.1
363.15	130000	1025.8	1.1
363.15	140000	1030.4	1.1
373.15	100	930.9	1
373.15	10000	940.9	1
373.15	20000	950.1	1
373.15	30000	958.8	1
373.15	40000	966.7	1
373.15	50000	973.6	1
373.15	60000	980.3	1
373.15	70000	986.7	1
373.15	80000	992.8	1
373.15	90000	998.7	1
373.15	100000	1004.1	1
373.15	110000	1009.3	1
373.15	120000	1014.3	1
373.15	130000	1019.3	1.1
373.15	140000	1023.9	1.1
383.15	100	921.3	1
383.15	10000	932	1
383.15	20000	941.7	1
383.15	30000	950.2	1
383.15	40000	958.5	1
383.15	50000	966	1
383.15	60000	973	1
383.15	70000	979.6	1
383.15	80000	986	1
383.15	90000	991.9	1
383.15	100000	997.6	1
383.15	110000	1003	1
383.15	120000	1008.3	1
383.15	130000	1013.1	1
383.15	140000	1017.8	1.1
393.15	100	911.6	0.9
393.15	10000	922.1	1
393.15	20000	932.2	1
393.15	30000	941.4	1
393.15	40000	949.8	1
393.15	50000	957.1	1
393.15	60000	964.3	1
393.15	70000	971.5	1
393.15	80000	978	1
393.15	90000	984.2	1
393.15	100000	990.1	1
393.15	110000	995.7	1
393.15	120000	1000.8	1
393.15	130000	1006.1	1
393.15	140000	1011	1
403.15	100	902	0.9
403.15	10000	912.7	0.9
403.15	20000	923.3	1
403.15	30000	933.2	1
403.15	40000	941.5	1
403.15	50000	949.8	1
403.15	60000	957.2	1
403.15	70000	964.4	1
403.15	80000	971	1
403.15	90000	977.3	1
403.15	100000	983.3	1
403.15	110000	989	1
403.15	120000	994.6	1
403.15	130000	999.7	1
403.15	140000	1004.7	1
