Measured thermophysical data. Vapor Pressures for 1,4-Dioxane + Tetrabutylammonium Nitrate, Water + Tetrabutylammonium Nitrate, and 1,4-Dioxane + Water + Tetrabutylammonium Nitrate
Source: J. Chem. Eng. Data, 2008, 10.1021/je700512a
Compound 1: 1,4-dioxane, C4H8O2, InChI=1S/C4H8O2/c1-2-6-4-3-5-1/h1-4H2, purity 99.9%
Compound 2: water, H2O, InChI=1S/H2O/h1H2
Compound 3: tetrabutylammonium nitrate, C16H36N2O3, InChI=1S/C16H36N.NO3/c1-5-9-13-17(14-10-6-2,15-11-7-3)16-12-8-4;2-1(3)4/h5-16H2,1-4H3;/q+1;-1, purity 99%
Compound 4: benzyltributylammonium chloride, C19H34ClN, InChI=1S/C19H34N.ClH/c1-4-7-15-20(16-8-5-2,17-9-6-3)18-19-13-11-10-12-14-19;/h10-14H,4-9,15-18H2,1-3H3;1H/q+1;/p-1

System: 1,4-dioxane; phases: Liquid, Gas
Property: Vapor or sublimation pressure, kPa (Liquid); method: Ebulliometric method (Recirculating still)
Temperature, K	Vapor or sublimation pressure, kPa	uncertainty
288.15	2.703	0.053
298.15	4.975	0.061
308.15	8.119	0.068

System: water; phases: Liquid, Gas
Property: Vapor or sublimation pressure, kPa (Liquid); method: Ebulliometric method (Recirculating still)
Temperature, K	Vapor or sublimation pressure, kPa	uncertainty
288.15	1.706	0.04
298.15	3.172	0.047
308.15	5.556	0.055

System: water + benzyltributylammonium chloride; phases: Liquid, Gas
Property: Vapor or sublimation pressure, kPa (Liquid); method: Ebulliometric method (Recirculating still)
Temperature, K	Molality, mol/kg of benzyltributylammonium chloride	Vapor or sublimation pressure, kPa	uncertainty
298.15	0.1	3.153	0.068
298.15	0.5	3.116	0.068
298.15	1	3.091	0.068
298.15	1.5	3.074	0.068
298.15	2	3.032	0.067
298.15	3	2.971	0.066
298.15	3.5	2.893	0.066
298.15	4	2.82	0.067
303.15	0.1	4.205	0.071
303.15	0.5	4.153	0.071
303.15	1	4.11	0.071
303.15	1.5	4.071	0.07
303.15	2	4.006	0.07
303.15	3	3.854	0.069
303.15	3.5	3.807	0.07
303.15	4	3.762	0.071

System: 1,4-dioxane + tetrabutylammonium nitrate; phases: Liquid, Gas
Property: Vapor or sublimation pressure, kPa (Liquid); method: Ebulliometric method (Recirculating still)
Temperature, K	Molality, mol/kg of tetrabutylammonium nitrate	Vapor or sublimation pressure, kPa	uncertainty
288.15	0.1	2.907	0.066
288.15	0.25	2.884	0.066
288.15	0.5	2.853	0.065
288.15	0.75	2.825	0.065
288.15	1	2.796	0.065
288.15	1.5	2.768	0.064
298.15	0.1	4.899	0.078
298.15	0.25	4.854	0.078
298.15	0.5	4.8	0.077
298.15	0.75	4.751	0.076
298.15	1	4.692	0.076
298.15	1.5	4.639	0.076
308.15	0.1	7.987	0.094
308.15	0.25	7.914	0.094
308.15	0.5	7.802	0.093
308.15	0.75	7.698	0.092
308.15	1	7.601	0.091
308.15	1.5	7.545	0.09

System: tetrabutylammonium nitrate + water; phases: Liquid, Gas
Property: Vapor or sublimation pressure, kPa (Liquid); method: Ebulliometric method (Recirculating still)
Temperature, K	Molality, mol/kg of tetrabutylammonium nitrate	Vapor or sublimation pressure, kPa	uncertainty
288.15	0.1	1.691	0.057
288.15	0.25	1.684	0.057
288.15	0.5	1.674	0.057
288.15	0.75	1.665	0.057
288.15	1	1.657	0.056
288.15	1.5	1.638	0.056
288.15	2	1.621	0.056
288.15	2.5	1.608	0.056
288.15	3	1.593	0.056
288.15	3.5	1.581	0.056
288.15	4	1.565	0.055
298.15	0.1	3.15	0.066
298.15	0.25	3.135	0.066
298.15	0.5	3.122	0.066
298.15	0.75	3.1	0.066
298.15	1	3.078	0.065
298.15	1.5	3.043	0.065
298.15	2	3.008	0.065
298.15	2.5	2.983	0.065
298.15	3	2.958	0.064
298.15	3.5	2.939	0.064
298.15	4	2.904	0.064
308.15	0.1	5.607	0.079
308.15	0.25	5.579	0.078
308.15	0.5	5.534	0.078
308.15	0.75	5.506	0.078
308.15	1	5.472	0.078
308.15	1.5	5.41	0.077
308.15	2	5.348	0.077
308.15	2.5	5.303	0.076
308.15	3	5.258	0.076
308.15	3.5	5.213	0.075
308.15	4	5.157	0.075

System: 1,4-dioxane + water; phases: Liquid, Gas
Property: Vapor or sublimation pressure, kPa (Liquid); method: Ebulliometric method (Recirculating still)
Temperature, K	Mole fraction of 1,4-dioxane	Vapor or sublimation pressure, kPa	uncertainty
288.15	0.05	2.352	0.095
288.15	0.1	2.709	0.086
288.15	0.17	2.984	0.083
288.15	0.5	3.657	0.08
288.15	0.7	3.749	0.078
288.15	0.9	3.386	0.078
298.15	0.05	4.157	0.102
298.15	0.1	4.93	0.129
298.15	0.17	5.482	0.185
298.15	0.5	6.357	0.098
298.15	0.7	6.359	0.096
298.15	0.9	6.027	0.091
308.15	0.05	7.238	0.29
308.15	0.1	8.617	0.226
308.15	0.17	9.703	0.193
308.15	0.5	10.735	0.118
308.15	0.7	10.828	0.117
308.15	0.9	9.914	0.119

System: 1,4-dioxane + tetrabutylammonium nitrate + water; phases: Liquid, Gas
Property: Vapor or sublimation pressure, kPa (Liquid); method: Ebulliometric method (Recirculating still)
Temperature, K	Solvent: Mole fraction of 1,4-dioxane	Molality, mol/kg of tetrabutylammonium nitrate	Vapor or sublimation pressure, kPa	uncertainty
288.15	0.05	0	2.352	0.095
288.15	0.05	0.1	2.369	0.095
288.15	0.05	0.25	2.389	0.095
288.15	0.05	0.5	2.39	0.093
288.15	0.05	0.75	2.381	0.089
288.15	0.05	1	2.352	0.087
288.15	0.05	1.5	2.309	0.082
288.15	0.05	2	2.264	0.079
288.15	0.05	2.5	2.216	0.077
288.15	0.05	3	2.172	0.074
288.15	0.05	3.5	2.136	0.071
288.15	0.05	4	2.108	0.068
288.15	0.1	0	2.709	0.086
288.15	0.1	0.1	2.724	0.086
288.15	0.1	0.25	2.736	0.084
288.15	0.1	0.5	2.73	0.081
288.15	0.1	0.75	2.694	0.078
288.15	0.1	1	2.66	0.077
288.15	0.1	1.5	2.576	0.072
288.15	0.1	2	2.514	0.071
288.15	0.1	2.5	2.452	0.069
288.15	0.1	3	2.386	0.067
288.15	0.1	3.5	2.317	0.065
288.15	0.1	4	2.26	0.065
288.15	0.17	0	2.984	0.083
288.15	0.17	0.1	2.992	0.082
288.15	0.17	0.25	2.98	0.08
288.15	0.17	0.5	2.925	0.077
288.15	0.17	0.75	2.868	0.076
288.15	0.17	1	2.814	0.074
288.15	0.17	1.5	2.686	0.072
288.15	0.17	2	2.62	0.07
288.15	0.17	2.5	2.537	0.069
288.15	0.17	3	2.456	0.067
288.15	0.17	3.5	2.349	0.066
288.15	0.17	4	2.3	0.065
288.15	0.5	0	3.657	0.08
288.15	0.5	0.1	3.64	0.08
288.15	0.5	0.25	3.596	0.078
288.15	0.5	0.5	3.529	0.078
288.15	0.5	0.75	3.49	0.076
288.15	0.5	1	3.437	0.075
288.15	0.5	1.5	3.344	0.074
288.15	0.5	2	3.257	0.072
288.15	0.5	2.5	3.196	0.071
288.15	0.5	3	3.122	0.07
288.15	0.5	3.5	3.041	0.07
288.15	0.5	4	2.968	0.07
288.15	0.7	0	3.749	0.078
288.15	0.7	0.1	3.718	0.077
288.15	0.7	0.25	3.669	0.077
288.15	0.7	0.5	3.61	0.076
288.15	0.7	0.75	3.562	0.075
288.15	0.7	1	3.521	0.074
288.15	0.7	1.5	3.421	0.072
288.15	0.7	2	3.338	0.071
288.15	0.7	2.5	3.254	0.071
288.15	0.7	3	3.201	0.071
288.15	0.7	3.5	3.158	0.07
288.15	0.7	4	3.088	0.07
288.15	0.9	0	3.386	0.078
288.15	0.9	0.1	3.374	0.077
288.15	0.9	0.25	3.357	0.077
288.15	0.9	0.5	3.332	0.076
288.15	0.9	0.75	3.309	0.075
288.15	0.9	1	3.294	0.074
288.15	0.9	1.5	3.264	0.073
288.15	0.9	2	3.216	0.071
288.15	0.9	2.5	3.162	0.071
288.15	0.9	3	3.108	0.07
288.15	0.9	3.5	3.066	0.069
288.15	0.9	4	3.032	0.069
298.15	0.05	0	4.157	0.102
298.15	0.05	0.1	4.197	0.131
298.15	0.05	0.25	4.194	0.127
298.15	0.05	0.5	4.15	0.123
298.15	0.05	0.75	4.114	0.121
298.15	0.05	1	4.09	0.111
298.15	0.05	1.5	4.053	0.098
298.15	0.05	2	4.014	0.085
298.15	0.05	2.5	3.966	0.079
298.15	0.05	3	3.922	0.075
298.15	0.05	3.5	3.884	0.072
298.15	0.05	4	3.846	0.075
298.15	0.1	0	4.93	0.129
298.15	0.1	0.1	4.965	0.128
298.15	0.1	0.25	4.949	0.125
298.15	0.1	0.5	4.89	0.122
298.15	0.1	0.75	4.828	0.12
298.15	0.1	1	4.742	0.116
298.15	0.1	1.5	4.59	0.108
298.15	0.1	2	4.441	0.102
298.15	0.1	2.5	4.336	0.096
298.15	0.1	3	4.233	0.091
298.15	0.1	3.5	4.141	0.086
298.15	0.1	4	4.078	0.082
298.15	0.17	0	5.482	0.185
298.15	0.17	0.1	5.481	0.152
298.15	0.17	0.25	5.441	0.148
298.15	0.17	0.5	5.348	0.145
298.15	0.17	0.75	5.29	0.143
298.15	0.17	1	5.208	0.145
298.15	0.17	1.5	5.032	0.144
298.15	0.17	2	4.882	0.145
298.15	0.17	2.5	4.728	0.141
298.15	0.17	3	4.585	0.137
298.15	0.17	3.5	4.442	0.131
298.15	0.17	4	4.336	0.155
298.15	0.5	0	6.357	0.098
298.15	0.5	0.1	6.342	0.097
298.15	0.5	0.25	6.234	0.096
298.15	0.5	0.5	6.135	0.095
298.15	0.5	0.75	5.993	0.093
298.15	0.5	1	5.876	0.093
298.15	0.5	1.5	5.682	0.091
298.15	0.5	2	5.482	0.09
298.15	0.5	2.5	5.336	0.089
298.15	0.5	3	5.192	0.089
298.15	0.5	3.5	5.094	0.088
298.15	0.5	4	5.002	0.088
298.15	0.7	0	6.359	0.096
298.15	0.7	0.1	6.342	0.095
298.15	0.7	0.25	6.257	0.095
298.15	0.7	0.5	6.181	0.094
298.15	0.7	0.75	6.069	0.093
298.15	0.7	1	5.965	0.092
298.15	0.7	1.5	5.773	0.091
298.15	0.7	2	5.637	0.089
298.15	0.7	2.5	5.542	0.089
298.15	0.7	3	5.464	0.088
298.15	0.7	3.5	5.4	0.087
298.15	0.7	4	5.336	0.087
298.15	0.9	0	6.027	0.091
298.15	0.9	0.1	6.001	0.09
298.15	0.9	0.25	5.997	0.09
298.15	0.9	0.5	5.945	0.089
298.15	0.9	0.75	5.862	0.089
298.15	0.9	1	5.801	0.089
298.15	0.9	1.5	5.681	0.088
298.15	0.9	2	5.549	0.087
298.15	0.9	2.5	5.456	0.086
298.15	0.9	3	5.352	0.085
298.15	0.9	3.5	5.285	0.084
298.15	0.9	4	5.246	0.085
308.15	0.05	0	7.238	0.29
308.15	0.05	0.1	7.215	0.29
308.15	0.05	0.25	7.186	0.286
308.15	0.05	0.5	7.126	0.285
308.15	0.05	0.75	7.003	0.281
308.15	0.05	1	6.947	0.274
308.15	0.05	1.5	6.839	0.245
308.15	0.05	2	6.787	0.227
308.15	0.05	2.5	6.743	0.203
308.15	0.05	3	6.696	0.184
308.15	0.05	3.5	6.654	0.166
308.15	0.05	4	6.607	0.149
308.15	0.1	0	8.617	0.226
308.15	0.1	0.1	8.593	0.222
308.15	0.1	0.25	8.542	0.217
308.15	0.1	0.5	8.461	0.212
308.15	0.1	0.75	8.358	0.213
308.15	0.1	1	8.245	0.211
308.15	0.1	1.5	8.002	0.211
308.15	0.1	2	7.842	0.207
308.15	0.1	2.5	7.663	0.199
308.15	0.1	3	7.511	0.192
308.15	0.1	3.5	7.366	0.182
308.15	0.1	4	7.216	0.173
308.15	0.17	0	9.703	0.193
308.15	0.17	0.1	9.661	0.189
308.15	0.17	0.25	9.563	0.186
308.15	0.17	0.5	9.447	0.181
308.15	0.17	0.75	9.349	0.18
308.15	0.17	1	9.258	0.184
308.15	0.17	1.5	9.133	0.196
308.15	0.17	2	9.007	0.199
308.15	0.17	2.5	8.849	0.202
308.15	0.17	3	8.694	0.2
308.15	0.17	3.5	8.509	0.197
308.15	0.17	4	8.351	0.195
308.15	0.5	0	10.735	0.118
308.15	0.5	0.1	10.684	0.119
308.15	0.5	0.25	10.589	0.119
308.15	0.5	0.5	10.388	0.117
308.15	0.5	0.75	10.19	0.116
308.15	0.5	1	10.068	0.115
308.15	0.5	1.5	9.824	0.114
308.15	0.5	2	9.645	0.114
308.15	0.5	2.5	9.486	0.113
308.15	0.5	3	9.363	0.113
308.15	0.5	3.5	9.227	0.112
308.15	0.5	4	9.091	0.111
308.15	0.7	0	10.828	0.117
308.15	0.7	0.1	10.774	0.118
308.15	0.7	0.25	10.696	0.12
308.15	0.7	0.5	10.543	0.117
308.15	0.7	0.75	10.37	0.116
308.15	0.7	1	10.263	0.117
308.15	0.7	1.5	10.042	0.114
308.15	0.7	2	9.839	0.113
308.15	0.7	2.5	9.679	0.111
308.15	0.7	3	9.541	0.11
308.15	0.7	3.5	9.43	0.109
308.15	0.7	4	9.331	0.107
308.15	0.9	0	9.914	0.119
308.15	0.9	0.1	9.854	0.119
308.15	0.9	0.25	9.823	0.117
308.15	0.9	0.5	9.745	0.115
308.15	0.9	0.75	9.691	0.114
308.15	0.9	1	9.626	0.113
308.15	0.9	1.5	9.469	0.111
308.15	0.9	2	9.335	0.11
308.15	0.9	2.5	9.155	0.108
308.15	0.9	3	9.042	0.108
308.15	0.9	3.5	8.925	0.107
308.15	0.9	4	8.806	0.106
