Measured thermophysical data. Vapor-Liquid Equilibria for the Binary System of 1,1,1-Trifluoroethane (HFC-143a) + Butane (R600) at Various Temperatures
Source: J. Chem. Eng. Data, 2008, 10.1021/je700725j
Compound 1: butane, C4H10, InChI=1S/C4H10/c1-3-4-2/h3-4H2,1-2H3, purity 99.5%
Compound 2: 1,1,1-trifluoroethane, C2H3F3, InChI=1S/C2H3F3/c1-2(3,4)5/h1H3, purity 99.9%

System: butane; phases: Liquid, Gas
Property: Vapor or sublimation pressure, kPa (Liquid); method: CCELL:UFactor:2
Temperature, K	Vapor or sublimation pressure, kPa	uncertainty
273.15	104	2
283.15	150	2
293.15	208	2
303.15	284	3
313.15	378	3
323.15	494	4

System: 1,1,1-trifluoroethane; phases: Liquid, Gas
Property: Vapor or sublimation pressure, kPa (Liquid); method: CCELL:UFactor:2
Temperature, K	Vapor or sublimation pressure, kPa	uncertainty
273.15	620	4
283.15	837	5
293.15	1104	7
303.15	1432	9
313.15	1830	11
323.15	2298	14

System: butane + 1,1,1-trifluoroethane; phases: Liquid, Gas
Property: Vapor or sublimation pressure, kPa (Liquid); method: CCELL:UFactor:2
Mole fraction of 1,1,1-trifluoroethane	Temperature, K	Vapor or sublimation pressure, kPa	uncertainty
0	273.15	104	2
0	283.15	150	2
0	293.15	208	2
0	303.15	284	3
0	313.15	378	3
0	323.15	494	4
0.029	283.15	225	2
0.042	323.15	690	4
0.052	273.15	206	2
0.059	293.15	378	3
0.06	303.15	487	3
0.06	313.15	611	4
0.085	323.15	854	5
0.104	283.15	360	3
0.108	313.15	758	5
0.117	273.15	296	3
0.189	303.15	768	5
0.202	293.15	627	4
0.21	313.15	993	6
0.213	273.15	378	3
0.221	283.15	501	4
0.255	323.15	1320	8
0.304	293.15	729	5
0.318	283.15	574	4
0.335	313.15	1195	7
0.338	273.15	445	3
0.355	323.15	1503	9
0.364	303.15	989	6
0.407	293.15	808	5
0.423	283.15	626	4
0.428	273.15	476	3
0.429	303.15	1050	7
0.462	313.15	1355	8
0.482	323.15	1697	11
0.505	293.15	866	5
0.525	303.15	1130	7
0.541	273.15	512	4
0.541	283.15	681	4
0.546	323.15	1783	11
0.553	313.15	1448	9
0.611	293.15	922	6
0.614	323.15	1868	12
0.63	273.15	537	4
0.634	283.15	714	5
0.645	313.15	1537	10
0.658	303.15	1226	8
0.701	293.15	965	6
0.725	283.15	747	5
0.731	313.15	1616	10
0.733	323.15	2014	13
0.737	273.15	561	4
0.738	303.15	1281	8
0.764	293.15	996	6
0.789	303.15	1315	8
0.789	323.15	2079	13
0.793	283.15	770	5
0.795	313.15	1672	10
0.81	273.15	580	4
0.83	293.15	1028	6
0.846	313.15	1717	11
0.85	303.15	1355	8
0.852	273.15	591	4
0.863	323.15	2164	13
0.868	283.15	795	5
0.88	293.15	1053	7
0.881	313.15	1745	11
0.895	303.15	1383	9
0.899	273.15	604	4
0.9	323.15	2202	14
0.91	283.15	811	5
0.923	293.15	1072	7
0.932	313.15	1786	11
0.939	323.15	2243	14
0.941	303.15	1410	9
0.954	293.15	1087	7
0.955	283.15	828	5
0.957	273.15	618	4
0.981	293.15	1097	7
1	273.15	620	4
1	283.15	837	5
1	293.15	1104	7
1	303.15	1432	9
1	313.15	1830	11
1	323.15	2298	14

System: butane + 1,1,1-trifluoroethane; phases: Gas, Liquid
Property: Mole fraction of 1,1,1-trifluoroethane (Gas); method: CHROM:UFactor:4
Mole fraction of 1,1,1-trifluoroethane	Temperature, K	Mole fraction of 1,1,1-trifluoroethane	uncertainty
0	273.15	0	0.001
0	283.15	0	0.001
0	293.15	0	0.001
0	303.15	0	0.001
0	313.15	0	0.001
0	323.15	0	0.001
0.029	283.15	0.233	0.011
0.042	323.15	0.254	0.012
0.052	273.15	0.424	0.02
0.059	293.15	0.399	0.019
0.06	303.15	0.391	0.019
0.06	313.15	0.352	0.017
0.085	323.15	0.396	0.019
0.104	283.15	0.52	0.023
0.108	313.15	0.468	0.022
0.117	273.15	0.583	0.02
0.189	303.15	0.623	0.018
0.202	293.15	0.65	0.017
0.21	313.15	0.615	0.018
0.213	273.15	0.682	0.015
0.221	283.15	0.679	0.015
0.255	323.15	0.629	0.018
0.304	293.15	0.714	0.014
0.318	283.15	0.735	0.013
0.335	313.15	0.697	0.015
0.338	273.15	0.755	0.012
0.355	323.15	0.696	0.015
0.364	303.15	0.737	0.013
0.407	293.15	0.768	0.011
0.423	283.15	0.772	0.011
0.428	273.15	0.787	0.01
0.429	303.15	0.758	0.012
0.462	313.15	0.757	0.012
0.482	323.15	0.747	0.012
0.505	293.15	0.802	0.01
0.525	303.15	0.794	0.01
0.541	273.15	0.826	0.008
0.541	283.15	0.816	0.009
0.546	323.15	0.773	0.011
0.553	313.15	0.79	0.01
0.611	293.15	0.835	0.01
0.614	323.15	0.798	0.01
0.63	273.15	0.856	0.007
0.634	283.15	0.842	0.008
0.645	313.15	0.823	0.009
0.658	303.15	0.839	0.008
0.701	293.15	0.863	0.01
0.725	283.15	0.873	0.006
0.731	313.15	0.855	0.007
0.733	323.15	0.844	0.008
0.737	273.15	0.881	0.006
0.738	303.15	0.865	0.007
0.764	293.15	0.884	0.01
0.789	303.15	0.885	0.006
0.789	323.15	0.87	0.006
0.793	283.15	0.897	0.005
0.795	313.15	0.881	0.006
0.81	273.15	0.906	0.005
0.83	293.15	0.909	0.01
0.846	313.15	0.904	0.005
0.85	303.15	0.911	0.004
0.852	273.15	0.921	0.004
0.863	323.15	0.907	0.005
0.868	283.15	0.927	0.004
0.88	293.15	0.931	0.01
0.881	313.15	0.922	0.004
0.895	303.15	0.934	0.003
0.899	273.15	0.941	0.003
0.9	323.15	0.929	0.003
0.91	283.15	0.947	0.003
0.923	293.15	0.932	0.02
0.932	313.15	0.952	0.002
0.939	323.15	0.954	0.002
0.941	303.15	0.959	0.002
0.954	293.15	0.959	0.01
0.955	283.15	0.972	0.001
0.957	273.15	0.973	0.001
0.981	293.15	0.981	0.01
1	273.15	1	0.001
1	283.15	1	0.001
1	293.15	1	0.001
1	303.15	1	0.001
1	313.15	1	0.001
1	323.15	1	0.001
