Measured thermophysical data. Thermodynamic Properties of Tripotassium Citrate in Water and in Aqueous Solutions of Polypropylene Oxide 400 over a Range of Temperatures
Source: J. Chem. Eng. Data, 2007, 10.1021/je7001368
Compound 1: water, H2O, InChI=1S/H2O/h1H2
Compound 2: potassium citrate, C6H5K3O7, InChI=1S/C6H8O7.3K/c7-3(8)1-6(13,5(11)12)2-4(9)10;;;/h13H,1-2H2,(H,7,8)(H,9,10)(H,11,12);;;/q;3*+1/p-3

System: potassium citrate + water; phases: Liquid
Fixed: Pressure, kPa = 101
Property: Speed of sound, m/s (Liquid); method: FPINT:UFactor:2
Temperature, K	Molality, mol/kg of potassium citrate	Speed of sound, m/s	uncertainty
288.15	0.0185	1470.84	1.45
288.15	0.0304	1473.36	1.46
288.15	0.031	1473.5	1.46
288.15	0.0558	1478.63	1.47
288.15	0.0899	1485.66	1.48
288.15	0.1258	1493.78	1.49
288.15	0.1931	1506.52	1.52
288.15	0.2653	1519.92	1.56
288.15	0.3412	1534.32	1.6
288.15	0.4565	1556.72	1.67
288.15	0.5796	1578.42	1.75
288.15	0.7446	1608.14	1.86
293.15	0.0185	1486.65	1.47
293.15	0.0304	1489.14	1.47
293.15	0.031	1489.3	1.47
293.15	0.0558	1494.3	1.48
293.15	0.0899	1501.09	1.49
293.15	0.1258	1508.97	1.51
293.15	0.1931	1521.24	1.53
293.15	0.2653	1534.2	1.57
293.15	0.3412	1548.08	1.61
293.15	0.4565	1569.72	1.68
293.15	0.5796	1590.56	1.76
293.15	0.7446	1619.39	1.86
298.15	0.0185	1500.77	1.48
298.15	0.0304	1503.17	1.48
298.15	0.031	1503.32	1.48
298.15	0.0558	1508.14	1.49
298.15	0.0899	1514.73	1.5
298.15	0.1258	1522.43	1.52
298.15	0.1931	1534.27	1.54
298.15	0.2653	1546.75	1.58
298.15	0.3412	1560.22	1.62
298.15	0.4565	1581.18	1.69
298.15	0.5796	1601.35	1.76
298.15	0.7446	1629.25	1.87
303.15	0.0185	1513.03	1.49
303.15	0.0304	1515.37	1.49
303.15	0.031	1515.53	1.49
303.15	0.0558	1520.21	1.5
303.15	0.0899	1526.58	1.51
303.15	0.1258	1534.12	1.52
303.15	0.1931	1545.57	1.55
303.15	0.2653	1557.71	1.59
303.15	0.3412	1570.73	1.63
303.15	0.4565	1591.14	1.7
303.15	0.5796	1610.62	1.77
303.15	0.7446	1637.71	1.87
308.15	0.0185	1523.63	1.5
308.15	0.0304	1525.92	1.5
308.15	0.031	1526.06	1.5
308.15	0.0558	1530.62	1.51
308.15	0.0899	1536.8	1.52
308.15	0.1258	1544.21	1.53
308.15	0.1931	1555.32	1.56
308.15	0.2653	1567.09	1.59
308.15	0.3412	1579.7	1.63
308.15	0.4565	1599.68	1.7
308.15	0.5796	1618.5	1.78
308.15	0.7446	1644.87	1.88
313.15	0.0185	1532.66	1.5
313.15	0.0304	1534.88	1.51
313.15	0.031	1535.02	1.51
313.15	0.0558	1539.47	1.51
313.15	0.0899	1545.48	1.52
313.15	0.1258	1552.75	1.54
313.15	0.1931	1563.61	1.57
313.15	0.2653	1575.01	1.6
313.15	0.3412	1587.34	1.64
313.15	0.4565	1606.89	1.71
313.15	0.5796	1625.09	1.78
313.15	0.7446	1650.8	1.88

System: potassium citrate + water; phases: Liquid
Fixed: Pressure, kPa = 101
Property: Mass density, kg/m3 (Liquid); method: VIBTUB:UFactor:8
Temperature, K	Molality, mol/kg of potassium citrate	Mass density, kg/m3	uncertainty
288.15	0.0185	1002.985	0.395
288.15	0.0304	1005.444	0.401
288.15	0.031	1005.554	0.402
288.15	0.0558	1010.504	0.422
288.15	0.0899	1017.35	0.45
288.15	0.1258	1024.328	0.48
288.15	0.1931	1037.252	0.543
288.15	0.2653	1050.765	0.615
288.15	0.3412	1064.508	0.695
288.15	0.4565	1084.708	0.827
288.15	0.5796	1105.191	0.977
288.15	0.7446	1131.731	1.197
293.15	0.0185	1002.055	0.395
293.15	0.0304	1004.498	0.398
293.15	0.031	1004.607	0.398
293.15	0.0558	1009.514	0.418
293.15	0.0899	1016.305	0.445
293.15	0.1258	1023.229	0.475
293.15	0.1931	1036.058	0.538
293.15	0.2653	1049.481	0.609
293.15	0.3412	1063.129	0.689
293.15	0.4565	1083.212	0.82
293.15	0.5796	1103.584	0.97
293.15	0.7446	1129.91	1.188
298.15	0.0185	1000.869	0.389
298.15	0.0304	1003.294	0.393
298.15	0.031	1003.402	0.393
298.15	0.0558	1008.273	0.412
298.15	0.0899	1015.017	0.44
298.15	0.1258	1021.896	0.47
298.15	0.1931	1034.645	0.532
298.15	0.2653	1047.986	0.603
298.15	0.3412	1061.56	0.682
298.15	0.4565	1081.538	0.813
298.15	0.5796	1101.814	0.962
298.15	0.7446	1128.108	1.18
303.15	0.0185	999.449	0.387
303.15	0.0304	1001.859	0.387
303.15	0.031	1001.966	0.388
303.15	0.0558	1006.81	0.407
303.15	0.0899	1013.517	0.434
303.15	0.1258	1020.354	0.464
303.15	0.1931	1033.034	0.525
303.15	0.2653	1046.308	0.596
303.15	0.3412	1059.818	0.675
303.15	0.4565	1079.706	0.805
303.15	0.5796	1099.898	0.954
303.15	0.7446	1126.099	1.171
308.15	0.0185	997.814	0.392
308.15	0.0304	1000.214	0.381
308.15	0.031	1000.32	0.382
308.15	0.0558	1005.139	0.4
308.15	0.0899	1011.812	0.428
308.15	0.1258	1018.619	0.457
308.15	0.1931	1031.241	0.518
308.15	0.2653	1044.457	0.589
308.15	0.3412	1057.912	0.667
308.15	0.4565	1077.724	0.797
308.15	0.5796	1097.847	0.945
308.15	0.7446	1123.967	1.161
313.15	0.0185	995.982	0.395
313.15	0.0304	998.37	0.385
313.15	0.031	998.478	0.385
313.15	0.0558	1003.277	0.393
313.15	0.0899	1009.924	0.421
313.15	0.1258	1016.703	0.449
313.15	0.1931	1029.275	0.51
313.15	0.2653	1042.445	0.58
313.15	0.3412	1055.859	0.659
313.15	0.4565	1075.604	0.788
313.15	0.5796	1095.668	0.935
313.15	0.7446	1121.716	1.15
