Measured thermophysical data. Solubilities of LaCl3 in HCl Aqueous Solution at (25, 35, and 45) deg C
Source: J. Chem. Eng. Data, 2008, 10.1021/je700258h
Compound 1: lanthanum chloride, Cl3La, InChI=1S/3ClH.La/h3*1H;/q;;;+3/p-3
Compound 2: water, H2O, InChI=1S/H2O/h1H2
Compound 3: hydrogen chloride, ClH, InChI=1S/ClH/h1H

System: hydrogen chloride + water + lanthanum chloride; phases: Liquid, Crystal of intercomponent compound 1
Fixed: Pressure, kPa = 101
Property: Mass fraction of lanthanum chloride (Liquid); method: Titration method
Temperature, K	Solvent: Amount concentration (molarity), mol/dm3 of hydrogen chloride	Mass fraction of lanthanum chloride	uncertainty
298.15	0	0.4818	0.0201
298.15	1.001	0.4229	0.12
298.15	1.49	0.4073	0.08
298.15	2.024	0.3952	0.12
298.15	2.796	0.3488	0.1
298.15	3.899	0.3075	0.1
298.15	4.939	0.2976	0.04
298.15	5.892	0.217	0.06
298.15	7.857	0.1457	0.06
298.15	9.583	0.0434	0.04
308.15	0	0.4973	0.0401
308.15	1.001	0.4451	0.06
308.15	2.024	0.4224	0.08
308.15	2.796	0.3509	0.06
308.15	3.899	0.326	0.04
308.15	4.939	0.2695	0.08
308.15	5.892	0.1852	0.06
308.15	7.857	0.0802	0.04
308.15	9.583	0.0486	0.0486
318.15	0	0.5127	0.0401
318.15	1.49	0.485	0.08
318.15	2.024	0.4763	0.12
318.15	2.796	0.4372	0.16
318.15	3.899	0.3787	0.12
318.15	4.939	0.3402	0.08
318.15	5.892	0.3042	0.1
318.15	7.857	0.1535	0.1
