Measured thermophysical data. Liquid-Liquid Equilibria for Ternary Systems of Water + Formic Acid + Dibasic Esters
Source: J. Chem. Eng. Data, 2007, 10.1021/je700206y
Compound 1: water, H2O, InChI=1S/H2O/h1H2
Compound 2: formic acid, CH2O2, InChI=1S/CH2O2/c2-1-3/h1H,(H,2,3), purity 99%
Compound 3: dimethyl 1,4-butanedioate, C6H10O4, InChI=1S/C6H10O4/c1-9-5(7)3-4-6(8)10-2/h3-4H2,1-2H3, purity 98%
Compound 4: dimethyl pentanedioate, C7H12O4, InChI=1S/C7H12O4/c1-10-6(8)4-3-5-7(9)11-2/h3-5H2,1-2H3, purity 99%
Compound 5: dimethyl 1,6-hexanedioate, C8H14O4, InChI=1S/C8H14O4/c1-11-7(9)5-3-4-6-8(10)12-2/h3-6H2,1-2H3, purity 99%

System: formic acid; phases: Liquid, Gas
Property: Normal boiling temperature, K (Liquid); method: Distillation
Normal boiling temperature, K	uncertainty
374.4	0.2

System: formic acid; phases: Liquid
Property: Refractive index (Na D-line) (Liquid); method: Standard Abbe refractometry
Temperature, K	Pressure, kPa	Refractive index (Na D-line)	uncertainty
293.2	101.325	1.37144	0.0007

System: formic acid; phases: Liquid
Property: Mass density, kg/m3 (Liquid); method: VIBTUB:UFactor:6
Temperature, K	Pressure, kPa	Mass density, kg/m3	uncertainty
293.2	101.325	1220.04	1.01

System: dimethyl 1,4-butanedioate; phases: Liquid, Gas
Property: Normal boiling temperature, K (Liquid); method: Distillation
Normal boiling temperature, K	uncertainty
469.2	0.2

System: dimethyl 1,4-butanedioate; phases: Liquid
Property: Refractive index (Na D-line) (Liquid); method: Standard Abbe refractometry
Temperature, K	Pressure, kPa	Refractive index (Na D-line)	uncertainty
293.2	101.325	1.41969	0.00078

System: dimethyl 1,4-butanedioate; phases: Liquid
Property: Mass density, kg/m3 (Liquid); method: VIBTUB:UFactor:8
Temperature, K	Pressure, kPa	Mass density, kg/m3	uncertainty
293.2	101.325	1119.13	1.64

System: dimethyl pentanedioate; phases: Liquid, Gas
Property: Normal boiling temperature, K (Liquid); method: Distillation
Normal boiling temperature, K	uncertainty
487.3	0.2

System: dimethyl pentanedioate; phases: Liquid
Property: Refractive index (Na D-line) (Liquid); method: Standard Abbe refractometry
Temperature, K	Pressure, kPa	Refractive index (Na D-line)	uncertainty
293.2	101.325	1.42454	0.0007

System: dimethyl pentanedioate; phases: Liquid
Property: Mass density, kg/m3 (Liquid); method: VIBTUB:UFactor:6
Temperature, K	Pressure, kPa	Mass density, kg/m3	uncertainty
293.2	101.325	1087.67	0.63

System: dimethyl 1,6-hexanedioate; phases: Liquid
Property: Refractive index (Na D-line) (Liquid); method: Standard Abbe refractometry
Temperature, K	Pressure, kPa	Refractive index (Na D-line)	uncertainty
293.2	101.325	1.42825	0.0007

System: dimethyl 1,6-hexanedioate; phases: Liquid, Gas
Property: Boiling temperature at pressure P, K (Liquid); method: Distillation
Pressure, kPa	Boiling temperature at pressure P, K	uncertainty
1.733	388	1

System: dimethyl 1,6-hexanedioate; phases: Liquid
Property: Mass density, kg/m3 (Liquid); method: VIBTUB:UFactor:6
Temperature, K	Pressure, kPa	Mass density, kg/m3	uncertainty
293.2	101.325	1061.72	0.56

System: formic acid + dimethyl 1,4-butanedioate + water; phases: Liquid mixture 1, Liquid mixture 2
Fixed: Pressure, kPa = 101.3
Fixed: Temperature, K = 298.2
Property: Mass fraction of formic acid (Liquid mixture 1); method: Chromatography
Property: Mass fraction of formic acid (Liquid mixture 2); method: Chromatography
Property: Mass fraction of water (Liquid mixture 2); method: Chromatography
Mass fraction of water	Mass fraction of formic acid	uncertainty	Mass fraction of formic acid	uncertainty	Mass fraction of water	uncertainty
0.754	0.0664	0.0023	0.0458	0.0023	0.1292	
0.734	0.0773	0.0022	0.0546	0.0023	0.1454	
0.655	0.1073	0.0023	0.081	0.0023	0.199	

System: formic acid + dimethyl 1,4-butanedioate + water; phases: Liquid mixture 1, Liquid mixture 2
Fixed: Temperature, K = 298.2
Fixed: Pressure, kPa = 101
Property: Mass fraction of dimethyl 1,4-butanedioate (Liquid mixture 1); method: Titration method
Mass fraction of water	Mass fraction of dimethyl 1,4-butanedioate	uncertainty
0.0557	0.9443	0.004
0.2263	0.6805	0.0103
0.3292	0.5603	0.0138
0.414	0.4677	0.0146
0.4718	0.4087	0.0128
0.6916	0.2125	0.0067
0.8763	0.1237	0.0041

System: formic acid + dimethyl pentanedioate + water; phases: Liquid mixture 1, Liquid mixture 2
Fixed: Pressure, kPa = 101.3
Fixed: Temperature, K = 298.2
Property: Mass fraction of formic acid (Liquid mixture 1); method: Chromatography
Property: Mass fraction of formic acid (Liquid mixture 2); method: Chromatography
Property: Mass fraction of water (Liquid mixture 2); method: Chromatography
Mass fraction of water	Mass fraction of formic acid	uncertainty	Mass fraction of formic acid	uncertainty	Mass fraction of water	uncertainty
0.855	0.0574	0.0025	0.0399	0.0033	0.0601	
0.82	0.0815	0.0024	0.0489	0.0033	0.0671	
0.729	0.1317	0.0024	0.0874	0.0034	0.0966	
0.64	0.1641	0.0024	0.1216	0.0036	0.1204	

System: formic acid + dimethyl pentanedioate + water; phases: Liquid mixture 1, Liquid mixture 2
Fixed: Temperature, K = 298.2
Fixed: Pressure, kPa = 101
Property: Mass fraction of dimethyl pentanedioate (Liquid mixture 1); method: Titration method
Mass fraction of water	Mass fraction of dimethyl pentanedioate	uncertainty
0.0489	0.9511	0.0045
0.1619	0.7368	0.0088
0.273	0.5791	0.0133
0.381	0.4519	0.0142
0.5256	0.2977	0.0094
0.6335	0.1987	0.0063
0.7827	0.1081	0.0038
0.9373	0.0627	0.0027

System: formic acid + dimethyl 1,6-hexanedioate + water; phases: Liquid mixture 1, Liquid mixture 2
Fixed: Pressure, kPa = 101.3
Fixed: Temperature, K = 298.2
Property: Mass fraction of formic acid (Liquid mixture 1); method: Chromatography
Property: Mass fraction of formic acid (Liquid mixture 2); method: Chromatography
Property: Mass fraction of water (Liquid mixture 2); method: Chromatography
Mass fraction of water	Mass fraction of formic acid	uncertainty	Mass fraction of formic acid	uncertainty	Mass fraction of water	uncertainty
0.903	0.0559	0.0026	0.0297	0.0034	0.0603	
0.8	0.1358	0.0026	0.0731	0.0034	0.0919	
0.725	0.1842	0.0026	0.1206	0.0029	0.1274	
0.643	0.2236	0.0027	0.1492	0.0027	0.1688	

System: formic acid + dimethyl 1,6-hexanedioate + water; phases: Liquid mixture 1, Liquid mixture 2
Fixed: Temperature, K = 298.2
Fixed: Pressure, kPa = 101
Property: Mass fraction of dimethyl 1,6-hexanedioate (Liquid mixture 1); method: Titration method
Mass fraction of water	Mass fraction of dimethyl 1,6-hexanedioate	uncertainty
0.0321	0.9679	0.0049
0.1222	0.7721	0.0081
0.1998	0.6381	0.0117
0.2503	0.5605	0.0139
0.2988	0.5009	0.0157
0.4116	0.3559	0.0113
0.5482	0.2125	0.0069
0.6581	0.1226	0.0042
0.7363	0.0807	0.0031
0.8314	0.0557	0.0026
0.9718	0.0282	0.0022

System: dimethyl 1,4-butanedioate + water; phases: Liquid mixture 1, Liquid mixture 2
Fixed: Temperature, K = 298.2
Fixed: Pressure, kPa = 101
Property: Mass fraction of dimethyl 1,4-butanedioate (Liquid mixture 1); method: Titration method
Mass fraction of dimethyl 1,4-butanedioate	uncertainty
0.9443	0.004
0.1237	0.0041

System: dimethyl pentanedioate + water; phases: Liquid mixture 1, Liquid mixture 2
Fixed: Temperature, K = 298.2
Fixed: Pressure, kPa = 101
Property: Mass fraction of dimethyl pentanedioate (Liquid mixture 1); method: Titration method
Mass fraction of dimethyl pentanedioate	uncertainty
0.9511	0.0045
0.0627	0.0027

System: dimethyl 1,6-hexanedioate + water; phases: Liquid mixture 1, Liquid mixture 2
Fixed: Temperature, K = 298.2
Fixed: Pressure, kPa = 101
Property: Mass fraction of dimethyl 1,6-hexanedioate (Liquid mixture 1); method: Titration method
Mass fraction of dimethyl 1,6-hexanedioate	uncertainty
0.9679	0.0049
0.0282	0.0022
