Measured thermophysical data. Phase Equilibrium Properties of Binary and Ternary Mixtures Containing Dibutyl Ether, Cyclohexane, and Heptane or 1-Hexene at T ) 313.15 K
Source: J. Chem. Eng. Data, 2008, 10.1021/je7007523
Compound 1: dibutyl ether, C8H18O, InChI=1S/C8H18O/c1-3-5-7-9-8-6-4-2/h3-8H2,1-2H3, purity 99.5%
Compound 2: heptane, C7H16, InChI=1S/C7H16/c1-3-5-7-6-4-2/h3-7H2,1-2H3, purity 98%
Compound 3: hex-1-ene, C6H12, InChI=1S/C6H12/c1-3-5-6-4-2/h3H,1,4-6H2,2H3, purity 98%
Compound 4: cyclohexane, C6H12, InChI=1S/C6H12/c1-2-4-6-5-3-1/h1-6H2, purity 98%

System: dibutyl ether; phases: Liquid, Gas
Fixed: Temperature, K = 313.15
Property: Vapor or sublimation pressure, kPa (Liquid); method: Ebulliometric method (Recirculating still)
Vapor or sublimation pressure, kPa	uncertainty
2.08	0.047
2.066	0.047
2.055	0.047
2.05	0.047
2.045	0.047
2.062	0.047
2.035	0.047

System: heptane; phases: Liquid, Gas
Fixed: Temperature, K = 313.15
Property: Vapor or sublimation pressure, kPa (Liquid); method: Ebulliometric method (Recirculating still)
Vapor or sublimation pressure, kPa	uncertainty
12.331	0.088
12.326	0.087

System: hex-1-ene; phases: Liquid, Gas
Fixed: Temperature, K = 313.15
Property: Vapor or sublimation pressure, kPa (Liquid); method: Ebulliometric method (Recirculating still)
Vapor or sublimation pressure, kPa	uncertainty
44.955	0.218
44.949	0.218
44.951	0.218

System: cyclohexane; phases: Liquid, Gas
Fixed: Temperature, K = 313.15
Property: Vapor or sublimation pressure, kPa (Liquid); method: Ebulliometric method (Recirculating still)
Vapor or sublimation pressure, kPa	uncertainty
24.613	0.137
24.621	0.137
24.615	0.137

System: heptane + dibutyl ether; phases: Liquid, Gas
Fixed: Temperature, K = 313.15
Property: Vapor or sublimation pressure, kPa (Liquid); method: Ebulliometric method (Recirculating still)
Mole fraction of dibutyl ether	Vapor or sublimation pressure, kPa	uncertainty
0	12.331	0.088
0.053	11.806	0.088
0.099	11.35	0.086
0.149	10.83	0.084
0.203	10.314	0.082
0.252	9.83	0.08
0.298	9.374	0.078
0.3064	9.249	0.078
0.35	8.865	0.076
0.396	8.407	0.074
0.399	8.381	0.074
0.445	7.914	0.072
0.448	7.891	0.071
0.498	7.388	0.0708
0.5	7.361	0.071
0.55	6.851	0.069
0.596	6.386	0.067
0.645	5.862	0.065
0.6902	5.352	0.063
0.693	5.367	0.063
0.748	4.798	0.061
0.794	4.313	0.059
0.845	3.779	0.058
0.905	3.128	0.055
0.943	2.723	0.054
1	2.08	0.047

System: dibutyl ether + hex-1-ene; phases: Liquid, Gas
Fixed: Temperature, K = 313.15
Property: Vapor or sublimation pressure, kPa (Liquid); method: Ebulliometric method (Recirculating still)
Mole fraction of dibutyl ether	Vapor or sublimation pressure, kPa	uncertainty
0	44.955	0.218
0.0494	42.795	0.227
0.1032	40.44	0.218
0.1597	37.984	0.209
0.2103	35.776	0.201
0.2566	33.764	0.194
0.3044	31.725	0.187
0.3096	31.452	0.186
0.3584	29.33	0.178
0.4012	27.472	0.17
0.4076	27.202	0.17
0.4513	25.298	0.168
0.4572	25.022	0.167
0.501	23.14	0.16
0.507	22.864	0.159
0.5513	20.969	0.15
0.5556	20.78	0.15
0.5997	18.862	0.139
0.6055	18.632	0.138
0.6519	16.624	0.135
0.6865	15.144	0.131
0.6968	14.713	0.129
0.7431	12.75	0.123
0.7939	10.603	0.117
0.8462	8.41	0.11
0.89	6.585	0.105
0.9416	4.446	0.1
1	2.066	0.047

System: cyclohexane + dibutyl ether; phases: Liquid, Gas
Fixed: Temperature, K = 313.15
Property: Vapor or sublimation pressure, kPa (Liquid); method: Ebulliometric method (Recirculating still)
Mole fraction of dibutyl ether	Vapor or sublimation pressure, kPa	uncertainty
0.2975	17.902	0.114
0.3153	17.552	0.149
0.6878	9.095	0.079
0.7139	8.512	0.119

System: cyclohexane + hex-1-ene; phases: Liquid, Gas
Fixed: Temperature, K = 313.15
Property: Vapor or sublimation pressure, kPa (Liquid); method: Ebulliometric method (Recirculating still)
Mole fraction of cyclohexane	Vapor or sublimation pressure, kPa	uncertainty
0.2893	39.776	0.201
0.7058	31.628	0.17

System: cyclohexane + heptane; phases: Liquid, Gas
Fixed: Temperature, K = 313.15
Property: Vapor or sublimation pressure, kPa (Liquid); method: Ebulliometric method (Recirculating still)
Mole fraction of cyclohexane	Vapor or sublimation pressure, kPa	uncertainty
0.2808	16.04	0.106
0.6836	20.986	0.124

System: cyclohexane + dibutyl ether + hex-1-ene; phases: Liquid, Gas
Fixed: Temperature, K = 313.15
Property: Vapor or sublimation pressure, kPa (Liquid); method: Ebulliometric method (Recirculating still)
Mole fraction of dibutyl ether	Mole fraction of cyclohexane	Vapor or sublimation pressure, kPa	uncertainty
0	0	44.949	0.218
0	0.2893	39.776	0.201
0	0.7058	31.628	0.17
0	1	24.613	0.137
0.0001	0	44.951	0.218
0.0002	0	44.955	0.218
0.0222	0.6901	31.011	0.173
0.0271	0.2815	38.715	0.209
0.0466	0.2758	37.963	0.219
0.0588	0.6642	29.807	0.175
0.0996	0.6354	28.576	0.183
0.1015	0.26	35.827	0.206
0.1506	0.5994	27.046	0.177
0.1521	0.5	29.006	0.183
0.1568	0.3407	31.901	0.191
0.1653	0.2415	33.361	0.196
0.1681	0.4475	29.354	0.184
0.1739	0.378	30.428	0.187
0.185	0.3919	29.695	0.185
0.1888	0.4102	29.142	0.183
0.2001	0.3425	29.986	0.185
0.2001	0.5644	25.519	0.172
0.2052	0.4458	27.712	0.179
0.2108	0.2283	31.593	0.19
0.2131	0.2997	30.223	0.186
0.2233	0.4852	26.101	0.173
0.2288	0.2483	30.503	0.186
0.236	0.5126	24.963	0.17
0.244	0.5335	24.164	0.167
0.2451	0.1948	30.791	0.189
0.2517	0.5467	23.545	0.166
0.2593	0.1481	31.016	0.189
0.2664	0.2122	29.434	0.184
0.2687	0.5836	21.983	0.162
0.276	0.0934	31.291	0.189
0.2848	0.6186	20.469	0.158
0.2877	0.055	31.48	0.189
0.2951	0.0306	31.585	0.189
0.2981	0.6474	19.17	0.154
0.3042	0.491	22.373	0.161
0.3044	0	31.725	0.187
0.3074	0.6677	18.293	0.151
0.314	0.1984	27.602	0.178
0.3153	0.6847	17.552	0.149
0.3413	0.5028	20.438	0.156
0.3502	0.4585	20.991	0.157
0.361	0.1448	26.6	0.174
0.3639	0.184	25.68	0.171
0.3786	0.4484	19.903	0.156
0.3925	0.1574	24.926	0.165
0.3997	0.4236	19.469	0.152
0.4124	0.3992	19.412	0.149
0.4165	0.1687	23.659	0.151
0.4207	0.1687	23.541	0.15
0.4463	0.3499	18.905	0.148
0.4468	0.3903	18.107	0.145
0.464	0.155	21.834	0.156
0.4644	0.1862	21.294	0.154
0.4816	0.2985	18.373	0.148
0.4971	0.3548	16.599	0.142
0.4983	0.1997	19.566	0.15
0.5138	0.1406	19.936	0.15
0.5168	0.2472	17.838	0.145
0.5332	0.2137	17.776	0.145
0.5506	0.198	17.31	0.144
0.5686	0.2279	15.945	0.14
0.583	0.1509	16.805	0.141
0.6067	0.2431	14.02	0.135
0.622	0.0941	16.183	0.139
0.6398	0.2564	12.308	0.13
0.6481	0.056	15.785	0.138
0.669	0.2681	10.794	0.124
0.6707	0.0231	15.402	0.137
0.6865	0	15.144	0.131
0.6903	0.2766	9.716	0.122
0.7139	0.2861	8.512	0.119
1	0	2.055	0.047
1	0	2.05	0.047
1	0	2.055	0.047

System: cyclohexane + heptane + dibutyl ether; phases: Liquid, Gas
Fixed: Temperature, K = 313.15
Property: Vapor or sublimation pressure, kPa (Liquid); method: Ebulliometric method (Recirculating still)
Mole fraction of dibutyl ether	Mole fraction of cyclohexane	Vapor or sublimation pressure, kPa	uncertainty
0	0	12.326	0.087
0	0.2808	16.04	0.106
0	0.6836	20.986	0.124
0	1	24.621	0.137
0.0001	1	24.615	0.137
0.0258	0.2736	15.652	0.105
0.0271	0.6651	20.449	0.123
0.0473	0.2675	15.341	0.107
0.0489	0.6501	20.041	0.123
0.0867	0.2565	14.763	0.103
0.1016	0.6141	19.017	0.119
0.1335	0.2434	14.089	0.1
0.1475	0.3486	15.29	0.104
0.1482	0.5823	18.128	0.115
0.1522	0.5033	17.184	0.112
0.1624	0.3839	15.565	0.105
0.168	0.4517	16.387	0.109
0.1743	0.2319	13.506	0.098
0.1773	0.419	15.837	0.105
0.1842	0.3987	15.597	0.106
0.192	0.4535	16.107	0.108
0.199	0.3504	14.818	0.102
0.1991	0.5475	17.152	0.111
0.2064	0.4877	16.364	0.109
0.2134	0.3035	14.083	0.1
0.2221	0.5246	16.645	0.11
0.2228	0.2183	12.812	0.097
0.2294	0.2512	13.253	0.098
0.2374	0.5607	16.907	0.111
0.245	0.2006	12.457	0.096
0.2506	0.5123	16.166	0.108
0.2525	0.5963	17.166	0.112
0.2583	0.1571	11.759	0.091
0.2662	0.6287	17.39	0.112
0.2685	0.2055	12.164	0.095
0.2725	0.1106	11.018	0.089
0.2809	0.6634	17.639	0.113
0.2882	0.0595	10.197	0.085
0.2899	0.6847	17.786	0.114
0.294	0.0403	9.893	0.085
0.2968	0.4808	15.281	0.104
0.2975	0.7025	17.902	0.114
0.3064	0	9.249	0.078
0.3158	0.1922	11.493	0.09
0.3326	0.1511	10.831	0.087
0.3465	0.498	15.055	0.104
0.3476	0.446	14.31	0.101
0.3611	0.1795	10.863	0.087
0.3656	0.1661	10.672	0.086
0.3808	0.4482	14.086	0.101
0.396	0.4129	13.392	0.098
0.4001	0.1817	10.508	0.087
0.4103	0.1657	10.18	0.086
0.4153	0.3983	13.118	0.098
0.4348	0.1975	10.467	0.084
0.4468	0.3782	12.429	0.095
0.4508	0.3468	12.115	0.092
0.4634	0.1507	9.444	0.082
0.4718	0.2143	10.161	0.086
0.4824	0.3011	11.226	0.089
0.4967	0.3441	11.483	0.091
0.5044	0.229	9.998	0.089
0.5137	0.2556	10.341	0.091
0.5408	0.2455	9.809	0.086
0.5533	0.1983	9.214	0.08
0.5799	0.2633	9.599	0.083
0.5852	0.1522	8.313	0.077
0.6077	0.2758	9.456	0.082
0.6172	0.1057	7.41	0.074
0.6465	0.2935	9.241	0.081
0.6477	0.0615	6.546	0.072
0.6663	0.0346	6.016	0.071
0.67	0.3041	9.122	0.079
0.6878	0.3122	9.095	0.079
0.6902	0	5.352	0.063
1	0	2.045	0.047
1	0	2.062	0.047
1	0	2.035	0.047
