Measured thermophysical data. Vapor-Liquid Equilibrium and Excess Gibbs Energies of Hexane + N,N-Dimethyl Formamide, 2-Methylpropan-2-ol + 2-Aminophenol, N,N-Dimethyl Formamide, and 2-Propanol + Diisopropyl Amine at 94.4 kPa
Source: J. Chem. Eng. Data, 2007, 10.1021/je7001336
Compound 1: 2-aminoethan-1-ol, C2H7NO, InChI=1S/C2H7NO/c3-1-2-4/h4H,1-3H2
Compound 2: diisopropylamine, C6H15N, InChI=1S/C6H15N/c1-5(2)7-6(3)4/h5-7H,1-4H3
Compound 3: dimethylformamide, C3H7NO, InChI=1S/C3H7NO/c1-4(2)3-5/h3H,1-2H3
Compound 4: hexane, C6H14, InChI=1S/C6H14/c1-3-5-6-4-2/h3-6H2,1-2H3
Compound 5: 2-methylpropan-2-ol, C4H10O, InChI=1S/C4H10O/c1-4(2,3)5/h5H,1-3H3
Compound 6: propan-2-ol, C3H8O, InChI=1S/C3H8O/c1-3(2)4/h3-4H,1-2H3

System: 2-aminoethan-1-ol; phases: Liquid
Property: Refractive index (Na D-line) (Liquid); method: ABBE:UFactor:4
Temperature, K	Pressure, kPa	Refractive index (Na D-line)	uncertainty
298.15	101.325	1.4525	0.0017

System: 2-aminoethan-1-ol; phases: Liquid
Property: Mass density, kg/m3 (Liquid); method: PYCNOM:UFactor:8
Temperature, K	Pressure, kPa	Mass density, kg/m3	uncertainty
298.15	101.325	1013	2.7

System: 2-aminoethan-1-ol; phases: Liquid, Gas
Property: Vapor or sublimation pressure, kPa (Liquid); method: EBULLIO:UFactor:8
Temperature, K	Vapor or sublimation pressure, kPa	uncertainty
441.45	94.4	5

System: diisopropylamine; phases: Liquid
Property: Refractive index (Na D-line) (Liquid); method: ABBE:UFactor:4
Temperature, K	Pressure, kPa	Refractive index (Na D-line)	uncertainty
293.15	101.325	1.3924	0.0017

System: diisopropylamine; phases: Liquid
Property: Mass density, kg/m3 (Liquid); method: PYCNOM:UFactor:8
Temperature, K	Pressure, kPa	Mass density, kg/m3	uncertainty
293.15	101.325	715.3	1.6

System: diisopropylamine; phases: Liquid, Gas
Property: Vapor or sublimation pressure, kPa (Liquid); method: EBULLIO:UFactor:8
Temperature, K	Vapor or sublimation pressure, kPa	uncertainty
355.05	94.4	5

System: dimethylformamide; phases: Liquid
Property: Refractive index (Na D-line) (Liquid); method: ABBE:UFactor:4
Temperature, K	Pressure, kPa	Refractive index (Na D-line)	uncertainty
298.15	101.325	1.4282	0.0017

System: dimethylformamide; phases: Liquid
Property: Mass density, kg/m3 (Liquid); method: PYCNOM:UFactor:8
Temperature, K	Pressure, kPa	Mass density, kg/m3	uncertainty
298.15	101.325	943.9	2.5

System: dimethylformamide; phases: Liquid, Gas
Property: Vapor or sublimation pressure, kPa (Liquid); method: EBULLIO:UFactor:8
Temperature, K	Vapor or sublimation pressure, kPa	uncertainty
423.95	94.4	5

System: hexane; phases: Liquid
Property: Refractive index (Na D-line) (Liquid); method: ABBE:UFactor:4
Temperature, K	Pressure, kPa	Refractive index (Na D-line)	uncertainty
298.15	101.325	1.3723	0.0017

System: hexane; phases: Liquid
Property: Mass density, kg/m3 (Liquid); method: PYCNOM:UFactor:8
Temperature, K	Pressure, kPa	Mass density, kg/m3	uncertainty
298.15	101.325	654.8	1.5

System: hexane; phases: Liquid, Gas
Property: Vapor or sublimation pressure, kPa (Liquid); method: EBULLIO:UFactor:8
Temperature, K	Vapor or sublimation pressure, kPa	uncertainty
339.75	94.4	5

System: 2-methylpropan-2-ol; phases: Liquid
Property: Refractive index (Na D-line) (Liquid); method: ABBE:UFactor:4
Temperature, K	Pressure, kPa	Refractive index (Na D-line)	uncertainty
298.15	101.325	1.3852	0.0017

System: 2-methylpropan-2-ol; phases: Liquid
Property: Mass density, kg/m3 (Liquid); method: PYCNOM:UFactor:8
Temperature, K	Pressure, kPa	Mass density, kg/m3	uncertainty
298.15	101.325	781.2	1.9

System: 2-methylpropan-2-ol; phases: Liquid, Gas
Property: Vapor or sublimation pressure, kPa (Liquid); method: EBULLIO:UFactor:8
Temperature, K	Vapor or sublimation pressure, kPa	uncertainty
353.85	94.4	5
354.15	94.4	5

System: propan-2-ol; phases: Liquid
Property: Refractive index (Na D-line) (Liquid); method: ABBE:UFactor:4
Temperature, K	Pressure, kPa	Refractive index (Na D-line)	uncertainty
298.15	101.325	1.3752	0.0017

System: propan-2-ol; phases: Liquid
Property: Mass density, kg/m3 (Liquid); method: PYCNOM:UFactor:8
Temperature, K	Pressure, kPa	Mass density, kg/m3	uncertainty
298.15	101.325	781.3	1.9

System: propan-2-ol; phases: Liquid, Gas
Property: Vapor or sublimation pressure, kPa (Liquid); method: EBULLIO:UFactor:8
Temperature, K	Vapor or sublimation pressure, kPa	uncertainty
354.05	94.4	5

System: dimethylformamide + hexane; phases: Liquid, Gas
Fixed: Pressure, kPa = 94.4
Property: Boiling temperature at pressure P, K (Liquid); method: EBULLIO:UFactor:8
Mole fraction of hexane	Boiling temperature at pressure P, K	uncertainty
0	423.95	0.69
0.0502	404.75	0.76
0.0905	393.85	0.71
0.2299	370.65	0.7
0.3323	360.95	0.69
0.4988	350.65	0.69
0.589	347.05	0.69
0.7041	343.65	0.69
0.7818	342.05	0.69
0.8775	340.55	0.69
0.9502	340.15	0.69
1	339.75	0.69

System: dimethylformamide + 2-methylpropan-2-ol; phases: Liquid, Gas
Fixed: Pressure, kPa = 94.4
Property: Boiling temperature at pressure P, K (Liquid); method: EBULLIO:UFactor:8
Mole fraction of 2-methylpropan-2-ol	Boiling temperature at pressure P, K	uncertainty
0	423.95	0.69
0.0585	406.45	0.73
0.1192	395.05	0.7
0.213	383.75	0.69
0.3512	373.25	0.69
0.4036	370.35	0.69
0.5199	365.25	0.69
0.6189	361.95	0.69
0.709	359.55	0.69
0.8297	356.95	0.69
0.9069	355.55	0.69
1	353.85	0.69

System: propan-2-ol + diisopropylamine; phases: Liquid, Gas
Fixed: Pressure, kPa = 94.4
Property: Boiling temperature at pressure P, K (Liquid); method: EBULLIO:UFactor:8
Mole fraction of propan-2-ol	Boiling temperature at pressure P, K	uncertainty
0	355.05	0.69
0.0721	354.85	0.69
0.1324	353.05	0.69
0.2338	352.35	0.69
0.314	351.95	0.69
0.4327	351.65	0.69
0.5164	351.65	0.69
0.6282	351.85	0.69
0.7094	352.05	0.69
0.8146	352.55	0.69
0.9165	353.25	0.69
1	354.05	0.69

System: 2-methylpropan-2-ol + 2-aminoethan-1-ol; phases: Liquid, Gas
Fixed: Pressure, kPa = 94.4
Property: Boiling temperature at pressure P, K (Liquid); method: EBULLIO:UFactor:8
Mole fraction of 2-methylpropan-2-ol	Boiling temperature at pressure P, K	uncertainty
0	441.45	0.69
0.0957	392.55	0.78
0.1747	378.65	0.7
0.241	371.95	0.69
0.2975	368.05	0.69
0.3461	365.45	0.69
0.3884	363.65	0.69
0.4325	362.15	0.69
0.4879	360.55	0.69
0.5595	359.15	0.69
0.6558	357.55	0.69
0.7921	356.15	0.69
0.9105	355.25	0.69
1	354.15	0.69
