Measured thermophysical data. Density, Kinematic Viscosity, Speed of Sound, and Surface Tension of Tetradecyl and Octadecyl Trimethyl Ammonium Bromide Aqueous Solutions
Source: J. Chem. Eng. Data, 2007, 10.1021/je7003148
Compound 1: tetradecyltrimethylammonium bromide, C17H38BrN, InChI=1S/C17H38N.BrH/c1-5-6-7-8-9-10-11-12-13-14-15-16-17-18(2,3)4;/h5-17H2,1-4H3;1H/q+1;/p-1
Compound 2: N,N,N-trimethyl-1-octadecanaminium bromide, C21H46BrN, InChI=1S/C21H46N.BrH/c1-5-6-7-8-9-10-11-12-13-14-15-16-17-18-19-20-21-22(2,3)4;/h5-21H2,1-4H3;1H/q+1;/p-1
Compound 3: water, H2O, InChI=1S/H2O/h1H2

System: tetradecyltrimethylammonium bromide + water; phases: Liquid, Gas
Fixed: Temperature, K = 298
Property: Surface tension liquid-gas, N/m (Liquid); method: Ring tensiometer
Amount concentration (molarity), mol/dm3 of tetradecyltrimethylammonium bromide	Surface tension liquid-gas, N/m	uncertainty
0	0.0725	0.0009
0.001	0.0604	0.0008
0.002	0.0517	0.0007
0.003	0.044	0.0006
0.005	0.0406	0.0006
0.01	0.038	0.0005
0.015	0.0378	0.0005
0.02	0.0376	0.0005
0.025	0.0374	0.0005
0.03	0.0371	0.0005
0.035	0.037	0.0005
0.04	0.0369	0.0005
0.045	0.0368	0.0005
0.05	0.0367	0.0005
0.055	0.0367	0.0005

System: tetradecyltrimethylammonium bromide + water; phases: Liquid
Fixed: Temperature, K = 298
Fixed: Pressure, kPa = 101.325
Property: Kinematic viscosity, m2/s (Liquid); method: Capillary tube (Ostwald; Ubbelohde) method
Amount concentration (molarity), mol/dm3 of tetradecyltrimethylammonium bromide	Kinematic viscosity, m2/s	uncertainty
0	8.957e-07	6.1e-09
0.001	8.962e-07	6.1e-09
0.002	8.968e-07	6.2e-09
0.003	8.991e-07	6.2e-09
0.005	9.015e-07	6.2e-09
0.01	9.078e-07	6.2e-09
0.015	9.144e-07	6.3e-09
0.02	9.215e-07	6.3e-09
0.025	9.29e-07	6.4e-09
0.03	9.368e-07	6.4e-09
0.035	9.45e-07	6.5e-09
0.04	9.537e-07	6.5e-09
0.045	9.627e-07	6.6e-09
0.05	9.722e-07	6.7e-09
0.055	9.82e-07	6.7e-09

System: tetradecyltrimethylammonium bromide + water; phases: Liquid
Fixed: Pressure, kPa = 101.325
Fixed: Temperature, K = 298
Property: Speed of sound, m/s (Liquid); method: Sing-around technique in a fixed-path interferometer
Amount concentration (molarity), mol/dm3 of tetradecyltrimethylammonium bromide	Speed of sound, m/s	uncertainty
0	1496.8	0.9
0.001	1496.9	0.9
0.002	1497.2	0.9
0.003	1497.3	0.9
0.005	1497.4	0.9
0.01	1497.5	0.9
0.015	1497.6	0.9
0.02	1497.7	0.9
0.025	1497.8	0.9
0.03	1497.8	0.9
0.035	1497.9	0.9
0.04	1497.9	0.9
0.045	1498	0.9
0.05	1498.1	0.9
0.055	1498.1	0.9

System: tetradecyltrimethylammonium bromide + water; phases: Liquid
Fixed: Pressure, kPa = 101.325
Fixed: Temperature, K = 298
Property: Mass density, kg/m3 (Liquid); method: VIBTUB:UFactor:8
Amount concentration (molarity), mol/dm3 of tetradecyltrimethylammonium bromide	Mass density, kg/m3	uncertainty
0	997.053	0.265
0.001	997.062	0.264
0.002	997.064	0.265
0.003	997.087	0.265
0.005	997.106	0.265
0.01	997.153	0.265
0.015	997.204	0.265
0.02	997.268	0.264
0.025	997.307	0.264
0.03	997.349	0.264
0.035	997.402	0.264
0.04	997.458	0.264
0.045	997.5	0.264
0.05	997.545	0.264
0.055	997.604	0.264

System: N,N,N-trimethyl-1-octadecanaminium bromide + water; phases: Liquid, Gas
Fixed: Temperature, K = 298
Property: Surface tension liquid-gas, N/m (Liquid); method: Ring tensiometer
Amount concentration (molarity), mol/dm3 of N,N,N-trimethyl-1-octadecanaminium bromide	Surface tension liquid-gas, N/m	uncertainty
0	0.0725	0.0009
0.001	0.0623	0.0008
0.002	0.0542	0.0007
0.003	0.0487	0.0006
0.004	0.045	0.0006
0.005	0.0428	0.0006
0.006	0.042	0.0006
0.008	0.0414	0.0006
0.01	0.0413	0.0006
0.013	0.041	0.0006
0.016	0.0408	0.0006
0.02	0.0404	0.0006
0.025	0.0402	0.0005
0.03	0.0396	0.0005
0.04	0.0393	0.0005

System: N,N,N-trimethyl-1-octadecanaminium bromide + water; phases: Liquid
Fixed: Temperature, K = 298
Fixed: Pressure, kPa = 101.325
Property: Kinematic viscosity, m2/s (Liquid); method: Capillary tube (Ostwald; Ubbelohde) method
Amount concentration (molarity), mol/dm3 of N,N,N-trimethyl-1-octadecanaminium bromide	Kinematic viscosity, m2/s	uncertainty
0	8.9571e-07	6.145e-09
0.001	8.95734e-07	6.145e-09
0.002	8.9576e-07	6.146e-09
0.003	8.95807e-07	6.146e-09
0.004	8.95835e-07	6.147e-09
0.005	8.95863e-07	6.147e-09
0.006	8.95913e-07	6.148e-09
0.008	8.95975e-07	6.149e-09
0.01	8.9602e-07	6.149e-09
0.013	8.9612e-07	6.151e-09
0.016	8.96226e-07	6.152e-09
0.02	8.9632e-07	6.154e-09
0.025	8.96477e-07	6.157e-09
0.03	8.96634e-07	6.159e-09
0.04	8.96935e-07	6.164e-09

System: N,N,N-trimethyl-1-octadecanaminium bromide + water; phases: Liquid
Fixed: Pressure, kPa = 101.325
Fixed: Temperature, K = 298
Property: Speed of sound, m/s (Liquid); method: Sing-around technique in a fixed-path interferometer
Amount concentration (molarity), mol/dm3 of N,N,N-trimethyl-1-octadecanaminium bromide	Speed of sound, m/s	uncertainty
0	1496.8	0.9
0.001	1497.2	0.9
0.002	1497.7	0.9
0.003	1498	0.9
0.004	1498.2	0.9
0.005	1498	0.9
0.006	1497.8	0.9
0.008	1497.2	0.9
0.01	1496.7	0.9
0.013	1496	0.9
0.016	1495.2	0.9
0.02	1494.2	0.9
0.025	1492.7	0.9
0.03	1491.6	0.9
0.04	1489.2	0.9

System: N,N,N-trimethyl-1-octadecanaminium bromide + water; phases: Liquid
Fixed: Pressure, kPa = 101.325
Fixed: Temperature, K = 298
Property: Mass density, kg/m3 (Liquid); method: VIBTUB:UFactor:8
Amount concentration (molarity), mol/dm3 of N,N,N-trimethyl-1-octadecanaminium bromide	Mass density, kg/m3	uncertainty
0	997.053	0.265
0.001	997.053	0.265
0.002	997.053	0.265
0.003	997.053	0.265
0.004	997.053	0.265
0.005	997.053	0.265
0.006	997.054	0.265
0.008	997.054	0.265
0.01	997.054	0.265
0.013	997.054	0.265
0.016	997.054	0.265
0.02	997.055	0.265
0.025	997.055	0.265
0.03	997.056	0.265
0.04	997.057	0.266
