Measured thermophysical data. Solubilities of Benzoic Acid, p-Methylbenzoic Acid, m-Methylbenzoic Acid, o-Methylbenzoic Acid, p-Hydroxybenzoic Acid, and o-Nitrobenzoic Acid in 1-Octanol
Source: J. Chem. Eng. Data, 2008, 10.1021/je700677d
Compound 1: octan-1-ol, C8H18O, InChI=1S/C8H18O/c1-2-3-4-5-6-7-8-9/h9H,2-8H2,1H3
Compound 2: benzoic acid, C7H6O2, InChI=1S/C7H6O2/c8-7(9)6-4-2-1-3-5-6/h1-5H,(H,8,9)
Compound 3: 4-methylbenzoic acid, C8H8O2, InChI=1S/C8H8O2/c1-6-2-4-7(5-3-6)8(9)10/h2-5H,1H3,(H,9,10)
Compound 4: 3-methylbenzoic acid, C8H8O2, InChI=1S/C8H8O2/c1-6-3-2-4-7(5-6)8(9)10/h2-5H,1H3,(H,9,10)
Compound 5: 2-methylbenzoic acid, C8H8O2, InChI=1S/C8H8O2/c1-6-4-2-3-5-7(6)8(9)10/h2-5H,1H3,(H,9,10)
Compound 6: 4-hydroxybenzoic acid, C7H6O3, InChI=1S/C7H6O3/c8-6-3-1-5(2-4-6)7(9)10/h1-4,8H,(H,9,10)
Compound 7: 2-nitrobenzoic acid, C7H5NO4, InChI=1S/C7H5NO4/c9-7(10)5-3-1-2-4-6(5)8(11)12/h1-4H,(H,9,10)

System: benzoic acid + octan-1-ol; phases: Liquid, Crystal
Fixed: Pressure, kPa = 101
Property: Solid-liquid equilibrium temperature, K (Liquid); method: laser monitoring
Mole fraction of benzoic acid	Solid-liquid equilibrium temperature, K	uncertainty
0.1665	295.3	1.01
0.1801	297.65	1.02
0.1922	300.15	1.02
0.2033	301.85	1.02
0.2114	304.25	1.02
0.2194	305.25	1.02
0.2274	307.75	1.03
0.235	309.35	1.02
0.2499	312.3	1
0.2655	313.95	1.01
0.2793	317.15	1.04
0.2897	320.85	1.03
0.3	322.15	1.01

System: 4-methylbenzoic acid + octan-1-ol; phases: Liquid, Crystal
Fixed: Pressure, kPa = 101
Property: Solid-liquid equilibrium temperature, K (Liquid); method: laser monitoring
Mole fraction of 4-methylbenzoic acid	Solid-liquid equilibrium temperature, K	uncertainty
0.0595	297.35	0.55
0.0608	298.05	0.55
0.0618	298.95	0.64
0.0663	301.65	0.56
0.0767	307.25	0.64
0.0789	308.65	0.5
0.0816	309.65	0.54
0.0871	312.95	0.6
0.0896	314.35	0.54
0.0925	315.8	0.5
0.0962	317.65	0.54
0.0997	319.65	0.58
0.101	320.4	0.6
0.1029	321.55	0.59
0.104	322.15	0.55

System: 3-methylbenzoic acid + octan-1-ol; phases: Liquid, Crystal
Fixed: Pressure, kPa = 101
Property: Solid-liquid equilibrium temperature, K (Liquid); method: laser monitoring
Mole fraction of 3-methylbenzoic acid	Solid-liquid equilibrium temperature, K	uncertainty
0.1741	296.25	1.02
0.1788	297.25	1.03
0.1856	299.15	1.02
0.1937	300.25	1.04
0.1989	302.9	1.02
0.2094	303.8	1.01
0.2194	305.85	1.02
0.2313	308.45	1.02
0.247	311.75	1.02
0.2621	313.8	1.01
0.2749	316.25	1.01
0.2867	317.65	1.02
0.3055	322.15	1.03

System: octan-1-ol + 2-methylbenzoic acid; phases: Liquid, Crystal
Fixed: Pressure, kPa = 101
Property: Solid-liquid equilibrium temperature, K (Liquid); method: laser monitoring
Mole fraction of 2-methylbenzoic acid	Solid-liquid equilibrium temperature, K	uncertainty
0.1548	297.15	1.03
0.1646	299.65	1.01
0.1805	301.15	1.01
0.1895	302.65	1.03
0.1956	304.75	1.14
0.1967	305.35	1.05
0.2002	306.25	1.01
0.2076	306.95	1.01
0.2194	308.95	1.01
0.2296	310.65	1.01
0.2394	312.25	1.01
0.2499	314.05	1.01
0.2601	315.75	1.01
0.2705	316.95	1.01
0.2807	318.75	1.01
0.294	320.35	1.01
0.3046	321.55	1.01

System: 4-hydroxybenzoic acid + octan-1-ol; phases: Liquid, Crystal
Fixed: Pressure, kPa = 101
Property: Solid-liquid equilibrium temperature, K (Liquid); method: laser monitoring
Mole fraction of 4-hydroxybenzoic acid	Solid-liquid equilibrium temperature, K	uncertainty
0.1053	297.65	1.21
0.1072	299.95	1.06
0.1089	301.45	0.94
0.1103	302.85	1.08
0.1115	304.25	1.07
0.1131	305.85	0.88
0.1146	306.95	0.83
0.1159	308.15	1.12
0.1172	309.85	1.07
0.1188	311.25	0.98
0.1206	313.15	1.17
0.1224	315.45	1.11
0.1243	317.25	0.9
0.126	318.65	0.92
0.1279	320.55	0.93
0.1299	322.25	0.86

System: octan-1-ol + 2-nitrobenzoic acid; phases: Liquid, Crystal
Fixed: Pressure, kPa = 101
Property: Solid-liquid equilibrium temperature, K (Liquid); method: laser monitoring
Mole fraction of 2-nitrobenzoic acid	Solid-liquid equilibrium temperature, K	uncertainty
0.0761	297.15	1.14
0.0806	299.65	1.07
0.084	300.15	1.04
0.0895	302.05	1.06
0.0928	303.15	1.06
0.1011	306.15	1.06
0.1045	307.15	1.05
0.1079	308.35	1.03
0.1127	309.25	1.02
0.1172	310.15	1.04
0.1219	311.75	1.03
0.129	313.15	1.03
0.1351	314.85	1.05
0.1415	317.15	1.05
0.1475	318.65	1.02
0.1541	319.85	1.02
0.1607	321.15	1.02
