Measured thermophysical data. Vapor Pressures and Enthalpies of Sublimation of Ten Polycyclic Aromatic Hydrocarbons Determined via the Knudsen Effusion Method
Source: J. Chem. Eng. Data, 2008, 10.1021/je7005133
Compound 1: acenaphthylene, C12H8, InChI=1S/C12H8/c1-3-9-4-2-6-11-8-7-10(5-1)12(9)11/h1-8H
Compound 2: acenaphthene, C12H10, InChI=1S/C12H10/c1-3-9-4-2-6-11-8-7-10(5-1)12(9)11/h1-6H,7-8H2
Compound 3: fluorene, C13H10, InChI=1S/C13H10/c1-3-7-12-10(5-1)9-11-6-2-4-8-13(11)12/h1-8H,9H2
Compound 4: anthracene, C14H10, InChI=1S/C14H10/c1-2-6-12-10-14-8-4-3-7-13(14)9-11(12)5-1/h1-10H
Compound 5: fluoranthene, C16H10, InChI=1S/C16H10/c1-2-8-13-12(7-1)14-9-3-5-11-6-4-10-15(13)16(11)14/h1-10H
Compound 6: pyrene, C16H10, InChI=1S/C16H10/c1-3-11-7-9-13-5-2-6-14-10-8-12(4-1)15(11)16(13)14/h1-10H
Compound 7: chrysene, C18H12, InChI=1S/C18H12/c1-3-7-15-13(5-1)9-11-18-16-8-4-2-6-14(16)10-12-17(15)18/h1-12H
Compound 8: triphenylene, C18H12, InChI=1S/C18H12/c1-2-8-14-13(7-1)15-9-3-4-11-17(15)18-12-6-5-10-16(14)18/h1-12H
Compound 9: benzo[a]pyrene, C20H12, InChI=1S/C20H12/c1-2-7-17-15(4-1)12-16-9-8-13-5-3-6-14-10-11-18(17)20(16)19(13)14/h1-12H
Compound 10: perylene, C20H12, InChI=1S/C20H12/c1-5-13-6-2-11-17-18-12-4-8-14-7-3-10-16(20(14)18)15(9-1)19(13)17/h1-12H

System: acenaphthylene; phases: Crystal, Gas
Property: Vapor or sublimation pressure, kPa (Crystal); method: KNUDSEN:UFactor:2
Temperature, K	Vapor or sublimation pressure, kPa	uncertainty
297.4	0.000488	5.1e-05
297.6	0.000531	5.5e-05
304.6	0.00105	0.00021
304.7	0.00108	0.00022
306.7	0.00114	0.00024
311.9	0.00182	0.00041
314.8	0.00345	0.00088
318.5	0.00345	0.00088
318.6	0.00347	0.00088
319.7	0.00414	0.00109

System: acenaphthene; phases: Crystal, Gas
Property: Vapor or sublimation pressure, kPa (Crystal); method: KNUDSEN:UFactor:2
Temperature, K	Vapor or sublimation pressure, kPa	uncertainty
297.6	0.00029	3e-05
299.7	0.000362	3.7e-05
300.5	0.000413	4.2e-05
301.6	0.00044	4.5e-05
302.8	0.000508	5.2e-05
306.1	0.000693	7.1e-05
310.7	0.00112	0.00023
315.6	0.0018	0.00041

System: fluorene; phases: Crystal, Gas
Property: Vapor or sublimation pressure, kPa (Crystal); method: KNUDSEN:UFactor:2
Temperature, K	Vapor or sublimation pressure, kPa	uncertainty
298	6.61e-05	6.9e-06
298.1	6.52e-05	6.9e-06
299.8	8.4e-05	8.7e-06
301.4	9.88e-05	1.02e-05
304.3	0.000141	1.4e-05
306.6	0.000178	2.1e-05
306.9	0.000195	2.3e-05
308.1	0.000218	2.2e-05
309.8	0.000261	2.7e-05
311.2	0.000301	3.1e-05
314.3	0.000414	4.2e-05
316	0.00046	4.7e-05
316.5	0.000531	5.6e-05
317.3	0.000581	6e-05
317.6	0.000613	6.5e-05
320.3	0.00076	7.9e-05
324.4	0.00127	0.00027

System: anthracene; phases: Crystal, Gas
Property: Vapor or sublimation pressure, kPa (Crystal); method: KNUDSEN:UFactor:2
Temperature, K	Vapor or sublimation pressure, kPa	uncertainty
322.2	1.6e-05	1.7e-06
327	2.6e-05	2.7e-06
329.1	3.33e-05	3.4e-06
333.4	4.91e-05	5e-06
336.3	7.2e-05	7.4e-06
338.7	9.43e-05	9.6e-06
340.4	0.00011	1.1e-05
341.2	0.000119	1.2e-05
342.3	0.000131	1.3e-05
343.6	0.000141	1.4e-05
344.2	0.000164	1.7e-05
346.4	0.000192	2e-05
348.2	0.00026	2.7e-05

System: fluoranthene; phases: Crystal, Gas
Property: Vapor or sublimation pressure, kPa (Crystal); method: KNUDSEN:UFactor:2
Temperature, K	Vapor or sublimation pressure, kPa	uncertainty
326.8	3.96e-05	4.1e-06
326.9	4.11e-05	4.3e-06
331	6.16e-05	6.2e-06
331.8	6.32e-05	6.4e-06
336.7	0.000117	1.2e-05
338.7	0.000129	1.3e-05
338.8	0.000131	1.3e-05
338.9	0.000144	1.5e-05
340.2	0.000154	1.6e-05
342.5	0.000206	2.1e-05
343.9	0.000248	2.5e-05
345.3	0.000258	2.6e-05
348	0.00033	3.3e-05
348.5	0.000341	3.4e-05
350.9	0.000463	4.7e-05
354.1	0.00058	6e-05
359.2	0.00105	0.00021

System: pyrene; phases: Crystal, Gas
Property: Vapor or sublimation pressure, kPa (Crystal); method: KNUDSEN:UFactor:2
Temperature, K	Vapor or sublimation pressure, kPa	uncertainty
322	8.95e-06	1.09e-06
337.1	5.31e-05	5.4e-06
342.1	9.43e-05	9.6e-06
347.1	0.000147	1.5e-05
352.3	0.000227	2.3e-05
356.8	0.000339	3.5e-05
362.1	0.000599	6.1e-05
372	0.0013	0.00028
381.4	0.00281	0.00069

System: chrysene; phases: Crystal 2, Gas
Property: Vapor or sublimation pressure, kPa (Crystal 2); method: KNUDSEN:UFactor:2
Temperature, K	Vapor or sublimation pressure, kPa	uncertainty
372.4	1.74e-05	1.8e-06
380.7	3.72e-05	3.8e-06
385.2	5.37e-05	5.5e-06
389.2	7.61e-05	7.7e-06
389.4	7.5e-05	7.6e-06
393.6	0.000103	1.5e-05
394.2	0.000136	1.4e-05
396.1	0.000148	1.5e-05
398.1	0.000168	1.7e-05
398.2	0.000158	1.6e-05
400	0.000202	2.1e-05
400.4	0.000212	2.2e-05
402.8	0.000263	2.7e-05
403	0.000254	2.6e-05
404.8	0.000277	3.4e-05
404.9	0.000292	3e-05
405.1	0.000306	3.6e-05
406.8	0.000336	3.4e-05
408.6	0.000379	3.8e-05

System: triphenylene; phases: Crystal, Gas
Property: Vapor or sublimation pressure, kPa (Crystal); method: KNUDSEN:UFactor:2
Temperature, K	Vapor or sublimation pressure, kPa	uncertainty
368.4	1.7e-05	1.8e-06
377.4	4.48e-05	4.5e-06
377.7	4.51e-05	4.6e-06
378	4.64e-05	4.7e-06
386.7	0.000116	1.2e-05
390.7	0.000178	1.8e-05
394.9	0.000264	2.7e-05
395	0.000258	2.6e-05
399.1	0.000375	3.8e-05

System: benzo[a]pyrene; phases: Crystal, Gas
Property: Vapor or sublimation pressure, kPa (Crystal); method: KNUDSEN:UFactor:2
Temperature, K	Vapor or sublimation pressure, kPa	uncertainty
392.3	7.31e-05	7.4e-06
393.5	7.96e-05	8.3e-06
397.8	0.000129	1.3e-05
400.8	0.000167	1.7e-05
402.3	0.00018	1.8e-05
405.2	0.000217	2.2e-05
406.6	0.000273	2.8e-05
411.5	0.000394	4.3e-05
411.8	0.000418	4.5e-05
415.1	0.000494	5.4e-05
415.5	0.000537	5.8e-05
419	0.000697	7e-05
419.7	0.000733	7.4e-05
421.2	0.000785	7.9e-05
423.8	0.00098	9.9e-05
423.9	0.00102	0.00021

System: perylene; phases: Crystal, Gas
Property: Vapor or sublimation pressure, kPa (Crystal); method: KNUDSEN:UFactor:2
Temperature, K	Vapor or sublimation pressure, kPa	uncertainty
390	1.37e-05	1.4e-06
390.5	1.47e-05	1.5e-06
391.2	1.49e-05	1.6e-06
393.7	2.15e-05	2.2e-06
397.7	3.15e-05	3.2e-06
398.3	3.03e-05	3.1e-06
402.2	4.58e-05	4.6e-06
402.8	4.76e-05	4.9e-06
403.7	5.19e-05	5.4e-06
405.7	6.67e-05	6.8e-06
406.6	7.2e-05	7.3e-06
406.8	7.03e-05	7.2e-06
410.5	0.0001	1e-05
411.3	0.000102	1.1e-05
412.7	0.000132	1.4e-05
413.4	0.000142	1.4e-05
414.4	0.000148	1.5e-05
418.4	0.000196	2e-05
428.6	0.000443	4.5e-05
432.4	0.000606	6.1e-05
