Measured thermophysical data. Viscosity, Density, Speed of Sound, and Refractive Index of Binary Mixtures of Organic Solvent + Ionic Liquid, 1-Butyl-3-methylimidazolium Hexafluorophosphate at 298.15 K
Source: J. Chem. Eng. Data, 2007, 10.1021/je700338t
Compound 1: 1-butyl-3-methylimidazolium hexafluorophosphate, C8H15F6N2P, InChI=1S/C8H15N2.F6P/c1-3-4-5-10-7-6-9(2)8-10;1-7(2,3,4,5)6/h6-8H,3-5H2,1-2H3;/q+1;-1, purity 98%
Compound 2: methanol, CH4O, InChI=1S/CH4O/c1-2/h2H,1H3, purity 99.9%
Compound 3: tetrahydrofuran, C4H8O, InChI=1S/C4H8O/c1-2-4-5-3-1/h1-4H2, purity 99.5%
Compound 4: dimethyl sulfoxide, C2H6OS, InChI=1S/C2H6OS/c1-4(2)3/h1-2H3, purity 99.8%
Compound 5: acetonitrile, C2H3N, InChI=1S/C2H3N/c1-2-3/h1H3, purity 99.9%

System: 1-butyl-3-methylimidazolium hexafluorophosphate; phases: Liquid
Property: Refractive index (Na D-line) (Liquid); method: ABBE:UFactor:4
Temperature, K	Pressure, kPa	Refractive index (Na D-line)	uncertainty
298.15	101.325	1.4095	0.0018

System: 1-butyl-3-methylimidazolium hexafluorophosphate; phases: Liquid
Property: Mass density, kg/m3 (Liquid); method: VIBTUB:UFactor:8
Temperature, K	Pressure, kPa	Mass density, kg/m3	uncertainty
298.15	101.325	1366.066	3.772

System: 1-butyl-3-methylimidazolium hexafluorophosphate; phases: Liquid
Property: Viscosity, Pa*s (Liquid); method: CAPTUB:UFactor:8
Temperature, K	Pressure, kPa	Viscosity, Pa*s	uncertainty
298.15	101.325	0.2121	0.04169

System: 1-butyl-3-methylimidazolium hexafluorophosphate; phases: Liquid
Property: Speed of sound, m/s (Liquid); method: FPINT:UFactor:4
Temperature, K	Pressure, kPa	Speed of sound, m/s	uncertainty
298.15	101.325	1443.54	3.49

System: methanol; phases: Liquid
Property: Refractive index (Na D-line) (Liquid); method: Standard Abbe refractometry
Temperature, K	Pressure, kPa	Refractive index (Na D-line)	uncertainty
298.15	101.325	1.3269	0.0007

System: methanol; phases: Liquid
Property: Mass density, kg/m3 (Liquid); method: VIBTUB:UFactor:2
Temperature, K	Pressure, kPa	Mass density, kg/m3	uncertainty
298.15	101.325	786.654	0.301

System: methanol; phases: Liquid
Property: Viscosity, Pa*s (Liquid); method: CAPTUB:UFactor:8
Temperature, K	Pressure, kPa	Viscosity, Pa*s	uncertainty
298.15	101.325	0.00054	3e-05

System: methanol; phases: Liquid
Property: Speed of sound, m/s (Liquid); method: Sing-around technique in a fixed-path interferometer
Temperature, K	Pressure, kPa	Speed of sound, m/s	uncertainty
298.15	101.325	1102.92	1.14

System: tetrahydrofuran; phases: Liquid
Property: Refractive index (Na D-line) (Liquid); method: Standard Abbe refractometry
Temperature, K	Pressure, kPa	Refractive index (Na D-line)	uncertainty
298.15	101.325	1.405	0.0007

System: tetrahydrofuran; phases: Liquid
Property: Mass density, kg/m3 (Liquid); method: VIBTUB:UFactor:4
Temperature, K	Pressure, kPa	Mass density, kg/m3	uncertainty
298.15	101.325	882.008	0.452

System: tetrahydrofuran; phases: Liquid
Property: Viscosity, Pa*s (Liquid); method: CAPTUB:UFactor:8
Temperature, K	Pressure, kPa	Viscosity, Pa*s	uncertainty
298.15	101.325	0.000449	2.6e-05

System: tetrahydrofuran; phases: Liquid
Property: Speed of sound, m/s (Liquid); method: Sing-around technique in a fixed-path interferometer
Temperature, K	Pressure, kPa	Speed of sound, m/s	uncertainty
298.15	101.325	1278.24	1.27

System: dimethyl sulfoxide; phases: Liquid
Property: Refractive index (Na D-line) (Liquid); method: Standard Abbe refractometry
Temperature, K	Pressure, kPa	Refractive index (Na D-line)	uncertainty
298.15	101.325	1.4769	0.0007

System: dimethyl sulfoxide; phases: Liquid
Property: Mass density, kg/m3 (Liquid); method: VIBTUB:UFactor:2
Temperature, K	Pressure, kPa	Mass density, kg/m3	uncertainty
298.15	101.325	1095.295	0.19

System: dimethyl sulfoxide; phases: Liquid
Property: Viscosity, Pa*s (Liquid); method: CAPTUB:UFactor:8
Temperature, K	Pressure, kPa	Viscosity, Pa*s	uncertainty
298.15	101.325	0.001961	9e-05

System: dimethyl sulfoxide; phases: Liquid
Property: Speed of sound, m/s (Liquid); method: Sing-around technique in a fixed-path interferometer
Temperature, K	Pressure, kPa	Speed of sound, m/s	uncertainty
298.15	101.325	1484.98	1.22

System: acetonitrile; phases: Liquid
Property: Refractive index (Na D-line) (Liquid); method: Standard Abbe refractometry
Temperature, K	Pressure, kPa	Refractive index (Na D-line)	uncertainty
298.15	101.325	1.3419	0.0007

System: acetonitrile; phases: Liquid
Property: Mass density, kg/m3 (Liquid); method: VIBTUB:UFactor:2
Temperature, K	Pressure, kPa	Mass density, kg/m3	uncertainty
298.15	101.325	776.565	0.312

System: acetonitrile; phases: Liquid
Property: Viscosity, Pa*s (Liquid); method: CAPTUB:UFactor:8
Temperature, K	Pressure, kPa	Viscosity, Pa*s	uncertainty
298.15	101.325	0.000339	2.1e-05

System: acetonitrile; phases: Liquid
Property: Speed of sound, m/s (Liquid); method: Sing-around technique in a fixed-path interferometer
Temperature, K	Pressure, kPa	Speed of sound, m/s	uncertainty
298.15	101.325	1278.7	1.17

System: acetonitrile + 1-butyl-3-methylimidazolium hexafluorophosphate; phases: Liquid
Fixed: Pressure, kPa = 101
Fixed: Temperature, K = 298.15
Property: Viscosity, Pa*s (Liquid); method: CAPTUB:UFactor:16
Mole fraction of 1-butyl-3-methylimidazolium hexafluorophosphate	Viscosity, Pa*s	uncertainty
0.0496	0.000556	6e-05
0.1016	0.000864	8.7e-05
0.147	0.001187	0.000115
0.2022	0.001866	0.000173
0.2995	0.003792	0.000335
0.3524	0.005308	0.000454
0.4036	0.007674	0.000601
0.4337	0.009153	0.000693
0.4955	0.014443	0.001023
0.5892	0.023841	0.001609
0.6857	0.040692	0.002663
0.8046	0.081532	0.011062
0.8055	0.086271	0.01302
0.9176	0.154061	0.047288

System: acetonitrile + 1-butyl-3-methylimidazolium hexafluorophosphate; phases: Liquid
Fixed: Pressure, kPa = 101
Fixed: Temperature, K = 298.15
Property: Refractive index (Na D-line) (Liquid); method: ABBE:UFactor:2
Mole fraction of 1-butyl-3-methylimidazolium hexafluorophosphate	Refractive index (Na D-line)	uncertainty
0.0496	1.3575	0.0006
0.1016	1.3687	0.0006
0.147	1.3754	0.0006
0.2022	1.3819	0.0006
0.2995	1.3902	0.0006
0.3524	1.3934	0.0006
0.4036	1.3959	0.0006
0.4337	1.3974	0.0006
0.4955	1.3998	0.0007
0.5892	1.4024	0.0007
0.6857	1.4048	0.0007
0.8046	1.4068	0.0007
0.8055	1.4069	0.0007
0.9176	1.4084	0.0007

System: tetrahydrofuran + 1-butyl-3-methylimidazolium hexafluorophosphate; phases: Liquid
Fixed: Pressure, kPa = 101
Fixed: Temperature, K = 298.15
Property: Viscosity, Pa*s (Liquid); method: CAPTUB:UFactor:16
Mole fraction of 1-butyl-3-methylimidazolium hexafluorophosphate	Viscosity, Pa*s	uncertainty
0.0502	0.00075	7.7e-05
0.0967	0.00114	0.000111
0.1524	0.001732	0.000161
0.1999	0.002476	0.000224
0.2969	0.004937	0.000429
0.3484	0.006979	0.000558
0.3994	0.010065	0.00075
0.4484	0.014539	0.001029
0.5028	0.018503	0.001278
0.6047	0.033632	0.002222
0.7016	0.052844	0.001011
0.805	0.090817	0.014931
0.9595	0.186856	0.067033

System: tetrahydrofuran + 1-butyl-3-methylimidazolium hexafluorophosphate; phases: Liquid
Fixed: Pressure, kPa = 101
Fixed: Temperature, K = 298.15
Property: Refractive index (Na D-line) (Liquid); method: ABBE:UFactor:2
Mole fraction of 1-butyl-3-methylimidazolium hexafluorophosphate	Refractive index (Na D-line)	uncertainty
0.0502	1.4084	0.0006
0.0967	1.4117	0.0006
0.1524	1.4125	0.0006
0.1999	1.4126	0.0006
0.2969	1.413	0.0007
0.3484	1.4128	0.0007
0.3994	1.4127	0.0007
0.4484	1.4126	0.0007
0.5028	1.4117	0.0007
0.6047	1.4115	0.0007
0.7016	1.411	0.0007
0.805	1.4105	0.0007
0.9595	1.4095	0.0007

System: tetrahydrofuran + 1-butyl-3-methylimidazolium hexafluorophosphate; phases: Liquid
Fixed: Pressure, kPa = 101
Fixed: Temperature, K = 298.15
Property: Speed of sound, m/s (Liquid); method: FPINT:UFactor:4
Mole fraction of 1-butyl-3-methylimidazolium hexafluorophosphate	Speed of sound, m/s	uncertainty
0.0199	1279.16	2.65
0.0376	1279.92	2.66
0.0737	1287.89	2.69
0.15	1312.64	2.75
0.2003	1329.15	2.8
0.2486	1343.72	2.84
0.3004	1357.31	2.88
0.3491	1368.62	2.93
0.4634	1390.52	3.02
0.5808	1406.94	3.12
0.6941	1418.73	3.21
0.7996	1427.83	3.3
0.8991	1435.73	3.39

System: tetrahydrofuran + 1-butyl-3-methylimidazolium hexafluorophosphate; phases: Liquid
Fixed: Pressure, kPa = 101
Fixed: Temperature, K = 298.15
Property: Mass density, kg/m3 (Liquid); method: Vibrating tube method
Mole fraction of 1-butyl-3-methylimidazolium hexafluorophosphate	Mass density, kg/m3	uncertainty
0.0199	911.565	0.115
0.0376	936.57	0.119
0.0737	979.097	0.134
0.15	1055.633	0.218
0.2003	1095.843	0.266
0.2486	1129.411	0.316
0.3004	1159.966	0.374
0.3491	1185.7	0.426
0.4634	1235.907	0.585
0.5808	1276.688	0.76
0.6941	1306.088	0.963
0.7996	1329.247	1.183
0.8991	1348.144	1.416

System: dimethyl sulfoxide + 1-butyl-3-methylimidazolium hexafluorophosphate; phases: Liquid
Fixed: Pressure, kPa = 101
Fixed: Temperature, K = 298.15
Property: Viscosity, Pa*s (Liquid); method: CAPTUB:UFactor:16
Mole fraction of 1-butyl-3-methylimidazolium hexafluorophosphate	Viscosity, Pa*s	uncertainty
0.05	0.002749	0.000247
0.0997	0.003698	0.000327
0.1477	0.004962	0.000431
0.1977	0.006489	0.000526
0.2995	0.011954	0.000866
0.3524	0.015998	0.001118
0.3997	0.021172	0.00144
0.4328	0.02461	0.001655
0.5018	0.036976	0.002427
0.598	0.056306	0.001904
0.7043	0.083729	0.011913
0.7812	0.117542	0.027518
0.893	0.173317	0.058676

System: dimethyl sulfoxide + 1-butyl-3-methylimidazolium hexafluorophosphate; phases: Liquid
Fixed: Pressure, kPa = 101
Fixed: Temperature, K = 298.15
Property: Refractive index (Na D-line) (Liquid); method: ABBE:UFactor:2
Mole fraction of 1-butyl-3-methylimidazolium hexafluorophosphate	Refractive index (Na D-line)	uncertainty
0.05	1.4676	0.0006
0.0997	1.4606	0.0006
0.1477	1.4546	0.0006
0.1977	1.4491	0.0006
0.2995	1.4396	0.0006
0.3524	1.4361	0.0006
0.3997	1.4331	0.0006
0.4328	1.4309	0.0007
0.5018	1.4278	0.0007
0.598	1.4226	0.0007
0.7043	1.4182	0.0007
0.7812	1.4158	0.0007
0.893	1.4125	0.0007

System: dimethyl sulfoxide + 1-butyl-3-methylimidazolium hexafluorophosphate; phases: Liquid
Fixed: Pressure, kPa = 101
Fixed: Temperature, K = 298.15
Property: Speed of sound, m/s (Liquid); method: FPINT:UFactor:4
Mole fraction of 1-butyl-3-methylimidazolium hexafluorophosphate	Speed of sound, m/s	uncertainty
0.0011	1484.84	2.93
0.0024	1484.88	2.93
0.0187	1483.45	2.93
0.0321	1482.37	2.93
0.0552	1480.53	2.93
0.0635	1479.89	2.93
0.0996	1477.26	2.93
0.153	1473.65	2.94
0.2381	1469.37	2.96
0.3372	1464.46	3
0.5586	1454.94	3.12
0.7791	1448.17	3.28
0.925	1444.74	3.41

System: dimethyl sulfoxide + 1-butyl-3-methylimidazolium hexafluorophosphate; phases: Liquid
Fixed: Pressure, kPa = 101
Fixed: Temperature, K = 298.15
Property: Mass density, kg/m3 (Liquid); method: Vibrating tube method
Mole fraction of 1-butyl-3-methylimidazolium hexafluorophosphate	Mass density, kg/m3	uncertainty
0.0011	1096.211	0.078
0.0024	1097.258	0.079
0.0187	1109.73	0.088
0.0321	1119.442	0.097
0.0552	1135.088	0.113
0.0635	1140.411	0.118
0.0996	1161.891	0.143
0.153	1189.469	0.182
0.2381	1225.522	0.252
0.3372	1258.279	0.346
0.5586	1309.441	0.652
0.7791	1342.894	1.092
0.925	1359.297	1.464

System: methanol + 1-butyl-3-methylimidazolium hexafluorophosphate; phases: Liquid
Fixed: Pressure, kPa = 101
Fixed: Temperature, K = 298.15
Property: Viscosity, Pa*s (Liquid); method: CAPTUB:UFactor:16
Mole fraction of 1-butyl-3-methylimidazolium hexafluorophosphate	Viscosity, Pa*s	uncertainty
0.0503	0.000913	9.1e-05
0.0993	0.001483	0.00014
0.1517	0.002331	0.000212
0.1969	0.003059	0.000273
0.3024	0.006057	0.0005
0.3531	0.008072	0.000625
0.4106	0.011027	0.000809
0.451	0.013523	0.000965
0.502	0.017293	0.0012
0.6015	0.027411	0.001832
0.7082	0.045953	0.002992
0.7989	0.066789	0.00539
0.8889	0.107939	0.022791

System: methanol + 1-butyl-3-methylimidazolium hexafluorophosphate; phases: Liquid
Fixed: Pressure, kPa = 101
Fixed: Temperature, K = 298.15
Property: Refractive index (Na D-line) (Liquid); method: ABBE:UFactor:3
Mole fraction of 1-butyl-3-methylimidazolium hexafluorophosphate	Refractive index (Na D-line)	uncertainty
0.0503	1.348	0.0009
0.0993	1.3636	0.0009
0.1517	1.371	0.0009
0.1969	1.3768	0.0009
0.3024	1.3872	0.0009
0.3531	1.3892	0.002
0.4106	1.3941	0.0009
0.451	1.3961	0.001
0.502	1.3986	0.001
0.6015	1.4015	0.001
0.7082	1.4045	0.001
0.7989	1.4066	0.001
0.8889	1.4078	0.001
