Measured thermophysical data. Vapor-Liquid Equilibria for 1,1,1,2,3,3,3-Heptafluoropropane (HFC-227ea) + Butane (R600) at Various Temperatures
Source: J. Chem. Eng. Data, 2008, 10.1021/je7004837
Compound 1: 1,1,1,2,3,3,3-heptafluoropropane, C3HF7, InChI=1S/C3HF7/c4-1(2(5,6)7)3(8,9)10/h1H, purity 99.8%
Compound 2: butane, C4H10, InChI=1S/C4H10/c1-3-4-2/h3-4H2,1-2H3, purity 99.5%

System: 1,1,1,2,3,3,3-heptafluoropropane; phases: Liquid, Gas
Property: Vapor or sublimation pressure, kPa (Liquid); method: Ebulliometric method (Recirculating still)
Temperature, K	Vapor or sublimation pressure, kPa	uncertainty
273.15	194	2
283.15	280	2
293.15	389	3
303.15	527	3
313.15	704	3
323.15	920	4

System: butane; phases: Liquid, Gas
Property: Vapor or sublimation pressure, kPa (Liquid); method: Ebulliometric method (Recirculating still)
Temperature, K	Vapor or sublimation pressure, kPa	uncertainty
273.15	104	2
283.15	150	2
293.15	208	2
303.15	284	2
313.15	378	2
323.15	494	3

System: butane + 1,1,1,2,3,3,3-heptafluoropropane; phases: Liquid, Gas
Property: Vapor or sublimation pressure, kPa (Liquid); method: Ebulliometric method (Recirculating still)
Mole fraction of 1,1,1,2,3,3,3-heptafluoropropane	Temperature, K	Vapor or sublimation pressure, kPa	uncertainty
0	273.15	104	2
0	283.15	150	2
0	293.15	208	2
0	303.15	284	2
0	313.15	378	2
0	323.15	494	3
0.046	313.15	480	8
0.046	323.15	618	9
0.049	293.15	277	5
0.061	303.15	387	6
0.067	283.15	221	4
0.095	273.15	174	3
0.101	313.15	560	6
0.103	293.15	327	4
0.112	323.15	732	7
0.128	283.15	257	3
0.129	303.15	452	4
0.137	273.15	188	2
0.169	313.15	625	4
0.178	323.15	805	5
0.181	293.15	367	3
0.216	283.15	285	3
0.228	303.15	511	3
0.242	313.15	670	4
0.255	293.15	393	3
0.257	323.15	868	5
0.258	283.15	293	2
0.261	273.15	210	2
0.354	323.15	919	4
0.355	303.15	552	3
0.357	313.15	718	4
0.36	283.15	306	2
0.412	293.15	420	3
0.429	303.15	567	3
0.439	313.15	739	3
0.451	323.15	954	4
0.457	283.15	315	2
0.468	273.15	225	2
0.537	303.15	582	3
0.538	293.15	435	3
0.546	283.15	322	2
0.547	313.15	759	4
0.55	323.15	979	4
0.561	273.15	227	2
0.606	273.15	230	2
0.608	283.15	324	2
0.626	303.15	589	3
0.627	323.15	991	4
0.632	293.15	439	3
0.634	313.15	768	3
0.69	293.15	443	3
0.691	313.15	772	3
0.692	273.15	230	2
0.693	283.15	326	2
0.694	323.15	994	4
0.695	303.15	591	3
0.71	273.15	230	2
0.726	303.15	591	3
0.732	273.15	229	2
0.734	283.15	324	2
0.742	313.15	772	4
0.747	293.15	443	3
0.751	323.15	994	4
0.779	273.15	229	2
0.811	283.15	321	2
0.813	303.15	586	3
0.817	323.15	987	4
0.822	313.15	765	4
0.833	293.15	435	3
0.845	273.15	227	2
0.88	303.15	575	3
0.892	283.15	313	3
0.901	293.15	424	3
0.905	313.15	747	4
0.912	323.15	961	4
0.913	273.15	219	2
1	273.15	194	2
1	283.15	280	2
1	293.15	389	3
1	303.15	527	3
1	313.15	704	3
1	323.15	920	4

System: butane + 1,1,1,2,3,3,3-heptafluoropropane; phases: Gas, Liquid
Property: Mole fraction of 1,1,1,2,3,3,3-heptafluoropropane (Gas); method: Chromatography
Mole fraction of 1,1,1,2,3,3,3-heptafluoropropane	Temperature, K	Mole fraction of 1,1,1,2,3,3,3-heptafluoropropane	uncertainty
0	273.15	0	0.001
0	283.15	0	0.001
0	293.15	0	0.001
0	303.15	0	0.001
0	313.15	0	0.001
0	323.15	0	0.001
0.046	313.15	0.197	0.049
0.046	323.15	0.184	0.045
0.049	293.15	0.226	0.055
0.061	303.15	0.253	0.044
0.067	283.15	0.275	0.049
0.095	273.15	0.358	0.05
0.101	313.15	0.312	0.031
0.103	293.15	0.36	0.029
0.112	323.15	0.321	0.03
0.128	283.15	0.393	0.025
0.129	303.15	0.374	0.024
0.137	273.15	0.421	0.021
0.169	313.15	0.415	0.024
0.178	323.15	0.409	0.022
0.181	293.15	0.448	0.021
0.216	283.15	0.481	0.021
0.228	303.15	0.474	0.019
0.242	313.15	0.483	0.019
0.255	293.15	0.505	0.018
0.257	323.15	0.477	0.019
0.258	283.15	0.519	0.017
0.261	273.15	0.517	0.017
0.354	323.15	0.536	0.018
0.355	303.15	0.548	0.017
0.357	313.15	0.544	0.017
0.36	283.15	0.557	0.016
0.412	293.15	0.588	0.017
0.429	303.15	0.577	0.017
0.439	313.15	0.589	0.017
0.451	323.15	0.586	0.017
0.457	283.15	0.592	0.016
0.468	273.15	0.593	0.016
0.537	303.15	0.627	0.017
0.538	293.15	0.631	0.016
0.546	283.15	0.627	0.016
0.547	313.15	0.64	0.017
0.55	323.15	0.636	0.017
0.561	273.15	0.628	0.017
0.606	273.15	0.659	0.017
0.608	283.15	0.651	0.017
0.626	303.15	0.667	0.017
0.627	323.15	0.674	0.017
0.632	293.15	0.67	0.017
0.634	313.15	0.675	0.017
0.69	293.15	0.697	0.017
0.691	313.15	0.706	0.017
0.692	273.15	0.69	0.015
0.693	283.15	0.694	0.017
0.694	323.15	0.713	0.018
0.695	303.15	0.702	0.017
0.71	273.15	0.69	0.016
0.726	303.15	0.719	0.018
0.732	273.15	0.702	0.017
0.734	283.15	0.715	0.018
0.742	313.15	0.737	0.018
0.747	293.15	0.728	0.018
0.751	323.15	0.747	0.018
0.779	273.15	0.726	0.018
0.811	283.15	0.762	0.019
0.813	303.15	0.777	0.019
0.817	323.15	0.796	0.02
0.822	313.15	0.794	0.02
0.833	293.15	0.785	0.019
0.845	273.15	0.776	0.02
0.88	303.15	0.835	0.024
0.892	283.15	0.834	0.024
0.901	293.15	0.849	0.025
0.905	313.15	0.871	0.023
0.912	323.15	0.882	0.022
0.913	273.15	0.848	0.027
1	273.15	1	0.001
1	283.15	1	0.001
1	293.15	1	0.001
1	303.15	1	0.001
1	313.15	1	0.001
1	323.15	1	0.001
