Measured thermophysical data. Thermophysical Properties of an Insensitive Munitions Compound, 2,4-Dinitroanisole
Source: J. Chem. Eng. Data, 2008, 10.1021/je7006764
Compound 1: 2,4-dinitroanisole, C7H6N2O5, InChI=1S/C7H6N2O5/c1-14-7-3-2-5(8(10)11)4-6(7)9(12)13/h2-4H,1H3
Compound 2: water, H2O, InChI=1S/H2O/h1H2
Compound 3: sodium chloride, ClNa, InChI=1S/ClH.Na/h1H;/q;+1/p-1
Compound 4: calcium chloride, CaCl2, InChI=1S/Ca.2ClH/h;2*1H/q+2;;/p-2
Compound 5: octan-1-ol, C8H18O, InChI=1S/C8H18O/c1-2-3-4-5-6-7-8-9/h9H,2-8H2,1H3

System: 2,4-dinitroanisole + water; phases: Liquid, Crystal
Fixed: Pressure, kPa = 101
Property: Mass concentration, kg/m3 (Liquid); method: UV Spectra
Temperature, K	Mass concentration, kg/m3	uncertainty
298.15	0.2762	0.0133
308.15	0.3992	0.0163
318.15	0.56	0.0189

System: 2,4-dinitroanisole + water; phases: Liquid, Gas
Fixed: Amount concentration (molarity), mol/dm3 of 2,4-dinitroanisole = 0
Property: Henry's Law constant (amount concentration scale), kPa*dm3/mol of 2,4-dinitroanisole (Liquid); method: gas-purging bubble column system
Temperature, K	Henry's Law constant (amount concentration scale), kPa*dm3/mol of 2,4-dinitroanisole	uncertainty
298.15	1.366	0.003
308.15	1.397	0.004
318.15	1.442	0.005

System: 2,4-dinitroanisole + sodium chloride + water; phases: Liquid, Crystal
Fixed: Pressure, kPa = 101
Property: Mass concentration, kg/m3 of 2,4-dinitroanisole (Liquid); method: UV Spectra
Solvent: Volume fraction of sodium chloride	Temperature, K	Mass concentration, kg/m3 of 2,4-dinitroanisole	uncertainty
0.01	298.15	0.2671	0.0131
0.01	308.15	0.3886	0.0143
0.01	318.15	0.5272	0.0171
0.05	298.15	0.2335	0.01
0.05	308.15	0.3201	0.0113
0.05	318.15	0.4372	0.0141
0.1	298.15	0.1907	0.007
0.1	308.15	0.24	0.0082
0.1	318.15	0.3214	0.0096

System: 2,4-dinitroanisole + water + calcium chloride; phases: Liquid, Crystal
Fixed: Pressure, kPa = 101
Property: Mass concentration, kg/m3 of 2,4-dinitroanisole (Liquid); method: UV spectra
Solvent: Volume fraction of calcium chloride	Temperature, K	Mass concentration, kg/m3 of 2,4-dinitroanisole	uncertainty
0.01	298.15	0.2681	0.0131
0.01	308.15	0.3888	0.0147
0.01	318.15	0.5375	0.0179
0.05	298.15	0.249	0.0098
0.05	308.15	0.3335	0.0123
0.05	318.15	0.4635	0.0155
0.1	298.15	0.2242	0.0073
0.1	308.15	0.2767	0.0092
0.1	318.15	0.3787	0.0118

System: octan-1-ol + 2,4-dinitroanisole + water; phases: Liquid mixture 1, Liquid
Fixed: Pressure, kPa = 101
Property: Mass concentration, kg/m3 of 2,4-dinitroanisole (Liquid mixture 1); method: UV spectra
Temperature, K	Ratio of mass of solute to volume of solution, kg/m3 of octan-1-ol	Mass concentration, kg/m3 of 2,4-dinitroanisole	uncertainty
298.15	0.00097	0.03977	0.00325
298.15	0.00138	0.05619	0.00451
298.15	0.00165	0.05917	0.00475
298.15	0.00224	0.08661	0.00717
298.15	0.00248	0.10808	0.00882
308.15	0.00128	0.0456	0.0037
308.15	0.00134	0.04818	0.00391
308.15	0.00234	0.07839	0.00638
308.15	0.00266	0.09394	0.00771
308.15	0.00403	0.14783	0.01204
308.15	0.00422	0.14915	0.01226
318.15	0.0023	0.06456	0.0053
318.15	0.00236	0.06722	0.00551
318.15	0.00272	0.08848	0.00719
318.15	0.00404	0.1252	0.01027
318.15	0.0043	0.12171	0.01009
