Measured thermophysical data. Heat Capacities and Enthalpies of Solid-Solid Transitions and Fusion of a Series of Eleven Primary Alkylamides by Differential Scanning Calorimetry
Source: J. Chem. Eng. Data, 2008, 10.1021/je700662a
Compound 1: propanamide, C3H7NO, InChI=1S/C3H7NO/c1-2-3(4)5/h2H2,1H3,(H2,4,5), purity 99%
Compound 2: butanamide, C4H9NO, InChI=1S/C4H9NO/c1-2-3-4(5)6/h2-3H2,1H3,(H2,5,6), purity 98%
Compound 3: 2-methylpropanamide, C4H9NO, InChI=1S/C4H9NO/c1-3(2)4(5)6/h3H,1-2H3,(H2,5,6), purity 99%
Compound 4: pentanamide, C5H11NO, InChI=1S/C5H11NO/c1-2-3-4-5(6)7/h2-4H2,1H3,(H2,6,7), purity 98%
Compound 5: 2,2-dimethylpropanamide, C5H11NO, InChI=1S/C5H11NO/c1-5(2,3)4(6)7/h1-3H3,(H2,6,7), purity 98%
Compound 6: hexanamide, C6H13NO, InChI=1S/C6H13NO/c1-2-3-4-5-6(7)8/h2-5H2,1H3,(H2,7,8), purity 98%
Compound 7: octanamide, C8H17NO, InChI=1S/C8H17NO/c1-2-3-4-5-6-7-8(9)10/h2-7H2,1H3,(H2,9,10), purity 98%
Compound 8: decanamide, C10H21NO, InChI=1S/C10H21NO/c1-2-3-4-5-6-7-8-9-10(11)12/h2-9H2,1H3,(H2,11,12), purity 97%
Compound 9: dodecanamide, C12H25NO, InChI=1S/C12H25NO/c1-2-3-4-5-6-7-8-9-10-11-12(13)14/h2-11H2,1H3,(H2,13,14), purity 99%
Compound 10: hexadecanamide, C16H33NO, InChI=1S/C16H33NO/c1-2-3-4-5-6-7-8-9-10-11-12-13-14-15-16(17)18/h2-15H2,1H3,(H2,17,18), purity 97%
Compound 11: octadecanamide, C18H37NO, InChI=1S/C18H37NO/c1-2-3-4-5-6-7-8-9-10-11-12-13-14-15-16-17-18(19)20/h2-17H2,1H3,(H2,19,20), purity 90%
Compound 12: docosanamide, C22H45NO, InChI=1S/C22H45NO/c1-2-3-4-5-6-7-8-9-10-11-12-13-14-15-16-17-18-19-20-21-22(23)24/h2-21H2,1H3,(H2,23,24), purity 80%

System: propanamide; phases: Crystal, Liquid, Air at 1 atmosphere
Property: Molar enthalpy of transition or fusion, kJ/mol (Crystal); method: DSC
Molar enthalpy of transition or fusion, kJ/mol	uncertainty
12.9	1.1

System: propanamide; phases: Crystal, Liquid, Air at 1 atmosphere
Property: Normal melting temperature, K (Crystal); method: DTA
Normal melting temperature, K	uncertainty
352.6	0.4

System: butanamide; phases: Crystal, Liquid, Air at 1 atmosphere
Property: Molar enthalpy of transition or fusion, kJ/mol (Crystal); method: DSC
Molar enthalpy of transition or fusion, kJ/mol	uncertainty
19.2	1.3

System: butanamide; phases: Crystal 1, Liquid, Air at 1 atmosphere
Property: Molar enthalpy of transition or fusion, kJ/mol (Crystal 1); method: DSC
Molar enthalpy of transition or fusion, kJ/mol	uncertainty
19.6	0.5

System: butanamide; phases: Crystal, Liquid, Air at 1 atmosphere
Property: Normal melting temperature, K (Crystal); method: DTA
Normal melting temperature, K	uncertainty
387.3	0.9

System: butanamide; phases: Crystal 1, Liquid, Air at 1 atmosphere
Property: Normal melting temperature, K (Crystal 1); method: DTA
Normal melting temperature, K	uncertainty
387.4	0.4

System: butanamide; phases: Crystal
Fixed: Pressure, kPa = 101.325
Property: Molar heat capacity at constant pressure, J/K/mol (Crystal); method: Large sample (1 g) DSC
Temperature, K	Molar heat capacity at constant pressure, J/K/mol	uncertainty
183	96.4	2
188	98.3	2.1
193	101.7	2.3
198	104.1	1.9
203	106.4	1.8
208	108	1.9
213	109.7	2
218	112.5	2.4
223	114.3	2.4
228	116	2.2
233	118.1	2.1
238	120.8	2.3
243	123	2.4
248	125.9	2.4
253	127.4	2.4
258	130.2	2.2
263	132.4	2.6
268	135	2.1
273	136.8	2.6
278	139.3	2.4
283	141.5	2.7
288	143.7	2.5
293	146.4	2.6
298	147.7	2.3
303	150.3	2.5
308	153.5	2.5
313	155	2.4
318	158.8	2.7
323	161.4	2.5

System: 2-methylpropanamide; phases: Crystal, Liquid, Air at 1 atmosphere
Property: Molar enthalpy of transition or fusion, kJ/mol (Crystal); method: DSC
Molar enthalpy of transition or fusion, kJ/mol	uncertainty
19.2	0.5

System: 2-methylpropanamide; phases: Crystal, Liquid, Air at 1 atmosphere
Property: Molar enthalpy of transition or fusion, kJ/mol (Crystal); method: DSC
Molar enthalpy of transition or fusion, kJ/mol	uncertainty
19.3	0.5

System: 2-methylpropanamide; phases: Crystal, Liquid, Air at 1 atmosphere
Property: Normal melting temperature, K (Crystal); method: DTA
Normal melting temperature, K	uncertainty
400.1	0.4

System: 2-methylpropanamide; phases: Crystal, Liquid, Air at 1 atmosphere
Property: Normal melting temperature, K (Crystal); method: DTA
Normal melting temperature, K	uncertainty
400.4	0.4

System: 2-methylpropanamide; phases: Crystal
Fixed: Pressure, kPa = 101.325
Property: Molar heat capacity at constant pressure, J/K/mol (Crystal); method: Large sample (1 g) DSC
Temperature, K	Molar heat capacity at constant pressure, J/K/mol	uncertainty
183	100.8	1.9
188	102.9	2.3
193	105	1.8
198	107.1	1.8
203	110.5	2.4
208	112.4	2.3
213	114	2.3
218	115.6	2.4
223	118.7	2.1
228	120.3	1.9
233	122.8	2.4
238	124.8	1.9
243	127.3	2.4
248	130.8	2
253	132.6	2.6
258	134.6	2.5
263	137.6	2.7
268	138.8	2.7
273	141.9	2.7
278	144.6	2.6
283	146.5	2.4
288	148.5	2.6
293	150.9	2.5
298	152.4	2.7
303	154.1	2.8
308	158	2.7
313	160.2	2.5
318	162.7	2.9
323	164.5	2.9

System: pentanamide; phases: Crystal 1, Liquid, Air at 1 atmosphere
Property: Molar enthalpy of transition or fusion, kJ/mol (Crystal 1); method: DSC
Molar enthalpy of transition or fusion, kJ/mol	uncertainty
17.9	0.4

System: pentanamide; phases: Crystal 2, Crystal 1, Liquid
Property: Molar enthalpy of transition or fusion, kJ/mol (Crystal 2); method: DSC
Molar enthalpy of transition or fusion, kJ/mol	uncertainty
1.2	0.11

System: pentanamide; phases: Crystal 3, Crystal 2, Liquid
Property: Molar enthalpy of transition or fusion, kJ/mol (Crystal 3); method: DSC
Molar enthalpy of transition or fusion, kJ/mol	uncertainty
1.9	0.3

System: pentanamide; phases: Crystal 1, Liquid, Air at 1 atmosphere
Property: Molar enthalpy of transition or fusion, kJ/mol (Crystal 1); method: DSC
Molar enthalpy of transition or fusion, kJ/mol	uncertainty
19.3	1.3

System: pentanamide; phases: Crystal 2, Crystal 1, Air at 1 atmosphere
Property: Molar enthalpy of transition or fusion, kJ/mol (Crystal 2); method: DSC
Molar enthalpy of transition or fusion, kJ/mol	uncertainty
1.06	0.11

System: pentanamide; phases: Crystal 2, Crystal 1, Air at 1 atmosphere
Property: Triple point temperature, K (Crystal 2); method: DTA
Triple point temperature, K	uncertainty
365	1

System: pentanamide; phases: Crystal 3, Crystal 2, Air at 1 atmosphere
Property: Triple point temperature, K (Crystal 3); method: DTA
Triple point temperature, K	uncertainty
211.8	0.9

System: pentanamide; phases: Crystal 2, Crystal 1, Air at 1 atmosphere
Property: Triple point temperature, K (Crystal 2); method: DTA
Triple point temperature, K	uncertainty
365.4	0.4

System: pentanamide; phases: Crystal 1, Liquid, Air at 1 atmosphere
Property: Normal melting temperature, K (Crystal 1); method: DTA
Normal melting temperature, K	uncertainty
377.2	0.4

System: pentanamide; phases: Crystal 1, Liquid, Air at 1 atmosphere
Property: Normal melting temperature, K (Crystal 1); method: DTA
Normal melting temperature, K	uncertainty
376.7	0.9

System: pentanamide; phases: Crystal 3
Fixed: Pressure, kPa = 101.325
Property: Molar heat capacity at constant pressure, J/K/mol (Crystal 3); method: Large sample (1 g) DSC
Temperature, K	Molar heat capacity at constant pressure, J/K/mol	uncertainty
183	111.5	1.7
188	116.1	1.8
193	118.5	2.3
198	122.5	1.9
203	128.9	2
208	133.1	2.1

System: pentanamide; phases: Crystal 2
Fixed: Pressure, kPa = 101.325
Property: Molar heat capacity at constant pressure, J/K/mol (Crystal 2); method: Large sample (1 g) DSC
Temperature, K	Molar heat capacity at constant pressure, J/K/mol	uncertainty
213	139.1	2.2
218	145.1	2.3
223	154	2.5
228	162.5	2.5
233	175	2.7
238	183.4	2.9
243	195.4	3.1
248	200.8	3.1
253	199.8	3.1
258	196.2	3
263	191.6	3.2
268	185.8	3.2
273	189.4	2.9
278	187.1	2.9
283	188.4	3
288	188.4	3
293	190	3.1
298	190.3	2.9
303	192.6	3.1
308	196.4	3.2
313	198.4	3.3
318	202.5	3.2
323	204.5	3.2

System: 2,2-dimethylpropanamide; phases: Crystal, Liquid, Air at 1 atmosphere
Property: Molar enthalpy of transition or fusion, kJ/mol (Crystal); method: DSC
Molar enthalpy of transition or fusion, kJ/mol	uncertainty
24.1	0.8

System: 2,2-dimethylpropanamide; phases: Crystal, Liquid, Air at 1 atmosphere
Property: Molar enthalpy of transition or fusion, kJ/mol (Crystal); method: DSC
Molar enthalpy of transition or fusion, kJ/mol	uncertainty
25.6	0.6

System: 2,2-dimethylpropanamide; phases: Crystal, Liquid, Air at 1 atmosphere
Property: Normal melting temperature, K (Crystal); method: DTA
Normal melting temperature, K	uncertainty
425.4	0.4

System: 2,2-dimethylpropanamide; phases: Crystal, Liquid, Air at 1 atmosphere
Property: Normal melting temperature, K (Crystal); method: DTA
Normal melting temperature, K	uncertainty
425.6	0.4

System: 2,2-dimethylpropanamide; phases: Crystal
Fixed: Pressure, kPa = 101.325
Property: Molar heat capacity at constant pressure, J/K/mol (Crystal); method: Large sample (1 g) DSC
Temperature, K	Molar heat capacity at constant pressure, J/K/mol	uncertainty
188	115.7	2.2
193	117.6	1.9
198	120.8	2.5
203	123	2.2
208	124.8	2.5
213	126.4	2.1
218	129.1	2.2
223	131.5	2.1
228	133.4	2.6
233	136.6	2.2
238	137.9	2.2
243	140.2	2.6
248	142.8	2.3
253	144.5	2.7
258	147.5	2.4
263	149.2	2.7
268	150.9	2.5
273	153.8	2.7
278	156.3	2.4
283	158.3	2.5
288	161.1	2.6
293	163	2.7
298	163.7	2.7
303	165.4	2.7
308	167.9	2.7
313	170.2	2.6
318	172.7	2.7
323	174.2	2.7

System: hexanamide; phases: Crystal 1, Liquid, Air at 1 atmosphere
Property: Molar enthalpy of transition or fusion, kJ/mol (Crystal 1); method: DSC
Molar enthalpy of transition or fusion, kJ/mol	uncertainty
16.7	0.4

System: hexanamide; phases: Crystal 2, Crystal 1, Air at 1 atmosphere
Property: Molar enthalpy of transition or fusion, kJ/mol (Crystal 2); method: DSC
Molar enthalpy of transition or fusion, kJ/mol	uncertainty
7.9	0.5

System: hexanamide; phases: Crystal 1, Liquid, Air at 1 atmosphere
Property: Molar enthalpy of transition or fusion, kJ/mol (Crystal 1); method: DSC
Molar enthalpy of transition or fusion, kJ/mol	uncertainty
17.6	0.6

System: hexanamide; phases: Crystal 2, Crystal 1, Air at 1 atmosphere
Property: Molar enthalpy of transition or fusion, kJ/mol (Crystal 2); method: DSC
Molar enthalpy of transition or fusion, kJ/mol	uncertainty
7.9	0.3

System: hexanamide; phases: Crystal 2, Crystal 1, Air at 1 atmosphere
Property: Triple point temperature, K (Crystal 2); method: DTA
Triple point temperature, K	uncertainty
305.1	0.4

System: hexanamide; phases: Crystal 2, Crystal 1, Air at 1 atmosphere
Property: Triple point temperature, K (Crystal 2); method: DTA
Triple point temperature, K	uncertainty
306	0.7

System: hexanamide; phases: Crystal 1, Liquid, Air at 1 atmosphere
Property: Normal melting temperature, K (Crystal 1); method: DTA
Normal melting temperature, K	uncertainty
373	0.4

System: hexanamide; phases: Crystal 1, Liquid, Air at 1 atmosphere
Property: Normal melting temperature, K (Crystal 1); method: DTA
Normal melting temperature, K	uncertainty
373	0.9

System: hexanamide; phases: Crystal 2
Fixed: Pressure, kPa = 101.325
Property: Molar heat capacity at constant pressure, J/K/mol (Crystal 2); method: Large sample (1 g) DSC
Temperature, K	Molar heat capacity at constant pressure, J/K/mol	uncertainty
183	119.1	2.1
188	121.1	2.4
193	126.6	2.2
198	128.6	2
203	132.5	2.4
208	135.8	2.2
213	138.8	2.2
218	142.1	2.2
223	146.7	2.3
228	150.8	2.4
233	155.3	2.4
238	160.1	2.5
243	165.6	2.7
248	169.6	2.6
253	173.1	2.9

System: octanamide; phases: Crystal 1, Liquid, Air at 1 atmosphere
Property: Molar enthalpy of transition or fusion, kJ/mol (Crystal 1); method: DSC
Molar enthalpy of transition or fusion, kJ/mol	uncertainty
27.6	0.9

System: octanamide; phases: Crystal 2, Crystal 1, Air at 1 atmosphere
Property: Molar enthalpy of transition or fusion, kJ/mol (Crystal 2); method: DSC
Molar enthalpy of transition or fusion, kJ/mol	uncertainty
0.97	0.11

System: octanamide; phases: Crystal 3, Crystal 2, Air at 1 atmosphere
Property: Molar enthalpy of transition or fusion, kJ/mol (Crystal 3); method: DSC
Molar enthalpy of transition or fusion, kJ/mol	uncertainty
1.91	0.15

System: octanamide; phases: Crystal 1, Liquid, Air at 1 atmosphere
Property: Molar enthalpy of transition or fusion, kJ/mol (Crystal 1); method: DSC
Molar enthalpy of transition or fusion, kJ/mol	uncertainty
27.2	0.6

System: octanamide; phases: Crystal 2, Crystal 1, Air at 1 atmosphere
Property: Molar enthalpy of transition or fusion, kJ/mol (Crystal 2); method: DSC
Molar enthalpy of transition or fusion, kJ/mol	uncertainty
0.99	0.11

System: octanamide; phases: Crystal 2, Crystal 1, Air at 1 atmosphere
Property: Triple point temperature, K (Crystal 2); method: DTA
Triple point temperature, K	uncertainty
304.5	0.7

System: octanamide; phases: Crystal 3, Crystal 2, Air at 1 atmosphere
Property: Triple point temperature, K (Crystal 3); method: DTA
Triple point temperature, K	uncertainty
194.4	1.7

System: octanamide; phases: Crystal 2, Crystal 1, Air at 1 atmosphere
Property: Triple point temperature, K (Crystal 2); method: DTA
Triple point temperature, K	uncertainty
304.5	0.4

System: octanamide; phases: Crystal 1, Liquid, Air at 1 atmosphere
Property: Normal melting temperature, K (Crystal 1); method: DTA
Normal melting temperature, K	uncertainty
377	1

System: octanamide; phases: Crystal 1, Liquid, Air at 1 atmosphere
Property: Normal melting temperature, K (Crystal 1); method: DTA
Normal melting temperature, K	uncertainty
377.7	0.4

System: octanamide; phases: Crystal 3
Fixed: Pressure, kPa = 101.325
Property: Molar heat capacity at constant pressure, J/K/mol (Crystal 3); method: Large sample (1 g) DSC
Temperature, K	Molar heat capacity at constant pressure, J/K/mol	uncertainty
183	164.7	2.6
188	169	2.8
193	174.2	2.7

System: octanamide; phases: Crystal 2
Fixed: Pressure, kPa = 101.325
Property: Molar heat capacity at constant pressure, J/K/mol (Crystal 2); method: Large sample (1 g) DSC
Temperature, K	Molar heat capacity at constant pressure, J/K/mol	uncertainty
198	180.6	2.9
203	189.7	3
208	197.1	3.2
213	204.6	3.3
218	213.2	3.4
223	224.4	3.5
228	228.2	3.5
233	232.8	3.7
238	234.3	3.6
243	235.1	3.6
248	236.3	3.8
253	233.9	3.6
258	236.1	3.8
263	238.3	3.7
268	235.4	3.8
273	241.2	3.8
278	242.7	3.8
283	243.9	3.8
288	244.9	3.8
293	246.5	3.8
298	245.1	3.8
303	246.7	3.8

System: octanamide; phases: Crystal 1
Fixed: Pressure, kPa = 101.325
Property: Molar heat capacity at constant pressure, J/K/mol (Crystal 1); method: Large sample (1 g) DSC
Temperature, K	Molar heat capacity at constant pressure, J/K/mol	uncertainty
308	249.3	3.9
313	251.8	4

System: decanamide; phases: Crystal 1, Liquid, Air at 1 atmosphere
Property: Molar enthalpy of transition or fusion, kJ/mol (Crystal 1); method: DSC
Molar enthalpy of transition or fusion, kJ/mol	uncertainty
15.1	0.6

System: decanamide; phases: Crystal 2, Crystal 1, Air at 1 atmosphere
Property: Molar enthalpy of transition or fusion, kJ/mol (Crystal 2); method: DSC
Molar enthalpy of transition or fusion, kJ/mol	uncertainty
18.8	0.7

System: decanamide; phases: Crystal 3, Crystal 2, Air at 1 atmosphere
Property: Molar enthalpy of transition or fusion, kJ/mol (Crystal 3); method: DSC
Molar enthalpy of transition or fusion, kJ/mol	uncertainty
1.05	0.11

System: decanamide; phases: Crystal 1, Liquid, Air at 1 atmosphere
Property: Molar enthalpy of transition or fusion, kJ/mol (Crystal 1); method: DSC
Molar enthalpy of transition or fusion, kJ/mol	uncertainty
17.4	1

System: decanamide; phases: Crystal 2, Crystal 1, Air at 1 atmosphere
Property: Molar enthalpy of transition or fusion, kJ/mol (Crystal 2); method: DSC
Molar enthalpy of transition or fusion, kJ/mol	uncertainty
21.1	0.7

System: decanamide; phases: Crystal 3, Crystal 2, Air at 1 atmosphere
Property: Molar enthalpy of transition or fusion, kJ/mol (Crystal 3); method: DSC
Molar enthalpy of transition or fusion, kJ/mol	uncertainty
1.05	0.12

System: decanamide; phases: Crystal 2, Crystal 1, Air at 1 atmosphere
Property: Triple point temperature, K (Crystal 2); method: DTA
Triple point temperature, K	uncertainty
366.3	1

System: decanamide; phases: Crystal 3, Crystal 2, Air at 1 atmosphere
Property: Triple point temperature, K (Crystal 3); method: DTA
Triple point temperature, K	uncertainty
218.7	0.6

System: decanamide; phases: Crystal 2, Crystal 1, Air at 1 atmosphere
Property: Triple point temperature, K (Crystal 2); method: DTA
Triple point temperature, K	uncertainty
366.9	0.7

System: decanamide; phases: Crystal 3, Crystal 2, Air at 1 atmosphere
Property: Triple point temperature, K (Crystal 3); method: DTA
Triple point temperature, K	uncertainty
218.7	0.4

System: decanamide; phases: Crystal 1, Liquid, Air at 1 atmosphere
Property: Normal melting temperature, K (Crystal 1); method: DTA
Normal melting temperature, K	uncertainty
370.6	0.8

System: decanamide; phases: Crystal 1, Liquid, Air at 1 atmosphere
Property: Normal melting temperature, K (Crystal 1); method: DTA
Normal melting temperature, K	uncertainty
370.9	0.4

System: decanamide; phases: Crystal 2
Fixed: Pressure, kPa = 101.325
Property: Molar heat capacity at constant pressure, J/K/mol (Crystal 2); method: Large sample (1 g) DSC
Temperature, K	Molar heat capacity at constant pressure, J/K/mol	uncertainty
263	236.4	3.7
268	238.5	3.7
273	247.6	3.9
278	251.1	3.9
283	260.7	4.1
288	266.4	4.2
293	270.2	4.2
298	272.4	4.2
303	278.5	4.4
308	287	4.5
313	291.6	4.6
318	297.9	4.7
323	304.4	4.8

System: dodecanamide; phases: Crystal 1, Liquid, Air at 1 atmosphere
Property: Molar enthalpy of transition or fusion, kJ/mol (Crystal 1); method: DSC
Molar enthalpy of transition or fusion, kJ/mol	uncertainty
36.3	1

System: dodecanamide; phases: Crystal 2, Crystal 1, Air at 1 atmosphere
Property: Molar enthalpy of transition or fusion, kJ/mol (Crystal 2); method: DSC
Molar enthalpy of transition or fusion, kJ/mol	uncertainty
9.7	0.3

System: dodecanamide; phases: Crystal 1, Liquid, Air at 1 atmosphere
Property: Molar enthalpy of transition or fusion, kJ/mol (Crystal 1); method: DSC
Molar enthalpy of transition or fusion, kJ/mol	uncertainty
35.7	1.2

System: dodecanamide; phases: Crystal 2, Crystal 1, Air at 1 atmosphere
Property: Molar enthalpy of transition or fusion, kJ/mol (Crystal 2); method: DSC
Molar enthalpy of transition or fusion, kJ/mol	uncertainty
9	0.3

System: dodecanamide; phases: Crystal 2, Crystal 1, Air at 1 atmosphere
Property: Triple point temperature, K (Crystal 2); method: DTA
Triple point temperature, K	uncertainty
321.1	0.4

System: dodecanamide; phases: Crystal 2, Crystal 1, Air at 1 atmosphere
Property: Triple point temperature, K (Crystal 2); method: DTA
Triple point temperature, K	uncertainty
322	0.9

System: dodecanamide; phases: Crystal 1, Liquid, Air at 1 atmosphere
Property: Normal melting temperature, K (Crystal 1); method: DTA
Normal melting temperature, K	uncertainty
373.3	0.4

System: dodecanamide; phases: Crystal 1, Liquid, Air at 1 atmosphere
Property: Normal melting temperature, K (Crystal 1); method: DTA
Normal melting temperature, K	uncertainty
373.8	1

System: dodecanamide; phases: Crystal 2
Fixed: Pressure, kPa = 101.325
Property: Molar heat capacity at constant pressure, J/K/mol (Crystal 2); method: Large sample (1 g) DSC
Temperature, K	Molar heat capacity at constant pressure, J/K/mol	uncertainty
198	213.3	3.3
203	217.8	3.6
208	223.3	3.6
213	227.1	3.7
218	231.8	3.8
223	237.5	3.7
228	242.2	3.9
233	245.9	3.8
238	251.2	4
243	258.4	4
248	263	4.1
253	269.2	4.2
258	274.3	4.3
263	280.8	4.4

System: hexadecanamide; phases: Crystal 1, Liquid, Air at 1 atmosphere
Property: Molar enthalpy of transition or fusion, kJ/mol (Crystal 1); method: DSC
Molar enthalpy of transition or fusion, kJ/mol	uncertainty
45.4	1.3

System: hexadecanamide; phases: Crystal 2, Crystal 1, Air at 1 atmosphere
Property: Molar enthalpy of transition or fusion, kJ/mol (Crystal 2); method: DSC
Molar enthalpy of transition or fusion, kJ/mol	uncertainty
10.4	0.4

System: hexadecanamide; phases: Crystal 1, Liquid, Air at 1 atmosphere
Property: Molar enthalpy of transition or fusion, kJ/mol (Crystal 1); method: DSC
Molar enthalpy of transition or fusion, kJ/mol	uncertainty
45.2	1.1

System: hexadecanamide; phases: Crystal 2, Crystal 1, Air at 1 atmosphere
Property: Molar enthalpy of transition or fusion, kJ/mol (Crystal 2); method: DSC
Molar enthalpy of transition or fusion, kJ/mol	uncertainty
10.3	0.7

System: hexadecanamide; phases: Crystal 2, Crystal 1, Air at 1 atmosphere
Property: Triple point temperature, K (Crystal 2); method: DTA
Triple point temperature, K	uncertainty
355.5	0.8

System: hexadecanamide; phases: Crystal 2, Crystal 1, Air at 1 atmosphere
Property: Triple point temperature, K (Crystal 2); method: DTA
Triple point temperature, K	uncertainty
356.1	0.5

System: hexadecanamide; phases: Crystal 1, Liquid, Air at 1 atmosphere
Property: Normal melting temperature, K (Crystal 1); method: DTA
Normal melting temperature, K	uncertainty
376	0.8

System: hexadecanamide; phases: Crystal 1, Liquid, Air at 1 atmosphere
Property: Normal melting temperature, K (Crystal 1); method: DTA
Normal melting temperature, K	uncertainty
375.6	0.8

System: hexadecanamide; phases: Crystal 2
Fixed: Pressure, kPa = 101.325
Property: Molar heat capacity at constant pressure, J/K/mol (Crystal 2); method: Large sample (1 g) DSC
Temperature, K	Molar heat capacity at constant pressure, J/K/mol	uncertainty
208	267.5	4.3
213	273.7	4.7
218	276.5	4.6
223	282.8	4.5
228	289	4.8
233	297.1	4.8
238	302.6	4.9
243	310.3	4.9
248	319.5	5.1
253	323.8	5.2
258	331.6	5.4
263	340.1	5.5
268	348.1	5.5
273	357.9	5.6
278	364.8	5.9
283	371.6	5.9
288	378.1	6
293	387.6	6.1
298	394.3	6.1
303	401.8	6.4

System: octadecanamide; phases: Crystal 1, Liquid, Air at 1 atmosphere
Property: Molar enthalpy of transition or fusion, kJ/mol (Crystal 1); method: DSC
Molar enthalpy of transition or fusion, kJ/mol	uncertainty
54.8	2.6

System: octadecanamide; phases: Crystal 2, Crystal 1, Air at 1 atmosphere
Property: Molar enthalpy of transition or fusion, kJ/mol (Crystal 2); method: DSC
Molar enthalpy of transition or fusion, kJ/mol	uncertainty
2.2	0.3

System: octadecanamide; phases: Crystal 1, Liquid, Air at 1 atmosphere
Property: Molar enthalpy of transition or fusion, kJ/mol (Crystal 1); method: DSC
Molar enthalpy of transition or fusion, kJ/mol	uncertainty
55.1	1.8

System: octadecanamide; phases: Crystal 2, Crystal 1, Air at 1 atmosphere
Property: Triple point temperature, K (Crystal 2); method: DTA
Triple point temperature, K	uncertainty
298.7	0.7

System: octadecanamide; phases: Crystal 1, Liquid, Air at 1 atmosphere
Property: Normal melting temperature, K (Crystal 1); method: DTA
Normal melting temperature, K	uncertainty
379.7	0.5

System: octadecanamide; phases: Crystal 1, Liquid, Air at 1 atmosphere
Property: Normal melting temperature, K (Crystal 1); method: DTA
Normal melting temperature, K	uncertainty
380	0.9

System: octadecanamide; phases: Crystal 2
Fixed: Pressure, kPa = 101.325
Property: Molar heat capacity at constant pressure, J/K/mol (Crystal 2); method: Large sample (1 g) DSC
Temperature, K	Molar heat capacity at constant pressure, J/K/mol	uncertainty
208	318.2	5
213	328.5	5.1
218	336.6	5.2
223	345.2	5.4
228	353.1	5.5
233	360.8	5.6
238	367.6	5.7
243	375.8	5.9
248	385.6	6
253	393.6	6.1
258	403.2	6.3

System: docosanamide; phases: Crystal, Liquid, Air at 1 atmosphere
Property: Molar enthalpy of transition or fusion, kJ/mol (Crystal); method: DSC
Molar enthalpy of transition or fusion, kJ/mol	uncertainty
63.3	1.5

System: docosanamide; phases: Crystal, Liquid, Air at 1 atmosphere
Property: Molar enthalpy of transition or fusion, kJ/mol (Crystal); method: DSC
Molar enthalpy of transition or fusion, kJ/mol	uncertainty
64.7	2

System: docosanamide; phases: Crystal, Liquid, Air at 1 atmosphere
Property: Normal melting temperature, K (Crystal); method: DTA
Normal melting temperature, K	uncertainty
383.3	0.5

System: docosanamide; phases: Crystal, Liquid, Air at 1 atmosphere
Property: Normal melting temperature, K (Crystal); method: DTA
Normal melting temperature, K	uncertainty
384.9	1

System: docosanamide; phases: Crystal
Fixed: Pressure, kPa = 101.325
Property: Molar heat capacity at constant pressure, J/K/mol (Crystal); method: Large sample (1 g) DSC
Temperature, K	Molar heat capacity at constant pressure, J/K/mol	uncertainty
228	420.4	6.6
233	431.8	6.7
238	439.8	6.8
243	449.2	7
248	461.3	7.2
253	470.1	7.3
258	480.5	7.5
263	493	7.7
268	500.2	7.8
273	511.9	8
278	523.7	8.2
283	539.7	8.4
288	548.1	8.5
293	561.1	8.7
298	568.7	8.8
