Measured thermophysical data. Volumetric and Viscosity Studies of Aqueous Solutions of the Potassium Salt of Penicillin-G at Different Temperatures and at Ambient Pressure
Source: J. Chem. Eng. Data, 2007, 10.1021/je700191v
Compound 1: potassium (2S,5R,6R)-3,3-dimethyl-7-oxo-6-(2-phenylacetamido)-4-thia-1-azabicyclo[3.2.0]heptane-2-carboxylate, C16H17KN2O4S, InChI=1S/C16H18N2O4S.K/c1-16(2)12(15(21)22)18-13(20)11(14(18)23-16)17-10(19)8-9-6-4-3-5-7-9;/h3-7,11-12,14H,8H2,1-2H3,(H,17,19)(H,21,22);/q;+1/p-1/t11-,12+,14-;/m1./s1
Compound 2: water, H2O, InChI=1S/H2O/h1H2

System: potassium (2S,5R,6R)-3,3-dimethyl-7-oxo-6-(2-phenylacetamido)-4-thia-1-azabicyclo[3.2.0]heptane-2-carboxylate + water; phases: Liquid
Fixed: Pressure, kPa = 101
Property: Viscosity, Pa*s (Liquid); method: Capillary tube (Ostwald; Ubbelohde) method
Temperature, K	Amount concentration (molarity), mol/dm3 of potassium (2S,5R,6R)-3,3-dimethyl-7-oxo-6-(2-phenylacetamido)-4-thia-1-azabicyclo[3.2.0]heptane-2-carboxylate	Viscosity, Pa*s	uncertainty
293.15	0	1	0.0039
293.15	0.00507	1.0064	0.0039
293.15	0.00992	1.0099	0.0039
293.15	0.02049	1.0234	0.004
293.15	0.03938	1.0433	0.0041
293.15	0.05948	1.0685	0.0042
293.15	0.07975	1.0899	0.0043
293.15	0.09729	1.1101	0.0044
293.15	0.12274	1.1416	0.0045
298.15	0	1	0.0039
298.15	0.00507	1.0064	0.0039
298.15	0.00991	1.0107	0.004
298.15	0.02047	1.0224	0.004
298.15	0.03934	1.0418	0.0041
298.15	0.05941	1.0673	0.0042
298.15	0.07966	1.0866	0.0043
298.15	0.09717	1.1082	0.0044
298.15	0.12258	1.1363	0.0045
303.15	0	1	0.0039
303.15	0.00506	1.0049	0.0039
303.15	0.00989	1.0097	0.0039
303.15	0.02044	1.0209	0.004
303.15	0.03928	1.0395	0.0041
303.15	0.05932	1.0621	0.0042
303.15	0.07954	1.0842	0.0043
303.15	0.09703	1.1028	0.0044
303.15	0.12239	1.133	0.0045
308.15	0	1	0.0039
308.15	0.00505	1.0049	0.0039
308.15	0.00988	1.0096	0.0039
308.15	0.0204	1.0202	0.004
308.15	0.03921	1.0388	0.0041
308.15	0.05922	1.0601	0.0042
308.15	0.07939	1.0816	0.0043
308.15	0.09685	1.0987	0.0044
308.15	0.12216	1.1291	0.0045

System: potassium (2S,5R,6R)-3,3-dimethyl-7-oxo-6-(2-phenylacetamido)-4-thia-1-azabicyclo[3.2.0]heptane-2-carboxylate + water; phases: Liquid
Fixed: Pressure, kPa = 101
Property: Mass density, kg/m3 (Liquid); method: VIBTUB:UFactor:8
Temperature, K	Molality, mol/kg of potassium (2S,5R,6R)-3,3-dimethyl-7-oxo-6-(2-phenylacetamido)-4-thia-1-azabicyclo[3.2.0]heptane-2-carboxylate	Mass density, kg/m3	uncertainty
293.15	0	998.206	0.354
293.15	0.01891	1000.623	0.349
293.15	0.03922	1003.152	0.359
293.15	0.05967	1005.702	0.369
293.15	0.08039	1008.259	0.38
293.15	0.10085	1010.738	0.39
293.15	0.12167	1013.281	0.401
298.15	0	997.047	0.359
298.15	0.01891	999.45	0.349
298.15	0.03922	1001.984	0.355
298.15	0.05967	1004.498	0.365
298.15	0.08039	1007.044	0.375
298.15	0.10085	1009.497	0.385
298.15	0.12167	1011.986	0.394
303.15	0	995.65	0.363
303.15	0.01952	998.081	0.354
303.15	0.03888	1000.467	0.349
303.15	0.05831	1002.854	0.358
303.15	0.07995	1005.481	0.368
303.15	0.1	1007.876	0.378
303.15	0.11934	1010.194	0.386
308.15	0	994.035	0.367
308.15	0.01952	996.399	0.359
308.15	0.03888	998.73	0.351
308.15	0.05831	1001.061	0.35
308.15	0.07995	1003.592	0.361
308.15	0.1	1006.02	0.371
308.15	0.11934	1008.281	0.38
