Measured thermophysical data. Vapor-Liquid Equilibria for the Binary System Pentafluoroethane (HFC-125) + Isobutane (HC-600a) at Temperatures from (243.15 to 333.15) K
Source: J. Chem. Eng. Data, 2007, 10.1021/je7001539
Compound 1: pentafluoroethane, C2HF5, InChI=1S/C2HF5/c3-1(4)2(5,6)7/h1H, purity 99.8%
Compound 2: 2-methylpropane, C4H10, InChI=1S/C4H10/c1-4(2)3/h4H,1-3H3, purity 99.8%

System: pentafluoroethane; phases: Liquid, Gas
Property: Vapor or sublimation pressure, kPa (Liquid); method: CCELL:UFactor:8
Temperature, K	Vapor or sublimation pressure, kPa	uncertainty
243.15	228.5	6.1
253.15	337.9	8.5
263.15	483.1	12.1
272.15	650.1	16.2
283.15	908.8	22.7
293.15	1204.5	30
303.15	1566.8	39
313.15	2005.6	49.8
323.15	2533.2	62.9
333.15	3167.4	78.6

System: 2-methylpropane; phases: Liquid, Gas
Property: Vapor or sublimation pressure, kPa (Liquid); method: CCELL:UFactor:8
Temperature, K	Vapor or sublimation pressure, kPa	uncertainty
243.15	46.2	3.2
253.15	72	3.5
263.15	107.9	3.9
272.15	150.9	4.6
283.15	220.1	5.9
293.15	301.8	7.6
303.15	404.3	10.1
313.15	530.8	13.3
323.15	684.3	17.1
333.15	868.3	21.7

System: 2-methylpropane + pentafluoroethane; phases: Liquid, Gas
Property: Vapor or sublimation pressure, kPa (Liquid); method: CCELL:UFactor:8
Temperature, K	Mole fraction of pentafluoroethane	Vapor or sublimation pressure, kPa	uncertainty
243.15	0	46.2	3.2
243.15	0.0509	78.2	3.7
243.15	0.1077	109	4.3
243.15	0.1714	137.9	4.8
243.15	0.2435	161.8	5.3
243.15	0.3254	186.2	5.8
243.15	0.4198	203.9	5.9
243.15	0.5295	216.8	6
243.15	0.6584	226.3	6
243.15	1	228.5	6.1
253.15	0	72	3.5
253.15	0.0509	117.1	4.3
253.15	0.1076	165.1	5.4
253.15	0.1713	205.1	6.3
253.15	0.2433	238.2	7.1
253.15	0.3252	275.8	7.7
253.15	0.4195	297	7.9
253.15	0.5291	315.6	8.2
253.15	0.658	330.5	8.3
253.15	1	337.9	8.5
263.15	0	107.9	3.9
263.15	0.0509	172.9	5.4
263.15	0.1076	240.5	7.1
263.15	0.1711	293.8	8.3
263.15	0.2431	339.8	9.8
263.15	0.3249	394.7	10.8
263.15	0.4192	417.5	10.9
263.15	0.5287	444.2	11.6
263.15	0.6576	465.4	11.7
263.15	1	483.1	12.1
272.15	0	150.9	4.6
272.15	0.0508	238.1	6.7
272.15	0.1075	326.2	9.2
272.15	0.171	395.9	11.1
272.15	0.2429	455.3	12.8
272.15	0.3246	518.8	14
272.15	0.4188	551.5	14.4
272.15	0.5282	589.1	15.4
272.15	0.657	618.9	15.6
272.15	1	650.1	16.2
283.15	0	220.1	5.9
283.15	0.0508	339.4	9.2
283.15	0.1074	458.3	12.8
283.15	0.1709	550.7	15.3
283.15	0.2427	634.7	17.3
283.15	0.3243	697.6	18.6
283.15	0.4184	754.6	19.9
283.15	0.5277	804.9	21.1
283.15	0.6564	856.2	21.6
283.15	1	908.8	22.7
293.15	0	301.8	7.6
293.15	0.0508	460	12.3
293.15	0.1073	607.1	16.7
293.15	0.1707	720	19.8
293.15	0.2425	830	22.6
293.15	0.324	914.5	24.2
293.15	0.418	980.1	25.7
293.15	0.5272	1045.8	27.5
293.15	0.6557	1116	28.4
293.15	1	1204.5	30
303.15	0	404.3	10.1
303.15	0.0507	580	15.4
303.15	0.1073	765.8	21
303.15	0.1707	909	24.9
303.15	0.2424	1039	28.3
303.15	0.3238	1150.4	30.8
303.15	0.4177	1245.3	33.1
303.15	0.5267	1339.5	35.5
303.15	0.6551	1431.4	36.6
303.15	1	1566.8	39
313.15	0	530.8	13.3
313.15	0.0507	725.6	19
313.15	0.1073	932.4	25.2
313.15	0.1707	1088.9	29.7
313.15	0.2424	1253	34
313.15	0.3237	1400.7	38.1
313.15	0.4176	1534.8	41.3
313.15	0.5265	1659.3	44.9
313.15	0.6546	1802	46.6
313.15	1	2005.6	49.8
323.15	0	684.3	17.1
323.15	0.0508	903.8	23.5
323.15	0.1074	1157.6	31.1
323.15	0.1708	1343.4	36.6
323.15	0.2426	1550	42.4
323.15	0.3239	1715.6	46.2
323.15	0.4178	1873.9	51.1
323.15	0.5266	2055.3	56.2
323.15	0.6545	2229.3	58.4
323.15	1	2533.2	62.9
333.15	0	868.3	21.7
333.15	0.0509	1115.8	28.8
333.15	0.1076	1398	37.3
333.15	0.1712	1624.6	44.1
333.15	0.2432	1863.7	51.1
333.15	0.3246	2079.8	56.1
333.15	0.4188	2257.7	61.6
333.15	0.5277	2488.8	68.6
333.15	0.6557	2704.4	72.7
333.15	1	3167.4	78.6
