Measured thermophysical data. Experimental and Computational Thermochemistry of 1,3-Benzodioxole Derivatives
Source: J. Chem. Eng. Data, 2007, 10.1021/je700035m
Compound 1: carbon dioxide, CO2, InChI=1S/CO2/c2-1-3
Compound 2: water, H2O, InChI=1S/H2O/h1H2
Compound 3: oxygen, O2, InChI=1S/O2/c1-2
Compound 4: nitrogen, N2, InChI=1S/N2/c1-2
Compound 5: 5-oxoethyl-1,3-benzodioxole, C9H8O3, InChI=1S/C9H8O3/c1-6(10)7-2-3-8-9(4-7)12-5-11-8/h2-4H,5H2,1H3, purity 99.1%
Compound 6: 3,4-methylenedioxybenzonitrile, C8H5NO2, InChI=1S/C8H5NO2/c9-4-6-1-2-7-8(3-6)11-5-10-7/h1-3H,5H2, purity 98%
Compound 7: 1,2-(methylenedioxy)-4-nitrobenzene, C7H5NO4, InChI=1S/C7H5NO4/c9-8(10)5-1-2-6-7(3-5)12-4-11-6/h1-3H,4H2, purity 99.8%
Compound 8: 5-methyl-1,3-benzodioxole, C8H8O2, InChI=1S/C8H8O2/c1-6-2-3-7-8(4-6)10-5-9-7/h2-4H,5H2,1H3, purity 99.8%

System: 5-oxoethyl-1,3-benzodioxole; phases: Crystal, Liquid, Air at 1 atmosphere
Property: Molar enthalpy of transition or fusion, kJ/mol (Crystal); method: DSC
Molar enthalpy of transition or fusion, kJ/mol	uncertainty
26.23	0.59

System: 5-oxoethyl-1,3-benzodioxole; phases: Crystal, Liquid, Air at 1 atmosphere
Property: Normal melting temperature, K (Crystal); method: DTA
Normal melting temperature, K	uncertainty
358.87	0.39

System: 5-oxoethyl-1,3-benzodioxole; phases: Crystal, Gas
Property: Molar enthalpy of vaporization or sublimation, kJ/mol (Crystal); method: vacuum sublimation/vaporization calorimetry
Temperature, K	Molar enthalpy of vaporization or sublimation, kJ/mol	uncertainty
298.15	104.4	4.3

System: 3,4-methylenedioxybenzonitrile; phases: Crystal, Liquid, Air at 1 atmosphere
Property: Molar enthalpy of transition or fusion, kJ/mol (Crystal); method: DSC
Molar enthalpy of transition or fusion, kJ/mol	uncertainty
20.79	0.5

System: 3,4-methylenedioxybenzonitrile; phases: Crystal, Liquid, Air at 1 atmosphere
Property: Normal melting temperature, K (Crystal); method: DTA
Normal melting temperature, K	uncertainty
366.26	0.39

System: 3,4-methylenedioxybenzonitrile; phases: Crystal, Gas
Property: Molar enthalpy of vaporization or sublimation, kJ/mol (Crystal); method: vacuum sublimation/vaporization calorimetry
Temperature, K	Molar enthalpy of vaporization or sublimation, kJ/mol	uncertainty
298.15	90.9	1.8

System: 1,2-(methylenedioxy)-4-nitrobenzene; phases: Crystal, Liquid, Air at 1 atmosphere
Property: Molar enthalpy of transition or fusion, kJ/mol (Crystal); method: DSC
Molar enthalpy of transition or fusion, kJ/mol	uncertainty
28.2	1.19

System: 1,2-(methylenedioxy)-4-nitrobenzene; phases: Crystal, Liquid, Air at 1 atmosphere
Property: Normal melting temperature, K (Crystal); method: DTA
Normal melting temperature, K	uncertainty
420.16	0.39

System: 1,2-(methylenedioxy)-4-nitrobenzene; phases: Crystal, Gas
Property: Molar enthalpy of vaporization or sublimation, kJ/mol (Crystal); method: vacuum sublimation/vaporization calorimetry
Temperature, K	Molar enthalpy of vaporization or sublimation, kJ/mol	uncertainty
298.15	97.4	4.3

System: 5-methyl-1,3-benzodioxole; phases: Liquid, Gas
Property: Molar enthalpy of vaporization or sublimation, kJ/mol (Liquid); method: vacuum sublimation/vaporization calorimetry
Temperature, K	Molar enthalpy of vaporization or sublimation, kJ/mol	uncertainty
298.15	54.9	2.3

Reaction: -1 5-oxoethyl-1,3-benzodioxole + 9 carbon dioxide + 4 water + -9.5 oxygen
Property: Specific internal energy of reaction at constant volume, J/g
-25950

Reaction: -1 3,4-methylenedioxybenzonitrile + 8 carbon dioxide + .5 nitrogen + 2.5 water + -8.25 oxygen
Property: Specific internal energy of reaction at constant volume, J/g
-25481.5

Reaction: -1 1,2-(methylenedioxy)-4-nitrobenzene + 7 carbon dioxide + .5 nitrogen + 2.5 water + -6.25 oxygen
Property: Specific internal energy of reaction at constant volume, J/g
-19140.9

Reaction: -1 5-methyl-1,3-benzodioxole + 8 carbon dioxide + 4 water + -9 oxygen
Property: Specific internal energy of reaction at constant volume, J/g
-29741.6
