Measured thermophysical data. Mutual Diffusion Coefficients for Binary Aqueous Solutions of Arsenous, Arsenic, and Malonic Acids
Source: J. Chem. Eng. Data, 2007, 10.1021/je700042z
Compound 1: water, H2O, InChI=1S/H2O/h1H2, purity 99%
Compound 2: arsenous acid, AsH3O3, InChI=1S/AsH3O3/c2-1(3)4/h2-4H
Compound 3: arsenic acid, AsH3O4, InChI=1S/AsH3O4/c2-1(3,4)5/h(H3,2,3,4,5)
Compound 4: propanedioic acid, C3H4O4, InChI=1S/C3H4O4/c4-2(5)1-3(6)7/h1H2,(H,4,5)(H,6,7)

System: water + arsenous acid; phases: Liquid
Fixed: Temperature, K = 298.15
Fixed: Pressure, kPa = 101
Property: Binary diffusion coefficient, m2/s (Liquid); method: DISPS:UFactor:0.5
Amount concentration (molarity), mol/dm3 of arsenous acid	Binary diffusion coefficient, m2/s	uncertainty
0.000489	1.113e-09	0.027
0.00121	1.114e-09	0.027
0.00309	1.11e-09	0.027
0.00565	1.105e-09	0.027
0.0101	1.107e-09	0.027
0.0124	1.105e-09	0.027
0.0148	1.106e-09	0.027

System: water + arsenic acid; phases: Liquid
Fixed: Temperature, K = 298.15
Fixed: Pressure, kPa = 101
Property: Binary diffusion coefficient, m2/s (Liquid); method: DISPS:UFactor:0.5
Amount concentration (molarity), mol/dm3 of arsenic acid	Binary diffusion coefficient, m2/s	uncertainty
0.000125	1.499e-09	0.035
0.000125	1.489e-09	0.035
0.000407	1.412e-09	0.033
0.000837	1.35e-09	0.032
0.00101	1.328e-09	0.032
0.00101	1.322e-09	0.031
0.00101	1.334e-09	0.032
0.00101	1.328e-09	0.032
0.00101	1.323e-09	0.031
0.00101	1.334e-09	0.032
0.00206	1.24e-09	0.03
0.00251	1.21e-09	0.029
0.00251	1.213e-09	0.029
0.00251	1.205e-09	0.029
0.00351	1.17e-09	0.028
0.00351	1.168e-09	0.028
0.00471	1.133e-09	0.028
0.00471	1.14e-09	0.028
0.00506	1.119e-09	0.027
0.00701	1.077e-09	0.027
0.00701	1.086e-09	0.027
0.00825	1.078e-09	0.027
0.00825	1.073e-09	0.026
0.0119	1.028e-09	0.026
0.0119	1.036e-09	0.026
0.014	1.021e-09	0.025
0.014	1.022e-09	0.025
0.014	1.017e-09	0.025

System: propanedioic acid + water; phases: Liquid
Fixed: Temperature, K = 298.15
Fixed: Pressure, kPa = 101
Property: Binary diffusion coefficient, m2/s (Liquid); method: DISPS:UFactor:0.5
Amount concentration (molarity), mol/dm3 of propanedioic acid	Binary diffusion coefficient, m2/s	uncertainty
0.000124	1.674e-09	0.038
0.000124	1.676e-09	0.039
0.000124	1.678e-09	0.039
0.000252	1.594e-09	0.037
0.000252	1.613e-09	0.037
0.000252	1.601e-09	0.037
0.000253	1.611e-09	0.037
0.000253	1.602e-09	0.037
0.000253	1.595e-09	0.037
0.000253	1.592e-09	0.037
0.000378	1.527e-09	0.036
0.000378	1.516e-09	0.035
0.000379	1.518e-09	0.035
0.000502	1.494e-09	0.035
0.000502	1.49e-09	0.035
0.000502	1.488e-09	0.035
0.000627	1.457e-09	0.034
0.000627	1.452e-09	0.034
0.000751	1.42e-09	0.033
0.000751	1.418e-09	0.033
0.000803	1.402e-09	0.033
0.00138	1.324e-09	0.031
0.00138	1.327e-09	0.032
0.00138	1.328e-09	0.032
0.00138	1.324e-09	0.031
0.00138	1.324e-09	0.031
0.0019	1.267e-09	0.03
0.0025	1.226e-09	0.03
0.0025	1.231e-09	0.03
0.0025	1.229e-09	0.03
0.0025	1.224e-09	0.029
0.0035	1.186e-09	0.029
0.0035	1.188e-09	0.029
0.0035	1.188e-09	0.029
0.0035	1.185e-09	0.029
0.00454	1.159e-09	0.028
0.0046	1.143e-09	0.028
0.0046	1.15e-09	0.028
0.0046	1.156e-09	0.028
0.00701	1.111e-09	0.027
0.00701	1.113e-09	0.027
0.0101	1.083e-09	0.027
0.0118	1.071e-09	0.026
0.0118	1.076e-09	0.027
0.0118	1.074e-09	0.026
0.015	1.06e-09	0.026
0.015	1.066e-09	0.026
0.015	1.055e-09	0.026
0.0201	1.028e-09	0.026
