Measured thermophysical data. Solubility of Triethylenediamine in Methanol, Ethanol, Isopropanol, I-Butanol, and Ethyl Acetate between 276.15 K and 363.15 K
Source: J. Chem. Eng. Data, 2007, 10.1021/je700186v
Compound 1: 1,4-diazabicyclo[2.2.2]octane, C6H12N2, InChI=1S/C6H12N2/c1-2-8-5-3-7(1)4-6-8/h1-6H2, purity 99.75%
Compound 2: methanol, CH4O, InChI=1S/CH4O/c1-2/h2H,1H3, purity 99.5%
Compound 3: ethanol, C2H6O, InChI=1S/C2H6O/c1-2-3/h3H,2H2,1H3, purity 99.5%
Compound 4: propan-2-ol, C3H8O, InChI=1S/C3H8O/c1-3(2)4/h3-4H,1-2H3, purity 99.5%
Compound 5: butan-1-ol, C4H10O, InChI=1S/C4H10O/c1-2-3-4-5/h5H,2-4H2,1H3, purity 99.5%
Compound 6: ethyl acetate, C4H8O2, InChI=1S/C4H8O2/c1-3-6-4(2)5/h3H2,1-2H3, purity 99.5%

System: 1,4-diazabicyclo[2.2.2]octane; phases: Crystal, Liquid, Air at 1 atmosphere
Property: Normal melting temperature, K (Crystal); method: VISOBS
Normal melting temperature, K	uncertainty
432.45	1.06

System: ethanol + 1,4-diazabicyclo[2.2.2]octane; phases: Liquid, Crystal
Fixed: Pressure, kPa = 101
Property: Mole fraction of 1,4-diazabicyclo[2.2.2]octane (Liquid); method: Laser intensity variation
Temperature, K	Mole fraction of 1,4-diazabicyclo[2.2.2]octane	uncertainty
276.15	0.27	0.015
280.15	0.294	0.016
287.15	0.318	0.017
294.15	0.337	0.018
298.15	0.352	0.019
303.15	0.372	0.02
308.15	0.385	0.021
313.15	0.408	0.022
318.15	0.433	0.024
323.15	0.451	0.025
328.15	0.482	0.026
333.15	0.509	0.028
338.15	0.543	0.03
343.15	0.571	0.031
348.15	0.609	0.033

System: propan-2-ol + 1,4-diazabicyclo[2.2.2]octane; phases: Liquid, Crystal
Fixed: Pressure, kPa = 101
Property: Mole fraction of 1,4-diazabicyclo[2.2.2]octane (Liquid); method: Laser intensity variation
Temperature, K	Mole fraction of 1,4-diazabicyclo[2.2.2]octane	uncertainty
276.15	0.259	0.012
280.15	0.284	0.013
287.15	0.307	0.014
294.15	0.333	0.015
298.15	0.353	0.016
303.15	0.363	0.017
308.15	0.39	0.018
313.15	0.412	0.019
318.15	0.438	0.02
323.15	0.459	0.021
328.15	0.489	0.023
333.15	0.515	0.024
338.15	0.546	0.025
343.15	0.574	0.027
348.15	0.602	0.028
353.15	0.644	0.03

System: butan-1-ol + 1,4-diazabicyclo[2.2.2]octane; phases: Liquid, Crystal
Fixed: Pressure, kPa = 101
Property: Mole fraction of 1,4-diazabicyclo[2.2.2]octane (Liquid); method: Laser intensity variation
Temperature, K	Mole fraction of 1,4-diazabicyclo[2.2.2]octane	uncertainty
294.15	0.373	0.022
298.15	0.393	0.024
303.15	0.409	0.025
308.15	0.431	0.026
313.15	0.454	0.027
318.15	0.474	0.029
323.15	0.495	0.03
328.15	0.526	0.032
333.15	0.548	0.033
338.15	0.587	0.035
343.15	0.622	0.037
348.15	0.653	0.039
353.15	0.673	0.04
358.15	0.69	0.041
363.15	0.707	0.042

System: ethyl acetate + 1,4-diazabicyclo[2.2.2]octane; phases: Liquid, Crystal
Fixed: Pressure, kPa = 101
Property: Mole fraction of 1,4-diazabicyclo[2.2.2]octane (Liquid); method: Laser intensity variation
Temperature, K	Mole fraction of 1,4-diazabicyclo[2.2.2]octane	uncertainty
298.15	0.108	0.011
303.15	0.141	0.014
308.15	0.217	0.022
313.15	0.24	0.024
318.15	0.259	0.026
323.15	0.304	0.03
328.15	0.337	0.034
333.15	0.377	0.038
338.15	0.421	0.042
343.15	0.482	0.048

System: methanol + 1,4-diazabicyclo[2.2.2]octane; phases: Liquid, Crystal
Fixed: Pressure, kPa = 101
Property: Mole fraction of 1,4-diazabicyclo[2.2.2]octane (Liquid); method: Laser intensity variation
Temperature, K	Mole fraction of 1,4-diazabicyclo[2.2.2]octane	uncertainty
276.15	0.284	0.01
280.15	0.305	0.011
287.15	0.319	0.011
294.15	0.344	0.012
298.15	0.361	0.013
303.15	0.377	0.014
308.15	0.389	0.014
313.15	0.413	0.015
318.15	0.434	0.016
323.15	0.456	0.017
328.15	0.479	0.018
333.15	0.51	0.019
338.15	0.534	0.019
