Measured thermophysical data. Enthalpies of Transfer of Amino Acids from Water to Aqueous Cationic Surfactants Solutions at 298.15 K
Source: J. Chem. Eng. Data, 2008, 10.1021/je7006082
Compound 1: 2-aminoacetic acid, C2H5NO2, InChI=1S/C2H5NO2/c3-1-2(4)5/h1,3H2,(H,4,5), purity 99%
Compound 2: dodecyl(2-hydroxyethyl)dimethylammonium bromide, C16H36BrNO, InChI=1S/C16H36NO.BrH/c1-4-5-6-7-8-9-10-11-12-13-14-17(2,3)15-16-18;/h18H,4-16H2,1-3H3;1H/q+1;/p-1
Compound 3: water, H2O, InChI=1S/H2O/h1H2
Compound 4: N-tetradecyl-hydroxyethyl-dimethyl ammonium bromide, C18H40BrNO, InChI=1S/C18H40NO.BrH/c1-4-5-6-7-8-9-10-11-12-13-14-15-16-19(2,3)17-18-20;/h20H,4-18H2,1-3H3;1H/q+1;/p-1
Compound 5: N-cetyl-hydroxyethyl-dimethyl ammonium bromide, C20H44BrNO, InChI=1S/C20H44NO.BrH/c1-4-5-6-7-8-9-10-11-12-13-14-15-16-17-18-21(2,3)19-20-22;/h22H,4-20H2,1-3H3;1H/q+1;/p-1
Compound 6: (S)-2-aminopropanoic acid, C3H7NO2, InChI=1S/C3H7NO2/c1-2(4)3(5)6/h2H,4H2,1H3,(H,5,6)/t2-/m0/s1, purity 99%
Compound 7: L-valine, C5H11NO2, InChI=1S/C5H11NO2/c1-3(2)4(6)5(7)8/h3-4H,6H2,1-2H3,(H,7,8)/t4-/m0/s1, purity 99%
Compound 8: L-serine, C3H7NO3, InChI=1S/C3H7NO3/c4-2(1-5)3(6)7/h2,5H,1,4H2,(H,6,7)/t2-/m0/s1, purity 99%
Compound 9: L-threonine, C4H9NO3, InChI=1S/C4H9NO3/c1-2(6)3(5)4(7)8/h2-3,6H,5H2,1H3,(H,7,8)/t2-,3+/m1/s1, purity 99%

System: 2-aminoacetic acid + dodecyl(2-hydroxyethyl)dimethylammonium bromide + water; phases: Liquid
Fixed: Pressure, kPa = 101
Fixed: Temperature, K = 298.15
Fixed: Mole fraction of 2-aminoacetic acid = 0
Property: Molar enthalpy of solution, kJ/mol (Liquid); method: Flow calorimetry
Solvent: Molality, mol/kg of dodecyl(2-hydroxyethyl)dimethylammonium bromide	Molar enthalpy of solution, kJ/mol	uncertainty
0	14.17	0.11
0.0201	13.9	0.11
0.0296	13.86	0.11
0.0402	13.67	0.13
0.0499	14.08	0.11
0.0597	14.54	0.12
0.0699	14.43	0.12
0.0796	14.35	0.11
0.0898	14.3	0.13

System: 2-aminoacetic acid + water + N-tetradecyl-hydroxyethyl-dimethyl ammonium bromide; phases: Liquid
Fixed: Pressure, kPa = 101
Fixed: Temperature, K = 298.15
Fixed: Mole fraction of 2-aminoacetic acid = 0
Property: Molar enthalpy of solution, kJ/mol (Liquid); method: Flow calorimetry
Solvent: Molality, mol/kg of N-tetradecyl-hydroxyethyl-dimethyl ammonium bromide	Molar enthalpy of solution, kJ/mol	uncertainty
0.003953	13.99	0.11
0.007988	13.89	0.12
0.009988	13.86	0.12
0.01497	14.06	0.11
0.01992	14.29	0.11
0.02495	14.27	0.12
0.02993	14.19	0.11
0.03495	13.92	0.11

System: 2-aminoacetic acid + water + N-cetyl-hydroxyethyl-dimethyl ammonium bromide; phases: Liquid
Fixed: Pressure, kPa = 101
Fixed: Temperature, K = 298.15
Fixed: Mole fraction of 2-aminoacetic acid = 0
Property: Molar enthalpy of solution, kJ/mol (Liquid); method: Flow calorimetry
Solvent: Molality, mol/kg of N-cetyl-hydroxyethyl-dimethyl ammonium bromide	Molar enthalpy of solution, kJ/mol	uncertainty
0.0009817	14.02	0.11
0.001968	13.93	0.12
0.002984	13.85	0.11
0.003964	14.17	0.11
0.004973	14.38	0.11
0.005986	14.33	0.11
0.006987	14.31	0.12
0.007988	14.24	0.11

System: (S)-2-aminopropanoic acid + dodecyl(2-hydroxyethyl)dimethylammonium bromide + water; phases: Liquid
Fixed: Pressure, kPa = 101
Fixed: Temperature, K = 298.15
Fixed: Mole fraction of (S)-2-aminopropanoic acid = 0
Property: Molar enthalpy of solution, kJ/mol (Liquid); method: Flow calorimetry
Solvent: Molality, mol/kg of dodecyl(2-hydroxyethyl)dimethylammonium bromide	Molar enthalpy of solution, kJ/mol	uncertainty
0	7.6	0.06
0.0201	7.88	0.08
0.0296	7.84	0.06
0.0402	7.79	0.07
0.0499	7.94	0.08
0.0597	8.06	0.07
0.0699	7.97	0.07
0.0796	7.87	0.07
0.0898	7.79	0.07

System: (S)-2-aminopropanoic acid + water + N-tetradecyl-hydroxyethyl-dimethyl ammonium bromide; phases: Liquid
Fixed: Pressure, kPa = 101
Fixed: Temperature, K = 298.15
Fixed: Mole fraction of (S)-2-aminopropanoic acid = 0
Property: Molar enthalpy of solution, kJ/mol (Liquid); method: Flow calorimetry
Solvent: Molality, mol/kg of N-tetradecyl-hydroxyethyl-dimethyl ammonium bromide	Molar enthalpy of solution, kJ/mol	uncertainty
0.003953	7.74	0.07
0.007988	7.7	0.07
0.009988	7.68	0.06
0.01497	7.84	0.07
0.01992	7.93	0.08
0.02495	8.01	0.1
0.02993	7.96	0.1
0.03495	7.64	0.06

System: (S)-2-aminopropanoic acid + water + N-cetyl-hydroxyethyl-dimethyl ammonium bromide; phases: Liquid
Fixed: Pressure, kPa = 101
Fixed: Temperature, K = 298.15
Fixed: Mole fraction of (S)-2-aminopropanoic acid = 0
Property: Molar enthalpy of solution, kJ/mol (Liquid); method: Flow calorimetry
Solvent: Molality, mol/kg of N-cetyl-hydroxyethyl-dimethyl ammonium bromide	Molar enthalpy of solution, kJ/mol	uncertainty
0.9817	7.76	0.07
1.968	7.75	0.06
2.984	7.72	0.06
3.964	7.94	0.08
4.973	7.97	0.08
5.986	7.89	0.08
6.987	7.82	0.07
7.988	7.75	0.06

System: L-valine + dodecyl(2-hydroxyethyl)dimethylammonium bromide + water; phases: Liquid
Fixed: Pressure, kPa = 101
Fixed: Temperature, K = 298.15
Fixed: Mole fraction of L-valine = 0
Property: Molar enthalpy of solution, kJ/mol (Liquid); method: Flow calorimetry
Solvent: Molality, mol/kg of dodecyl(2-hydroxyethyl)dimethylammonium bromide	Molar enthalpy of solution, kJ/mol	uncertainty
0	3.15	0.03
0.0201	3.53	0.07
0.0296	3.2	0.03
0.0402	2.75	0.08
0.0499	2.69	0.08
0.0597	3.48	0.07
0.0699	3.97	0.1
0.0796	3.87	0.1
0.0898	3.75	0.08

System: L-valine + water + N-tetradecyl-hydroxyethyl-dimethyl ammonium bromide; phases: Liquid
Fixed: Pressure, kPa = 101
Fixed: Temperature, K = 298.15
Fixed: Mole fraction of L-valine = 0
Property: Molar enthalpy of solution, kJ/mol (Liquid); method: Flow calorimetry
Solvent: Molality, mol/kg of N-tetradecyl-hydroxyethyl-dimethyl ammonium bromide	Molar enthalpy of solution, kJ/mol	uncertainty
0.003953	3.38	0.05
0.007988	3.13	0.03
0.009988	2.8	0.06
0.01497	3.51	0.07
0.01992	2.59	0.08
0.02495	3.78	0.1
0.02993	2.58	0.08
0.03495	2.67	0.08

System: L-valine + water + N-cetyl-hydroxyethyl-dimethyl ammonium bromide; phases: Liquid
Fixed: Pressure, kPa = 101
Fixed: Temperature, K = 298.15
Fixed: Mole fraction of L-valine = 0
Property: Molar enthalpy of solution, kJ/mol (Liquid); method: Flow calorimetry
Solvent: Molality, mol/kg of N-cetyl-hydroxyethyl-dimethyl ammonium bromide	Molar enthalpy of solution, kJ/mol	uncertainty
0.0009817	3.34	0.05
0.001968	3.13	0.03
0.002984	2.92	0.05
0.003964	3.04	0.03
0.004973	3.62	0.08
0.005986	3.57	0.07
0.006987	3.54	0.07
0.007988	3.42	0.05

System: L-serine + dodecyl(2-hydroxyethyl)dimethylammonium bromide + water; phases: Liquid
Fixed: Pressure, kPa = 101
Fixed: Temperature, K = 298.15
Fixed: Mole fraction of L-serine = 0
Property: Molar enthalpy of solution, kJ/mol (Liquid); method: Flow calorimetry
Solvent: Molality, mol/kg of dodecyl(2-hydroxyethyl)dimethylammonium bromide	Molar enthalpy of solution, kJ/mol	uncertainty
0	11.3	0.1
0.0201	11.8	0.13
0.0296	11.47	0.09
0.0402	11.45	0.09
0.0499	11.69	0.12
0.0597	11.93	0.13
0.0699	11.73	0.12
0.0796	11.61	0.1
0.0898	11.56	0.09

System: L-serine + water + N-tetradecyl-hydroxyethyl-dimethyl ammonium bromide; phases: Liquid
Fixed: Pressure, kPa = 101
Fixed: Temperature, K = 298.15
Fixed: Mole fraction of L-serine = 0
Property: Molar enthalpy of solution, kJ/mol (Liquid); method: Flow calorimetry
Solvent: Molality, mol/kg of N-tetradecyl-hydroxyethyl-dimethyl ammonium bromide	Molar enthalpy of solution, kJ/mol	uncertainty
0.003953	11.68	0.1
0.007988	11.41	0.09
0.009988	11.32	0.09
0.01497	11.34	0.09
0.01992	11.58	0.09
0.02495	11.85	0.12
0.02993	11.57	0.1
0.03495	11.48	0.09

System: L-serine + water + N-cetyl-hydroxyethyl-dimethyl ammonium bromide; phases: Liquid
Fixed: Pressure, kPa = 101
Fixed: Temperature, K = 298.15
Fixed: Mole fraction of L-serine = 0
Property: Molar enthalpy of solution, kJ/mol (Liquid); method: Flow calorimetry
Solvent: Molality, mol/kg of N-cetyl-hydroxyethyl-dimethyl ammonium bromide	Molar enthalpy of solution, kJ/mol	uncertainty
0.0009817	11.57	0.09
0.001968	11.51	0.09
0.002984	11.39	0.09
0.003964	11.52	0.09
0.004973	11.54	0.09
0.005986	11.62	0.1
0.006987	11.61	0.1
0.007988	11.52	0.09

System: L-threonine + dodecyl(2-hydroxyethyl)dimethylammonium bromide + water; phases: Liquid
Fixed: Pressure, kPa = 101
Fixed: Temperature, K = 298.15
Fixed: Mole fraction of L-threonine = 0
Property: Molar enthalpy of solution, kJ/mol (Liquid); method: Flow calorimetry
Solvent: Molality, mol/kg of dodecyl(2-hydroxyethyl)dimethylammonium bromide	Molar enthalpy of solution, kJ/mol	uncertainty
0	10.35	0.08
0.0201	11.22	0.13
0.0296	11.01	0.11
0.0402	10.69	0.1
0.0499	9.78	0.11
0.0597	10.4	0.08
0.0699	10.97	0.13
0.0796	10.9	0.09
0.0898	10.83	0.09

System: L-threonine + water + N-tetradecyl-hydroxyethyl-dimethyl ammonium bromide; phases: Liquid
Fixed: Pressure, kPa = 101
Fixed: Temperature, K = 298.15
Fixed: Mole fraction of L-threonine = 0
Property: Molar enthalpy of solution, kJ/mol (Liquid); method: Flow calorimetry
Solvent: Molality, mol/kg of N-tetradecyl-hydroxyethyl-dimethyl ammonium bromide	Molar enthalpy of solution, kJ/mol	uncertainty
0.003953	10.88	0.11
0.007988	10.76	0.11
0.009988	10.24	0.08
0.01497	10.9	0.1
0.01992	11.21	0.13
0.02495	11.08	0.11
0.02993	11.06	0.11
0.03495	10.88	0.1

System: L-threonine + water + N-cetyl-hydroxyethyl-dimethyl ammonium bromide; phases: Liquid
Fixed: Pressure, kPa = 101
Fixed: Temperature, K = 298.15
Fixed: Mole fraction of L-threonine = 0
Property: Molar enthalpy of solution, kJ/mol (Liquid); method: Flow calorimetry
Solvent: Molality, mol/kg of N-cetyl-hydroxyethyl-dimethyl ammonium bromide	Molar enthalpy of solution, kJ/mol	uncertainty
0.0009817	10.76	0.1
0.001968	10.73	0.09
0.002984	10.18	0.08
0.003964	10.83	0.1
0.004973	10.98	0.1
0.005986	10.85	0.11
0.006987	10.79	0.09
0.007988	10.74	0.08
