Measured thermophysical data. Solubility of Adipic Acid in Acetone, Chloroform, and Toluene
Source: J. Chem. Eng. Data, 2009, 10.1021/je8006887
Compound 1: 1,6-hexanedioic acid, C6H10O4, InChI=1S/C6H10O4/c7-5(8)3-1-2-4-6(9)10/h1-4H2,(H,7,8)(H,9,10)
Compound 2: acetone, C3H6O, InChI=1S/C3H6O/c1-3(2)4/h1-2H3
Compound 3: trichloromethane, CHCl3, InChI=1S/CHCl3/c2-1(3)4/h1H
Compound 4: toluene, C7H8, InChI=1S/C7H8/c1-7-5-3-2-4-6-7/h2-6H,1H3

System: acetone + 1,6-hexanedioic acid; phases: Liquid, Crystal
Fixed: Pressure, kPa = 101
Property: Mole fraction of 1,6-hexanedioic acid (Liquid); method: Titration method
Temperature, K	Mole fraction of 1,6-hexanedioic acid	uncertainty
298.15	0.01687	0.00042
300.15	0.01801	0.00045
302.15	0.01929	0.00048
304.15	0.02069	0.00051
306.15	0.02213	0.00055
308.15	0.02354	0.00058
310.15	0.02527	0.00063
312.15	0.02715	0.00068
314.15	0.02945	0.00073
316.15	0.03172	0.00079
318.15	0.03453	0.00087
323.15	0.04302	0.00107

System: trichloromethane + 1,6-hexanedioic acid; phases: Liquid, Crystal
Fixed: Pressure, kPa = 101
Property: Mole fraction of 1,6-hexanedioic acid (Liquid); method: Titration method
Temperature, K	Mole fraction of 1,6-hexanedioic acid	uncertainty
298.15	0.002095	5.1e-05
300.15	0.002205	5.3e-05
302.15	0.002308	5.6e-05
304.15	0.00245	6e-05
306.15	0.00259	6.3e-05
308.15	0.002725	6.6e-05
310.15	0.002858	6.9e-05
312.15	0.002994	7.3e-05
314.15	0.003141	7.6e-05
316.15	0.003262	7.9e-05
318.15	0.003402	8.2e-05
323.15	0.003767	9.1e-05

System: toluene + 1,6-hexanedioic acid; phases: Liquid, Crystal
Fixed: Pressure, kPa = 101
Property: Mole fraction of 1,6-hexanedioic acid (Liquid); method: Titration method
Temperature, K	Mole fraction of 1,6-hexanedioic acid	uncertainty
298.15	4.53e-05	1.2e-06
300.15	5.64e-05	1.5e-06
302.15	7.16e-05	2e-06
304.15	9.41e-05	2.5e-06
306.15	0.000114	3e-06
308.15	0.000146	4e-06
310.15	0.000182	5e-06
312.15	0.000223	6e-06
314.15	0.000268	7e-06
316.15	0.000324	8e-06
318.15	0.000391	1e-05
323.15	0.000614	1.6e-05
328.15	0.000959	2.5e-05
333.15	0.00146	4e-05
