Measured thermophysical data. Solubilities of 1,4-Naphthoquinone in Acetone, Toluene, Xylene, Ethanol, and n-Butyl Alcohol
Source: J. Chem. Eng. Data, 2008, 10.1021/je800405b
Compound 1: .alpha.-naphthoquinone, C10H6O2, InChI=1S/C10H6O2/c11-9-5-6-10(12)8-4-2-1-3-7(8)9/h1-6H
Compound 2: acetone, C3H6O, InChI=1S/C3H6O/c1-3(2)4/h1-2H3
Compound 3: toluene, C7H8, InChI=1S/C7H8/c1-7-5-3-2-4-6-7/h2-6H,1H3
Compound 4: ethanol, C2H6O, InChI=1S/C2H6O/c1-2-3/h3H,2H2,1H3
Compound 5: butan-1-ol, C4H10O, InChI=1S/C4H10O/c1-2-3-4-5/h5H,2-4H2,1H3

System: acetone + .alpha.-naphthoquinone; phases: Liquid, Crystal
Fixed: Pressure, kPa = 101
Property: Solid-liquid equilibrium temperature, K (Liquid); method: VISOBS
Mole fraction of .alpha.-naphthoquinone	Solid-liquid equilibrium temperature, K	uncertainty
0.03619	293.27	2.94
0.03727	295.46	2.69
0.03765	295.8	1.36
0.03994	298.25	1.14
0.04031	298.51	1.18
0.04108	299.07	1.05
0.04371	300.66	0.94
0.04675	302.06	0.97
0.05027	304	1.03
0.05322	305.3	1.14
0.05839	308.24	1.31
0.06392	311.24	1.22
0.06834	312.91	1.18
0.07265	314.97	1.21
0.0767	316.33	1.15
0.08102	318.06	1.22
0.08555	319.63	1.2

System: ethanol + .alpha.-naphthoquinone; phases: Liquid, Crystal
Fixed: Pressure, kPa = 101
Property: Solid-liquid equilibrium temperature, K (Liquid); method: VISOBS
Mole fraction of .alpha.-naphthoquinone	Solid-liquid equilibrium temperature, K	uncertainty
0.00145	279.8	0.5
0.00221	285.78	0.66
0.00277	289.05	0.7
0.00335	292.72	0.76
0.00412	296.52	0.8
0.00487	299.87	0.73
0.00596	303.25	0.73
0.00696	305.99	0.74
0.00825	309.13	0.8
0.00945	311.85	0.84
0.01085	314.73	0.85
0.01207	316.84	0.93
0.0134	319.52	0.97
0.01451	321.15	0.89
0.01567	322.93	0.84
0.01993	328.25	0.94
0.02118	329.13	0.77
0.02349	331.34	0.85
0.02562	333.04	0.76
0.02738	334.13	0.72
0.0294	335.43	0.78

System: toluene + .alpha.-naphthoquinone; phases: Liquid, Crystal
Fixed: Pressure, kPa = 101
Property: Solid-liquid equilibrium temperature, K (Liquid); method: VISOBS
Mole fraction of .alpha.-naphthoquinone	Solid-liquid equilibrium temperature, K	uncertainty
0.04755	294.1	1.17
0.0537	297.82	1.24
0.05855	300.35	1.23
0.06311	302.68	1.27
0.06681	304.44	1.14
0.07235	306.58	1.19
0.08098	310.16	1.3
0.08899	313.15	1.4
0.09404	315.25	1.49
0.09945	317.27	1.45
0.10699	319.93	1.32
0.11324	321.45	1.27
0.11622	322.53	1.5
0.11793	322.93	1.12
0.13293	327.2	1.49
0.14503	330.45	1.38
0.15332	331.95	1.13

System: butan-1-ol + .alpha.-naphthoquinone; phases: Liquid, Crystal
Fixed: Pressure, kPa = 101
Property: Solid-liquid equilibrium temperature, K (Liquid); method: VISOBS
Mole fraction of .alpha.-naphthoquinone	Solid-liquid equilibrium temperature, K	uncertainty
0.00657	302.1	0.57
0.00908	307.2	0.71
0.01201	312.32	0.81
0.01515	317.1	0.89
0.01697	319.33	0.84
0.01834	320.94	0.73
0.01991	322.16	0.75
0.02377	325.85	0.73
0.03074	330.35	0.78
0.03768	334.33	0.76
0.0434	336.45	0.72
0.05	339.23	0.8
0.056	341.3	0.75
0.06241	343.26	0.64
0.06947	344.6	0.59
0.07627	346.03	0.67
