Measured thermophysical data. Enthalpies of Vaporization and Vapor Pressures of Some Deuterated Hydrocarbons. Liquid-Vapor Pressure Isotope Effects
Source: J. Chem. Eng. Data, 2008, 10.1021/je800091s
Compound 1: heptane-d16, C7D16, InChI=1S/C7H16/c1-3-5-7-6-4-2/h3-7H2,1-2H3/i1D3,2D3,3D2,4D2,5D2,6D2,7D2, purity 99%
Compound 2: heptane, C7H16, InChI=1S/C7H16/c1-3-5-7-6-4-2/h3-7H2,1-2H3
Compound 3: toluene-d8, C7D8, InChI=1S/C7H8/c1-7-5-3-2-4-6-7/h2-6H,1H3/i1D3,2D,3D,4D,5D,6D, purity 99.6%
Compound 4: toluene, C7H8, InChI=1S/C7H8/c1-7-5-3-2-4-6-7/h2-6H,1H3
Compound 5: octane-d18, C8D18, InChI=1S/C8H18/c1-3-5-7-8-6-4-2/h3-8H2,1-2H3/i1D3,2D3,3D2,4D2,5D2,6D2,7D2,8D2, purity 98%
Compound 6: octane, C8H18, InChI=1S/C8H18/c1-3-5-7-8-6-4-2/h3-8H2,1-2H3
Compound 7: p-xylene-d10, C8D10, InChI=1S/C8H10/c1-7-3-5-8(2)6-4-7/h3-6H,1-2H3/i1D3,2D3,3D,4D,5D,6D, purity 99%
Compound 8: 1,4-dimethylbenzene, C8H10, InChI=1S/C8H10/c1-7-3-5-8(2)6-4-7/h3-6H,1-2H3
Compound 9: 1,2-dimethylbenzene, C8H10, InChI=1S/C8H10/c1-7-5-3-4-6-8(7)2/h3-6H,1-2H3
Compound 10: decane, C10H22, InChI=1S/C10H22/c1-3-5-7-9-10-8-6-4-2/h3-10H2,1-2H3
Compound 11: decane-d22, C10D22, InChI=1S/C10H22/c1-3-5-7-9-10-8-6-4-2/h3-10H2,1-2H3/i1D3,2D3,3D2,4D2,5D2,6D2,7D2,8D2,9D2,10D2, purity 99%
Compound 12: naphthalene-d8, C10D8, InChI=1S/C10H8/c1-2-6-10-8-4-3-7-9(10)5-1/h1-8H/i1D,2D,3D,4D,5D,6D,7D,8D, purity 99%
Compound 13: naphthalene, C10H8, InChI=1S/C10H8/c1-2-6-10-8-4-3-7-9(10)5-1/h1-8H
Compound 14: 1,1'-biphenyl-d10, C12D10, InChI=1S/C12H10/c1-3-7-11(8-4-1)12-9-5-2-6-10-12/h1-10H/i1D,2D,3D,4D,5D,6D,7D,8D,9D,10D, purity 99%
Compound 15: biphenyl, C12H10, InChI=1S/C12H10/c1-3-7-11(8-4-1)12-9-5-2-6-10-12/h1-10H
Compound 16: hexamethylbenzene-d18, C12D18, InChI=1S/C12H18/c1-7-8(2)10(4)12(6)11(5)9(7)3/h1-6H3/i1D3,2D3,3D3,4D3,5D3,6D3
Compound 17: hexamethylbenzene, C12H18, InChI=1S/C12H18/c1-7-8(2)10(4)12(6)11(5)9(7)3/h1-6H3
Compound 18: phenanthrene-d10, C14D10, InChI=1S/C14H10/c1-3-7-13-11(5-1)9-10-12-6-2-4-8-14(12)13/h1-10H/i1D,2D,3D,4D,5D,6D,7D,8D,9D,10D, purity 98%
Compound 19: phenanthrene, C14H10, InChI=1S/C14H10/c1-3-7-13-11(5-1)9-10-12-6-2-4-8-14(12)13/h1-10H
Compound 20: anthracene-d10, C14D10, InChI=1S/C14H10/c1-2-6-12-10-14-8-4-3-7-13(14)9-11(12)5-1/h1-10H/i1D,2D,3D,4D,5D,6D,7D,8D,9D,10D, purity 98%
Compound 21: anthracene, C14H10, InChI=1S/C14H10/c1-2-6-12-10-14-8-4-3-7-13(14)9-11(12)5-1/h1-10H
Compound 22: acenaphthene, C12H10, InChI=1S/C12H10/c1-3-9-4-2-6-11-8-7-10(5-1)12(9)11/h1-6H,7-8H2
Compound 23: acenaphthene-d10, C12D10, InChI=1S/C12H10/c1-3-9-4-2-6-11-8-7-10(5-1)12(9)11/h1-6H,7-8H2/i1D,2D,3D,4D,5D,6D,7D2,8D2
Compound 24: p-terphenyl, C18H14, InChI=1S/C18H14/c1-3-7-15(8-4-1)17-11-13-18(14-12-17)16-9-5-2-6-10-16/h1-14H
Compound 25: 1,1':4',1''-terphenyl-d14, C18D14, InChI=1S/C18H14/c1-3-7-15(8-4-1)17-11-13-18(14-12-17)16-9-5-2-6-10-16/h1-14H/i1D,2D,3D,4D,5D,6D,7D,8D,9D,10D,11D,12D,13D,14D
Compound 26: chrysene, C18H12, InChI=1S/C18H12/c1-3-7-15-13(5-1)9-11-18-16-8-4-2-6-14(16)10-12-17(15)18/h1-12H
Compound 27: chrysene-d12, C18D12, InChI=1S/C18H12/c1-3-7-15-13(5-1)9-11-18-16-8-4-2-6-14(16)10-12-17(15)18/h1-12H/i1D,2D,3D,4D,5D,6D,7D,8D,9D,10D,11D,12D
Compound 28: perylene, C20H12, InChI=1S/C20H12/c1-5-13-6-2-11-17-18-12-4-8-14-7-3-10-16(20(14)18)15(9-1)19(13)17/h1-12H
Compound 29: perylene-d12, C20D12, InChI=1S/C20H12/c1-5-13-6-2-11-17-18-12-4-8-14-7-3-10-16(20(14)18)15(9-1)19(13)17/h1-12H/i1D,2D,3D,4D,5D,6D,7D,8D,9D,10D,11D,12D
Compound 30: hexane, C6H14, InChI=1S/C6H14/c1-3-5-6-4-2/h3-6H2,1-2H3
Compound 31: hexane-d14, C6D14, InChI=1S/C6H14/c1-3-5-6-4-2/h3-6H2,1-2H3/i1D3,2D3,3D2,4D2,5D2,6D2, purity 99%
Compound 32: cyclohexane-d12, C6D12, InChI=1S/C6H12/c1-2-4-6-5-3-1/h1-6H2/i1D2,2D2,3D2,4D2,5D2,6D2, purity 99.6%
Compound 33: cyclohexane, C6H12, InChI=1S/C6H12/c1-2-4-6-5-3-1/h1-6H2
Compound 34: benzene-d6, C6D6, InChI=1S/C6H6/c1-2-4-6-5-3-1/h1-6H/i1D,2D,3D,4D,5D,6D, purity 99.6%
Compound 35: benzene, C6H6, InChI=1S/C6H6/c1-2-4-6-5-3-1/h1-6H
Compound 36: o-xylene-d10, C8D10, InChI=1S/C8H10/c1-7-5-3-4-6-8(7)2/h3-6H,1-2H3/i1D3,2D3,3D,4D,5D,6D, purity 99%

System: heptane-d16; phases: Liquid, Gas
Property: Molar enthalpy of vaporization or sublimation, kJ/mol (Liquid); method: Correlation gas chromatography
Temperature, K	Molar enthalpy of vaporization or sublimation, kJ/mol	uncertainty
298	35.8	2.1

System: heptane-d16; phases: Liquid, Gas
Property: Molar enthalpy of vaporization or sublimation, kJ/mol (Liquid); method: Correlation gas chromatography
Temperature, K	Molar enthalpy of vaporization or sublimation, kJ/mol	uncertainty
298	36.4	2.1

System: heptane-d16; phases: Liquid, Gas
Property: Vapor or sublimation pressure, kPa (Liquid); method: Gas chromatography
Temperature, K	Vapor or sublimation pressure, kPa	uncertainty
298.15	6.95	0.695
298.15	6.837	0.684
300	7.619	0.762
300	7.489	0.749
320	18.76	1.88
320	18.5	1.85
340	40.26	4.03
340	40.29	4.03
360	77.84	7.78
360	79.26	7.93
380	138.9	13.9
380	143.5	14.4
400	232.4	23.2
400	242.5	24.3
420	369.3	36.9
420	386.8	38.7
440	562.2	56.2
440	587.7	58.8
460	826	82.6
460	856.4	85.6
480	1177	118
480	1204	120
500	1634	163
500	1642	164

System: heptane; phases: Liquid, Gas
Property: Molar enthalpy of vaporization or sublimation, kJ/mol (Liquid); method: Correlation gas chromatography
Temperature, K	Molar enthalpy of vaporization or sublimation, kJ/mol	uncertainty
298	36.72	2.1

System: heptane; phases: Liquid, Gas
Property: Molar enthalpy of vaporization or sublimation, kJ/mol (Liquid); method: Correlation gas chromatography
Temperature, K	Molar enthalpy of vaporization or sublimation, kJ/mol	uncertainty
298	36.41	2.08

System: toluene-d8; phases: Liquid, Gas
Property: Molar enthalpy of vaporization or sublimation, kJ/mol (Liquid); method: Correlation gas chromatography
Temperature, K	Molar enthalpy of vaporization or sublimation, kJ/mol	uncertainty
298	37.95	2.16

System: toluene-d8; phases: Liquid, Gas
Property: Molar enthalpy of vaporization or sublimation, kJ/mol (Liquid); method: Correlation gas chromatography
Temperature, K	Molar enthalpy of vaporization or sublimation, kJ/mol	uncertainty
298	37.58	2.14

System: toluene-d8; phases: Liquid, Gas
Property: Vapor or sublimation pressure, kPa (Liquid); method: Gas chromatography
Temperature, K	Vapor or sublimation pressure, kPa	uncertainty
298.15	4.102	0.41
298.15	3.947	0.395
300	4.506	0.451
300	4.339	0.434
320	11.41	1.14
320	11.13	1.11
340	25.34	2.53
340	25.03	2.5
360	50.64	5.06
360	50.63	5.06
380	92.97	9.3
380	93.88	9.39
400	159.1	15.9
400	161.9	16.2
420	257	25.7
420	262.8	26.3
440	395.4	39.5
440	405.2	40.5
460	583.3	58.3
460	598	59.8
480	830.4	83
480	849.8	85
500	1146	115
500	1169	117

System: toluene; phases: Liquid, Gas
Property: Molar enthalpy of vaporization or sublimation, kJ/mol (Liquid); method: Correlation gas chromatography
Temperature, K	Molar enthalpy of vaporization or sublimation, kJ/mol	uncertainty
298	38.02	2.16

System: toluene; phases: Liquid, Gas
Property: Molar enthalpy of vaporization or sublimation, kJ/mol (Liquid); method: Correlation gas chromatography
Temperature, K	Molar enthalpy of vaporization or sublimation, kJ/mol	uncertainty
298	38.24	2.17

System: octane-d18; phases: Liquid, Gas
Property: Molar enthalpy of vaporization or sublimation, kJ/mol (Liquid); method: Correlation gas chromatography
Temperature, K	Molar enthalpy of vaporization or sublimation, kJ/mol	uncertainty
298	41.35	2.33

System: octane-d18; phases: Liquid, Gas
Property: Vapor or sublimation pressure, kPa (Liquid); method: Gas chromatography
Temperature, K	Vapor or sublimation pressure, kPa	uncertainty
298.15	2.122	0.212
300	2.356	0.236
320	6.574	0.658
340	15.65	1.57
360	33.01	3.3
380	63.37	6.34
400	112.9	11.3
420	189.3	18.9
440	301.8	30.2
460	461.5	46.2
480	681	68.1
500	974.7	97.5

System: octane; phases: Liquid, Gas
Property: Molar enthalpy of vaporization or sublimation, kJ/mol (Liquid); method: Correlation gas chromatography
Temperature, K	Molar enthalpy of vaporization or sublimation, kJ/mol	uncertainty
298	41.75	2.35

System: p-xylene-d10; phases: Liquid, Gas
Property: Molar enthalpy of vaporization or sublimation, kJ/mol (Liquid); method: Correlation gas chromatography
Temperature, K	Molar enthalpy of vaporization or sublimation, kJ/mol	uncertainty
298	42.43	2.39

System: p-xylene-d10; phases: Liquid, Gas
Property: Vapor or sublimation pressure, kPa (Liquid); method: Gas chromatography
Temperature, K	Vapor or sublimation pressure, kPa	uncertainty
298.15	1.247	0.125
300	1.387	0.139
320	3.962	0.396
340	9.726	0.973
360	21.18	2.12
380	41.89	4.19
400	76.6	7.66
420	131.2	13.1
440	212.9	21.3
460	329.7	33
480	490.9	49.1
500	706.1	70.6

System: 1,4-dimethylbenzene; phases: Liquid, Gas
Property: Molar enthalpy of vaporization or sublimation, kJ/mol (Liquid); method: Correlation gas chromatography
Temperature, K	Molar enthalpy of vaporization or sublimation, kJ/mol	uncertainty
298	42.57	2.39

System: 1,2-dimethylbenzene; phases: Liquid, Gas
Property: Molar enthalpy of vaporization or sublimation, kJ/mol (Liquid); method: Correlation gas chromatography
Temperature, K	Molar enthalpy of vaporization or sublimation, kJ/mol	uncertainty
298	43.07	2.42

System: decane; phases: Liquid, Gas
Property: Molar enthalpy of vaporization or sublimation, kJ/mol (Liquid); method: Correlation gas chromatography
Temperature, K	Molar enthalpy of vaporization or sublimation, kJ/mol	uncertainty
298	52.09	2.88

System: decane-d22; phases: Liquid, Gas
Property: Molar enthalpy of vaporization or sublimation, kJ/mol (Liquid); method: Correlation gas chromatography
Temperature, K	Molar enthalpy of vaporization or sublimation, kJ/mol	uncertainty
298	51.77	2.86

System: decane-d22; phases: Liquid, Gas
Property: Vapor or sublimation pressure, kPa (Liquid); method: Gas chromatography
Temperature, K	Vapor or sublimation pressure, kPa	uncertainty
298.15	0.2117	0.0212
300	0.241	0.0241
320	0.8585	0.0859
340	2.506	0.251
360	6.284	0.628
380	13.98	1.4
400	28.3	2.83
420	52.99	5.3
440	93.09	9.31
460	155	15.5
480	246.7	24.7
500	377.7	37.8

System: naphthalene-d8; phases: Liquid, Gas
Property: Molar enthalpy of vaporization or sublimation, kJ/mol (Liquid); method: Correlation gas chromatography
Temperature, K	Molar enthalpy of vaporization or sublimation, kJ/mol	uncertainty
298	54.65	3.01

System: naphthalene-d8; phases: Liquid, Gas
Property: Vapor or sublimation pressure, kPa (Liquid); method: Gas chromatography
Temperature, K	Vapor or sublimation pressure, kPa	uncertainty
298.15	0.03559	0.00356
300	0.0408	0.00408
320	0.1587	0.0159
340	0.5098	0.051
360	1.404	0.14
380	3.41	0.341
400	7.459	0.746
420	14.95	1.5
440	27.82	2.78
460	48.62	4.86
480	80.5	8.05
500	127.2	12.7

System: naphthalene; phases: Liquid, Gas
Property: Molar enthalpy of vaporization or sublimation, kJ/mol (Liquid); method: Correlation gas chromatography
Temperature, K	Molar enthalpy of vaporization or sublimation, kJ/mol	uncertainty
298	54.64	3.01

System: 1,1'-biphenyl-d10; phases: Liquid, Gas
Property: Molar enthalpy of vaporization or sublimation, kJ/mol (Liquid); method: Correlation gas chromatography
Temperature, K	Molar enthalpy of vaporization or sublimation, kJ/mol	uncertainty
298	64.89	3.54

System: 1,1'-biphenyl-d10; phases: Liquid, Gas
Property: Vapor or sublimation pressure, kPa (Liquid); method: Gas chromatography
Temperature, K	Vapor or sublimation pressure, kPa	uncertainty
298.15	0.00355	0.000355
298.15	0.003667	0.000367
300	0.004176	0.000418
300	0.004307	0.000431
320	0.02091	0.00209
320	0.02131	0.00213
340	0.08345	0.00835
340	0.08448	0.00845
360	0.277	0.0277
360	0.2792	0.0279
380	0.7903	0.079
380	0.7936	0.0794
400	1.989	0.199
400	1.988	0.199
420	4.508	0.451
420	4.481	0.448
440	9.347	0.935
440	9.229	0.923
460	17.97	1.8
460	17.6	1.76
480	32.39	3.24
480	31.43	3.14
500	55.19	5.52
500	53.02	5.3

System: biphenyl; phases: Liquid, Gas
Property: Molar enthalpy of vaporization or sublimation, kJ/mol (Liquid); method: Correlation gas chromatography
Temperature, K	Molar enthalpy of vaporization or sublimation, kJ/mol	uncertainty
298	64.95	3.54

System: hexamethylbenzene-d18; phases: Liquid, Gas
Property: Molar enthalpy of vaporization or sublimation, kJ/mol (Liquid); method: Correlation gas chromatography
Temperature, K	Molar enthalpy of vaporization or sublimation, kJ/mol	uncertainty
298	68.23	3.71

System: hexamethylbenzene-d18; phases: Liquid, Gas
Property: Vapor or sublimation pressure, kPa (Liquid); method: Gas chromatography
Temperature, K	Vapor or sublimation pressure, kPa	uncertainty
298.15	0.001774	0.000178
298.15	0.001563	0.000157
300	0.002105	0.000212
300	0.00185	0.000186
320	0.0114	0.00115
320	0.009884	0.000994
340	0.04825	0.00485
340	0.04193	0.00421
360	0.168	0.0169
360	0.1473	0.0148
380	0.5	0.0503
380	0.4428	0.0445
400	1.31	0.132
400	1.169	0.117
420	3.086	0.31
420	2.767	0.278
440	6.654	0.669
440	5.969	0.6
460	13.31	1.34
460	11.9	1.2
480	24.97	2.51
480	22.16	2.23
500	44.33	4.46
500	38.9	3.91

System: hexamethylbenzene; phases: Liquid, Gas
Property: Molar enthalpy of vaporization or sublimation, kJ/mol (Liquid); method: Correlation gas chromatography
Temperature, K	Molar enthalpy of vaporization or sublimation, kJ/mol	uncertainty
298	68.56	3.73

System: hexamethylbenzene; phases: Liquid, Gas
Property: Vapor or sublimation pressure, kPa (Liquid); method: Gas chromatography
Temperature, K	Vapor or sublimation pressure, kPa	uncertainty
298.15	0.001548	0.000156
298.15	0.001347	0.000135
300	0.001834	0.000184
300	0.001596	0.00016
320	0.009927	0.000998
320	0.008625	0.000867
340	0.04255	0.00428
340	0.03695	0.00371
360	0.1506	0.0151
360	0.1309	0.0132
380	0.4545	0.0457
380	0.3965	0.0399
400	1.202	0.121
400	1.054	0.106
420	2.841	0.286
420	2.508	0.252
440	6.108	0.614
440	5.437	0.546
460	12.11	1.22
460	10.89	1.09
480	22.41	2.25
480	20.35	2.05
500	39.04	3.92
500	35.86	3.6

System: phenanthrene-d10; phases: Liquid, Gas
Property: Molar enthalpy of vaporization or sublimation, kJ/mol (Liquid); method: Correlation gas chromatography
Temperature, K	Molar enthalpy of vaporization or sublimation, kJ/mol	uncertainty
298	78.62	4.25

System: phenanthrene-d10; phases: Liquid, Gas
Property: Vapor or sublimation pressure, kPa (Liquid); method: Gas chromatography
Temperature, K	Vapor or sublimation pressure, kPa	uncertainty
298.15	7.589e-05	7.6e-06
298.15	8.111e-05	8.12e-06
300	9.188e-05	9.2e-06
300	9.808e-05	9.82e-06
320	0.0006167	6.17e-05
320	0.0006499	6.5e-05
340	0.003191	0.000319
340	0.003327	0.000333
360	0.01333	0.00133
360	0.01378	0.00138
380	0.04666	0.00467
380	0.04783	0.00478
400	0.1408	0.0141
400	0.1433	0.0143
420	0.3749	0.0375
420	0.3791	0.0379
440	0.8977	0.0898
440	0.9026	0.0903
460	1.963	0.196
460	1.964	0.196
480	3.971	0.397
480	3.953	0.395
500	7.508	0.751
500	7.441	0.744

System: phenanthrene; phases: Liquid, Gas
Property: Molar enthalpy of vaporization or sublimation, kJ/mol (Liquid); method: Correlation gas chromatography
Temperature, K	Molar enthalpy of vaporization or sublimation, kJ/mol	uncertainty
298	78.65	4.25

System: anthracene-d10; phases: Liquid, Gas
Property: Molar enthalpy of vaporization or sublimation, kJ/mol (Liquid); method: Correlation gas chromatography
Temperature, K	Molar enthalpy of vaporization or sublimation, kJ/mol	uncertainty
298	78.4	4.2

System: anthracene-d10; phases: Liquid, Gas
Property: Vapor or sublimation pressure, kPa (Liquid); method: Gas chromatography
Temperature, K	Vapor or sublimation pressure, kPa	uncertainty
298.15	6.825e-05	6.84e-06
300	8.274e-05	8.29e-06
320	0.0005621	5.62e-05
340	0.002938	0.000294
360	0.01237	0.00124
380	0.04356	0.00436
400	0.132	0.0132
420	0.3527	0.0353
440	0.8464	0.0847
460	1.853	0.185
480	3.751	0.375
500	7.09	0.709

System: anthracene; phases: Liquid, Gas
Property: Molar enthalpy of vaporization or sublimation, kJ/mol (Liquid); method: Correlation gas chromatography
Temperature, K	Molar enthalpy of vaporization or sublimation, kJ/mol	uncertainty
298	78.49	4.24

System: anthracene; phases: Liquid, Gas
Property: Vapor or sublimation pressure, kPa (Liquid); method: Gas chromatography
Temperature, K	Vapor or sublimation pressure, kPa	uncertainty
298.15	6.624e-05	6.67e-06
300	8.032e-05	8.08e-06
320	0.0005469	5.5e-05
340	0.002863	0.000288
360	0.01208	0.00121
380	0.04258	0.00428
400	0.1292	0.013
420	0.3455	0.0347
440	0.83	0.0834
460	1.819	0.183
480	3.683	0.37
500	6.967	0.7

System: acenaphthene; phases: Liquid, Gas
Property: Molar enthalpy of vaporization or sublimation, kJ/mol (Liquid); method: Correlation gas chromatography
Temperature, K	Molar enthalpy of vaporization or sublimation, kJ/mol	uncertainty
298	67.98	3.7

System: acenaphthene-d10; phases: Liquid, Gas
Property: Molar enthalpy of vaporization or sublimation, kJ/mol (Liquid); method: Correlation gas chromatography
Temperature, K	Molar enthalpy of vaporization or sublimation, kJ/mol	uncertainty
298	67.21	3.66

System: acenaphthene-d10; phases: Liquid, Gas
Property: Vapor or sublimation pressure, kPa (Liquid); method: Gas chromatography
Temperature, K	Vapor or sublimation pressure, kPa	uncertainty
298.15	0.001922	0.000192
300	0.002256	0.000226
320	0.01116	0.00112
340	0.04454	0.00446
360	0.1489	0.0149
380	0.4295	0.043
400	1.094	0.11
420	2.511	0.251
440	5.272	0.528
460	10.25	1.03
480	18.67	1.87
500	32.1	3.21

System: p-terphenyl; phases: Liquid, Gas
Property: Molar enthalpy of vaporization or sublimation, kJ/mol (Liquid); method: Correlation gas chromatography
Temperature, K	Molar enthalpy of vaporization or sublimation, kJ/mol	uncertainty
298	101.7	5.4

System: p-terphenyl; phases: Liquid, Gas
Property: Vapor or sublimation pressure, kPa (Liquid); method: Gas chromatography
Temperature, K	Vapor or sublimation pressure, kPa	uncertainty
298.15	7.354e-07	8.39e-08
300	9.479e-07	1.052e-07
320	1.175e-05	1.19e-06
340	0.0001018	1.02e-05
360	0.0006561	6.6e-05
380	0.003314	0.000333
400	0.01366	0.00137
420	0.04746	0.00477
440	0.1427	0.0143
460	0.3796	0.0382
480	0.9088	0.0913
500	1.988	0.2

System: 1,1':4',1''-terphenyl-d14; phases: Liquid, Gas
Property: Molar enthalpy of vaporization or sublimation, kJ/mol (Liquid); method: Correlation gas chromatography
Temperature, K	Molar enthalpy of vaporization or sublimation, kJ/mol	uncertainty
298	101.57	5.43

System: 1,1':4',1''-terphenyl-d14; phases: Liquid, Gas
Property: Vapor or sublimation pressure, kPa (Liquid); method: Gas chromatography
Temperature, K	Vapor or sublimation pressure, kPa	uncertainty
298.15	7.636e-07	8.67e-08
300	9.838e-07	1.089e-07
320	1.216e-05	1.23e-06
340	0.000105	1.06e-05
360	0.000675	6.79e-05
380	0.003402	0.000342
400	0.014	0.00141
420	0.04856	0.00488
440	0.1459	0.0147
460	0.3875	0.0389
480	0.9269	0.0932
500	2.026	0.204

System: chrysene; phases: Liquid, Gas
Property: Molar enthalpy of vaporization or sublimation, kJ/mol (Liquid); method: Correlation gas chromatography
Temperature, K	Molar enthalpy of vaporization or sublimation, kJ/mol	uncertainty
298	106.18	5.67

System: chrysene; phases: Liquid, Gas
Property: Vapor or sublimation pressure, kPa (Liquid); method: Gas chromatography
Temperature, K	Vapor or sublimation pressure, kPa	uncertainty
298.15	1.328e-07	2.33e-08
300	1.734e-07	2.74e-08
320	2.442e-06	2.56e-07
340	2.361e-05	2.38e-06
360	0.0001671	1.68e-05
380	0.0009131	9.18e-05
400	0.004017	0.000404
420	0.01473	0.00148
440	0.04629	0.00465
460	0.1276	0.0128
480	0.3142	0.0316
500	0.7027	0.0706

System: chrysene-d12; phases: Liquid, Gas
Property: Molar enthalpy of vaporization or sublimation, kJ/mol (Liquid); method: Correlation gas chromatography
Temperature, K	Molar enthalpy of vaporization or sublimation, kJ/mol	uncertainty
298	106.04	5.66

System: chrysene-d12; phases: Liquid, Gas
Property: Vapor or sublimation pressure, kPa (Liquid); method: Gas chromatography
Temperature, K	Vapor or sublimation pressure, kPa	uncertainty
298.15	1.388e-07	2.39e-08
300	1.811e-07	2.81e-08
320	2.542e-06	2.65e-07
340	2.449e-05	2.46e-06
360	0.0001729	1.73e-05
380	0.0009425	9.44e-05
400	0.004138	0.000414
420	0.01515	0.00152
440	0.04754	0.00476
460	0.1309	0.0131
480	0.3221	0.0323
500	0.7196	0.0721

System: perylene; phases: Liquid, Gas
Property: Molar enthalpy of vaporization or sublimation, kJ/mol (Liquid); method: Correlation gas chromatography
Temperature, K	Molar enthalpy of vaporization or sublimation, kJ/mol	uncertainty
298	119.52	6.36

System: perylene; phases: Liquid, Gas
Property: Vapor or sublimation pressure, kPa (Liquid); method: Gas chromatography
Temperature, K	Vapor or sublimation pressure, kPa	uncertainty
298.15	4.573e-09	1.046e-08
300	6.202e-09	1.062e-08
320	1.274e-07	2.28e-08
340	1.694e-06	1.8e-07
360	1.568e-05	1.59e-06
380	0.0001075	1.08e-05
400	0.0005732	5.76e-05
420	0.002473	0.000249
440	0.008923	0.000897
460	0.02765	0.00278
480	0.07527	0.00756
500	0.1832	0.0184

System: perylene-d12; phases: Liquid, Gas
Property: Molar enthalpy of vaporization or sublimation, kJ/mol (Liquid); method: Correlation gas chromatography
Temperature, K	Molar enthalpy of vaporization or sublimation, kJ/mol	uncertainty
298	119.51	6.36

System: perylene-d12; phases: Liquid, Gas
Property: Vapor or sublimation pressure, kPa (Liquid); method: Gas chromatography
Temperature, K	Vapor or sublimation pressure, kPa	uncertainty
298.15	4.669e-09	1.047e-08
300	6.333e-09	1.063e-08
320	1.302e-07	2.3e-08
340	1.731e-06	1.83e-07
360	1.603e-05	1.62e-06
380	0.0001099	1.1e-05
400	0.0005857	5.87e-05
420	0.002527	0.000253
440	0.009116	0.000913
460	0.02825	0.00283
480	0.07689	0.0077
500	0.1872	0.0187

System: hexane; phases: Liquid, Gas
Property: Molar enthalpy of vaporization or sublimation, kJ/mol (Liquid); method: Correlation gas chromatography
Temperature, K	Molar enthalpy of vaporization or sublimation, kJ/mol	uncertainty
298	31.88	1.85

System: hexane-d14; phases: Liquid, Gas
Property: Molar enthalpy of vaporization or sublimation, kJ/mol (Liquid); method: Correlation gas chromatography
Temperature, K	Molar enthalpy of vaporization or sublimation, kJ/mol	uncertainty
298	31.59	1.84

System: hexane-d14; phases: Liquid, Gas
Property: Vapor or sublimation pressure, kPa (Liquid); method: Gas chromatography
Temperature, K	Vapor or sublimation pressure, kPa	uncertainty
298.15	22.28	2.23
300	24.11	2.41
320	52.8	5.28
340	103.8	10.4
360	187.2	18.7
380	314.5	31.5
400	498.1	49.8
420	751.1	75.1
440	1087	109
460	1517	152
480	2054	205
500	2708	271

System: cyclohexane-d12; phases: Liquid, Gas
Property: Molar enthalpy of vaporization or sublimation, kJ/mol (Liquid); method: Correlation gas chromatography
Temperature, K	Molar enthalpy of vaporization or sublimation, kJ/mol	uncertainty
298	32.58	1.89

System: cyclohexane-d12; phases: Liquid, Gas
Property: Vapor or sublimation pressure, kPa (Liquid); method: Gas chromatography
Temperature, K	Vapor or sublimation pressure, kPa	uncertainty
298.15	13.99	1.4
300	15.19	1.52
320	34.39	3.44
340	69.58	6.96
360	128.3	12.8
380	218.9	21.9
400	350.2	35
420	530.7	53.1
440	767.9	76.8
460	1068	107
480	1436	144
500	1876	188

System: cyclohexane; phases: Liquid, Gas
Property: Molar enthalpy of vaporization or sublimation, kJ/mol (Liquid); method: Correlation gas chromatography
Temperature, K	Molar enthalpy of vaporization or sublimation, kJ/mol	uncertainty
298	32.83	1.9

System: benzene-d6; phases: Liquid, Gas
Property: Molar enthalpy of vaporization or sublimation, kJ/mol (Liquid); method: Correlation gas chromatography
Temperature, K	Molar enthalpy of vaporization or sublimation, kJ/mol	uncertainty
298	33.25	1.92

System: benzene-d6; phases: Liquid, Gas
Property: Vapor or sublimation pressure, kPa (Liquid); method: Gas chromatography
Temperature, K	Vapor or sublimation pressure, kPa	uncertainty
298.15	12.94	1.29
300	14.09	1.41
320	32.84	3.28
340	67.86	6.79
360	126.7	12.7
380	217.2	21.7
400	346.5	34.7
420	519.9	52
440	740.6	74.1
460	1009	101
480	1325	133
500	1683	168

System: benzene; phases: Liquid, Gas
Property: Molar enthalpy of vaporization or sublimation, kJ/mol (Liquid); method: Correlation gas chromatography
Temperature, K	Molar enthalpy of vaporization or sublimation, kJ/mol	uncertainty
298	33.25	1.92

System: o-xylene-d10; phases: Liquid, Gas
Property: Molar enthalpy of vaporization or sublimation, kJ/mol (Liquid); method: Correlation gas chromatography
Temperature, K	Molar enthalpy of vaporization or sublimation, kJ/mol	uncertainty
298	43	2

System: o-xylene-d10; phases: Liquid, Gas
Property: Vapor or sublimation pressure, kPa (Liquid); method: Gas chromatography
Temperature, K	Vapor or sublimation pressure, kPa	uncertainty
298.15	0.9548	0.0955
300	1.065	0.107
320	3.135	0.314
340	7.881	0.788
360	17.51	1.75
380	35.24	3.52
400	65.45	6.55
420	113.7	11.4
440	186.9	18.7
460	293	29.3
480	441.2	44.1
500	641.6	64.2
