Measured thermophysical data. Synthesis, Characterization, and Thermodynamic Study of Barium Benzoate Ba(C7H5O2)2(s)
Source: J. Chem. Eng. Data, 2009, 10.1021/je800876t
Compound 1: barium, Ba, InChI=1S/Ba
Compound 2: hydrogen, H2, InChI=1S/H2/h1H
Compound 3: graphite, C
Compound 4: oxygen, O2, InChI=1S/O2/c1-2
Compound 5: barium benzoate, C14H10BaO4, InChI=1S/2C7H6O2.Ba/c2*8-7(9)6-4-2-1-3-5-6;/h2*1-5H,(H,8,9);/q;;+2/p-2, purity 99%

System: barium benzoate; phases: Crystal
Fixed: Pressure, kPa = 101.325
Property: Molar heat capacity at constant pressure, J/K/mol (Crystal); method: Vacuum adiabatic calorimetry
Temperature, K	Molar heat capacity at constant pressure, J/K/mol	uncertainty
77.78	109.64	0.68
79.5	111.79	0.7
82.08	114.77	0.71
84.57	117.57	0.73
86.98	119.65	0.74
89.39	121.92	0.76
91.65	124.31	0.78
93.86	126.6	0.79
96.1	128.79	0.81
98.25	130.89	0.82
100.3	132.67	0.83
102.4	134.86	0.84
104.4	137.21	0.86
106.5	139.25	0.87
108.3	141.18	0.88
110.3	142.99	0.89
112.2	144.86	0.9
114.1	146.37	0.91
115.9	148.24	0.92
117.8	150.2	0.93
119.6	152.24	0.95
122.4	154.37	0.96
125.9	157.49	0.98
128.8	160.12	0.99
131.6	162.83	1.01
134.5	165.78	1.03
137.4	168.03	1.04
140.3	170.89	1.06
143.1	173.54	1.07
146.1	176.75	1.09
148.9	178.82	1.11
152.8	182.27	1.13
154.7	184.19	1.14
157.6	186.99	1.15
160.4	189.18	1.17
163.4	191.95	1.18
166.3	194.11	1.2
169.1	197.21	1.22
172	199.98	1.23
174.9	202.6	1.25
177.8	204.53	1.26
180.6	207.13	1.28
184.7	211.18	1.3
188.6	214.68	1.32
191.5	216.93	1.33
194.4	219.24	1.35
197.2	221.9	1.36
200.2	224.02	1.38
203.1	226.01	1.39
206	228.46	1.4
208.9	231.14	1.42
211.8	233.77	1.44
214.6	235.99	1.45
217.5	238.64	1.47
220.5	240.68	1.48
223.4	243.49	1.49
226.3	245.79	1.51
229.1	248.3	1.52
232	250.4	1.54
235	253.03	1.55
238	255.71	1.57
242.6	259.3	1.59
245.5	262.07	1.61
248.3	264.47	1.62
251.2	266.71	1.63
254.2	269.22	1.65
257	270.83	1.66
259.8	272.78	1.67
262.7	276.16	1.69
265.6	277.74	1.7
268.6	279.79	1.71
271.6	282.06	1.73
274.5	284.16	1.74
277.5	286.12	1.75
280.4	288.42	1.76
283.3	290.79	1.78
286.3	292.92	1.79
289.2	295.05	1.8
292	297.35	1.82
294.9	299.58	1.83
297.9	301.75	1.84
300.8	303.71	1.86
303.6	305.99	1.87
306.5	308.5	1.89
309.3	310.54	1.9
312.2	312.73	1.91
315.2	314.63	1.92
318.2	316.73	1.94
321.2	318.3	1.94
324.1	320.78	1.96
327	322.91	1.97
330	325.19	1.99
332.9	327.09	2
335.9	329.01	2.01
338.7	330.94	2.02
341.6	333.36	2.04
344.6	335.34	2.05
347.5	337.3	2.06
350.3	339.28	2.07
353.2	340.83	2.08
356.2	342.81	2.09
359	344.74	2.1
361.9	346.43	2.11
364.8	348.25	2.13
367.6	350.41	2.14
370.5	352.35	2.15
373.5	354.08	2.16
376.4	355.62	2.17
379.4	358.05	2.18
382.4	359.77	2.19
385.3	361.34	2.2
388.3	363.44	2.22
390.7	364.99	2.23
393	366.42	2.23
395.9	368.64	2.25
398.9	370.39	2.26
401.9	371.91	2.27

Reaction: 1 barium benzoate + -1 barium + -5 hydrogen + -14 graphite + -2 oxygen
Property: Molar enthalpy of reaction, kJ/mol
-1231.47
