Measured thermophysical data. Solubility and Density of Potassium Iodide in Binary Ethanol-Water Solvent Mixture at (298.15, 303.15, 308.15, and 313.15) K
Source: J. Chem. Eng. Data, 2009, 10.1021/je800682p
Compound 1: potassium iodide, IK, InChI=1S/HI.K/h1H;/q;+1/p-1
Compound 2: ethanol, C2H6O, InChI=1S/C2H6O/c1-2-3/h3H,2H2,1H3
Compound 3: water, H2O, InChI=1S/H2O/h1H2

System: ethanol + potassium iodide + water; phases: Liquid, Crystal
Fixed: Pressure, kPa = 101
Property: Mass ratio of solute to solvent of potassium iodide (Liquid); method: Calculation from weight of solute residue after evaporation and the weight of solution.
Temperature, K	Solvent: Mole fraction of ethanol	Mass ratio of solute to solvent of potassium iodide	uncertainty
298.15	0	1.481	0.002
298.15	0.0417	1.256	0.001
298.15	0.0891	1.049	0.002
298.15	0.1436	0.855	0.001
298.15	0.2069	0.725	0.001
298.15	0.2813	0.565	0.001
298.15	0.3698	0.453	0.001
298.15	0.4772	0.318	0.001
298.15	0.61	0.215	0.001
298.15	0.779	0.094	0.001
298.15	1	0.018	0.001
303.15	0	1.534	0.002
303.15	0.0417	1.296	0.002
303.15	0.0891	1.103	0.002
303.15	0.1436	0.91	0.002
303.15	0.2069	0.755	0.001
303.15	0.2813	0.604	0.001
303.15	0.3698	0.473	0.001
303.15	0.4772	0.342	0.001
303.15	0.61	0.22	0.01
303.15	0.779	0.108	0.001
303.15	1	0.022	0.001
308.15	0	1.58	0.01
308.15	0.0417	1.333	0.002
308.15	0.0891	1.135	0.002
308.15	0.1436	0.954	0.002
308.15	0.2069	0.787	0.001
308.15	0.2813	0.632	0.001
308.15	0.3698	0.493	0.001
308.15	0.4772	0.359	0.001
308.15	0.61	0.245	0.001
308.15	0.779	0.118	0.001
308.15	1	0.016	0.001
313.15	0	1.62	0.01
313.15	0.0417	1.39	0.01
313.15	0.0891	1.2	0.01
313.15	0.1436	0.994	0.002
313.15	0.2069	0.82	0.002
313.15	0.2813	0.66	0.002
313.15	0.3698	0.514	0.001
313.15	0.4772	0.379	0.001
313.15	0.61	0.258	0.001
313.15	0.779	0.128	0.001
313.15	1	0.031	0.001

System: ethanol + potassium iodide + water; phases: Liquid, Crystal
Fixed: Pressure, kPa = 101
Property: Mass density, kg/m3 (Liquid); method: Pycnometric method
Temperature, K	Solvent: Mole fraction of ethanol	Mass density, kg/m3	uncertainty
298.15	0	1716.9	0.8
298.15	0.0417	1616.3	0.6
298.15	0.0891	1515.3	0.6
298.15	0.1436	1422.6	0.5
298.15	0.2069	1326.2	0.4
298.15	0.2813	1239.8	0.4
298.15	0.3698	1147.1	0.3
298.15	0.4772	1057.2	0.4
298.15	0.61	973.5	0.5
298.15	0.779	876.3	0.5
298.15	1	802.1	0.3
303.15	0	1727.1	0.7
303.15	0.0417	1626.8	0.8
303.15	0.0891	1529.7	0.8
303.15	0.1436	1429.8	0.6
303.15	0.2069	1331.5	0.6
303.15	0.2813	1244.4	0.5
303.15	0.3698	1153.4	0.5
303.15	0.4772	1060	0.4
303.15	0.61	983.3	0.6
303.15	0.779	883.2	0.5
303.15	1	798.4	0.4
308.15	0	1733.8	0.6
308.15	0.0417	1638.3	0.7
308.15	0.0891	1538.3	0.7
308.15	0.1436	1439.9	0.9
308.15	0.2069	1342.8	0.8
308.15	0.2813	1250.8	0.6
308.15	0.3698	1160	0.8
308.15	0.4772	1066	0.4
308.15	0.61	990.2	0.5
308.15	0.779	890.4	0.7
308.15	1	792.8	0.3
313.15	0	1740.4	0.6
313.15	0.0417	1643.9	0.7
313.15	0.0891	1547.2	1
313.15	0.1436	1457.5	1.1
313.15	0.2069	1355.7	1.2
313.15	0.2813	1260.3	1.2
313.15	0.3698	1179.5	0.9
313.15	0.4772	1067.8	1.2
313.15	0.61	995	0.4
313.15	0.779	904	0.9
313.15	1	792.8	0.3
