Measured thermophysical data. Solid Vapor Pressure and Enthalpy of Sublimation for Ammonium Perfluorooctanoate
Source: J. Chem. Eng. Data, 2009, 10.1021/je800418m
Compound 1: ammonium perfluorooctanoate, C8H4F15NO2, InChI=1S/C8HF15O2.H3N/c9-2(10,1(24)25)3(11,12)4(13,14)5(15,16)6(17,18)7(19,20)8(21,22)23;/h(H,24,25);1H3

System: ammonium perfluorooctanoate; phases: Crystal, Gas
Property: Vapor or sublimation pressure, kPa (Crystal); method: TRANSPIR:UFactor:8
Temperature, K	Vapor or sublimation pressure, kPa	uncertainty
318.35	3e-05	1e-05
318.45	2e-05	1e-05
318.55	3e-05	1e-05
318.55	5e-05	2e-05
318.65	7e-05	3e-05
318.65	1e-05	1e-05
318.65	6e-05	3e-05
318.65	4e-05	2e-05
318.65	2e-05	1e-05
318.75	1e-05	1e-05
318.85	7e-05	3e-05
328.25	7e-05	3e-05
328.35	6e-05	3e-05
328.45	6e-05	3e-05
328.65	9e-05	4e-05
328.65	0.00019	8e-05
328.75	4e-05	2e-05
328.75	9e-05	4e-05
328.75	6e-05	3e-05
328.85	0.00014	6e-05
328.85	6e-05	3e-05
328.85	0.00011	5e-05
333.15	9e-05	4e-05
333.35	0.00023	9e-05
333.55	0.00026	0.00011
333.55	0.0001	4e-05
333.55	4e-05	2e-05
333.55	0.0002	8e-05
333.55	0.00038	0.00015
333.65	9e-05	4e-05
333.65	0.00013	5e-05
333.65	0.00021	9e-05
333.65	0.0001	4e-05
333.75	0.00021	9e-05
