Measured thermophysical data. Solubilities of 1-Ethylpyridinium Hexafluorophosphate in Ethanol + Water from (278.15 to 345.15) K
Source: J. Chem. Eng. Data, 2009, 10.1021/je800618x
Compound 1: 1-ethylpyridinium hexafluorophosphate, C7H10F6NP, InChI=1S/C7H10N.F6P/c1-2-8-6-4-3-5-7-8;1-7(2,3,4,5)6/h3-7H,2H2,1H3;/q+1;-1, purity 99%
Compound 2: ethanol, C2H6O, InChI=1S/C2H6O/c1-2-3/h3H,2H2,1H3, purity 99%
Compound 3: water, H2O, InChI=1S/H2O/h1H2

System: 1-ethylpyridinium hexafluorophosphate; phases: Crystal, Liquid, Air at 1 atmosphere
Property: Normal melting temperature, K (Crystal); method: DTA
Normal melting temperature, K	uncertainty
376.35	0.41

System: ethanol + water + 1-ethylpyridinium hexafluorophosphate; phases: Liquid, Crystal
Fixed: Pressure, kPa = 101
Property: Mole fraction of 1-ethylpyridinium hexafluorophosphate (Liquid); method: laser monitoring observation
Solvent: Mass fraction of water	Temperature, K	Mole fraction of 1-ethylpyridinium hexafluorophosphate	uncertainty
0	278.15	8.4e-05	5e-06
0	283.15	0.000121	8e-06
0	288.15	0.000171	1e-05
0	293.15	0.000224	1.4e-05
0	298.15	0.000324	2.1e-05
0	303.15	0.000561	3.4e-05
0	308.15	0.00061	3.6e-05
0	313.15	0.000718	4.3e-05
0	318.15	0.000976	6.2e-05
0	323.15	0.001497	9.2e-05
0	328.15	0.001891	0.000115
0	333.15	0.002519	0.000152
0	338.15	0.003076	0.000185
0	343.15	0.003894	0.000233
0.1	278.15	0.001645	0.000102
0.1	283.15	0.002001	0.000119
0.1	288.15	0.002404	0.000143
0.1	293.15	0.002883	0.000171
0.1	298.15	0.003348	0.000199
0.1	303.15	0.003891	0.00023
0.1	308.15	0.00443	0.000262
0.1	313.15	0.005109	0.000302
0.1	318.15	0.00583	0.000345
0.1	323.15	0.006673	0.000394
0.1	328.15	0.007351	0.000433
0.1	333.15	0.008011	0.000472
0.1	338.15	0.008891	0.000524
0.1	343.15	0.009633	0.000566
0.2	278.15	0.00254	0.000157
0.2	283.15	0.003025	0.00018
0.2	288.15	0.003562	0.000211
0.2	293.15	0.004134	0.000245
0.2	298.15	0.004808	0.000284
0.2	303.15	0.005409	0.00032
0.2	308.15	0.00623	0.000368
0.2	313.15	0.006811	0.000402
0.2	318.15	0.007639	0.000451
0.2	323.15	0.008488	0.0005
0.2	328.15	0.009343	0.00055
0.2	333.15	0.01002	0.000589
0.2	338.15	0.010862	0.000639
0.2	343.15	0.011647	0.000683
0.3	278.15	0.002414	0.000145
0.3	283.15	0.002932	0.000175
0.3	288.15	0.003507	0.000209
0.3	293.15	0.004162	0.000247
0.3	298.15	0.004843	0.000287
0.3	303.15	0.00551	0.000326
0.3	308.15	0.006252	0.00037
0.3	313.15	0.007085	0.000419
0.3	318.15	0.007946	0.000469
0.3	323.15	0.008831	0.000521
0.3	328.15	0.009705	0.000571
0.3	333.15	0.010473	0.000616
0.3	338.15	0.01121	0.000659
0.3	343.15	0.011923	0.000701
0.4	278.15	0.002352	0.000142
0.4	283.15	0.002901	0.000174
0.4	288.15	0.003516	0.00021
0.4	293.15	0.004213	0.00025
0.4	298.15	0.004913	0.000291
0.4	303.15	0.005553	0.00033
0.4	308.15	0.006698	0.000397
0.4	313.15	0.007387	0.000436
0.4	318.15	0.008211	0.000484
0.4	323.15	0.008986	0.000529
0.4	328.15	0.009846	0.000579
0.4	333.15	0.010498	0.000618
0.4	338.15	0.011523	0.000678
0.4	343.15	0.012077	0.000709
0.5	278.15	0.002139	0.000129
0.5	283.15	0.002568	0.000153
0.5	288.15	0.003043	0.000181
0.5	293.15	0.003523	0.000209
0.5	298.15	0.004152	0.000246
0.5	303.15	0.004742	0.00028
0.5	308.15	0.005381	0.000318
0.5	313.15	0.006007	0.000354
0.5	318.15	0.006702	0.000395
0.5	323.15	0.007381	0.000435
0.5	328.15	0.008032	0.000473
0.5	333.15	0.008728	0.000513
0.5	338.15	0.009374	0.000552
0.5	343.15	0.010299	0.000606
0.6	278.15	0.001628	9.7e-05
0.6	283.15	0.001964	0.000117
0.6	288.15	0.002338	0.000139
0.6	293.15	0.002736	0.000162
0.6	298.15	0.003211	0.00019
0.6	303.15	0.003705	0.000219
0.6	308.15	0.004162	0.000246
0.6	313.15	0.004673	0.000276
0.6	318.15	0.005224	0.000308
0.6	323.15	0.005804	0.000342
0.6	328.15	0.006427	0.000378
0.6	333.15	0.006959	0.000409
0.6	338.15	0.007511	0.000442
0.6	343.15	0.008024	0.000475
0.7	278.15	0.001204	7.2e-05
0.7	283.15	0.001477	8.8e-05
0.7	288.15	0.001789	0.000107
0.7	293.15	0.002109	0.000126
0.7	298.15	0.002544	0.000151
0.7	303.15	0.002991	0.000177
0.7	308.15	0.003435	0.000203
0.7	313.15	0.003942	0.000233
0.7	318.15	0.004436	0.000262
0.7	323.15	0.004947	0.000292
0.7	328.15	0.005506	0.000325
0.7	333.15	0.006141	0.000362
0.7	338.15	0.006866	0.000404
0.7	343.15	0.00742	0.000436
0.8	278.15	0.000981	5.9e-05
0.8	283.15	0.001208	7.2e-05
0.8	288.15	0.001439	8.6e-05
0.8	293.15	0.001741	0.000103
0.8	298.15	0.001932	0.000115
0.8	303.15	0.00234	0.000139
0.8	308.15	0.002747	0.000163
0.8	313.15	0.003245	0.000193
0.8	318.15	0.003741	0.000222
0.8	323.15	0.004298	0.000254
0.8	328.15	0.004857	0.000287
0.8	333.15	0.005345	0.000315
0.8	338.15	0.005916	0.000348
0.8	343.15	0.006434	0.00038
0.9	278.15	0.000862	5.3e-05
0.9	283.15	0.001035	6.2e-05
0.9	288.15	0.001235	7.3e-05
0.9	293.15	0.001453	8.7e-05
0.9	298.15	0.001752	0.000104
0.9	303.15	0.002036	0.000121
0.9	308.15	0.00233	0.000138
0.9	313.15	0.002737	0.000162
0.9	318.15	0.003168	0.000188
0.9	323.15	0.003646	0.000216
0.9	328.15	0.004157	0.000246
0.9	333.15	0.004735	0.00028
0.9	338.15	0.00537	0.000317
0.9	343.15	0.006079	0.000358
1	278.15	0.000474	2.8e-05
1	283.15	0.000581	3.5e-05
1	288.15	0.000711	4.2e-05
1	293.15	0.000857	5.1e-05
1	298.15	0.001051	6.3e-05
1	303.15	0.001301	7.8e-05
1	308.15	0.001588	9.5e-05
1	313.15	0.001861	0.00011
1	318.15	0.002162	0.000129
1	323.15	0.002603	0.000156
1	328.15	0.003247	0.000194
1	333.15	0.003866	0.00023
1	338.15	0.004541	0.00027
1	343.15	0.005352	0.000317
