Measured thermophysical data. Heat Capacities of Tetracene and Pentacene
Source: J. Chem. Eng. Data, 2008, 10.1021/je800382b
Compound 1: 2,3-benzanthracene, C18H12, InChI=1S/C18H12/c1-2-6-14-10-18-12-16-8-4-3-7-15(16)11-17(18)9-13(14)5-1/h1-12H
Compound 2: 2,3:6,7-dibenzanthracene, C22H14, InChI=1S/C22H14/c1-2-6-16-10-20-14-22-12-18-8-4-3-7-17(18)11-21(22)13-19(20)9-15(16)5-1/h1-14H

System: 2,3-benzanthracene; phases: Crystal 1, Liquid, Air at 1 atmosphere
Property: Molar enthalpy of transition or fusion, kJ/mol (Crystal 1); method: DSC
Molar enthalpy of transition or fusion, kJ/mol	uncertainty
36.8	1.1

System: 2,3-benzanthracene; phases: Crystal 2, Crystal 1, Air at 1 atmosphere
Property: Molar enthalpy of transition or fusion, kJ/mol (Crystal 2); method: DSC
Molar enthalpy of transition or fusion, kJ/mol	uncertainty
1.2	0.2

System: 2,3-benzanthracene; phases: Crystal 3, Crystal 2, Air at 1 atmosphere
Property: Molar enthalpy of transition or fusion, kJ/mol (Crystal 3); method: DSC
Molar enthalpy of transition or fusion, kJ/mol	uncertainty
0.11	0.13

System: 2,3-benzanthracene; phases: Crystal 2, Crystal 1, Air at 1 atmosphere
Property: Triple point temperature, K (Crystal 2); method: DTA
Triple point temperature, K	uncertainty
581.9	1.1

System: 2,3-benzanthracene; phases: Crystal 3, Crystal 2, Air at 1 atmosphere
Property: Triple point temperature, K (Crystal 3); method: DTA
Triple point temperature, K	uncertainty
398.1	2.4

System: 2,3-benzanthracene; phases: Crystal 1, Liquid, Air at 1 atmosphere
Property: Normal melting temperature, K (Crystal 1); method: DTA
Normal melting temperature, K	uncertainty
626.2	0.4

System: 2,3-benzanthracene; phases: Crystal 3
Fixed: Pressure, kPa = 101.325
Property: Molar heat capacity at constant pressure, J/K/mol (Crystal 3); method: Small sample (50 mg) DSC
Temperature, K	Molar heat capacity at constant pressure, J/K/mol	uncertainty
258.1	218.8	5.4
258.1	220.8	5.4
258.1	220.8	5.4
258.1	219.3	5.4
268.3	231.3	5.7
268.3	230.4	5.6
268.3	230	5.6
268.3	230.5	5.6
278.5	240.9	5.9
278.5	240.3	5.9
278.5	240.6	5.9
278.5	239.9	5.9
288.7	250.6	6.1
288.7	250.4	6.1
288.7	250.2	6.1
288.7	249.7	6.1
298.9	261	6.4
298.9	260.8	6.4
298.9	260.5	6.4
298.9	259.7	6.4
309.1	269.7	6.6
309.1	269	6.6
309.1	269.8	6.6
309.1	269.5	6.6
319.4	277.1	6.8
319.4	277.8	6.8
319.4	278.1	6.8
319.4	278	6.8
329.6	286.5	7
329.6	287.2	7
329.6	287.1	7
329.6	287	7
339.8	296.6	7.3
339.8	295.5	7.2
339.8	295.4	7.2
339.8	296.6	7.3
350	304.4	7.5
350	304.2	7.5
350	302.9	7.4
350	304.1	7.4

System: 2,3-benzanthracene; phases: Crystal 3
Fixed: Pressure, kPa = 101.325
Property: Molar heat capacity at constant pressure, J/K/mol (Crystal 3); method: Small sample (50 mg) DSC
Temperature, K	Molar heat capacity at constant pressure, J/K/mol	uncertainty
299.3	260.9	11.1
309.3	270.1	11.5
319.2	280.1	11.9
329.1	286.4	12.2
339.1	295.8	12.5
349	307.1	13
349	303.7	12.9
359	312.4	13.3
359	314.7	13.4
368.9	319.7	13.6
368.9	324.2	13.8
378.9	330.2	14
378.9	332.5	14.1
388.8	341.4	14.5

System: 2,3-benzanthracene; phases: Crystal 2
Fixed: Pressure, kPa = 101.325
Property: Molar heat capacity at constant pressure, J/K/mol (Crystal 2); method: Small sample (50 mg) DSC
Temperature, K	Molar heat capacity at constant pressure, J/K/mol	uncertainty
408.7	357.6	15.2
418.6	364.9	15.5
418.6	365.7	15.5
428.6	378.1	16
428.6	378.1	16
438.5	381.3	16.2
438.5	383.5	16.3
448.5	391.9	16.6
448.5	392.5	16.7
458.4	403	17.1
458.4	403	17.1
468.4	409.4	17.4
468.4	411.7	17.5
478.3	417.9	17.7
488.2	426.2	18.1
498.2	438.5	18.6
508.1	444.3	18.9
518.1	454.5	19.3
528	459.9	19.5
538	474.1	20.1
547.9	479.3	20.3
557.8	493.4	20.9

System: 2,3-benzanthracene; phases: Liquid
Fixed: Pressure, kPa = 101.325
Property: Molar heat capacity at constant pressure, J/K/mol (Liquid); method: Small sample (50 mg) DSC
Temperature, K	Molar heat capacity at constant pressure, J/K/mol	uncertainty
647.32	505.18	31.14
657.27	509.31	31.4
667.21	513.42	31.65

System: 2,3:6,7-dibenzanthracene; phases: Crystal
Fixed: Pressure, kPa = 101.325
Property: Molar heat capacity at constant pressure, J/K/mol (Crystal); method: Small sample (50 mg) DSC
Temperature, K	Molar heat capacity at constant pressure, J/K/mol	uncertainty
258.1	264.5	6.5
258.1	265.5	6.5
258.1	267.2	6.5
268.3	275.7	6.8
268.3	277.2	6.8
268.3	277.1	6.8
278.5	288.9	7.1
278.5	287.1	7
278.5	287.5	7
288.7	299.7	7.3
288.7	299.7	7.3
288.7	299.2	7.3
298.9	311.6	7.6
298.9	311.5	7.6
298.9	311	7.6
309.1	322.1	7.9
309.1	322.4	7.9
309.1	322.3	7.9
319.4	332.5	8.1
319.4	333.2	8.2
319.4	332.1	8.1
329.6	345.7	8.5
329.6	346.5	8.5
329.6	344.5	8.4
339.8	356.2	8.7
339.8	354.9	8.7
339.8	355.1	8.7
350	365.5	9
350	367.2	9
350	366	9

System: 2,3:6,7-dibenzanthracene; phases: Crystal
Fixed: Pressure, kPa = 101.325
Property: Molar heat capacity at constant pressure, J/K/mol (Crystal); method: Small sample (50 mg) DSC
Temperature, K	Molar heat capacity at constant pressure, J/K/mol	uncertainty
309.2	324.4	13.8
319.2	338.9	14.4
359	384.6	16.3
368.9	394.9	16.8
378.9	406	17.2
388.8	411.4	17.5
398.7	427.1	18.1
408.7	425.7	18.1
418.6	436.8	18.5
428.6	450.1	19.1
438.5	457.6	19.4
448.5	466.7	19.8
458.4	476.5	20.2
468.3	481.6	20.4
478.3	497.2	21.1
488.2	501.9	21.3
498.2	509.1	21.6
508.1	518.2	22
518.1	527.8	22.4
528	529.1	22.4
537.9	549.1	23.3
547.9	552.3	23.4
557.8	558.6	23.7
567.8	566.7	24
577.7	575.7	24.4
587.7	578.8	24.6
597.6	592.5	25.1
