Measured thermophysical data. Density and Viscosity of Anhydrous Mixtures of Dimethylsulfoxide with Acetonitrile in the Range (298.15 to 318.15) K
Source: J. Chem. Eng. Data, 2009, 10.1021/je8001909
Compound 1: dimethyl sulfoxide, C2H6OS, InChI=1S/C2H6OS/c1-4(2)3/h1-2H3, purity 99.9%
Compound 2: acetonitrile, C2H3N, InChI=1S/C2H3N/c1-2-3/h1H3, purity 99.9%
Compound 3: water, H2O, InChI=1S/H2O/h1H2, purity 99%

System: dimethyl sulfoxide; phases: Liquid
Fixed: Pressure, kPa = 101
Property: Viscosity, Pa*s (Liquid); method: CAPTUB:UFactor:2
Temperature, K	Viscosity, Pa*s	uncertainty
298.15	0.001996	3.03e-05
303.15	0.0018357	2.82e-05
308.15	0.0016689	2.59e-05
313.15	0.0015351	2.4e-05
318.15	0.0013935	2.21e-05

System: dimethyl sulfoxide; phases: Liquid
Fixed: Pressure, kPa = 101
Property: Mass density, kg/m3 (Liquid); method: VIBTUB:UFactor:2
Temperature, K	Mass density, kg/m3	uncertainty
298.15	1096.29	0.19
303.15	1091.44	0.18
308.15	1086.41	0.18
313.15	1081.59	0.17
318.15	1076.46	0.17

System: acetonitrile; phases: Liquid
Fixed: Pressure, kPa = 101
Property: Viscosity, Pa*s (Liquid); method: CAPTUB:UFactor:2
Temperature, K	Viscosity, Pa*s	uncertainty
298.15	0.0003417	6.8e-06
303.15	0.000328	6.6e-06
308.15	0.0003129	6.4e-06
313.15	0.0003009	6.2e-06
318.15	0.0002899	6.1e-06

System: acetonitrile; phases: Liquid
Fixed: Pressure, kPa = 101
Property: Mass density, kg/m3 (Liquid); method: VIBTUB:UFactor:2
Temperature, K	Mass density, kg/m3	uncertainty
298.15	776.69	0.31
303.15	771.89	0.32
308.15	765.46	0.32
313.15	760.86	0.33
318.15	754.76	0.33

System: dimethyl sulfoxide + acetonitrile; phases: Liquid
Fixed: Pressure, kPa = 101
Property: Viscosity, Pa*s (Liquid); method: CAPTUB:UFactor:2
Mole fraction of acetonitrile	Temperature, K	Viscosity, Pa*s	uncertainty
0	298.15	0.001996	3.03e-05
0	303.15	0.0018357	2.82e-05
0	308.15	0.0016689	2.59e-05
0	313.15	0.0015351	2.4e-05
0	318.15	0.0013935	2.21e-05
0.0249	298.15	0.0019111	2.91e-05
0.0249	303.15	0.001762	2.71e-05
0.0249	308.15	0.0016101	2.5e-05
0.0249	313.15	0.0014836	2.32e-05
0.0249	318.15	0.0013477	2.14e-05
0.0518	298.15	0.0018244	2.79e-05
0.0518	303.15	0.0016835	2.6e-05
0.0518	308.15	0.0015439	2.4e-05
0.0518	313.15	0.0014245	2.24e-05
0.0518	318.15	0.0012947	2.07e-05
0.0759	298.15	0.0017503	2.68e-05
0.0759	303.15	0.0016169	2.5e-05
0.0759	308.15	0.0014847	2.32e-05
0.0759	313.15	0.0013707	2.16e-05
0.0759	318.15	0.0012465	2e-05
0.1079	298.15	0.0016581	2.55e-05
0.1079	303.15	0.0015313	2.38e-05
0.1079	308.15	0.0014053	2.2e-05
0.1079	313.15	0.0012982	2.06e-05
0.1079	318.15	0.0011801	1.9e-05
0.157	298.15	0.0015269	2.37e-05
0.157	303.15	0.001406	2.21e-05
0.157	308.15	0.0012901	2.04e-05
0.157	313.15	0.0011894	1.9e-05
0.157	318.15	0.0010823	1.76e-05
0.1998	298.15	0.0014221	2.23e-05
0.1998	303.15	0.0013061	2.07e-05
0.1998	308.15	0.0011938	1.91e-05
0.1998	313.15	0.0010981	1.77e-05
0.1998	318.15	0.0010004	1.64e-05
0.2609	298.15	0.0012812	2.03e-05
0.2609	303.15	0.0011712	1.88e-05
0.2609	308.15	0.0010659	1.73e-05
0.2609	313.15	0.0009759	1.6e-05
0.2609	318.15	0.0008875	1.48e-05
0.3034	298.15	0.0011885	1.9e-05
0.3034	303.15	0.0010854	1.76e-05
0.3034	308.15	0.0009838	1.62e-05
0.3034	313.15	0.000898	1.49e-05
0.3034	318.15	0.0008161	1.38e-05
0.3548	298.15	0.0010824	1.75e-05
0.3548	303.15	0.0009867	1.62e-05
0.3548	308.15	0.0008905	1.49e-05
0.3548	313.15	0.0008098	1.37e-05
0.3548	318.15	0.0007348	1.26e-05
0.411	298.15	0.0009742	1.6e-05
0.411	303.15	0.0008848	1.48e-05
0.411	308.15	0.0007978	1.35e-05
0.411	313.15	0.0007219	1.24e-05
0.411	318.15	0.0006547	1.14e-05
0.4696	298.15	0.0008699	1.45e-05
0.4696	303.15	0.0007875	1.34e-05
0.4696	308.15	0.0007092	1.23e-05
0.4696	313.15	0.0006398	1.13e-05
0.4696	318.15	0.0005794	1.04e-05
0.5084	298.15	0.0008053	1.36e-05
0.5084	303.15	0.0007285	1.25e-05
0.5084	308.15	0.0006554	1.15e-05
0.5084	313.15	0.000591	1.05e-05
0.5084	318.15	0.0005348	9.7e-06
0.5566	298.15	0.0007292	1.25e-05
0.5566	303.15	0.0006595	1.15e-05
0.5566	308.15	0.0005949	1.06e-05
0.5566	313.15	0.0005366	9.7e-06
0.5566	318.15	0.0004864	9e-06
0.6053	298.15	0.0006586	1.15e-05
0.6053	303.15	0.0005945	1.06e-05
0.6053	308.15	0.0005379	9.8e-06
0.6053	313.15	0.0004862	9e-06
0.6053	318.15	0.0004403	8.3e-06
0.6666	298.15	0.0005821	1.04e-05
0.6666	303.15	0.0005266	9.6e-06
0.6666	308.15	0.0004786	8.9e-06
0.6666	313.15	0.000435	8.2e-06
0.6666	318.15	0.0003971	7.7e-06
0.7114	298.15	0.0005345	9.7e-06
0.7114	303.15	0.0004841	9e-06
0.7114	308.15	0.0004428	8.3e-06
0.7114	313.15	0.0004044	7.8e-06
0.7114	318.15	0.00037	7.3e-06
0.7688	298.15	0.0004819	8.9e-06
0.7688	303.15	0.0004392	8.3e-06
0.7688	308.15	0.0004048	7.8e-06
0.7688	313.15	0.0003727	7.3e-06
0.7688	318.15	0.0003423	6.9e-06
0.8081	298.15	0.0004514	8.5e-06
0.8081	303.15	0.0004129	7.9e-06
0.8081	308.15	0.0003833	7.4e-06
0.8081	313.15	0.0003554	7.1e-06
0.8081	318.15	0.0003298	6.7e-06
0.851	298.15	0.0004225	8e-06
0.851	303.15	0.0003905	7.5e-06
0.851	308.15	0.0003645	7.2e-06
0.851	313.15	0.0003396	6.8e-06
0.851	318.15	0.0003178	6.5e-06
0.9009	298.15	0.0003934	7.6e-06
0.9009	303.15	0.000368	7.2e-06
0.9009	308.15	0.0003459	6.9e-06
0.9009	313.15	0.0003257	6.6e-06
0.9009	318.15	0.0003062	6.3e-06
0.9502	298.15	0.0003658	7.2e-06
0.9502	303.15	0.0003478	6.9e-06
0.9502	308.15	0.0003285	6.6e-06
0.9502	313.15	0.0003119	6.4e-06
0.9502	318.15	0.0002967	6.2e-06
0.9771	298.15	0.0003517	6.9e-06
0.9771	303.15	0.0003363	6.7e-06
0.9771	308.15	0.0003194	6.5e-06
0.9771	313.15	0.000305	6.3e-06
0.9771	318.15	0.0002927	6.1e-06
1	298.15	0.0003417	6.8e-06
1	303.15	0.000328	6.6e-06
1	308.15	0.0003129	6.4e-06
1	313.15	0.0003009	6.2e-06
1	318.15	0.0002899	6.1e-06

System: dimethyl sulfoxide + acetonitrile; phases: Liquid
Fixed: Pressure, kPa = 101
Property: Mass density, kg/m3 (Liquid); method: VIBTUB:UFactor:2
Mole fraction of acetonitrile	Temperature, K	Mass density, kg/m3	uncertainty
0	298.15	1096.29	0.19
0.0249	298.15	1089.25	0.18
0.0518	298.15	1081.72	0.17
0.0759	298.15	1075.14	0.17
0.1079	298.15	1066.34	0.16
0.157	298.15	1052.66	0.15
0.1998	298.15	1040.65	0.14
0.2609	298.15	1023.27	0.14
0.3034	298.15	1010.97	0.14
0.3548	298.15	995.86	0.14
0.411	298.15	978.94	0.17
0.4696	298.15	960.84	0.19
0.5084	298.15	948.58	0.21
0.5566	298.15	933.09	0.21
0.6053	298.15	917.12	0.22
0.6666	298.15	896.67	0.22
0.7114	298.15	881.56	0.23
0.7688	298.15	862.03	0.24
0.8081	298.15	848.47	0.25
0.851	298.15	833.49	0.26
0.9009	298.15	815.55	0.27
0.9502	298.15	797.01	0.29
0.9771	298.15	786.22	0.3
1	298.15	776.69	0.31
0	303.15	1091.44	0.18
0.0249	303.15	1084.41	0.17
0.0518	303.15	1076.88	0.17
0.0759	303.15	1070.33	0.16
0.1079	303.15	1061.51	0.15
0.157	303.15	1047.83	0.15
0.1998	303.15	1035.83	0.14
0.2609	303.15	1018.44	0.13
0.3034	303.15	1006.18	0.13
0.3548	303.15	991.06	0.15
0.411	303.15	974.15	0.17
0.4696	303.15	956.06	0.2
0.5084	303.15	943.78	0.21
0.5566	303.15	928.29	0.22
0.6053	303.15	912.34	0.22
0.6666	303.15	891.91	0.23
0.7114	303.15	876.87	0.23
0.7688	303.15	857.32	0.24
0.8081	303.15	843.81	0.25
0.851	303.15	828.78	0.26
0.9009	303.15	810.84	0.28
0.9502	303.15	792.31	0.3
0.9771	303.15	781.49	0.31
1	303.15	771.89	0.32
0	308.15	1086.41	0.18
0.0249	308.15	1079.37	0.17
0.0518	308.15	1071.78	0.16
0.0759	308.15	1065.2	0.16
0.1079	308.15	1056.33	0.15
0.157	308.15	1042.6	0.14
0.1998	308.15	1030.53	0.14
0.2609	308.15	1013.06	0.13
0.3034	308.15	1000.71	0.13
0.3548	308.15	985.53	0.15
0.411	308.15	968.53	0.18
0.4696	308.15	950.36	0.2
0.5084	308.15	938.05	0.22
0.5566	308.15	922.51	0.22
0.6053	308.15	906.49	0.23
0.6666	308.15	886.05	0.23
0.7114	308.15	870.94	0.24
0.7688	308.15	851.38	0.25
0.8081	308.15	837.89	0.26
0.851	308.15	822.79	0.27
0.9009	308.15	804.79	0.29
0.9502	308.15	786.06	0.3
0.9771	308.15	775.12	0.31
1	308.15	765.46	0.32
0	313.15	1081.59	0.17
0.0249	313.15	1074.57	0.16
0.0518	313.15	1066.98	0.16
0.0759	313.15	1060.43	0.15
0.1079	313.15	1051.61	0.15
0.157	313.15	1037.81	0.14
0.1998	313.15	1025.77	0.13
0.2609	313.15	1008.31	0.13
0.3034	313.15	995.97	0.13
0.3548	313.15	980.82	0.15
0.411	313.15	963.81	0.18
0.4696	313.15	945.65	0.21
0.5084	313.15	933.36	0.22
0.5566	313.15	917.82	0.22
0.6053	313.15	901.86	0.23
0.6666	313.15	881.45	0.24
0.7114	313.15	866.39	0.24
0.7688	313.15	846.81	0.25
0.8081	313.15	833.37	0.26
0.851	313.15	818.29	0.27
0.9009	313.15	800.34	0.29
0.9502	313.15	781.54	0.31
0.9771	313.15	770.53	0.32
1	313.15	760.86	0.33
0	318.15	1076.46	0.17
0.0249	318.15	1069.43	0.16
0.0518	318.15	1061.81	0.15
0.0759	318.15	1055.25	0.15
0.1079	318.15	1046.39	0.14
0.157	318.15	1032.57	0.13
0.1998	318.15	1020.45	0.13
0.2609	318.15	1002.91	0.13
0.3034	318.15	990.54	0.14
0.3548	318.15	975.32	0.16
0.411	318.15	958.25	0.19
0.4696	318.15	940.03	0.21
0.5084	318.15	927.72	0.23
0.5566	318.15	912.19	0.23
0.6053	318.15	896.19	0.23
0.6666	318.15	875.79	0.24
0.7114	318.15	860.68	0.25
0.7688	318.15	841.15	0.26
0.8081	318.15	827.59	0.27
0.851	318.15	812.61	0.28
0.9009	318.15	794.64	0.3
0.9502	318.15	775.55	0.31
0.9771	318.15	764.46	0.32
1	318.15	754.76	0.33

System: dimethyl sulfoxide + acetonitrile + water; phases: Liquid
Fixed: Pressure, kPa = 101
Property: Mass density, kg/m3 (Liquid); method: VIBTUB:UFactor:2
Mole fraction of dimethyl sulfoxide	Mole fraction of acetonitrile	Temperature, K	Mass density, kg/m3	uncertainty
0.0224	0.9547	298.15	797.99	0.29
0.0224	0.9547	303.15	794.16	0.29
0.0224	0.9547	308.15	788.91	0.3
0.0224	0.9547	313.15	785.77	0.3
0.0224	0.9547	318.15	781.38	0.31
0.0226	0.9633	298.15	793.49	0.29
0.0226	0.9633	303.15	789.32	0.3
0.0226	0.9633	308.15	783.69	0.3
0.0226	0.9633	313.15	779.91	0.31
0.0226	0.9633	318.15	774.93	0.31
0.0227	0.9685	298.15	790.73	0.3
0.0227	0.9685	303.15	786.33	0.3
0.0227	0.9685	308.15	780.47	0.31
0.0227	0.9685	313.15	776.4	0.31
0.0227	0.9685	318.15	770.98	0.32
0.0228	0.9727	298.15	788.55	0.3
0.0228	0.9727	303.15	783.95	0.3
0.0228	0.9727	308.15	777.81	0.31
0.0228	0.9727	313.15	773.49	0.31
0.0228	0.9727	318.15	767.8	0.32
0.0229	0.9761	298.15	786.73	0.3
0.0229	0.9761	303.15	782.07	0.31
0.0229	0.9761	308.15	775.7	0.31
0.0229	0.9761	313.15	771.22	0.32
0.0229	0.9761	318.15	765.18	0.32
0.0487	0.9282	298.15	808.54	0.28
0.0487	0.9282	303.15	804.64	0.28
0.0487	0.9282	308.15	799.87	0.29
0.0487	0.9282	313.15	796.74	0.29
0.0487	0.9282	318.15	792.45	0.3
0.0491	0.9369	298.15	804.05	0.28
0.0491	0.9369	303.15	799.84	0.29
0.0491	0.9369	308.15	794.46	0.3
0.0491	0.9369	313.15	790.75	0.3
0.0491	0.9369	318.15	785.81	0.31
0.0494	0.9416	298.15	801.53	0.29
0.0494	0.9416	303.15	797.16	0.29
0.0494	0.9416	308.15	791.41	0.3
0.0494	0.9416	313.15	787.47	0.3
0.0494	0.9416	318.15	782.12	0.31
0.0496	0.9456	298.15	799.42	0.29
0.0496	0.9456	303.15	794.85	0.29
0.0496	0.9456	308.15	788.89	0.3
0.0496	0.9456	313.15	784.66	0.31
0.0496	0.9456	318.15	779.08	0.31
0.0498	0.9492	298.15	797.49	0.29
0.0498	0.9492	303.15	792.83	0.3
0.0498	0.9492	308.15	786.69	0.3
0.0498	0.9492	313.15	782.23	0.31
0.0498	0.9492	318.15	776.26	0.32
0.0967	0.8795	298.15	827.23	0.27
0.0967	0.8795	303.15	823.32	0.27
0.0967	0.8795	308.15	818.47	0.28
0.0967	0.8795	313.15	815.67	0.28
0.0967	0.8795	318.15	811.87	0.29
0.0977	0.8879	298.15	822.62	0.27
0.0977	0.8879	303.15	818.41	0.28
0.0977	0.8879	308.15	813.11	0.28
0.0977	0.8879	313.15	809.68	0.29
0.0977	0.8879	318.15	805.11	0.3
0.0982	0.8928	298.15	820.01	0.27
0.0982	0.8928	303.15	815.57	0.28
0.0982	0.8928	308.15	809.96	0.29
0.0982	0.8928	313.15	806.22	0.29
0.0982	0.8928	318.15	801.21	0.3
0.0986	0.8967	298.15	817.82	0.27
0.0986	0.8967	303.15	813.29	0.28
0.0986	0.8967	308.15	807.53	0.29
0.0986	0.8967	313.15	803.34	0.29
0.0986	0.8967	318.15	798.06	0.3
0.099	0.9	298.15	816.06	0.28
0.099	0.9	303.15	811.38	0.29
0.099	0.9	308.15	805.35	0.29
0.099	0.9	313.15	800.97	0.3
0.099	0.9	318.15	795.35	0.31
0.1455	0.831	298.15	844.5	0.26
0.1455	0.831	303.15	840.47	0.26
0.1455	0.831	308.15	836.02	0.28
0.1455	0.831	313.15	833.23	0.28
0.1455	0.831	318.15	829.25	0.29
0.1468	0.8383	298.15	840.52	0.26
0.1468	0.8383	303.15	836.27	0.27
0.1468	0.8383	308.15	831.2	0.29
0.1468	0.8383	313.15	827.76	0.28
0.1468	0.8383	318.15	823.18	0.3
0.1476	0.8431	298.15	837.87	0.26
0.1476	0.8431	303.15	833.46	0.27
0.1476	0.8431	308.15	828	0.28
0.1476	0.8431	313.15	824.21	0.29
0.1476	0.8431	318.15	819.18	0.3
0.1483	0.8468	298.15	835.8	0.27
0.1483	0.8468	303.15	831.19	0.27
0.1483	0.8468	308.15	825.51	0.29
0.1483	0.8468	313.15	821.37	0.28
0.1483	0.8468	318.15	816.09	0.3
0.1489	0.85	298.15	833.99	0.27
0.1489	0.85	303.15	829.31	0.28
0.1489	0.85	308.15	823.44	0.27
0.1489	0.85	313.15	819.02	0.3
0.1489	0.85	318.15	813.38	0.3
0.1873	0.7887	298.15	859.54	0.26
0.1873	0.7887	303.15	855.55	0.26
0.1873	0.7887	308.15	851.1	0.28
0.1873	0.7887	313.15	848.1	0.28
0.1873	0.7887	318.15	844.29	0.3
0.1892	0.7966	298.15	855.02	0.26
0.1892	0.7966	303.15	850.78	0.26
0.1892	0.7966	308.15	845.74	0.29
0.1892	0.7966	313.15	842.16	0.28
0.1892	0.7966	318.15	837.5	0.31
0.1901	0.8007	298.15	852.72	0.26
0.1901	0.8007	303.15	848.3	0.26
0.1901	0.8007	308.15	842.98	0.29
0.1901	0.8007	313.15	839.07	0.28
0.1901	0.8007	318.15	833.96	0.31
0.1909	0.8039	298.15	850.83	0.26
0.1909	0.8039	303.15	846.37	0.28
0.1909	0.8039	308.15	840.77	0.27
0.1909	0.8039	313.15	836.55	0.31
0.1909	0.8039	318.15	831.17	0.31
0.1917	0.8072	298.15	849.01	0.26
0.1917	0.8072	303.15	844.34	0.28
0.1917	0.8072	308.15	838.48	0.27
0.1917	0.8072	313.15	834.03	0.31
0.1917	0.8072	318.15	828.39	0.31
0.2257	0.7504	298.15	872.81	0.26
0.2257	0.7504	303.15	868.78	0.26
0.2257	0.7504	308.15	863.99	0.29
0.2257	0.7504	313.15	861.2	0.28
0.2257	0.7504	318.15	857.61	0.31
0.2278	0.7574	298.15	868.7	0.26
0.2278	0.7574	303.15	864.44	0.26
0.2278	0.7574	308.15	859.23	0.3
0.2278	0.7574	313.15	855.8	0.28
0.2278	0.7574	318.15	851.39	0.32
0.2291	0.7615	298.15	866.28	0.26
0.2291	0.7615	303.15	861.81	0.26
0.2291	0.7615	308.15	856.31	0.3
0.2291	0.7615	313.15	852.52	0.28
0.2291	0.7615	318.15	847.65	0.32
0.2301	0.7651	298.15	864.16	0.26
0.2301	0.7651	303.15	859.6	0.25
0.2301	0.7651	308.15	853.95	0.31
0.2301	0.7651	313.15	849.68	0.28
0.2301	0.7651	318.15	844.47	0.32
0.231	0.7679	298.15	862.56	0.26
0.231	0.7679	303.15	857.86	0.29
0.231	0.7679	308.15	851.94	0.27
0.231	0.7679	313.15	847.45	0.32
0.231	0.7679	318.15	841.89	0.32
0.2817	0.6945	298.15	892.01	0.26
0.2817	0.6945	303.15	887.8	0.26
0.2817	0.6945	308.15	883.21	0.3
0.2817	0.6945	313.15	880.34	0.3
0.2817	0.6945	318.15	876.53	0.34
0.2844	0.701	298.15	888.02	0.26
0.2844	0.701	303.15	883.65	0.26
0.2844	0.701	308.15	878.5	0.32
0.2844	0.701	313.15	874.94	0.29
0.2844	0.701	318.15	870.43	0.34
0.286	0.7049	298.15	885.58	0.26
0.286	0.7049	303.15	881.1	0.26
0.286	0.7049	308.15	875.6	0.31
0.286	0.7049	313.15	871.73	0.3
0.286	0.7049	318.15	866.73	0.34
0.2873	0.7081	298.15	883.6	0.26
0.2873	0.7081	303.15	878.96	0.25
0.2873	0.7081	308.15	873.28	0.32
0.2873	0.7081	313.15	869.05	0.28
0.2873	0.7081	318.15	863.76	0.34
0.2882	0.7106	298.15	882.07	0.26
0.2882	0.7106	303.15	877.4	0.3
0.2882	0.7106	308.15	871.59	0.26
0.2882	0.7106	313.15	867.12	0.34
0.2882	0.7106	318.15	861.47	0.34
0.3254	0.6504	298.15	906.86	0.27
0.3254	0.6504	303.15	902.79	0.27
0.3254	0.6504	308.15	897.87	0.32
0.3254	0.6504	313.15	894.97	0.31
0.3254	0.6504	318.15	891.69	0.36
0.3284	0.6566	298.15	902.99	0.27
0.3284	0.6566	303.15	898.68	0.27
0.3284	0.6566	308.15	893.42	0.34
0.3284	0.6566	313.15	889.9	0.31
0.3284	0.6566	318.15	885.67	0.37
0.3303	0.6603	298.15	900.62	0.27
0.3303	0.6603	303.15	896.1	0.26
0.3303	0.6603	308.15	890.64	0.34
0.3303	0.6603	313.15	886.72	0.3
0.3303	0.6603	318.15	881.91	0.36
0.3318	0.6633	298.15	898.7	0.26
0.3318	0.6633	303.15	894.13	0.25
0.3318	0.6633	308.15	888.46	0.34
0.3318	0.6633	313.15	884.17	0.3
0.3318	0.6633	318.15	878.98	0.35
0.333	0.6658	298.15	897.2	0.26
0.333	0.6658	303.15	892.44	0.32
0.333	0.6658	308.15	886.62	0.26
0.333	0.6658	313.15	882.1	0.35
0.333	0.6658	318.15	876.62	0.36
0.3849	0.5905	298.15	927.24	0.29
0.3849	0.5905	303.15	922.88	0.29
0.3849	0.5905	308.15	918.1	0.34
0.3849	0.5905	313.15	915.05	0.34
0.3849	0.5905	318.15	911.45	0.39
0.3886	0.5961	298.15	923.44	0.29
0.3886	0.5961	303.15	918.96	0.28
0.3886	0.5961	308.15	913.75	0.36
0.3886	0.5961	313.15	910.06	0.33
0.3886	0.5961	318.15	905.7	0.4
0.391	0.5997	298.15	920.9	0.28
0.391	0.5997	303.15	916.35	0.28
0.391	0.5997	308.15	910.88	0.35
0.391	0.5997	313.15	906.83	0.33
0.391	0.5997	318.15	901.92	0.39
0.3928	0.6024	298.15	919.06	0.28
0.3928	0.6024	303.15	914.38	0.26
0.3928	0.6024	308.15	908.77	0.37
0.3928	0.6024	313.15	904.4	0.31
0.3928	0.6024	318.15	899.19	0.39
0.3942	0.6046	298.15	917.65	0.28
0.3942	0.6046	303.15	912.84	0.34
0.3942	0.6046	308.15	907.04	0.27
0.3942	0.6046	313.15	902.53	0.39
0.3942	0.6046	318.15	896.93	0.39
0.4327	0.5432	298.15	942.49	0.3
0.4327	0.5432	303.15	938.35	0.3
0.4327	0.5432	308.15	933.38	0.37
0.4327	0.5432	313.15	929.99	0.37
0.4327	0.5432	318.15	926.71	0.42
0.4367	0.5481	298.15	939.02	0.3
0.4367	0.5481	303.15	934.63	0.29
0.4367	0.5481	308.15	929.39	0.38
0.4367	0.5481	313.15	925.49	0.35
0.4367	0.5481	318.15	921.35	0.42
0.4392	0.5513	298.15	936.82	0.3
0.4392	0.5513	303.15	932.28	0.28
0.4392	0.5513	308.15	926.79	0.39
0.4392	0.5513	313.15	922.64	0.34
0.4392	0.5513	318.15	917.94	0.42
0.4411	0.5538	298.15	935.08	0.29
0.4411	0.5538	303.15	930.42	1.73
0.4411	0.5538	308.15	924.78	1.97
0.4411	0.5538	313.15	920.39	1.38
0.4411	0.5538	318.15	915.26	0.42
0.4429	0.5559	298.15	933.56	0.3
0.4429	0.5559	303.15	928.79	0.34
0.4429	0.5559	308.15	923.08	0.31
0.4429	0.5559	313.15	918.43	0.39
0.4429	0.5559	318.15	912.91	0.42
0.4794	0.4958	298.15	957.64	0.31
0.4794	0.4958	303.15	953.44	0.32
0.4794	0.4958	308.15	948.67	0.36
0.4794	0.4958	313.15	945.56	0.38
0.4794	0.4958	318.15	941.85	0.44
0.4839	0.5005	298.15	954.22	0.3
0.4839	0.5005	303.15	949.88	0.3
0.4839	0.5005	308.15	944.74	0.4
0.4839	0.5005	313.15	941.07	0.37
0.4839	0.5005	318.15	936.64	0.45
0.4868	0.5035	298.15	952.11	0.39
0.4868	0.5035	303.15	947.52	0.85
0.4868	0.5035	308.15	942.2	1
0.4868	0.5035	313.15	938.13	0.83
0.4868	0.5035	318.15	933.18	0.44
0.4893	0.506	298.15	950.26	0.39
0.4893	0.506	303.15	945.63	0.35
0.4893	0.506	308.15	940.06	0.59
0.4893	0.506	313.15	935.67	0.45
0.4893	0.506	318.15	930.37	0.6
0.4909	0.5078	298.15	949.08	0.31
0.4909	0.5078	303.15	944.28	0.33
0.4909	0.5078	308.15	938.59	0.34
0.4909	0.5078	313.15	933.98	0.39
0.4909	0.5078	318.15	928.5	0.44
0.5172	0.4579	298.15	969.54	0.28
0.5172	0.4579	303.15	965.48	0.29
0.5172	0.4579	308.15	960.75	0.35
0.5172	0.4579	313.15	957.2	0.35
0.5172	0.4579	318.15	953.87	0.41
0.5221	0.4622	298.15	966.35	0.35
0.5221	0.4622	303.15	962.04	0.33
0.5221	0.4622	308.15	956.94	0.48
0.5221	0.4622	313.15	952.97	0.43
0.5221	0.4622	318.15	948.68	0.52
0.525	0.4648	298.15	964.38	0.43
0.525	0.4648	303.15	959.92	1.44
0.525	0.4648	308.15	954.54	1.91
0.525	0.4648	313.15	950.38	0.93
0.525	0.4648	318.15	945.67	0.57
0.5275	0.4671	298.15	962.75	0.29
0.5275	0.4671	303.15	958.1	0.28
0.5275	0.4671	308.15	952.59	0.37
0.5275	0.4671	313.15	948.15	0.33
0.5275	0.4671	318.15	942.99	0.41
0.5297	0.469	298.15	961.29	0.28
0.5297	0.469	303.15	956.53	0.31
0.5297	0.469	308.15	950.94	0.32
0.5297	0.469	313.15	946.23	0.37
0.5297	0.469	318.15	940.78	0.41
0.5745	0.4008	298.15	986.89	0.24
0.5745	0.4008	303.15	983.02	0.25
0.5745	0.4008	308.15	978.51	0.3
0.5745	0.4008	313.15	974.95	0.3
0.5745	0.4008	318.15	971.11	0.35
0.58	0.4047	298.15	983.79	0.24
0.58	0.4047	303.15	979.67	0.25
0.58	0.4047	308.15	974.72	0.32
0.58	0.4047	313.15	970.75	0.3
0.58	0.4047	318.15	966.22	0.36
0.5833	0.4069	298.15	982.07	0.24
0.5833	0.4069	303.15	977.64	0.29
0.5833	0.4069	308.15	972.43	0.27
0.5833	0.4069	313.15	968.23	0.34
0.5833	0.4069	318.15	963.29	0.36
0.5861	0.4089	298.15	980.51	0.24
0.5861	0.4089	303.15	975.97	0.23
0.5861	0.4089	308.15	970.53	0.36
0.5861	0.4089	313.15	966.06	0.3
0.5861	0.4089	318.15	960.83	0.38
0.5883	0.4104	298.15	979.39	0.24
0.5883	0.4104	303.15	974.61	0.3
0.5883	0.4104	308.15	969.09	0.25
0.5883	0.4104	313.15	964.38	0.35
0.5883	0.4104	318.15	958.97	0.35
0.6296	0.3461	298.15	1003.14	0.2
0.6296	0.3461	303.15	999.22	0.21
0.6296	0.3461	308.15	994.55	0.26
0.6296	0.3461	313.15	990.89	0.26
0.6296	0.3461	318.15	987.43	0.3
0.6354	0.3494	298.15	1000.46	0.21
0.6354	0.3494	303.15	996.12	0.21
0.6354	0.3494	308.15	991.09	0.26
0.6354	0.3494	313.15	987.14	0.26
0.6354	0.3494	318.15	982.91	0.31
0.6391	0.3514	298.15	998.71	0.21
0.6391	0.3514	303.15	994.25	0.2
0.6391	0.3514	308.15	989.03	0.27
0.6391	0.3514	313.15	984.73	0.25
0.6391	0.3514	318.15	979.99	0.3
0.6421	0.353	298.15	997.32	0.21
0.6421	0.353	303.15	992.72	0.2
0.6421	0.353	308.15	987.31	0.27
0.6421	0.353	313.15	982.87	0.24
0.6421	0.353	318.15	977.74	0.3
0.6444	0.3543	298.15	996.23	0.21
0.6444	0.3543	303.15	991.48	0.24
0.6444	0.3543	308.15	986.05	0.23
0.6444	0.3543	313.15	981.35	0.27
0.6444	0.3543	318.15	976.01	0.3
0.6796	0.2959	298.15	1017.58	0.19
0.6796	0.2959	303.15	1013.56	0.19
0.6796	0.2959	308.15	1008.78	0.22
0.6796	0.2959	313.15	1005.43	0.22
0.6796	0.2959	318.15	1001.93	0.25
0.6858	0.2986	298.15	1015.19	0.19
0.6858	0.2986	303.15	1010.92	0.18
0.6858	0.2986	308.15	1005.81	0.22
0.6858	0.2986	313.15	1001.94	0.21
0.6858	0.2986	318.15	997.82	0.25
0.6899	0.3005	298.15	1013.52	0.18
0.6899	0.3005	303.15	1009.1	0.18
0.6899	0.3005	308.15	1003.91	0.22
0.6899	0.3005	313.15	999.67	0.21
0.6899	0.3005	318.15	995	0.25
0.6933	0.3019	298.15	1012.24	0.18
0.6933	0.3019	303.15	1007.62	0.17
0.6933	0.3019	308.15	1002.31	0.23
0.6933	0.3019	313.15	997.81	0.2
0.6933	0.3019	318.15	992.8	0.25
0.6956	0.303	298.15	1011.38	0.18
0.6956	0.303	303.15	1006.58	0.2
0.6956	0.303	308.15	1001.15	0.19
0.6956	0.303	313.15	996.54	0.23
0.6956	0.303	318.15	991.18	0.25
0.7211	0.2545	298.15	1028.71	0.17
0.7211	0.2545	303.15	1024.81	0.17
0.7211	0.2545	308.15	1020.34	0.19
0.7211	0.2545	313.15	1016.64	0.2
0.7211	0.2545	318.15	1013.62	0.22
0.7274	0.2567	298.15	1026.85	0.17
0.7274	0.2567	303.15	1022.64	0.17
0.7274	0.2567	308.15	1017.85	0.19
0.7274	0.2567	313.15	1013.7	0.19
0.7274	0.2567	318.15	1009.84	0.22
0.7318	0.2582	298.15	1025.47	0.16
0.7318	0.2582	303.15	1021.01	0.17
0.7318	0.2582	308.15	1016.08	0.19
0.7318	0.2582	313.15	1011.77	0.19
0.7318	0.2582	318.15	1007.29	0.22
0.7354	0.2595	298.15	1024.45	0.17
0.7354	0.2595	303.15	1019.74	0.16
0.7354	0.2595	308.15	1014.58	0.19
0.7354	0.2595	313.15	1010.07	0.18
0.7354	0.2595	318.15	1005.14	0.21
0.7381	0.2605	298.15	1023.57	0.17
0.7381	0.2605	303.15	1018.84	0.18
0.7381	0.2605	308.15	1013.46	0.16
0.7381	0.2605	313.15	1008.77	0.2
0.7381	0.2605	318.15	1003.55	0.21
0.7802	0.1948	298.15	1045	0.16
0.7802	0.1948	303.15	1040.87	0.16
0.7802	0.1948	308.15	1036.56	0.17
0.7802	0.1948	313.15	1033.06	0.17
0.7802	0.1948	318.15	1030.35	0.19
0.7873	0.1966	298.15	1043.4	0.15
0.7873	0.1966	303.15	1039.11	0.16
0.7873	0.1966	308.15	1034.42	0.17
0.7873	0.1966	313.15	1030.51	0.17
0.7873	0.1966	318.15	1026.78	0.18
0.792	0.1977	298.15	1042.43	0.15
0.792	0.1977	303.15	1037.87	0.15
0.792	0.1977	308.15	1032.99	0.16
0.792	0.1977	313.15	1028.82	0.16
0.792	0.1977	318.15	1024.57	0.18
0.796	0.1987	298.15	1041.56	0.15
0.796	0.1987	303.15	1036.94	0.15
0.796	0.1987	308.15	1031.78	0.16
0.796	0.1987	313.15	1027.31	0.16
0.796	0.1987	318.15	1022.56	0.18
0.7991	0.1995	298.15	1040.92	0.15
0.7991	0.1995	303.15	1036.1	0.16
0.7991	0.1995	308.15	1030.91	0.15
0.7991	0.1995	313.15	1026.16	0.17
0.7991	0.1995	318.15	1020.98	0.18
0.8216	0.1531	298.15	1055.96	0.16
0.8216	0.1531	303.15	1051.99	0.15
0.8216	0.1531	308.15	1047.7	0.16
0.8216	0.1531	313.15	1044.17	0.16
0.8216	0.1531	318.15	1041.23	0.17
0.8291	0.1545	298.15	1054.83	0.16
0.8291	0.1545	303.15	1050.55	0.15
0.8291	0.1545	308.15	1045.92	0.16
0.8291	0.1545	313.15	1041.89	0.16
0.8291	0.1545	318.15	1038.12	0.16
0.8342	0.1554	298.15	1053.98	0.15
0.8342	0.1554	303.15	1049.5	0.15
0.8342	0.1554	308.15	1044.7	0.16
0.8342	0.1554	313.15	1040.43	0.15
0.8342	0.1554	318.15	1036.1	0.16
0.8383	0.1562	298.15	1053.42	0.15
0.8383	0.1562	303.15	1048.7	0.15
0.8383	0.1562	308.15	1043.7	0.16
0.8383	0.1562	313.15	1039.21	0.15
0.8383	0.1562	318.15	1034.44	0.16
0.8418	0.1568	298.15	1052.83	0.15
0.8418	0.1568	303.15	1048.1	0.15
0.8418	0.1568	308.15	1042.86	0.15
0.8418	0.1568	313.15	1038.14	0.16
0.8418	0.1568	318.15	1033.08	0.16
0.8692	0.1052	298.15	1068.38	0.16
0.8692	0.1052	303.15	1064.32	0.16
0.8692	0.1052	308.15	1060.39	0.16
0.8692	0.1052	313.15	1057.04	0.16
0.8692	0.1052	318.15	1053.66	0.16
0.8777	0.1062	298.15	1067.65	0.16
0.8777	0.1062	303.15	1063.33	0.16
0.8777	0.1062	308.15	1058.84	0.15
0.8777	0.1062	313.15	1054.96	0.15
0.8777	0.1062	318.15	1051	0.15
0.8824	0.1068	298.15	1067.17	0.16
0.8824	0.1068	303.15	1062.74	0.16
0.8824	0.1068	308.15	1058.06	0.15
0.8824	0.1068	313.15	1053.89	0.15
0.8824	0.1068	318.15	1049.43	0.15
0.887	0.1073	298.15	1066.76	0.16
0.887	0.1073	303.15	1062.13	0.16
0.887	0.1073	308.15	1057.25	0.15
0.887	0.1073	313.15	1052.81	0.15
0.887	0.1073	318.15	1048.05	0.15
0.8907	0.1078	298.15	1066.5	0.16
0.8907	0.1078	303.15	1061.66	0.16
0.8907	0.1078	308.15	1056.55	0.15
0.8907	0.1078	313.15	1051.96	0.15
0.8907	0.1078	318.15	1046.81	0.15
0.9009	0.074	298.15	1076.77	0.17
0.9009	0.074	303.15	1072.58	0.16
0.9009	0.074	308.15	1068.5	0.16
0.9009	0.074	313.15	1064.87	0.16
0.9009	0.074	318.15	1061.35	0.16
0.9086	0.0746	298.15	1076.22	0.17
0.9086	0.0746	303.15	1071.87	0.16
0.9086	0.0746	308.15	1067.46	0.16
0.9086	0.0746	313.15	1063.36	0.16
0.9086	0.0746	318.15	1059.27	0.15
0.9144	0.0751	298.15	1075.78	0.17
0.9144	0.0751	303.15	1071.24	0.16
0.9144	0.0751	308.15	1066.62	0.16
0.9144	0.0751	313.15	1062.31	0.16
0.9144	0.0751	318.15	1057.79	0.15
0.9191	0.0755	298.15	1075.52	0.17
0.9191	0.0755	303.15	1070.78	0.16
0.9191	0.0755	308.15	1065.91	0.16
0.9191	0.0755	313.15	1061.4	0.16
0.9191	0.0755	318.15	1056.51	0.15
0.9227	0.0758	298.15	1075.22	0.17
0.9227	0.0758	303.15	1070.49	0.16
0.9227	0.0758	308.15	1065.37	0.16
0.9227	0.0758	313.15	1060.66	0.16
0.9227	0.0758	318.15	1055.65	0.15
0.9241	0.0505	298.15	1082.81	0.17
0.9241	0.0505	303.15	1078.71	0.17
0.9241	0.0505	308.15	1074.74	0.17
0.9241	0.0505	313.15	1070.89	0.16
0.9241	0.0505	318.15	1066.9	0.16
0.9325	0.051	298.15	1082.37	0.17
0.9325	0.051	303.15	1078.06	0.17
0.9325	0.051	308.15	1073.73	0.16
0.9325	0.051	313.15	1069.59	0.16
0.9325	0.051	318.15	1065.16	0.16
0.9382	0.0513	298.15	1082.16	0.17
0.9382	0.0513	303.15	1077.6	0.17
0.9382	0.0513	308.15	1072.98	0.16
0.9382	0.0513	313.15	1068.65	0.16
0.9382	0.0513	318.15	1063.96	0.16
0.9429	0.0515	298.15	1081.93	0.17
0.9429	0.0515	303.15	1077.31	0.17
0.9429	0.0515	308.15	1072.4	0.16
0.9429	0.0515	313.15	1067.83	0.16
0.9429	0.0515	318.15	1062.96	0.16
0.9467	0.0518	298.15	1081.82	0.17
0.9467	0.0518	303.15	1076.98	0.17
0.9467	0.0518	308.15	1071.98	0.16
0.9467	0.0518	313.15	1067.18	0.16
0.9467	0.0518	318.15	1062.08	0.16
0.9499	0.0242	298.15	1089.93	0.18
0.9499	0.0242	303.15	1085.88	0.18
0.9499	0.0242	308.15	1081.75	0.17
0.9499	0.0242	313.15	1077.97	0.17
0.9499	0.0242	318.15	1073.82	0.16
0.9584	0.0245	298.15	1089.65	0.18
0.9584	0.0245	303.15	1085.33	0.17
0.9584	0.0245	308.15	1080.94	0.17
0.9584	0.0245	313.15	1076.83	0.17
0.9584	0.0245	318.15	1072.4	0.16
0.9645	0.0246	298.15	1089.49	0.18
0.9645	0.0246	303.15	1085.01	0.17
0.9645	0.0246	308.15	1080.33	0.17
0.9645	0.0246	313.15	1075.96	0.17
0.9645	0.0246	318.15	1071.31	0.16
0.9695	0.0247	298.15	1089.38	0.18
0.9695	0.0247	303.15	1084.69	0.17
0.9695	0.0247	308.15	1079.93	0.17
0.9695	0.0247	313.15	1075.3	0.17
0.9695	0.0247	318.15	1070.4	0.16
0.9736	0.0249	298.15	1089.32	0.18
0.9736	0.0249	303.15	1084.53	0.17
0.9736	0.0249	308.15	1079.5	0.17
0.9736	0.0249	313.15	1074.8	0.17
0.9736	0.0249	318.15	1069.66	0.16
