Measured thermophysical data. Determination and Correlation of Excess Molar Enthalpies of the Binary Carbon Dioxide + Diisopropyl Ether (DIPE) System at Temperatures from (298.15 to 308.15) K and Pressures from (5.0 to 7.5) MPa
Source: J. Chem. Eng. Data, 2008, 10.1021/je8001442
Compound 1: carbon dioxide, CO2, InChI=1S/CO2/c2-1-3
Compound 2: diisopropyl ether, C6H14O, InChI=1S/C6H14O/c1-5(2)7-6(3)4/h5-6H,1-4H3

System: diisopropyl ether + carbon dioxide; phases: Liquid, Gas
Property: Mole fraction of carbon dioxide (Liquid); method: Analysis of excess enthalpy data
Temperature, K	Pressure, kPa	Mole fraction of carbon dioxide	uncertainty
298.15	5000	0.8458	0.02
298.15	5500	0.9142	0.02
303.15	5000	0.7686	0.02
303.15	5500	0.837	0.02
303.15	6000	0.8905	0.02
308.15	5000	0.7055	0.02
308.15	5500	0.7677	0.02
308.15	6000	0.8295	0.02
308.15	6500	0.8878	0.02
308.15	7000	0.939	0.02
308.15	7500	0.9567	0.02

System: diisopropyl ether + carbon dioxide; phases: Fluid (supercritical or subcritical phases)
Property: Excess molar enthalpy (molar enthalpy of mixing), kJ/mol (Fluid (supercritical or subcritical phases)); method: Flow calorimetry
Mole fraction of carbon dioxide	Temperature, K	Pressure, kPa	Excess molar enthalpy (molar enthalpy of mixing), kJ/mol	uncertainty
0.1255	298.15	5000	-1.169	0.025
0.1255	303.15	5000	-1.05	0.023
0.1255	308.15	5000	-1.226	0.026
0.1263	298.15	5500	-1.158	0.025
0.1263	303.15	5500	-1.163	0.025
0.1263	308.15	5500	-1.15	0.025
0.127	298.15	6000	-0.972	0.021
0.127	303.15	6000	-1.065	0.023
0.127	308.15	6000	-1.158	0.025
0.1277	308.15	6500	-1.062	0.023
0.1283	308.15	7000	-0.97	0.021
0.1289	308.15	7500	-0.836	0.018
0.2326	298.15	5000	-2.203	0.047
0.2326	303.15	5000	-2.199	0.047
0.2326	308.15	5000	-2.218	0.047
0.2338	298.15	5500	-2.075	0.044
0.2338	303.15	5500	-2.114	0.045
0.2338	308.15	5500	-2.195	0.047
0.235	298.15	6000	-1.848	0.039
0.235	303.15	6000	-2.006	0.043
0.235	308.15	6000	-2.065	0.044
0.2361	308.15	6500	-1.94	0.041
0.237	308.15	7000	-1.761	0.038
0.238	308.15	7500	-1.488	0.032
0.3249	298.15	5000	-3.069	0.065
0.3249	303.15	5000	-3.1	0.066
0.3249	308.15	5000	-3.118	0.066
0.3265	298.15	5500	-2.853	0.061
0.3265	303.15	5500	-2.991	0.064
0.3265	308.15	5500	-2.967	0.063
0.3279	298.15	6000	-2.597	0.055
0.3279	303.15	6000	-2.826	0.06
0.3279	308.15	6000	-2.899	0.062
0.3292	308.15	6500	-2.669	0.057
0.3304	308.15	7000	-2.458	0.052
0.3315	308.15	7500	-2.041	0.044
0.4054	298.15	5000	-3.822	0.081
0.4054	303.15	5000	-3.859	0.082
0.4054	308.15	5000	-3.865	0.082
0.4071	298.15	5500	-3.603	0.077
0.4071	303.15	5500	-3.685	0.078
0.4071	308.15	5500	-3.73	0.079
0.4087	298.15	6000	-3.184	0.068
0.4087	303.15	6000	-3.512	0.075
0.4087	308.15	6000	-3.571	0.076
0.4101	308.15	6500	-3.294	0.07
0.4114	308.15	7000	-3.046	0.065
0.4127	308.15	7500	-2.613	0.056
0.4762	298.15	5000	-4.493	0.096
0.4762	303.15	5000	-4.513	0.096
0.4762	308.15	5000	-4.562	0.097
0.478	298.15	5500	-4.147	0.088
0.478	303.15	5500	-4.301	0.091
0.478	308.15	5500	-4.358	0.093
0.4796	298.15	6000	-3.723	0.079
0.4796	303.15	6000	-4.073	0.087
0.4796	308.15	6000	-4.276	0.091
0.4811	308.15	6500	-3.851	0.082
0.4824	308.15	7000	-3.587	0.076
0.4837	308.15	7500	-3.043	0.065
0.5389	298.15	5000	-5.026	0.107
0.5389	303.15	5000	-5.12	0.109
0.5389	308.15	5000	-5.118	0.109
0.5407	298.15	5500	-4.746	0.101
0.5407	303.15	5500	-4.861	0.103
0.5407	308.15	5500	-4.921	0.105
0.5423	298.15	6000	-4.218	0.09
0.5423	303.15	6000	-4.579	0.097
0.5423	308.15	6000	-4.695	0.1
0.5438	308.15	6500	-4.34	0.092
0.5451	308.15	7000	-3.976	0.085
0.5464	308.15	7500	-3.428	0.073
0.5949	298.15	5000	-5.585	0.119
0.5949	303.15	5000	-5.647	0.12
0.5949	308.15	5000	-5.619	0.119
0.5966	298.15	5500	-5.211	0.111
0.5966	303.15	5500	-5.353	0.114
0.5966	308.15	5500	-5.397	0.115
0.5982	298.15	6000	-4.575	0.097
0.5982	303.15	6000	-5.042	0.107
0.5982	308.15	6000	-5.115	0.109
0.5996	308.15	6500	-4.783	0.102
0.6009	308.15	7000	-4.399	0.094
0.6021	308.15	7500	-3.781	0.08
0.6452	298.15	5000	-6.05	0.129
0.6452	303.15	5000	-6.093	0.13
0.6452	308.15	5000	-6.072	0.129
0.6468	298.15	5500	-5.594	0.119
0.6468	303.15	5500	-5.773	0.123
0.6468	308.15	5500	-5.853	0.124
0.6483	298.15	6000	-4.959	0.105
0.6483	303.15	6000	-5.507	0.117
0.6483	308.15	6000	-5.611	0.119
0.6496	308.15	6500	-5.184	0.11
0.6509	308.15	7000	-4.748	0.101
0.652	308.15	7500	-4.071	0.087
0.6906	298.15	5000	-6.479	0.138
0.6906	303.15	5000	-6.501	0.138
0.6906	308.15	5000	-6.474	0.138
0.6921	298.15	5500	-6.05	0.129
0.6921	303.15	5500	-6.177	0.131
0.6921	308.15	5500	-6.227	0.132
0.6934	298.15	6000	-5.311	0.113
0.6934	303.15	6000	-5.857	0.124
0.6934	308.15	6000	-5.941	0.126
0.6947	308.15	6500	-5.547	0.118
0.6958	308.15	7000	-5.077	0.108
0.6969	308.15	7500	-4.364	0.093
0.7317	298.15	5000	-6.796	0.144
0.7317	303.15	5000	-6.849	0.146
0.7331	298.15	5500	-6.375	0.135
0.7331	303.15	5500	-6.529	0.139
0.7331	308.15	5500	-6.576	0.14
0.7344	298.15	6000	-5.583	0.119
0.7344	303.15	6000	-6.174	0.131
0.7344	308.15	6000	-6.23	0.132
0.7355	308.15	6500	-5.804	0.123
0.7366	308.15	7000	-5.288	0.112
0.7376	308.15	7500	-4.613	0.098
0.7692	298.15	5000	-7.156	0.152
0.7705	298.15	5500	-6.747	0.143
0.7705	303.15	5500	-6.845	0.145
0.7716	298.15	6000	-5.843	0.124
0.7716	303.15	6000	-6.449	0.137
0.7716	308.15	6000	-6.528	0.139
0.7727	308.15	6500	-6.056	0.129
0.7736	308.15	7000	-5.562	0.118
0.7745	308.15	7500	-4.798	0.102
0.8036	298.15	5000	-7.495	0.159
0.8047	298.15	5500	-6.996	0.149
0.8047	303.15	5500	-7.083	0.15
0.8057	298.15	6000	-6.172	0.131
0.8057	303.15	6000	-6.703	0.142
0.8057	308.15	6000	-6.728	0.143
0.8066	308.15	6500	-6.267	0.133
0.8075	308.15	7000	-5.776	0.123
0.8083	308.15	7500	-4.971	0.106
0.8248	308.15	6000	-6.851	0.146
0.8351	298.15	5000	-7.726	0.164
0.8361	298.15	5500	-7.264	0.154
0.837	298.15	6000	-6.37	0.135
0.837	303.15	6000	-6.956	0.148
0.8378	308.15	6500	-6.522	0.139
0.8385	308.15	7000	-5.928	0.126
0.8392	308.15	7500	-5.178	0.11
0.865	298.15	5500	-7.436	0.158
0.8658	298.15	6000	-6.637	0.141
0.8658	303.15	6000	-7.126	0.151
0.8665	308.15	6500	-6.705	0.142
0.8671	308.15	7000	-6.02	0.128
0.8677	308.15	7500	-5.25	0.112
0.8918	298.15	5500	-7.621	0.162
0.8924	298.15	6000	-6.806	0.145
0.8924	303.15	6000	-7.157	0.152
0.8935	308.15	7000	-6.098	0.13
0.894	308.15	7500	-5.358	0.114
0.9019	298.15	5500	-7.673	0.163
0.9171	298.15	6000	-6.921	0.147
0.9179	308.15	7000	-6.144	0.131
0.9183	308.15	7500	-5.251	0.112
0.931	298.15	6000	-6.837	0.145
0.94	298.15	6000	-6.969	0.148
0.9409	308.15	7500	-5.174	0.11
0.9614	298.15	6000	-6.872	0.146
0.962	308.15	7500	-4.909	0.104
0.9813	298.15	6000	-6.209	0.132
