Measured thermophysical data. Liquid Viscosities of the Ternary System Benzene + Cyclohexane + n-Tetradecane from (313 to 393) K and Pressures up to 60 MPa
Source: J. Chem. Eng. Data, 2009, 10.1021/je8009122
Compound 1: benzene, C6H6, InChI=1S/C6H6/c1-2-4-6-5-3-1/h1-6H, purity 99.9%
Compound 2: cyclohexane, C6H12, InChI=1S/C6H12/c1-2-4-6-5-3-1/h1-6H2, purity 99.9%
Compound 3: tetradecane, C14H30, InChI=1S/C14H30/c1-3-5-7-9-11-13-14-12-10-8-6-4-2/h3-14H2,1-2H3, purity 99%

System: benzene + cyclohexane + tetradecane; phases: Liquid
Fixed: Temperature, K = 333.2
Property: Viscosity, Pa*s (Liquid); method: SPHERE:UFactor:2
Pressure, kPa	Mole fraction of benzene	Mole fraction of cyclohexane	Viscosity, Pa*s	uncertainty
1000	0.1	0.451	0.000802	1.6e-05
1000	0.101	0.151	0.00103	2.1e-05
1000	0.105	0.77	0.00065	1.3e-05
1000	0.291	0.373	0.000742	1.5e-05
1000	0.298	0.151	0.00079	1.6e-05
1000	0.504	0.143	0.000641	1.3e-05
1000	0.51	0.344	0.000495	1e-05
1000	0.702	0.149	0.000513	1e-05
5000	0.1	0.451	0.000842	1.7e-05
5000	0.101	0.151	0.001083	2.2e-05
5000	0.105	0.77	0.00066	1.3e-05
5000	0.291	0.373	0.000774	1.6e-05
5000	0.298	0.151	0.000829	1.7e-05
5000	0.504	0.143	0.000661	1.4e-05
5000	0.51	0.344	0.000517	1.1e-05
5000	0.702	0.149	0.000531	1.1e-05
10000	0.1	0.451	0.000895	1.8e-05
10000	0.101	0.151	0.001117	2.3e-05
10000	0.105	0.77	0.000698	1.4e-05
10000	0.291	0.373	0.00082	1.7e-05
10000	0.298	0.151	0.000875	1.8e-05
10000	0.504	0.143	0.000698	1.4e-05
10000	0.51	0.344	0.000548	1.1e-05
10000	0.702	0.149	0.000554	1.1e-05
20000	0.1	0.451	0.000995	2e-05
20000	0.101	0.151	0.00124	2.5e-05
20000	0.105	0.77	0.000775	1.6e-05
20000	0.291	0.373	0.000904	1.8e-05
20000	0.298	0.151	0.000965	2e-05
20000	0.504	0.143	0.000777	1.6e-05
20000	0.51	0.344	0.000605	1.2e-05
20000	0.702	0.149	0.000609	1.2e-05
30000	0.1	0.451	0.001083	2.2e-05
30000	0.101	0.151	0.001354	2.8e-05
30000	0.105	0.77	0.00085	1.7e-05
30000	0.291	0.373	0.000987	2e-05
30000	0.298	0.151	0.001056	2.2e-05
30000	0.504	0.143	0.000853	1.7e-05
30000	0.51	0.344	0.000664	1.4e-05
30000	0.702	0.149	0.00066	1.3e-05
40000	0.1	0.451	0.001177	2.4e-05
40000	0.101	0.151	0.001462	3e-05
40000	0.105	0.77	0.000925	1.9e-05
40000	0.291	0.373	0.001072	2.2e-05
40000	0.298	0.151	0.001137	2.3e-05
40000	0.504	0.143	0.000921	1.9e-05
40000	0.51	0.344	0.000727	1.5e-05
40000	0.702	0.149	0.000719	1.5e-05
50000	0.1	0.451	0.001268	2.6e-05
50000	0.101	0.151	0.001581	3.2e-05
50000	0.105	0.77	0.001001	2e-05
50000	0.291	0.373	0.001144	2.3e-05
50000	0.298	0.151	0.001223	2.5e-05
50000	0.504	0.143	0.000993	2e-05
50000	0.51	0.344	0.000787	1.6e-05
50000	0.702	0.149	0.000771	1.6e-05
60000	0.1	0.451	0.001356	2.8e-05
60000	0.101	0.151	0.00171	3.5e-05
60000	0.105	0.77	0.001075	2.2e-05
60000	0.291	0.373	0.001224	2.5e-05
60000	0.298	0.151	0.001311	2.7e-05
60000	0.504	0.143	0.001065	2.2e-05
60000	0.51	0.344	0.000849	1.7e-05
60000	0.702	0.149	0.000824	1.7e-05

System: benzene + cyclohexane + tetradecane; phases: Liquid
Fixed: Temperature, K = 353.2
Property: Viscosity, Pa*s (Liquid); method: SPHERE:UFactor:2
Pressure, kPa	Mole fraction of benzene	Mole fraction of cyclohexane	Viscosity, Pa*s	uncertainty
1000	0.1	0.451	0.000618	1.3e-05
1000	0.101	0.151	0.000812	1.7e-05
1000	0.105	0.77	0.000485	1e-05
1000	0.291	0.373	0.000588	1.2e-05
1000	0.298	0.151	0.000633	1.3e-05
1000	0.504	0.143	0.000513	1.1e-05
1000	0.51	0.344	0.000407	8e-06
1000	0.702	0.149	0.00042	9e-06
5000	0.1	0.451	0.000659	1.3e-05
5000	0.101	0.151	0.000854	1.8e-05
5000	0.105	0.77	0.000526	1.1e-05
5000	0.291	0.373	0.000622	1.3e-05
5000	0.298	0.151	0.000669	1.4e-05
5000	0.504	0.143	0.000534	1.1e-05
5000	0.51	0.344	0.000429	9e-06
5000	0.702	0.149	0.000436	9e-06
10000	0.1	0.451	0.000701	1.4e-05
10000	0.101	0.151	0.000902	1.9e-05
10000	0.105	0.77	0.000555	1.1e-05
10000	0.291	0.373	0.000651	1.3e-05
10000	0.298	0.151	0.000706	1.4e-05
10000	0.504	0.143	0.000558	1.1e-05
10000	0.51	0.344	0.000451	9e-06
10000	0.702	0.149	0.000456	9e-06
20000	0.1	0.451	0.00078	1.6e-05
20000	0.101	0.151	0.000995	2e-05
20000	0.105	0.77	0.000619	1.3e-05
20000	0.291	0.373	0.000727	1.5e-05
20000	0.298	0.151	0.000791	1.6e-05
20000	0.504	0.143	0.000624	1.3e-05
20000	0.51	0.344	0.000497	1e-05
20000	0.702	0.149	0.000496	1e-05
30000	0.1	0.451	0.000862	1.8e-05
30000	0.101	0.151	0.00108	2.2e-05
30000	0.105	0.77	0.000682	1.4e-05
30000	0.291	0.373	0.000802	1.6e-05
30000	0.298	0.151	0.000863	1.8e-05
30000	0.504	0.143	0.000685	1.4e-05
30000	0.51	0.344	0.000546	1.1e-05
30000	0.702	0.149	0.000545	1.1e-05
40000	0.1	0.451	0.000939	1.9e-05
40000	0.101	0.151	0.001169	2.4e-05
40000	0.105	0.77	0.000748	1.5e-05
40000	0.291	0.373	0.000873	1.8e-05
40000	0.298	0.151	0.00094	1.9e-05
40000	0.504	0.143	0.000744	1.5e-05
40000	0.51	0.344	0.000596	1.2e-05
40000	0.702	0.149	0.000588	1.2e-05
50000	0.1	0.451	0.001016	2.1e-05
50000	0.101	0.151	0.001264	2.6e-05
50000	0.105	0.77	0.000816	1.7e-05
50000	0.291	0.373	0.000936	1.9e-05
50000	0.298	0.151	0.001015	2.1e-05
50000	0.504	0.143	0.000808	1.6e-05
50000	0.51	0.344	0.000639	1.3e-05
50000	0.702	0.149	0.000634	1.3e-05
60000	0.1	0.451	0.001093	2.2e-05
60000	0.101	0.151	0.001337	2.7e-05
60000	0.105	0.77	0.000878	1.8e-05
60000	0.291	0.373	0.001005	2e-05
60000	0.298	0.151	0.001078	2.2e-05
60000	0.504	0.143	0.000869	1.8e-05
60000	0.51	0.344	0.000688	1.4e-05
60000	0.702	0.149	0.000679	1.4e-05

System: benzene + cyclohexane + tetradecane; phases: Liquid
Fixed: Temperature, K = 393.2
Property: Viscosity, Pa*s (Liquid); method: SPHERE:UFactor:2
Pressure, kPa	Mole fraction of benzene	Mole fraction of cyclohexane	Viscosity, Pa*s	uncertainty
1000	0.1	0.451	0.000377	8e-06
1000	0.101	0.151	0.000456	1e-05
1000	0.105	0.77	0.000325	7e-06
1000	0.291	0.373	0.000384	8e-06
1000	0.298	0.151	0.000392	8e-06
1000	0.504	0.143	0.000326	7e-06
1000	0.51	0.344	0.000279	6e-06
1000	0.702	0.149	0.000288	6e-06
5000	0.1	0.451	0.000396	8e-06
5000	0.101	0.151	0.000481	1e-05
5000	0.105	0.77	0.000338	7e-06
5000	0.291	0.373	0.000398	8e-06
5000	0.298	0.151	0.00041	9e-06
5000	0.504	0.143	0.000346	7e-06
5000	0.51	0.344	0.000288	6e-06
5000	0.702	0.149	0.000299	6e-06
10000	0.1	0.451	0.000423	9e-06
10000	0.101	0.151	0.000514	1.1e-05
10000	0.105	0.77	0.000359	7e-06
10000	0.291	0.373	0.000418	9e-06
10000	0.298	0.151	0.000435	9e-06
10000	0.504	0.143	0.000365	8e-06
10000	0.51	0.344	0.000305	6e-06
10000	0.702	0.149	0.000318	7e-06
20000	0.1	0.451	0.000479	1e-05
20000	0.101	0.151	0.000575	1.2e-05
20000	0.105	0.77	0.000405	8e-06
20000	0.291	0.373	0.000474	1e-05
20000	0.298	0.151	0.000487	1e-05
20000	0.504	0.143	0.000405	8e-06
20000	0.51	0.344	0.000336	7e-06
20000	0.702	0.149	0.000349	7e-06
30000	0.1	0.451	0.000538	1.1e-05
30000	0.101	0.151	0.000642	1.3e-05
30000	0.105	0.77	0.000446	9e-06
30000	0.291	0.373	0.00053	1.1e-05
30000	0.298	0.151	0.00055	1.1e-05
30000	0.504	0.143	0.000445	9e-06
30000	0.51	0.344	0.000368	8e-06
30000	0.702	0.149	0.000375	8e-06
40000	0.1	0.451	0.000594	1.2e-05
40000	0.101	0.151	0.000711	1.5e-05
40000	0.105	0.77	0.00049	1e-05
40000	0.291	0.373	0.000576	1.2e-05
40000	0.298	0.151	0.000597	1.2e-05
40000	0.504	0.143	0.000481	1e-05
40000	0.51	0.344	0.000399	8e-06
40000	0.702	0.149	0.000405	8e-06
50000	0.1	0.451	0.000653	1.3e-05
50000	0.101	0.151	0.00078	1.6e-05
50000	0.105	0.77	0.000537	1.1e-05
50000	0.291	0.373	0.000626	1.3e-05
50000	0.298	0.151	0.000654	1.3e-05
50000	0.504	0.143	0.00053	1.1e-05
50000	0.51	0.344	0.000435	9e-06
50000	0.702	0.149	0.000431	9e-06
60000	0.1	0.451	0.000711	1.5e-05
60000	0.101	0.151	0.000842	1.7e-05
60000	0.105	0.77	0.000583	1.2e-05
60000	0.291	0.373	0.000679	1.4e-05
60000	0.298	0.151	0.000709	1.5e-05
60000	0.504	0.143	0.000571	1.2e-05
60000	0.51	0.344	0.000466	1e-05
60000	0.702	0.149	0.000462	9e-06

System: benzene + cyclohexane + tetradecane; phases: Liquid
Fixed: Temperature, K = 313.2
Property: Viscosity, Pa*s (Liquid); method: SPHERE:UFactor:2
Pressure, kPa	Mole fraction of benzene	Mole fraction of cyclohexane	Viscosity, Pa*s	uncertainty
1000	0.1	0.451	0.001058	2.2e-05
1000	0.101	0.151	0.001379	2.8e-05
1000	0.105	0.77	0.00078	1.6e-05
1000	0.291	0.373	0.000942	1.9e-05
1000	0.298	0.151	0.001054	2.2e-05
1000	0.504	0.143	0.00082	1.7e-05
1000	0.51	0.344	0.000628	1.3e-05
1000	0.702	0.149	0.000648	1.3e-05
5000	0.1	0.451	0.001104	2.2e-05
5000	0.101	0.151	0.001435	2.9e-05
5000	0.105	0.77	0.00082	1.7e-05
5000	0.291	0.373	0.000984	2e-05
5000	0.298	0.151	0.001101	2.2e-05
5000	0.504	0.143	0.000861	1.8e-05
5000	0.51	0.344	0.000653	1.3e-05
5000	0.702	0.149	0.000669	1.4e-05
10000	0.1	0.451	0.001154	2.3e-05
10000	0.101	0.151	0.001501	3.1e-05
10000	0.105	0.77	0.000868	1.8e-05
10000	0.291	0.373	0.001044	2.1e-05
10000	0.298	0.151	0.001154	2.4e-05
10000	0.504	0.143	0.000901	1.8e-05
10000	0.51	0.344	0.000688	1.4e-05
10000	0.702	0.149	0.000705	1.4e-05
20000	0.1	0.451	0.001261	2.6e-05
20000	0.101	0.151	0.001662	3.4e-05
20000	0.105	0.77	0.000963	2e-05
20000	0.291	0.373	0.001141	2.3e-05
20000	0.298	0.151	0.001261	2.6e-05
20000	0.504	0.143	0.000994	2e-05
20000	0.51	0.344	0.000764	1.6e-05
20000	0.702	0.149	0.000771	1.6e-05
30000	0.1	0.451	0.001384	2.8e-05
30000	0.101	0.151	0.001827	3.7e-05
30000	0.105	0.77	0.001057	2.1e-05
30000	0.291	0.373	0.001241	2.5e-05
30000	0.298	0.151	0.001374	2.8e-05
30000	0.504	0.143	0.001078	2.2e-05
30000	0.51	0.344	0.000842	1.7e-05
30000	0.702	0.149	0.000833	1.7e-05
40000	0.1	0.451	0.001514	3.1e-05
40000	0.101	0.151	0.002019	4.1e-05
40000	0.105	0.77	0.001149	2.3e-05
40000	0.291	0.373	0.001347	2.7e-05
40000	0.298	0.151	0.001494	3e-05
40000	0.504	0.143	0.001167	2.4e-05
40000	0.51	0.344	0.000916	1.9e-05
40000	0.702	0.149	0.0009	1.8e-05
50000	0.1	0.451	0.001648	3.3e-05
50000	0.101	0.151	0.002242	4.6e-05
50000	0.105	0.77	0.001245	2.5e-05
50000	0.291	0.373	0.001456	2.9e-05
50000	0.298	0.151	0.00163	3.3e-05
50000	0.504	0.143	0.00126	2.6e-05
50000	0.51	0.344	0.000987	2e-05
50000	0.702	0.149	0.000977	2e-05
60000	0.1	0.451	0.001793	3.6e-05
60000	0.101	0.151	0.00253	5.2e-05
60000	0.105	0.77	0.001345	2.8e-05
60000	0.291	0.373	0.001572	3.2e-05
60000	0.298	0.151	0.001766	3.6e-05
60000	0.504	0.143	0.001344	2.7e-05
60000	0.51	0.344	0.001057	2.1e-05
60000	0.702	0.149	0.001042	2.1e-05
