Measured thermophysical data. Solubilities of Triphenylphosphine Oxide in Selected Solvents
Source: J. Chem. Eng. Data, 2009, 10.1021/je800842z
Compound 1: ethyl acetate, C4H8O2, InChI=1S/C4H8O2/c1-3-6-4(2)5/h3H2,1-2H3, purity 99.5%
Compound 2: triphenylphosphine oxide, C18H15OP, InChI=1S/C18H15OP/c19-20(16-10-4-1-5-11-16,17-12-6-2-7-13-17)18-14-8-3-9-15-18/h1-15H, purity 98%
Compound 3: benzene, C6H6, InChI=1S/C6H6/c1-2-4-6-5-3-1/h1-6H, purity 99.5%
Compound 4: toluene, C7H8, InChI=1S/C7H8/c1-7-5-3-2-4-6-7/h2-6H,1H3, purity 99.5%

System: ethyl acetate; phases: Liquid
Property: Refractive index (Na D-line) (Liquid); method: Standard Abbe refractometry
Temperature, K	Pressure, kPa	Refractive index (Na D-line)	uncertainty
293.15	101.325	1.3588	0.0004

System: ethyl acetate; phases: Liquid
Property: Mass density, kg/m3 (Liquid); method: Pycnometric method
Temperature, K	Pressure, kPa	Mass density, kg/m3	uncertainty
293.15	101.325	900	1

System: benzene; phases: Liquid
Property: Refractive index (Na D-line) (Liquid); method: Standard Abbe refractometry
Temperature, K	Pressure, kPa	Refractive index (Na D-line)	uncertainty
293.15	101.325	1.5011	0.0004

System: benzene; phases: Liquid
Property: Mass density, kg/m3 (Liquid); method: Pycnometric method
Temperature, K	Pressure, kPa	Mass density, kg/m3	uncertainty
293.15	101.325	879	1

System: toluene; phases: Liquid
Property: Refractive index (Na D-line) (Liquid); method: Standard Abbe refractometry
Temperature, K	Pressure, kPa	Refractive index (Na D-line)	uncertainty
293.15	101.325	1.4967	0.0004

System: toluene; phases: Liquid
Property: Mass density, kg/m3 (Liquid); method: Pycnometric method
Temperature, K	Pressure, kPa	Mass density, kg/m3	uncertainty
293.15	101.325	866	1

System: toluene + triphenylphosphine oxide; phases: Liquid, Crystal
Fixed: Pressure, kPa = 101
Property: Mole fraction of triphenylphosphine oxide (Liquid); method: Gravimetric Method
Temperature, K	Mole fraction of triphenylphosphine oxide	uncertainty
294.42	0.02907	0.00119
298.74	0.03464	0.00141
303.15	0.0396	0.00161
308.36	0.04874	0.00198
313.53	0.05476	0.00223
317.97	0.06657	0.00271
323.13	0.0768	0.00312
328.42	0.08823	0.00359
333.77	0.09985	0.00406

System: benzene + triphenylphosphine oxide; phases: Liquid, Crystal
Fixed: Pressure, kPa = 101
Property: Mole fraction of triphenylphosphine oxide (Liquid); method: Gravimetric Method
Temperature, K	Mole fraction of triphenylphosphine oxide	uncertainty
293.78	0.05504	0.00226
303.04	0.07469	0.00306
314.12	0.09634	0.00394
323.34	0.12254	0.00502
333.45	0.15175	0.00623

System: ethyl acetate + triphenylphosphine oxide; phases: Liquid, Crystal
Fixed: Pressure, kPa = 101
Property: Mole fraction of triphenylphosphine oxide (Liquid); method: Gravimetric Method
Temperature, K	Mole fraction of triphenylphosphine oxide	uncertainty
294.54	0.02297	0.00094
299.09	0.02748	0.00112
303.3	0.03049	0.00124
308.27	0.03485	0.00142
313.72	0.04087	0.00167
318.32	0.04962	0.00202
323.21	0.05547	0.00226
328.65	0.06595	0.00269

System: benzene + ethyl acetate + triphenylphosphine oxide; phases: Liquid, Crystal
Fixed: Solvent: Mole fraction of benzene = 0.5
Fixed: Pressure, kPa = 101
Property: Mole fraction of triphenylphosphine oxide (Liquid); method: Gravimetric Method
Temperature, K	Mole fraction of triphenylphosphine oxide	uncertainty
294.07	0.04274	0.00174
298.44	0.04856	0.00198
303.32	0.05556	0.00227
308.27	0.06336	0.00258
313.28	0.07146	0.00291
318.45	0.07866	0.00321
323.82	0.08838	0.00361
327.87	0.09893	0.00404

System: toluene + ethyl acetate + triphenylphosphine oxide; phases: Liquid, Crystal
Fixed: Solvent: Mole fraction of toluene = 0.5
Fixed: Pressure, kPa = 101
Property: Mole fraction of triphenylphosphine oxide (Liquid); method: Gravimetric Method
Temperature, K	Mole fraction of triphenylphosphine oxide	uncertainty
293.32	0.03848	0.00157
298.5	0.04479	0.00182
303.52	0.05037	0.00205
308.31	0.05846	0.00238
312.8	0.06395	0.0026
318.23	0.07242	0.00294
323.53	0.07827	0.00318
328.04	0.08807	0.00359

System: benzene + toluene + triphenylphosphine oxide; phases: Liquid, Crystal
Fixed: Solvent: Mole fraction of benzene = 0.5
Fixed: Pressure, kPa = 101
Property: Mole fraction of triphenylphosphine oxide (Liquid); method: Gravimetric Method
Temperature, K	Mole fraction of triphenylphosphine oxide	uncertainty
293.67	0.03793	0.00154
298.87	0.04294	0.00175
303.45	0.04796	0.00195
308.37	0.05493	0.00224
313.43	0.06018	0.00245
318.08	0.07043	0.00287
322.96	0.07664	0.00313
327.83	0.09027	0.00369
