Measured thermophysical data. Thermophysical Characterization of Liquids Using Precise Density and Isobaric Heat Capacity Measurements As a Function of Pressure
Source: J. Chem. Eng. Data, 2009, 10.1021/je8006875
Compound 1: hexane, C6H14, InChI=1S/C6H14/c1-3-5-6-4-2/h3-6H2,1-2H3
Compound 2: toluene, C7H8, InChI=1S/C7H8/c1-7-5-3-2-4-6-7/h2-6H,1H3
Compound 3: nonane, C9H20, InChI=1S/C9H20/c1-3-5-7-9-8-6-4-2/h3-9H2,1-2H3
Compound 4: decane, C10H22, InChI=1S/C10H22/c1-3-5-7-9-10-8-6-4-2/h3-10H2,1-2H3
Compound 5: undecane, C11H24, InChI=1S/C11H24/c1-3-5-7-9-11-10-8-6-4-2/h3-11H2,1-2H3
Compound 6: dodecane, C12H26, InChI=1S/C12H26/c1-3-5-7-9-11-12-10-8-6-4-2/h3-12H2,1-2H3
Compound 7: tridecane, C13H28, InChI=1S/C13H28/c1-3-5-7-9-11-13-12-10-8-6-4-2/h3-13H2,1-2H3
Compound 8: tetradecane, C14H30, InChI=1S/C14H30/c1-3-5-7-9-11-13-14-12-10-8-6-4-2/h3-14H2,1-2H3
Compound 9: hexan-1-ol, C6H14O, InChI=1S/C6H14O/c1-2-3-4-5-6-7/h7H,2-6H2,1H3

System: hexane; phases: Liquid
Property: Mass density, kg/m3 (Liquid); method: Vibrating tube method
Pressure, kPa	Temperature, K	Mass density, kg/m3	uncertainty
100	283.15	668.8	0.4
100	288.15	664.2	0.4
100	293.15	659.7	0.4
100	298.15	655.2	0.4
100	303.15	650.7	0.4
100	308.15	646	0.4
100	313.15	641.4	0.4
100	318.15	636.7	0.4
100	323.15	631.8	0.4
5000	283.15	673.2	0.6
5000	288.15	669	0.6
5000	293.15	664.7	0.6
5000	298.15	660.3	0.6
5000	303.15	655.9	0.6
5000	308.15	651.6	0.6
5000	313.15	647.2	0.6
5000	318.15	642.7	0.6
5000	323.15	638.1	0.6
10000	283.15	677.6	0.7
10000	288.15	673.5	0.7
10000	293.15	669.3	0.7
10000	298.15	665.2	0.7
10000	303.15	661	0.7
10000	308.15	656.8	0.7
10000	313.15	652.6	0.7
10000	318.15	648.3	0.7
10000	323.15	644	0.7
20000	283.15	685.7	0.7
20000	288.15	681.9	0.7
20000	293.15	678	0.7
20000	298.15	674.1	0.7
20000	303.15	670.2	0.7
20000	308.15	666.3	0.7
20000	313.15	662.4	0.7
20000	318.15	658.4	0.7
20000	323.15	654.4	0.7
30000	283.15	693.1	0.8
30000	288.15	689.4	0.8
30000	293.15	685.7	0.8
30000	298.15	682.1	0.8
30000	303.15	678.4	0.8
30000	308.15	674.7	0.8
30000	313.15	671	0.8
30000	318.15	667.3	0.8
30000	323.15	663.5	0.8
40000	283.15	699.8	0.8
40000	288.15	696.3	0.8
40000	293.15	692.9	0.8
40000	298.15	689.3	0.9
40000	303.15	685.9	0.9
40000	308.15	682.4	0.9
40000	313.15	678.9	0.9
40000	318.15	675.3	0.9
40000	323.15	671.7	0.9
50000	283.15	706.1	0.9
50000	288.15	702.8	0.9
50000	293.15	699.4	0.9
50000	298.15	696.1	0.9
50000	303.15	692.7	0.9
50000	308.15	689.3	0.9
50000	313.15	686	0.9
50000	318.15	682.5	0.9
50000	323.15	679.2	1
60000	283.15	711.5	1
60000	288.15	708.8	1
60000	293.15	705.6	1
60000	298.15	702.4	1
60000	303.15	699.1	1
60000	308.15	695.8	1
60000	313.15	692.7	1
60000	318.15	689.3	1
60000	323.15	686	1

System: toluene; phases: Liquid
Property: Mass density, kg/m3 (Liquid); method: Vibrating tube method
Pressure, kPa	Temperature, K	Mass density, kg/m3	uncertainty
100	283.15	875.7	0.4
100	288.15	871.3	0.4
100	293.15	866.7	0.4
100	298.15	862.3	0.4
100	303.15	857.4	0.4
100	308.15	852.8	0.4
100	313.15	848.2	0.4
100	318.15	843.4	0.4
100	323.15	838.7	0.4
5000	283.15	879.4	0.6
5000	288.15	874.9	0.6
5000	293.15	870.4	0.6
5000	298.15	865.8	0.6
5000	303.15	861.3	0.6
5000	308.15	856.8	0.6
5000	313.15	852.2	0.6
5000	318.15	847.7	0.6
5000	323.15	843	0.6
10000	283.15	882.8	0.6
10000	288.15	878.4	0.6
10000	293.15	874	0.6
10000	298.15	869.5	0.6
10000	303.15	865.1	0.6
10000	308.15	860.7	0.6
10000	313.15	856.3	0.6
10000	318.15	851.8	0.6
10000	323.15	847.3	0.6
20000	283.15	889.3	0.6
20000	288.15	885	0.6
20000	293.15	880.8	0.6
20000	298.15	876.5	0.6
20000	303.15	872.3	0.6
20000	308.15	868.1	0.6
20000	313.15	863.8	0.6
20000	318.15	859.5	0.6
20000	323.15	855.2	0.6
30000	283.15	895.4	0.6
30000	288.15	891.3	0.6
30000	293.15	887.2	0.6
30000	298.15	883	0.6
30000	303.15	879	0.6
30000	308.15	875	0.6
30000	313.15	870.8	0.6
30000	318.15	866.8	0.6
30000	323.15	862.6	0.6
40000	283.15	901.1	0.6
40000	288.15	897.1	0.6
40000	293.15	893.2	0.6
40000	298.15	889.2	0.6
40000	303.15	885.2	0.7
40000	308.15	881.4	0.7
40000	313.15	877.4	0.7
40000	318.15	873.5	0.7
40000	323.15	869.5	0.7
50000	283.15	906.6	0.7
50000	288.15	902.7	0.7
50000	293.15	898.9	0.7
50000	298.15	895	0.7
50000	303.15	891.2	0.7
50000	308.15	887.4	0.7
50000	313.15	883.5	0.7
50000	318.15	879.7	0.7
50000	323.15	875.9	0.7
60000	283.15	911.7	0.7
60000	288.15	908	0.7
60000	293.15	904.3	0.7
60000	298.15	900.5	0.7
60000	303.15	896.8	0.7
60000	308.15	893.1	0.7
60000	313.15	889.4	0.7
60000	318.15	885.7	0.7
60000	323.15	881.9	0.7

System: nonane; phases: Liquid
Property: Mass density, kg/m3 (Liquid); method: Vibrating tube method
Pressure, kPa	Temperature, K	Mass density, kg/m3	uncertainty
100	283.15	725.6	0.5
100	288.15	721.6	0.5
100	293.15	717.8	0.5
100	298.15	713.7	0.5
100	303.15	709.9	0.5
100	308.15	706	0.5
100	313.15	701.9	0.5
100	318.15	698.1	0.5
100	323.15	694.1	0.5
3000	283.15	727.7	0.7
3000	288.15	723.8	0.7
3000	293.15	720	0.7
3000	298.15	716.1	0.7
3000	303.15	712.3	0.7
3000	308.15	708.5	0.7
3000	313.15	704.5	0.7
3000	318.15	700.7	0.7
3000	323.15	696.9	0.7
5000	283.15	729.1	0.7
5000	288.15	725.3	0.7
5000	293.15	721.5	0.7
5000	298.15	717.7	0.7
5000	303.15	713.9	0.7
5000	308.15	710.1	0.7
5000	313.15	706.3	0.7
5000	318.15	702.4	0.7
5000	323.15	698.6	0.7
7500	283.15	730.8	0.7
7500	288.15	727	0.7
7500	293.15	723.4	0.7
7500	298.15	719.5	0.7
7500	303.15	715.8	0.7
7500	308.15	712.1	0.7
7500	313.15	708.3	0.7
7500	318.15	704.6	0.7
7500	323.15	700.8	0.7
10000	283.15	732.6	0.7
10000	288.15	728.9	0.7
10000	293.15	725.2	0.7
10000	298.15	721.5	0.7
10000	303.15	717.8	0.7
10000	308.15	714.2	0.7
10000	313.15	710.4	0.7
10000	318.15	706.8	0.7
10000	323.15	703	0.7
20000	283.15	739.2	0.7
20000	288.15	735.7	0.7
20000	293.15	732.2	0.7
20000	298.15	728.7	0.7
20000	303.15	725.2	0.7
20000	308.15	721.7	0.7
20000	313.15	718.2	0.7
20000	318.15	714.7	0.7
20000	323.15	711.2	0.7
30000	283.15	745.3	0.8
30000	288.15	742	0.8
30000	293.15	738.7	0.8
30000	298.15	735.2	0.8
30000	303.15	731.9	0.8
30000	308.15	728.5	0.8
30000	313.15	725.3	0.8
30000	318.15	721.9	0.8
30000	323.15	718.6	0.8
40000	283.15	751.1	0.8
40000	288.15	747.9	0.8
40000	293.15	744.6	0.8
40000	298.15	741.4	0.8
40000	303.15	738.2	0.8
40000	308.15	735	0.8
40000	313.15	731.8	0.9
40000	318.15	728.6	0.9
40000	323.15	725.4	0.9
50000	283.15	756.4	0.9
50000	288.15	753.4	0.9
50000	293.15	750.3	0.9
50000	298.15	747.1	0.9
50000	303.15	744.1	0.9
50000	308.15	740.9	0.9
50000	313.15	737.8	0.9
50000	318.15	734.8	0.9
50000	323.15	731.6	0.9
60000	283.15	761.6	1
60000	288.15	758.5	1
60000	293.15	755.5	1
60000	298.15	752.5	1
60000	303.15	749.5	1
60000	308.15	746.6	1
60000	313.15	743.5	1
60000	318.15	740.5	1
60000	323.15	737.5	1

System: decane; phases: Liquid
Property: Mass density, kg/m3 (Liquid); method: Vibrating tube method
Pressure, kPa	Temperature, K	Mass density, kg/m3	uncertainty
100	283.15	737.4	0.4
100	293.15	729.9	0.4
100	298.15	726.2	0.4
100	303.15	722.5	0.4
100	308.15	718.7	0.4
100	313.15	714.9	0.4
100	318.15	711	0.4
100	323.15	707.2	0.4
3000	283.15	739.4	0.6
3000	288.15	735.8	0.6
3000	293.15	732.1	0.6
3000	298.15	728.4	0.6
3000	303.15	724.8	0.6
3000	308.15	721.1	0.6
3000	313.15	717.3	0.6
3000	318.15	713.6	0.6
3000	323.15	709.8	0.6
5000	283.15	740.8	0.6
5000	288.15	737.2	0.6
5000	293.15	733.6	0.6
5000	298.15	729.9	0.6
5000	303.15	726.4	0.6
5000	308.15	722.7	0.6
5000	313.15	719	0.6
5000	318.15	715.3	0.6
5000	323.15	711.5	0.6
7500	283.15	742.5	0.6
7500	288.15	738.9	0.6
7500	293.15	735.3	0.6
7500	298.15	731.7	0.6
7500	303.15	728.2	0.6
7500	308.15	724.5	0.6
7500	313.15	720.9	0.6
7500	318.15	717.2	0.6
7500	323.15	713.5	0.6
10000	283.15	744.2	0.6
10000	288.15	740.7	0.6
10000	293.15	737.1	0.6
10000	298.15	733.6	0.6
10000	303.15	730.1	0.6
10000	308.15	726.5	0.6
10000	313.15	722.9	0.6
10000	318.15	719.3	0.6
10000	323.15	715.7	0.6
20000	283.15	750.5	0.7
20000	288.15	747.2	0.7
20000	293.15	743.8	0.7
20000	298.15	740.4	0.7
20000	303.15	737.1	0.7
20000	308.15	733.7	0.7
20000	313.15	730.3	0.7
20000	318.15	726.9	0.7
20000	323.15	723.4	0.7
30000	283.15	756.4	0.7
30000	288.15	753.2	0.7
30000	293.15	750	0.7
30000	298.15	746.8	0.7
30000	303.15	743.6	0.7
30000	308.15	740.3	0.7
30000	313.15	737	0.7
30000	318.15	733.8	0.7
30000	323.15	730.4	0.7
40000	283.15	762	0.8
40000	288.15	758.9	0.8
40000	293.15	755.8	0.8
40000	298.15	752.7	0.8
40000	303.15	749.6	0.8
40000	308.15	746.5	0.8
40000	313.15	743.3	0.8
40000	318.15	740.2	0.8
40000	323.15	737	0.8
50000	283.15	767.2	0.8
50000	288.15	764.2	0.8
50000	293.15	761.2	0.8
50000	298.15	758.3	0.8
50000	303.15	755.3	0.8
50000	308.15	752.2	0.8
50000	313.15	749.2	0.8
50000	318.15	746.1	0.8
50000	323.15	743	0.8
60000	283.15	771.9	0.9
60000	288.15	769.3	0.9
60000	293.15	766.4	0.9
60000	298.15	763.5	0.9
60000	303.15	760.6	0.9
60000	308.15	757.7	0.9
60000	313.15	754.7	0.9
60000	318.15	751.7	0.9
60000	323.15	748.7	0.9

System: undecane; phases: Liquid
Property: Mass density, kg/m3 (Liquid); method: Vibrating tube method
Pressure, kPa	Temperature, K	Mass density, kg/m3	uncertainty
100	283.15	747.8	0.5
100	288.15	744.1	0.5
100	293.15	740.5	0.5
100	298.15	736.5	0.5
100	303.15	732.9	0.5
100	308.15	729.2	0.5
100	313.15	725.5	0.5
100	318.15	721.9	0.5
100	323.15	718.1	0.5
10000	283.15	754.2	0.7
10000	288.15	750.7	0.7
10000	293.15	747.2	0.7
10000	298.15	743.6	0.7
10000	303.15	740.1	0.7
10000	308.15	736.7	0.7
10000	313.15	733.1	0.7
10000	318.15	729.6	0.7
10000	323.15	726	0.7
20000	283.15	760.4	0.7
20000	288.15	757	0.7
20000	293.15	753.6	0.7
20000	298.15	750.2	0.7
20000	303.15	746.8	0.7
20000	308.15	743.5	0.7
20000	313.15	740.2	0.7
20000	318.15	736.9	0.7
20000	323.15	733.5	0.7
30000	283.15	766.1	0.8
30000	288.15	762.9	0.8
30000	293.15	759.6	0.8
30000	298.15	756.4	0.8
30000	303.15	753.1	0.8
30000	308.15	749.9	0.8
30000	313.15	746.8	0.8
30000	318.15	743.5	0.8
30000	323.15	740.3	0.8
40000	283.15	771.5	0.8
40000	288.15	768.4	0.8
40000	293.15	765.3	0.8
40000	298.15	762	0.8
40000	303.15	758.9	0.8
40000	308.15	755.9	0.8
40000	313.15	752.9	0.8
40000	318.15	749.7	0.8
40000	323.15	746.7	0.8
50000	283.15	776.6	0.9
50000	288.15	773.5	0.9
50000	293.15	770.6	0.9
50000	298.15	767.5	0.9
50000	303.15	764.4	0.9
50000	308.15	761.4	0.9
50000	313.15	758.5	0.9
50000	318.15	755.5	0.9
50000	323.15	752.5	0.9
60000	283.15	781.4	0.9
60000	288.15	778.5	0.9
60000	293.15	775.6	0.9
60000	298.15	772.6	0.9
60000	303.15	769.7	0.9
60000	308.15	766.7	0.9
60000	313.15	763.9	0.9
60000	318.15	761	1
60000	323.15	758	1

System: dodecane; phases: Liquid
Property: Mass density, kg/m3 (Liquid); method: Vibrating tube method
Pressure, kPa	Temperature, K	Mass density, kg/m3	uncertainty
100	283.15	756	0.5
100	288.15	752.4	0.5
100	293.15	748.8	0.5
100	298.15	745.3	0.5
100	303.15	741.7	0.5
100	308.15	738.1	0.5
100	313.15	734.4	0.5
100	318.15	730.8	0.5
100	323.15	727.1	0.5
10000	283.15	762.4	0.7
10000	288.15	758.9	0.7
10000	293.15	755.5	0.7
10000	298.15	752.1	0.7
10000	303.15	748.7	0.7
10000	308.15	745.3	0.7
10000	313.15	741.8	0.7
10000	318.15	738.4	0.7
10000	323.15	734.9	0.7
20000	283.15	768.3	0.7
20000	288.15	765.1	0.7
20000	293.15	761.7	0.7
20000	298.15	758.5	0.7
20000	303.15	755.2	0.7
20000	308.15	752	0.7
20000	313.15	748.7	0.7
20000	318.15	745.4	0.7
20000	323.15	742	0.7
30000	283.15	773.9	0.8
30000	288.15	770.7	0.8
30000	293.15	767.6	0.8
30000	298.15	764.4	0.8
30000	303.15	761.3	0.8
30000	308.15	758.2	0.8
30000	313.15	755	0.8
30000	318.15	751.9	0.8
30000	323.15	748.6	0.8
40000	283.15	779.2	0.8
40000	288.15	776.1	0.8
40000	293.15	773.1	0.8
40000	298.15	770	0.8
40000	303.15	767	0.8
40000	308.15	764	0.8
40000	313.15	760.9	0.8
40000	318.15	757.9	0.8
40000	323.15	754.8	0.8
50000	283.15	784.1	0.9
50000	288.15	781.2	0.9
50000	293.15	778.2	0.9
50000	298.15	775.3	0.9
50000	303.15	772.4	0.9
50000	308.15	769.4	0.9
50000	313.15	766.4	0.9
50000	318.15	763.5	0.9
50000	323.15	760.5	0.9
60000	283.15	788.6	0.9
60000	288.15	786	0.9
60000	293.15	783.2	0.9
60000	298.15	780.3	0.9
60000	303.15	777.5	0.9
60000	308.15	774.6	0.9
60000	313.15	771.7	0.9
60000	318.15	768.8	0.9
60000	323.15	765.9	0.9

System: tridecane; phases: Liquid
Property: Mass density, kg/m3 (Liquid); method: Vibrating tube method
Pressure, kPa	Temperature, K	Mass density, kg/m3	uncertainty
100	283.15	763.6	0.5
100	288.15	760	0.5
100	293.15	756.4	0.5
100	298.15	752.6	0.5
100	303.15	749.2	0.5
100	308.15	745.6	0.5
100	313.15	742	0.5
100	318.15	738.4	0.5
100	323.15	734.8	0.5
10000	283.15	769.7	0.7
10000	288.15	766.2	0.7
10000	293.15	762.8	0.7
10000	298.15	759.3	0.7
10000	303.15	755.9	0.7
10000	308.15	752.5	0.7
10000	313.15	749.1	0.7
10000	318.15	745.7	0.7
10000	323.15	742.3	0.7
20000	283.15	775.5	0.7
20000	288.15	772.1	0.7
20000	293.15	768.9	0.7
20000	298.15	765.5	0.7
20000	303.15	762.3	0.7
20000	308.15	759.1	0.7
20000	313.15	755.7	0.7
20000	318.15	752.5	0.7
20000	323.15	749.3	0.7
30000	283.15	781	0.8
30000	288.15	777.7	0.8
30000	293.15	774.6	0.8
30000	298.15	771.4	0.8
30000	303.15	768.3	0.8
30000	308.15	765.1	0.8
30000	313.15	761.9	0.8
30000	318.15	758.8	0.8
30000	323.15	755.7	0.8
40000	283.15	786.1	0.8
40000	288.15	783	0.8
40000	293.15	780	0.8
40000	298.15	776.8	0.8
40000	303.15	773.8	0.8
40000	308.15	770.8	0.8
40000	313.15	767.7	0.8
40000	318.15	764.7	0.8
40000	323.15	761.8	0.8
50000	283.15	791	0.8
50000	288.15	788	0.8
50000	293.15	785.1	0.9
50000	298.15	782	0.9
50000	303.15	779	0.9
50000	308.15	776.1	0.9
50000	313.15	773.2	0.9
50000	318.15	770.3	0.9
50000	323.15	767.3	0.9
60000	283.15	795.6	0.9
60000	288.15	792.7	0.9
60000	293.15	789.8	0.9
60000	298.15	786.9	0.9
60000	303.15	784	0.9
60000	308.15	781.1	0.9
60000	313.15	778.3	0.9
60000	318.15	775.4	0.9
60000	323.15	772.6	0.9

System: tetradecane; phases: Liquid
Property: Mass density, kg/m3 (Liquid); method: Vibrating tube method
Pressure, kPa	Temperature, K	Mass density, kg/m3	uncertainty
100	283.15	770.4	0.5
100	288.15	767	0.5
100	293.15	763.5	0.5
100	298.15	759.8	0.5
100	303.15	756.3	0.5
100	308.15	752.7	0.5
100	313.15	749.2	0.5
100	318.15	745.7	0.5
100	323.15	742.2	0.5
10000	283.15	776.4	0.7
10000	288.15	772.9	0.7
10000	293.15	769.6	0.7
10000	298.15	766.2	0.7
10000	303.15	762.8	0.7
10000	308.15	759.4	0.7
10000	313.15	756	0.7
10000	318.15	752.7	0.7
10000	323.15	749.4	0.7
20000	288.15	778.8	0.7
20000	293.15	775.6	0.7
20000	298.15	772.3	0.7
20000	303.15	769	0.7
20000	308.15	765.8	0.7
20000	313.15	762.5	0.7
20000	318.15	759.3	0.7
20000	323.15	756.2	0.7
30000	288.15	784.2	0.8
30000	293.15	781.1	0.8
30000	298.15	778	0.8
30000	303.15	774.8	0.8
30000	308.15	771.6	0.8
30000	313.15	768.5	0.8
30000	318.15	765.5	0.8
30000	323.15	762.4	0.8
40000	288.15	789.4	0.8
40000	293.15	786.4	0.8
40000	298.15	783.3	0.8
40000	303.15	780.2	0.8
40000	308.15	777.2	0.8
40000	313.15	774.2	0.8
40000	318.15	771.2	0.8
40000	323.15	768.4	0.8
50000	293.15	791.4	0.8
50000	298.15	788.4	0.8
50000	303.15	785.4	0.9
50000	308.15	782.4	0.9
50000	313.15	779.5	0.9
50000	318.15	776.6	0.9
50000	323.15	773.8	0.9
60000	293.15	796.1	0.9
60000	298.15	793.2	0.9
60000	303.15	790.3	0.9
60000	308.15	787.3	0.9
60000	313.15	784.5	0.9
60000	318.15	781.7	0.9
60000	323.15	779	0.9

System: hexan-1-ol; phases: Liquid
Property: Mass density, kg/m3 (Liquid); method: Vibrating tube method
Pressure, kPa	Temperature, K	Mass density, kg/m3	uncertainty
100	283.15	825.6	0.5
100	288.15	822.2	0.5
100	293.15	818.6	0.5
100	298.15	815	0.5
100	303.15	811.4	0.5
100	308.15	807.8	0.5
100	313.15	804.1	0.5
100	318.15	800.5	0.5
100	323.15	796.8	0.5
5000	283.15	828.7	0.7
5000	288.15	825.2	0.7
5000	293.15	821.7	0.7
5000	298.15	818.2	0.7
5000	303.15	814.7	0.7
5000	308.15	811.1	0.7
5000	313.15	807.6	0.7
5000	318.15	804	0.7
5000	323.15	800.4	0.7
10000	283.15	831.7	0.7
10000	288.15	828.2	0.7
10000	293.15	824.9	0.7
10000	298.15	821.4	0.7
10000	303.15	817.9	0.7
10000	308.15	814.5	0.7
10000	313.15	811	0.7
10000	318.15	807.5	0.7
10000	323.15	803.9	0.7
20000	283.15	837.3	0.7
20000	288.15	834.1	0.7
20000	293.15	830.8	0.7
20000	298.15	827.4	0.7
20000	303.15	824.1	0.7
20000	308.15	820.8	0.7
20000	313.15	817.4	0.7
20000	318.15	814	0.7
20000	323.15	810.7	0.7
30000	283.15	842.7	0.7
30000	288.15	839.5	0.7
30000	293.15	836.3	0.7
30000	298.15	833.1	0.7
30000	303.15	829.9	0.7
30000	308.15	826.7	0.7
30000	313.15	823.5	0.7
30000	318.15	820.1	0.7
30000	323.15	816.9	0.7
40000	283.15	847.8	0.7
40000	288.15	844.7	0.7
40000	293.15	841.6	0.7
40000	298.15	838.5	0.7
40000	303.15	835.4	0.8
40000	308.15	832.3	0.8
40000	313.15	829.1	0.8
40000	318.15	825.9	0.8
40000	323.15	822.8	0.8
50000	283.15	852.6	0.8
50000	288.15	849.6	0.8
50000	293.15	846.6	0.8
50000	298.15	843.5	0.8
50000	303.15	840.5	0.8
50000	308.15	837.5	0.8
50000	313.15	834.4	0.8
50000	318.15	831.4	0.8
50000	323.15	828.2	0.8
60000	283.15	857.2	0.8
60000	288.15	854.3	0.8
60000	293.15	851.4	0.8
60000	298.15	848.3	0.8
60000	303.15	845.4	0.8
60000	308.15	842.4	0.8
60000	313.15	839.4	0.8
60000	318.15	836.4	0.8
60000	323.15	833.4	0.8
