Measured thermophysical data. Enthalpy of Solution of Amino Acid Ionic Liquid 1-Butyl-3-methylimidazolium  Glycine
Source: J. Chem. Eng. Data, 2008, 10.1021/je800067m
Compound 1: 1-butyl-3-methylimidazolium glycinate, C10H19N3O2, InChI=1S/C8H15N2.C2H5NO2/c1-3-4-5-10-7-6-9(2)8-10;3-1-2(4)5/h6-8H,3-5H2,1-2H3;1,3H2,(H,4,5)/q+1;/p-1
Compound 2: water, H2O, InChI=1S/H2O/h1H2, purity 99.9%

System: water + 1-butyl-3-methylimidazolium glycinate; phases: Liquid
Fixed: Temperature, K = 298.15
Fixed: Pressure, kPa = 101
Property: Molar enthalpy of solution, kJ/mol (Liquid); method: ISOPERIBOL
Molality, mol/kg of 1-butyl-3-methylimidazolium glycinate	Molar enthalpy of solution, kJ/mol	uncertainty
0.01275	-45.33	0.94
0.01989	-45.26	0.61
0.02906	-45.13	0.48
0.03626	-45.01	0.44
0.04094	-44.95	0.42
0.04529	-44.92	0.4
0.05079	-44.87	0.4

System: water + 1-butyl-3-methylimidazolium glycinate; phases: Liquid
Fixed: Temperature, K = 298.15
Fixed: Pressure, kPa = 101
Property: Molar enthalpy of solution, kJ/mol (Liquid); method: ISOPERIBOL
Molality, mol/kg of 1-butyl-3-methylimidazolium glycinate	Molar enthalpy of solution, kJ/mol	uncertainty
0.01504	-45.13	0.92
0.02031	-45.08	0.64
0.02991	-44.97	0.47
0.03628	-44.93	0.44
0.04996	-44.81	0.4

System: water + 1-butyl-3-methylimidazolium glycinate; phases: Liquid
Fixed: Temperature, K = 298.15
Fixed: Pressure, kPa = 101
Property: Molar enthalpy of solution, kJ/mol (Liquid); method: ISOPERIBOL
Molality, mol/kg of 1-butyl-3-methylimidazolium glycinate	Molar enthalpy of solution, kJ/mol	uncertainty
0.01671	-44.12	0.68
0.02125	-44.04	0.59
0.03044	-43.95	0.48
0.03724	-43.9	0.43
0.0511	-43.74	0.38

System: water + 1-butyl-3-methylimidazolium glycinate; phases: Liquid
Fixed: Temperature, K = 298.15
Fixed: Pressure, kPa = 101
Property: Molar enthalpy of solution, kJ/mol (Liquid); method: ISOPERIBOL
Molality, mol/kg of 1-butyl-3-methylimidazolium glycinate	Molar enthalpy of solution, kJ/mol	uncertainty
0.01695	-43.29	0.71
0.02116	-43.2	0.64
0.02946	-43.09	0.5
0.03682	-43.02	0.43
0.05054	-42.79	0.39

System: water + 1-butyl-3-methylimidazolium glycinate; phases: Liquid
Fixed: Temperature, K = 298.15
Fixed: Pressure, kPa = 101
Property: Molar enthalpy of solution, kJ/mol (Liquid); method: ISOPERIBOL
Molality, mol/kg of 1-butyl-3-methylimidazolium glycinate	Molar enthalpy of solution, kJ/mol	uncertainty
0.01773	-41.9	0.8
0.02196	-41.77	0.65
0.03234	-41.64	0.48
0.03855	-41.5	0.43
0.0522	-41.3	0.37
