Measured thermophysical data. Thermophysical Properties of N-Octyl-3-methylpyridinium Tetrafluoroborate
Source: J. Chem. Eng. Data, 2009, 10.1021/je8002095
Compound 1: N-octyl-3-methylpyridinium tetrafluoroborate, C14H24BF4N, InChI=1S/C14H24N.BF4/c1-3-4-5-6-7-8-11-15-12-9-10-14(2)13-15;2-1(3,4)5/h9-10,12-13H,3-8,11H2,1-2H3;/q+1;-1

System: N-octyl-3-methylpyridinium tetrafluoroborate; phases: Liquid
Fixed: Pressure, kPa = 101.325
Property: Molar heat capacity at constant pressure, J/K/mol (Liquid); method: differential scanning calorimeter
Temperature, K	Molar heat capacity at constant pressure, J/K/mol	uncertainty
278.15	433.8	26
280.65	435.7	26.2
283.15	437.4	26.3
285.65	439.4	26.4
288.15	441.4	26.5
290.65	443.7	26.6
293.15	446.1	26.8
295.65	448.4	26.9
298.15	450.5	27
300.65	452.8	27.2
303.15	455	27.3
305.65	457.2	27.4
308.15	459.2	27.6
310.65	461.3	27.7
313.15	463.3	27.8
315.65	465.1	27.9
318.15	467	28
320.65	468.7	28.1
323.15	470.3	28.2
325.65	472	28.3
328.15	473.7	28.4

System: N-octyl-3-methylpyridinium tetrafluoroborate; phases: Liquid, Air at 1 atmosphere
Property: Surface tension liquid-gas, N/m (Liquid); method: DROPV:UFactor:2
Temperature, K	Surface tension liquid-gas, N/m	uncertainty
278.15	0.03982	0.00054
280.65	0.03928	0.00054
283.15	0.0387	0.00053
285.65	0.0383	0.00053
288.15	0.03791	0.00052
290.65	0.03752	0.00052
293.15	0.03719	0.00052
295.65	0.03681	0.00051
298.15	0.03651	0.00051
300.65	0.03623	0.0005
303.15	0.03594	0.0005
305.65	0.03567	0.0005
308.15	0.03546	0.0005
310.65	0.03522	0.00049
313.15	0.03502	0.00049
315.65	0.03481	0.00049
318.15	0.03463	0.00049
320.65	0.03446	0.00049
323.15	0.03428	0.00048
325.65	0.03413	0.00048
328.15	0.03398	0.00048

System: N-octyl-3-methylpyridinium tetrafluoroborate; phases: Liquid
Fixed: Pressure, kPa = 101.325
Property: Kinematic viscosity, m2/s (Liquid); method: CAPTUB:UFactor:4
Temperature, K	Kinematic viscosity, m2/s	uncertainty
278.15	0.002481	0.000842
280.65	0.001926	0.000612
283.15	0.00154	0.000459
285.65	0.001229	0.000343
288.15	0.001016	0.000266
290.65	0.0008175	0.0001991
293.15	0.0006809	0.0001551
295.65	0.0005585	0.0001176
298.15	0.0004619	8.97e-05
300.65	0.0003883	6.96e-05
303.15	0.000327	5.38e-05
305.65	0.0002798	4.22e-05
308.15	0.0002384	3.27e-05
310.65	0.0002047	2.54e-05
313.15	0.000177	1.97e-05
315.65	0.0001556	1.56e-05
318.15	0.0001364	1.21e-05
320.65	0.0001192	9.2e-06
323.15	0.0001047	6.9e-06
325.65	9.272e-05	5.17e-06
328.15	8.215e-05	3.72e-06

System: N-octyl-3-methylpyridinium tetrafluoroborate; phases: Liquid
Fixed: Pressure, kPa = 101.325
Property: Refractive index (Na D-line) (Liquid); method: ABBE:UFactor:4
Temperature, K	Refractive index (Na D-line)	uncertainty
283.15	1.459783	0.001302
285.65	1.459069	0.001302
288.15	1.458354	0.001302
290.65	1.457635	0.001302
293.15	1.456913	0.001302
295.65	1.456202	0.001302
298.15	1.455474	0.001302
300.65	1.454765	0.001302
303.15	1.454053	0.001302
305.65	1.453326	0.001302
308.15	1.452613	0.001302
310.65	1.451903	0.001302
313.15	1.451207	0.001302
315.65	1.450469	0.001302
318.15	1.449763	0.001302
320.65	1.44903	0.001302
323.15	1.448307	0.001302
325.65	1.447604	0.001302
328.15	1.446898	0.001302

System: N-octyl-3-methylpyridinium tetrafluoroborate; phases: Liquid
Fixed: Pressure, kPa = 101.325
Property: Speed of sound, m/s (Liquid); method: PULSEH:UFactor:4
Temperature, K	Speed of sound, m/s	uncertainty
278.15	1571.9	3.7
280.65	1564.9	3.6
283.15	1557.7	3.6
285.65	1549.2	3.6
288.15	1541.2	3.6
290.65	1533.5	3.6
293.15	1526.3	3.6
295.65	1518.7	3.6
298.15	1511.4	3.6
300.65	1505.4	3.6
303.15	1498.1	3.6
305.65	1491.2	3.5
308.15	1484.6	3.5
310.65	1478.1	3.5
313.15	1472.3	3.5
315.65	1465.7	3.5
318.15	1459.3	3.5
320.65	1453.2	3.5
323.15	1446.5	3.5
325.65	1440.4	3.5
328.15	1433.6	3.5

System: N-octyl-3-methylpyridinium tetrafluoroborate; phases: Liquid
Fixed: Pressure, kPa = 101.325
Property: Mass density, kg/m3 (Liquid); method: VIBTUB:UFactor:12
Temperature, K	Mass density, kg/m3	uncertainty
278.15	1106.4	1.9
280.65	1105	1.9
283.15	1103.6	1.9
285.65	1102.1	1.8
288.15	1100.7	1.8
290.65	1099.4	1.8
293.15	1097.7	1.8
295.65	1096.3	1.8
298.15	1094.5	1.8
300.65	1093.3	1.8
303.15	1091.5	1.8
305.65	1089.7	1.8
308.15	1088.1	1.7
310.65	1086.3	1.7
313.15	1084.7	1.7
315.65	1083.1	1.7
318.15	1081.4	1.7
320.65	1079.8	1.7
323.15	1078.3	1.7
325.65	1076.5	1.7
328.15	1074.9	1.7
