Measured thermophysical data. Measurements of the Surface Tension for the R290 + R32 Mixture
Source: J. Chem. Eng. Data, 2009, 10.1021/je800756r
Compound 1: propane, C3H8, InChI=1S/C3H8/c1-3-2/h3H2,1-2H3, purity 99.9%
Compound 2: difluoromethane, CH2F2, InChI=1S/CH2F2/c2-1-3/h1H2, purity 99.9999%

System: propane + difluoromethane; phases: Liquid, Gas
Property: Surface tension liquid-gas, N/m (Liquid); method: Capillary rise
Temperature, K	Mole fraction of propane	Surface tension liquid-gas, N/m	uncertainty
280	0.01	0.0097	0.0004
280	0.013	0.0094	0.0004
280	0.037	0.0095	0.0004
280	0.07	0.009	0.0004
280	0.087	0.0087	0.0004
280	0.092	0.0084	0.0004
280	0.115	0.0085	0.0004
280	0.12	0.0084	0.0004
280	0.121	0.008	0.0004
280	0.123	0.0082	0.0004
280	0.124	0.0082	0.0004
280	0.131	0.0079	0.0004
280	0.141	0.008	0.0004
280	0.515	0.0064	0.0004
280	0.588	0.0065	0.0004
280	0.605	0.0065	0.0004
280	0.648	0.0068	0.0004
280	0.662	0.0068	0.0004
280	0.682	0.0068	0.0004
280	0.697	0.007	0.0004
280	0.706	0.0071	0.0004
280	0.729	0.0071	0.0004
280	0.755	0.0074	0.0004
280	0.775	0.0074	0.0004
280	0.813	0.0078	0.0004
280	0.826	0.0078	0.0004
280	0.898	0.0084	0.0004
280	0.931	0.0088	0.0004
280	0.942	0.0089	0.0004
280	0.968	0.0091	0.0004
280	0.648	0.0067	0.0004
290	0.002	0.0081	0.0004
290	0.003	0.008	0.0004
290	0.004	0.008	0.0004
290	0.005	0.0079	0.0004
290	0.039	0.0075	0.0004
290	0.065	0.0072	0.0004
290	0.078	0.007	0.0004
290	0.081	0.0072	0.0004
290	0.09	0.0071	0.0004
290	0.095	0.0069	0.0004
290	0.097	0.0069	0.0004
290	0.114	0.0066	0.0004
290	0.143	0.0065	0.0004
290	0.156	0.0063	0.0004
290	0.175	0.0059	0.0004
290	0.185	0.0059	0.0004
290	0.198	0.006	0.0004
290	0.209	0.0057	0.0004
290	0.485	0.005	0.0004
290	0.506	0.0049	0.0004
290	0.525	0.005	0.0004
290	0.539	0.0051	0.0004
290	0.58	0.0051	0.0004
290	0.596	0.0051	0.0004
290	0.604	0.0052	0.0004
290	0.648	0.0056	0.0004
290	0.691	0.0059	0.0004
290	0.768	0.0061	0.0004
290	0.805	0.0064	0.0004
290	0.896	0.007	0.0004
290	0.917	0.0073	0.0004
290	0.925	0.0074	0.0004
290	0.975	0.0077	0.0004
290	0.986	0.0079	0.0004
290	0.999	0.0081	0.0004
300	0.02	0.006	0.0004
300	0.045	0.0057	0.0004
300	0.087	0.0054	0.0004
300	0.11	0.0052	0.0004
300	0.12	0.005	0.0004
300	0.124	0.005	0.0004
300	0.149	0.0046	0.0004
300	0.154	0.0047	0.0004
300	0.22	0.0041	0.0004
300	0.573	0.004	0.0004
300	0.682	0.0045	0.0004
300	0.692	0.0047	0.0004
300	0.703	0.0047	0.0004
300	0.744	0.0049	0.0004
300	0.748	0.0051	0.0004
300	0.761	0.005	0.0004
300	0.771	0.0051	0.0004
300	0.782	0.0051	0.0004
300	0.79	0.0052	0.0004
300	0.824	0.0055	0.0004
300	0.834	0.0054	0.0004
300	0.838	0.0055	0.0004
300	0.852	0.0056	0.0004
300	0.865	0.0058	0.0004
300	0.881	0.0058	0.0004
300	0.893	0.006	0.0004
300	0.897	0.0059	0.0004
300	0.911	0.006	0.0004
300	0.918	0.0062	0.0004
300	0.938	0.0064	0.0004
300	0.982	0.0068	0.0004
300	0.994	0.0067	0.0004
300	0.999	0.0069	0.0004

System: propane + difluoromethane; phases: Liquid, Gas
Property: Vapor or sublimation pressure, kPa (Liquid); method: CCELL:UFactor:4
Temperature, K	Mole fraction of propane	Vapor or sublimation pressure, kPa	uncertainty
280	0.01	1034.61	16.65
280	0.013	1043.03	16.78
280	0.037	1099.68	17.69
280	0.07	1159.63	18.65
280	0.087	1184.36	19.04
280	0.092	1190.67	19.15
280	0.115	1217.4	19.57
280	0.12	1222.01	19.65
280	0.121	1223.07	19.66
280	0.123	1224.52	19.69
280	0.124	1225.61	19.7
280	0.131	1232.43	19.81
280	0.141	1240.57	19.94
280	0.515	1281.92	20.61
280	0.588	1263.2	20.31
280	0.605	1257.52	20.21
280	0.648	1239.9	19.93
280	0.662	1232.84	19.82
280	0.682	1221.87	19.64
280	0.697	1212.24	19.49
280	0.706	1206.12	19.39
280	0.729	1189.23	19.12
280	0.755	1166.11	18.75
280	0.775	1144.97	18.41
280	0.813	1097.55	17.65
280	0.826	1077.66	17.33
280	0.898	935.2	15.05
280	0.931	842.18	13.56
280	0.942	807.51	13.01
280	0.968	715.86	11.54
280	0.648	1239.68	19.93
290	0.002	1355.46	21.78
290	0.003	1359.27	21.84
290	0.004	1363.25	21.9
290	0.005	1367.28	21.97
290	0.039	1461.54	23.48
290	0.065	1517.47	24.37
290	0.078	1542.83	24.78
290	0.081	1547.85	24.86
290	0.09	1561.57	25.08
290	0.095	1569.39	25.2
290	0.097	1572.52	25.25
290	0.114	1593.54	25.59
290	0.143	1627.26	26.13
290	0.156	1639.45	26.32
290	0.175	1653.88	26.56
290	0.185	1660.57	26.66
290	0.198	1668.21	26.79
290	0.209	1673.93	26.88
290	0.485	1678.3	26.94
290	0.506	1672.01	26.84
290	0.525	1665.23	26.74
290	0.539	1659.83	26.65
290	0.58	1641.39	26.36
290	0.596	1633.21	26.22
290	0.604	1628.53	26.15
290	0.648	1599.99	25.69
290	0.691	1564.36	25.12
290	0.768	1475.11	23.69
290	0.805	1414.83	22.73
290	0.896	1199.39	19.28
290	0.917	1131.63	18.19
290	0.925	1102.98	17.74
290	0.975	897.69	14.45
290	0.986	841.43	13.55
290	0.999	773.92	12.47
300	0.02	1839.91	29.53
300	0.045	1909.67	30.65
300	0.087	1999.7	32.09
300	0.11	2037.48	32.69
300	0.12	2052.59	32.93
300	0.124	2057.09	33.01
300	0.149	2105.88	33.79
300	0.154	2092.64	33.57
300	0.22	2140.52	34.34
300	0.573	2093.35	33.58
300	0.682	1989.33	31.92
300	0.692	1948.11	31.26
300	0.703	1933.25	31.02
300	0.744	1897.92	30.45
300	0.748	1863.74	29.91
300	0.761	1840.87	29.54
300	0.771	1820.31	29.21
300	0.782	1824.77	29.29
300	0.79	1783.29	28.62
300	0.824	1704.57	27.36
300	0.834	1728.9	27.75
300	0.838	1666.58	26.76
300	0.852	1628.5	26.14
300	0.865	1588.51	25.5
300	0.881	1537.91	24.69
300	0.893	1497.46	24.05
300	0.897	1482.54	23.81
300	0.911	1430.99	22.98
300	0.918	1404.09	22.55
300	0.938	1319.76	21.2
300	0.982	1106.05	17.78
300	0.994	1031.29	16.59
300	0.999	1002.83	16.13
