Measured thermophysical data. Solubilities of Carbon Dioxide and Densities of Aqueous Sodium Glycinate Solutions before and after CO2 Absorption
Source: J. Chem. Eng. Data, 2009, 10.1021/je800672r
Compound 1: sodium glycinate, C2H4NNaO2, InChI=1S/C2H5NO2.Na/c3-1-2(4)5;/h1,3H2,(H,4,5);/q;+1/p-1
Compound 2: carbon dioxide, CO2, InChI=1S/CO2/c2-1-3
Compound 3: water, H2O, InChI=1S/H2O/h1H2
Compound 4: N-methyldiethanolamine, C5H13NO2, InChI=1S/C5H13NO2/c1-6(2-4-7)3-5-8/h7-8H,2-5H2,1H3

System: sodium glycinate + water; phases: Liquid, Crystal
Property: Mass density, kg/m3 (Liquid); method: VIBTUB:UFactor:64
Temperature, K	Mass fraction of sodium glycinate	Mass density, kg/m3	uncertainty
298.15	0.01	1011.96	2.28
298.15	0.05	1015.92	2.38
298.15	0.1	1034.52	2.85
298.15	0.15	1055.6	3.37
298.15	0.2	1083.52	4.07
298.15	0.3	1130.4	5.25
313.15	0.01	1002	2.04
313.15	0.05	1010.56	2.25
313.15	0.1	1029.68	2.73
313.15	0.15	1048.32	3.19
313.15	0.2	1076.44	3.9
313.15	0.3	1118	4.94
323.15	0.01	999.4	2
323.15	0.05	1005.12	2.11
323.15	0.1	1022.56	2.55
323.15	0.15	1042.92	3.06
323.15	0.2	1071	3.76
323.15	0.3	1112.76	4.81
333.15	0.01	996.72	2.07
333.15	0.05	1000.12	1.99
333.15	0.1	1017.56	2.43
333.15	0.15	1036.72	2.91
333.15	0.2	1066.48	3.65
333.15	0.3	1107.48	4.68
343.15	0.01	990.16	2.23
343.15	0.05	993.24	2.16
343.15	0.1	1010.76	2.26
343.15	0.15	1030.08	2.75
343.15	0.2	1061.2	3.52
343.15	0.3	1101.44	4.54
353.15	0.01	985.36	2.36
353.15	0.05	987.2	2.32
353.15	0.1	1005.32	2.13
353.15	0.15	1023.64	2.59
353.15	0.2	1054.48	3.36
353.15	0.3	1094.52	4.37

System: N-methyldiethanolamine + carbon dioxide + water; phases: Liquid, Gas
Fixed: Solvent: Mass fraction of N-methyldiethanolamine = 0.3
Fixed: Temperature, K = 313.15
Property: Mole fraction of carbon dioxide (Liquid); method: Chromatography
Pressure, kPa	Mole fraction of carbon dioxide	uncertainty
92	0.031	0.002
504	0.0382	0.002
1001	0.0428	0.002
1504	0.0455	0.002
2007	0.0481	0.002
2512	0.0487	0.002

System: carbon dioxide + sodium glycinate + water; phases: Liquid, Gas
Fixed: Temperature, K = 313.15
Fixed: Solvent: Mass fraction of sodium glycinate = 0.1
Property: Mole fraction of carbon dioxide (Liquid); method: Chromatography
Pressure, kPa	Mole fraction of carbon dioxide	uncertainty
92	0.01763	0.002
512	0.02078	0.00201
1019	0.02269	0.00201
1516	0.02427	0.00201
2022	0.02475	0.00201
2505	0.02512	0.00201

System: carbon dioxide + sodium glycinate + water; phases: Liquid, Gas
Property: Mass density, kg/m3 (Liquid); method: VIBTUB:UFactor:64
Temperature, K	Solvent: Mass fraction of sodium glycinate	Pressure, kPa	Mass density, kg/m3	uncertainty
298.15	0.01	98	1335.38	10.44
298.15	0.01	515	1336.1	10.81
298.15	0.01	1031	1337.14	11.27
298.15	0.01	1527	1337.69	11.7
298.15	0.01	2017	1337.74	12.11
298.15	0.01	2535	1338.53	12.57
298.15	0.05	98	1340.13	10.56
298.15	0.05	547	1343.7	11.03
298.15	0.05	1022	1344.2	11.45
298.15	0.05	1511	1344.69	11.88
298.15	0.05	2020	1345.17	12.33
298.15	0.05	2500	1345.29	12.75
298.15	0.1	98	1346.95	10.73
298.15	0.1	522	1348.54	11.14
298.15	0.1	1009	1349.94	11.6
298.15	0.1	1517	1353.4	12.14
298.15	0.1	2024	1353.51	12.59
298.15	0.1	2498	1357.32	13.12
298.15	0.15	98	1350.05	10.81
298.15	0.15	526	1357.99	11.39
298.15	0.15	1002	1358	11.81
298.15	0.15	1536	1358.2	12.29
298.15	0.15	2035	1358.56	12.75
298.15	0.15	2521	1359.75	13.22
298.15	0.2	98	1352.2	10.87
298.15	0.2	528	1356.09	11.34
298.15	0.2	1010	1368.43	12.11
298.15	0.2	1541	1368.53	12.59
298.15	0.2	2038	1372.29	13.16
298.15	0.2	2531	1374.98	13.7
298.15	0.3	98	1378.42	11.52
298.15	0.3	516	1380.46	11.97
298.15	0.3	1026	1381.28	12.47
298.15	0.3	1526	1382.67	12.99
298.15	0.3	2049	1384.07	13.52
298.15	0.3	2534	1387.33	14.09
313.15	0.01	92	1336.49	10.47
313.15	0.01	528	1338.64	10.89
313.15	0.01	995	1338.94	11.29
313.15	0.01	1510	1338.95	11.72
313.15	0.01	2030	1339.18	12.16
313.15	0.01	2483	1339.67	12.56
313.15	0.05	92	1341.36	10.59
313.15	0.05	514	1342.63	10.98
313.15	0.05	1029	1345.18	11.49
313.15	0.05	1503	1345.74	11.91
313.15	0.05	2007	1346.05	12.35
313.15	0.05	2503	1346.65	12.79
313.15	0.1	91	1348.31	10.76
313.15	0.1	512	1349.72	11.16
313.15	0.1	1018	1352.22	11.67
313.15	0.1	1515	1354.3	12.16
313.15	0.1	2022	1354.48	12.61
313.15	0.1	2505	1357.59	13.13
313.15	0.15	91	1356.05	10.96
313.15	0.15	520	1356.46	11.35
313.15	0.15	1017	1358.29	11.83
313.15	0.15	1504	1359.41	12.3
313.15	0.15	2038	1359.55	12.78
313.15	0.15	2499	1360.23	13.21
313.15	0.2	90	1359.69	11.05
313.15	0.2	508	1365.2	11.56
313.15	0.2	1009	1369.45	12.13
313.15	0.2	1516	1370.61	12.63
313.15	0.2	2019	1374.46	13.21
313.15	0.2	2513	1376.26	13.72
313.15	0.3	91	1376.7	11.47
313.15	0.3	508	1379.59	11.94
313.15	0.3	1011	1380.72	12.44
313.15	0.3	1525	1384.37	13.03
313.15	0.3	2003	1384.88	13.5
313.15	0.3	2501	1388.19	14.08

System: carbon dioxide + sodium glycinate + water; phases: Liquid, Gas
Property: Mole fraction of carbon dioxide (Liquid); method: Chromatography
Temperature, K	Solvent: Mass fraction of sodium glycinate	Pressure, kPa	Mole fraction of carbon dioxide	uncertainty
298.15	0.01	98	0.00431	0.000186
298.15	0.01	515	0.005006	0.000218
298.15	0.01	1031	0.005931	0.000255
298.15	0.01	1527	0.006277	0.00027
298.15	0.01	2017	0.006624	0.000286
298.15	0.01	2535	0.007547	0.000323
298.15	0.05	98	0.011837	0.000525
298.15	0.05	547	0.013016	0.000567
298.15	0.05	1022	0.013129	0.000571
298.15	0.05	1511	0.013723	0.000597
298.15	0.05	2020	0.013487	0.000595
298.15	0.05	2500	0.014541	0.000638
298.15	0.1	98	0.019206	0.000825
298.15	0.1	522	0.022828	0.00099
298.15	0.1	1009	0.025234	0.001092
298.15	0.1	1517	0.025964	0.001134
298.15	0.1	2024	0.026806	0.001166
298.15	0.1	2498	0.028106	0.00122
298.15	0.15	98	0.028624	0.001235
298.15	0.15	526	0.031132	0.001368
298.15	0.15	1002	0.032113	0.001411
298.15	0.15	1536	0.032351	0.001421
298.15	0.15	2035	0.0341	0.001499
298.15	0.15	2521	0.034839	0.001528
298.15	0.2	98	0.030235	0.001299
298.15	0.2	528	0.040061	0.001739
298.15	0.2	1010	0.0421	0.001837
298.15	0.2	1541	0.04336	0.001887
298.15	0.2	2038	0.04716	0.002042
298.15	0.2	2531	0.047884	0.002097
298.15	0.3	98	0.035031	0.001537
298.15	0.3	516	0.050147	0.002256
298.15	0.3	1026	0.052873	0.002386
298.15	0.3	1526	0.053343	0.002412
298.15	0.3	2049	0.054282	0.00244
298.15	0.3	2534	0.056673	0.002523
313.15	0.01	92	0.009	0.001
313.15	0.01	528	0.011	0.001
313.15	0.01	995	0.012	0.001
313.15	0.01	1510	0.013	0.001
313.15	0.01	2030	0.014	0.001
313.15	0.01	2483	0.015	0.001
313.15	0.05	92	0.027	0.001
313.15	0.05	514	0.028	0.001
313.15	0.05	1029	0.029	0.001
313.15	0.05	1503	0.03	0.001
313.15	0.05	2007	0.032	0.001
313.15	0.05	2503	0.034	0.002
313.15	0.1	91	0.04	0.002
313.15	0.1	512	0.048	0.002
313.15	0.1	1018	0.052	0.002
313.15	0.1	1515	0.056	0.002
313.15	0.1	2022	0.057	0.002
313.15	0.1	2505	0.058	0.002
313.15	0.15	91	0.057	0.002
313.15	0.15	520	0.07	0.003
313.15	0.15	1017	0.073	0.003
313.15	0.15	1504	0.074	0.003
313.15	0.15	2038	0.078	0.003
313.15	0.15	2499	0.08	0.003
313.15	0.2	90	0.062	0.003
313.15	0.2	508	0.083	0.003
313.15	0.2	1009	0.091	0.004
313.15	0.2	1516	0.093	0.004
313.15	0.2	2019	0.097	0.004
313.15	0.2	2513	0.103	0.004
313.15	0.3	91	0.078	0.003
313.15	0.3	508	0.118	0.005
313.15	0.3	1011	0.13	0.005
313.15	0.3	1525	0.133	0.006
313.15	0.3	2003	0.133	0.006
313.15	0.3	2501	0.134	0.006
