Measured thermophysical data. Viscosity and Density of Five Hydrocarbon Liquids at Pressures up to 200 MPa and Temperatures up to 473 K
Source: J. Chem. Eng. Data, 2009, 10.1021/je800417q
Compound 1: octane, C8H18, InChI=1S/C8H18/c1-3-5-7-8-6-4-2/h3-8H2,1-2H3, purity 99.5%
Compound 2: decane, C10H22, InChI=1S/C10H22/c1-3-5-7-9-10-8-6-4-2/h3-10H2,1-2H3, purity 99%
Compound 3: 1,3-dimethylbenzene, C8H10, InChI=1S/C8H10/c1-7-4-3-5-8(2)6-7/h3-6H,1-2H3, purity 99%
Compound 4: 1,2,3,4-tetrahydronaphthalene, C10H12, InChI=1S/C10H12/c1-2-6-10-8-4-3-7-9(10)5-1/h1-2,5-6H,3-4,7-8H2, purity 99%
Compound 5: 1-methylnaphthalene, C11H10, InChI=1S/C11H10/c1-9-5-4-7-10-6-2-3-8-11(9)10/h2-8H,1H3, purity 98%

System: octane; phases: Liquid
Property: Viscosity, Pa*s (Liquid); method: Vibrating wire viscometry
Temperature, K	Pressure, kPa	Viscosity, Pa*s	uncertainty
298.15	100	0.00051	1.2e-05
298.15	20900	0.000631	1.4e-05
298.15	40600	0.000753	1.6e-05
298.15	60900	0.000889	1.9e-05
298.15	80000	0.00104	2.2e-05
298.15	80100	0.00103	2.2e-05
298.15	100300	0.00119	2.5e-05
298.15	120100	0.00136	2.9e-05
298.15	139700	0.001555	3.3e-05
298.15	139900	0.00155	3.3e-05
298.15	159500	0.00175	3.7e-05
298.15	179600	0.00198	4.1e-05
298.15	197200	0.00221	4.6e-05
323.15	100	0.000387	9e-06
323.15	20100	0.000477	1.1e-05
323.15	40000	0.00057	1.3e-05
323.15	60600	0.000672	1.5e-05
323.15	80100	0.000778	1.7e-05
323.15	101000	0.000897	1.9e-05
323.15	120300	0.00101	2.2e-05
323.15	141500	0.00115	2.4e-05
323.15	141600	0.00115	2.4e-05
323.15	160300	0.00128	2.7e-05
323.15	180700	0.00144	3e-05
323.15	201800	0.00161	3.4e-05
323.15	100	0.000387	9e-06
323.15	80100	0.000781	1.7e-05
348.15	100	0.000304	8e-06
348.15	20400	0.000381	9e-06
348.15	40800	0.000457	1.1e-05
348.15	60700	0.000534	1.2e-05
348.15	80100	0.000614	1.4e-05
348.15	101000	0.000706	1.5e-05
348.15	120400	0.000794	1.7e-05
348.15	140200	0.000893	1.9e-05
348.15	140300	0.000892	1.9e-05
348.15	160700	0.000997	2.1e-05
348.15	180800	0.00111	2.4e-05
348.15	201900	0.00123	2.6e-05
348.15	100	0.000304	8e-06
348.15	80100	0.000614	1.4e-05
373.15	100	0.000245	7e-06
373.15	20600	0.000312	8e-06
373.15	39900	0.000373	9e-06
373.15	60000	0.000437	1e-05
373.15	80200	0.000503	1.1e-05
373.15	101100	0.000576	1.3e-05
373.15	120000	0.000645	1.4e-05
373.15	140900	0.000726	1.6e-05
373.15	160300	0.000804	1.7e-05
373.15	180500	0.00089	1.9e-05
373.15	200900	0.000981	2.1e-05
398.15	21600	0.000263	7e-06
398.15	42000	0.00032	8e-06
398.15	79400	0.000426	1e-05
398.15	80900	0.00043	1e-05
398.15	120900	0.00055	1.2e-05
398.15	159500	0.000674	1.5e-05
398.15	160200	0.000676	1.5e-05
398.15	192300	0.000786	1.7e-05
398.15	21600	0.000265	7e-06
423.15	21400	0.000226	6e-06
423.15	41100	0.000276	7e-06
423.15	80400	0.000372	9e-06
423.15	80700	0.000372	9e-06
423.15	121500	0.000476	1.1e-05
423.15	159700	0.000581	1.3e-05
423.15	161300	0.000587	1.3e-05
423.15	192500	0.000676	1.5e-05
423.15	21400	0.000226	6e-06
448.15	21000	0.000192	6e-06
448.15	41200	0.000239	7e-06
448.15	80500	0.000324	8e-06
448.15	81400	0.000326	8e-06
448.15	121500	0.000414	1e-05
448.15	159400	0.000504	1.1e-05
448.15	160300	0.000504	1.1e-05
448.15	193000	0.000585	1.3e-05
448.15	21000	0.000192	6e-06
473.15	19300	0.000163	5e-06
473.15	20000	0.000164	5e-06
473.15	41100	0.00021	6e-06
473.15	81100	0.000289	7e-06
473.15	81500	0.000289	7e-06
473.15	121100	0.000367	9e-06
473.15	160700	0.000448	1e-05
473.15	161300	0.000449	1e-05
473.15	193400	0.000516	1.2e-05

System: octane; phases: Liquid
Property: Mass density, kg/m3 (Liquid); method: vibrating wire
Temperature, K	Pressure, kPa	Mass density, kg/m3	uncertainty
298.15	100	698.6	1.4
298.15	20900	715.2	1.4
298.15	40600	728.3	1.5
298.15	60900	740	1.5
298.15	80000	749.6	1.5
298.15	80100	749.8	1.5
298.15	100300	759.1	1.5
298.15	120100	767.3	1.5
298.15	139700	774.8	1.6
298.15	139900	774.9	1.6
298.15	159500	782	1.6
298.15	179600	788.7	1.6
298.15	197200	794.2	1.6
323.15	100	678.2	1.4
323.15	20100	697	1.4
323.15	40000	712	1.4
323.15	60600	725	1.5
323.15	80100	735.8	1.5
323.15	101000	746.1	1.5
323.15	120300	754.7	1.5
323.15	141500	763.4	1.5
323.15	141600	763.2	1.5
323.15	160300	770.5	1.5
323.15	180700	777.7	1.6
323.15	201800	784.8	1.6
323.15	100	678.2	1.4
323.15	80100	735.6	1.5
348.15	100	657.2	1.3
348.15	20400	679.6	1.4
348.15	40800	696.7	1.4
348.15	60700	710.6	1.4
348.15	80100	722.4	1.4
348.15	101000	733.4	1.5
348.15	120400	742.7	1.5
348.15	140200	751.2	1.5
348.15	140300	751.3	1.5
348.15	160700	759.5	1.5
348.15	180800	767	1.5
348.15	201900	774.3	1.5
348.15	100	657.2	1.3
348.15	80100	722.4	1.4
373.15	100	635.3	1.3
373.15	20600	662	1.3
373.15	39900	680.4	1.4
373.15	60000	696	1.4
373.15	80200	709.3	1.4
373.15	101100	721.3	1.4
373.15	120000	730.9	1.5
373.15	140900	740.6	1.5
373.15	160300	748.8	1.5
373.15	180500	756.7	1.5
373.15	200900	764.2	1.5
398.15	21600	644.4	1.3
398.15	42000	665.9	1.3
398.15	79400	694.8	1.4
398.15	80900	695.8	1.4
398.15	120900	719	1.4
398.15	159500	736.9	1.5
398.15	160200	737.2	1.5
398.15	192300	750	1.5
398.15	21600	644.6	1.3
423.15	21400	626.8	1.3
423.15	41100	650.3	1.3
423.15	80400	683.3	1.4
423.15	80700	683.5	1.4
423.15	121500	708.6	1.4
423.15	159700	727.5	1.5
423.15	161300	728.2	1.5
423.15	192500	741.1	1.5
423.15	21400	626.9	1.3
448.15	21000	607.9	1.2
448.15	41200	635.1	1.3
448.15	80500	671	1.3
448.15	81400	671.5	1.3
448.15	121500	697.4	1.4
448.15	159400	717.1	1.4
448.15	160300	717.5	1.4
448.15	193000	732	1.5
448.15	21000	608	1.2
473.15	19300	586.4	1.2
473.15	20000	587.7	1.2
473.15	41100	620	1.2
473.15	81100	659.3	1.3
473.15	81500	659.6	1.3
473.15	121100	686.7	1.4
473.15	160700	708	1.4
473.15	161300	708.3	1.4
473.15	193400	723	1.4

System: decane; phases: Liquid
Property: Viscosity, Pa*s (Liquid); method: Vibrating wire viscometry
Temperature, K	Pressure, kPa	Viscosity, Pa*s	uncertainty
298.15	100	0.000849	1.9e-05
298.15	50100	0.001416	3e-05
298.15	50300	0.001414	3e-05
298.15	102800	0.002199	4.7e-05
298.15	150400	0.003136	6.6e-05
298.15	150500	0.003146	6.7e-05
298.15	190900	0.004185	8.8e-05
298.15	100	0.000849	1.9e-05
323.15	100	0.000607	1.4e-05
323.15	52000	0.001017	2.2e-05
323.15	52400	0.001016	2.2e-05
323.15	100700	0.001481	3.2e-05
323.15	150800	0.00208	4.4e-05
323.15	150900	0.002084	4.4e-05
323.15	191700	0.002684	5.7e-05
323.15	100	0.000607	1.4e-05
348.15	100	0.000458	1.1e-05
348.15	51000	0.000759	1.7e-05
348.15	51100	0.000758	1.7e-05
348.15	101500	0.001102	2.4e-05
348.15	149700	0.001494	3.2e-05
348.15	150900	0.001504	3.2e-05
348.15	190800	0.001893	4e-05
348.15	100	0.000459	1.1e-05
373.15	100	0.00036	9e-06
373.15	51100	0.000601	1.4e-05
373.15	51500	0.000605	1.4e-05
373.15	101700	0.000866	1.9e-05
373.15	149100	0.001152	2.5e-05
373.15	150600	0.001159	2.5e-05
373.15	190400	0.001433	3.1e-05
373.15	100	0.00036	9e-06

System: decane; phases: Liquid
Property: Mass density, kg/m3 (Liquid); method: steady state vibrating wire instrument
Temperature, K	Pressure, kPa	Mass density, kg/m3	uncertainty
298.15	100	726.6	1.5
298.15	50100	758.5	1.5
298.15	50300	759.2	1.5
298.15	102800	782.8	1.6
298.15	150400	801	1.6
298.15	150500	800.6	1.6
298.15	190900	813.3	1.6
298.15	100	726.8	1.5
323.15	100	707.4	1.4
323.15	52000	744.6	1.5
323.15	52400	745.7	1.5
323.15	100700	769.2	1.5
323.15	150800	789.1	1.6
323.15	150900	789.5	1.6
323.15	191700	803	1.6
323.15	100	707.4	1.4
348.15	100	687.7	1.4
348.15	51000	729.2	1.5
348.15	51100	730.1	1.5
348.15	101500	757	1.5
348.15	149700	777.8	1.6
348.15	150900	777.9	1.6
348.15	190800	792.2	1.6
348.15	100	687.9	1.4
373.15	100	667.6	1.3
373.15	51100	714.7	1.4
373.15	51500	715.7	1.4
373.15	101700	744.7	1.5
373.15	149100	766.7	1.5
373.15	150600	766.8	1.5
373.15	190400	782.2	1.6
373.15	100	667.5	1.3

System: 1,3-dimethylbenzene; phases: Liquid
Property: Viscosity, Pa*s (Liquid); method: Vibrating wire viscometry
Temperature, K	Pressure, kPa	Viscosity, Pa*s	uncertainty
298.15	100	0.000584	1.3e-05
298.15	40100	0.000783	1.7e-05
298.15	41000	0.000789	1.7e-05
298.15	79700	0.00101	2.2e-05
298.15	80300	0.00101	2.2e-05
298.15	80400	0.00101	2.2e-05
298.15	80800	0.00102	2.2e-05
298.15	120200	0.00128	2.8e-05
298.15	120400	0.00128	2.8e-05
298.15	159100	0.00159	3.4e-05
298.15	159400	0.00159	3.4e-05
298.15	160000	0.0016	3.4e-05
298.15	161300	0.00161	3.4e-05
298.15	191300	0.00189	4e-05
298.15	198500	0.00196	4.2e-05
298.15	100	0.000585	1.3e-05
298.15	100	0.000584	1.3e-05
298.15	100	0.000584	1.3e-05
323.15	100	0.000447	1.1e-05
323.15	41700	0.000607	1.4e-05
323.15	80500	0.000765	1.7e-05
323.15	81400	0.000771	1.7e-05
323.15	121700	0.000957	2.1e-05
323.15	159200	0.00116	2.5e-05
323.15	160000	0.00116	2.5e-05
323.15	189600	0.00134	2.9e-05
323.15	100	0.000448	1.1e-05
348.15	100	0.000355	9e-06
348.15	41400	0.000481	1.1e-05
348.15	80900	0.00061	1.4e-05
348.15	121200	0.000748	1.7e-05
348.15	158900	0.000899	2e-05
348.15	160800	0.000906	2e-05
348.15	192300	0.00104	2.3e-05
348.15	100	0.000355	9e-06
348.15	80900	0.000609	1.4e-05
373.15	100	0.000291	8e-06
373.15	41800	0.000398	1e-05
373.15	80800	0.000504	1.2e-05
373.15	81400	0.000504	1.2e-05
373.15	121100	0.000616	1.4e-05
373.15	158600	0.000731	1.6e-05
373.15	160800	0.000737	1.6e-05
373.15	191300	0.000838	1.8e-05
373.15	100	0.000291	8e-06
398.15	100	0.000241	7e-06
398.15	39700	0.000331	8e-06
398.15	79700	0.000423	1e-05
398.15	80300	0.000423	1e-05
398.15	119900	0.000526	1.2e-05
398.15	159700	0.000622	1.4e-05
398.15	160700	0.000624	1.4e-05
398.15	197100	0.000721	1.6e-05
398.15	100	0.000241	7e-06
423.15	21300	0.000249	7e-06
423.15	21800	0.00025	7e-06
423.15	40500	0.000287	7e-06
423.15	80400	0.000366	9e-06
423.15	80600	0.000366	9e-06
423.15	122200	0.00045	1.1e-05
423.15	160300	0.000531	1.2e-05
423.15	161600	0.000534	1.2e-05
423.15	195700	0.000611	1.4e-05
448.15	19900	0.000213	6e-06
448.15	20900	0.000215	6e-06
448.15	40500	0.000251	7e-06
448.15	79600	0.00032	8e-06
448.15	81000	0.000323	8e-06
448.15	120500	0.000393	9e-06
448.15	161000	0.00047	1.1e-05
448.15	162300	0.000471	1.1e-05
448.15	190700	0.000528	1.2e-05
473.15	19900	0.000187	6e-06
473.15	20100	0.000187	6e-06
473.15	40000	0.000221	6e-06
473.15	79900	0.000287	7e-06
473.15	80200	0.000287	7e-06
473.15	120800	0.000353	9e-06
473.15	163000	0.000425	1e-05
473.15	163800	0.000426	1e-05
473.15	196400	0.000483	1.1e-05

System: 1,3-dimethylbenzene; phases: Liquid
Property: Mass density, kg/m3 (Liquid); method: vibrating wire
Temperature, K	Pressure, kPa	Mass density, kg/m3	uncertainty
298.15	100	860.5	1.7
298.15	40100	885.9	1.8
298.15	41000	886.7	1.8
298.15	79700	906.3	1.8
298.15	80300	906.9	1.8
298.15	80400	906.5	1.8
298.15	80800	907.5	1.8
298.15	120200	923.5	1.9
298.15	120400	923.7	1.9
298.15	159100	938.3	1.9
298.15	159400	938.2	1.9
298.15	160000	938.3	1.9
298.15	161300	938.5	1.9
298.15	191300	948.8	1.9
298.15	198500	950.9	1.9
298.15	100	860.6	1.7
298.15	100	860.8	1.7
298.15	100	861	1.7
323.15	100	838.9	1.7
323.15	41700	868.8	1.7
323.15	80500	890.3	1.8
323.15	81400	891.8	1.8
323.15	121700	909.5	1.8
323.15	159200	924.9	1.9
323.15	160000	924.6	1.9
323.15	189600	935.3	1.9
323.15	100	838.9	1.7
348.15	100	816.4	1.6
348.15	41400	850.2	1.7
348.15	80900	874.3	1.8
348.15	121200	894.6	1.8
348.15	158900	910.9	1.8
348.15	160800	911.2	1.8
348.15	192300	923	1.9
348.15	100	816.4	1.6
348.15	80900	875.3	1.8
373.15	100	793.4	1.6
373.15	41800	832.4	1.7
373.15	80800	859.3	1.7
373.15	81400	858.7	1.7
373.15	121100	880.1	1.8
373.15	158600	897.5	1.8
373.15	160800	897.9	1.8
373.15	191300	910.2	1.8
373.15	100	793.4	1.6
389.15	100	768.4	1.5
389.15	39700	811.9	1.6
389.15	79700	841.6	1.7
389.15	80300	841.9	1.7
389.15	119900	865	1.7
389.15	159700	884.4	1.8
389.15	160700	884.8	1.8
389.15	197100	899.9	1.8
389.15	100	768.4	1.5
423.15	21300	774.2	1.6
423.15	21800	774.8	1.6
423.15	40500	794.6	1.6
423.15	80400	826.8	1.7
423.15	80600	826.8	1.7
423.15	122200	852.4	1.7
423.15	160300	871.9	1.8
423.15	161600	872.4	1.8
423.15	195700	887.5	1.8
448.15	19900	751.9	1.5
448.15	20900	753.3	1.5
448.15	40500	776.8	1.6
448.15	79600	811.4	1.6
448.15	81000	812.7	1.6
448.15	120500	838.5	1.7
448.15	161000	861.1	1.7
448.15	162300	861.2	1.7
448.15	190700	874.9	1.8
473.15	19900	730.9	1.5
473.15	20100	731.1	1.5
473.15	40000	758.5	1.5
473.15	79900	798	1.6
473.15	80200	797.5	1.6
473.15	120800	826.9	1.7
473.15	163000	851.9	1.7
473.15	163800	852.1	1.7
473.15	196400	868	1.7

System: 1,2,3,4-tetrahydronaphthalene; phases: Liquid
Property: Viscosity, Pa*s (Liquid); method: steady state vibrating wire instrument
Temperature, K	Pressure, kPa	Viscosity, Pa*s	uncertainty
298.15	100	0.00198	4.1e-05
298.15	40300	0.00292	6e-05
298.15	78600	0.004153	8.6e-05
298.15	80900	0.00424	8.7e-05
298.15	119800	0.006	0.000124
298.15	120600	0.00604	0.000125
298.15	158900	0.00849	0.000175
298.15	190200	0.0112	0.000231
298.15	100	0.00198	4.1e-05
323.15	100	0.00129	2.7e-05
323.15	39900	0.00183	3.8e-05
323.15	80300	0.00255	6.6e-05
323.15	80600	0.00255	6.6e-05
323.15	120900	0.00347	7.2e-05
323.15	121000	0.00348	7.2e-05
323.15	161200	0.004703	9.7e-05
323.15	190600	0.005833	0.00012
323.15	100	0.00129	2.7e-05
348.15	100	0.00092	1.9e-05
348.15	41000	0.00129	2.7e-05
348.15	79700	0.00173	3.6e-05
348.15	80600	0.00174	3.6e-05
348.15	119500	0.00227	4.7e-05
348.15	121700	0.00231	4.8e-05
348.15	163000	0.003027	6.2e-05
348.15	190800	0.00362	7.5e-05
348.15	100	0.000921	1.9e-05
373.15	100	0.000696	1.4e-05
373.15	40500	0.000963	2e-05
373.15	80300	0.001277	2.6e-05
373.15	81100	0.00128	2.6e-05
373.15	122500	0.00167	3.5e-05
373.15	123000	0.00168	3.5e-05
373.15	160200	0.00209	4.3e-05
373.15	190600	0.0025	5.2e-05
373.15	100	0.000696	1.4e-05
398.15	100	0.000541	1.1e-05
398.15	40500	0.000752	1.6e-05
398.15	80600	0.000989	2e-05
398.15	81800	0.001	2.1e-05
398.15	120800	0.00127	2.6e-05
398.15	159900	0.001587	3.3e-05
398.15	161000	0.00159	3.3e-05
398.15	200600	0.00197	4.1e-05
398.15	100	0.000542	1.1e-05
423.15	100	0.000438	9e-06
423.15	40500	0.00061	1.3e-05
423.15	81000	0.0008	1.7e-05
423.15	82200	0.000807	1.7e-05
423.15	120800	0.00101	2.1e-05
423.15	160800	0.00125	2.6e-05
423.15	161300	0.00125	2.6e-05
423.15	201000	0.00153	3.2e-05
423.15	100	0.000438	9e-06
448.15	100	0.000362	7e-06
448.15	40400	0.000509	1.1e-05
448.15	80400	0.000664	1.4e-05
448.15	81200	0.000667	1.4e-05
448.15	120200	0.000833	1.7e-05
448.15	160600	0.00103	2.1e-05
448.15	161200	0.00103	2.1e-05
448.15	200100	0.00124	2.6e-05
448.15	100	0.000362	7e-06

System: 1,2,3,4-tetrahydronaphthalene; phases: Liquid
Property: Mass density, kg/m3 (Liquid); method: steady state vibrating wire instrument
Temperature, K	Pressure, kPa	Mass density, kg/m3	uncertainty
298.15	100	965.8	1.9
298.15	40300	986.3	2
298.15	78600	1003	2
298.15	80900	1005	2
298.15	119800	1019	2
298.15	120600	1020	2
298.15	158900	1032	2
298.15	190200	1042	2
298.15	100	965.7	1.9
323.15	100	945.5	1.9
323.15	39900	968.5	1.9
323.15	80300	987.7	2
323.15	80600	988.7	2
323.15	120900	1005	2
323.15	121000	1004	2
323.15	161200	1019	2
323.15	190600	1028	2
323.15	100	945.6	1.9
348.15	100	925.1	1.9
348.15	41000	951.4	1.9
348.15	79700	971.3	2
348.15	80600	972.7	2
348.15	119500	988.9	2
348.15	121700	990.9	2
348.15	163000	1006	2
348.15	190800	1015	2
348.15	100	925.3	1.9
373.15	100	904.6	1.8
373.15	40500	933.9	1.9
373.15	80300	956.3	1.9
373.15	81100	957.5	1.9
373.15	122500	976.1	2
373.15	123000	977.2	2
373.15	160200	991.4	2
373.15	190600	1003	2
373.15	100	904.8	1.8
398.15	100	883.9	1.8
398.15	40500	916.9	1.8
398.15	80600	941.5	1.9
398.15	81800	942	1.9
398.15	120800	961.5	1.9
398.15	159900	978.1	2
398.15	161000	978.5	2
398.15	200600	993.3	2
398.15	100	883.9	1.8
423.15	100	863.1	1.7
423.15	40500	900	1.8
423.15	81000	926.8	1.9
423.15	82200	927.4	1.9
423.15	120800	948	1.9
423.15	160800	965.9	1.9
423.15	161300	966.1	1.9
423.15	201000	981.7	2
423.15	100	863	1.7
448.15	100	841.6	1.7
448.15	40400	883.2	1.8
448.15	80400	912	1.8
448.15	81200	912.4	1.8
448.15	120200	934.5	1.9
448.15	160600	953.7	1.9
448.15	161200	954.1	1.9
448.15	200100	970.1	1.9
448.15	100	841.6	1.7

System: 1-methylnaphthalene; phases: Liquid
Property: Viscosity, Pa*s (Liquid); method: steady state vibrating wire instrument
Temperature, K	Pressure, kPa	Viscosity, Pa*s	uncertainty
298.15	100	0.002913	6.5e-05
298.15	20500	0.00362	8.1e-05
298.15	40100	0.00443	9.9e-05
298.15	80200	0.00672	0.00015
298.15	81400	0.00678	0.000152
298.15	100100	0.00835	0.000187
298.15	121300	0.0103	0.000231
298.15	140800	0.0127	0.000284
298.15	161500	0.016	0.000358
298.15	100	0.00292	6.5e-05
298.15	121300	0.0103	0.000231
323.15	100	0.00174	3.9e-05
323.15	39600	0.00249	5.6e-05
323.15	79600	0.00351	8.2e-05
323.15	80400	0.00354	8.3e-05
323.15	120800	0.00496	0.000112
323.15	123300	0.00512	0.000115
323.15	160500	0.00702	0.000157
323.15	193000	0.00918	0.000205
323.15	100	0.00173	3.9e-05
348.15	100	0.00119	2.7e-05
348.15	40800	0.00166	3.7e-05
348.15	78900	0.00222	5.3e-05
348.15	79300	0.00224	5.3e-05
348.15	121400	0.00303	7.3e-05
348.15	121900	0.00305	7.3e-05
348.15	162200	0.00405	9.1e-05
348.15	189900	0.00493	0.00011
348.15	100	0.00119	2.7e-05
373.15	100	0.000869	1.9e-05
373.15	41500	0.0012	2.7e-05
373.15	79800	0.00157	3.6e-05
373.15	80100	0.00158	3.7e-05
373.15	120300	0.00206	4.6e-05
373.15	121700	0.00207	4.6e-05
373.15	159700	0.00263	5.9e-05
373.15	189500	0.00314	7e-05
373.15	100	0.000869	1.9e-05
398.15	100	0.000664	1.5e-05
398.15	40500	0.000905	2e-05
398.15	79700	0.00118	2.6e-05
398.15	82700	0.0012	2.7e-05
398.15	120500	0.00151	3.4e-05
398.15	160500	0.0019	4.3e-05
398.15	162900	0.00192	4.3e-05
398.15	202400	0.00239	5.3e-05
398.15	100	0.000665	1.5e-05
423.15	100	0.00053	1.2e-05
423.15	40500	0.000722	1.6e-05
423.15	81000	0.000937	2.1e-05
423.15	81900	0.000941	2.1e-05
423.15	120500	0.00117	2.6e-05
423.15	160000	0.00145	3.2e-05
423.15	161000	0.00146	3.3e-05
423.15	199700	0.00178	4e-05
423.15	100	0.00053	1.2e-05
448.15	100	0.000435	1e-05
448.15	40200	0.000592	1.3e-05
448.15	80100	0.000762	1.7e-05
448.15	81800	0.000769	1.7e-05
448.15	120700	0.000957	2.1e-05
448.15	160100	0.00116	2.6e-05
448.15	160800	0.00117	2.6e-05
448.15	200800	0.00141	3.2e-05
448.15	100	0.000435	1e-05
473.15	100	0.000364	8e-06
473.15	40600	0.000501	1.1e-05
473.15	81000	0.000645	1.4e-05
473.15	81500	0.000646	1.4e-05
473.15	121600	0.000802	1.8e-05
473.15	160800	0.000972	2.2e-05
473.15	160900	0.00097	2.2e-05
473.15	200200	0.00116	2.6e-05
473.15	100	0.000364	8e-06

System: 1-methylnaphthalene; phases: Liquid
Property: Mass density, kg/m3 (Liquid); method: steady state vibrating wire instrument
Temperature, K	Pressure, kPa	Mass density, kg/m3	uncertainty
298.15	100	1020	2
298.15	20500	1030	2
298.15	40100	1038	2
298.15	80200	1056	2
298.15	81400	1056	2
298.15	100100	1062	2
298.15	121300	1070	2
298.15	140800	1077	2
298.15	161500	1083	2
298.15	100	1020	2
298.15	121300	1071	2
323.15	100	1001	2
323.15	39600	1022	2
323.15	79600	1040	2
323.15	80400	1040	2
323.15	120800	1056	2
323.15	123300	1057	2
323.15	160500	1068	2
323.15	193000	1080	2
323.15	100	1001	2
348.15	100	981.3	2.1
348.15	40800	1005	2
348.15	78900	1025	2
348.15	79300	1024	2
348.15	121400	1043	2
348.15	121900	1042	2
348.15	162200	1057	2
348.15	189900	1066	2
348.15	100	981.3	2.1
373.15	100	962	2
373.15	41500	989	2.1
373.15	79800	1009	2
373.15	80100	1010	2
373.15	120300	1027	2
373.15	121700	1029	2
373.15	159700	1043	2
373.15	189500	1054	2
373.15	100	962	2
398.15	100	942.6	2
398.15	40500	972	2
398.15	79700	994.3	2.1
398.15	82700	995.8	2.1
398.15	120500	1014	2
398.15	160500	1030	2
398.15	162900	1031	2
398.15	202400	1045	2
398.15	100	942.7	2
423.15	100	923.1	2
423.15	40500	955.8	2
423.15	81000	980.6	2.1
423.15	81900	981	2
423.15	120500	1000	2
423.15	160000	1017	2
423.15	161000	1018	2
423.15	199700	1032	2
423.15	100	923	2
448.15	100	903.1	1.9
448.15	40200	939.4	2
448.15	80100	965.8	2.1
448.15	81800	966.7	2.1
448.15	120700	987.5	2.1
448.15	160100	1005	2
448.15	160800	1006	2
448.15	200800	1022	2
448.15	100	903.1	1.9
473.15	100	882.8	1.9
473.15	40600	923.7	2
473.15	81000	952.6	2
473.15	81500	952.9	2
473.15	121600	975.5	2.1
473.15	160800	994.2	2.1
473.15	160900	994.3	2.1
473.15	200200	1011	2
473.15	100	882.7	1.9
