Measured thermophysical data. Diffusion Coefficients of 1-Alkyl-3-methylimidazolium Ionic Liquids in Water, Methanol, and Acetonitrile at Infinite Dilution
Source: J. Chem. Eng. Data, 2009, 10.1021/je800817b
Compound 1: 1-butyl-3-methylimidazolium chloride, C8H15ClN2, InChI=1S/C8H15N2.ClH/c1-3-4-5-10-7-6-9(2)8-10;/h6-8H,3-5H2,1-2H3;1H/q+1;/p-1, purity 95%
Compound 2: 1-butyl-3-methylimidazolium tetrafluoroborate, C8H15BF4N2, InChI=1S/C8H15N2.BF4/c1-3-4-5-10-7-6-9(2)8-10;2-1(3,4)5/h6-8H,3-5H2,1-2H3;/q+1;-1, purity 97%
Compound 3: 1-ethyl-3-methylimidazolium bis((trifluoromethyl)sulfonyl)imide, C8H11F6N3O4S2, InChI=1S/C6H11N2.C2F6NO4S2/c1-3-8-5-4-7(2)6-8;3-1(4,5)14(10,11)9-15(12,13)2(6,7)8/h4-6H,3H2,1-2H3;/q+1;-1, purity 99%
Compound 4: 1-butyl-3-methylimidazolium bis(trifluoromethylsulfonyl)imide, C10H15F6N3O4S2, InChI=1S/C8H15N2.C2F6NO4S2/c1-3-4-5-10-7-6-9(2)8-10;3-1(4,5)14(10,11)9-15(12,13)2(6,7)8/h6-8H,3-5H2,1-2H3;/q+1;-1, purity 99%
Compound 5: 1-hexyl-3-methylimidazolium bis[(trifluoromethyl)sulfonyl]imide, C12H19F6N3O4S2, InChI=1S/C10H19N2.C2F6NO4S2/c1-3-4-5-6-7-12-9-8-11(2)10-12;3-1(4,5)14(10,11)9-15(12,13)2(6,7)8/h8-10H,3-7H2,1-2H3;/q+1;-1, purity 99%
Compound 6: 1-octyl-3-methylimidazolium bis[(trifluoromethyl)sulfonyl]imide, C14H23F6N3O4S2, InChI=1S/C12H23N2.C2F6NO4S2/c1-3-4-5-6-7-8-9-14-11-10-13(2)12-14;3-1(4,5)14(10,11)9-15(12,13)2(6,7)8/h10-12H,3-9H2,1-2H3;/q+1;-1, purity 99%
Compound 7: acetonitrile, C2H3N, InChI=1S/C2H3N/c1-2-3/h1H3
Compound 8: methanol, CH4O, InChI=1S/CH4O/c1-2/h2H,1H3
Compound 9: water, H2O, InChI=1S/H2O/h1H2

System: water + 1-butyl-3-methylimidazolium chloride; phases: Liquid
Fixed: Mole fraction of 1-butyl-3-methylimidazolium chloride = 0
Fixed: Pressure, kPa = 101
Property: Binary diffusion coefficient, m2/s (Liquid); method: TAYLOR:UFactor:2
Temperature, K	Binary diffusion coefficient, m2/s	uncertainty
283	8.3e-10	0.06
298	1.18e-09	0.07
303	1.32e-09	0.07
313	1.66e-09	0.08
323	2.01e-09	0.09
333	2.4e-09	0.1

System: water + 1-butyl-3-methylimidazolium tetrafluoroborate; phases: Liquid
Fixed: Mole fraction of 1-butyl-3-methylimidazolium tetrafluoroborate = 0
Fixed: Pressure, kPa = 101
Property: Binary diffusion coefficient, m2/s (Liquid); method: TAYLOR:UFactor:2
Temperature, K	Binary diffusion coefficient, m2/s	uncertainty
283	7.7e-10	0.06
298	1.14e-09	0.07
303	1.28e-09	0.07
313	1.55e-09	0.08
323	1.97e-09	0.09
333	2.26e-09	0.09

System: water + 1-ethyl-3-methylimidazolium bis((trifluoromethyl)sulfonyl)imide; phases: Liquid
Fixed: Mole fraction of 1-ethyl-3-methylimidazolium bis((trifluoromethyl)sulfonyl)imide = 0
Fixed: Pressure, kPa = 101
Property: Binary diffusion coefficient, m2/s (Liquid); method: TAYLOR:UFactor:2
Temperature, K	Binary diffusion coefficient, m2/s	uncertainty
283	6.1e-10	0.05
298	8.9e-10	0.06
303	9.8e-10	0.06
313	1.27e-09	0.07
323	1.55e-09	0.08
333	1.85e-09	0.08

System: acetonitrile + 1-ethyl-3-methylimidazolium bis((trifluoromethyl)sulfonyl)imide; phases: Liquid
Fixed: Mole fraction of 1-ethyl-3-methylimidazolium bis((trifluoromethyl)sulfonyl)imide = 0
Fixed: Pressure, kPa = 101
Property: Binary diffusion coefficient, m2/s (Liquid); method: TAYLOR:UFactor:2
Temperature, K	Binary diffusion coefficient, m2/s	uncertainty
283	1.79e-09	0.08
298	2.29e-09	0.09
313	2.78e-09	0.11
323	3.15e-09	0.12
333	3.48e-09	0.13

System: methanol + 1-ethyl-3-methylimidazolium bis((trifluoromethyl)sulfonyl)imide; phases: Liquid
Fixed: Mole fraction of 1-ethyl-3-methylimidazolium bis((trifluoromethyl)sulfonyl)imide = 0
Fixed: Pressure, kPa = 101
Property: Binary diffusion coefficient, m2/s (Liquid); method: TAYLOR:UFactor:2
Temperature, K	Binary diffusion coefficient, m2/s	uncertainty
283	1.17e-09	0.07
298	1.6e-09	0.08
313	2.03e-09	0.09
323	2.3e-09	0.09
333	2.69e-09	0.11

System: water + 1-butyl-3-methylimidazolium bis(trifluoromethylsulfonyl)imide; phases: Liquid
Fixed: Mole fraction of 1-butyl-3-methylimidazolium bis(trifluoromethylsulfonyl)imide = 0
Fixed: Pressure, kPa = 101
Property: Binary diffusion coefficient, m2/s (Liquid); method: TAYLOR:UFactor:2
Temperature, K	Binary diffusion coefficient, m2/s	uncertainty
283	6e-10	0.05
298	8.5e-10	0.06
303	9.6e-10	0.06
313	1.16e-09	0.07
323	1.47e-09	0.07
333	1.74e-09	0.08

System: acetonitrile + 1-butyl-3-methylimidazolium bis(trifluoromethylsulfonyl)imide; phases: Liquid
Fixed: Mole fraction of 1-butyl-3-methylimidazolium bis(trifluoromethylsulfonyl)imide = 0
Fixed: Pressure, kPa = 101
Property: Binary diffusion coefficient, m2/s (Liquid); method: TAYLOR:UFactor:2
Temperature, K	Binary diffusion coefficient, m2/s	uncertainty
283	1.7e-09	0.08
298	2.22e-09	0.09
313	2.7e-09	0.1
323	3.07e-09	0.12
333	3.45e-09	0.13

System: methanol + 1-butyl-3-methylimidazolium bis(trifluoromethylsulfonyl)imide; phases: Liquid
Fixed: Mole fraction of 1-butyl-3-methylimidazolium bis(trifluoromethylsulfonyl)imide = 0
Fixed: Pressure, kPa = 101
Property: Binary diffusion coefficient, m2/s (Liquid); method: TAYLOR:UFactor:2
Temperature, K	Binary diffusion coefficient, m2/s	uncertainty
283	1.11e-09	0.07
298	1.48e-09	0.07
313	1.88e-09	0.08
323	2.15e-09	0.09
333	2.43e-09	0.1

System: water + 1-hexyl-3-methylimidazolium bis[(trifluoromethyl)sulfonyl]imide; phases: Liquid
Fixed: Mole fraction of 1-hexyl-3-methylimidazolium bis[(trifluoromethyl)sulfonyl]imide = 0
Fixed: Pressure, kPa = 101
Property: Binary diffusion coefficient, m2/s (Liquid); method: TAYLOR:UFactor:2
Temperature, K	Binary diffusion coefficient, m2/s	uncertainty
283	5.8e-10	0.05
298	8.3e-10	0.06
303	9e-10	0.06
313	1.15e-09	0.07
323	1.39e-09	0.07
333	1.63e-09	0.08

System: acetonitrile + 1-hexyl-3-methylimidazolium bis[(trifluoromethyl)sulfonyl]imide; phases: Liquid
Fixed: Mole fraction of 1-hexyl-3-methylimidazolium bis[(trifluoromethyl)sulfonyl]imide = 0
Fixed: Pressure, kPa = 101
Property: Binary diffusion coefficient, m2/s (Liquid); method: TAYLOR:UFactor:2
Temperature, K	Binary diffusion coefficient, m2/s	uncertainty
283	1.67e-09	0.08
298	2.1e-09	0.09
313	2.51e-09	0.1
323	2.74e-09	0.1
333	2.99e-09	0.11

System: methanol + 1-hexyl-3-methylimidazolium bis[(trifluoromethyl)sulfonyl]imide; phases: Liquid
Fixed: Mole fraction of 1-hexyl-3-methylimidazolium bis[(trifluoromethyl)sulfonyl]imide = 0
Fixed: Pressure, kPa = 101
Property: Binary diffusion coefficient, m2/s (Liquid); method: TAYLOR:UFactor:2
Temperature, K	Binary diffusion coefficient, m2/s	uncertainty
283	1.05e-09	0.06
298	1.34e-09	0.07
313	1.64e-09	0.08
323	1.99e-09	0.09
333	2.21e-09	0.09

System: water + 1-octyl-3-methylimidazolium bis[(trifluoromethyl)sulfonyl]imide; phases: Liquid
Fixed: Mole fraction of 1-octyl-3-methylimidazolium bis[(trifluoromethyl)sulfonyl]imide = 0
Fixed: Pressure, kPa = 101
Property: Binary diffusion coefficient, m2/s (Liquid); method: TAYLOR:UFactor:2
Temperature, K	Binary diffusion coefficient, m2/s	uncertainty
283	5.7e-10	0.05
298	8.1e-10	0.06
303	8.7e-10	0.06
313	1.05e-09	0.06
323	1.31e-09	0.07
333	1.47e-09	0.07

System: acetonitrile + 1-octyl-3-methylimidazolium bis[(trifluoromethyl)sulfonyl]imide; phases: Liquid
Fixed: Mole fraction of 1-octyl-3-methylimidazolium bis[(trifluoromethyl)sulfonyl]imide = 0
Fixed: Pressure, kPa = 101
Property: Binary diffusion coefficient, m2/s (Liquid); method: TAYLOR:UFactor:2
Temperature, K	Binary diffusion coefficient, m2/s	uncertainty
283	1.62e-09	0.08
298	2e-09	0.08
313	2.31e-09	0.09
323	2.57e-09	0.1
333	2.86e-09	0.11

System: methanol + 1-octyl-3-methylimidazolium bis[(trifluoromethyl)sulfonyl]imide; phases: Liquid
Fixed: Mole fraction of 1-octyl-3-methylimidazolium bis[(trifluoromethyl)sulfonyl]imide = 0
Fixed: Pressure, kPa = 101
Property: Binary diffusion coefficient, m2/s (Liquid); method: TAYLOR:UFactor:2
Temperature, K	Binary diffusion coefficient, m2/s	uncertainty
283	9.9e-10	0.06
298	1.32e-09	0.07
313	1.59e-09	0.07
323	1.83e-09	0.08
333	2.12e-09	0.09
