Measured thermophysical data. Viscosity and Surface Tension of 1-Ethanol-3-methylimidazolium Tetrafluoroborate and 1-Methyl-3-octylimidazolium Tetrafluoroborate over a Wide Temperature Range
Source: J. Chem. Eng. Data, 2009, 10.1021/je800727f
Compound 1: 1-(2-hydroxyethyl)-3-methylimidazolium tetrafluoroborate, C6H11BF4N2O, InChI=1S/C6H11N2O.BF4/c1-7-2-3-8(6-7)4-5-9;2-1(3,4)5/h2-3,6,9H,4-5H2,1H3;/q+1;-1
Compound 2: 1-methyl-3-octylimidazolium tetrafluoroborate, C12H23BF4N2, InChI=1S/C12H23N2.BF4/c1-3-4-5-6-7-8-9-14-11-10-13(2)12-14;2-1(3,4)5/h10-12H,3-9H2,1-2H3;/q+1;-1

System: 1-(2-hydroxyethyl)-3-methylimidazolium tetrafluoroborate; phases: Liquid, Air at 1 atmosphere
Property: Surface tension liquid-gas, N/m (Liquid); method: DROPSH:UFactor:4
Temperature, K	Surface tension liquid-gas, N/m	uncertainty
572	0.0647	0.0024
577.78	0.0646	0.0024
587.55	0.064	0.0024
597.81	0.0635	0.0024
607.58	0.0627	0.0023
626.51	0.0617	0.0023
645.35	0.0599	0.0022
665.48	0.0591	0.0022
684.42	0.0575	0.0022
703.95	0.0564	0.0021
725.28	0.0554	0.0021
743.71	0.0536	0.002

System: 1-(2-hydroxyethyl)-3-methylimidazolium tetrafluoroborate; phases: Liquid
Fixed: Pressure, kPa = 101.325
Property: Viscosity, Pa*s (Liquid); method: dissipative quartz crystal microbalance from KSV (QCMZ500)
Temperature, K	Viscosity, Pa*s	uncertainty
293.15	1.554	0.272
298.15	0.974	0.17
308.15	0.477	0.083
318.15	0.257	0.045
328.15	0.156	0.014

System: 1-(2-hydroxyethyl)-3-methylimidazolium tetrafluoroborate; phases: Liquid
Fixed: Pressure, kPa = 101.325
Property: Mass density, kg/m3 (Liquid); method: VIBTUB:UFactor:12
Temperature, K	Mass density, kg/m3	uncertainty
298.15	1308	4.1
303.15	1304.7	4
308.15	1301.4	4
313.15	1296.1	4
318.15	1294.7	4
323.15	1291.5	4
328.15	1288.3	4

System: 1-methyl-3-octylimidazolium tetrafluoroborate; phases: Liquid, Air at 1 atmosphere
Property: Surface tension liquid-gas, N/m (Liquid); method: DROPSH:UFactor:4
Temperature, K	Surface tension liquid-gas, N/m	uncertainty
570.95	0.0327	0.0014
586.35	0.0324	0.0014
606.62	0.0313	0.0013
625.26	0.0302	0.0013
646.29	0.0281	0.0012
665.98	0.0277	0.0012
685.41	0.0272	0.0012
704.75	0.0253	0.0011
724.78	0.0245	0.0011
743.71	0.0237	0.0011

System: 1-methyl-3-octylimidazolium tetrafluoroborate; phases: Liquid
Fixed: Pressure, kPa = 101.325
Property: Viscosity, Pa*s (Liquid); method: dissipative quartz crystal microbalance from KSV (QCMZ500)
Temperature, K	Viscosity, Pa*s	uncertainty
293.15	0.413	0.071
298.15	0.325	0.057
308.15	0.205	0.035
318.15	0.129	0.012
328.15	0.086	0.007

System: 1-methyl-3-octylimidazolium tetrafluoroborate; phases: Liquid
Fixed: Pressure, kPa = 101.325
Property: Mass density, kg/m3 (Liquid); method: VIBTUB:UFactor:12
Temperature, K	Mass density, kg/m3	uncertainty
298.15	1100.5	3.3
308.15	1093.7	3.2
318.15	1087.1	3.2
328.15	1080.5	3.2
