Measured thermophysical data. High Temperature and High Pressure Volumetric (Density and Apparent Molar Volumes) Properties of (CaCl2 + C2H5OH) Solutions
Source: J. Chem. Eng. Data, 2009, 10.1021/je800234h
Compound 1: calcium chloride, CaCl2, InChI=1S/Ca.2ClH/h;2*1H/q+2;;/p-2, purity 99.8%
Compound 2: ethanol, C2H6O, InChI=1S/C2H6O/c1-2-3/h3H,2H2,1H3, purity 99.8%

System: ethanol + calcium chloride; phases: Liquid
Property: Mass density, kg/m3 (Liquid); method: Vibrating tube method
Molality, mol/kg of calcium chloride	Temperature, K	Pressure, kPa	Mass density, kg/m3	uncertainty
0.09327	298.15	480	793.4	0.35
0.09327	298.15	5060	797.34	0.36
0.09327	298.15	10030	801.45	0.37
0.09327	298.15	15470	805.77	0.39
0.09327	298.15	20640	809.69	0.41
0.09327	298.15	25390	813.15	0.43
0.09327	298.15	30190	816.48	0.44
0.09327	298.15	35640	820.09	0.47
0.09327	298.15	39920	822.78	0.48
0.09327	323.15	150	771.32	0.34
0.09327	323.15	5240	776.5	0.36
0.09327	323.15	10340	781.44	0.37
0.09327	323.15	15780	786.43	0.4
0.09327	323.15	20980	790.93	0.42
0.09327	323.15	25680	794.77	0.44
0.09327	323.15	30390	798.4	0.46
0.09327	323.15	35870	802.35	0.48
0.09327	323.15	39860	805.04	0.5
0.09327	348.15	750	748.39	0.34
0.09327	348.15	5620	754.25	0.36
0.09327	348.15	10820	760.15	0.38
0.09327	348.15	15380	765.02	0.4
0.09327	348.15	20430	770.09	0.42
0.09327	348.15	25160	774.52	0.45
0.09327	348.15	30480	779.14	0.47
0.09327	348.15	35410	783.08	0.5
0.09327	348.15	39260	785.92	0.52
0.09327	373.15	370	722.5	0.33
0.09327	373.15	5180	729.16	0.35
0.09327	373.15	10480	736.08	0.38
0.09327	373.15	15720	742.49	0.41
0.09327	373.15	20280	747.72	0.43
0.09327	373.15	25670	753.48	0.46
0.09327	373.15	30290	758.06	0.49
0.09327	373.15	35420	762.76	0.52
0.09327	373.15	39910	766.53	0.54
0.09327	398.15	680	692.59	0.33
0.09327	398.15	5100	700.41	0.35
0.09327	398.15	10080	708.63	0.38
0.09327	398.15	15410	716.75	0.41
0.09327	398.15	20030	723.21	0.44
0.09327	398.15	25060	729.63	0.48
0.09327	398.15	30170	735.52	0.51
0.09327	398.15	35180	740.65	0.54
0.09327	398.15	39920	744.93	0.57
0.17427	298.15	280	800.14	0.35
0.17427	298.15	6580	804.98	0.36
0.17427	298.15	11330	808.85	0.38
0.17427	298.15	15720	812.29	0.39
0.17427	298.15	20490	815.89	0.41
0.17427	298.15	25820	819.73	0.42
0.17427	298.15	31460	823.58	0.44
0.17427	298.15	35340	826.11	0.46
0.17427	298.15	40180	829.13	0.48
0.17427	323.15	240	777.83	0.34
0.17427	323.15	5060	782.74	0.35
0.17427	323.15	10480	787.98	0.37
0.17427	323.15	15620	792.67	0.39
0.17427	323.15	20640	796.99	0.41
0.17427	323.15	25870	801.22	0.43
0.17427	323.15	30380	804.64	0.45
0.17427	323.15	35920	808.56	0.48
0.17427	323.15	39940	811.21	0.49
0.17427	348.15	890	755.18	0.34
0.17427	348.15	5090	760.16	0.35
0.17427	348.15	10480	766.21	0.37
0.17427	348.15	15760	771.77	0.4
0.17427	348.15	20480	776.42	0.42
0.17427	348.15	25620	781.15	0.44
0.17427	348.15	30420	785.25	0.47
0.17427	348.15	35860	789.53	0.49
0.17427	348.15	39970	792.5	0.51
0.17427	373.15	680	728.72	0.33
0.17427	373.15	5060	735.26	0.35
0.17427	373.15	10740	743.09	0.38
0.17427	373.15	15250	748.79	0.4
0.17427	373.15	20640	754.98	0.43
0.17427	373.15	25180	759.68	0.45
0.17427	373.15	30410	764.51	0.48
0.17427	373.15	35870	768.88	0.51
0.17427	373.15	39740	771.57	0.54
0.17427	398.15	1030	700.75	0.33
0.17427	398.15	5070	707.51	0.35
0.17427	398.15	10540	716.08	0.38
0.17427	398.15	15290	722.99	0.41
0.17427	398.15	20140	729.54	0.44
0.17427	398.15	24980	735.56	0.47
0.17427	398.15	30780	742.1	0.51
0.17427	398.15	35460	746.84	0.54
0.17427	398.15	39790	750.79	0.56
0.43788	298.15	1020	820.65	0.35
0.43788	298.15	5030	824.03	0.36
0.43788	298.15	10450	828.43	0.37
0.43788	298.15	15480	832.33	0.39
0.43788	298.15	20460	836.02	0.4
0.43788	298.15	25750	839.75	0.42
0.43788	298.15	30640	843.03	0.43
0.43788	298.15	35830	846.33	0.45
0.43788	298.15	39970	848.83	0.46
0.43788	323.15	450	798.42	0.35
0.43788	323.15	4980	802.82	0.36
0.43788	323.15	9780	807.29	0.37
0.43788	323.15	15060	811.96	0.39
0.43788	323.15	20040	816.13	0.4
0.43788	323.15	24870	819.96	0.42
0.43788	323.15	30020	823.82	0.44
0.43788	323.15	35150	827.42	0.46
0.43788	323.15	39760	830.46	0.47
0.43788	348.15	620	774.92	0.34
0.43788	348.15	5130	780.06	0.35
0.43788	348.15	10240	785.57	0.37
0.43788	348.15	15310	790.73	0.39
0.43788	348.15	20840	796.01	0.41
0.43788	348.15	25040	799.76	0.43
0.43788	348.15	30730	804.51	0.45
0.43788	348.15	35150	807.92	0.47
0.43788	348.15	39380	810.96	0.49
0.43788	373.15	940	749.01	0.34
0.43788	373.15	5170	754.76	0.35
0.43788	373.15	10480	761.55	0.37
0.43788	373.15	15190	767.19	0.4
0.43788	373.15	20160	772.75	0.42
0.43788	373.15	25130	777.9	0.44
0.43788	373.15	30240	782.77	0.47
0.43788	373.15	35370	787.22	0.49
0.43788	373.15	39260	790.31	0.51
0.43788	398.15	950	719.54	0.33
0.43788	398.15	5380	726.88	0.35
0.43788	398.15	10290	734.49	0.38
0.43788	398.15	15610	742.12	0.41
0.43788	398.15	20480	748.53	0.43
0.43788	398.15	25340	754.4	0.46
0.43788	398.15	30060	759.57	0.49
0.43788	398.15	35180	764.61	0.51
0.43788	398.15	39380	768.3	0.54
0.68992	298.15	1170	839.86	0.36
0.68992	298.15	5010	843.06	0.36
0.68992	298.15	11050	847.88	0.38
0.68992	298.15	15120	850.99	0.39
0.68992	298.15	20130	854.64	0.4
0.68992	298.15	25310	858.24	0.41
0.68992	298.15	30120	861.41	0.42
0.68992	298.15	34210	863.97	0.43
0.68992	298.15	39770	867.27	0.44
0.68992	323.15	1060	817.18	0.35
0.68992	323.15	5300	821.26	0.36
0.68992	323.15	10180	825.76	0.37
0.68992	323.15	15370	830.3	0.39
0.68992	323.15	20640	834.66	0.4
0.68992	323.15	25390	838.36	0.41
0.68992	323.15	30180	841.89	0.43
0.68992	323.15	35760	845.73	0.45
0.68992	323.15	39940	848.42	0.46
0.68992	348.15	750	792.97	0.34
0.68992	348.15	5080	797.87	0.36
0.68992	348.15	10410	803.58	0.37
0.68992	348.15	14890	808.11	0.39
0.68992	348.15	20060	813.01	0.4
0.68992	348.15	25740	818.02	0.42
0.68992	348.15	30610	821.98	0.44
0.68992	348.15	35640	825.77	0.46
0.68992	348.15	39490	828.45	0.47
0.68992	373.15	870	766.95	0.34
0.68992	373.15	5150	772.7	0.35
0.68992	373.15	10740	779.75	0.37
0.68992	373.15	15210	785.01	0.39
0.68992	373.15	20860	791.16	0.42
0.68992	373.15	25840	796.14	0.44
0.68992	373.15	30150	800.1	0.45
0.68992	373.15	35840	804.85	0.48
0.68992	373.15	39940	807.94	0.5
0.68992	398.15	970	737.62	0.33
0.68992	398.15	5160	744.53	0.35
0.68992	398.15	10020	752.01	0.37
0.68992	398.15	15240	759.43	0.4
0.68992	398.15	20620	766.4	0.43
0.68992	398.15	25890	772.57	0.45
0.68992	398.15	30140	777.06	0.47
0.68992	398.15	35940	782.51	0.5
0.68992	398.15	39290	785.29	0.52
0.98955	298.15	670	861.73	0.36
0.98955	298.15	6330	866.36	0.37
0.98955	298.15	10830	869.87	0.38
0.98955	298.15	15090	873.05	0.39
0.98955	298.15	20020	876.57	0.39
0.98955	298.15	25130	880.03	0.4
0.98955	298.15	30110	883.22	0.41
0.98955	298.15	35510	886.47	0.42
0.98955	298.15	39860	888.93	0.43
0.98955	323.15	1570	839.21	0.36
0.98955	323.15	5160	842.61	0.36
0.98955	323.15	10890	847.78	0.38
0.98955	323.15	15420	851.64	0.38
0.98955	323.15	20060	855.4	0.4
0.98955	323.15	25080	859.23	0.41
0.98955	323.15	30450	863.05	0.42
0.98955	323.15	35210	866.21	0.43
0.98955	323.15	39960	869.15	0.44
0.98955	348.15	580	814.32	0.35
0.98955	348.15	5060	819.3	0.36
0.98955	348.15	10310	824.81	0.37
0.98955	348.15	15210	829.63	0.39
0.98955	348.15	20670	834.64	0.4
0.98955	348.15	25940	839.09	0.42
0.98955	348.15	30860	842.93	0.43
0.98955	348.15	35370	846.17	0.44
0.98955	348.15	39970	849.2	0.46
0.98955	373.15	920	788.74	0.34
0.98955	373.15	5040	794.18	0.36
0.98955	373.15	10740	801.21	0.37
0.98955	373.15	15360	806.48	0.39
0.98955	373.15	20750	812.16	0.41
0.98955	373.15	25940	817.13	0.43
0.98955	373.15	30160	820.83	0.44
0.98955	373.15	35870	825.32	0.46
0.98955	373.15	39960	828.19	0.48
0.98955	398.15	1060	760.33	0.34
0.98955	398.15	5070	766.76	0.35
0.98955	398.15	10540	774.89	0.37
0.98955	398.15	15290	781.35	0.39
0.98955	398.15	20410	787.68	0.42
0.98955	398.15	25080	792.89	0.44
0.98955	398.15	30740	798.47	0.46
0.98955	398.15	35970	802.93	0.48
0.98955	398.15	39860	805.8	0.5
1.26564	298.15	260	881.44	0.37
1.26564	298.15	5060	885.32	0.37
1.26564	298.15	10850	889.78	0.38
1.26564	298.15	14860	892.71	0.39
1.26564	298.15	20080	896.35	0.39
1.26564	298.15	25410	899.86	0.4
1.26564	298.15	30060	902.74	0.41
1.26564	298.15	35910	906.14	0.41
1.26564	298.15	39980	908.34	0.42
1.26564	323.15	310	857.3	0.36
1.26564	323.15	5070	861.31	0.37
1.26564	323.15	10060	865.4	0.38
1.26564	323.15	15410	869.66	0.38
1.26564	323.15	19980	873.2	0.39
1.26564	323.15	24860	876.87	0.4
1.26564	323.15	30070	880.67	0.41
1.26564	323.15	35160	884.27	0.42
1.26564	323.15	39870	887.49	0.43
1.26564	348.15	270	833.32	0.35
1.26564	348.15	5060	837.99	0.36
1.26564	348.15	10450	843.06	0.37
1.26564	348.15	15840	847.95	0.39
1.26564	348.15	19980	851.59	0.4
1.26564	348.15	25060	855.9	0.41
1.26564	348.15	30610	860.42	0.42
1.26564	348.15	35480	864.22	0.43
1.26564	348.15	39960	867.59	0.44
1.26564	373.15	420	808.17	0.35
1.26564	373.15	4980	813.49	0.36
1.26564	373.15	9780	818.85	0.37
1.26564	373.15	15260	824.65	0.39
1.26564	373.15	20030	829.44	0.4
1.26564	373.15	25410	834.54	0.42
1.26564	373.15	29980	838.62	0.43
1.26564	373.15	35070	842.89	0.44
1.26564	373.15	39970	846.74	0.46
1.26564	398.15	620	780.71	0.34
1.26564	398.15	5180	786.93	0.36
1.26564	398.15	10060	793.27	0.37
1.26564	398.15	15620	800.09	0.39
1.26564	398.15	20080	805.26	0.41
1.26564	398.15	25640	811.31	0.43
1.26564	398.15	30030	815.79	0.44
1.26564	398.15	35740	821.22	0.47
1.26564	398.15	39920	824.91	0.48
1.55045	298.15	210	901.58	0.37
1.55045	298.15	5020	905.41	0.38
1.55045	298.15	10410	909.48	0.38
1.55045	298.15	15240	912.94	0.39
1.55045	298.15	20260	916.34	0.39
1.55045	298.15	25010	919.38	0.4
1.55045	298.15	30420	922.62	0.4
1.55045	298.15	35050	925.22	0.41
1.55045	298.15	39960	927.8	0.41
1.55045	323.15	520	876.88	0.37
1.55045	323.15	5120	881.08	0.37
1.55045	323.15	10740	885.92	0.38
1.55045	323.15	15020	889.39	0.39
1.55045	323.15	20420	893.5	0.39
1.55045	323.15	25310	896.97	0.4
1.55045	323.15	30140	900.16	0.41
1.55045	323.15	35620	903.49	0.41
1.55045	323.15	39980	905.92	0.42
1.55045	348.15	310	852.87	0.36
1.55045	348.15	5210	858.12	0.37
1.55045	348.15	10160	863.08	0.38
1.55045	348.15	15680	868.22	0.39
1.55045	348.15	20640	872.48	0.39
1.55045	348.15	25190	876.08	0.4
1.55045	348.15	30750	880.1	0.41
1.55045	348.15	35290	883.06	0.42
1.55045	348.15	39880	885.77	0.43
1.55045	373.15	390	828.22	0.35
1.55045	373.15	5140	834.25	0.36
1.55045	373.15	10150	840.15	0.37
1.55045	373.15	15290	845.7	0.39
1.55045	373.15	20140	850.48	0.4
1.55045	373.15	25750	855.45	0.41
1.55045	373.15	30140	858.93	0.42
1.55045	373.15	35480	862.67	0.43
1.55045	373.15	39970	865.39	0.44
1.55045	398.15	740	801.26	0.35
1.55045	398.15	5470	808.33	0.36
1.55045	398.15	10460	815.02	0.37
1.55045	398.15	15620	821.29	0.39
1.55045	398.15	20140	826.33	0.4
1.55045	398.15	25340	831.69	0.42
1.55045	398.15	30470	836.6	0.43
1.55045	398.15	35830	841.39	0.45
1.55045	398.15	39760	844.7	0.46
