Measured thermophysical data. Densities, Viscosities, and Liquid Diffusivities in Aqueous Piperazine and Aqueous (Piperazine + N-Methyldiethanolamine) Solutions
Source: J. Chem. Eng. Data, 2008, 10.1021/je800031p
Compound 1: piperazine, C4H10N2, InChI=1S/C4H10N2/c1-2-6-4-3-5-1/h5-6H,1-4H2
Compound 2: N-methyldiethanolamine, C5H13NO2, InChI=1S/C5H13NO2/c1-6(2-4-7)3-5-8/h7-8H,2-5H2,1H3
Compound 3: water, H2O, InChI=1S/H2O/h1H2
Compound 4: methanol, CH4O, InChI=1S/CH4O/c1-2/h2H,1H3

System: methanol + water; phases: Liquid
Fixed: Pressure, kPa = 101
Fixed: Mole fraction of methanol = 0
Property: Binary diffusion coefficient, m2/s (Liquid); method: TAYLOR:UFactor:2
Temperature, K	Binary diffusion coefficient, m2/s	uncertainty
298.15	1.55e-09	0.17
313.15	2.39e-09	0.26
333.15	3.58e-09	0.73
353.15	4.68e-09	0.95
363.15	5.39e-09	1.09

System: methanol + water; phases: Liquid
Fixed: Pressure, kPa = 101
Fixed: Temperature, K = 308.15
Property: Binary diffusion coefficient, m2/s (Liquid); method: TAYLOR:UFactor:2
Mole fraction of methanol	Binary diffusion coefficient, m2/s	uncertainty
0	1.89e-09	0.2
0.01	1.81e-09	0.19
0.1	1.51e-09	0.16
0.2	1.31e-09	0.14
0.3	1.26e-09	0.14
0.4	1.18e-09	0.13
0.5	1.27e-09	0.14
0.6	1.36e-09	0.15
0.8	1.91e-09	0.2
1	2.62e-09	0.28

System: piperazine + water; phases: Liquid
Fixed: Pressure, kPa = 101
Property: Binary diffusion coefficient, m2/s (Liquid); method: TAYLOR:UFactor:2
Temperature, K	Amount concentration (molarity), mol/dm3 of piperazine	Binary diffusion coefficient, m2/s	uncertainty
293.15	0.008	7.57e-10	0.05
293.15	0.284	6.6e-10	0.05
293.15	0.602	6.17e-10	0.045
293.15	0.907	5.6e-10	0.04
293.15	1.46	5.11e-10	0.04
298.15	0.008	8.89e-10	0.056
298.15	0.285	7.62e-10	0.051
298.15	0.602	7.14e-10	0.049
298.15	0.908	6.66e-10	0.047
298.15	1.46	6.07e-10	0.044
303.15	0.009	1.01e-09	0.06
303.15	0.285	8.7e-10	0.06
303.15	0.602	7.99e-10	0.052
303.15	0.908	7.54e-10	0.05
303.15	1.46	7.15e-10	0.049
313.15	0.001	1.27e-09	0.07
313.15	0.285	1.11e-09	0.06
313.15	0.603	1.05e-09	0.06
313.15	0.91	9.72e-10	0.059
313.15	1.46	9.48e-10	0.058
333.15	0.001	1.83e-09	0.09
333.15	0.285	1.66e-09	0.09
333.15	0.604	1.59e-09	0.08
333.15	0.913	1.52e-09	0.08
333.15	1.47	1.41e-09	0.08
353.15	0.001	2.47e-09	0.12
353.15	0.287	2.36e-09	0.12
353.15	0.605	2.24e-09	0.11
353.15	0.915	2.15e-09	0.11
353.15	1.47	2.01e-09	0.1
368.15	0.002	3.06e-09	0.14
368.15	0.287	2.89e-09	0.14
368.15	0.606	2.82e-09	0.13
368.15	0.917	2.6e-09	0.1
368.15	1.48	2.59e-09	0.13

System: N-methyldiethanolamine + piperazine + water; phases: Liquid
Fixed: Pressure, kPa = 101
Property: Viscosity, Pa*s (Liquid); method: Capillary tube (Ostwald; Ubbelohde) method
Temperature, K	Amount concentration (molarity), mol/dm3 of N-methyldiethanolamine	Amount concentration (molarity), mol/dm3 of piperazine	Viscosity, Pa*s	uncertainty
293.15	1	0	0.001576	4.1e-05
293.15	1	0.25	0.001779	4.7e-05
293.15	1	0.5	0.002003	5.5e-05
293.15	1	0.75	0.00228	6.5e-05
293.15	1	1	0.00263	7.8e-05
293.15	2	0	0.00268	9.1e-05
293.15	2	0.25	0.003082	0.000105
293.15	2	0.5	0.003566	0.000125
293.15	2	0.75	0.004087	0.000154
293.15	2	1	0.004728	0.000209
293.15	3	0	0.004786	0.000241
293.15	3	0.25	0.005559	0.000271
293.15	3	0.5	0.006529	0.000331
293.15	3	0.75	0.007966	0.000421
293.15	3	1	0.0091	0.000573
293.15	4	0	0.009553	0.000439
293.15	4	0.25	0.01089	0.000517
293.15	4	0.5	0.01306	0.000639
293.15	4	0.75	0.01625	0.000792
293.15	4	1	0.01965	0.000998
298.15	1	0	0.00139	3.5e-05
298.15	1	0.25	0.001534	4e-05
298.15	1	0.5	0.001719	4.6e-05
298.15	1	0.75	0.00196	5.4e-05
298.15	1	1	0.002194	6.3e-05
298.15	2	0	0.002288	7.2e-05
298.15	2	0.25	0.002599	8.5e-05
298.15	2	0.5	0.002992	0.0001
298.15	2	0.75	0.003426	0.000121
298.15	2	1	0.003905	0.00015
298.15	3	0	0.003948	0.000188
298.15	3	0.25	0.00458	0.00021
298.15	3	0.5	0.005329	0.00025
298.15	3	0.75	0.006431	0.000321
298.15	3	1	0.00723	0.000401
298.15	4	0	0.007782	0.00036
298.15	4	0.25	0.008642	0.0004
298.15	4	0.5	0.01015	0.000488
298.15	4	0.75	0.01277	0.000611
298.15	4	1	0.01506	0.000782
303.15	1	0	0.001224	3e-05
303.15	1	0.25	0.001341	3.4e-05
303.15	1	0.5	0.001498	3.9e-05
303.15	1	0.75	0.00168	4.5e-05
303.15	1	1	0.001866	5.3e-05
303.15	2	0	0.001971	6.1e-05
303.15	2	0.25	0.002235	7.2e-05
303.15	2	0.5	0.002532	8.2e-05
303.15	2	0.75	0.002901	0.000136
303.15	2	1	0.003265	0.000121
303.15	3	0	0.003317	0.000148
303.15	3	0.25	0.0039	0.000168
303.15	3	0.5	0.004385	0.000196
303.15	3	1	0.005882	0.000302
303.15	4	0	0.006212	0.000289
303.15	4	0.25	0.006991	0.000309
303.15	4	0.5	0.008118	0.000375
303.15	4	0.75	0.009796	0.000524
303.15	4	1	0.01174	0.000611
313.15	1	0	0.000987	2.4e-05
313.15	1	0.25	0.001053	2.6e-05
313.15	1	0.5	0.001164	2.9e-05
313.15	1	0.75	0.001296	3.4e-05
313.15	1	1	0.001444	3.9e-05
313.15	2	0	0.001497	4.4e-05
313.15	2	0.25	0.001675	5e-05
313.15	2	0.5	0.001777	5.6e-05
313.15	2	0.75	0.002121	6.9e-05
313.15	2	1	0.002378	8.3e-05
313.15	3	0	0.002415	0.0001
313.15	3	0.25	0.002749	0.000112
313.15	3	0.5	0.003118	0.000131
313.15	3	0.75	0.003645	0.000158
313.15	3	1	0.004043	0.000195
313.15	4	0	0.004292	0.000197
313.15	4	0.25	0.004785	0.00021
313.15	4	0.5	0.005426	0.000245
313.15	4	0.75	0.00646	0.000296
313.15	4	1	0.007558	0.000398
323.15	1	0	0.000793	1.9e-05
323.15	1	0.25	0.000856	2.1e-05
323.15	1	0.5	0.000932	2.3e-05
323.15	1	0.75	0.001043	2.6e-05
323.15	1	1	0.001127	2.9e-05
323.15	2	0	0.001182	3.3e-05
323.15	2	0.25	0.001311	3.8e-05
323.15	2	0.5	0.001474	4.3e-05
323.15	2	0.75	0.001618	4.9e-05
323.15	2	1	0.001798	5.9e-05
323.15	3	0	0.001838	7.2e-05
323.15	3	0.25	0.002057	7.8e-05
323.15	3	0.5	0.002311	8.9e-05
323.15	3	0.75	0.002648	0.000105
323.15	3	1	0.002913	0.000132
323.15	4	0	0.003149	0.000127
323.15	4	0.25	0.003398	0.000137
323.15	4	0.5	0.003843	0.000156
323.15	4	0.75	0.004421	0.000184
323.15	4	1	0.005198	0.000228

System: N-methyldiethanolamine + piperazine + water; phases: Liquid
Fixed: Pressure, kPa = 101
Property: Mass density, kg/m3 (Liquid); method: VIBTUB:UFactor:12
Temperature, K	Amount concentration (molarity), mol/dm3 of N-methyldiethanolamine	Amount concentration (molarity), mol/dm3 of piperazine	Mass density, kg/m3	uncertainty
293.15	1	0	1008.67	0.7
293.15	1	0.25	1010.12	0.71
293.15	1	0.5	1011.41	0.72
293.15	1	0.75	1013.04	0.73
293.15	1	1	1014.45	0.74
293.15	2	0	1020.1	0.89
293.15	2	0.25	1021.69	0.89
293.15	2	0.5	1023.48	0.9
293.15	2	0.75	1024.98	0.91
293.15	2	1	1026.53	0.91
293.15	3	0	1032.14	1.09
293.15	3	0.25	1032.91	1.08
293.15	3	0.5	1034.37	1.08
293.15	3	0.75	1035.94	1.09
293.15	3	1	1037.24	1.09
293.15	4	0	1042.47	1.26
293.15	4	0.25	1043.56	1.28
293.15	4	0.5	1044.73	1.28
293.15	4	0.75	1046.36	1.28
293.15	4	1	1047.85	1.29
298.15	1	0	1007.14	0.69
298.15	1	0.25	1008.48	0.7
298.15	1	0.5	1009.76	0.71
298.15	1	0.75	1011.29	0.71
298.15	1	1	1012.61	0.72
298.15	2	0	1018.87	0.87
298.15	2	0.25	1019.68	0.88
298.15	2	0.5	1021.31	0.88
298.15	2	0.75	1022.67	0.88
298.15	2	1	1024.2	0.9
298.15	3	0	1028.97	1.05
298.15	3	0.25	1030.42	1.06
298.15	3	0.5	1031.82	1.05
298.15	3	1	1034.86	1.07
298.15	4	0	1039.68	1.26
298.15	4	0.25	1040.58	1.25
298.15	4	0.5	1041.71	1.24
298.15	4	0.75	1043.27	1.26
298.15	4	1	1044.61	1.25
303.15	1	0	1005.56	0.68
303.15	1	0.25	1006.8	0.68
303.15	1	0.5	1007.88	0.69
303.15	1	0.75	1009.42	0.7
303.15	1	1	1010.68	0.71
303.15	2	0	1016.09	0.85
303.15	2	0.25	1017.47	0.86
303.15	2	0.5	1019.05	0.87
303.15	2	0.75	1020.36	0.87
303.15	2	1	1021.83	0.88
303.15	3	0	1026.49	1.04
303.15	3	0.25	1027.76	1.05
303.15	3	0.5	1029.26	1.04
303.15	3	1	1031.96	1.05
303.15	4	0	1036.64	1.23
303.15	4	0.25	1038.36	1.23
303.15	4	0.5	1039.27	1.22
303.15	4	0.75	1040.64	1.23
303.15	4	1	1041.92	1.21
313.15	1	0	1001.56	0.66
313.15	1	0.25	1003.41	0.66
313.15	1	0.5	1003.81	0.67
313.15	1	0.75	1005.05	0.68
313.15	1	1	1006.22	0.68
313.15	2	0	1011.33	0.81
313.15	2	0.25	1012.71	0.81
313.15	2	0.5	1014.11	0.83
313.15	2	0.75	1015.21	0.84
313.15	2	1	1016.31	0.84
313.15	3	0	1020.97	0.99
313.15	3	0.25	1022.22	0.98
313.15	3	0.5	1023.46	0.97
313.15	3	0.75	1025.05	0.98
313.15	3	1	1025.86	0.98
313.15	4	0	1030.46	1.16
313.15	4	0.25	1030.98	1.14
313.15	4	0.5	1031.89	1.13
313.15	4	0.75	1033.11	1.11
313.15	4	1	1034.12	1.13
323.15	1	0	996.91	0.66
323.15	1	0.25	997.6	0.65
323.15	1	0.5	999.05	0.65
323.15	1	0.75	1000.24	0.65
323.15	1	1	1001.25	0.65
323.15	2	0	1006.2	0.78
323.15	2	0.25	1007.42	0.79
323.15	2	0.5	1008.71	0.79
323.15	2	0.75	1009.59	0.8
323.15	2	1	1010.68	0.8
323.15	3	0	1015.02	0.94
323.15	3	0.25	1016.11	0.92
323.15	3	0.5	1017.31	0.92
323.15	3	0.75	1018.71	0.93
323.15	3	1	1019.45	0.93
323.15	4	0	1024.04	1.12
323.15	4	0.25	1024.21	1.08
323.15	4	0.5	1025.01	1.06
323.15	4	0.75	1026.05	1.04
323.15	4	1	1026.91	1.05
