Measured thermophysical data. Gas-Liquid Equilibrium Data for the Mixture Gas of Sulfur Dioxide/Nitrogen with Ethylene Glycol at Temperatures from (298.15 to 313.15) K under Low Pressures
Source: J. Chem. Eng. Data, 2008, 10.1021/je800117x
Compound 1: 1,2-ethanediol, C2H6O2, InChI=1S/C2H6O2/c3-1-2-4/h3-4H,1-2H2, purity 98%
Compound 2: sulfur dioxide, O2S, InChI=1S/O2S/c1-3-2, purity 99%

System: 1,2-ethanediol + sulfur dioxide; phases: Liquid, Gas
Property: Mass concentration, kg/m3 of sulfur dioxide (Liquid); method: titration
Temperature, K	Pressure, kPa of sulfur dioxide	Mass concentration, kg/m3 of sulfur dioxide	uncertainty
298.15	0.00321	0.0492	0.0248
298.15	0.00453	0.0176	0.0035
298.15	0.00668	0.0255	0.0051
298.15	0.0112	0.0215	0.0043
298.15	0.0123	0.0338	0.0068
298.15	0.0141	0.0405	0.0081
298.15	0.016	0.0461	0.0092
298.15	0.0191	0.0539	0.0108
298.15	0.0212	0.0561	0.0112
298.15	0.024	0.0617	0.0123
298.15	0.0247	0.0695	0.0139
298.15	0.0247	0.0673	0.0135
298.15	0.0265	0.0718	0.0144
298.15	0.0264	0.0707	0.0141
298.15	0.0275	0.0774	0.0155
298.15	0.0314	0.0785	0.0157
298.15	0.0347	0.0896	0.0179
298.15	0.0381	0.093	0.0186
298.15	0.0405	0.104	0.021
298.15	0.0468	0.114	0.023
298.15	0.0492	0.134	0.027
298.15	0.0513	0.148	0.03
298.15	0.054	0.142	0.028
298.15	0.0556	0.144	0.029
298.15	0.0575	0.148	0.03
298.15	0.0591	0.156	0.031
298.15	0.0724	0.17	0.034
298.15	0.0736	0.171	0.034
298.15	0.0757	0.176	0.035
298.15	0.0854	0.215	0.043
298.15	0.0862	0.222	0.044
298.15	0.0934	0.256	0.051
298.15	0.096	0.268	0.054
298.15	0.101	0.307	0.061
298.15	0.103	0.318	0.064
298.15	0.107	0.344	0.069
298.15	0.00582	0.0211	0.0042
298.15	0.00738	0.0246	0.0049
298.15	0.00946	0.0299	0.006
298.15	0.0116	0.0351	0.007
298.15	0.0143	0.0369	0.0074
298.15	0.0169	0.0448	0.009
298.15	0.0185	0.0518	0.0104
298.15	0.0278	0.0562	0.0112
298.15	0.0307	0.0641	0.0128
298.15	0.0343	0.0738	0.0148
298.15	0.0382	0.0808	0.0162
298.15	0.0422	0.0834	0.0167
298.15	0.0447	0.0913	0.0183
298.15	0.0483	0.106	0.021
298.15	0.0526	0.114	0.023
298.15	0.0578	0.124	0.025
298.15	0.0637	0.133	0.027
298.15	0.0675	0.148	0.03
298.15	0.0743	0.159	0.032
298.15	0.0801	0.183	0.037
298.15	0.0896	0.219	0.044
298.15	0.0921	0.237	0.047
298.15	0.0998	0.254	0.051
298.15	0.101	0.286	0.057
298.15	0.104	0.35	0.07
298.15	0.11	0.392	0.078
298.15	0.00337	0.0211	0.0055
298.15	0.0052	0.0202	0.004
298.15	0.0112	0.0342	0.0068
298.15	0.0168	0.0439	0.0088
298.15	0.0172	0.0597	0.0119
298.15	0.0227	0.043	0.0086
298.15	0.0243	0.0562	0.0112
298.15	0.0302	0.0696	0.0139
298.15	0.0352	0.0773	0.0155
298.15	0.0391	0.0878	0.0176
298.15	0.0433	0.0983	0.0197
298.15	0.0443	0.0976	0.0195
298.15	0.0481	0.107	0.021
298.15	0.0559	0.119	0.024
298.15	0.0609	0.128	0.026
298.15	0.0652	0.133	0.027
298.15	0.0708	0.151	0.03
298.15	0.0772	0.168	0.034
298.15	0.0784	0.167	0.033
298.15	0.0839	0.194	0.039
298.15	0.0879	0.23	0.046
298.15	0.0917	0.247	0.049
298.15	0.0967	0.25	0.05
298.15	0.102	0.272	0.054
298.15	0.106	0.289	0.058
298.15	0.107	0.292	0.058
298.15	0.111	0.327	0.065
298.15	0.116	0.357	0.071
298.15	0.00534	0.0211	0.0042
298.15	0.00964	0.028	0.0056
298.15	0.0128	0.0323	0.0065
298.15	0.0206	0.0463	0.0093
298.15	0.0215	0.0491	0.0098
298.15	0.0271	0.0638	0.0128
298.15	0.0367	0.0779	0.0156
298.15	0.0407	0.0863	0.0173
298.15	0.0467	0.0996	0.0199
298.15	0.0534	0.112	0.022
298.15	0.0623	0.126	0.025
298.15	0.0679	0.134	0.027
298.15	0.0779	0.158	0.032
298.15	0.0798	0.163	0.033
298.15	0.0874	0.19	0.038
298.15	0.089	0.198	0.04
298.15	0.0925	0.196	0.039
298.15	0.0999	0.23	0.046
298.15	0.105	0.27	0.054
298.15	0.109	0.284	0.057
298.15	0.115	0.301	0.06
298.15	0.118	0.322	0.064
298.15	0.12	0.344	0.069
298.15	0.12	0.345	0.069
298.15	0.00343	0.0153	0.0043
298.15	0.00579	0.0176	0.0035
298.15	0.00886	0.0216	0.0043
298.15	0.0162	0.041	0.0082
298.15	0.0241	0.0522	0.0104
298.15	0.0274	0.055	0.011
298.15	0.0343	0.0647	0.0129
298.15	0.0433	0.0835	0.0167
298.15	0.0503	0.0904	0.0181
298.15	0.0561	0.1	0.02
298.15	0.0639	0.115	0.023
298.15	0.073	0.134	0.027
298.15	0.0731	0.132	0.026
298.15	0.0755	0.145	0.029
298.15	0.0793	0.157	0.031
298.15	0.0883	0.182	0.036
298.15	0.0936	0.199	0.04
298.15	0.0977	0.228	0.046
298.15	0.103	0.237	0.047
298.15	0.105	0.245	0.049
298.15	0.108	0.28	0.056
298.15	0.114	0.31	0.062
298.15	0.119	0.338	0.068
298.15	0.122	0.376	0.075
303.15	0.00594	0.0276	0.0055
303.15	0.0132	0.0328	0.0066
303.15	0.0171	0.0357	0.0071
303.15	0.0234	0.0495	0.0099
303.15	0.0346	0.0646	0.0129
303.15	0.0346	0.064	0.0128
303.15	0.042	0.0871	0.0174
303.15	0.0454	0.0929	0.0186
303.15	0.0495	0.102	0.02
303.15	0.0533	0.108	0.022
303.15	0.0572	0.125	0.025
303.15	0.0588	0.129	0.026
303.15	0.0638	0.141	0.028
303.15	0.076	0.155	0.031
303.15	0.0795	0.171	0.034
303.15	0.0801	0.171	0.034
303.15	0.0816	0.182	0.036
303.15	0.0881	0.196	0.039
303.15	0.092	0.217	0.043
303.15	0.096	0.243	0.049
303.15	0.1	0.252	0.05
303.15	0.00716	0.0682	0.0341
303.15	0.0137	0.0362	0.0072
303.15	0.0172	0.0397	0.0079
303.15	0.0265	0.0518	0.0104
303.15	0.0298	0.057	0.0114
303.15	0.0323	0.0622	0.0124
303.15	0.0348	0.0668	0.0134
303.15	0.0448	0.0859	0.0172
303.15	0.0517	0.0928	0.0186
303.15	0.059	0.106	0.021
303.15	0.0632	0.117	0.023
303.15	0.0636	0.112	0.022
303.15	0.0688	0.13	0.026
303.15	0.0758	0.143	0.029
303.15	0.0779	0.158	0.032
303.15	0.0826	0.161	0.032
303.15	0.0895	0.185	0.037
303.15	0.0951	0.201	0.04
303.15	0.0979	0.208	0.042
303.15	0.104	0.235	0.047
303.15	0.107	0.258	0.052
303.15	0.00852	0.0347	0.0069
303.15	0.0127	0.0405	0.0081
303.15	0.0146	0.0463	0.0093
303.15	0.0212	0.0526	0.0105
303.15	0.0271	0.0642	0.0128
303.15	0.0359	0.0798	0.016
303.15	0.0362	0.0815	0.0163
303.15	0.042	0.0925	0.0185
303.15	0.0536	0.102	0.02
303.15	0.0664	0.117	0.023
303.15	0.0694	0.126	0.025
303.15	0.0734	0.127	0.025
303.15	0.0746	0.128	0.026
303.15	0.0801	0.146	0.029
303.15	0.0867	0.164	0.033
303.15	0.089	0.166	0.033
303.15	0.0972	0.191	0.038
303.15	0.102	0.208	0.042
303.15	0.108	0.212	0.042
303.15	0.00588	0.015	0.003
303.15	0.0134	0.0208	0.0042
303.15	0.0202	0.03	0.006
303.15	0.0327	0.0468	0.0094
303.15	0.0367	0.0416	0.0083
303.15	0.045	0.0532	0.0106
303.15	0.0535	0.0693	0.0139
303.15	0.06	0.0809	0.0162
303.15	0.0731	0.1	0.02
303.15	0.0782	0.0913	0.0183
303.15	0.0831	0.107	0.021
303.15	0.0842	0.11	0.022
303.15	0.0924	0.128	0.026
303.15	0.103	0.151	0.03
303.15	0.105	0.172	0.034
303.15	0.115	0.207	0.041
303.15	0.117	0.21	0.042
303.15	0.121	0.23	0.046
303.15	0.123	0.252	0.05
303.15	0.0083	0.0285	0.0057
303.15	0.00875	0.0216	0.0043
303.15	0.0163	0.032	0.0064
303.15	0.0274	0.0412	0.0082
303.15	0.0407	0.0563	0.0113
303.15	0.049	0.0725	0.0145
303.15	0.045	0.0713	0.0143
303.15	0.063	0.0852	0.017
303.15	0.0665	0.0944	0.0189
303.15	0.0698	0.099	0.0198
303.15	0.0783	0.107	0.021
303.15	0.0838	0.118	0.024
303.15	0.0918	0.135	0.027
303.15	0.098	0.161	0.032
303.15	0.102	0.182	0.036
303.15	0.107	0.193	0.039
303.15	0.114	0.213	0.043
303.15	0.119	0.241	0.048
303.15	0.12	0.25	0.05
308.15	0.00202	0.018	0.0036
308.15	0.009	0.0416	0.0083
308.15	0.0178	0.0529	0.0106
308.15	0.0197	0.0539	0.0108
308.15	0.0242	0.0636	0.0127
308.15	0.0282	0.0609	0.0122
308.15	0.0331	0.0668	0.0134
308.15	0.0405	0.0749	0.015
308.15	0.046	0.0829	0.0166
308.15	0.0492	0.0845	0.0169
308.15	0.0546	0.0872	0.0174
308.15	0.0601	0.0931	0.0186
308.15	0.0616	0.102	0.02
308.15	0.069	0.112	0.022
308.15	0.0771	0.126	0.025
308.15	0.0836	0.141	0.028
308.15	0.0866	0.152	0.03
308.15	0.088	0.158	0.032
308.15	0.0922	0.169	0.034
308.15	0.0954	0.194	0.039
308.15	0.0974	0.196	0.039
308.15	0.0998	0.201	0.04
308.15	0.00389	0.032	0.0064
308.15	0.00909	0.0331	0.0066
308.15	0.0163	0.0379	0.0076
308.15	0.0205	0.0465	0.0093
308.15	0.0235	0.0491	0.0098
308.15	0.0266	0.0604	0.0121
308.15	0.0368	0.0776	0.0155
308.15	0.0433	0.091	0.0182
308.15	0.051	0.102	0.02
308.15	0.058	0.109	0.022
308.15	0.0602	0.116	0.023
308.15	0.0687	0.124	0.025
308.15	0.0747	0.131	0.026
308.15	0.0773	0.14	0.028
308.15	0.0826	0.157	0.031
308.15	0.0855	0.167	0.033
308.15	0.0876	0.205	0.041
308.15	0.0911	0.199	0.04
308.15	0.095	0.206	0.041
308.15	0.1	0.226	0.045
308.15	0.103	0.243	0.049
308.15	0.105	0.254	0.051
308.15	0.109	0.275	0.055
308.15	0.00218	0.0211	0.0042
308.15	0.00322	0.0237	0.0047
308.15	0.00559	0.0341	0.0068
308.15	0.013	0.0518	0.0104
308.15	0.0237	0.0564	0.0113
308.15	0.0295	0.0731	0.0146
308.15	0.0308	0.0679	0.0136
308.15	0.039	0.0788	0.0158
308.15	0.0459	0.0848	0.017
308.15	0.0518	0.1	0.02
308.15	0.0569	0.117	0.023
308.15	0.0588	0.119	0.024
308.15	0.0665	0.12	0.024
308.15	0.0699	0.131	0.026
308.15	0.0721	0.132	0.026
308.15	0.0769	0.157	0.031
308.15	0.0834	0.166	0.033
308.15	0.0851	0.182	0.036
308.15	0.0897	0.203	0.041
308.15	0.0945	0.219	0.044
308.15	0.0981	0.237	0.047
308.15	0.101	0.258	0.052
308.15	0.104	0.279	0.056
308.15	0.00242	0.00649	0.0013
308.15	0.00301	0.0107	0.0021
308.15	0.00621	0.0133	0.0027
308.15	0.0105	0.0237	0.0047
308.15	0.0113	0.0231	0.0046
308.15	0.0157	0.033	0.0066
308.15	0.0223	0.0445	0.0089
308.15	0.0285	0.0575	0.0115
308.15	0.0359	0.0684	0.0137
308.15	0.0452	0.0809	0.0162
308.15	0.0456	0.0767	0.0153
308.15	0.0524	0.0877	0.0175
308.15	0.0581	0.097	0.0194
308.15	0.066	0.124	0.025
308.15	0.0664	0.109	0.022
308.15	0.0737	0.128	0.026
308.15	0.0746	0.131	0.026
308.15	0.0835	0.145	0.029
308.15	0.0873	0.163	0.033
308.15	0.092	0.186	0.037
308.15	0.094	0.194	0.039
308.15	0.0972	0.206	0.041
308.15	0.101	0.217	0.043
308.15	0.102	0.248	0.05
308.15	0.106	0.269	0.054
308.15	0.108	0.268	0.054
308.15	0.11	0.278	0.056
308.15	0.114	0.289	0.058
308.15	0.115	0.292	0.058
308.15	0.116	0.298	0.06
308.15	0.00193	0.00545	0.0011
308.15	0.00476	0.0133	0.0027
308.15	0.00925	0.0414	0.0083
308.15	0.0129	0.032	0.0064
308.15	0.0168	0.0455	0.0091
308.15	0.0217	0.0497	0.0099
308.15	0.0225	0.0507	0.0101
308.15	0.0287	0.0596	0.0119
308.15	0.0357	0.0731	0.0146
308.15	0.0368	0.0762	0.0152
308.15	0.0436	0.0908	0.0182
308.15	0.0497	0.0991	0.0198
308.15	0.0553	0.11	0.022
308.15	0.0579	0.114	0.023
308.15	0.0634	0.128	0.026
308.15	0.068	0.138	0.028
308.15	0.073	0.16	0.032
308.15	0.0757	0.168	0.034
308.15	0.0794	0.188	0.038
308.15	0.0822	0.206	0.041
308.15	0.102	0.225	0.045
308.15	0.107	0.252	0.05
308.15	0.108	0.258	0.052
308.15	0.112	0.275	0.055
308.15	0.114	0.295	0.059
308.15	0.117	0.307	0.061
308.15	0.119	0.324	0.065
313.15	0.0009	0.00469	0.00102
313.15	0.00669	0.0219	0.0044
313.15	0.0123	0.0323	0.0065
313.15	0.0151	0.038	0.0076
313.15	0.0174	0.0396	0.0079
313.15	0.0208	0.0474	0.0095
313.15	0.0245	0.0541	0.0108
313.15	0.0303	0.0645	0.0129
313.15	0.0308	0.0749	0.015
313.15	0.0368	0.0801	0.016
313.15	0.0428	0.089	0.0178
313.15	0.0455	0.108	0.022
313.15	0.0486	0.0984	0.0197
313.15	0.0512	0.116	0.023
313.15	0.0574	0.126	0.025
313.15	0.0608	0.146	0.029
313.15	0.0636	0.135	0.027
313.15	0.0637	0.139	0.028
313.15	0.0687	0.15	0.03
313.15	0.07	0.152	0.03
313.15	0.0711	0.158	0.032
313.15	0.0723	0.159	0.032
313.15	0.0773	0.177	0.035
313.15	0.0818	0.21	0.042
313.15	0.084	0.198	0.04
313.15	0.0858	0.224	0.045
313.15	0.0883	0.238	0.048
313.15	0.0906	0.252	0.05
313.15	0.0909	0.255	0.051
313.15	0.0932	0.267	0.053
313.15	0.0027	0.0143	0.0029
313.15	0.00222	0.0126	0.0025
313.15	0.00514	0.0144	0.0029
313.15	0.00522	0.0137	0.0027
313.15	0.00663	0.0194	0.0039
313.15	0.0103	0.0298	0.006
313.15	0.0124	0.0309	0.0062
313.15	0.0152	0.0372	0.0074
313.15	0.0222	0.0464	0.0093
313.15	0.0305	0.0556	0.0111
313.15	0.0302	0.0568	0.0114
313.15	0.0351	0.0608	0.0122
313.15	0.0368	0.0711	0.0142
313.15	0.0457	0.0848	0.017
313.15	0.0515	0.094	0.0188
313.15	0.057	0.111	0.022
313.15	0.0642	0.119	0.024
313.15	0.0695	0.128	0.026
313.15	0.0748	0.161	0.032
313.15	0.0797	0.185	0.037
313.15	0.085	0.202	0.04
313.15	0.0889	0.224	0.045
313.15	0.0908	0.227	0.045
313.15	0.0938	0.254	0.051
313.15	0.0964	0.266	0.053
313.15	0.0022	0.00851	0.0017
313.15	0.0119	0.0257	0.0051
313.15	0.0145	0.0338	0.0068
313.15	0.015	0.0355	0.0071
313.15	0.0172	0.0372	0.0074
313.15	0.0257	0.051	0.0102
313.15	0.0261	0.059	0.0118
313.15	0.0424	0.086	0.0172
313.15	0.0486	0.0883	0.0177
313.15	0.0608	0.103	0.021
313.15	0.0644	0.118	0.024
313.15	0.0687	0.123	0.025
313.15	0.0755	0.145	0.029
313.15	0.0775	0.154	0.031
313.15	0.0822	0.161	0.032
313.15	0.0839	0.169	0.034
313.15	0.0868	0.19	0.038
313.15	0.089	0.175	0.035
313.15	0.0916	0.203	0.041
313.15	0.0925	0.218	0.044
313.15	0.097	0.242	0.048
313.15	0.0998	0.254	0.051
313.15	0.1	0.268	0.054
313.15	0.103	0.276	0.055
313.15	0.104	0.281	0.056
313.15	0.104	0.283	0.057
313.15	0.0006	0.0188	0.0038
313.15	0.00296	0.02	0.004
313.15	0.00861	0.0303	0.0061
313.15	0.0105	0.034	0.0068
313.15	0.0119	0.0382	0.0076
313.15	0.013	0.04	0.008
313.15	0.0157	0.0424	0.0085
313.15	0.0218	0.0527	0.0105
313.15	0.029	0.0612	0.0122
313.15	0.0256	0.0752	0.015
313.15	0.0312	0.0788	0.0158
313.15	0.0372	0.0958	0.0192
313.15	0.0434	0.103	0.021
313.15	0.0536	0.12	0.024
313.15	0.0625	0.137	0.027
313.15	0.0661	0.145	0.029
313.15	0.0677	0.156	0.031
313.15	0.0731	0.171	0.034
313.15	0.0764	0.181	0.036
313.15	0.0801	0.2	0.04
313.15	0.085	0.212	0.042
313.15	0.0901	0.241	0.048
313.15	0.0927	0.265	0.053
313.15	0.0975	0.291	0.058
313.15	0.1	0.299	0.06
313.15	0.00087	0.0166	0.0033
313.15	0.00214	0.0223	0.0045
313.15	0.00373	0.0229	0.0046
313.15	0.00895	0.0292	0.0058
313.15	0.00591	0.0223	0.0045
313.15	0.00617	0.0234	0.0047
313.15	0.00879	0.0303	0.0061
313.15	0.0102	0.0395	0.0079
313.15	0.0132	0.0366	0.0073
313.15	0.0168	0.0453	0.0091
313.15	0.0217	0.0567	0.0113
313.15	0.0231	0.0585	0.0117
313.15	0.0284	0.0694	0.0139
313.15	0.0336	0.0808	0.0162
313.15	0.0471	0.1	0.02
313.15	0.0594	0.119	0.024
313.15	0.054	0.111	0.022
313.15	0.0625	0.126	0.025
313.15	0.0693	0.145	0.029
313.15	0.0738	0.155	0.031
313.15	0.0793	0.182	0.036
313.15	0.0812	0.188	0.038
313.15	0.0855	0.217	0.043
313.15	0.0883	0.223	0.045
313.15	0.0942	0.241	0.048
313.15	0.0964	0.258	0.052
313.15	0.0986	0.274	0.055
313.15	0.102	0.28	0.056
313.15	0.105	0.284	0.057
313.15	0.107	0.312	0.062
313.15	0.109	0.324	0.065
