Measured thermophysical data. Liquid-Liquid Equilibria for [C8mim][NTf2] + Thiophene + 2,2,4-Trimethylpentane or + Toluene
Source: J. Chem. Eng. Data, 2008, 10.1021/je800071q
Compound 1: 2,2,4-trimethylpentane, C8H18, InChI=1S/C8H18/c1-7(2)6-8(3,4)5/h7H,6H2,1-5H3, purity 99.5%
Compound 2: toluene, C7H8, InChI=1S/C7H8/c1-7-5-3-2-4-6-7/h2-6H,1H3, purity 99.5%
Compound 3: thiophene, C4H4S, InChI=1S/C4H4S/c1-2-4-5-3-1/h1-4H, purity 99.5%
Compound 4: 1-octyl-3-methylimidazolium bis[(trifluoromethyl)sulfonyl]imide, C14H23F6N3O4S2, InChI=1S/C12H23N2.C2F6NO4S2/c1-3-4-5-6-7-8-9-14-11-10-13(2)12-14;3-1(4,5)14(10,11)9-15(12,13)2(6,7)8/h10-12H,3-9H2,1-2H3;/q+1;-1

System: 2,2,4-trimethylpentane; phases: Liquid
Property: Refractive index (Na D-line) (Liquid); method: Standard Abbe refractometry
Temperature, K	Pressure, kPa	Refractive index (Na D-line)	uncertainty
298.1	101.325	1.38921	0.00041

System: 2,2,4-trimethylpentane; phases: Liquid
Property: Mass density, kg/m3 (Liquid); method: Vibrating tube method
Temperature, K	Pressure, kPa	Mass density, kg/m3	uncertainty
298.1	101.325	687.84	0.23

System: 2,2,4-trimethylpentane; phases: Liquid
Property: Viscosity, Pa*s (Liquid); method: Capillary tube (Ostwald; Ubbelohde) method
Temperature, K	Pressure, kPa	Viscosity, Pa*s	uncertainty
298.15	101.325	0.000871	1.1e-05

System: toluene; phases: Liquid
Property: Refractive index (Na D-line) (Liquid); method: Standard Abbe refractometry
Temperature, K	Pressure, kPa	Refractive index (Na D-line)	uncertainty
298.1	101.325	1.49393	0.00041

System: toluene; phases: Liquid
Property: Mass density, kg/m3 (Liquid); method: Vibrating tube method
Temperature, K	Pressure, kPa	Mass density, kg/m3	uncertainty
298.1	101.325	862.2	0.16

System: toluene; phases: Liquid
Property: Viscosity, Pa*s (Liquid); method: Capillary tube (Ostwald; Ubbelohde) method
Temperature, K	Pressure, kPa	Viscosity, Pa*s	uncertainty
298.15	101.325	0.000577	7e-06

System: thiophene; phases: Liquid
Property: Refractive index (Na D-line) (Liquid); method: Standard Abbe refractometry
Temperature, K	Pressure, kPa	Refractive index (Na D-line)	uncertainty
298.1	101.325	1.5253	0.00041

System: thiophene; phases: Liquid
Property: Mass density, kg/m3 (Liquid); method: Vibrating tube method
Temperature, K	Pressure, kPa	Mass density, kg/m3	uncertainty
298.1	101.325	1058.59	0.14

System: thiophene; phases: Liquid
Property: Viscosity, Pa*s (Liquid); method: Capillary tube (Ostwald; Ubbelohde) method
Temperature, K	Pressure, kPa	Viscosity, Pa*s	uncertainty
298.15	101.325	0.000612	7e-06

System: 1-octyl-3-methylimidazolium bis[(trifluoromethyl)sulfonyl]imide; phases: Liquid
Property: Refractive index (Na D-line) (Liquid); method: ABBE:UFactor:2
Temperature, K	Pressure, kPa	Refractive index (Na D-line)	uncertainty
298.1	101.325	1.4327	0.00089

System: 1-octyl-3-methylimidazolium bis[(trifluoromethyl)sulfonyl]imide; phases: Liquid
Property: Mass density, kg/m3 (Liquid); method: VIBTUB:UFactor:12
Temperature, K	Pressure, kPa	Mass density, kg/m3	uncertainty
298.1	101.325	1319.78	4.27

System: 1-octyl-3-methylimidazolium bis[(trifluoromethyl)sulfonyl]imide; phases: Liquid
Property: Viscosity, Pa*s (Liquid); method: CAPTUB:UFactor:4
Temperature, K	Pressure, kPa	Viscosity, Pa*s	uncertainty
298.15	101.325	0.09037	0.00484

System: toluene + thiophene + 1-octyl-3-methylimidazolium bis[(trifluoromethyl)sulfonyl]imide; phases: Liquid mixture 1, Liquid mixture 2
Fixed: Temperature, K = 298.15
Fixed: Pressure, kPa = 101
Property: Mole fraction of thiophene (Liquid mixture 1); method: CHROM:UFactor:8
Property: Mole fraction of 1-octyl-3-methylimidazolium bis[(trifluoromethyl)sulfonyl]imide (Liquid mixture 2); method: CHROM:UFactor:8
Property: Mole fraction of thiophene (Liquid mixture 2); method: CHROM:UFactor:8
Mole fraction of 1-octyl-3-methylimidazolium bis[(trifluoromethyl)sulfonyl]imide	Mole fraction of thiophene	uncertainty	Mole fraction of 1-octyl-3-methylimidazolium bis[(trifluoromethyl)sulfonyl]imide	uncertainty	Mole fraction of thiophene	uncertainty
0.065	0.935	0.005				
0.774	0	0.001	0.001	0.001	0	
0.66	0.135	0.008	0.003	0.001	0.074	
0.572	0.237	0.015	0.002	0.001	0.257	
0.441	0.393	0.024	0.006	0.001	0.159	
0.317	0.525	0.029	0	0.001	0.381	
0.22	0.64	0.022	0.001	0.001	0.475	
0.163	0.716	0.018	0.002	0.001	0.571	
0.135	0.758	0.015	0	0.001	0.727	
0.106	0.804	0.012	0	0.001	0.834	
0.074	0.89	0.007	0	0.001	1	

System: thiophene + 2,2,4-trimethylpentane + 1-octyl-3-methylimidazolium bis[(trifluoromethyl)sulfonyl]imide; phases: Liquid mixture 1, Liquid mixture 2
Fixed: Temperature, K = 298.15
Fixed: Pressure, kPa = 101
Property: Mole fraction of thiophene (Liquid mixture 1); method: CHROM:UFactor:8
Property: Mole fraction of 1-octyl-3-methylimidazolium bis[(trifluoromethyl)sulfonyl]imide (Liquid mixture 2); method: CHROM:UFactor:8
Property: Mole fraction of thiophene (Liquid mixture 2); method: CHROM:UFactor:8
Mole fraction of 1-octyl-3-methylimidazolium bis[(trifluoromethyl)sulfonyl]imide	Mole fraction of thiophene	uncertainty	Mole fraction of 1-octyl-3-methylimidazolium bis[(trifluoromethyl)sulfonyl]imide	uncertainty	Mole fraction of thiophene	uncertainty
0.774	0	0.001	0.001	0.001	0	
0.66	0.135	0.008	0.003	0.001	0.044	
0.572	0.237	0.015	0.002	0.001	0.089	
0.441	0.393	0.024	0.006	0.001	0.193	
0.317	0.525	0.029	0	0.001	0.328	
0.22	0.64	0.022	0.001	0.001	0.482	
0.163	0.716	0.018	0.002	0.001	0.639	
0.135	0.758	0.015	0	0.001	0.74	
0.106	0.804	0.012	0	0.001	0.835	
0.074	0.89	0.007	0	0.001	0.957	
0.065	0.935	0.005	0	0.001	1	
