Measured thermophysical data. Measurement and Correlation of Solubility of Uracil in Supercritical Carbon Dioxide
Source: J. Chem. Eng. Data, 2008, 10.1021/je800614u
Compound 1: 2,4(1H,3H)-pyrimidinedione, C4H4N2O2, InChI=1S/C4H4N2O2/c7-3-1-2-5-4(8)6-3/h1-2H,(H2,5,6,7,8)
Compound 2: carbon dioxide, CO2, InChI=1S/CO2/c2-1-3

System: 2,4(1H,3H)-pyrimidinedione + carbon dioxide; phases: Fluid (supercritical or subcritical phases), Crystal
Property: Mole fraction of 2,4(1H,3H)-pyrimidinedione (Fluid (supercritical or subcritical phases)); method: Chromatography
Temperature, K	Pressure, kPa	Mole fraction of 2,4(1H,3H)-pyrimidinedione	uncertainty
308.15	15000	7.69e-09	2.94e-09
308.15	20000	1.635e-08	6.2e-09
308.15	25000	2.501e-08	9.45e-09
308.15	30000	2.999e-08	1.132e-08
308.15	35000	3.506e-08	1.324e-08
308.15	40000	4.15e-08	1.567e-08
318.15	15000	9.67e-09	3.76e-09
318.15	20000	2.435e-08	9.22e-09
318.15	25000	3.464e-08	1.313e-08
318.15	30000	5.356e-08	2.023e-08
318.15	35000	5.964e-08	2.249e-08
318.15	40000	6.55e-08	2.491e-08
328.15	15000	9.32e-09	3.69e-09
328.15	20000	2.801e-08	1.064e-08
328.15	25000	4.391e-08	1.666e-08
328.15	30000	6.828e-08	2.6e-08
328.15	35000	1.0763e-07	4.08e-08
328.15	40000	1.3447e-07	5.067e-08
338.15	15000	8.78e-09	3.94e-09
338.15	20000	4.434e-08	1.683e-08
338.15	25000	6.032e-08	2.282e-08
338.15	30000	8.643e-08	3.273e-08
338.15	35000	1.168e-07	4.421e-08
338.15	40000	1.498e-07	5.666e-08
