Measured thermophysical data. Speeds of Sound in Fluid Ammonia to 3.8 GPa and 680 K
Source: J. Chem. Eng. Data, 2008, 10.1021/je800312g
Compound 1: ammonia, H3N, InChI=1S/H3N/h1H3

System: ammonia; phases: Fluid (supercritical or subcritical phases)
Property: Speed of sound, m/s (Fluid (supercritical or subcritical phases)); method: Impulsive stimulated scattering
Temperature, K	Pressure, kPa	Speed of sound, m/s	uncertainty
297	620000	2741	12
297	700000	2836	12
297	780000	2942	12
297	880000	3023	12
297	970000	3113	13
297	780000	2932	12
298	370000	2376	11
298	740000	2903	12
474	1430000	3280	13
476	1550000	3375	14
476	2200000	3788	15
477	1090000	2954	12
479	2220000	3797	18
678	2920000	4000	16
678	3080000	4072	16
678	3140000	4103	17
679	1480000	3084	13
679	2440000	3740	15
679	3750000	4342	17
680	1350000	2982	12
680	1350000	2970	12
