Measured thermophysical data. Physicochemical Properties of Aqueous Hydroxylamine Sulfate and Aqueous (Hydroxylamine Sulfate + Ammonium Sulfate) Solutions at Different Temperatures
Source: J. Chem. Eng. Data, 2009, 10.1021/je8008649
Compound 1: hydroxylammonium hydrogen sulfate, H5NO5S, InChI=1S/H3NO.H2O4S/c1-2;1-5(2,3)4/h2H,1H2;(H2,1,2,3,4), purity 99.5%
Compound 2: ammonium sulfate, H8N2O4S, InChI=1S/2H3N.H2O4S/c;;1-5(2,3)4/h2*1H3;(H2,1,2,3,4), purity 99.9%
Compound 3: water, H2O, InChI=1S/H2O/h1H2, purity 99.9%

System: water + hydroxylammonium hydrogen sulfate; phases: Liquid
Fixed: Pressure, kPa = 101
Property: Viscosity, Pa*s (Liquid); method: CAPTUB:UFactor:2
Temperature, K	Molality, mol/kg of hydroxylammonium hydrogen sulfate	Viscosity, Pa*s	uncertainty
298.15	0.0204	0.000897	1.1e-05
298.15	0.0473	0.000909	1.1e-05
298.15	0.0702	0.000914	1.1e-05
298.15	0.2315	0.000968	1.2e-05
298.15	0.3709	0.001019	1.3e-05
298.15	0.4314	0.001035	1.3e-05
298.15	0.5334	0.001069	1.3e-05
298.15	0.8069	0.001167	1.4e-05
298.15	1.0436	0.001256	1.5e-05
298.15	1.3236	0.001369	1.6e-05
298.15	1.5892	0.001483	1.8e-05
298.15	1.9145	0.001631	1.9e-05
298.15	2.0882	0.001732	2e-05
298.15	2.8469	0.002123	2.4e-05
303.15	0.0204	0.000806	1e-05
303.15	0.0473	0.000814	1e-05
303.15	0.0702	0.000821	1e-05
303.15	0.2315	0.000869	1.1e-05
303.15	0.3709	0.000912	1.1e-05
303.15	0.4314	0.000927	1.2e-05
303.15	0.5334	0.000961	1.2e-05
303.15	0.8069	0.001053	1.3e-05
303.15	1.0436	0.001128	1.4e-05
303.15	1.3236	0.001237	1.5e-05
303.15	1.5892	0.001333	1.6e-05
303.15	1.9145	0.001463	1.7e-05
303.15	2.0882	0.001542	1.8e-05
303.15	2.8469	0.001887	2.2e-05
308.15	0.0204	0.000727	9e-06
308.15	0.0473	0.000736	1e-05
308.15	0.0702	0.000741	1e-05
308.15	0.2315	0.000787	1e-05
308.15	0.3709	0.000823	1e-05
308.15	0.4314	0.000838	1.1e-05
308.15	0.5334	0.000867	1.1e-05
308.15	0.8069	0.00095	1.2e-05
308.15	1.0436	0.00102	1.3e-05
308.15	1.3236	0.001112	1.4e-05
308.15	1.5892	0.001201	1.5e-05
308.15	1.9145	0.001319	1.6e-05
308.15	2.0882	0.001386	1.7e-05
308.15	2.8469	0.001702	2e-05

System: water + hydroxylammonium hydrogen sulfate; phases: Liquid
Fixed: Pressure, kPa = 101
Property: Mass density, kg/m3 (Liquid); method: VIBTUB:UFactor:4
Temperature, K	Molality, mol/kg of hydroxylammonium hydrogen sulfate	Mass density, kg/m3	uncertainty
283.15	0.0075	1000.57	0.19
283.15	0.038	1003.84	0.19
283.15	0.0702	1007.27	0.19
283.15	0.2199	1022.47	0.2
283.15	0.3709	1036.87	0.22
283.15	0.4314	1042.64	0.22
283.15	0.5334	1051.59	0.23
283.15	0.8069	1075.32	0.26
283.15	0.9684	1088.31	0.28
283.15	1.1647	1103.23	0.3
283.15	1.4781	1126.68	0.34
283.15	1.8505	1151.94	0.38
283.15	2.4613	1188.98	0.43
283.15	2.9977	1218.05	0.48
288.15	0.0075	999.95	0.19
288.15	0.038	1003.18	0.19
288.15	0.0702	1006.56	0.19
288.15	0.2199	1021.57	0.2
288.15	0.3709	1035.81	0.22
288.15	0.4314	1041.22	0.22
288.15	0.5334	1050.39	0.23
288.15	0.8069	1073.9	0.26
288.15	0.9684	1086.8	0.28
288.15	1.1647	1101.58	0.3
288.15	1.4781	1124.91	0.33
288.15	1.8505	1149.99	0.37
288.15	2.4613	1186.87	0.43
288.15	2.9977	1215.84	0.48
293.15	0.0075	999.03	0.19
293.15	0.038	1002.23	0.19
293.15	0.0702	1005.58	0.19
293.15	0.2199	1020.43	0.2
293.15	0.3709	1034.52	0.21
293.15	0.4314	1039.97	0.22
293.15	0.5334	1048.98	0.23
293.15	0.8069	1071.96	0.26
293.15	0.9684	1085.12	0.27
293.15	1.1647	1099.81	0.3
293.15	1.4781	1123	0.33
293.15	1.8505	1147.92	0.37
293.15	2.4613	1184.69	0.43
293.15	2.9977	1213.55	0.47
298.15	0.0075	997.89	0.19
298.15	0.038	1001.03	0.18
298.15	0.0702	1004.34	0.19
298.15	0.2199	1019.05	0.2
298.15	0.3709	1033.05	0.21
298.15	0.4314	1038.36	0.22
298.15	0.5334	1047.39	0.23
298.15	0.8069	1070.2	0.25
298.15	0.9684	1083.29	0.27
298.15	1.1647	1097.89	0.29
298.15	1.4781	1120.96	0.33
298.15	1.8505	1145.49	0.37
298.15	2.4613	1182.41	0.42
298.15	2.9977	1211.21	0.47
303.15	0.0075	996.46	0.19
303.15	0.038	999.59	0.18
303.15	0.0702	1002.88	0.18
303.15	0.2199	1017.48	0.2
303.15	0.3709	1031.38	0.21
303.15	0.4314	1036.73	0.21
303.15	0.5334	1045.61	0.22
303.15	0.8069	1068.3	0.25
303.15	0.9684	1081.32	0.27
303.15	1.1647	1095.85	0.29
303.15	1.4781	1118.82	0.32
303.15	1.8505	1142.34	0.36
303.15	2.4613	1180.07	0.42
303.15	2.9977	1208.79	0.47
308.15	0.0075	994.84	0.19
308.15	0.038	997.95	0.18
308.15	0.0702	1001.17	0.18
308.15	0.2199	1015.7	0.19
308.15	0.3709	1029.51	0.21
308.15	0.4314	1034.77	0.21
308.15	0.5334	1043.69	0.22
308.15	0.8069	1066.3	0.25
308.15	0.9684	1079.23	0.26
308.15	1.1647	1093.7	0.29
308.15	1.4781	1116.5	0.32
308.15	1.8505	1141.16	0.36
308.15	2.4613	1177.64	0.42
308.15	2.9977	1206.32	0.46
313.15	0.0075	993	0.19
313.15	0.038	996.09	0.18
313.15	0.0702	999.12	0.18
313.15	0.2199	1013.04	0.19
313.15	0.3709	1027.24	0.21
313.15	0.4314	1032.85	0.21
313.15	0.5334	1041.6	0.22
313.15	0.8069	1064.15	0.25
313.15	0.9684	1076.98	0.26
313.15	1.1647	1091.42	0.28
313.15	1.4781	1113.63	0.32
313.15	1.8505	1138.36	0.35
313.15	2.4613	1175.14	0.41
313.15	2.9977	1203.99	0.46

System: water + ammonium sulfate; phases: Liquid
Fixed: Molality, mol/kg of ammonium sulfate = 4.655
Fixed: Pressure, kPa = 101
Property: Viscosity, Pa*s (Liquid); method: CAPTUB:UFactor:2
Temperature, K	Viscosity, Pa*s	uncertainty
298.15	0.002114	2.4e-05
303.15	0.001944	2.2e-05
308.15	0.001785	2.1e-05

System: water + ammonium sulfate; phases: Liquid
Fixed: Molality, mol/kg of ammonium sulfate = 4.655
Fixed: Pressure, kPa = 101
Property: Mass density, kg/m3 (Liquid); method: VIBTUB:UFactor:4
Temperature, K	Mass density, kg/m3	uncertainty
293.15	1217.66	0.47
298.15	1215.79	0.47
303.15	1213.89	0.47
308.15	1211.94	0.46
313.15	1209.97	0.46

System: water + ammonium sulfate + hydroxylammonium hydrogen sulfate; phases: Liquid
Fixed: Pressure, kPa = 101
Property: Viscosity, Pa*s (Liquid); method: CAPTUB:UFactor:2
Temperature, K	Molality, mol/kg of hydroxylammonium hydrogen sulfate	Molality, mol/kg of ammonium sulfate	Viscosity, Pa*s	uncertainty
298.15	0	4.655	0.002114	2.4e-05
298.15	0.1268	3.6717	0.001858	2.2e-05
298.15	0.2663	4.3953	0.002219	2.5e-05
298.15	0.3486	0.724	0.00115	1.4e-05
298.15	0.4459	1.2263	0.001304	1.6e-05
298.15	0.5347	4.1413	0.002291	2.6e-05
298.15	0.5396	3.2691	0.001929	2.2e-05
298.15	0.6458	0.4304	0.0012	1.5e-05
298.15	0.6692	4.0146	0.00229	2.6e-05
298.15	0.8037	3.8841	0.002319	2.6e-05
298.15	0.8931	2.9343	0.002029	2.3e-05
298.15	0.8966	0.7842	0.001387	1.7e-05
298.15	1.0768	3.6328	0.00241	2.7e-05
298.15	1.2349	0.4485	0.001442	1.7e-05
298.15	1.5752	0.1133	0.001504	1.8e-05
303.15	0	4.655	0.001944	2.2e-05
303.15	0.1268	3.6717	0.001679	2e-05
303.15	0.2663	4.3953	0.002011	2.3e-05
303.15	0.3486	0.724	0.001041	1.3e-05
303.15	0.4459	1.2263	0.001179	1.4e-05
303.15	0.5347	4.1413	0.002051	2.4e-05
303.15	0.5396	3.2691	0.001758	2e-05
303.15	0.6458	0.4304	0.001081	1.3e-05
303.15	0.6692	4.0146	0.002071	2.4e-05
303.15	0.8037	3.8841	0.00209	2.4e-05
303.15	0.8931	2.9343	0.001825	2.1e-05
303.15	0.8966	0.7842	0.001248	1.5e-05
303.15	1.0768	3.6328	0.002157	2.5e-05
303.15	1.2349	0.4485	0.001295	1.6e-05
303.15	1.5752	0.1133	0.00135	1.6e-05
308.15	0	4.655	0.001785	2.1e-05
308.15	0.1268	3.6717	0.001531	1.8e-05
308.15	0.2663	4.3953	0.001824	2.1e-05
308.15	0.3486	0.724	0.000942	1.2e-05
308.15	0.4459	1.2263	0.001069	1.3e-05
308.15	0.5347	4.1413	0.001866	2.2e-05
308.15	0.5396	3.2691	0.001598	1.9e-05
308.15	0.6458	0.4304	0.000981	1.2e-05
308.15	0.6692	4.0146	0.001879	2.2e-05
308.15	0.8037	3.8841	0.001887	2.2e-05
308.15	0.8931	2.9343	0.001665	1.9e-05
308.15	0.8966	0.7842	0.001138	1.4e-05
308.15	1.0768	3.6328	0.001939	2.2e-05
308.15	1.2349	0.4485	0.001169	1.4e-05
308.15	1.5752	0.1133	0.001223	1.5e-05

System: water + ammonium sulfate + hydroxylammonium hydrogen sulfate; phases: Liquid
Fixed: Pressure, kPa = 101
Property: Mass density, kg/m3 (Liquid); method: VIBTUB:UFactor:4
Temperature, K	Molality, mol/kg of ammonium sulfate	Molality, mol/kg of hydroxylammonium hydrogen sulfate	Mass density, kg/m3	uncertainty
293.15	0.1133	1.5752	1134.88	0.35
293.15	0.4304	0.6458	1084.24	0.28
293.15	0.4485	1.2349	1127.93	0.34
293.15	0.724	0.3486	1077.83	0.27
293.15	0.7842	0.8966	1121.16	0.33
293.15	1.2263	0.4459	1111.67	0.31
293.15	2.9343	0.8931	1206.52	0.46
293.15	3.2691	0.5396	1200.33	0.45
293.15	3.6328	1.0768	1234.87	0.5
293.15	3.6717	0.1268	1193.03	0.43
293.15	3.8841	0.8037	1230.61	0.49
293.15	4.0146	0.6692	1228.41	0.49
293.15	4.1413	0.5347	1226.81	0.49
293.15	4.3953	0.2663	1222.88	0.48
293.15	4.655	0	1217.66	0.47
298.15	0.1133	1.5752	1132.67	0.35
298.15	0.4304	0.6458	1082.47	0.27
298.15	0.4485	1.2349	1125.66	0.34
298.15	0.724	0.3486	1076.1	0.26
298.15	0.7842	0.8966	1119.14	0.33
298.15	1.2263	0.4459	1109.8	0.31
298.15	2.9343	0.8931	1204.46	0.45
298.15	3.2691	0.5396	1197.71	0.44
298.15	3.6328	1.0768	1232.87	0.5
298.15	3.6717	0.1268	1191.06	0.43
298.15	3.8841	0.8037	1228.68	0.49
298.15	4.0146	0.6692	1226.46	0.49
298.15	4.1413	0.5347	1224.87	0.48
298.15	4.3953	0.2663	1220.98	0.48
298.15	4.655	0	1215.79	0.47
303.15	0.1133	1.5752	1129.77	0.34
303.15	0.4304	0.6458	1080.55	0.27
303.15	0.4485	1.2349	1122.65	0.33
303.15	0.724	0.3486	1074.23	0.26
303.15	0.7842	0.8966	1115.85	0.32
303.15	1.2263	0.4459	1107.76	0.31
303.15	2.9343	0.8931	1202.34	0.45
303.15	3.2691	0.5396	1196.25	0.44
303.15	3.6328	1.0768	1230.82	0.49
303.15	3.6717	0.1268	1189.01	0.43
303.15	3.8841	0.8037	1226.74	0.49
303.15	4.0146	0.6692	1224.46	0.48
303.15	4.1413	0.5347	1222.89	0.48
303.15	4.3953	0.2663	1219.04	0.47
303.15	4.655	0	1213.89	0.47
308.15	0.1133	1.5752	1126.64	0.34
308.15	0.4304	0.6458	1078.45	0.27
308.15	0.4485	1.2349	1118.8	0.32
308.15	0.724	0.3486	1071.69	0.26
308.15	0.7842	0.8966	1112.96	0.32
308.15	1.2263	0.4459	1105.49	0.3
308.15	2.9343	0.8931	1200.09	0.45
308.15	3.2691	0.5396	1193.58	0.44
308.15	3.6328	1.0768	1228.73	0.49
308.15	3.6717	0.1268	1186.83	0.42
308.15	3.8841	0.8037	1224.75	0.48
308.15	4.0146	0.6692	1222.43	0.48
308.15	4.1413	0.5347	1220.88	0.48
308.15	4.3953	0.2663	1217.05	0.47
308.15	4.655	0	1211.94	0.46
313.15	0.1133	1.5752	1123.39	0.33
313.15	0.4304	0.6458	1075.85	0.26
313.15	0.4485	1.2349	1115.63	0.32
313.15	0.724	0.3486	1069.19	0.25
313.15	0.7842	0.8966	1109.67	0.31
313.15	1.2263	0.4459	1103.04	0.3
313.15	2.9343	0.8931	1197.8	0.44
313.15	3.2691	0.5396	1191.73	0.43
313.15	3.6328	1.0768	1226.6	0.49
313.15	3.6717	0.1268	1184.55	0.42
313.15	3.8841	0.8037	1222.76	0.48
313.15	4.0146	0.6692	1220.33	0.48
313.15	4.1413	0.5347	1218.81	0.47
313.15	4.3953	0.2663	1215.04	0.47
313.15	4.655	0	1209.97	0.46
