Measured thermophysical data. Molar Heat Capacity of Aqueous Sulfolane, 4-Formylmorpholine, 1-Methyl-2-pyrrolidinone, and Triethylene Glycol Dimethyl Ether Solutions from (303.15 to 353.15) K
Source: J. Chem. Eng. Data, 2009, 10.1021/je800999s
Compound 1: 2,5,8,11-tetraoxadodecane, C8H18O4, InChI=1S/C8H18O4/c1-9-3-5-11-7-8-12-6-4-10-2/h3-8H2,1-2H3, purity 99%
Compound 2: N-methylpyrrolidone, C5H9NO, InChI=1S/C5H9NO/c1-6-4-2-3-5(6)7/h2-4H2,1H3, purity 99.5%
Compound 3: N-formylmorpholine, C5H9NO2, InChI=1S/C5H9NO2/c7-5-6-1-3-8-4-2-6/h5H,1-4H2, purity 99%
Compound 4: sulfolane, C4H8O2S, InChI=1S/C4H8O2S/c5-7(6)3-1-2-4-7/h1-4H2, purity 99%
Compound 5: water, H2O, InChI=1S/H2O/h1H2, purity 99.9%

System: 2,5,8,11-tetraoxadodecane; phases: Liquid
Fixed: Pressure, kPa = 101
Property: Molar heat capacity at constant pressure, J/K/mol (Liquid); method: Large sample (1 g) DSC
Temperature, K	Molar heat capacity at constant pressure, J/K/mol	uncertainty
303.15	359	15
308.15	364	15
313.15	366	16
318.15	368	16
323.15	370	16
328.15	371	16
333.15	373	16
338.15	375	16
343.15	379	16
348.15	381	16
353.15	382	16

System: N-methylpyrrolidone; phases: Liquid
Fixed: Pressure, kPa = 101
Property: Molar heat capacity at constant pressure, J/K/mol (Liquid); method: Large sample (1 g) DSC
Temperature, K	Molar heat capacity at constant pressure, J/K/mol	uncertainty
303.15	166	7
308.15	167	7
313.15	168	7
318.15	169	7
323.15	170	7
328.15	172	7
333.15	174	7
338.15	175	7
343.15	176	7
348.15	177	8
353.15	178	8

System: N-formylmorpholine; phases: Liquid
Fixed: Pressure, kPa = 101
Property: Molar heat capacity at constant pressure, J/K/mol (Liquid); method: Large sample (1 g) DSC
Temperature, K	Molar heat capacity at constant pressure, J/K/mol	uncertainty
303.15	185	8
308.15	186	8
313.15	188	8
318.15	189	8
323.15	191	8
328.15	193	8
333.15	195	8
338.15	197	8
343.15	200	9
348.15	201	9
353.15	202	9

System: sulfolane; phases: Liquid
Fixed: Pressure, kPa = 101
Property: Molar heat capacity at constant pressure, J/K/mol (Liquid); method: Large sample (1 g) DSC
Temperature, K	Molar heat capacity at constant pressure, J/K/mol	uncertainty
303.15	182	8
308.15	184	8
313.15	185	8
318.15	186	8
323.15	188	8
328.15	189	8
333.15	191	8
338.15	193	8
343.15	194	8
348.15	197	8
353.15	199	8

System: sulfolane + water; phases: Liquid
Fixed: Pressure, kPa = 101
Property: Molar heat capacity at constant pressure, J/K/mol (Liquid); method: Large sample (1 g) DSC
Temperature, K	Mole fraction of sulfolane	Molar heat capacity at constant pressure, J/K/mol	uncertainty
303.15	0.0999	87	4
303.15	0.1998	100	4
303.15	0.2987	112	5
303.15	0.3995	124	5
303.15	0.4945	135	6
303.15	0.5987	145	6
303.15	0.6984	155	7
303.15	0.7904	164	7
303.15	0.8865	173	7
303.15	1	182	8
308.15	0.0999	88	4
308.15	0.1998	100	4
308.15	0.2987	113	5
308.15	0.3995	125	5
308.15	0.4945	136	6
308.15	0.5987	147	6
308.15	0.6984	156	7
308.15	0.7904	166	7
308.15	0.8865	175	7
308.15	1	184	8
313.15	0.0999	88	4
313.15	0.1998	101	4
313.15	0.2987	114	5
313.15	0.3995	126	5
313.15	0.4945	137	6
313.15	0.5987	148	6
313.15	0.6984	157	7
313.15	0.7904	167	7
313.15	0.8865	176	7
313.15	1	185	8
318.15	0.0999	88	4
318.15	0.1998	102	4
318.15	0.2987	114	5
318.15	0.3995	127	5
318.15	0.4945	138	6
318.15	0.5987	149	6
318.15	0.6984	159	7
318.15	0.7904	168	7
318.15	0.8865	177	8
318.15	1	186	8
323.15	0.0999	89	4
323.15	0.1998	102	4
323.15	0.2987	115	5
323.15	0.3995	128	5
323.15	0.4945	139	6
323.15	0.5987	150	6
323.15	0.6984	160	7
323.15	0.7904	170	7
323.15	0.8865	179	8
323.15	1	188	8
328.15	0.0999	89	4
328.15	0.1998	103	4
328.15	0.2987	116	5
328.15	0.3995	129	6
328.15	0.4945	141	6
328.15	0.5987	152	6
328.15	0.6984	162	7
328.15	0.7904	172	7
328.15	0.8865	181	8
328.15	1	189	8
333.15	0.0999	89	4
333.15	0.1998	104	4
333.15	0.2987	117	5
333.15	0.3995	130	6
333.15	0.4945	142	6
333.15	0.5987	153	7
333.15	0.6984	164	7
333.15	0.7904	173	7
333.15	0.8865	183	8
333.15	1	191	8
338.15	0.0999	90	4
338.15	0.1998	104	4
338.15	0.2987	118	5
338.15	0.3995	131	6
338.15	0.4945	143	6
338.15	0.5987	155	7
338.15	0.6984	165	7
338.15	0.7904	175	7
338.15	0.8865	184	8
338.15	1	193	8
343.15	0.0999	90	4
343.15	0.1998	105	4
343.15	0.2987	119	5
343.15	0.3995	132	6
343.15	0.4945	144	6
343.15	0.5987	156	7
343.15	0.6984	167	7
343.15	0.7904	177	8
343.15	0.8865	186	8
343.15	1	194	8
348.15	0.0999	91	4
348.15	0.1998	106	5
348.15	0.2987	120	5
348.15	0.3995	133	6
348.15	0.4945	146	6
348.15	0.5987	158	7
348.15	0.6984	169	7
348.15	0.7904	179	8
348.15	0.8865	188	8
348.15	1	197	8
353.15	0.0999	91	4
353.15	0.1998	107	5
353.15	0.2987	121	5
353.15	0.3995	135	6
353.15	0.4945	148	6
353.15	0.5987	160	7
353.15	0.6984	171	7
353.15	0.7904	181	8
353.15	0.8865	191	8
353.15	1	199	8

System: N-formylmorpholine + water; phases: Liquid
Fixed: Pressure, kPa = 101
Property: Molar heat capacity at constant pressure, J/K/mol (Liquid); method: Large sample (1 g) DSC
Temperature, K	Mole fraction of N-formylmorpholine	Molar heat capacity at constant pressure, J/K/mol	uncertainty
303.15	0.0997	86	4
303.15	0.1998	98	4
303.15	0.2992	111	5
303.15	0.3993	123	5
303.15	0.4975	134	6
303.15	0.5978	145	6
303.15	0.6954	154	7
303.15	0.7988	164	7
303.15	0.8946	174	7
303.15	1	185	8
308.15	0.0997	86	4
308.15	0.1998	99	4
308.15	0.2992	111	5
308.15	0.3993	124	5
308.15	0.4975	135	6
308.15	0.5978	146	6
308.15	0.6954	156	7
308.15	0.7988	166	7
308.15	0.8946	176	7
308.15	1	186	8
313.15	0.0997	87	4
313.15	0.1998	100	4
313.15	0.2992	113	5
313.15	0.3993	125	5
313.15	0.4975	137	6
313.15	0.5978	148	6
313.15	0.6954	158	7
313.15	0.7988	168	7
313.15	0.8946	178	8
313.15	1	188	8
318.15	0.0997	87	4
318.15	0.1998	100	4
318.15	0.2992	114	5
318.15	0.3993	126	5
318.15	0.4975	138	6
318.15	0.5978	149	6
318.15	0.6954	159	7
318.15	0.7988	169	7
318.15	0.8946	179	8
318.15	1	189	8
323.15	0.0997	88	4
323.15	0.1998	101	4
323.15	0.2992	115	5
323.15	0.3993	127	5
323.15	0.4975	140	6
323.15	0.5978	150	6
323.15	0.6954	161	7
323.15	0.7988	171	7
323.15	0.8946	181	8
323.15	1	191	8
328.15	0.0997	88	4
328.15	0.1998	102	4
328.15	0.2992	116	5
328.15	0.3993	129	6
328.15	0.4975	141	6
328.15	0.5978	152	6
328.15	0.6954	162	7
328.15	0.7988	173	7
328.15	0.8946	183	8
328.15	1	193	8
333.15	0.0997	89	4
333.15	0.1998	103	4
333.15	0.2992	117	5
333.15	0.3993	130	6
333.15	0.4975	142	6
333.15	0.5978	153	7
333.15	0.6954	164	7
333.15	0.7988	174	7
333.15	0.8946	184	8
333.15	1	195	8
338.15	0.0997	90	4
338.15	0.1998	104	4
338.15	0.2992	118	5
338.15	0.3993	131	6
338.15	0.4975	144	6
338.15	0.5978	155	7
338.15	0.6954	166	7
338.15	0.7988	176	7
338.15	0.8946	186	8
338.15	1	197	8
343.15	0.0997	91	4
343.15	0.1998	106	5
343.15	0.2992	120	5
343.15	0.3993	133	6
343.15	0.4975	146	6
343.15	0.5978	157	7
343.15	0.6954	168	7
343.15	0.7988	178	8
343.15	0.8946	189	8
343.15	1	200	9
348.15	0.0997	91	4
348.15	0.1998	107	5
348.15	0.2992	121	5
348.15	0.3993	135	6
348.15	0.4975	147	6
348.15	0.5978	158	7
348.15	0.6954	169	7
348.15	0.7988	180	8
348.15	0.8946	190	8
348.15	1	201	9
353.15	0.0997	92	4
353.15	0.1998	107	5
353.15	0.2992	122	5
353.15	0.3993	135	6
353.15	0.4975	148	6
353.15	0.5978	159	7
353.15	0.6954	170	7
353.15	0.7988	181	8
353.15	0.8946	191	8
353.15	1	202	9

System: 2,5,8,11-tetraoxadodecane + water; phases: Liquid
Fixed: Pressure, kPa = 101
Property: Molar heat capacity at constant pressure, J/K/mol (Liquid); method: Large sample (1 g) DSC
Temperature, K	Mole fraction of 2,5,8,11-tetraoxadodecane	Molar heat capacity at constant pressure, J/K/mol	uncertainty
303.15	0.0999	109	5
303.15	0.1997	141	6
303.15	0.2967	171	7
303.15	0.3977	198	8
303.15	0.4983	224	10
303.15	0.5918	250	11
303.15	0.6926	275	12
303.15	0.7941	300	13
303.15	0.8686	328	14
303.15	1	359	15
308.15	0.0999	110	5
308.15	0.1997	143	6
308.15	0.2967	173	7
308.15	0.3977	200	9
308.15	0.4983	227	10
308.15	0.5918	253	11
308.15	0.6926	278	12
308.15	0.7941	304	13
308.15	0.8686	332	14
308.15	1	364	15
313.15	0.0999	111	5
313.15	0.1997	144	6
313.15	0.2967	174	7
313.15	0.3977	202	9
313.15	0.4983	228	10
313.15	0.5918	254	11
313.15	0.6926	279	12
313.15	0.7941	306	13
313.15	0.8686	334	14
313.15	1	366	16
318.15	0.0999	112	5
318.15	0.1997	145	6
318.15	0.2967	175	7
318.15	0.3977	203	9
318.15	0.4983	229	10
318.15	0.5918	255	11
318.15	0.6926	281	12
318.15	0.7941	307	13
318.15	0.8686	335	14
318.15	1	368	16
323.15	0.0999	112	5
323.15	0.1997	146	6
323.15	0.2967	176	7
323.15	0.3977	204	9
323.15	0.4983	231	10
323.15	0.5918	256	11
323.15	0.6926	282	12
323.15	0.7941	309	13
323.15	0.8686	337	14
323.15	1	370	16
328.15	0.0999	113	5
328.15	0.1997	147	6
328.15	0.2967	177	8
328.15	0.3977	206	9
328.15	0.4983	232	10
328.15	0.5918	258	11
328.15	0.6926	283	12
328.15	0.7941	310	13
328.15	0.8686	339	14
328.15	1	371	16
333.15	0.0999	114	5
333.15	0.1997	148	6
333.15	0.2967	179	8
333.15	0.3977	207	9
333.15	0.4983	233	10
333.15	0.5918	259	11
333.15	0.6926	285	12
333.15	0.7941	312	13
333.15	0.8686	341	14
333.15	1	373	16
338.15	0.0999	114	5
338.15	0.1997	149	6
338.15	0.2967	180	8
338.15	0.3977	208	9
338.15	0.4983	235	10
338.15	0.5918	261	11
338.15	0.6926	286	12
338.15	0.7941	313	13
338.15	0.8686	342	15
338.15	1	375	16
343.15	0.0999	115	5
343.15	0.1997	150	6
343.15	0.2967	181	8
343.15	0.3977	210	9
343.15	0.4983	237	10
343.15	0.5918	263	11
343.15	0.6926	289	12
343.15	0.7941	316	13
343.15	0.8686	345	15
343.15	1	379	16
348.15	0.0999	116	5
348.15	0.1997	151	6
348.15	0.2967	183	8
348.15	0.3977	211	9
348.15	0.4983	238	10
348.15	0.5918	264	11
348.15	0.6926	290	12
348.15	0.7941	318	14
348.15	0.8686	347	15
348.15	1	381	16
353.15	0.0999	116	5
353.15	0.1997	152	6
353.15	0.2967	184	8
353.15	0.3977	212	9
353.15	0.4983	239	10
353.15	0.5918	265	11
353.15	0.6926	291	12
353.15	0.7941	318	14
353.15	0.8686	348	15
353.15	1	382	16

System: N-methylpyrrolidone + water; phases: Liquid
Fixed: Pressure, kPa = 101
Property: Molar heat capacity at constant pressure, J/K/mol (Liquid); method: Large sample (1 g) DSC
Temperature, K	Mole fraction of N-methylpyrrolidone	Molar heat capacity at constant pressure, J/K/mol	uncertainty
303.15	0.0999	90	4
303.15	0.1998	102	4
303.15	0.2984	113	5
303.15	0.3979	122	5
303.15	0.4961	129	6
303.15	0.5981	137	6
303.15	0.6917	144	6
303.15	0.799	152	6
303.15	0.8946	158	7
303.15	1	166	7
308.15	0.0999	90	4
308.15	0.1998	103	4
308.15	0.2984	114	5
308.15	0.3979	123	5
308.15	0.4961	131	6
308.15	0.5981	138	6
308.15	0.6917	146	6
308.15	0.799	153	7
308.15	0.8946	160	7
308.15	1	167	7
313.15	0.0999	91	4
313.15	0.1998	104	4
313.15	0.2984	115	5
313.15	0.3979	124	5
313.15	0.4961	132	6
313.15	0.5981	140	6
313.15	0.6917	147	6
313.15	0.799	154	7
313.15	0.8946	161	7
313.15	1	168	7
318.15	0.0999	91	4
318.15	0.1998	105	4
318.15	0.2984	116	5
318.15	0.3979	125	5
318.15	0.4961	133	6
318.15	0.5981	141	6
318.15	0.6917	148	6
318.15	0.799	155	7
318.15	0.8946	162	7
318.15	1	169	7
323.15	0.0999	92	4
323.15	0.1998	105	4
323.15	0.2984	118	5
323.15	0.3979	127	5
323.15	0.4961	135	6
323.15	0.5981	142	6
323.15	0.6917	150	6
323.15	0.799	157	7
323.15	0.8946	164	7
323.15	1	170	7
328.15	0.0999	92	4
328.15	0.1998	106	5
328.15	0.2984	119	5
328.15	0.3979	128	5
328.15	0.4961	136	6
328.15	0.5981	144	6
328.15	0.6917	151	6
328.15	0.799	158	7
328.15	0.8946	165	7
328.15	1	172	7
333.15	0.0999	93	4
333.15	0.1998	107	5
333.15	0.2984	120	5
333.15	0.3979	129	6
333.15	0.4961	138	6
333.15	0.5981	145	6
333.15	0.6917	153	7
333.15	0.799	160	7
333.15	0.8946	166	7
333.15	1	174	7
338.15	0.0999	93	4
338.15	0.1998	108	5
338.15	0.2984	121	5
338.15	0.3979	131	6
338.15	0.4961	139	6
338.15	0.5981	147	6
338.15	0.6917	154	7
338.15	0.799	161	7
338.15	0.8946	168	7
338.15	1	175	7
343.15	0.0999	94	4
343.15	0.1998	109	5
343.15	0.2984	122	5
343.15	0.3979	132	6
343.15	0.4961	141	6
343.15	0.5981	149	6
343.15	0.6917	156	7
343.15	0.799	163	7
343.15	0.8946	169	7
343.15	1	176	7
348.15	0.0999	95	4
348.15	0.1998	110	5
348.15	0.2984	123	5
348.15	0.3979	133	6
348.15	0.4961	142	6
348.15	0.5981	150	6
348.15	0.6917	157	7
348.15	0.799	164	7
348.15	0.8946	170	7
348.15	1	177	8
353.15	0.0999	95	4
353.15	0.1998	110	5
353.15	0.2984	124	5
353.15	0.3979	134	6
353.15	0.4961	142	6
353.15	0.5981	151	6
353.15	0.6917	158	7
353.15	0.799	165	7
353.15	0.8946	170	7
353.15	1	178	8
