Measured thermophysical data. Solubilities of Diphenylphosphinic Acid in Selected Solvents
Source: J. Chem. Eng. Data, 2008, 10.1021/je800049b
Compound 1: diphenylphosphinic acid, C12H11O2P, InChI=1S/C12H11O2P/c13-15(14,11-7-3-1-4-8-11)12-9-5-2-6-10-12/h1-10H,(H,13,14)
Compound 2: ethanol, C2H6O, InChI=1S/C2H6O/c1-2-3/h3H,2H2,1H3, purity 99.7%
Compound 3: propan-2-ol, C3H8O, InChI=1S/C3H8O/c1-3(2)4/h3-4H,1-2H3, purity 99.7%
Compound 4: 2-ethoxyethan-1-ol, C4H10O2, InChI=1S/C4H10O2/c1-2-6-4-3-5/h5H,2-4H2,1H3, purity 99.5%
Compound 5: acetic acid, C2H4O2, InChI=1S/C2H4O2/c1-2(3)4/h1H3,(H,3,4), purity 99.5%
Compound 6: ethyl acetate, C4H8O2, InChI=1S/C4H8O2/c1-3-6-4(2)5/h3H2,1-2H3, purity 99.5%
Compound 7: acetone, C3H6O, InChI=1S/C3H6O/c1-3(2)4/h1-2H3, purity 99.5%
Compound 8: benzene, C6H6, InChI=1S/C6H6/c1-2-4-6-5-3-1/h1-6H, purity 99.5%
Compound 9: toluene, C7H8, InChI=1S/C7H8/c1-7-5-3-2-4-6-7/h2-6H,1H3, purity 99.5%
Compound 10: water, H2O, InChI=1S/H2O/h1H2

System: diphenylphosphinic acid; phases: Crystal, Liquid, Air at 1 atmosphere
Property: Normal melting temperature, K (Crystal); method: DTA
Normal melting temperature, K	uncertainty
466.12	0.5

System: diphenylphosphinic acid; phases: Crystal, Liquid, Air at 1 atmosphere
Property: Molar enthalpy of transition or fusion, kJ/mol (Crystal); method: DSC
Molar enthalpy of transition or fusion, kJ/mol	uncertainty
21.9061054204	0.654564903

System: ethanol + diphenylphosphinic acid; phases: Liquid, Crystal
Fixed: Pressure, kPa = 101
Property: Mole fraction of diphenylphosphinic acid (Liquid); method: OTHER:ssMethod:gravimetric
Temperature, K	Mole fraction of diphenylphosphinic acid	uncertainty
283.15	0.00575	0.00023
288.15	0.00671	0.00027
293.1	0.00774	0.00031
298.07	0.00889	0.00036
303.07	0.0102	0.00041
308.15	0.0117	0.00047
313.16	0.0134	0.00054
318.16	0.0152	0.00061
322.84	0.0173	0.00069
327.94	0.0198	0.0008
333.1	0.0231	0.00093
337.97	0.0264	0.00106
342.9	0.0302	0.00121

System: propan-2-ol + diphenylphosphinic acid; phases: Liquid, Crystal
Fixed: Pressure, kPa = 101
Property: Mole fraction of diphenylphosphinic acid (Liquid); method: OTHER
Temperature, K	Mole fraction of diphenylphosphinic acid	uncertainty
288.15	0.00426	0.00017
293.15	0.00503	0.0002
297.98	0.00594	0.00024
303.09	0.00696	0.00028
308.05	0.00803	0.00032
313.15	0.00931	0.00037
318.06	0.0107	0.00043
323.08	0.0123	0.00049
328.12	0.0144	0.00058
332.97	0.0165	0.00066
338.17	0.0189	0.00076
342.94	0.0223	0.0009
347.8	0.0257	0.00103

System: 2-ethoxyethan-1-ol + diphenylphosphinic acid; phases: Liquid, Crystal
Fixed: Pressure, kPa = 101
Property: Mole fraction of diphenylphosphinic acid (Liquid); method: OTHER
Temperature, K	Mole fraction of diphenylphosphinic acid	uncertainty
288.15	0.00619	0.00025
293.18	0.00716	0.00029
298.17	0.0081	0.00033
303.04	0.00924	0.00037
308.11	0.0106	0.00043
313.15	0.0118	0.00047
318.2	0.0135	0.00054
323.16	0.0151	0.00061
328.2	0.0172	0.00069
332.96	0.0196	0.00079
338.03	0.0223	0.00089
343.24	0.0252	0.00101
348.24	0.0285	0.00114
353.25	0.0321	0.00129
358.29	0.036	0.00144
363.1	0.0401	0.00161

System: acetic acid + diphenylphosphinic acid; phases: Liquid, Crystal
Fixed: Pressure, kPa = 101
Property: Mole fraction of diphenylphosphinic acid (Liquid); method: OTHER
Temperature, K	Mole fraction of diphenylphosphinic acid	uncertainty
293.23	0.00426	0.00017
303.15	0.00604	0.00024
313.03	0.00827	0.00033
323.15	0.0112	0.00045
333.21	0.0151	0.00061
343.04	0.0209	0.00084

System: ethyl acetate + diphenylphosphinic acid; phases: Liquid, Crystal
Fixed: Pressure, kPa = 101
Property: Mole fraction of diphenylphosphinic acid (Liquid); method: OTHER
Temperature, K	Mole fraction of diphenylphosphinic acid	uncertainty
293.06	0.00052	2e-05
298.15	0.0006	2e-05
303.15	0.00075	3e-05
308.17	0.00098	4e-05
313.23	0.00121	5e-05
318.04	0.00144	6e-05
323.1	0.00176	7e-05
328.13	0.00208	8e-05
333.25	0.00247	0.0001
337.95	0.00318	0.00013

System: acetone + diphenylphosphinic acid; phases: Liquid, Crystal
Fixed: Pressure, kPa = 101
Property: Mole fraction of diphenylphosphinic acid (Liquid); method: OTHER
Temperature, K	Mole fraction of diphenylphosphinic acid	uncertainty
293.25	0.00051	2e-05
298.18	0.00068	3e-05
303.12	0.00091	4e-05
308.23	0.0012	5e-05
313.19	0.00156	6e-05
318.21	0.00203	8e-05
323.24	0.00244	0.0001

System: benzene + diphenylphosphinic acid; phases: Liquid, Crystal
Fixed: Pressure, kPa = 101
Property: Mole fraction of diphenylphosphinic acid (Liquid); method: OTHER
Temperature, K	Mole fraction of diphenylphosphinic acid	uncertainty
293.15	0.0007	3e-05
303.19	0.00112	5e-05
313.17	0.00183	7e-05
322.95	0.00291	0.00012
333.21	0.00459	0.00019
343.12	0.00706	0.00028

System: toluene + diphenylphosphinic acid; phases: Liquid, Crystal
Fixed: Pressure, kPa = 101
Property: Mole fraction of diphenylphosphinic acid (Liquid); method: OTHER
Temperature, K	Mole fraction of diphenylphosphinic acid	uncertainty
293.15	0.00049	2e-05
303.16	0.00074	3e-05
313.18	0.00107	4e-05
323.08	0.00157	6e-05
333.17	0.00232	9e-05
343.25	0.00326	0.00013
352.95	0.00462	0.00019
362.65	0.00651	0.00026

System: diphenylphosphinic acid + water; phases: Liquid, Crystal
Fixed: Pressure, kPa = 101
Property: Mole fraction of diphenylphosphinic acid (Liquid); method: gravimetric
Temperature, K	Mole fraction of diphenylphosphinic acid	uncertainty
303.14	5e-05	1e-05
313.17	8e-05	1e-05
323.13	0.00011	1e-05
333	0.00014	1e-05
343.05	0.00018	1e-05
353.05	0.00023	1e-05
