Measured thermophysical data. Analysis of Surface Tension, Density, and Speed of Sound for the Ternary Mixture Dimethyl Carbonate + p-Xylene + n-Octane
Source: J. Chem. Eng. Data, 2009, 10.1021/je800594e
Compound 1: 1,4-dimethylbenzene, C8H10, InChI=1S/C8H10/c1-7-3-5-8(2)6-4-7/h3-6H,1-2H3
Compound 2: octane, C8H18, InChI=1S/C8H18/c1-3-5-7-8-6-4-2/h3-8H2,1-2H3
Compound 3: dimethyl carbonate, C3H6O3, InChI=1S/C3H6O3/c1-5-3(4)6-2/h1-2H3

System: 1,4-dimethylbenzene; phases: Liquid, Air at 1 atmosphere
Property: Surface tension liquid-gas, N/m (Liquid); method: Drop volume
Temperature, K	Surface tension liquid-gas, N/m	uncertainty
298.15	0.02743	0.0002

System: 1,4-dimethylbenzene; phases: Liquid
Fixed: Pressure, kPa = 101.325
Property: Speed of sound, m/s (Liquid); method: Pulse-echo method
Temperature, K	Speed of sound, m/s	uncertainty
288.15	1350.7	1.6
293.15	1329.6	1.6
298.15	1308.4	1.5
303.15	1287.4	1.5
308.15	1266.4	1.5

System: 1,4-dimethylbenzene; phases: Liquid
Fixed: Pressure, kPa = 101.325
Property: Mass density, kg/m3 (Liquid); method: Vibrating tube method
Temperature, K	Mass density, kg/m3	uncertainty
288.15	865.2	0.24
293.15	860.9	0.24
298.15	856.58	0.24
303.15	852.21	0.24
308.15	847.83	0.24

System: octane; phases: Liquid, Air at 1 atmosphere
Property: Surface tension liquid-gas, N/m (Liquid); method: Drop volume
Temperature, K	Surface tension liquid-gas, N/m	uncertainty
298.15	0.02099	0.00017

System: octane; phases: Liquid
Fixed: Pressure, kPa = 101.325
Property: Speed of sound, m/s (Liquid); method: Pulse-echo method
Temperature, K	Speed of sound, m/s	uncertainty
288.15	1213.6	1.5
293.15	1192.9	1.5
298.15	1171.9	1.5
303.15	1150.9	1.5
308.15	1130.3	1.5

System: octane; phases: Liquid
Fixed: Pressure, kPa = 101.325
Property: Mass density, kg/m3 (Liquid); method: Vibrating tube method
Temperature, K	Mass density, kg/m3	uncertainty
288.15	706.58	0.25
293.15	702.57	0.25
298.15	698.55	0.25
303.15	694.48	0.25
308.15	690.42	0.25

System: dimethyl carbonate; phases: Liquid, Air at 1 atmosphere
Property: Surface tension liquid-gas, N/m (Liquid); method: Drop volume
Temperature, K	Surface tension liquid-gas, N/m	uncertainty
298.15	0.02808	0.00021

System: dimethyl carbonate; phases: Liquid
Fixed: Pressure, kPa = 101.325
Property: Speed of sound, m/s (Liquid); method: Pulse-echo method
Temperature, K	Speed of sound, m/s	uncertainty
288.15	1240.7	1.5
293.15	1218.1	1.5
298.15	1195.1	1.5
303.15	1173.2	1.5
308.15	1151.5	1.5

System: dimethyl carbonate; phases: Liquid
Fixed: Pressure, kPa = 101.325
Property: Mass density, kg/m3 (Liquid); method: Vibrating tube method
Temperature, K	Mass density, kg/m3	uncertainty
288.15	1076.64	0.3
293.15	1070.01	0.29
298.15	1063.39	0.28
303.15	1056.78	0.28
308.15	1050.15	0.27

System: 1,4-dimethylbenzene + octane + dimethyl carbonate; phases: Liquid, Air at 1 atmosphere
Fixed: Temperature, K = 298.15
Property: Surface tension liquid-gas, N/m (Liquid); method: Drop volume
Mole fraction of dimethyl carbonate	Mole fraction of 1,4-dimethylbenzene	Surface tension liquid-gas, N/m	uncertainty
0.04868	0.04947	0.02107	0.00017
0.05586	0.88962	0.02652	0.0002
0.09269	0.10329	0.02131	0.00017
0.09518	0.19771	0.02171	0.00017
0.09549	0.40025	0.02273	0.00018
0.09602	0.80411	0.02592	0.0002
0.09803	0.49404	0.02331	0.00018
0.09932	0.69979	0.02484	0.00019
0.10041	0.60555	0.02408	0.00019
0.10059	0.28393	0.02211	0.00018
0.19108	0.41338	0.02304	0.00018
0.19314	0.09851	0.02144	0.00017
0.1932	0.29939	0.02244	0.00018
0.19354	0.7067	0.02567	0.0002
0.19473	0.19843	0.02192	0.00018
0.19619	0.49536	0.02364	0.00018
0.19663	0.60143	0.02456	0.00019
0.28901	0.20129	0.02211	0.00018
0.29371	0.09794	0.02162	0.00017
0.29583	0.4963	0.02425	0.00019
0.29914	0.29199	0.02266	0.00018
0.30129	0.59781	0.02552	0.00019
0.30965	0.39328	0.02344	0.00018
0.37245	0.29515	0.02293	0.00018
0.39936	0.39406	0.02399	0.00019
0.40699	0.19651	0.02228	0.00018
0.40899	0.1015	0.02175	0.00017
0.43295	0.47381	0.02539	0.00019
0.49401	0.19785	0.02263	0.00018
0.49624	0.40272	0.02506	0.00019
0.49699	0.09846	0.02197	0.00018
0.49797	0.29962	0.02367	0.00018
0.58898	0.10018	0.02222	0.00018
0.60089	0.19465	0.02323	0.00018
0.60114	0.29883	0.02485	0.00019
0.69914	0.09767	0.02285	0.00018
0.70245	0.19802	0.02463	0.00019
0.79526	0.1016	0.02428	0.00019
0.89859	0.05069	0.02556	0.00019

System: 1,4-dimethylbenzene + octane + dimethyl carbonate; phases: Liquid
Fixed: Pressure, kPa = 101
Property: Speed of sound, m/s (Liquid); method: Pulse-echo method
Temperature, K	Mole fraction of dimethyl carbonate	Mole fraction of 1,4-dimethylbenzene	Speed of sound, m/s	uncertainty
288.15	0.04973	0.89958	1334.6	1.6
288.15	0.06081	0.05129	1211	1.5
288.15	0.09786	0.19949	1222	1.5
288.15	0.09971	0.50716	1262.5	1.5
288.15	0.10026	0.29971	1233.7	1.5
288.15	0.10026	0.41495	1248.8	1.5
288.15	0.10087	0.59211	1276.2	1.5
288.15	0.10091	0.79753	1316.1	1.5
288.15	0.10216	0.10109	1211.3	1.5
288.15	0.10239	0.69438	1294.9	1.5
288.15	0.19282	0.10115	1203.4	1.5
288.15	0.1931	0.70599	1303.4	1.5
288.15	0.19442	0.20125	1215.5	1.5
288.15	0.19531	0.29965	1229.1	1.5
288.15	0.19708	0.60273	1281.2	1.5
288.15	0.20371	0.48837	1259.3	1.5
288.15	0.21669	0.34533	1235.5	1.5
288.15	0.29132	0.39932	1245	1.5
288.15	0.29266	0.50988	1267.4	1.5
288.15	0.29518	0.09655	1197	1.5
288.15	0.29716	0.29797	1227.1	1.5
288.15	0.29742	0.19789	1211.2	1.5
288.15	0.30192	0.59676	1288.2	1.5
288.15	0.39324	0.5064	1276.1	1.5
288.15	0.39369	0.19889	1210.6	1.5
288.15	0.39507	0.4068	1252	1.5
288.15	0.39734	0.1007	1194.6	1.5
288.15	0.399	0.30273	1230.1	1.5
288.15	0.49025	0.30598	1236.9	1.5
288.15	0.49467	0.19701	1213	1.5
288.15	0.49958	0.40132	1262.2	1.5
288.15	0.50935	0.09941	1194.5	1.5
288.15	0.59792	0.20059	1221.7	1.5
288.15	0.60211	0.29997	1249.2	1.5
288.15	0.60641	0.09811	1198.3	1.5
288.15	0.69358	0.10267	1207.5	1.5
288.15	0.70387	0.19624	1235.7	1.5
288.15	0.79674	0.10144	1223.7	1.5
288.15	0.89452	0.05327	1230.7	1.5
293.15	0.04973	0.89958	1314.2	1.5
293.15	0.06081	0.05129	1190.6	1.5
293.15	0.09786	0.19949	1201.5	1.5
293.15	0.09971	0.50716	1242.1	1.5
293.15	0.10026	0.29971	1213.3	1.5
293.15	0.10026	0.41495	1228.4	1.5
293.15	0.10087	0.59211	1255.8	1.5
293.15	0.10091	0.79753	1295.7	1.5
293.15	0.10216	0.10109	1190.8	1.5
293.15	0.10239	0.69438	1274.5	1.5
293.15	0.19282	0.10115	1182.8	1.5
293.15	0.1931	0.70599	1282.8	1.5
293.15	0.19442	0.20125	1195	1.5
293.15	0.19531	0.29965	1208.6	1.5
293.15	0.19708	0.60273	1260.7	1.5
293.15	0.20371	0.48837	1238.8	1.5
293.15	0.21669	0.34533	1214.9	1.5
293.15	0.29132	0.39932	1224.3	1.5
293.15	0.29266	0.50988	1246.7	1.5
293.15	0.29518	0.09655	1176.3	1.5
293.15	0.29716	0.29797	1206.4	1.5
293.15	0.29742	0.19789	1190.5	1.5
293.15	0.30192	0.59676	1267.5	1.5
293.15	0.39324	0.5064	1255.2	1.5
293.15	0.39369	0.19889	1189.9	1.5
293.15	0.39507	0.4068	1231.3	1.5
293.15	0.39734	0.1007	1173.8	1.5
293.15	0.399	0.30273	1209.4	1.5
293.15	0.49025	0.30598	1216	1.5
293.15	0.49467	0.19701	1192.2	1.5
293.15	0.49958	0.40132	1241.2	1.5
293.15	0.50935	0.09941	1173.6	1.5
293.15	0.59792	0.20059	1200.7	1.5
293.15	0.60211	0.29997	1228.2	1.5
293.15	0.60641	0.09811	1177.4	1.5
293.15	0.69358	0.10267	1186.3	1.5
293.15	0.70387	0.19624	1214.6	1.5
293.15	0.79674	0.10144	1202.5	1.5
293.15	0.89452	0.05327	1209.3	1.5
298.15	0.04973	0.89958	1293.2	1.5
298.15	0.06081	0.05129	1169.6	1.5
298.15	0.09786	0.19949	1180.6	1.5
298.15	0.09971	0.50716	1221.1	1.5
298.15	0.10026	0.29971	1192.4	1.5
298.15	0.10026	0.41495	1207.5	1.5
298.15	0.10087	0.59211	1234.9	1.5
298.15	0.10091	0.79753	1274.7	1.5
298.15	0.10216	0.10109	1169.7	1.5
298.15	0.10239	0.69438	1253.6	1.5
298.15	0.19282	0.10115	1161.7	1.5
298.15	0.1931	0.70599	1261.7	1.5
298.15	0.19442	0.20125	1173.9	1.5
298.15	0.19531	0.29965	1187.5	1.5
298.15	0.19708	0.60273	1239.6	1.5
298.15	0.20371	0.48837	1217.8	1.5
298.15	0.21669	0.34533	1193.9	1.5
298.15	0.29132	0.39932	1203.2	1.5
298.15	0.29266	0.50988	1225.5	1.5
298.15	0.29518	0.09655	1155	1.5
298.15	0.29716	0.29797	1185.3	1.5
298.15	0.29742	0.19789	1169.4	1.5
298.15	0.30192	0.59676	1246.2	1.5
298.15	0.39324	0.5064	1233.8	1.5
298.15	0.39369	0.19889	1168.6	1.5
298.15	0.39507	0.4068	1210	1.5
298.15	0.39734	0.1007	1152.5	1.5
298.15	0.399	0.30273	1188.1	1.5
298.15	0.49025	0.30598	1194.6	1.5
298.15	0.49467	0.19701	1170.8	1.5
298.15	0.49958	0.40132	1219.7	1.5
298.15	0.50935	0.09941	1152.2	1.5
298.15	0.59792	0.20059	1179.3	1.5
298.15	0.60211	0.29997	1206.5	1.5
298.15	0.60641	0.09811	1155.9	1.5
298.15	0.69358	0.10267	1164.8	1.5
298.15	0.70387	0.19624	1192.9	1.5
298.15	0.79674	0.10144	1180.8	1.5
298.15	0.89452	0.05327	1187.4	1.5
303.15	0.04973	0.89958	1272.3	1.5
303.15	0.06081	0.05129	1148.7	1.5
303.15	0.09786	0.19949	1159.7	1.5
303.15	0.09971	0.50716	1200.4	1.5
303.15	0.10026	0.29971	1171.5	1.5
303.15	0.10026	0.41495	1186.7	1.5
303.15	0.10087	0.59211	1214.1	1.5
303.15	0.10091	0.79753	1253.8	1.5
303.15	0.10216	0.10109	1148.9	1.5
303.15	0.10239	0.69438	1232.7	1.5
303.15	0.19282	0.10115	1140.7	1.5
303.15	0.1931	0.70599	1240.7	1.5
303.15	0.19442	0.20125	1153	1.5
303.15	0.19531	0.29965	1166.6	1.5
303.15	0.19708	0.60273	1218.6	1.5
303.15	0.20371	0.48837	1196.9	1.5
303.15	0.21669	0.34533	1172.9	1.5
303.15	0.29132	0.39932	1182.2	1.5
303.15	0.29266	0.50988	1204.3	1.5
303.15	0.29518	0.09655	1133.9	1.5
303.15	0.29716	0.29797	1164.2	1.5
303.15	0.29742	0.19789	1148.2	1.5
303.15	0.30192	0.59676	1225	1.5
303.15	0.39324	0.5064	1212.5	1.5
303.15	0.39369	0.19889	1147.4	1.5
303.15	0.39507	0.4068	1188.8	1.5
303.15	0.39734	0.1007	1131.2	1.5
303.15	0.399	0.30273	1166.9	1.5
303.15	0.49025	0.30598	1173.3	1.5
303.15	0.49467	0.19701	1149.5	1.5
303.15	0.49958	0.40132	1198.4	1.5
303.15	0.50935	0.09941	1130.9	1.5
303.15	0.59792	0.20059	1157.8	1.5
303.15	0.60211	0.29997	1185.1	1.5
303.15	0.60641	0.09811	1134.5	1.5
303.15	0.69358	0.10267	1143.4	1.5
303.15	0.70387	0.19624	1171.4	1.5
303.15	0.79674	0.10144	1159.2	1.5
303.15	0.89452	0.05327	1165.7	1.5
308.15	0.04973	0.89958	1251.5	1.5
308.15	0.06081	0.05129	1127.9	1.5
308.15	0.09786	0.19949	1138.9	1.5
308.15	0.09971	0.50716	1179.6	1.5
308.15	0.10026	0.29971	1150.7	1.5
308.15	0.10026	0.41495	1165.9	1.5
308.15	0.10087	0.59211	1193.4	1.5
308.15	0.10091	0.79753	1232.9	1.5
308.15	0.10216	0.10109	1128	1.5
308.15	0.10239	0.69438	1212	1.5
308.15	0.19282	0.10115	1119.7	1.5
308.15	0.1931	0.70599	1219.7	1.5
308.15	0.19442	0.20125	1132	1.5
308.15	0.19531	0.29965	1145.7	1.5
308.15	0.19708	0.60273	1197.7	1.5
308.15	0.20371	0.48837	1175.9	1.5
308.15	0.21669	0.34533	1152	1.5
308.15	0.29132	0.39932	1161.1	1.5
308.15	0.29266	0.50988	1183.4	1.5
308.15	0.29518	0.09655	1112.8	1.5
308.15	0.29716	0.29797	1143.1	1.5
308.15	0.29742	0.19789	1127.2	1.5
308.15	0.30192	0.59676	1204	1.5
308.15	0.39324	0.5064	1191.3	1.5
308.15	0.39369	0.19889	1126.3	1.5
308.15	0.39507	0.4068	1167.7	1.5
308.15	0.39734	0.1007	1110	1.5
308.15	0.399	0.30273	1145.7	1.5
308.15	0.49025	0.30598	1152.1	1.5
308.15	0.49467	0.19701	1128.2	1.5
308.15	0.49958	0.40132	1177.1	1.5
308.15	0.50935	0.09941	1109.6	1.5
308.15	0.59792	0.20059	1136.5	1.5
308.15	0.60211	0.29997	1163.7	1.5
308.15	0.60641	0.09811	1113.2	1.5
308.15	0.69358	0.10267	1122	1.5
308.15	0.70387	0.19624	1149.9	1.5
308.15	0.79674	0.10144	1137.6	1.5
308.15	0.89452	0.05327	1144	1.5

System: 1,4-dimethylbenzene + octane + dimethyl carbonate; phases: Liquid
Fixed: Pressure, kPa = 101
Property: Mass density, kg/m3 (Liquid); method: Vibrating tube method
Temperature, K	Mole fraction of dimethyl carbonate	Mole fraction of 1,4-dimethylbenzene	Mass density, kg/m3	uncertainty
288.15	0.04973	0.89958	861.3	0.25
288.15	0.06081	0.05129	723.6	0.25
288.15	0.09786	0.19949	751.55	0.25
288.15	0.09971	0.50716	801.4	0.25
288.15	0.10026	0.29971	767.32	0.25
288.15	0.10026	0.41495	785.83	0.25
288.15	0.10087	0.59211	817.02	0.25
288.15	0.10091	0.79753	857.42	0.25
288.15	0.10216	0.10109	738.4	0.25
288.15	0.10239	0.69438	836.95	0.25
288.15	0.19282	0.10115	757.99	0.25
288.15	0.1931	0.70599	870.16	0.25
288.15	0.19442	0.20125	774.32	0.25
288.15	0.19531	0.29965	791.1	0.25
288.15	0.19708	0.60273	849.24	0.25
288.15	0.20371	0.48837	828.29	0.25
288.15	0.21669	0.34533	805.12	0.25
288.15	0.29132	0.39932	838.48	0.25
288.15	0.29266	0.50988	862.6	0.25
288.15	0.29518	0.09655	782.56	0.25
288.15	0.29716	0.29797	820.06	0.25
288.15	0.29742	0.19789	801.15	0.25
288.15	0.30192	0.59676	886.06	0.25
288.15	0.39324	0.5064	900.75	0.25
288.15	0.39369	0.19889	830.8	0.25
288.15	0.39507	0.4068	877.07	0.25
288.15	0.39734	0.1007	812.24	0.25
288.15	0.399	0.30273	854.71	0.25
288.15	0.49025	0.30598	890.24	0.26
288.15	0.49467	0.19701	865.68	0.25
288.15	0.49958	0.40132	919.19	0.25
288.15	0.50935	0.09941	848.79	0.25
288.15	0.59792	0.20059	908.86	0.26
288.15	0.60211	0.29997	938.82	0.26
288.15	0.60641	0.09811	885.76	0.26
288.15	0.69358	0.10267	925.72	0.26
288.15	0.70387	0.19624	959.15	0.26
288.15	0.79674	0.10144	979.38	0.26
288.15	0.89452	0.05327	1022.72	0.3
293.15	0.04973	0.89958	856.89	0.25
293.15	0.06081	0.05129	719.42	0.25
293.15	0.09786	0.19949	747.26	0.25
293.15	0.09971	0.50716	797	0.25
293.15	0.10026	0.29971	763	0.25
293.15	0.10026	0.41495	781.47	0.25
293.15	0.10087	0.59211	812.59	0.25
293.15	0.10091	0.79753	852.94	0.25
293.15	0.10216	0.10109	734.14	0.25
293.15	0.10239	0.69438	832.49	0.25
293.15	0.19282	0.10115	753.55	0.25
293.15	0.1931	0.70599	865.52	0.25
293.15	0.19442	0.20125	769.85	0.25
293.15	0.19531	0.29965	786.6	0.25
293.15	0.19708	0.60273	844.63	0.25
293.15	0.20371	0.48837	823.7	0.25
293.15	0.21669	0.34533	800.56	0.25
293.15	0.29132	0.39932	833.75	0.25
293.15	0.29266	0.50988	857.82	0.25
293.15	0.29518	0.09655	777.9	0.25
293.15	0.29716	0.29797	815.34	0.25
293.15	0.29742	0.19789	796.46	0.25
293.15	0.30192	0.59676	881.24	0.25
293.15	0.39324	0.5064	895.75	0.25
293.15	0.39369	0.19889	825.89	0.25
293.15	0.39507	0.4068	872.1	0.25
293.15	0.39734	0.1007	807.36	0.25
293.15	0.399	0.30273	849.76	0.25
293.15	0.49025	0.30598	885.08	0.25
293.15	0.49467	0.19701	860.54	0.25
293.15	0.49958	0.40132	913.98	0.25
293.15	0.50935	0.09941	843.63	0.25
293.15	0.59792	0.20059	903.46	0.26
293.15	0.60211	0.29997	933.39	0.26
293.15	0.60641	0.09811	880.37	0.25
293.15	0.69358	0.10267	920.09	0.26
293.15	0.70387	0.19624	953.48	0.26
293.15	0.79674	0.10144	973.49	0.26
293.15	0.89452	0.05327	1016.54	0.29
298.15	0.04973	0.89958	852.47	0.25
298.15	0.06081	0.05129	715.25	0.25
298.15	0.09786	0.19949	742.97	0.25
298.15	0.09971	0.50716	792.61	0.25
298.15	0.10026	0.29971	758.67	0.25
298.15	0.10026	0.41495	777.1	0.25
298.15	0.10087	0.59211	808.17	0.25
298.15	0.10091	0.79753	848.45	0.25
298.15	0.10216	0.10109	729.87	0.25
298.15	0.10239	0.69438	828.04	0.25
298.15	0.19282	0.10115	749.1	0.25
298.15	0.1931	0.70599	860.88	0.25
298.15	0.19442	0.20125	765.36	0.25
298.15	0.19531	0.29965	782.09	0.25
298.15	0.19708	0.60273	840.02	0.25
298.15	0.20371	0.48837	819.1	0.25
298.15	0.21669	0.34533	795.99	0.25
298.15	0.29132	0.39932	829	0.25
298.15	0.29266	0.50988	853.03	0.25
298.15	0.29518	0.09655	773.24	0.25
298.15	0.29716	0.29797	810.61	0.25
298.15	0.29742	0.19789	791.77	0.25
298.15	0.30192	0.59676	876.4	0.25
298.15	0.39324	0.5064	890.74	0.25
298.15	0.39369	0.19889	820.98	0.25
298.15	0.39507	0.4068	867.12	0.25
298.15	0.39734	0.1007	802.46	0.25
298.15	0.399	0.30273	844.8	0.25
298.15	0.49025	0.30598	879.9	0.25
298.15	0.49467	0.19701	855.38	0.25
298.15	0.49958	0.40132	908.75	0.25
298.15	0.50935	0.09941	838.47	0.25
298.15	0.59792	0.20059	898.05	0.26
298.15	0.60211	0.29997	927.93	0.26
298.15	0.60641	0.09811	874.95	0.25
298.15	0.69358	0.10267	914.45	0.26
298.15	0.70387	0.19624	947.78	0.26
298.15	0.79674	0.10144	967.55	0.26
298.15	0.89452	0.05327	1010.31	0.29
303.15	0.04973	0.89958	848.02	0.25
303.15	0.06081	0.05129	711	0.25
303.15	0.09786	0.19949	738.61	0.25
303.15	0.09971	0.50716	788.16	0.25
303.15	0.10026	0.29971	754.28	0.25
303.15	0.10026	0.41495	772.67	0.25
303.15	0.10087	0.59211	803.7	0.25
303.15	0.10091	0.79753	843.92	0.25
303.15	0.10216	0.10109	725.53	0.25
303.15	0.10239	0.69438	823.54	0.25
303.15	0.19282	0.10115	744.59	0.25
303.15	0.1931	0.70599	856.21	0.25
303.15	0.19442	0.20125	760.82	0.25
303.15	0.19531	0.29965	777.51	0.25
303.15	0.19708	0.60273	835.36	0.25
303.15	0.20371	0.48837	814.46	0.25
303.15	0.21669	0.34533	791.34	0.25
303.15	0.29132	0.39932	824.2	0.25
303.15	0.29266	0.50988	848.18	0.25
303.15	0.29518	0.09655	768.52	0.25
303.15	0.29716	0.29797	805.82	0.25
303.15	0.29742	0.19789	787.01	0.25
303.15	0.30192	0.59676	871.52	0.25
303.15	0.39324	0.5064	885.69	0.25
303.15	0.39369	0.19889	816.01	0.25
303.15	0.39507	0.4068	862.09	0.25
303.15	0.39734	0.1007	797.52	0.25
303.15	0.399	0.30273	839.79	0.25
303.15	0.49025	0.30598	874.69	0.25
303.15	0.49467	0.19701	850.19	0.25
303.15	0.49958	0.40132	903.48	0.25
303.15	0.50935	0.09941	833.26	0.25
303.15	0.59792	0.20059	892.6	0.26
303.15	0.60211	0.29997	922.44	0.26
303.15	0.60641	0.09811	869.5	0.25
303.15	0.69358	0.10267	908.77	0.26
303.15	0.70387	0.19624	942.05	0.26
303.15	0.79674	0.10144	961.58	0.26
303.15	0.89452	0.05327	1004.05	0.28
308.15	0.04973	0.89958	843.67	0.25
308.15	0.06081	0.05129	706.91	0.25
308.15	0.09786	0.19949	734.39	0.25
308.15	0.09971	0.50716	783.84	0.25
308.15	0.10026	0.29971	750.02	0.25
308.15	0.10026	0.41495	768.37	0.25
308.15	0.10087	0.59211	799.34	0.25
308.15	0.10091	0.79753	839.49	0.25
308.15	0.10216	0.10109	721.34	0.25
308.15	0.10239	0.69438	819.14	0.25
308.15	0.19282	0.10115	740.21	0.25
308.15	0.1931	0.70599	851.62	0.25
308.15	0.19442	0.20125	756.4	0.25
308.15	0.19531	0.29965	773.06	0.25
308.15	0.19708	0.60273	830.81	0.25
308.15	0.20371	0.48837	809.91	0.25
308.15	0.21669	0.34533	786.83	0.25
308.15	0.29132	0.39932	819.5	0.25
308.15	0.29266	0.50988	843.46	0.25
308.15	0.29518	0.09655	763.92	0.25
308.15	0.29716	0.29797	801.16	0.25
308.15	0.29742	0.19789	782.38	0.25
308.15	0.30192	0.59676	866.74	0.25
308.15	0.39324	0.5064	880.71	0.25
308.15	0.39369	0.19889	811.15	0.25
308.15	0.39507	0.4068	857.15	0.25
308.15	0.39734	0.1007	792.69	0.25
308.15	0.399	0.30273	834.88	0.25
308.15	0.49025	0.30598	869.54	0.25
308.15	0.49467	0.19701	845.07	0.25
308.15	0.49958	0.40132	898.28	0.25
308.15	0.50935	0.09941	828.13	0.25
308.15	0.59792	0.20059	887.21	0.25
308.15	0.60211	0.29997	917	0.26
308.15	0.60641	0.09811	864.13	0.25
308.15	0.69358	0.10267	903.16	0.26
308.15	0.70387	0.19624	936.37	0.26
308.15	0.79674	0.10144	955.64	0.26
308.15	0.89452	0.05327	997.79	0.28
