Measured thermophysical data. Experimental Determination, Correlation, and Prediction of Physical Properties of the Ternary Mixtures Ethanol and 1-Propanol + Water + 1-Ethyl-3-methylpyridinium Ethylsulfate at 298.15 K
Source: J. Chem. Eng. Data, 2009, 10.1021/je8009732
Compound 1: ethanol, C2H6O, InChI=1S/C2H6O/c1-2-3/h3H,2H2,1H3
Compound 2: propan-1-ol, C3H8O, InChI=1S/C3H8O/c1-2-3-4/h4H,2-3H2,1H3
Compound 3: water, H2O, InChI=1S/H2O/h1H2
Compound 4: 1-ethyl-3-methylpyridinium ethylsulfate, C10H17NO4S, InChI=1S/C8H12N.C2H6O4S/c1-3-9-6-4-5-8(2)7-9;1-2-6-7(3,4)5/h4-7H,3H2,1-2H3;2H2,1H3,(H,3,4,5)/q+1;/p-1

System: propan-1-ol; phases: Liquid
Property: Refractive index (Na D-line) (Liquid); method: Standard Abbe refractometry
Temperature, K	Pressure, kPa	Refractive index (Na D-line)	uncertainty
298.15	101.325	1.3837	0.00068

System: propan-1-ol; phases: Liquid
Property: Viscosity, Pa*s (Liquid); method: CAPTUB:UFactor:8
Temperature, K	Pressure, kPa	Viscosity, Pa*s	uncertainty
298.15	101.3	0.002017	9.3e-05

System: propan-1-ol; phases: Liquid
Property: Mass density, kg/m3 (Liquid); method: Vibrating tube method
Temperature, K	Pressure, kPa	Mass density, kg/m3	uncertainty
298.15	101.3	799.5	0.53

System: 1-ethyl-3-methylpyridinium ethylsulfate; phases: Liquid
Property: Refractive index (Na D-line) (Liquid); method: Standard Abbe refractometry
Temperature, K	Pressure, kPa	Refractive index (Na D-line)	uncertainty
298.15	101.325	1.50666	0.00121

System: 1-ethyl-3-methylpyridinium ethylsulfate; phases: Liquid
Property: Viscosity, Pa*s (Liquid); method: CAPTUB::UFactor:8
Temperature, K	Pressure, kPa	Viscosity, Pa*s	uncertainty
298.15	101.3	0.1614	0.0268

System: 1-ethyl-3-methylpyridinium ethylsulfate; phases: Liquid
Property: Mass density, kg/m3 (Liquid); method: Vibrating tube method
Temperature, K	Pressure, kPa	Mass density, kg/m3	uncertainty
298.15	101.3	1222.2	8.13

System: propan-1-ol + 1-ethyl-3-methylpyridinium ethylsulfate; phases: Liquid
Fixed: Temperature, K = 298.15
Fixed: Pressure, kPa = 101.3
Property: Viscosity, Pa*s (Liquid); method: CAPTUB:UFactor:8
Mole fraction of propan-1-ol	Viscosity, Pa*s	uncertainty
0	0.1614	0.0268
0.0863	0.1264	0.0168
0.1279	0.1124	0.0132
0.2201	0.08583	0.007
0.3243	0.06226	0.0026
0.4177	0.04886	0.002
0.5126	0.03416	0.00133
0.6093	0.02462	0.00093
0.7176	0.01627	0.00061
0.824	0.0099	0.000383
0.8834	0.007027	0.000286
0.9658	0.003411	0.000152
1	0.002017	9.3e-05

System: propan-1-ol + 1-ethyl-3-methylpyridinium ethylsulfate; phases: Liquid
Fixed: Temperature, K = 298.15
Fixed: Pressure, kPa = 101.3
Property: Refractive index (Na D-line) (Liquid); method: Standard Abbe refractometry
Mole fraction of propan-1-ol	Refractive index (Na D-line)	uncertainty
0	1.50666	0.00121
0.0863	1.50223	0.00114
0.1279	1.5002	0.00111
0.2201	1.49524	0.00104
0.3243	1.48866	0.00096
0.4177	1.48167	0.0009
0.5126	1.47321	0.00084
0.6093	1.4627	0.00079
0.7176	1.44818	0.00074
0.824	1.4297	0.0007
0.8834	1.41684	0.00069
0.9658	1.39459	0.00068
1	1.3837	0.00068

System: propan-1-ol + 1-ethyl-3-methylpyridinium ethylsulfate; phases: Liquid
Fixed: Temperature, K = 298.15
Fixed: Pressure, kPa = 101.3
Property: Mass density, kg/m3 (Liquid); method: Vibrating tube method
Mole fraction of propan-1-ol	Mass density, kg/m3	uncertainty
0	1222.2	8.13
0.0863	1208.44	6.62
0.1279	1201.22	5.95
0.2201	1183.56	4.62
0.3243	1160.24	3.35
0.4177	1135.68	2.4
0.5126	1106.18	1.63
0.6093	1069.97	1.06
0.7176	1019.9	0.71
0.824	956.78	0.57
0.8834	913.04	0.55
0.9658	837.78	0.53
1	799.5	0.53

System: ethanol + water + 1-ethyl-3-methylpyridinium ethylsulfate; phases: Liquid, Gas
Fixed: Temperature, K = 298.15
Property: Viscosity, Pa*s (Liquid); method: CAPTUB:UFactor:8
Mole fraction of ethanol	Mole fraction of water	Viscosity, Pa*s	uncertainty
0.0391	0.9485	0.001811	8.4e-05
0.0443	0.9286	0.002345	0.000107
0.0466	0.942	0.001692	7.9e-05
0.0557	0.8922	0.003276	0.000147
0.0559	0.9196	0.002202	0.000101
0.0658	0.8853	0.003138	0.000141
0.0704	0.8361	0.005026	0.000221
0.0837	0.9045	0.002276	0.000104
0.0849	0.8322	0.004488	0.000198
0.0944	0.8799	0.002731	0.000124
0.0956	0.7479	0.007846	0.000314
0.0978	0.3563	0.036488	0.001451
0.1016	0.5285	0.020115	0.00076
0.1017	0.5391	0.019195	0.000725
0.1018	0.8875	0.002169	0.0001
0.1026	0.3681	0.032143	0.001268
0.1038	0.1883	0.058404	0.002094
0.1121	0.8389	0.003534	0.000158
0.1155	0.8615	0.002554	0.000116
0.1191	0.7283	0.007444	0.000301
0.1346	0.8542	0.002605	0.000118
0.1401	0.8149	0.003276	0.000147
0.1448	0.7692	0.004867	0.000214
0.1526	0.8234	0.002982	0.000134
0.1611	0.8289	0.002479	0.000113
0.1724	0.7526	0.004225	0.000187
0.1795	0.7752	0.003642	0.000162
0.1915	0.6686	0.00696	0.000285
0.1918	0.7872	0.00278	0.000126
0.1956	0.1559	0.04365	0.001797
0.1958	0.7938	0.002809	0.000127
0.2017	0.4791	0.015215	0.000575
0.203	0.4688	0.015065	0.000571
0.2167	0.1646	0.03702	0.001496
0.218	0.7411	0.003206	0.000144
0.2252	0.6969	0.004617	0.000204
0.2264	0.7517	0.003112	0.00014
0.2306	0.3039	0.023769	0.000913
0.2316	0.7592	0.002543	0.000116
0.2543	0.7045	0.003582	0.00016
0.2634	0.7175	0.002695	0.000122
0.2651	0.6684	0.003859	0.000172
0.2665	0.7241	0.002887	0.00013
0.2888	0.5881	0.006104	0.000257
0.2915	0.1373	0.03087	0.001222
0.2957	0.6843	0.003107	0.00014
0.296	0.2888	0.019578	0.000746
0.2995	0.412	0.011517	0.000444
0.3014	0.2759	0.018706	0.000714
0.3049	0.6587	0.003015	0.000136
0.3108	0.6199	0.004345	0.000193
0.3119	0.6798	0.002444	0.000112
0.3185	0.1432	0.027653	0.001083
0.34	0.6236	0.003464	0.000156
0.3432	0.6397	0.002635	0.000121
0.3471	0.5398	0.004852	0.000214
0.3611	0.581	0.003363	0.000151
0.3868	0.5958	0.002967	0.000134
0.3927	0.5022	0.005119	0.000225
0.394	0.2486	0.014858	0.000567
0.3952	0.5731	0.002731	0.000124
0.3985	0.1166	0.020634	0.000796
0.4003	0.3599	0.0094	0.00037
0.4031	0.5369	0.003976	0.000177
0.4061	0.3493	0.008503	0.000339
0.4164	0.1226	0.019856	0.000763
0.4352	0.5501	0.002348	0.000109
0.4518	0.4532	0.003954	0.000179
0.4603	0.5328	0.00267	0.000121
0.461	0.4902	0.002901	0.000132
0.4879	0.4235	0.004547	0.000202
0.4947	0.2073	0.011087	0.000429
0.5002	0.1974	0.009494	0.000377
0.5036	0.292	0.006354	0.000276
0.5051	0.297	0.007403	0.000309
0.5212	0.1006	0.014398	0.000553
0.5436	0.4313	0.002966	0.000134
0.5506	0.3715	0.003239	0.000147
0.5592	0.4009	0.002499	0.000115
0.5923	0.1672	0.007939	0.00032
0.5982	0.2412	0.005986	0.000253
0.6	0.0775	0.009162	0.000365
0.6	0.158	0.006633	0.000276
0.6019	0.3773	0.00206	9.6e-05
0.6035	0.2332	0.004707	0.000208
0.6176	0.0804	0.010192	0.000399
0.6264	0.363	0.002547	0.000116
0.672	0.3194	0.001748	8.3e-05
0.6912	0.2553	0.003282	0.000147
0.6936	0.1257	0.005848	0.000249
0.6988	0.1807	0.004672	0.000207
0.7009	0.1181	0.004514	0.0002
0.7012	0.1757	0.00347	0.000156
0.7244	0.0579	0.006781	0.000281
0.7437	0.2119	0.002142	9.9e-05
0.7572	0.0471	0.004453	0.000198
0.786	0.2079	0.002273	0.000104
0.8189	0.1764	0.001445	6.9e-05
0.8324	0.1386	0.001723	8.1e-05
0.8828	0.0463	0.002076	9.6e-05

System: ethanol + water + 1-ethyl-3-methylpyridinium ethylsulfate; phases: Liquid
Fixed: Pressure, kPa = 101
Fixed: Temperature, K = 298.15
Property: Refractive index (Na D-line) (Liquid); method: Standard Abbe refractometry
Mole fraction of ethanol	Mole fraction of water	Refractive index (Na D-line)	uncertainty
0.0391	0.9485	1.36168	0.00068
0.0443	0.9286	1.37971	0.00069
0.0466	0.942	1.35735	0.00069
0.0557	0.8922	1.40241	0.00069
0.0559	0.9196	1.37677	0.00068
0.0658	0.8853	1.39835	0.00068
0.0704	0.8361	1.42669	0.00069
0.0837	0.9045	1.36754	0.00068
0.0849	0.8322	1.42068	0.00069
0.0944	0.8799	1.38277	0.00068
0.0956	0.7479	1.44815	0.0007
0.0978	0.3563	1.49186	0.00088
0.1016	0.5285	1.48102	0.00078
0.1017	0.5391	1.47899	0.00078
0.1018	0.8875	1.36233	0.00069
0.1026	0.3681	1.49008	0.00087
0.1038	0.1883	1.49678	0.00098
0.1121	0.8389	1.40185	0.0007
0.1155	0.8615	1.37705	0.0007
0.1191	0.7283	1.44645	0.0007
0.1346	0.8542	1.3715	0.00069
0.1401	0.8149	1.39675	0.0007
0.1448	0.7692	1.42208	0.0007
0.1526	0.8234	1.38432	0.0007
0.1611	0.8289	1.36564	0.0007
0.1724	0.7526	1.41499	0.00069
0.1795	0.7752	1.40024	0.00069
0.1915	0.6686	1.43991	0.0007
0.1918	0.7872	1.37779	0.0007
0.1956	0.1559	1.49268	0.00094
0.1958	0.7938	1.37467	0.00068
0.2017	0.4791	1.47069	0.00076
0.203	0.4688	1.47277	0.00077
0.2167	0.1646	1.48986	0.00092
0.218	0.7411	1.39389	0.00071
0.2252	0.6969	1.41713	0.00072
0.2264	0.7517	1.38536	0.00071
0.2306	0.3039	1.48282	0.00083
0.2316	0.7592	1.3675	0.00072
0.2543	0.7045	1.3984	0.0007
0.2634	0.7175	1.37721	0.00072
0.2651	0.6684	1.40855	0.00072
0.2665	0.7241	1.37736	0.00068
0.2888	0.5881	1.43191	0.00071
0.2915	0.1373	1.48642	0.00089
0.2957	0.6843	1.38586	0.00073
0.296	0.2888	1.47552	0.00081
0.2995	0.412	1.46413	0.00075
0.3014	0.2759	1.47724	0.00081
0.3049	0.6587	1.39002	0.00075
0.3108	0.6199	1.41215	0.00074
0.3119	0.6798	1.36822	0.00081
0.3185	0.1432	1.48261	0.00087
0.34	0.6236	1.39625	0.00082
0.3432	0.6397	1.37591	0.00084
0.3471	0.5398	1.42552	0.00073
0.3611	0.581	1.40186	0.00073
0.3868	0.5958	1.38617	0.00071
0.3927	0.5022	1.42361	0.00071
0.394	0.2486	1.46692	0.00078
0.3952	0.5731	1.38603	0.00073
0.3985	0.1166	1.47807	0.00084
0.4003	0.3599	1.45248	0.00073
0.4031	0.5369	1.40728	0.00071
0.4061	0.3493	1.45364	0.00074
0.4164	0.1226	1.47455	0.00083
0.4352	0.5501	1.37405	0.0008
0.4518	0.4532	1.41551	0.00072
0.4603	0.5328	1.38144	0.00073
0.461	0.4902	1.39472	0.00073
0.4879	0.4235	1.41657	0.00071
0.4947	0.2073	1.45703	0.00076
0.5002	0.1974	1.45796	0.00076
0.5036	0.292	1.44286	0.00075
0.5051	0.297	1.44209	0.00074
0.5212	0.1006	1.46443	0.00079
0.5436	0.4313	1.39189	0.00071
0.5506	0.3715	1.40581	0.00071
0.5592	0.4009	1.38805	0.00074
0.5923	0.1672	1.44628	0.00073
0.5982	0.2412	1.43226	0.00071
0.6	0.0775	1.45671	0.00076
0.6	0.158	1.44605	0.00073
0.6019	0.3773	1.37677	0.00072
0.6035	0.2332	1.43053	0.00071
0.6176	0.0804	1.4534	0.00075
0.6264	0.363	1.3858	0.00069
0.672	0.3194	1.36843	0.00072
0.6912	0.2553	1.4027	0.00069
0.6936	0.1257	1.43351	0.00072
0.6988	0.1807	1.42129	0.00075
0.7009	0.1181	1.4306	0.00072
0.7012	0.1757	1.41626	0.0007
0.7244	0.0579	1.43903	0.00072
0.7437	0.2119	1.38668	0.00069
0.7572	0.0471	1.43149	0.00072
0.786	0.2079	1.38501	0.00068
0.8189	0.1764	1.36465	0.00069
0.8324	0.1386	1.3774	0.00068
0.8828	0.0463	1.39397	0.00068

System: ethanol + water + 1-ethyl-3-methylpyridinium ethylsulfate; phases: Liquid
Fixed: Pressure, kPa = 101
Fixed: Temperature, K = 298.15
Property: Mass density, kg/m3 (Liquid); method: Vibrating tube method
Mole fraction of ethanol	Mole fraction of water	Mass density, kg/m3	uncertainty
0.0391	0.9485	1007.26	0.53
0.0443	0.9286	1031.53	0.54
0.0466	0.942	1006.25	0.54
0.0557	0.8922	1060.16	0.55
0.0559	0.9196	1028.17	0.54
0.0658	0.8853	1060.5	0.55
0.0704	0.8361	1091.66	0.55
0.0837	0.9045	985.96	0.57
0.0849	0.8322	1088.41	0.58
0.0944	0.8799	1005.86	0.58
0.0956	0.7479	1117.47	0.59
0.0978	0.3563	1194.68	2.39
0.1016	0.5285	1177.67	1.25
0.1017	0.5391	1167.2	1.19
0.1018	0.8875	987.46	0.58
0.1026	0.3681	1185.16	2.22
0.1038	0.1883	1195.89	3.92
0.1121	0.8389	1029.99	0.58
0.1155	0.8615	1006.18	0.61
0.1191	0.7283	1120.32	0.59
0.1346	0.8542	961.71	0.75
0.1401	0.8149	1030.49	0.63
0.1448	0.7692	1053.42	0.6
0.1526	0.8234	977.12	0.61
0.1611	0.8289	967.36	0.62
0.1724	0.7526	1052.28	0.61
0.1795	0.7752	996.97	0.73
0.1915	0.6686	1073.34	0.59
0.1918	0.7872	978.26	0.64
0.1956	0.1559	1186.84	3.28
0.1958	0.7938	937.17	1.21
0.2017	0.4791	1133.85	1.21
0.203	0.4688	1150.16	1.24
0.2167	0.1646	1170.83	2.92
0.218	0.7411	999.41	0.62
0.2252	0.6969	1016.25	0.67
0.2264	0.7517	946.76	0.72
0.2306	0.3039	1165.67	1.7
0.2316	0.7592	943.82	0.7
0.2543	0.7045	965.42	0.81
0.2634	0.7175	952.24	0.76
0.2651	0.6684	1015.1	0.69
0.2665	0.7241	913.21	1.58
0.2888	0.5881	1031.8	0.63
0.2915	0.1373	1167.47	2.51
0.2957	0.6843	922.75	0.96
0.296	0.2888	1130.83	1.41
0.2995	0.412	1121.26	0.84
0.3014	0.2759	1147.91	1.49
0.3049	0.6587	966.77	0.82
0.3108	0.6199	980.74	0.74
0.3119	0.6798	918.42	0.87
0.3185	0.1432	1144.82	2.16
0.34	0.6236	934.66	0.75
0.3432	0.6397	926.23	0.68
0.3471	0.5398	1032.89	0.85
0.3611	0.581	978.46	0.81
0.3868	0.5958	896.83	1.3
0.3927	0.5022	990.6	0.67
0.394	0.2486	1099.1	1.02
0.3952	0.5731	936.03	0.99
0.3985	0.1166	1141.71	1.84
0.4003	0.3599	1062.17	0.71
0.4031	0.5369	947.09	0.85
0.4061	0.3493	1086.25	0.76
0.4164	0.1226	1116.18	1.63
0.4352	0.5501	899.92	0.85
0.4518	0.4532	992.75	0.63
0.4603	0.5328	867.17	1.22
0.461	0.4902	942.9	1.13
0.4879	0.4235	955.62	0.76
0.4947	0.2073	1062.99	0.83
0.5002	0.1974	1086.79	1.39
0.5036	0.292	1050	1.74
0.5051	0.297	1021.73	1.76
0.5212	0.1006	1080.39	1.06
0.5436	0.4313	878.93	0.97
0.5506	0.3715	955.19	0.69
0.5592	0.4009	910.29	0.85
0.5923	0.1672	1023.83	0.69
0.5982	0.2412	984.13	0.67
0.6	0.0775	1076.27	1.15
0.6	0.158	1048.16	0.73
0.6019	0.3773	875.48	0.84
0.6035	0.2332	1009.38	0.71
0.6176	0.0804	1042.03	1.06
0.6264	0.363	848.24	0.85
0.672	0.3194	843.95	0.69
0.6912	0.2553	888.15	0.64
0.6936	0.1257	978.79	0.64
0.6988	0.1807	941.77	0.73
0.7009	0.1181	1001.35	0.66
0.7012	0.1757	964.43	0.61
0.7244	0.0579	991.68	0.61
0.7437	0.2119	882.11	0.61
0.7572	0.0471	999.85	0.61
0.786	0.2079	824.94	0.64
0.8189	0.1764	816.07	0.62
0.8324	0.1386	848.84	0.58
0.8828	0.0463	888.86	0.55
