Measured thermophysical data. Volumetric, Transport and Surface Properties of [bmim][MeSO4] and [emim][EtSO4] Ionic Liquids As a Function of Temperature
Source: J. Chem. Eng. Data, 2008, 10.1021/je8000766
Compound 1: 1-butyl-3-methylimidazolium methyl sulfate, C9H18N2O4S, InChI=1S/C8H15N2.CH4O4S/c1-3-4-5-10-7-6-9(2)8-10;1-5-6(2,3)4/h6-8H,3-5H2,1-2H3;1H3,(H,2,3,4)/q+1;/p-1
Compound 2: 1-ethyl-3-methylimidazolium ethyl sulfate, C8H16N2O4S, InChI=1S/C6H11N2.C2H6O4S/c1-3-8-5-4-7(2)6-8;1-2-6-7(3,4)5/h4-6H,3H2,1-2H3;2H2,1H3,(H,3,4,5)/q+1;/p-1

System: 1-butyl-3-methylimidazolium methyl sulfate; phases: Liquid, Air at 1 atmosphere
Property: Surface tension liquid-gas, N/m (Liquid); method: Drop weight
Temperature, K	Surface tension liquid-gas, N/m	uncertainty
303.15	0.04272	0.00108
313.15	0.04209	0.00107
323.15	0.0416	0.00105
333.15	0.04102	0.00104

System: 1-butyl-3-methylimidazolium methyl sulfate; phases: Liquid, Air at 1 atmosphere
Property: Viscosity, Pa*s (Liquid); method: Falling or rolling sphere viscometry
Temperature, K	Viscosity, Pa*s	uncertainty
303.15	0.1735	0.0104
313.15	0.1042	0.0044
323.15	0.0668	0.002
333.15	0.0453	0.0013
343.15	0.0322	0.0009
353.15	0.0237	0.0007

System: 1-butyl-3-methylimidazolium methyl sulfate; phases: Liquid, Air at 1 atmosphere
Property: Mass density, kg/m3 (Liquid); method: Vibrating tube method
Temperature, K	Mass density, kg/m3	uncertainty
293.15	1212.95	8.01
298.15	1209.56	7.96
303.15	1206.27	7.92
308.15	1203.02	7.88
313.15	1199.75	7.83
318.15	1196.5	7.79
323.15	1193.25	7.75
328.15	1190.01	7.7
333.15	1186.78	7.66
338.15	1183.55	7.62
343.15	1180.33	7.58
348.15	1177.13	7.53
353.15	1173.93	7.49

System: 1-ethyl-3-methylimidazolium ethyl sulfate; phases: Liquid, Air at 1 atmosphere
Property: Surface tension liquid-gas, N/m (Liquid); method: Drop weight
Temperature, K	Surface tension liquid-gas, N/m	uncertainty
303.15	0.04725	0.0012
313.15	0.04678	0.00118
323.15	0.04624	0.00117
333.15	0.04565	0.00116

System: 1-ethyl-3-methylimidazolium ethyl sulfate; phases: Liquid, Air at 1 atmosphere
Property: Viscosity, Pa*s (Liquid); method: Falling or rolling sphere viscometry
Temperature, K	Viscosity, Pa*s	uncertainty
293.15	0.1203	0.0056
303.15	0.0737	0.0023
313.15	0.0485	0.0014
323.15	0.0337	0.0009
333.15	0.0245	0.0007
343.15	0.0185	0.0005
353.15	0.0144	0.0004

System: 1-ethyl-3-methylimidazolium ethyl sulfate; phases: Liquid, Air at 1 atmosphere
Property: Mass density, kg/m3 (Liquid); method: Vibrating tube method
Temperature, K	Mass density, kg/m3	uncertainty
293.15	1240.3	8.38
298.15	1236.92	8.33
303.15	1233.54	8.29
308.15	1230.16	8.24
313.15	1226.79	8.19
318.15	1223.43	8.15
323.15	1220.09	8.1
328.15	1216.75	8.06
333.15	1213.42	8.01
338.15	1210.11	7.97
343.15	1206.8	7.93
348.15	1203.51	7.88
353.15	1200.23	7.84
