Measured thermophysical data. Volumetric Properties and Conductivities of 1-Butyl-3-methylimidazolium Tetrafluoroborate + Sucrose + Water Mixtures
Source: J. Chem. Eng. Data, 2009, 10.1021/je800622e
Compound 1: water, H2O, InChI=1S/H2O/h1H2
Compound 2: 1-butyl-3-methylimidazolium tetrafluoroborate, C8H15BF4N2, InChI=1S/C8H15N2.BF4/c1-3-4-5-10-7-6-9(2)8-10;2-1(3,4)5/h6-8H,3-5H2,1-2H3;/q+1;-1
Compound 3: D-sucrose, C12H22O11, InChI=1S/C12H22O11/c13-1-4-6(16)8(18)9(19)11(21-4)23-12(3-15)10(20)7(17)5(2-14)22-12/h4-11,13-20H,1-3H2/t4-,5-,6-,7-,8+,9-,10+,11-,12+/m1/s1

System: water; phases: Liquid
Property: Mass density, kg/m3 (Liquid); method: Pycnometric method
Pressure, kPa	Temperature, K	Mass density, kg/m3	uncertainty
101	298.15	997.1	0.891

System: water + 1-butyl-3-methylimidazolium tetrafluoroborate; phases: Liquid
Fixed: Pressure, kPa = 101
Fixed: Temperature, K = 298.15
Property: Molar conductivity, S*m2/mol (Liquid); method: Alternating current cell with electrodes
Molality, mol/kg of 1-butyl-3-methylimidazolium tetrafluoroborate	Molar conductivity, S*m2/mol	uncertainty
0.05	0.00906	0.000544
0.1	0.008495	0.00051
0.15	0.008	0.00048
0.25	0.007141	0.000428
0.5	0.005467	0.000328
0.75	0.004189	0.000251
1	0.003886	0.000233

System: water + 1-butyl-3-methylimidazolium tetrafluoroborate; phases: Liquid
Fixed: Pressure, kPa = 101
Fixed: Temperature, K = 298.15
Property: Mass density, kg/m3 (Liquid); method: Pycnometric method
Molality, mol/kg of 1-butyl-3-methylimidazolium tetrafluoroborate	Mass density, kg/m3	uncertainty
0.05	999	0.892
0.1	1000.85	0.894
0.15	1002.63	0.895
0.25	1006.1	0.899
0.5	1014.2	0.907
0.75	1021.57	0.914
1	1028.25	0.919

System: D-sucrose + water; phases: Liquid
Fixed: Pressure, kPa = 101
Fixed: Temperature, K = 298.15
Property: Mass density, kg/m3 (Liquid); method: Pycnometric method
Molality, mol/kg of D-sucrose	Mass density, kg/m3	uncertainty
0.02	999.72	0.884
0.06	1004.87	0.889
0.1	1009.9	0.893
0.15	1016.06	0.899
0.2	1022.12	0.905
0.25	1027.95	0.91

System: D-sucrose + water + 1-butyl-3-methylimidazolium tetrafluoroborate; phases: Liquid
Fixed: Pressure, kPa = 101
Fixed: Temperature, K = 298.15
Property: Molar conductivity, S*m2/mol (Liquid); method: Alternating current cell with electrodes
Solvent: Molality, mol/kg of D-sucrose	Molality, mol/kg of 1-butyl-3-methylimidazolium tetrafluoroborate	Molar conductivity, S*m2/mol	uncertainty
0	0.05	0.00906	0.000544
0	0.1	0.008495	0.00051
0	0.15	0.008	0.00048
0	0.25	0.007141	0.000428
0	0.5	0.005467	0.000328
0	0.75	0.004189	0.000251
0	1	0.003886	0.000233
0.02	0.05	0.008657	0.000519
0.02	0.1	0.008154	0.000489
0.02	0.15	0.007814	0.000469
0.02	0.25	0.006929	0.000416
0.02	0.5	0.005369	0.000322
0.02	0.75	0.004128	0.000248
0.02	1	0.003834	0.00023
0.06	0.05	0.008375	0.000503
0.06	0.1	0.007875	0.000473
0.06	0.15	0.007235	0.000434
0.06	0.25	0.006765	0.000406
0.06	0.5	0.005285	0.000317
0.06	0.75	0.004073	0.000244
0.06	1	0.003784	0.000227
0.1	0.05	0.008024	0.000481
0.1	0.1	0.007542	0.000453
0.1	0.15	0.006912	0.000415
0.1	0.25	0.006298	0.000378
0.1	0.5	0.005174	0.00031
0.1	0.75	0.003971	0.000238
0.1	1	0.003694	0.000222
0.15	0.05	0.007442	0.000447
0.15	0.1	0.007043	0.000423
0.15	0.15	0.006523	0.000391
0.15	0.25	0.005682	0.000341
0.15	0.5	0.004956	0.000297
0.15	0.75	0.003887	0.000233
0.15	1	0.003612	0.000217
0.2	0.05	0.006903	0.000414
0.2	0.1	0.00624	0.000374
0.2	0.15	0.006016	0.000361
0.2	0.25	0.005467	0.000328
0.2	0.5	0.004749	0.000285
0.2	0.75	0.003766	0.000226
0.2	1	0.003498	0.00021
0.25	0.05	0.006022	0.000361
0.25	0.1	0.005752	0.000345
0.25	0.15	0.005415	0.000325
0.25	0.25	0.005189	0.000311
0.25	0.5	0.00451	0.000271
0.25	0.75	0.003667	0.00022
0.25	1	0.003377	0.000203

System: D-sucrose + water + 1-butyl-3-methylimidazolium tetrafluoroborate; phases: Liquid
Fixed: Pressure, kPa = 101
Fixed: Temperature, K = 298.15
Property: Mass density, kg/m3 (Liquid); method: Pycnometric method
Molality, mol/kg of D-sucrose	Molality, mol/kg of 1-butyl-3-methylimidazolium tetrafluoroborate	Mass density, kg/m3	uncertainty
0	0	997.1	0.891
0	0.05	999	0.892
0	0.1	1000.85	0.894
0	0.15	1002.63	0.895
0	0.25	1006.1	0.899
0	0.5	1014.2	0.907
0	0.75	1021.57	0.914
0	1	1028.25	0.919
0.02	0	999.72	0.884
0.02	0.05	1001.58	0.885
0.02	0.1	1003.4	0.887
0.02	0.15	1005.15	0.889
0.02	0.25	1008.55	0.892
0.02	0.5	1016.51	0.9
0.02	0.75	1023.76	0.908
0.02	1	1030.32	0.915
0.06	0	1004.87	0.889
0.06	0.05	1006.68	0.89
0.06	0.1	1008.42	0.892
0.06	0.15	1010.1	0.893
0.06	0.25	1013.39	0.896
0.06	0.5	1021.07	0.904
0.06	0.75	1028.07	0.912
0.06	1	1034.41	0.918
0.1	0	1009.9	0.893
0.1	0.05	1011.67	0.894
0.1	0.1	1013.35	0.896
0.1	0.15	1014.96	0.898
0.1	0.25	1018.12	0.901
0.1	0.5	1025.54	0.908
0.1	0.75	1032.3	0.916
0.1	1	1038.42	0.922
0.15	0	1016.06	0.899
0.15	0.05	1017.79	0.9
0.15	0.1	1019.38	0.902
0.15	0.15	1020.91	0.903
0.15	0.25	1023.93	0.906
0.15	0.5	1031.03	0.914
0.15	0.75	1037.49	0.92
0.15	1	1043.35	0.927
0.2	0	1022.12	0.905
0.2	0.05	1023.76	0.906
0.2	0.1	1025.28	0.907
0.2	0.15	1026.74	0.909
0.2	0.25	1029.62	0.911
0.2	0.5	1036.4	0.919
0.2	0.75	1042.58	0.925
0.2	1	1048.19	0.931
0.25	0	1027.95	0.91
0.25	0.05	1029.6	0.911
0.25	0.1	1031.04	0.912
0.25	0.15	1032.42	0.914
0.25	0.25	1035.16	0.917
0.25	0.5	1041.65	0.923
0.25	0.75	1047.56	0.93
0.25	1	1052.92	0.936
