Measured thermophysical data. Osmotic Coefficients and Refractive Indices of Aqueous Solutions of Ionic Liquids Containing 1-Butyl-3-methylimidazolium Halide at T ) (298.15 to 328.15) K
Source: J. Chem. Eng. Data, 2009, 10.1021/je800609u
Compound 1: 1-butyl-3-methylimidazolium chloride, C8H15ClN2, InChI=1S/C8H15N2.ClH/c1-3-4-5-10-7-6-9(2)8-10;/h6-8H,3-5H2,1-2H3;1H/q+1;/p-1
Compound 2: 1-butyl-3-methylimidazolium iodide, C8H15IN2, InChI=1S/C8H15N2.HI/c1-3-4-5-10-7-6-9(2)8-10;/h6-8H,3-5H2,1-2H3;1H/q+1;/p-1
Compound 3: water, H2O, InChI=1S/H2O/h1H2

System: water + 1-butyl-3-methylimidazolium chloride; phases: Liquid, Gas
Property: Osmotic coefficient (Liquid); method: vapor pressure osmometery method
Temperature, K	Molality, mol/kg of 1-butyl-3-methylimidazolium chloride	Osmotic coefficient	uncertainty
298.15	0.0105	1.004	0.012
298.15	0.023	0.958	0.012
298.15	0.0289	0.932	0.012
298.15	0.0398	0.892	0.013
298.15	0.0621	0.855	0.013
298.15	0.0803	0.833	0.013
298.15	0.0986	0.827	0.013
298.15	0.1413	0.814	0.014
298.15	0.1816	0.789	0.014
298.15	0.2223	0.779	0.014
298.15	0.2764	0.772	0.014
298.15	0.3386	0.768	0.015
298.15	0.371	0.764	0.015
298.15	0.4863	0.735	0.015
298.15	0.599	0.718	0.016
298.15	0.7152	0.716	0.016
298.15	0.9754	0.699	0.016
298.15	1.4915	0.686	0.016
298.15	1.9999	0.686	0.016
298.15	2.9617	0.711	0.016
308.15	0.0105	0.948	0.012
308.15	0.023	0.929	0.012
308.15	0.0289	0.924	0.012
308.15	0.0398	0.911	0.012
308.15	0.0621	0.866	0.013
308.15	0.0803	0.861	0.013
308.15	0.0986	0.864	0.013
308.15	0.1413	0.844	0.013
308.15	0.1816	0.817	0.014
308.15	0.2223	0.794	0.014
308.15	0.2764	0.79	0.014
308.15	0.3386	0.779	0.014
308.15	0.371	0.775	0.014
308.15	0.4863	0.747	0.015
308.15	0.599	0.738	0.015
308.15	0.7152	0.731	0.015
308.15	0.9754	0.709	0.016
308.15	1.4915	0.692	0.016
308.15	1.9999	0.694	0.016
308.15	2.9617	0.721	0.016
318.15	0.0105	0.958	0.012
318.15	0.023	0.932	0.012
318.15	0.0289	0.935	0.012
318.15	0.0398	0.916	0.012
318.15	0.0621	0.881	0.013
318.15	0.0803	0.869	0.013
318.15	0.0986	0.865	0.013
318.15	0.1413	0.857	0.013
318.15	0.1816	0.823	0.014
318.15	0.2223	0.807	0.014
318.15	0.2764	0.797	0.014
318.15	0.3386	0.798	0.014
318.15	0.371	0.784	0.014
318.15	0.4863	0.762	0.015
318.15	0.599	0.75	0.015
318.15	0.7152	0.748	0.015
318.15	0.9754	0.723	0.015
318.15	1.4915	0.713	0.016
318.15	1.9999	0.706	0.016
318.15	2.9617	0.729	0.015
328.15	0.0105	0.978	0.012
328.15	0.023	0.939	0.012
328.15	0.0289	0.938	0.012
328.15	0.0398	0.921	0.012
328.15	0.0621	0.906	0.012
328.15	0.0803	0.873	0.013
328.15	0.0986	0.867	0.013
328.15	0.1413	0.862	0.013
328.15	0.1816	0.832	0.013
328.15	0.2223	0.822	0.014
328.15	0.2764	0.81	0.014
328.15	0.3386	0.803	0.014
328.15	0.371	0.79	0.014
328.15	0.4863	0.775	0.014
328.15	0.599	0.759	0.015
328.15	0.7152	0.755	0.015
328.15	0.9754	0.733	0.015
328.15	1.4915	0.719	0.016
328.15	1.9999	0.721	0.016
328.15	2.9617	0.744	0.015

System: water + 1-butyl-3-methylimidazolium chloride; phases: Liquid
Fixed: Pressure, kPa = 101
Property: Refractive index (Na D-line) (Liquid); method: ABBE:UFactor:2
Temperature, K	Molality, mol/kg of 1-butyl-3-methylimidazolium chloride	Refractive index (Na D-line)	uncertainty
298.15	0.0105	1.333	0.0006
298.15	0.023	1.3334	0.0006
298.15	0.0289	1.3335	0.0006
298.15	0.0398	1.334	0.0006
298.15	0.0621	1.3343	0.0006
298.15	0.0803	1.3349	0.0006
298.15	0.0986	1.3354	0.0006
298.15	0.1413	1.3366	0.0006
298.15	0.1816	1.3377	0.0006
298.15	0.2223	1.3388	0.0006
298.15	0.2764	1.3404	0.0006
298.15	0.3386	1.3419	0.0006
298.15	0.371	1.3428	0.0006
298.15	0.4863	1.3457	0.0006
298.15	0.599	1.3484	0.0006
298.15	0.7152	1.3512	0.0006
298.15	0.9754	1.3571	0.0006
298.15	1.4915	1.3679	0.0006
298.15	1.9999	1.3774	0.0006
298.15	2.9617	1.3923	0.0006
308.15	0.0105	1.3317	0.0006
308.15	0.023	1.332	0.0006
308.15	0.0289	1.3323	0.0006
308.15	0.0398	1.3326	0.0006
308.15	0.0621	1.333	0.0006
308.15	0.0803	1.3336	0.0006
308.15	0.0986	1.3341	0.0006
308.15	0.1413	1.3351	0.0006
308.15	0.1816	1.3363	0.0006
308.15	0.2223	1.3373	0.0006
308.15	0.2764	1.3389	0.0006
308.15	0.3386	1.3403	0.0006
308.15	0.371	1.3416	0.0006
308.15	0.4863	1.3441	0.0006
308.15	0.599	1.3469	0.0006
308.15	0.7152	1.3497	0.0006
308.15	0.9754	1.3562	0.0006
308.15	1.4915	1.3661	0.0006
308.15	1.9999	1.3754	0.0006
308.15	2.9617	1.3904	0.0006
318.15	0.0105	1.3292	0.0006
318.15	0.023	1.3295	0.0006
318.15	0.0289	1.3296	0.0006
318.15	0.0398	1.33	0.0006
318.15	0.0621	1.3305	0.0006
318.15	0.0803	1.331	0.0006
318.15	0.0986	1.3312	0.0006
318.15	0.1413	1.3325	0.0006
318.15	0.1816	1.3338	0.0006
318.15	0.2223	1.3346	0.0006
318.15	0.2764	1.3362	0.0006
318.15	0.3386	1.3377	0.0006
318.15	0.371	1.3387	0.0006
318.15	0.4863	1.3415	0.0006
318.15	0.599	1.3442	0.0006
318.15	0.7152	1.3467	0.0006
318.15	0.9754	1.3528	0.0006
318.15	1.4915	1.3631	0.0006
318.15	1.9999	1.3723	0.0006
318.15	2.9617	1.3872	0.0006
328.15	0.0105	1.3273	0.0006
328.15	0.023	1.3275	0.0006
328.15	0.0289	1.3277	0.0006
328.15	0.0398	1.328	0.0006
328.15	0.0621	1.3288	0.0006
328.15	0.0803	1.329	0.0006
328.15	0.0986	1.3297	0.0006
328.15	0.1413	1.3309	0.0006
328.15	0.1816	1.3319	0.0006
328.15	0.2223	1.3331	0.0006
328.15	0.2764	1.3343	0.0006
328.15	0.3386	1.3358	0.0006
328.15	0.371	1.3369	0.0006
328.15	0.4863	1.3398	0.0006
328.15	0.599	1.3422	0.0006
328.15	0.7152	1.3449	0.0006
328.15	0.9754	1.3508	0.0006
328.15	1.4915	1.3611	0.0006
328.15	1.9999	1.3703	0.0006
328.15	2.9617	1.3849	0.0006

System: water + 1-butyl-3-methylimidazolium iodide; phases: Liquid, Gas
Property: Osmotic coefficient (Liquid); method: vapor pressure osmometery method
Temperature, K	Molality, mol/kg of 1-butyl-3-methylimidazolium iodide	Osmotic coefficient	uncertainty
298.15	0.0133	0.833	0.013
298.15	0.0293	0.821	0.014
298.15	0.0442	0.792	0.014
298.15	0.0505	0.784	0.014
298.15	0.0786	0.766	0.015
298.15	0.0995	0.761	0.015
298.15	0.1307	0.751	0.015
298.15	0.1782	0.711	0.016
298.15	0.216	0.697	0.016
298.15	0.3257	0.644	0.017
298.15	0.4065	0.613	0.018
298.15	0.5184	0.596	0.019
298.15	0.6452	0.564	0.02
298.15	0.7509	0.554	0.02
298.15	0.8786	0.528	0.021
298.15	1.1538	0.47	0.022
298.15	1.8374	0.405	0.024
298.15	2.5889	0.362	0.026
308.15	0.0133	0.856	0.013
308.15	0.0293	0.843	0.013
308.15	0.0442	0.821	0.014
308.15	0.0505	0.814	0.014
308.15	0.0786	0.788	0.014
308.15	0.0995	0.78	0.014
308.15	0.1307	0.765	0.015
308.15	0.1782	0.734	0.015
308.15	0.216	0.714	0.016
308.15	0.3257	0.662	0.017
308.15	0.4065	0.645	0.017
308.15	0.5184	0.626	0.018
308.15	0.6452	0.581	0.019
308.15	0.7509	0.566	0.019
308.15	0.8786	0.553	0.02
308.15	1.1538	0.501	0.021
308.15	1.8374	0.413	0.024
308.15	2.5889	0.38	0.025
318.15	0.0133	0.899	0.013
318.15	0.0293	0.888	0.013
318.15	0.0442	0.88	0.013
318.15	0.0505	0.869	0.013
318.15	0.0786	0.845	0.013
318.15	0.0995	0.819	0.014
318.15	0.1307	0.782	0.014
318.15	0.1782	0.758	0.015
318.15	0.216	0.74	0.015
318.15	0.3257	0.706	0.016
318.15	0.4065	0.682	0.016
318.15	0.5184	0.644	0.017
318.15	0.6452	0.61	0.018
318.15	0.7509	0.574	0.019
318.15	0.8786	0.558	0.02
318.15	1.1538	0.521	0.021
318.15	1.8374	0.429	0.023
318.15	2.5889	0.387	0.025
328.15	0.0133	0.91	0.012
328.15	0.0293	0.889	0.013
328.15	0.0442	0.885	0.013
328.15	0.0505	0.878	0.013
328.15	0.0786	0.861	0.013
328.15	0.0995	0.833	0.013
328.15	0.1307	0.807	0.014
328.15	0.1782	0.778	0.014
328.15	0.216	0.768	0.015
328.15	0.3257	0.715	0.016
328.15	0.4065	0.69	0.016
328.15	0.5184	0.662	0.017
328.15	0.6452	0.619	0.018
328.15	0.7509	0.586	0.019
328.15	0.8786	0.569	0.019
328.15	1.1538	0.528	0.021
328.15	1.8374	0.45	0.023
328.15	2.5889	0.408	0.024

System: water + 1-butyl-3-methylimidazolium iodide; phases: Liquid
Fixed: Pressure, kPa = 101
Property: Refractive index (Na D-line) (Liquid); method: ABBE:UFactor:2
Temperature, K	Molality, mol/kg of 1-butyl-3-methylimidazolium iodide	Refractive index (Na D-line)	uncertainty
298.15	0.0133	1.3331	0.0006
298.15	0.0293	1.3336	0.0006
298.15	0.0442	1.3343	0.0006
298.15	0.0505	1.3346	0.0006
298.15	0.0786	1.3356	0.0006
298.15	0.0995	1.3365	0.0006
298.15	0.1307	1.3376	0.0006
298.15	0.1782	1.3395	0.0006
298.15	0.216	1.341	0.0006
298.15	0.3257	1.3449	0.0006
298.15	0.4065	1.3478	0.0006
298.15	0.5184	1.3519	0.0006
298.15	0.6452	1.356	0.0006
298.15	0.7509	1.3595	0.0006
298.15	0.8786	1.3635	0.0006
298.15	1.1538	1.3714	0.0006
298.15	1.8374	1.3893	0.0006
298.15	2.5889	1.4054	0.0006
308.15	0.0133	1.3321	0.0006
308.15	0.0293	1.3325	0.0006
308.15	0.0442	1.333	0.0006
308.15	0.0505	1.3334	0.0006
308.15	0.0786	1.3344	0.0006
308.15	0.0995	1.3353	0.0006
308.15	0.1307	1.3363	0.0006
308.15	0.1782	1.3381	0.0006
308.15	0.216	1.3397	0.0006
308.15	0.3257	1.3435	0.0006
308.15	0.4065	1.3467	0.0006
308.15	0.5184	1.3503	0.0006
308.15	0.6452	1.3548	0.0006
308.15	0.7509	1.358	0.0006
308.15	0.8786	1.362	0.0006
308.15	1.1538	1.3701	0.0006
308.15	1.8374	1.3876	0.0006
308.15	2.5889	1.4035	0.0006
318.15	0.0133	1.3305	0.0006
318.15	0.0293	1.331	0.0006
318.15	0.0442	1.3316	0.0006
318.15	0.0505	1.3317	0.0006
318.15	0.0786	1.3328	0.0006
318.15	0.0995	1.3336	0.0006
318.15	0.1307	1.3347	0.0006
318.15	0.1782	1.3364	0.0006
318.15	0.216	1.338	0.0006
318.15	0.3257	1.3418	0.0006
318.15	0.4065	1.3447	0.0006
318.15	0.5184	1.3487	0.0006
318.15	0.6452	1.3529	0.0006
318.15	0.7509	1.3561	0.0006
318.15	0.8786	1.36	0.0006
318.15	1.1538	1.368	0.0006
318.15	1.8374	1.3853	0.0006
318.15	2.5889	1.4012	0.0006
328.15	0.0133	1.3285	0.0006
328.15	0.0293	1.3289	0.0006
328.15	0.0442	1.3293	0.0006
328.15	0.0505	1.3298	0.0006
328.15	0.0786	1.331	0.0006
328.15	0.0995	1.3315	0.0006
328.15	0.1307	1.3329	0.0006
328.15	0.1782	1.3347	0.0006
328.15	0.216	1.3359	0.0006
328.15	0.3257	1.3404	0.0006
328.15	0.4065	1.3433	0.0006
328.15	0.5184	1.3464	0.0006
328.15	0.6452	1.3507	0.0006
328.15	0.7509	1.3541	0.0006
328.15	0.8786	1.3578	0.0006
328.15	1.1538	1.3657	0.0006
328.15	1.8374	1.3831	0.0006
328.15	2.5889	1.3986	0.0006
