Measured thermophysical data. Solubility of KBr in Binary Solvents Formed by Acetone and Water in the Temperature Range between (288.15 and 313.15) K
Source: J. Chem. Eng. Data, 2008, 10.1021/je8003639
Compound 1: potassium bromide, BrK, InChI=1S/BrH.K/h1H;/q;+1/p-1, purity 99.5%
Compound 2: acetone, C3H6O, InChI=1S/C3H6O/c1-3(2)4/h1-2H3, purity 99.8%
Compound 3: water, H2O, InChI=1S/H2O/h1H2

System: water + potassium bromide; phases: Liquid, Crystal
Fixed: Pressure, kPa = 101
Property: Mass fraction of potassium bromide (Liquid); method: gravimetric method
Temperature, K	Mass fraction of potassium bromide	uncertainty
288.15	0.385	0.0048
293.15	0.397	0.005
298.15	0.4061	0.0051
303.15	0.4158	0.0052
308.15	0.4259	0.0054
313.15	0.4333	0.0054

System: acetone + water + potassium bromide; phases: Liquid, Crystal
Fixed: Pressure, kPa = 101
Property: Mass fraction of potassium bromide (Liquid); method: gravimetric method
Temperature, K	Solvent: Mass fraction of acetone	Mass fraction of potassium bromide	uncertainty
288.15	0	0.385	0.0048
288.15	0.03	0.3807	0.0048
288.15	0.06	0.369	0.0046
288.15	0.09	0.3556	0.0044
288.15	0.12	0.3453	0.0043
288.15	0.14	0.336	0.0042
288.15	0.16	0.325	0.004
288.15	0.19	0.3148	0.0039
288.15	0.22	0.3052	0.0038
288.15	0.25	0.2931	0.0036
293.15	0	0.397	0.005
293.15	0.03	0.3862	0.0048
293.15	0.06	0.374	0.0047
293.15	0.09	0.361	0.0045
293.15	0.12	0.3509	0.0044
293.15	0.14	0.341	0.0042
293.15	0.16	0.3329	0.0041
293.15	0.19	0.322	0.004
293.15	0.22	0.312	0.0039
293.15	0.25	0.303	0.0038
298.15	0	0.4061	0.0051
298.15	0.03	0.3975	0.005
298.15	0.06	0.3867	0.0048
298.15	0.09	0.3757	0.0047
298.15	0.12	0.3642	0.0045
298.15	0.14	0.352	0.0044
298.15	0.16	0.342	0.0043
298.15	0.19	0.336	0.0042
298.15	0.22	0.326	0.004
298.15	0.25	0.315	0.0039
303.15	0	0.4158	0.0052
303.15	0.03	0.4065	0.0051
303.15	0.06	0.3949	0.0049
303.15	0.09	0.3826	0.0048
303.15	0.12	0.3732	0.0047
303.15	0.14	0.3634	0.0045
303.15	0.16	0.3549	0.0044
303.15	0.19	0.3428	0.0043
303.15	0.22	0.3322	0.0041
303.15	0.25	0.3182	0.0039
308.15	0	0.4259	0.0054
308.15	0.03	0.4129	0.0052
308.15	0.06	0.4037	0.0051
308.15	0.09	0.3899	0.0049
308.15	0.12	0.3792	0.0047
308.15	0.14	0.3723	0.0046
308.15	0.16	0.3621	0.0045
308.15	0.19	0.351	0.0044
308.15	0.22	0.3362	0.0042
308.15	0.25	0.3246	0.004
313.15	0	0.4333	0.0054
313.15	0.03	0.4216	0.0053
313.15	0.06	0.4104	0.0051
313.15	0.09	0.3985	0.005
313.15	0.12	0.3873	0.0048
313.15	0.14	0.3791	0.0047
313.15	0.16	0.3709	0.0046
313.15	0.19	0.3586	0.0045
313.15	0.22	0.3456	0.0043
313.15	0.25	0.3312	0.0041
