Measured thermophysical data. Densities and Viscosities of Ternary Mixtures of Cyclohexane + Cyclohexanone + Some Alkyl Acetates at 298.15 K
Source: J. Chem. Eng. Data, 2009, 10.1021/je8007217
Compound 1: cyclohexane, C6H12, InChI=1S/C6H12/c1-2-4-6-5-3-1/h1-6H2
Compound 2: cyclohexanone, C6H10O, InChI=1S/C6H10O/c7-6-4-2-1-3-5-6/h1-5H2
Compound 3: methyl ethanoate, C3H6O2, InChI=1S/C3H6O2/c1-3(4)5-2/h1-2H3
Compound 4: ethyl acetate, C4H8O2, InChI=1S/C4H8O2/c1-3-6-4(2)5/h3H2,1-2H3
Compound 5: propyl ethanoate, C5H10O2, InChI=1S/C5H10O2/c1-3-4-7-5(2)6/h3-4H2,1-2H3

System: cyclohexane; phases: Liquid
Property: Viscosity, Pa*s (Liquid); method: Capillary tube (Ostwald; Ubbelohde) method
Temperature, K	Pressure, kPa	Viscosity, Pa*s	uncertainty
298.15	101	0.000892	8e-06

System: cyclohexane; phases: Liquid
Property: Mass density, kg/m3 (Liquid); method: Pycnometric method
Temperature, K	Pressure, kPa	Mass density, kg/m3	uncertainty
298.15	101	773.8	0.2

System: cyclohexanone; phases: Liquid
Property: Viscosity, Pa*s (Liquid); method: Capillary tube (Ostwald; Ubbelohde) method
Temperature, K	Pressure, kPa	Viscosity, Pa*s	uncertainty
298.15	101	0.00202	1.3e-05

System: cyclohexanone; phases: Liquid
Property: Mass density, kg/m3 (Liquid); method: Pycnometric method
Temperature, K	Pressure, kPa	Mass density, kg/m3	uncertainty
298.15	101	941.6	0.3

System: methyl ethanoate; phases: Liquid
Property: Viscosity, Pa*s (Liquid); method: Capillary tube (Ostwald; Ubbelohde) method
Temperature, K	Pressure, kPa	Viscosity, Pa*s	uncertainty
298.15	101	0.00038	7e-06

System: methyl ethanoate; phases: Liquid
Property: Mass density, kg/m3 (Liquid); method: Pycnometric method
Temperature, K	Pressure, kPa	Mass density, kg/m3	uncertainty
298.15	101	926.8	0.2

System: ethyl acetate; phases: Liquid
Property: Viscosity, Pa*s (Liquid); method: Capillary tube (Ostwald; Ubbelohde) method
Temperature, K	Pressure, kPa	Viscosity, Pa*s	uncertainty
298.15	101	0.000426	7e-06

System: ethyl acetate; phases: Liquid
Property: Mass density, kg/m3 (Liquid); method: Pycnometric method
Temperature, K	Pressure, kPa	Mass density, kg/m3	uncertainty
298.15	101	894.5	0.2

System: propyl ethanoate; phases: Liquid
Property: Viscosity, Pa*s (Liquid); method: Capillary tube (Ostwald; Ubbelohde) method
Temperature, K	Pressure, kPa	Viscosity, Pa*s	uncertainty
298.15	101	0.000551	7e-06

System: propyl ethanoate; phases: Liquid
Property: Mass density, kg/m3 (Liquid); method: Pycnometric method
Temperature, K	Pressure, kPa	Mass density, kg/m3	uncertainty
298.15	101	883	0.2

System: methyl ethanoate + cyclohexane; phases: Liquid
Fixed: Temperature, K = 298.15
Fixed: Pressure, kPa = 101
Property: Viscosity, Pa*s (Liquid); method: Capillary tube (Ostwald; Ubbelohde) method
Mole fraction of cyclohexane	Viscosity, Pa*s	uncertainty
0	0.00038	7e-06
0.0891	0.000381	7e-06
0.1804	0.000383	7e-06
0.2739	0.000388	7e-06
0.3698	0.000407	7e-06
0.4681	0.000437	7e-06
0.569	0.000477	7e-06
0.6725	0.000535	7e-06
0.7788	0.000603	7e-06
0.8879	0.000708	7e-06
1	0.000892	8e-06

System: methyl ethanoate + cyclohexane; phases: Liquid
Fixed: Temperature, K = 298.15
Fixed: Pressure, kPa = 101
Property: Mass density, kg/m3 (Liquid); method: Pycnometric method
Mole fraction of cyclohexane	Mass density, kg/m3	uncertainty
0	926.8	0.2
0.0891	903.7	0.3
0.1804	883.3	0.2
0.2739	864.7	0.2
0.3698	848.5	0.2
0.4681	833.1	0.2
0.569	819.4	0.2
0.6725	806.4	0.2
0.7788	794.9	0.2
0.8879	784.2	0.2
1	773.8	0.2

System: cyclohexane + ethyl acetate; phases: Liquid
Fixed: Temperature, K = 298.15
Fixed: Pressure, kPa = 101
Property: Viscosity, Pa*s (Liquid); method: Capillary tube (Ostwald; Ubbelohde) method
Mole fraction of cyclohexane	Viscosity, Pa*s	uncertainty
0	0.000426	7e-06
0.1042	0.000432	7e-06
0.2074	0.000436	7e-06
0.3097	0.000441	7e-06
0.4111	0.000462	7e-06
0.5115	0.000493	7e-06
0.611	0.000533	7e-06
0.7095	0.000585	7e-06
0.8072	0.000653	7e-06
0.904	0.000749	8e-06
1	0.000892	8e-06

System: cyclohexane + ethyl acetate; phases: Liquid
Fixed: Temperature, K = 298.15
Fixed: Pressure, kPa = 101
Property: Mass density, kg/m3 (Liquid); method: Pycnometric method
Mole fraction of cyclohexane	Mass density, kg/m3	uncertainty
0	894.5	0.2
0.1042	877	0.2
0.2074	861.2	0.2
0.3097	847	0.2
0.4111	833.9	0.2
0.5115	822.1	0.2
0.611	811.2	0.2
0.7095	801.2	0.2
0.8072	791.8	0.2
0.904	782.7	0.2
1	773.8	0.2

System: propyl ethanoate + cyclohexane; phases: Liquid
Fixed: Temperature, K = 298.15
Fixed: Pressure, kPa = 101
Property: Viscosity, Pa*s (Liquid); method: Capillary tube (Ostwald; Ubbelohde) method
Mole fraction of cyclohexane	Viscosity, Pa*s	uncertainty
0	0.000551	7e-06
0.1188	0.00054	7e-06
0.2328	0.000548	7e-06
0.3421	0.000554	7e-06
0.4472	0.000572	7e-06
0.5482	0.000587	7e-06
0.6454	0.000625	7e-06
0.739	0.000663	7e-06
0.8292	0.000715	7e-06
0.9161	0.000786	8e-06
1	0.000892	8e-06

System: propyl ethanoate + cyclohexane; phases: Liquid
Fixed: Temperature, K = 298.15
Fixed: Pressure, kPa = 101
Property: Mass density, kg/m3 (Liquid); method: Pycnometric method
Mole fraction of cyclohexane	Mass density, kg/m3	uncertainty
0	883	0.2
0.1188	868.5	0.2
0.2328	854.7	0.2
0.3421	841.8	0.2
0.4472	829.9	0.2
0.5482	819.3	0.2
0.6454	809.3	0.2
0.739	800	0.2
0.8292	791.1	0.2
0.9161	782.3	0.2
1	773.8	0.2

System: methyl ethanoate + cyclohexanone; phases: Liquid
Fixed: Temperature, K = 298.15
Fixed: Pressure, kPa = 101
Property: Viscosity, Pa*s (Liquid); method: Capillary tube (Ostwald; Ubbelohde) method
Mole fraction of cyclohexanone	Viscosity, Pa*s	uncertainty
0	0.00038	7e-06
0.0774	0.000407	7e-06
0.1587	0.000445	7e-06
0.2444	0.000504	7e-06
0.3347	0.000577	7e-06
0.4301	0.000666	7e-06
0.531	0.000779	8e-06
0.6378	0.000936	8e-06
0.7512	0.001163	9e-06
0.8717	0.001488	1e-05
1	0.00202	1.3e-05

System: methyl ethanoate + cyclohexanone; phases: Liquid
Fixed: Temperature, K = 298.15
Fixed: Pressure, kPa = 101
Property: Mass density, kg/m3 (Liquid); method: Pycnometric method
Mole fraction of cyclohexanone	Mass density, kg/m3	uncertainty
0	926.8	0.2
0.0774	927.4	0.2
0.1587	928.5	0.2
0.2444	929.9	0.2
0.3347	931.3	0.2
0.4301	932.9	0.2
0.531	934.6	0.2
0.6378	936.4	0.2
0.7512	938.2	0.2
0.8717	940.2	0.2
1	941.6	0.3

System: cyclohexanone + ethyl acetate; phases: Liquid
Fixed: Temperature, K = 298.15
Fixed: Pressure, kPa = 101
Property: Viscosity, Pa*s (Liquid); method: Capillary tube (Ostwald; Ubbelohde) method
Mole fraction of cyclohexanone	Viscosity, Pa*s	uncertainty
0	0.000426	7e-06
0.0907	0.00047	7e-06
0.1833	0.000521	7e-06
0.2778	0.000585	7e-06
0.3744	0.000667	7e-06
0.473	0.000764	8e-06
0.5738	0.000892	8e-06
0.6769	0.001058	9e-06
0.7822	0.001289	1e-05
0.8899	0.001604	1.1e-05
1	0.00202	1.3e-05

System: cyclohexanone + ethyl acetate; phases: Liquid
Fixed: Temperature, K = 298.15
Fixed: Pressure, kPa = 101
Property: Mass density, kg/m3 (Liquid); method: Pycnometric method
Mole fraction of cyclohexanone	Mass density, kg/m3	uncertainty
0	894.5	0.2
0.0907	898.3	0.2
0.1833	902.6	0.2
0.2778	907.3	0.2
0.3744	912.3	0.2
0.473	917.5	0.2
0.5738	922.6	0.2
0.6769	927.6	0.2
0.7822	932.6	0.2
0.8899	937.3	0.2
1	941.6	0.3

System: cyclohexanone + propyl ethanoate; phases: Liquid
Fixed: Temperature, K = 298.15
Fixed: Pressure, kPa = 101
Property: Viscosity, Pa*s (Liquid); method: Capillary tube (Ostwald; Ubbelohde) method
Mole fraction of cyclohexanone	Viscosity, Pa*s	uncertainty
0	0.000551	7e-06
0.1036	0.000609	7e-06
0.2064	0.000666	7e-06
0.3084	0.000731	7e-06
0.4096	0.000821	8e-06
0.5099	0.000926	8e-06
0.6095	0.001049	9e-06
0.7083	0.001199	9e-06
0.8063	0.001407	1e-05
0.9035	0.001685	1.1e-05
1	0.00202	1.3e-05

System: cyclohexanone + propyl ethanoate; phases: Liquid
Fixed: Temperature, K = 298.15
Fixed: Pressure, kPa = 101
Property: Mass density, kg/m3 (Liquid); method: Pycnometric method
Mole fraction of cyclohexanone	Mass density, kg/m3	uncertainty
0	883	0.2
0.1036	888.2	0.2
0.2064	894.2	0.2
0.3084	900.4	0.2
0.4096	906.5	0.2
0.5099	912.4	0.2
0.6095	918.4	0.2
0.7083	924.3	0.2
0.8063	930.2	0.2
0.9035	936.1	0.2
1	941.6	0.3

System: cyclohexanone + cyclohexane; phases: Liquid
Fixed: Temperature, K = 298.15
Fixed: Pressure, kPa = 101
Property: Viscosity, Pa*s (Liquid); method: Capillary tube (Ostwald; Ubbelohde) method
Mole fraction of cyclohexane	Viscosity, Pa*s	uncertainty
0	0.00202	1.3e-05
0.1147	0.001813	1.2e-05
0.2257	0.001638	1.1e-05
0.3332	0.001475	1e-05
0.4374	0.001335	1e-05
0.5384	0.001225	9e-06
0.6363	0.001126	9e-06
0.7313	0.001038	9e-06
0.8235	0.000965	8e-06
0.913	0.000921	8e-06
1	0.000892	8e-06

System: cyclohexanone + cyclohexane; phases: Liquid
Fixed: Temperature, K = 298.15
Fixed: Pressure, kPa = 101
Property: Mass density, kg/m3 (Liquid); method: Pycnometric method
Mole fraction of cyclohexane	Mass density, kg/m3	uncertainty
0	941.6	0.3
0.1147	921.8	0.3
0.2257	903	0.2
0.3332	884.8	0.2
0.4374	867.1	0.2
0.5384	849.6	0.2
0.6363	832.5	0.2
0.7313	816	0.2
0.8235	800	0.2
0.913	785.9	0.2
1	773.8	0.2

System: methyl ethanoate + cyclohexanone + cyclohexane; phases: Liquid
Fixed: Temperature, K = 298.15
Fixed: Pressure, kPa = 101
Property: Viscosity, Pa*s (Liquid); method: Capillary tube (Ostwald; Ubbelohde) method
Mole fraction of cyclohexane	Mole fraction of cyclohexanone	Viscosity, Pa*s	uncertainty
0.0454	0.0778	0.000397	7e-06
0.0786	0.8191	0.001461	1e-05
0.0942	0.1777	0.000471	7e-06
0.0999	0.7614	0.001329	1e-05
0.1213	0.1361	0.000441	7e-06
0.1297	0.649	0.001084	9e-06
0.1415	0.1618	0.00047	7e-06
0.1767	0.7103	0.001299	1e-05
0.1924	0.2062	0.000515	7e-06
0.2454	0.2525	0.000579	7e-06
0.3008	0.5527	0.001078	9e-06
0.3582	0.351	0.000772	8e-06
0.4182	0.4035	0.000918	8e-06
0.481	0.4582	0.001116	9e-06
0.505	0.2425	0.000721	8e-06
0.5609	0.2536	0.000794	8e-06
0.6462	0.1278	0.000682	7e-06
0.6967	0.1109	0.000704	7e-06
0.7495	0.1028	0.000744	8e-06
0.8067	0.0854	0.000801	8e-06

System: methyl ethanoate + cyclohexanone + cyclohexane; phases: Liquid
Fixed: Temperature, K = 298.15
Fixed: Pressure, kPa = 101
Property: Mass density, kg/m3 (Liquid); method: Pycnometric method
Mole fraction of cyclohexane	Mole fraction of cyclohexanone	Mass density, kg/m3	uncertainty
0.0454	0.0778	917.5	0.6
0.0786	0.8191	925.9	0.6
0.0942	0.1777	908.7	0.6
0.0999	0.7614	920.9	0.6
0.1213	0.1361	901.4	0.6
0.1297	0.649	913.5	0.6
0.1415	0.1618	898.3	0.6
0.1767	0.7103	908.3	0.6
0.1924	0.2062	889.3	0.6
0.2454	0.2525	881.3	0.6
0.3008	0.5527	884.1	0.6
0.3582	0.351	867.6	0.6
0.4182	0.4035	861.4	0.6
0.481	0.4582	855.8	0.6
0.505	0.2425	840.8	0.6
0.5609	0.2536	834.1	0.6
0.6462	0.1278	815.6	0.6
0.6967	0.1109	808.9	0.6
0.7495	0.1028	802.6	0.6
0.8067	0.0854	792.9	0.6

System: cyclohexanone + cyclohexane + ethyl acetate; phases: Liquid
Fixed: Temperature, K = 298.15
Fixed: Pressure, kPa = 101
Property: Viscosity, Pa*s (Liquid); method: Capillary tube (Ostwald; Ubbelohde) method
Mole fraction of cyclohexane	Mole fraction of cyclohexanone	Viscosity, Pa*s	uncertainty
0.0528	0.0905	0.000466	7e-06
0.0799	0.8327	0.001529	1.1e-05
0.1021	0.7786	0.001383	1e-05
0.1066	0.2011	0.000549	7e-06
0.1345	0.6727	0.001166	9e-06
0.1377	0.1543	0.000516	7e-06
0.1592	0.1819	0.000536	7e-06
0.1799	0.7233	0.001353	1e-05
0.2128	0.2281	0.000585	7e-06
0.2668	0.2745	0.000647	7e-06
0.308	0.5659	0.001131	9e-06
0.3756	0.3681	0.000824	8e-06
0.4305	0.4153	0.000958	8e-06
0.4857	0.4627	0.001137	9e-06
0.5262	0.2527	0.000771	8e-06
0.578	0.2613	0.00083	8e-06
0.6703	0.1326	0.000716	7e-06
0.7188	0.1145	0.000729	8e-06
0.7676	0.1053	0.00076	8e-06
0.8599	0.0434	0.000757	8e-06

System: cyclohexanone + cyclohexane + ethyl acetate; phases: Liquid
Fixed: Temperature, K = 298.15
Fixed: Pressure, kPa = 101
Property: Mass density, kg/m3 (Liquid); method: Pycnometric method
Mole fraction of cyclohexane	Mole fraction of cyclohexanone	Mass density, kg/m3	uncertainty
0.0528	0.0905	889.7	0.6
0.0799	0.8327	923.9	0.6
0.1021	0.7786	918.8	0.6
0.1066	0.2011	888.9	0.6
0.1345	0.6727	909.4	0.6
0.1377	0.1543	881.3	0.6
0.1592	0.1819	879.9	0.6
0.1799	0.7233	906.4	0.6
0.2128	0.2281	875.1	0.6
0.2668	0.2745	871	0.6
0.308	0.5659	882.7	0.6
0.3756	0.3681	863.6	0.6
0.4305	0.4153	860.1	0.6
0.4857	0.4627	857.6	0.6
0.5262	0.2527	839.8	0.6
0.578	0.2613	835.1	0.6
0.6703	0.1326	816.9	0.6
0.7188	0.1145	810.9	0.6
0.7676	0.1053	806.1	0.6
0.8599	0.0434	785.8	0.6

System: cyclohexanone + propyl ethanoate + cyclohexane; phases: Liquid
Fixed: Temperature, K = 298.15
Fixed: Pressure, kPa = 101
Property: Viscosity, Pa*s (Liquid); method: Capillary tube (Ostwald; Ubbelohde) method
Mole fraction of cyclohexane	Mole fraction of cyclohexanone	Viscosity, Pa*s	uncertainty
0.0598	0.1025	0.000597	7e-06
0.0809	0.8428	0.001592	1.1e-05
0.1038	0.7915	0.001479	1e-05
0.1178	0.2222	0.000678	7e-06
0.1382	0.6911	0.001279	9e-06
0.1525	0.171	0.000648	7e-06
0.175	0.2001	0.000667	7e-06
0.1824	0.7331	0.001411	1e-05
0.2305	0.2471	0.000712	7e-06
0.2847	0.2929	0.000767	8e-06
0.3134	0.5759	0.001202	9e-06
0.3893	0.3815	0.000919	8e-06
0.4398	0.4243	0.001029	9e-06
0.4892	0.466	0.001176	9e-06
0.5427	0.2606	0.000856	8e-06
0.5911	0.2672	0.000895	8e-06
0.6889	0.1363	0.000783	8e-06
0.7356	0.1171	0.000794	8e-06
0.7812	0.1072	0.00081	8e-06
0.8715	0.0439	0.000796	8e-06

System: cyclohexanone + propyl ethanoate + cyclohexane; phases: Liquid
Fixed: Temperature, K = 298.15
Fixed: Pressure, kPa = 101
Property: Mass density, kg/m3 (Liquid); method: Pycnometric method
Mole fraction of cyclohexane	Mole fraction of cyclohexanone	Mass density, kg/m3	uncertainty
0.0598	0.1025	880	0.6
0.0809	0.8428	922.7	0.6
0.1038	0.7915	916.7	0.6
0.1178	0.2222	880.5	0.6
0.1382	0.6911	906.5	0.6
0.1525	0.171	873.1	0.6
0.175	0.2001	872.2	0.6
0.1824	0.7331	903.9	0.6
0.2305	0.2471	868.8	0.6
0.2847	0.2929	865	0.6
0.3134	0.5759	879.3	0.6
0.3893	0.3815	858.2	0.6
0.4398	0.4243	855.8	0.6
0.4892	0.466	853.4	0.6
0.5427	0.2606	834.1	0.6
0.5911	0.2672	829.8	0.6
0.6889	0.1363	811.2	0.6
0.7356	0.1171	804.7	0.6
0.7812	0.1072	799.5	0.6
0.8715	0.0439	786.5	0.6
