Measured thermophysical data. Thermochemical Study of Three Hindered Pyridine Derivatives
Source: J. Chem. Eng. Data, 2008, 10.1021/je800155q
Compound 1: carbon dioxide, CO2, InChI=1S/CO2/c2-1-3
Compound 2: nitrogen, N2, InChI=1S/N2/c1-2
Compound 3: water, H2O, InChI=1S/H2O/h1H2
Compound 4: oxygen, O2, InChI=1S/O2/c1-2
Compound 5: 4-(1,1-dimethylethyl)pyridine, C9H13N, InChI=1S/C9H13N/c1-9(2,3)8-4-6-10-7-5-8/h4-7H,1-3H3
Compound 6: 2,6-di-tert-butylpyridine, C13H21N, InChI=1S/C13H21N/c1-12(2,3)10-8-7-9-11(14-10)13(4,5)6/h7-9H,1-6H3
Compound 7: pyridine, 2,4,6-tris(1,1-dimethylethyl)-, C17H29N, InChI=1S/C17H29N/c1-15(2,3)12-10-13(16(4,5)6)18-14(11-12)17(7,8)9/h10-11H,1-9H3

System: 4-(1,1-dimethylethyl)pyridine; phases: Liquid, Gas
Property: Molar enthalpy of vaporization or sublimation, kJ/mol (Liquid); method: Calvet Microcalorimeter
Temperature, K	Molar enthalpy of vaporization or sublimation, kJ/mol	uncertainty
298.15	54.4	2.6

System: 4-(1,1-dimethylethyl)pyridine; phases: Gas
Property: Molar enthalpy, kJ/mol (Gas); method: Calvet microcalorimetry
Temperature, K	Pressure, kPa	Molar enthalpy, kJ/mol	uncertainty
365	101	67.1	2.6

System: 2,6-di-tert-butylpyridine; phases: Liquid, Gas
Property: Molar enthalpy of vaporization or sublimation, kJ/mol (Liquid); method: Calvet Microcalorimeter
Temperature, K	Molar enthalpy of vaporization or sublimation, kJ/mol	uncertainty
298.15	56.6	2.4

System: 2,6-di-tert-butylpyridine; phases: Gas
Property: Molar enthalpy, kJ/mol (Gas); method: Calvet microcalorimetry
Temperature, K	Pressure, kPa	Molar enthalpy, kJ/mol	uncertainty
324	101	64	2.4

System: pyridine, 2,4,6-tris(1,1-dimethylethyl)-; phases: Crystal, Liquid, Air at 1 atmosphere
Property: Normal melting temperature, K (Crystal); method: DTA
Normal melting temperature, K	uncertainty
341	2

System: pyridine, 2,4,6-tris(1,1-dimethylethyl)-; phases: Crystal, Gas
Property: Molar enthalpy of vaporization or sublimation, kJ/mol (Crystal); method: Calvet Microcalorimeter
Temperature, K	Molar enthalpy of vaporization or sublimation, kJ/mol	uncertainty
298.15	78.3	3.4

System: pyridine, 2,4,6-tris(1,1-dimethylethyl)-; phases: Gas
Property: Molar enthalpy, kJ/mol (Gas); method: Calvet microcalorimetry
Temperature, K	Pressure, kPa	Molar enthalpy, kJ/mol	uncertainty
329	101	90.2	3.4

Reaction: -1 4-(1,1-dimethylethyl)pyridine + 9 carbon dioxide + .5 nitrogen + 6.5 water + -12.25 oxygen
Property: Specific internal energy of reaction at constant volume, J/g
-39667

Reaction: -1 2,6-di-tert-butylpyridine + 13 carbon dioxide + .5 nitrogen + 10.5 water + -18.25 oxygen
Property: Specific internal energy of reaction at constant volume, J/g
-41514.5

Reaction: -1 pyridine, 2,4,6-tris(1,1-dimethylethyl)- + 17 carbon dioxide + .5 nitrogen + 14.5 water + -24.25 oxygen
Property: Specific internal energy of reaction at constant volume, J/g
-42543.4
