Measured thermophysical data. Solubility of Tridodecylamine in Supercritical Carbon Dioxide
Source: J. Chem. Eng. Data, 2008, 10.1021/je8001656
Compound 1: tridodecylamine, C36H75N, InChI=1S/C36H75N/c1-4-7-10-13-16-19-22-25-28-31-34-37(35-32-29-26-23-20-17-14-11-8-5-2)36-33-30-27-24-21-18-15-12-9-6-3/h4-36H2,1-3H3
Compound 2: carbon dioxide, CO2, InChI=1S/CO2/c2-1-3, purity 99.95%

System: tridodecylamine + carbon dioxide; phases: Gas, Liquid
Property: Mole fraction of tridodecylamine (Gas); method: Solvent Volume and Solute Mass Directally Measured after seperation
Temperature, K	Pressure, kPa	Mole fraction of tridodecylamine	uncertainty
308	8000	0.00018	0.00018
308	8500	0.00094	0.00033
308	9000	0.00161	0.00029
308	10000	0.00225	0.00043
308	12000	0.00318	0.00072
308	15000	0.00375	0.0007
308	20000	0.00388	0.0005
308	25000	0.00389	0.00066
308	30000	0.004	0.00084
308	35000	0.0041	0.00066
308	40000	0.0042	0.00076
318	8000	8e-05	2e-05
318	8500	0.00011	4e-05
318	9000	0.00015	5e-05
318	10000	0.00048	0.00016
318	12000	0.0018	0.00031
318	15000	0.00459	0.00092
318	20000	0.00556	0.001
318	25000	0.00612	0.00064
318	30000	0.00635	0.00114
318	35000	0.0066	0.00132
318	40000	0.00672	0.00094
328	8000	0.00011	3e-05
328	8500	0.00015	5e-05
328	9000	0.00023	8e-05
328	10000	0.00036	0.00011
328	12000	0.00093	0.00027
328	15000	0.00251	0.00063
328	20000	0.00482	0.00082
328	25000	0.00641	0.001
328	30000	0.00847	0.00154
328	35000	0.01094	0.00196
328	40000	0.01126	0.0018
