Measured thermophysical data. Study of the Effects of Temperature and Pressure on the Acoustic and Thermodynamic Properties of 2-Methyl-2,4-pentanediol
Source: J. Chem. Eng. Data, 2008, 10.1021/je800244q
Compound 1: 2-methyl-2,4-pentanediol, C6H14O2, InChI=1S/C6H14O2/c1-5(7)4-6(2,3)8/h5,7-8H,4H2,1-3H3, purity 99%

System: 2-methyl-2,4-pentanediol; phases: Liquid
Property: Refractive index (Na D-line) (Liquid); method: Standard Abbe refractometry
Temperature, K	Pressure, kPa	Refractive index (Na D-line)	uncertainty
298.15	101.325	1.4258	0.0005

System: 2-methyl-2,4-pentanediol; phases: Liquid
Fixed: Pressure, kPa = 101.325
Property: Molar heat capacity at constant pressure, J/K/mol (Liquid); method: Small sample (50 mg) DSC
Temperature, K	Molar heat capacity at constant pressure, J/K/mol	uncertainty
284.16	250.63	4.34
288.14	254.33	4.41
293.14	258.4	4.48
298.16	262.4	4.55
303.15	266.42	4.62
308.15	270.35	4.68
313.15	274.7	4.76
318.15	279.12	4.84
323.15	283.62	4.91
328.15	288.35	5
333.15	293.21	5.08
338.15	298.13	5.16
343.15	303.01	5.25
348.15	307.95	5.34
353.14	314.8	5.45
358.16	318.39	5.52

System: 2-methyl-2,4-pentanediol; phases: Liquid
Fixed: Pressure, kPa = 101.325
Property: Speed of sound, m/s (Liquid); method: Pulse-echo method
Temperature, K	Speed of sound, m/s	uncertainty
288.15	1326.41	1.57
293.15	1310.73	1.57
298.15	1295.21	1.57
303.15	1279.85	1.56
308.15	1264.65	1.56
313.15	1249.6	1.56
318.15	1234.72	1.56

System: 2-methyl-2,4-pentanediol; phases: Liquid
Fixed: Pressure, kPa = 101.325
Property: Mass density, kg/m3 (Liquid); method: Vibrating tube method
Temperature, K	Mass density, kg/m3	uncertainty
278.153	932.344	0.243
283.155	928.795	0.243
288.154	925.238	0.243
293.15	921.71	0.24
293.155	921.676	0.243
298.15	918.16	0.24
298.154	918.11	0.243
303.15	914.59	0.24
303.157	914.548	0.243
308.15	911.02	0.24
308.155	910.981	0.244
313.15	907.43	0.24
313.155	907.411	0.244
318.15	903.84	0.24
318.154	903.834	0.244
323.152	900.247	0.244
328.156	896.647	0.244
333.156	893.033	0.245
338.154	889.4	0.245
343.152	885.746	0.245
348.155	882.068	0.246
353.152	878.362	0.246
358.152	874.626	0.246

System: 2-methyl-2,4-pentanediol; phases: Liquid
Property: Speed of sound, m/s (Liquid); method: Pulse-echo method
Pressure, kPa	Temperature, K	Speed of sound, m/s	uncertainty
100	288.14	1326.5	2.34
100	291.11	1317.09	2.34
100	293.14	1310.7	2.34
100	298.15	1295.2	2.34
100	301.02	1286.35	2.33
100	303.15	1279.86	2.33
100	308.15	1264.65	2.33
100	308.18	1264.59	2.33
100	313.16	1249.61	2.33
100	318.19	1234.56	2.33
100	298.15	1295.21	2.34
15200	292.86	1382.21	2.34
15200	298.15	1366.71	2.35
15200	303.14	1351.38	2.35
15200	308.13	1336.94	2.35
15200	313.1	1323.03	2.34
15200	318.29	1308.8	2.35
30390	292.86	1443.49	2.37
30390	298.15	1428.84	2.37
30390	303.13	1414.58	2.37
30390	308.13	1400.8	2.37
30390	313.1	1387.64	2.37
30390	318.29	1374.46	2.37
45590	292.86	1499.72	2.39
45590	298.15	1485.43	2.4
45590	303.14	1472.1	2.4
45590	308.13	1459.19	2.4
45590	313.1	1446.54	2.4
45590	318.29	1434.25	2.4
60790	292.86	1551.74	2.43
60790	298.15	1538.07	2.43
60790	303.14	1525.17	2.43
60790	308.13	1513.04	2.43
60790	313.1	1501.05	2.43
60790	318.29	1489.27	2.43
75990	292.86	1600.92	2.46
75990	298.15	1587.28	2.46
75990	303.14	1575.12	2.46
75990	308.13	1563.06	2.46
75990	313.1	1551.63	2.47
75990	318.29	1539.51	2.47
91180	292.86	1646.87	2.5
91180	298.15	1633.95	2.5
91180	303.14	1622.14	2.5
91180	308.13	1610.75	2.5
91180	313.11	1599.58	2.5
91180	318.29	1588.48	2.51
101320	292.85	1675.8	2.52
101320	298.15	1663.4	2.52
101320	303.14	1651.78	2.53
101320	308.13	1640.79	2.53
101320	313.1	1629.89	2.53
101320	318.29	1619.25	2.53
