Measured thermophysical data. Surface Tension Measurements for Four 1-Alkyl-3-methylimidazolium-Based Ionic Liquids with Hexafluorophosphate Anion
Source: J. Chem. Eng. Data, 2009, 10.1021/je800895q
Compound 1: 1-butyl-3-methylimidazolium hexafluorophosphate, C8H15F6N2P, InChI=1S/C8H15N2.F6P/c1-3-4-5-10-7-6-9(2)8-10;1-7(2,3,4,5)6/h6-8H,3-5H2,1-2H3;/q+1;-1, purity 99%
Compound 2: 1-hexyl-3-methylimidazolium hexafluorophosphate, C10H19F6N2P, InChI=1S/C10H19N2.F6P/c1-3-4-5-6-7-12-9-8-11(2)10-12;1-7(2,3,4,5)6/h8-10H,3-7H2,1-2H3;/q+1;-1, purity 99%
Compound 3: 1-octyl-3-methylimidazolium hexafluorophosphate, C12H23F6N2P, InChI=1S/C12H23N2.F6P/c1-3-4-5-6-7-8-9-14-11-10-13(2)12-14;1-7(2,3,4,5)6/h10-12H,3-9H2,1-2H3;/q+1;-1, purity 99%
Compound 4: 1-methyl-3-propylimidazolium hexafluorophosphate, C7H13F6N2P, InChI=1S/C7H13N2.F6P/c1-3-4-9-6-5-8(2)7-9;1-7(2,3,4,5)6/h5-7H,3-4H2,1-2H3;/q+1;-1, purity 99%

System: 1-butyl-3-methylimidazolium hexafluorophosphate; phases: Liquid, Air at 1 atmosphere
Property: Surface tension liquid-gas, N/m (Liquid); method: RINGTE:UFactor:0.5
Temperature, K	Surface tension liquid-gas, N/m	uncertainty
287.6	0.04441	0.00037
292.88	0.04411	0.00037
298.34	0.04382	0.00037
303.37	0.04351	0.00036
307.96	0.04324	0.00036
312.88	0.0429	0.00036
317.86	0.04258	0.00036
322.81	0.04221	0.00035
327.91	0.04194	0.00035
333.31	0.04163	0.00035
337.97	0.04137	0.00035
342.86	0.04105	0.00034
348.34	0.0408	0.00034
352.78	0.04047	0.00034

System: 1-butyl-3-methylimidazolium hexafluorophosphate; phases: Liquid, Air at 1 atmosphere
Property: Surface tension liquid-gas, N/m (Liquid); method: RINGTE:UFactor:0.5
Temperature, K	Surface tension liquid-gas, N/m	uncertainty
288.14	0.04447	0.00037
292.99	0.04428	0.00037
297.86	0.04403	0.00037
303.33	0.04364	0.00036
308.21	0.04346	0.00036
312.44	0.04313	0.00036
318.23	0.04275	0.00036
322.98	0.04245	0.00036
327.89	0.04214	0.00035
332.84	0.04186	0.00035
337.59	0.04157	0.00035
343.06	0.04134	0.00035
348.16	0.04095	0.00034
352.99	0.04075	0.00034

System: 1-hexyl-3-methylimidazolium hexafluorophosphate; phases: Liquid, Air at 1 atmosphere
Property: Surface tension liquid-gas, N/m (Liquid); method: RINGTE:UFactor:0.5
Temperature, K	Surface tension liquid-gas, N/m	uncertainty
284.3	0.03912	0.00033
288.16	0.03886	0.00033
293.48	0.0386	0.00033
298.97	0.03825	0.00032
303.58	0.03799	0.00032
308.56	0.03761	0.00032
313.45	0.03726	0.00032
318.5	0.03694	0.00031
323.12	0.03667	0.00031
327.92	0.03629	0.00031
333.82	0.03599	0.00031
337.94	0.03574	0.0003
343.05	0.03548	0.0003
347.75	0.03509	0.0003
353.68	0.0347	0.0003

System: 1-hexyl-3-methylimidazolium hexafluorophosphate; phases: Liquid, Air at 1 atmosphere
Property: Surface tension liquid-gas, N/m (Liquid); method: RINGTE:UFactor:0.5
Temperature, K	Surface tension liquid-gas, N/m	uncertainty
284.36	0.0391	0.00033
288.25	0.03881	0.00033
293.56	0.0387	0.00033
299.02	0.03821	0.00032
303.67	0.03789	0.00032
308.58	0.03778	0.00032
313.53	0.0373	0.00032
318.45	0.03688	0.00031
323.16	0.03678	0.00031
327.89	0.03628	0.00031
333.78	0.03605	0.00031
337.92	0.03568	0.0003
343.09	0.03529	0.0003
347.67	0.03521	0.0003
353.76	0.03487	0.0003

System: 1-octyl-3-methylimidazolium hexafluorophosphate; phases: Liquid, Air at 1 atmosphere
Property: Surface tension liquid-gas, N/m (Liquid); method: RINGTE:UFactor:0.5
Temperature, K	Surface tension liquid-gas, N/m	uncertainty
283.92	0.03462	0.0003
287.88	0.03448	0.00029
293.41	0.03414	0.00029
298.13	0.03395	0.00029
302.95	0.03356	0.00029
308.14	0.03332	0.00029
313.47	0.03298	0.00028
318.04	0.0328	0.00028
322.73	0.03252	0.00028
327.98	0.03225	0.00028
333.05	0.03193	0.00028
337.95	0.03168	0.00027
342.84	0.03146	0.00027
348.18	0.03115	0.00027
353.56	0.03094	0.00027

System: 1-octyl-3-methylimidazolium hexafluorophosphate; phases: Liquid, Air at 1 atmosphere
Property: Surface tension liquid-gas, N/m (Liquid); method: RINGTE:UFactor:0.5
Temperature, K	Surface tension liquid-gas, N/m	uncertainty
283.91	0.03475	0.0003
293.42	0.03436	0.00029
303	0.03348	0.00029
308.1	0.03327	0.00029
313.51	0.03316	0.00028
318.02	0.0329	0.00028
322.79	0.03246	0.00028
327.97	0.03212	0.00028
332.98	0.03202	0.00028
337.93	0.03181	0.00027
343	0.03153	0.00027
348.12	0.03126	0.00027
353.62	0.03083	0.00027

System: 1-methyl-3-propylimidazolium hexafluorophosphate; phases: Liquid, Air at 1 atmosphere
Property: Surface tension liquid-gas, N/m (Liquid); method: RINGTE:UFactor:0.5
Temperature, K	Surface tension liquid-gas, N/m	uncertainty
318.33	0.04641	0.00039
323.12	0.04609	0.00038
328.13	0.04576	0.00038
332.63	0.0452	0.00038
333.28	0.04582	0.00038
338.21	0.04514	0.00038
343.25	0.04483	0.00037
348.08	0.04454	0.00037
352.08	0.04431	0.00037

System: 1-methyl-3-propylimidazolium hexafluorophosphate; phases: Liquid, Air at 1 atmosphere
Property: Surface tension liquid-gas, N/m (Liquid); method: RINGTE:UFactor:0.5
Temperature, K	Surface tension liquid-gas, N/m	uncertainty
318.39	0.04675	0.00039
323.13	0.04633	0.00039
328.14	0.04593	0.00038
332.59	0.04552	0.00038
338.14	0.04565	0.00038
343.26	0.04486	0.00037
348.02	0.04466	0.00037
352	0.04438	0.00037
