Measured thermophysical data. Densities and Viscosities of Binary Mixtures of JP-10 with n-Octane or n-Decane at Several Temperatures
Source: J. Chem. Eng. Data, 2008, 10.1021/je800348s
Compound 1: decane, C10H22, InChI=1S/C10H22/c1-3-5-7-9-10-8-6-4-2/h3-10H2,1-2H3
Compound 2: exo-tetrahydrodicyclopentadiene, C10H16, InChI=1S/C10H16/c1-2-9-7-4-5-8(6-7)10(9)3-1/h7-10H,1-6H2/t7-,8+,9+,10-
Compound 3: octane, C8H18, InChI=1S/C8H18/c1-3-5-7-8-6-4-2/h3-8H2,1-2H3

System: decane; phases: Liquid
Fixed: Pressure, kPa = 101
Property: Viscosity, Pa*s (Liquid); method: CAPTUB:UFactor:4
Temperature, K	Viscosity, Pa*s	uncertainty
293.15	0.0009491	2.44e-05
298.15	0.0008434	2.19e-05
303.15	0.0008172	2.12e-05
313.15	0.0007851	2.04e-05

System: decane; phases: Liquid
Fixed: Pressure, kPa = 101
Property: Mass density, kg/m3 (Liquid); method: Vibrating tube method
Temperature, K	Mass density, kg/m3	uncertainty
293.15	730	8
298.15	726.4	8
303.15	722.5	8
313.15	715.4	8

System: exo-tetrahydrodicyclopentadiene; phases: Liquid
Fixed: Pressure, kPa = 101
Property: Viscosity, Pa*s (Liquid); method: CAPTUB:UFactor:4
Temperature, K	Viscosity, Pa*s	uncertainty
293.15	0.0030643	7.71e-05
298.15	0.0027398	6.92e-05
303.15	0.0025136	6.32e-05
313.15	0.0022701	5.73e-05

System: exo-tetrahydrodicyclopentadiene; phases: Liquid
Fixed: Pressure, kPa = 101
Property: Mass density, kg/m3 (Liquid); method: Vibrating tube method
Temperature, K	Mass density, kg/m3	uncertainty
293.15	935.2	8
298.15	931.4	8
303.15	927.7	8
313.15	922.2	8

System: octane; phases: Liquid
Fixed: Pressure, kPa = 101
Property: Viscosity, Pa*s (Liquid); method: CAPTUB:UFactor:4
Temperature, K	Viscosity, Pa*s	uncertainty
293.15	0.0005439	1.51e-05
298.15	0.0005177	1.46e-05
303.15	0.0004795	1.37e-05
313.15	0.0004358	1.27e-05

System: octane; phases: Liquid
Fixed: Pressure, kPa = 101
Property: Mass density, kg/m3 (Liquid); method: Vibrating tube method
Temperature, K	Mass density, kg/m3	uncertainty
293.15	702.5	8
298.15	698.5	8
303.15	694.5	8
313.15	686.3	8

System: octane + exo-tetrahydrodicyclopentadiene; phases: Liquid
Fixed: Pressure, kPa = 101
Property: Viscosity, Pa*s (Liquid); method: CAPTUB:UFactor:4
Temperature, K	Mole fraction of octane	Viscosity, Pa*s	uncertainty
293.15	0	0.0030643	7.71e-05
293.15	0.117	0.0023528	5.97e-05
293.15	0.2275	0.0018356	4.67e-05
293.15	0.3384	0.0014705	3.75e-05
293.15	0.4431	0.0012157	3.12e-05
293.15	0.5439	0.0010271	2.66e-05
293.15	0.6417	0.0008793	2.3e-05
293.15	0.7361	0.0007663	2.03e-05
293.15	0.8265	0.0006722	1.81e-05
293.15	0.9143	0.0005988	1.64e-05
293.15	1	0.0005439	1.51e-05
298.15	0	0.0027398	6.92e-05
298.15	0.117	0.0021093	5.34e-05
298.15	0.2275	0.0016654	4.23e-05
298.15	0.3384	0.0013512	3.45e-05
298.15	0.4431	0.0011202	2.88e-05
298.15	0.5439	0.0009508	2.48e-05
298.15	0.6417	0.0008194	2.16e-05
298.15	0.7361	0.0007198	1.93e-05
298.15	0.8265	0.0006345	1.73e-05
298.15	0.9143	0.0005681	1.57e-05
298.15	1	0.0005177	1.46e-05
303.15	0	0.0025136	6.32e-05
303.15	0.117	0.0019445	4.91e-05
303.15	0.2275	0.0015529	3.94e-05
303.15	0.3384	0.0012725	3.25e-05
303.15	0.4431	0.0010561	2.72e-05
303.15	0.5439	0.0008917	2.33e-05
303.15	0.6417	0.0007691	2.04e-05
303.15	0.7361	0.0006752	1.82e-05
303.15	0.8265	0.0005929	1.63e-05
303.15	0.9143	0.0005302	1.49e-05
303.15	1	0.0004795	1.37e-05
313.15	0	0.0022701	5.73e-05
313.15	0.117	0.0017693	4.48e-05
313.15	0.2275	0.0014214	3.62e-05
313.15	0.3384	0.0011662	3e-05
313.15	0.4431	0.0009677	2.52e-05
313.15	0.5439	0.0008212	2.17e-05
313.15	0.6417	0.0007085	1.91e-05
313.15	0.7361	0.0006197	1.7e-05
313.15	0.8265	0.0005424	1.52e-05
313.15	0.9143	0.0004839	1.38e-05
313.15	1	0.0004358	1.27e-05

System: octane + exo-tetrahydrodicyclopentadiene; phases: Liquid
Fixed: Pressure, kPa = 101
Property: Mass density, kg/m3 (Liquid); method: Vibrating tube method
Temperature, K	Mole fraction of octane	Mass density, kg/m3	uncertainty
293.15	0	935.2	8
293.15	0.117	906.1	8
293.15	0.2275	879.1	8
293.15	0.3384	852.4	8
293.15	0.4431	827.7	8
293.15	0.5439	804.2	8
293.15	0.6417	781.8	8
293.15	0.7361	760.4	8
293.15	0.8265	740.3	8
293.15	0.9143	721.1	8
293.15	1	702.5	8
298.15	0	931.4	8
298.15	0.117	901	8
298.15	0.2275	874.5	8
298.15	0.3384	848.1	8
298.15	0.4431	823.6	8
298.15	0.5439	800.3	8
298.15	0.6417	778	8
298.15	0.7361	756.6	8
298.15	0.8265	736.5	8
298.15	0.9143	717.1	8
298.15	1	698.5	8
303.15	0	927.7	8
303.15	0.117	898.5	8
303.15	0.2275	871.8	8
303.15	0.3384	845.4	8
303.15	0.4431	820.7	8
303.15	0.5439	797.2	8
303.15	0.6417	774.8	8
303.15	0.7361	753.2	8
303.15	0.8265	732.9	8
303.15	0.9143	713.3	8
303.15	1	694.5	8
313.15	0	922.2	8
313.15	0.117	893.5	8
313.15	0.2275	866.6	8
313.15	0.3384	839.8	8
313.15	0.4431	814.9	8
313.15	0.5439	791	8
313.15	0.6417	768.3	8
313.15	0.7361	746.4	8
313.15	0.8265	725.6	8
313.15	0.9143	705.6	8
313.15	1	686.3	8

System: decane + exo-tetrahydrodicyclopentadiene; phases: Liquid
Fixed: Pressure, kPa = 101
Property: Viscosity, Pa*s (Liquid); method: CAPTUB:UFactor:4
Temperature, K	Mole fraction of decane	Viscosity, Pa*s	uncertainty
293.15	0	0.0030643	7.71e-05
293.15	0.095	0.002631	6.64e-05
293.15	0.1934	0.0022601	5.72e-05
293.15	0.2908	0.0019637	4.97e-05
293.15	0.3902	0.0017173	4.35e-05
293.15	0.4893	0.0015249	3.86e-05
293.15	0.6147	0.0013476	3.42e-05
293.15	0.6905	0.0012447	3.17e-05
293.15	0.7895	0.0011304	2.88e-05
293.15	0.8952	0.0010315	2.64e-05
293.15	1	0.0009491	2.44e-05
298.15	0	0.0027398	6.92e-05
298.15	0.095	0.0023392	5.9e-05
298.15	0.1934	0.0019962	5.03e-05
298.15	0.2908	0.001728	4.37e-05
298.15	0.3902	0.0015213	3.85e-05
298.15	0.4893	0.0013623	3.45e-05
298.15	0.6147	0.0011942	3.03e-05
298.15	0.6905	0.0011018	2.81e-05
298.15	0.7895	0.0010085	2.58e-05
298.15	0.8952	0.0009181	2.36e-05
298.15	1	0.0008434	2.19e-05
303.15	0	0.0025136	6.32e-05
303.15	0.095	0.0021905	5.49e-05
303.15	0.1934	0.0018894	4.74e-05
303.15	0.2908	0.0016384	4.12e-05
303.15	0.3902	0.0014413	3.63e-05
303.15	0.4893	0.0012871	3.25e-05
303.15	0.6147	0.0011431	2.89e-05
303.15	0.6905	0.0010585	2.68e-05
303.15	0.7895	0.0009726	2.48e-05
303.15	0.8952	0.0008852	2.27e-05
303.15	1	0.0008172	2.12e-05
313.15	0	0.0022701	5.73e-05
313.15	0.095	0.0020064	5.05e-05
313.15	0.1934	0.0017409	4.39e-05
313.15	0.2908	0.00153	3.86e-05
313.15	0.3902	0.0013336	3.37e-05
313.15	0.4893	0.0012136	3.07e-05
313.15	0.6147	0.001101	2.79e-05
313.15	0.6905	0.0010319	2.62e-05
313.15	0.7895	0.0009345	2.39e-05
313.15	0.8952	0.0008537	2.2e-05
313.15	1	0.0007851	2.04e-05

System: decane + exo-tetrahydrodicyclopentadiene; phases: Liquid
Fixed: Pressure, kPa = 101
Property: Mass density, kg/m3 (Liquid); method: Vibrating tube method
Temperature, K	Mole fraction of decane	Mass density, kg/m3	uncertainty
293.15	0	935.2	8
293.15	0.095	912.7	8
293.15	0.1934	890	8
293.15	0.2908	868.3	8
293.15	0.3902	846.8	8
293.15	0.4893	826	8
293.15	0.6147	800.7	8
293.15	0.6905	786	8
293.15	0.7895	767.4	8
293.15	0.8952	748.2	8
293.15	1	730	8
298.15	0	931.4	8
298.15	0.095	907.5	8
298.15	0.1934	885.1	8
298.15	0.2908	863.7	8
298.15	0.3902	842.5	8
298.15	0.4893	822	8
298.15	0.6147	796.9	8
298.15	0.6905	782.3	8
298.15	0.7895	763.7	8
298.15	0.8952	744.6	8
298.15	1	726.4	8
303.15	0	927.7	8
303.15	0.095	905.4	8
303.15	0.1934	882.8	8
303.15	0.2908	861.2	8
303.15	0.3902	839.8	8
303.15	0.4893	819	8
303.15	0.6147	793.7	8
303.15	0.6905	779	8
303.15	0.7895	760.3	8
303.15	0.8952	740.9	8
303.15	1	722.5	8
313.15	0	922.2	8
313.15	0.095	900.2	8
313.15	0.1934	877.8	8
313.15	0.2908	856.3	8
313.15	0.3902	834.8	8
313.15	0.4893	814	8
313.15	0.6147	788.4	8
313.15	0.6905	773.3	8
313.15	0.7895	754.2	8
313.15	0.8952	734.3	8
313.15	1	715.4	8
