Measured thermophysical data. Isobaric Vapor-Liquid Equilibria for the Binary Systems of Acetic Acid + Isopropenyl Acetate, Acetic Acid + Acetylacetone, and Water + Acetylacetone
Source: J. Chem. Eng. Data, 2009, 10.1021/je800345j
Compound 1: 2,4-pentanedione, C5H8O2, InChI=1S/C5H8O2/c1-4(6)3-5(2)7/h3H2,1-2H3, purity 99.8%
Compound 2: 1-methylvinyl ethanoate, C5H8O2, InChI=1S/C5H8O2/c1-4(2)7-5(3)6/h1H2,2-3H3, purity 99.8%
Compound 3: acetic acid, C2H4O2, InChI=1S/C2H4O2/c1-2(3)4/h1H3,(H,3,4), purity 99.5%
Compound 4: water, H2O, InChI=1S/H2O/h1H2

System: 2,4-pentanedione; phases: Liquid
Property: Refractive index (Na D-line) (Liquid); method: Standard Abbe refractometry
Temperature, K	Pressure, kPa	Refractive index (Na D-line)	uncertainty
293.15	101.325	1.4491	0.0004

System: 2,4-pentanedione; phases: Liquid
Property: Mass density, kg/m3 (Liquid); method: VIBTUB:UFactor:2
Temperature, K	Pressure, kPa	Mass density, kg/m3	uncertainty
298.15	101.325	971.9	0.3

System: 1-methylvinyl ethanoate; phases: Liquid
Property: Refractive index (Na D-line) (Liquid); method: Standard Abbe refractometry
Temperature, K	Pressure, kPa	Refractive index (Na D-line)	uncertainty
293.15	101.325	1.4033	0.0004

System: 1-methylvinyl ethanoate; phases: Liquid
Property: Mass density, kg/m3 (Liquid); method: VIBTUB:UFactor:2
Temperature, K	Pressure, kPa	Mass density, kg/m3	uncertainty
298.15	101.325	927.8	0.3

System: acetic acid; phases: Liquid
Property: Refractive index (Na D-line) (Liquid); method: Standard Abbe refractometry
Temperature, K	Pressure, kPa	Refractive index (Na D-line)	uncertainty
293.15	101.325	1.372	0.0004

System: acetic acid; phases: Liquid
Property: Mass density, kg/m3 (Liquid); method: VIBTUB:UFactor:4
Temperature, K	Pressure, kPa	Mass density, kg/m3	uncertainty
298.15	101.325	1047.4	0.3

System: acetic acid + 1-methylvinyl ethanoate; phases: Liquid, Gas
Fixed: Pressure, kPa = 60
Property: Boiling temperature at pressure P, K (Liquid); method: EBULLIO:UFactor:6
Mole fraction of acetic acid	Boiling temperature at pressure P, K	uncertainty
0.059	353.24	0.54
0.115	354.29	0.54
0.144	354.62	0.54
0.187	355.28	0.54
0.269	356.44	0.54
0.355	357.41	0.54
0.455	358.46	0.54
0.522	359.22	0.54
0.582	360.12	0.54
0.627	361.1	0.54
0.725	362.93	0.54
0.788	364.36	0.55
0.816	365.67	0.55
0.859	366.96	0.55
0.889	368.43	0.55
0.926	369.75	0.55
0.947	370.62	0.55
0.977	372.25	0.55

System: acetic acid + 1-methylvinyl ethanoate; phases: Gas, Liquid
Fixed: Pressure, kPa = 60
Property: Mole fraction of acetic acid (Gas); method: CHROM:UFactor:8
Mole fraction of acetic acid	Mole fraction of acetic acid	uncertainty
0.059	0.026	0.003
0.115	0.066	0.005
0.144	0.083	0.006
0.187	0.119	0.009
0.269	0.182	0.014
0.355	0.281	0.021
0.455	0.351	0.026
0.522	0.426	0.032
0.582	0.482	0.036
0.627	0.527	0.035
0.725	0.61	0.029
0.788	0.654	0.026
0.816	0.689	0.023
0.859	0.735	0.02
0.889	0.781	0.017
0.926	0.832	0.013
0.947	0.867	0.011
0.977	0.932	0.007

System: acetic acid + 2,4-pentanedione; phases: Liquid, Gas
Fixed: Pressure, kPa = 101.3
Property: Boiling temperature at pressure P, K (Liquid); method: EBULLIO:UFactor:6
Mole fraction of acetic acid	Boiling temperature at pressure P, K	uncertainty
0.069	411.77	0.53
0.085	410.76	0.52
0.132	408.93	0.52
0.19	406.8	0.51
0.245	405.61	0.51
0.303	404.58	0.51
0.331	403.66	0.51
0.361	402.95	0.51
0.41	402.38	0.51
0.454	401.16	0.51
0.514	400.04	0.51
0.571	399.15	0.51
0.614	397.69	0.51
0.661	396.67	0.51
0.726	395.69	0.51
0.796	394.19	0.51
0.849	393.31	0.51
0.89	392.28	0.51
0.911	391.81	0.51

System: acetic acid + 2,4-pentanedione; phases: Gas, Liquid
Fixed: Pressure, kPa = 101.3
Property: Mole fraction of acetic acid (Gas); method: CHROM:UFactor:6
Mole fraction of acetic acid	Mole fraction of acetic acid	uncertainty
0.069	0.101	0.006
0.085	0.123	0.007
0.132	0.186	0.011
0.19	0.289	0.016
0.245	0.368	0.021
0.303	0.445	0.025
0.331	0.473	0.027
0.361	0.509	0.027
0.41	0.546	0.025
0.454	0.607	0.022
0.514	0.656	0.019
0.571	0.711	0.016
0.614	0.755	0.014
0.661	0.796	0.012
0.726	0.843	0.009
0.796	0.891	0.006
0.849	0.924	0.005
0.89	0.947	0.004
0.911	0.958	0.003

System: 2,4-pentanedione + water; phases: Liquid, Gas
Property: Azeotropic pressure, kPa (Liquid); method: By X=Y
Mole fraction of water	Azeotropic pressure, kPa	uncertainty
0.782	101.3	0.8

System: 2,4-pentanedione + water; phases: Liquid, Gas
Fixed: Pressure, kPa = 101.3
Property: Boiling temperature at pressure P, K (Liquid); method: EBULLIO:UFactor:6
Mole fraction of water	Boiling temperature at pressure P, K	uncertainty
0.028	407.29	0.86
0.045	401.46	0.75
0.096	388.41	0.69
0.125	383.35	0.57
0.216	372.38	0.53
0.311	370.46	0.51
0.362	369.19	0.51
0.488	368.21	0.51
0.606	367.89	0.51
0.712	367.81	0.51
0.777	367.69	0.51
0.821	367.77	0.51
0.872	367.89	0.51
0.913	368.13	0.51
0.94	368.33	0.51
0.958	368.96	0.52
0.968	369.51	0.53
0.98	370.47	0.54

System: 2,4-pentanedione + water; phases: Liquid, Gas
Property: Azeotropic temperature, K (Liquid); method: By X=Y
Mole fraction of water	Azeotropic temperature, K	uncertainty
0.782	367.71	0.3

System: 2,4-pentanedione + water; phases: Gas, Liquid
Fixed: Pressure, kPa = 101.3
Property: Mole fraction of water (Gas); method: CHROM:UFactor:6
Mole fraction of water	Mole fraction of water	uncertainty
0.028	0.264	0.021
0.045	0.386	0.023
0.096	0.593	0.024
0.125	0.665	0.019
0.216	0.748	0.014
0.311	0.763	0.013
0.362	0.774	0.013
0.488	0.774	0.013
0.606	0.776	0.013
0.712	0.776	0.013
0.777	0.778	0.012
0.821	0.794	0.012
0.872	0.801	0.011
0.913	0.821	0.01
0.94	0.843	0.009
0.958	0.882	0.008
0.968	0.907	0.007
0.98	0.938	0.006
