Measured thermophysical data. Phase Behavior of the Reactant and Products of Cyclohexane Oxidation in Compressed CO2
Source: J. Chem. Eng. Data, 2008, 10.1021/je800109s
Compound 1: cyclohexane, C6H12, InChI=1S/C6H12/c1-2-4-6-5-3-1/h1-6H2
Compound 2: cyclohexanone, C6H10O, InChI=1S/C6H10O/c7-6-4-2-1-3-5-6/h1-5H2
Compound 3: cyclohexanol, C6H12O, InChI=1S/C6H12O/c7-6-4-2-1-3-5-6/h6-7H,1-5H2
Compound 4: carbon dioxide, CO2, InChI=1S/CO2/c2-1-3

System: cyclohexane + carbon dioxide; phases: Gas, Liquid
Property: Vapor or sublimation pressure, kPa (Gas); method: CCELL:UFactor:8
Mole fraction of carbon dioxide	Temperature, K	Vapor or sublimation pressure, kPa	uncertainty
0.945	333	9700	260
0.973	323	8660	480
0.981	323	8510	480

System: cyclohexane + carbon dioxide; phases: Liquid, Gas
Property: Vapor or sublimation pressure, kPa (Liquid); method: CCELL:UFactor:8
Mole fraction of carbon dioxide	Temperature, K	Vapor or sublimation pressure, kPa	uncertainty
0.451	293	3900	130
0.451	303	4590	140
0.451	313	5210	150
0.451	323	5840	160
0.451	333	6510	180
0.561	293	4510	150
0.561	303	5280	160
0.561	313	6070	170
0.561	323	6950	190
0.561	333	7810	210
0.657	293	4560	140
0.657	303	5450	170
0.657	313	6420	190
0.657	323	7410	210
0.657	333	8420	230
0.78	293	4890	160
0.78	303	5870	180
0.78	313	6950	210
0.78	323	8120	230
0.78	333	9310	260
0.855	293	4930	170
0.855	303	6070	190
0.855	313	7310	220
0.855	323	8560	250
0.855	333	9810	260
0.884	293	4820	150
0.884	303	5860	180
0.884	313	7080	210
0.884	323	8280	240
0.884	333	9530	280
0.916	293	5130	180
0.916	303	6300	200
0.916	313	7490	220
0.916	323	8760	240
0.916	333	9750	260
0.945	293	5240	170
0.945	303	6360	200
0.945	313	7640	220
0.945	323	8740	240
0.973	293	5450	170
0.973	303	6440	190
0.973	313	7560	220
0.981	293	5330	170
0.981	303	6410	190
0.981	313	7470	210

System: cyclohexanol + carbon dioxide; phases: Liquid mixture 1, Liquid mixture 2, Gas
Fixed: Temperature, K = 303
Property: Vapor or sublimation pressure, kPa (Liquid mixture 1); method: CCELL:UFactor:8
Vapor or sublimation pressure, kPa	uncertainty
6920	390
6870	380
6910	390
6770	380
6780	380
7020	390

System: cyclohexanol + carbon dioxide; phases: Liquid mixture 1, Liquid mixture 2
Property: Vapor or sublimation pressure, kPa (Liquid mixture 1); method: CCELL:UFactor:8
Mole fraction of carbon dioxide	Temperature, K	Vapor or sublimation pressure, kPa	uncertainty
0.432	303	15660	410
0.432	313	11670	230
0.432	323	11370	80
0.493	313	18110	430
0.493	323	14280	230
0.493	333	13700	70
0.493	343	14100	80
0.551	313	25260	440
0.551	323	20990	400
0.551	333	17480	240
0.551	342	16620	120
0.602	323	26970	550
0.602	333	21550	390
0.602	343	19410	290
0.694	333	24800	250
0.694	343	22010	330
0.774	333	26480	280
0.774	343	23210	380
0.842	333	26260	210
0.842	343	23030	390
0.901	333	22690	60
0.901	343	21040	280
0.953	303	19500	430
0.953	313	15220	250
0.953	323	14660	60
0.953	333	15140	100
0.953	343	16170	130
0.977	313	10140	160
0.977	323	11620	160
0.977	333	13070	140
0.977	343	14210	130

System: cyclohexanol + carbon dioxide; phases: Liquid, Gas
Property: Vapor or sublimation pressure, kPa (Liquid); method: CCELL:UFactor:8
Mole fraction of carbon dioxide	Temperature, K	Vapor or sublimation pressure, kPa	uncertainty
0.202	303	5330	140
0.202	313	5740	150
0.202	323	6160	160
0.202	333	6470	160
0.202	343	6730	170
0.363	303	7740	270
0.363	313	8630	230
0.363	323	9370	240
0.363	333	10020	260
0.363	343	10570	270
0.432	333	12010	310
0.432	343	12650	320
0.977	303	9410	530

System: cyclohexanone + carbon dioxide; phases: Liquid, Gas
Property: Vapor or sublimation pressure, kPa (Liquid); method: CCELL:UFactor:8
Mole fraction of carbon dioxide	Temperature, K	Vapor or sublimation pressure, kPa	uncertainty
0.598	293	3530	130
0.598	303	4430	150
0.598	313	5480	170
0.598	323	6430	180
0.598	333	7340	200
0.691	293	4580	170
0.691	303	5510	170
0.691	313	6570	200
0.691	323	7830	230
0.691	333	8960	240
0.77	293	4740	160
0.77	303	5710	170
0.77	313	6760	200
0.77	323	8060	240
0.77	333	9460	280
0.839	293	4870	170
0.839	303	5980	190
0.839	313	7340	230
0.839	323	8800	270
0.839	333	10350	290
0.905	293	5000	170
0.905	303	6220	200
0.905	313	7580	240
0.905	323	9150	280
0.905	333	10770	310
0.952	293	5180	180
0.952	303	6360	200
0.952	313	7790	240
0.952	323	9320	280
0.977	293	5250	180
0.977	303	6520	210
0.977	313	7910	240
0.991	293	5510	190
0.991	303	6810	210
0.991	313	8000	230

System: cyclohexanone + carbon dioxide; phases: Gas, Liquid
Property: Vapor or sublimation pressure, kPa (Gas); method: CCELL:UFactor:8
Mole fraction of carbon dioxide	Temperature, K	Vapor or sublimation pressure, kPa	uncertainty
0.952	333	10830	310
0.977	323	9250	270
0.977	333	10680	300
0.991	323	9260	260
0.991	333	10450	290

System: cyclohexanone + cyclohexane + carbon dioxide; phases: Gas, Liquid
Fixed: Solvent: Mole fraction of cyclohexanone = 0.5
Property: Vapor or sublimation pressure, kPa (Gas); method: CCELL:UFactor:8
Mole fraction of carbon dioxide	Temperature, K	Vapor or sublimation pressure, kPa	uncertainty
0.949	333	10180	290
0.949	343	11560	320
0.975	333	10140	250
0.975	343	10510	260

System: cyclohexanone + cyclohexane + carbon dioxide; phases: Liquid, Gas
Fixed: Solvent: Mole fraction of cyclohexanone = 0.5
Property: Vapor or sublimation pressure, kPa (Liquid); method: CCELL:UFactor:8
Mole fraction of carbon dioxide	Temperature, K	Vapor or sublimation pressure, kPa	uncertainty
0.673	293	4110	140
0.673	303	4980	160
0.673	313	5900	180
0.673	323	6900	200
0.673	333	7950	220
0.673	343	9040	250
0.828	293	4690	160
0.828	303	5760	180
0.828	313	6930	210
0.828	323	8200	240
0.828	333	9520	270
0.828	343	10840	300
0.949	293	5100	180
0.949	303	6340	200
0.949	313	7700	230
0.949	323	9010	260
0.975	293	5400	180
0.975	303	6620	210
0.975	313	7980	230
0.975	323	9050	250

System: cyclohexanol + cyclohexanone + carbon dioxide; phases: Liquid, Gas
Fixed: Solvent: Mole fraction of cyclohexanone = 0.5
Property: Vapor or sublimation pressure, kPa (Liquid); method: CCELL:UFactor:8
Mole fraction of carbon dioxide	Temperature, K	Vapor or sublimation pressure, kPa	uncertainty
0.692	293	5190	200
0.692	303	6630	210
0.692	313	7750	230
0.692	323	9000	260
0.692	333	10550	300
0.692	343	12080	340
0.84	293	5260	180
0.84	303	6460	210
0.84	313	7860	250
0.84	323	9490	290
0.84	333	11240	340
0.84	343	13220	380
0.953	293	5340	200
0.953	303	6750	220
0.953	313	8040	260
0.953	323	10030	320
0.977	293	5450	180
0.977	303	6660	210
0.977	313	7940	240
0.977	323	9450	280

System: cyclohexanol + cyclohexanone + carbon dioxide; phases: Gas, Liquid
Fixed: Solvent: Mole fraction of cyclohexanone = 0.5
Property: Vapor or sublimation pressure, kPa (Gas); method: CCELL:UFactor:8
Mole fraction of carbon dioxide	Temperature, K	Vapor or sublimation pressure, kPa	uncertainty
0.953	333	11970	340
0.953	343	13670	380
0.977	333	10920	300
0.977	343	12200	330

System: cyclohexanol + cyclohexane + carbon dioxide; phases: Liquid mixture 1, Gas, Liquid mixture 2
Fixed: Solvent: Mole fraction of cyclohexanol = 0.5
Property: Vapor or sublimation pressure, kPa (Liquid mixture 1); method: CCELL:UFactor:8
Temperature, K	Vapor or sublimation pressure, kPa	uncertainty
293	5120	180
293	4880	190
293	5100	180
293	4890	190
293	4830	190
293	5040	180
293	4950	190
303	6310	200
303	6390	200
303	5980	190
303	6290	200
303	6250	200
313	7610	230
313	7700	230
313	7680	230
313	7340	230
313	7510	230
323	8990	260
323	8990	260
323	8890	260

System: cyclohexanol + cyclohexane + carbon dioxide; phases: Gas, Liquid
Fixed: Solvent: Mole fraction of cyclohexanol = 0.5
Property: Vapor or sublimation pressure, kPa (Gas); method: CCELL:UFactor:8
Mole fraction of carbon dioxide	Temperature, K	Vapor or sublimation pressure, kPa	uncertainty
0.8622	333	10890	300
0.8622	343	12280	340
0.8926	333	11350	320
0.8926	343	12690	340
0.9219	333	11480	320
0.9219	343	12820	340
0.9494	323	9790	290
0.9494	333	11320	310
0.9494	343	12560	330
0.9754	323	9700	280
0.9754	333	11040	300
0.9754	343	12020	310

System: cyclohexanol + cyclohexane + carbon dioxide; phases: Liquid mixture 1, Liquid mixture 2
Fixed: Solvent: Mole fraction of cyclohexanol = 0.5
Property: Vapor or sublimation pressure, kPa (Liquid mixture 1); method: CCELL:UFactor:8
Mole fraction of carbon dioxide	Temperature, K	Vapor or sublimation pressure, kPa	uncertainty
0.7577	293	6390	220
0.7802	293	8080	240
0.829	293	12030	420
0.829	303	7750	240
0.829	313	7480	70
0.8622	293	14270	360
0.8622	303	9190	290
0.8622	313	8640	70
0.8622	323	9580	120
0.8926	293	11920	320
0.8926	303	8850	170
0.8926	313	8850	90
0.8926	323	9940	120
0.9219	293	9900	140
0.9219	303	8010	90
0.9219	313	8690	120
0.9219	323	10000	150
0.9494	293	6040	80
0.9494	303	6570	120
0.9494	313	8100	170

System: cyclohexanol + cyclohexane + carbon dioxide; phases: Liquid, Gas
Fixed: Solvent: Mole fraction of cyclohexanol = 0.5
Property: Vapor or sublimation pressure, kPa (Liquid); method: CCELL:UFactor:8
Mole fraction of carbon dioxide	Temperature, K	Vapor or sublimation pressure, kPa	uncertainty
0.473	293	4450	140
0.473	303	5260	160
0.473	313	6090	170
0.473	323	6880	190
0.473	333	7630	200
0.473	343	8360	220
0.675	293	4770	170
0.675	303	5910	180
0.675	313	6930	210
0.675	323	8140	240
0.675	333	9440	260
0.675	343	10440	280
0.7577	303	5990	190
0.7577	313	7160	220
0.7577	323	8430	250
0.7577	333	9770	280
0.7577	343	11150	310
0.7802	303	6030	190
0.7802	313	7270	220
0.7802	323	8610	250
0.7802	333	10000	290
0.7802	343	11440	320
0.829	323	8590	270
0.829	333	10180	300
0.829	343	11690	330
0.9754	293	5370	190
0.9754	303	6700	210
0.9754	313	8060	240
