Measured thermophysical data. Solubilities of Hexadecanoic and Octadecanoic Acids in Supercritical CO2 With and Without Cosolvents
Source: J. Chem. Eng. Data, 2008, 10.1021/je8007149
Compound 1: carbon dioxide, CO2, InChI=1S/CO2/c2-1-3
Compound 2: ethanol, C2H6O, InChI=1S/C2H6O/c1-2-3/h3H,2H2,1H3
Compound 3: hexadecanoic acid, C16H32O2, InChI=1S/C16H32O2/c1-2-3-4-5-6-7-8-9-10-11-12-13-14-15-16(17)18/h2-15H2,1H3,(H,17,18)
Compound 4: octadecanoic acid, C18H36O2, InChI=1S/C18H36O2/c1-2-3-4-5-6-7-8-9-10-11-12-13-14-15-16-17-18(19)20/h2-17H2,1H3,(H,19,20)
Compound 5: 3-methylbutan-1-ol, C5H12O, InChI=1S/C5H12O/c1-5(2)3-4-6/h5-6H,3-4H2,1-2H3

System: hexadecanoic acid + carbon dioxide; phases: Fluid (supercritical or subcritical phases), Crystal
Property: Mole fraction of hexadecanoic acid (Fluid (supercritical or subcritical phases)); method: gravimetric
Temperature, K	Pressure, kPa	Mole fraction of hexadecanoic acid	uncertainty
308	12800	0.000258	1.6e-05
308	14800	0.000314	2e-05
308	16700	0.000353	2.3e-05
308	19700	0.000401	2.6e-05
308	22600	0.000445	3e-05
318	12800	0.000374	2.3e-05
318	14800	0.000544	3.4e-05
318	16700	0.000698	4.3e-05
318	19700	0.000865	5.4e-05
318	22600	0.001045	6.5e-05

System: octadecanoic acid + carbon dioxide; phases: Fluid (supercritical or subcritical phases), Crystal
Property: Mole fraction of octadecanoic acid (Fluid (supercritical or subcritical phases)); method: gravimetric
Temperature, K	Pressure, kPa	Mole fraction of octadecanoic acid	uncertainty
308	12800	7.4e-05	5e-06
308	14800	8.9e-05	6e-06
308	16700	0.000103	7e-06
308	19700	0.000119	8e-06
308	22600	0.000124	9e-06
318	12800	8.3e-05	5e-06
318	14800	0.000148	9e-06
318	16700	0.000212	1.3e-05
318	19700	0.000287	1.8e-05
318	22600	0.000324	2e-05

System: hexadecanoic acid + ethanol + carbon dioxide; phases: Fluid (supercritical or subcritical phases), Crystal
Property: Mole fraction of hexadecanoic acid (Fluid (supercritical or subcritical phases)); method: Gravimetrically measured
Temperature, K	Solvent: Mole fraction of ethanol	Pressure, kPa	Mole fraction of hexadecanoic acid	uncertainty
308	0.0073	12800	0.000529	3.8e-05
308	0.0073	14800	0.000616	4.6e-05
308	0.0073	16700	0.000672	5.1e-05
308	0.0073	19700	0.000736	5.6e-05
308	0.0073	22600	0.000791	6.1e-05
318	0.0073	12800	0.000853	6.1e-05
318	0.0073	14800	0.00116	8.4e-05
318	0.0073	16700	0.00142	0.000103
318	0.0073	19700	0.001674	0.000121
318	0.0073	22600	0.001939	0.000141
318	0.0198	12800	0.0013	9.3e-05
318	0.0198	14800	0.001769	0.000127
318	0.0198	16700	0.002166	0.000155
318	0.0198	19700	0.002554	0.000183
318	0.0198	22600	0.002958	0.000214
318	0.0416	12800	0.002718	0.000195
318	0.0416	14800	0.003694	0.000265
318	0.0416	16700	0.004523	0.000325
318	0.0416	19700	0.005333	0.000383
318	0.0416	22600	0.006177	0.000445

System: hexadecanoic acid + 3-methylbutan-1-ol + carbon dioxide; phases: Fluid (supercritical or subcritical phases), Crystal
Property: Mole fraction of hexadecanoic acid (Fluid (supercritical or subcritical phases)); method: Gravimetrically measured
Temperature, K	Solvent: Mole fraction of 3-methylbutan-1-ol	Pressure, kPa	Mole fraction of hexadecanoic acid	uncertainty
308	0.0073	12800	0.000414	3e-05
308	0.0073	14800	0.000486	3.6e-05
308	0.0073	16700	0.000533	4e-05
308	0.0073	19700	0.000588	4.5e-05
308	0.0073	22600	0.000635	4.9e-05
318	0.0073	12800	0.000657	4.7e-05
318	0.0073	14800	0.000905	6.5e-05
318	0.0073	16700	0.001118	8.1e-05
318	0.0073	19700	0.00133	9.6e-05
318	0.0073	22600	0.001552	0.000113
318	0.0198	12800	0.001076	7.7e-05
318	0.0198	14800	0.001481	0.000106
318	0.0198	16700	0.001829	0.000131
318	0.0198	19700	0.002176	0.000156
318	0.0198	22600	0.00254	0.000182

System: octadecanoic acid + ethanol + carbon dioxide; phases: Fluid (supercritical or subcritical phases), Crystal
Property: Mole fraction of octadecanoic acid (Fluid (supercritical or subcritical phases)); method: Gravimetrically measured
Temperature, K	Solvent: Mole fraction of ethanol	Pressure, kPa	Mole fraction of octadecanoic acid	uncertainty
308	0.0073	12800	0.000181	1.3e-05
308	0.0073	14800	0.000216	1.6e-05
308	0.0073	16700	0.000239	1.8e-05
308	0.0073	19700	0.000267	2e-05
308	0.0073	22600	0.000291	2.3e-05
318	0.0073	12800	0.000283	2e-05
318	0.0073	14800	0.000398	2.9e-05
318	0.0073	16700	0.000499	3.6e-05
318	0.0073	19700	0.000604	4.4e-05
318	0.0073	22600	0.000714	5.2e-05
318	0.0198	12800	0.000492	3.5e-05
318	0.0198	14800	0.000692	5e-05
318	0.0198	16700	0.000869	6.3e-05
318	0.0198	19700	0.00105	7.6e-05
318	0.0198	22600	0.001242	9.2e-05
318	0.0416	12800	0.001292	9.3e-05
318	0.0416	14800	0.00182	0.000132
318	0.0416	16700	0.00228	0.000165
318	0.0416	19700	0.002757	0.0002
318	0.0416	22600	0.003262	0.000237

System: octadecanoic acid + 3-methylbutan-1-ol + carbon dioxide; phases: Fluid (supercritical or subcritical phases), Crystal
Property: Mole fraction of octadecanoic acid (Fluid (supercritical or subcritical phases)); method: Gravimetrically measured
Temperature, K	Solvent: Mole fraction of 3-methylbutan-1-ol	Pressure, kPa	Mole fraction of octadecanoic acid	uncertainty
308	0.0073	12800	0.000138	1e-05
308	0.0073	14800	0.000164	1.2e-05
308	0.0073	16700	0.000181	1.4e-05
308	0.0073	19700	0.000202	1.5e-05
308	0.0073	22600	0.00022	1.7e-05
318	0.0073	12800	0.000219	1.6e-05
318	0.0073	14800	0.000307	2.2e-05
318	0.0073	16700	0.000384	2.8e-05
318	0.0073	19700	0.000463	3.4e-05
318	0.0073	22600	0.000546	4e-05
318	0.0198	12800	0.000405	2.9e-05
318	0.0198	14800	0.000567	4.1e-05
318	0.0198	16700	0.00071	5.1e-05
318	0.0198	19700	0.000855	6.1e-05
318	0.0198	22600	0.00101	7.3e-05
