Measured thermophysical data. Ternary Liquid-Liquid Equilibria for Systems Containing Alcohol or Acetic Acid + Ester + 1-Ethyl-3-methylimidazolium Hydrogen Sulfate at 313.2 K Using Headspace Gas Chromatography
Source: J. Chem. Eng. Data, 2009, 10.1021/je800547k
Compound 1: acetic acid, C2H4O2, InChI=1S/C2H4O2/c1-2(3)4/h1H3,(H,3,4)
Compound 2: butyl ethanoate, C6H12O2, InChI=1S/C6H12O2/c1-3-4-5-8-6(2)7/h3-5H2,1-2H3
Compound 3: butan-1-ol, C4H10O, InChI=1S/C4H10O/c1-2-3-4-5/h5H,2-4H2,1H3
Compound 4: propyl ethanoate, C5H10O2, InChI=1S/C5H10O2/c1-3-4-7-5(2)6/h3-4H2,1-2H3
Compound 5: propan-1-ol, C3H8O, InChI=1S/C3H8O/c1-2-3-4/h4H,2-3H2,1H3
Compound 6: 1-ethyl-3-methylimidazolium hydrogen sulfate, C6H12N2O4S, InChI=1S/C6H11N2.H2O4S/c1-3-8-5-4-7(2)6-8;1-5(2,3)4/h4-6H,3H2,1-2H3;(H2,1,2,3,4)/q+1;/p-1

System: propan-1-ol + propyl ethanoate + 1-ethyl-3-methylimidazolium hydrogen sulfate; phases: Liquid mixture 2, Liquid mixture 1
Fixed: Temperature, K = 313
Fixed: Pressure, kPa = 101
Property: Mass fraction of propyl ethanoate (Liquid mixture 2); method: Chromatography
Property: Mass fraction of propyl ethanoate (Liquid mixture 1); method: Chromatography
Property: Mass fraction of propan-1-ol (Liquid mixture 1); method: Chromatography
Mass fraction of propan-1-ol	Mass fraction of propyl ethanoate	uncertainty	Mass fraction of propyl ethanoate	uncertainty	Mass fraction of propan-1-ol	uncertainty
0.024	0.012	0.012	0.914	0.029	0.085	
0.038	0.013	0.013	0.881	0.028	0.117	
0.054	0.011	0.011	0.816	0.028	0.182	
0.074	0.016	0.016	0.736	0.029	0.262	
0.137	0.029	0.02	0.627	0.03	0.367	
0.179	0.039	0.021	0.541	0.033	0.44	
0.233	0.059	0.021	0.429	0.035	0.52	

System: propan-1-ol + propyl ethanoate + 1-ethyl-3-methylimidazolium hydrogen sulfate; phases: Liquid mixture 2, Liquid mixture 1
Fixed: Pressure, kPa = 101
Fixed: Temperature, K = 313
Property: Mass fraction of propyl ethanoate (Liquid mixture 2); method: Titration method
Mass fraction of propan-1-ol	Mass fraction of propyl ethanoate	uncertainty
0.01	0.003	0.003
0.015	0.015	0.01
0.033	0.012	0.01
0.053	0.012	0.01
0.076	0.015	0.01
0.117	0.022	0.01
0.135	0.028	0.01
0.179	0.039	0.011
0.181	0.041	0.011
0.2	0.049	0.011
0.221	0.055	0.011
0.245	0.065	0.011
0.259	0.071	0.011
0.288	0.084	0.012
0.364	0.136	0.014
0.456	0.226	0.015

System: propan-1-ol + propyl ethanoate + 1-ethyl-3-methylimidazolium hydrogen sulfate; phases: Liquid mixture 1, Liquid mixture 2
Fixed: Pressure, kPa = 101
Fixed: Temperature, K = 313
Property: Mass fraction of propyl ethanoate (Liquid mixture 1); method: Titration method
Mass fraction of propan-1-ol	Mass fraction of propyl ethanoate	uncertainty
0	1	0.001
0.02	0.98	0.014
0.08	0.92	0.014
0.15	0.85	0.015
0.202	0.796	0.015
0.289	0.708	0.017
0.33	0.665	0.017
0.405	0.585	0.019
0.427	0.557	0.021
0.447	0.531	0.02
0.473	0.503	0.021
0.507	0.457	0.027
0.513	0.304	0.031
0.514	0.425	0.026
0.527	0.385	0.034
0.528	0.345	0.059

System: acetic acid + propyl ethanoate + 1-ethyl-3-methylimidazolium hydrogen sulfate; phases: Liquid mixture 2, Liquid mixture 1
Fixed: Temperature, K = 313
Fixed: Pressure, kPa = 101
Property: Mass fraction of propyl ethanoate (Liquid mixture 2); method: Chromatography
Property: Mass fraction of propyl ethanoate (Liquid mixture 1); method: Chromatography
Property: Mass fraction of acetic acid (Liquid mixture 1); method: Chromatography
Mass fraction of acetic acid	Mass fraction of propyl ethanoate	uncertainty	Mass fraction of propyl ethanoate	uncertainty	Mass fraction of acetic acid	uncertainty
0.145	0.026	0.021	0.954	0.029	0.046	
0.231	0.046	0.021	0.857	0.029	0.141	
0.308	0.074	0.023	0.76	0.029	0.235	
0.382	0.124	0.024	0.669	0.029	0.32	

System: acetic acid + propyl ethanoate + 1-ethyl-3-methylimidazolium hydrogen sulfate; phases: Liquid mixture 2, Liquid mixture 1
Fixed: Pressure, kPa = 101
Fixed: Temperature, K = 313
Property: Mass fraction of propyl ethanoate (Liquid mixture 2); method: Titration method
Mass fraction of acetic acid	Mass fraction of propyl ethanoate	uncertainty
0.013	0.01	0.01
0.078	0.017	0.01
0.149	0.028	0.01
0.187	0.037	0.01
0.241	0.053	0.011
0.246	0.047	0.011
0.287	0.071	0.012
0.327	0.092	0.012
0.352	0.108	0.013
0.357	0.104	0.013
0.391	0.14	0.016
0.447	0.213	0.02
0.468	0.273	0.031
0.475	0.376	0.06

System: acetic acid + propyl ethanoate + 1-ethyl-3-methylimidazolium hydrogen sulfate; phases: Liquid mixture 1, Liquid mixture 2
Fixed: Pressure, kPa = 101
Fixed: Temperature, K = 313
Property: Mass fraction of propyl ethanoate (Liquid mixture 1); method: Titration method
Mass fraction of acetic acid	Mass fraction of propyl ethanoate	uncertainty
0	1	0.001
0.01	0.99	0.01
0.08	0.92	0.014
0.14	0.859	0.015
0.175	0.822	0.015
0.23	0.766	0.016
0.271	0.722	0.017
0.336	0.652	0.018
0.39	0.59	0.019
0.414	0.559	0.024
0.462	0.467	0.025

System: butan-1-ol + butyl ethanoate + 1-ethyl-3-methylimidazolium hydrogen sulfate; phases: Liquid mixture 2, Liquid mixture 1
Fixed: Temperature, K = 313
Fixed: Pressure, kPa = 101
Property: Mass fraction of butyl ethanoate (Liquid mixture 2); method: Chromatography
Property: Mass fraction of butyl ethanoate (Liquid mixture 1); method: Chromatography
Property: Mass fraction of butan-1-ol (Liquid mixture 1); method: Chromatography
Mass fraction of butan-1-ol	Mass fraction of butyl ethanoate	uncertainty	Mass fraction of butyl ethanoate	uncertainty	Mass fraction of butan-1-ol	uncertainty
0.021	0.006	0.006	0.828	0.028	0.168	
0.037	0.005	0.005	0.661	0.029	0.334	
0.101	0.01	0.01	0.424	0.029	0.564	
0.125	0.013	0.013	0.314	0.037	0.656	
0.189	0.022	0.02	0.201	0.051	0.704	

System: butan-1-ol + butyl ethanoate + 1-ethyl-3-methylimidazolium hydrogen sulfate; phases: Liquid mixture 2, Liquid mixture 1
Fixed: Pressure, kPa = 101
Fixed: Temperature, K = 313
Property: Mass fraction of butyl ethanoate (Liquid mixture 2); method: Titration method
Mass fraction of butan-1-ol	Mass fraction of butyl ethanoate	uncertainty
0	0.002	0.002
0.014	0.006	0.006
0.036	0.005	0.005
0.041	0.006	0.006
0.05	0.007	0.007
0.076	0.006	0.006
0.091	0.008	0.008
0.097	0.009	0.009
0.138	0.015	0.01
0.154	0.017	0.01
0.18	0.02	0.01
0.226	0.028	0.01
0.341	0.047	0.01
0.433	0.066	0.01
0.54	0.09	0.011
0.59	0.104	0.011
0.641	0.122	0.011
0.691	0.149	0.034
0.702	0.185	0.035

System: butan-1-ol + butyl ethanoate + 1-ethyl-3-methylimidazolium hydrogen sulfate; phases: Liquid mixture 1, Liquid mixture 2
Fixed: Pressure, kPa = 101
Fixed: Temperature, K = 313
Property: Mass fraction of butyl ethanoate (Liquid mixture 1); method: Titration method
Mass fraction of butan-1-ol	Mass fraction of butyl ethanoate	uncertainty
0	0.999	0.001
0.074	0.925	0.014
0.15	0.85	0.015
0.25	0.75	0.016
0.298	0.701	0.017
0.349	0.649	0.017
0.4	0.599	0.018
0.449	0.544	0.019
0.544	0.448	0.02
0.546	0.441	0.02
0.637	0.334	0.018
0.645	0.317	0.018
0.682	0.28	0.021
0.705	0.212	0.032

System: acetic acid + butyl ethanoate + 1-ethyl-3-methylimidazolium hydrogen sulfate; phases: Liquid mixture 2, Liquid mixture 1
Fixed: Temperature, K = 313
Fixed: Pressure, kPa = 101
Property: Mass fraction of butyl ethanoate (Liquid mixture 2); method: Chromatography
Property: Mass fraction of butyl ethanoate (Liquid mixture 1); method: Chromatography
Property: Mass fraction of acetic acid (Liquid mixture 1); method: Chromatography
Mass fraction of acetic acid	Mass fraction of butyl ethanoate	uncertainty	Mass fraction of butyl ethanoate	uncertainty	Mass fraction of acetic acid	uncertainty
0.064	0.006	0.006	0.974	0.026	0.026	
0.132	0.011	0.011	0.941	0.029	0.058	
0.234	0.028	0.021	0.851	0.028	0.145	
0.362	0.064	0.022	0.668	0.029	0.328	
0.471	0.125	0.023	0.534	0.03	0.45	

System: acetic acid + butyl ethanoate + 1-ethyl-3-methylimidazolium hydrogen sulfate; phases: Liquid mixture 2, Liquid mixture 1
Fixed: Pressure, kPa = 101
Fixed: Temperature, K = 313
Property: Mass fraction of butyl ethanoate (Liquid mixture 2); method: Titration method
Mass fraction of acetic acid	Mass fraction of butyl ethanoate	uncertainty
0.01	0.004	0.004
0.04	0.006	0.006
0.119	0.011	0.01
0.153	0.015	0.01
0.19	0.019	0.01
0.297	0.044	0.01
0.353	0.061	0.011
0.391	0.071	0.012
0.44	0.107	0.013
0.478	0.131	0.014
0.5	0.16	0.02
0.535	0.227	0.034
0.549	0.331	0.076

System: acetic acid + butyl ethanoate + 1-ethyl-3-methylimidazolium hydrogen sulfate; phases: Liquid mixture 1, Liquid mixture 2
Fixed: Pressure, kPa = 101
Fixed: Temperature, K = 313
Property: Mass fraction of butyl ethanoate (Liquid mixture 1); method: Titration method
Mass fraction of acetic acid	Mass fraction of butyl ethanoate	uncertainty
0.01	0.989	0.011
0.1	0.899	0.015
0.219	0.778	0.016
0.354	0.638	0.018
0.468	0.512	0.031
0.496	0.438	0.023
0.524	0.421	0.017
