Measured thermophysical data. Solubilities of a 1,4-Bis(alkylamino)-9,10-anthraquinone Series in Compressed Carbon Dioxide
Source: J. Chem. Eng. Data, 2008, 10.1021/je800252z
Compound 1: carbon dioxide, CO2, InChI=1S/CO2/c2-1-3
Compound 2: 1,4-bis(methylamino)anthraquinone, C16H14N2O2, InChI=1S/C16H14N2O2/c1-17-11-7-8-12(18-2)14-13(11)15(19)9-5-3-4-6-10(9)16(14)20/h3-8,17-18H,1-2H3
Compound 3: 1,4-bis(ethylamino)-9,10-anthracenedione, C18H18N2O2, InChI=1S/C18H18N2O2/c1-3-19-13-9-10-14(20-4-2)16-15(13)17(21)11-7-5-6-8-12(11)18(16)22/h5-10,19-20H,3-4H2,1-2H3
Compound 4: 1,4-bis(butylamino)anthracene-9,10-dione, C22H26N2O2, InChI=1S/C22H26N2O2/c1-3-5-13-23-17-11-12-18(24-14-6-4-2)20-19(17)21(25)15-9-7-8-10-16(15)22(20)26/h7-12,23-24H,3-6,13-14H2,1-2H3
Compound 5: C.I. 61555, C24H30N2O2, InChI=1S/C24H30N2O2/c1-3-5-9-15-25-19-13-14-20(26-16-10-6-4-2)22-21(19)23(27)17-11-7-8-12-18(17)24(22)28/h7-8,11-14,25-26H,3-6,9-10,15-16H2,1-2H3
Compound 6: 1,4-bis(isopropylamino)anthraquinone, C20H22N2O2, InChI=1S/C20H22N2O2/c1-11(2)21-15-9-10-16(22-12(3)4)18-17(15)19(23)13-7-5-6-8-14(13)20(18)24/h5-12,21-22H,1-4H3
Compound 7: 1,4-bis-(octylamino)-9,10-anthraquinone, C30H42N2O2, InChI=1S/C30H42N2O2/c1-3-5-7-9-11-15-21-31-25-19-20-26(32-22-16-12-10-8-6-4-2)28-27(25)29(33)23-17-13-14-18-24(23)30(28)34/h13-14,17-20,31-32H,3-12,15-16,21-22H2,1-2H3

System: carbon dioxide + 1,4-bis(methylamino)anthraquinone; phases: Fluid (supercritical or subcritical phases), Crystal
Property: Amount concentration (molarity), mol/dm3 of 1,4-bis(methylamino)anthraquinone (Fluid (supercritical or subcritical phases)); method: SPECTR
Temperature, K	Pressure, kPa	Amount concentration (molarity), mol/dm3 of 1,4-bis(methylamino)anthraquinone	uncertainty
299	6790	6.47e-06	1.01e-06
299	6860	6.37e-06	1.02e-06
299	7870	9.56e-06	1.13e-06
299	7910	9.78e-06	1.14e-06
299	8850	1.21e-05	1.2e-06
299	8860	1.2e-05	1.2e-06
299	9840	1.43e-05	1.3e-06
299	10850	1.66e-05	1.4e-06
299	11800	1.86e-05	1.5e-06
299	12800	2.06e-05	1.6e-06
299	13800	2.26e-05	1.7e-06
299	14830	2.45e-05	1.8e-06
299	15800	2.65e-05	1.9e-06
299	16790	2.85e-05	2.1e-06
299	17800	3.03e-05	2.2e-06
299	18740	3.21e-05	2.3e-06
305	7620	2.95e-06	1e-06
305	7660	2.97e-06	1.01e-06
305	8830	8.38e-06	1.09e-06
305	9770	1.15e-05	1.2e-06
305	10830	1.48e-05	1.3e-06
305	11770	1.76e-05	1.5e-06
305	12750	2.03e-05	1.6e-06
305	13750	2.3e-05	1.7e-06
305	13760	2.3e-05	1.7e-06
305	14550	2.49e-05	1.9e-06
305	15600	2.79e-05	2e-06
305	16720	3.05e-05	2.2e-06
305	17790	3.32e-05	2.3e-06
305	18730	3.56e-05	2.5e-06
310	8800	3.62e-06	1.01e-06
310	9760	7.94e-06	1.09e-06
310	10760	1.2e-05	1.2e-06
310	11760	1.56e-05	1.4e-06
310	12550	1.85e-05	1.5e-06
310	12660	1.87e-05	1.5e-06
310	13600	2.19e-05	1.7e-06
310	14650	2.54e-05	1.9e-06
310	14700	2.59e-05	1.9e-06
310	15650	2.9e-05	2.1e-06
310	16690	3.25e-05	2.3e-06
310	17580	3.49e-05	2.5e-06
310	17590	3.55e-05	2.5e-06
310	17780	3.6e-05	2.5e-06
310	18000	3.53e-05	2.5e-06
310	18690	3.87e-05	2.7e-06
310	18800	3.91e-05	2.7e-06
315	9810	3.39e-06	1.02e-06
315	10800	8.01e-06	1.11e-06
315	11760	1.23e-05	1.3e-06
315	12750	1.66e-05	1.5e-06
315	13810	2.11e-05	1.7e-06
315	14840	2.55e-05	1.9e-06
315	15670	2.93e-05	2.1e-06
315	16750	3.36e-05	2.4e-06
315	17720	3.74e-05	2.6e-06
315	18720	4.14e-05	2.8e-06
320	10720	3.58e-06	1e-06
320	11760	8.29e-06	1.12e-06
320	12790	1.32e-05	1.3e-06
320	13720	1.78e-05	1.5e-06
320	13780	1.82e-05	1.6e-06
320	14700	2.26e-05	1.8e-06
320	15740	2.78e-05	2.1e-06
320	16490	3.12e-05	2.3e-06
320	16700	3.25e-05	2.3e-06
320	16830	3.28e-05	2.3e-06
320	16840	3.3e-05	2.4e-06
320	17710	3.75e-05	2.6e-06
320	18560	4.22e-05	2.9e-06
320	16700	3.25e-05	2.3e-06
325	11740	4.16e-06	9.6e-07
325	12800	9.07e-06	1.15e-06
325	13750	1.39e-05	1.4e-06
325	14720	1.95e-05	1.7e-06
325	15700	2.52e-05	1.9e-06
325	16720	3.1e-05	2.3e-06
325	17640	3.64e-05	2.6e-06
325	18790	4.31e-05	3e-06
330	11700	1.92e-06	8.9e-07
330	12740	5.44e-06	9.8e-07
330	13750	1.03e-05	1.2e-06
330	14690	1.57e-05	1.5e-06
330	15690	2.19e-05	1.8e-06
330	15710	2.22e-05	1.8e-06
330	16720	2.85e-05	2.2e-06
330	17680	3.54e-05	2.6e-06
330	18740	4.28e-05	2.9e-06
330	16720	2.88e-05	2.2e-06
335	12770	3.07e-06	9e-07
335	13750	6.8e-06	1.03e-06
335	14740	1.18e-05	1.3e-06
335	15660	1.76e-05	1.6e-06
335	16780	2.51e-05	2e-06
335	17740	3.23e-05	2.4e-06
335	18810	4.06e-05	2.9e-06
340	12700	1.85e-06	8.5e-07
340	13710	4.48e-06	9.2e-07
340	14700	8.56e-06	1.12e-06
340	15650	1.42e-05	1.4e-06
340	16700	2.14e-05	1.8e-06
340	17730	2.95e-05	2.3e-06
340	18690	3.77e-05	2.7e-06
345	13790	2.97e-06	9e-07
345	14770	6.31e-06	9.9e-07
345	15710	1.1e-05	1.3e-06
345	16770	1.77e-05	1.6e-06
345	17770	2.56e-05	2.1e-06
345	18790	3.45e-05	2.6e-06

System: carbon dioxide + 1,4-bis(ethylamino)-9,10-anthracenedione; phases: Fluid (supercritical or subcritical phases), Crystal
Property: Amount concentration (molarity), mol/dm3 of 1,4-bis(ethylamino)-9,10-anthracenedione (Fluid (supercritical or subcritical phases)); method: SPECTR
Temperature, K	Pressure, kPa	Amount concentration (molarity), mol/dm3 of 1,4-bis(ethylamino)-9,10-anthracenedione	uncertainty
299.3	7720	8.62e-06	1.07e-06
299.3	8780	1.16e-05	1.2e-06
299.3	9790	1.41e-05	1.3e-06
299.3	10740	1.63e-05	1.4e-06
299.3	11750	1.86e-05	1.5e-06
299.3	12810	2.08e-05	1.6e-06
299.3	13720	2.29e-05	1.7e-06
299.3	14710	2.48e-05	1.8e-06
299.3	15700	2.69e-05	2e-06
299.3	16740	2.89e-05	2.1e-06
299.3	17700	3.08e-05	2.2e-06
299.3	18690	3.26e-05	2.3e-06
305	7690	3.83e-06	9.9e-07
305	7700	3.49e-06	1.01e-06
305	8810	8.64e-06	1.1e-06
305	9810	1.17e-05	1.2e-06
305	10790	1.49e-05	1.3e-06
305	11710	1.75e-05	1.5e-06
305	12630	2.06e-05	1.6e-06
305	13520	2.3e-05	1.8e-06
305	14550	2.69e-05	2e-06
305	15520	2.89e-05	2.1e-06
305	16600	3.17e-05	2.2e-06
305	17530	3.42e-05	2.4e-06
305	18560	3.7e-05	2.6e-06
305	18560	3.74e-05	2.6e-06
310	8660	2.65e-06	1.04e-06
310	9610	7.25e-06	1.08e-06
310	10800	1.22e-05	1.2e-06
310	11670	1.57e-05	1.4e-06
310	12700	1.95e-05	1.6e-06
310	13740	2.34e-05	1.8e-06
310	14200	2.55e-05	1.9e-06
310	14510	2.69e-05	2e-06
310	14690	2.73e-05	2e-06
310	15500	2.98e-05	2.1e-06
310	16590	3.35e-05	2.4e-06
310	17580	3.71e-05	2.6e-06
310	18140	3.94e-05	2.7e-06
310	18540	4.03e-05	2.8e-06
315	9760	3.25e-06	1.03e-06
315	10740	8e-06	1.12e-06
315	11700	1.26e-05	1.3e-06
315	12750	1.75e-05	1.5e-06
315	13700	2.19e-05	1.7e-06
315	14770	2.7e-05	2e-06
315	15740	3.11e-05	2.2e-06
315	16720	3.55e-05	2.5e-06
315	17740	3.99e-05	2.7e-06
315	18660	4.39e-05	3e-06
320	10740	3.55e-06	9.5e-07
320	11610	7.59e-06	1.11e-06
320	12720	1.33e-05	1.3e-06
320	13690	1.84e-05	1.6e-06
320	14590	2.38e-05	1.9e-06
320	14600	2.4e-05	1.9e-06
320	15690	2.96e-05	2.2e-06
320	16680	3.48e-05	2.5e-06
320	17640	4.01e-05	2.8e-06
320	18590	4.52e-05	3.1e-06
325	10700	1.03e-06	8.7e-07
325	11710	4.19e-06	9.6e-07
325	12720	9.11e-06	1.17e-06
325	13790	1.52e-05	1.5e-06
325	14740	2.12e-05	1.8e-06
325	15700	2.74e-05	2.1e-06
325	16730	3.4e-05	2.5e-06
325	17740	4.06e-05	2.8e-06
325	18750	4.72e-05	3.2e-06
330	11800	2.1e-06	8.8e-07
330	12830	6e-06	1e-06
330	13600	1e-05	1.2e-06
330	14610	1.63e-05	1.5e-06
330	15450	2.25e-05	1.9e-06
330	15480	2.25e-05	1.9e-06
330	16590	3.03e-05	2.3e-06
330	17630	3.84e-05	2.7e-06
330	18680	4.68e-05	3.2e-06
335	11750	9.6e-07	8.2e-07
335	12790	3.25e-06	8.9e-07
335	13700	6.91e-06	1.06e-06
335	14750	1.3e-05	1.4e-06
335	15750	2e-05	1.8e-06
335	16690	2.74e-05	2.2e-06
335	17710	3.61e-05	2.6e-06
335	18730	4.49e-05	3.1e-06
340	12650	1.7e-06	8.4e-07
340	13590	4.18e-06	9.3e-07
340	14650	9.23e-06	1.17e-06
340	15730	1.61e-05	1.5e-06
340	16600	2.31e-05	2e-06
340	17690	3.27e-05	2.5e-06
340	18630	4.22e-05	3e-06
346	12600	1.13e-06	8.1e-07
346	13590	2.74e-06	8.5e-07
346	14560	5.88e-06	9.7e-07
346	15620	1.11e-05	1.3e-06
346	16650	1.86e-05	1.7e-06
346	17690	2.79e-05	2.2e-06
346	18690	3.81e-05	2.8e-06

System: carbon dioxide + 1,4-bis(butylamino)anthracene-9,10-dione; phases: Fluid (supercritical or subcritical phases), Crystal
Property: Amount concentration (molarity), mol/dm3 of 1,4-bis(butylamino)anthracene-9,10-dione (Fluid (supercritical or subcritical phases)); method: SPECTR
Temperature, K	Pressure, kPa	Amount concentration (molarity), mol/dm3 of 1,4-bis(butylamino)anthracene-9,10-dione	uncertainty
305	7610	1.57e-05	5.6e-06
305	7660	1.83e-05	5.5e-06
305	8110	3.59e-05	5.2e-06
305	8820	5.56e-05	5.2e-06
305	9910	8.26e-05	5.8e-06
305	11000	0.0001088	7.3e-06
305	11010	0.0001088	7.3e-06
305	11960	0.0001297	8.7e-06
305	12940	0.0001507	1.02e-05
305	14000	0.0001733	1.18e-05
305	14040	0.0001742	1.19e-05
305	14940	0.0001917	1.33e-05
305	16070	0.0002141	1.37e-05
305	17040	0.0002389	1.53e-05
305	18040	0.0002579	1.66e-05
305	19060	0.0002809	1.82e-05
310	8620	1.51e-05	5.1e-06
310	9110	3.29e-05	5.6e-06
310	9780	5.55e-05	5.7e-06
310	10800	8.71e-05	5.9e-06
310	11810	0.0001184	7.6e-06
310	12750	0.0001463	1.04e-05
310	13700	0.0001716	1.09e-05
310	14700	0.0001999	1.32e-05
310	15170	0.0002179	1.66e-05
310	16170	0.0002427	1.55e-05
310	17130	0.000274	1.75e-05
310	18080	0.0003056	1.93e-05
310	19080	0.0003376	2.14e-05
310.1	8420	2.2e-06	7.3e-06
310.1	8720	1.34e-05	5.2e-06
310.1	8900	2.19e-05	5.9e-06
310.1	8970	2.55e-05	6.7e-06
310.1	9160	3.47e-05	5.6e-06
310.1	9500	4.88e-05	5.9e-06
310.1	9730	5.79e-05	5.6e-06
310.1	9970	7.37e-05	8e-06
310.1	10480	9.38e-05	7.1e-06
310.1	10990	0.0001145	1.02e-05
310.1	11530	0.0001352	9.2e-06
310.1	12010	0.0001536	1.25e-05
310.1	12590	0.0001758	1.13e-05
310.1	13040	0.0001922	1.48e-05
310.1	13540	0.0002105	1.4e-05
310.1	13610	0.0002127	1.44e-05
310.1	14020	0.0002262	1.68e-05
310.1	14540	0.0002444	1.6e-05
310.1	15070	0.0002622	1.92e-05
310.1	15570	0.0002774	1.8e-05
310.1	16100	0.0002936	1.86e-05
310.1	16650	0.0003096	1.96e-05
310.1	17130	0.0003226	2.05e-05
310.1	17650	0.0003361	2.12e-05
310.1	18260	0.0003508	3.25e-05
315	9260	6.41e-06	1.82e-06
315	9440	1.1e-05	3.6e-06
315	9820	2.28e-05	4.5e-06
315	10380	4.29e-05	5.5e-06
315	10400	4.26e-05	5.6e-06
315	10960	6.34e-05	6.4e-06
315	11460	8.1e-05	7.2e-06
315	12000	0.0001015	7.9e-06
315	12010	0.0001016	7.9e-06
315	13100	0.0001406	1.01e-05
315	14000	0.000174	1.16e-05
315	15000	0.0002091	1.36e-05
315	16100	0.0002531	1.64e-05
315	17140	0.0002978	1.91e-05
315	18040	0.0003377	2.16e-05
315	18940	0.0003756	2.4e-05
320	9480	1.2e-06	1.5e-06
320	9960	5.89e-06	1.74e-06
320	9980	4.7e-06	1.7e-06
320	10000	4.2e-06	1.7e-06
320	10270	9.2e-06	4.4e-06
320	10500	1.74e-05	2.1e-06
320	10700	2.07e-05	5.7e-06
320	10950	3.19e-05	4.5e-06
320	10960	3.2e-05	4.5e-06
320	11040	3.37e-05	4.4e-06
320	11290	4.43e-05	6.1e-06
320	11520	5.47e-05	5.8e-06
320	11550	5.37e-05	5.7e-06
320	12030	7.81e-05	6.9e-06
320	12150	7.72e-05	8.3e-06
320	12490	0.0001027	8.2e-06
320	12540	0.0001055	8.5e-06
320	13100	0.000118	9.6e-06
320	13130	0.0001357	1.07e-05
320	13350	0.0001589	1.37e-05
320	13580	0.0001583	1.04e-05
320	14000	0.0001827	1.16e-05
320	14140	0.0001636	1.38e-05
320	14500	0.0002063	1.57e-05
320	14530	0.0002229	1.46e-05
320	14550	0.0001821	1.27e-05
320	14950	0.000227	1.64e-05
320	15080	0.0002535	1.98e-05
320	15100	0.0002062	1.81e-05
320	15560	0.0002784	1.82e-05
320	16050	0.0003043	1.93e-05
320	16110	0.0002584	1.66e-05
320	16190	0.0002627	2.06e-05
320	16510	0.0003252	2.3e-05
320	17070	0.0003505	4.2e-05
320	17180	0.0003191	4.11e-05
320	18190	0.0003777	2.42e-05
320	18870	0.0004164	2.62e-05
320	10500	1.49e-05	1.9e-06
330	11330	7.1e-06	2.16e-06
330	11860	1.54e-05	3.6e-06
330	12350	2.72e-05	1.09e-05
330	12930	4.64e-05	6.1e-06
330	13620	7.55e-05	7.2e-06
330	14150	0.0001029	9.2e-06
330	15050	0.0001519	1.14e-05
330	15640	0.0001876	1.41e-05
330	16140	0.0002187	1.78e-05
330	17140	0.0002982	2.21e-05
330	18060	0.0003812	2.48e-05
330	18590	0.0004286	2.71e-05
330.1	10400	1.1e-06	1.1e-06
330.1	10910	2.8e-06	1.5e-06
330.1	11400	6.3e-06	2.2e-06
330.1	11910	1.38e-05	3.4e-06
330.1	12240	2.09e-05	5.5e-06
330.1	12500	2.85e-05	3.6e-06
330.1	12970	4.76e-05	6.1e-06
330.1	13330	6.37e-05	7.8e-06
330.1	13670	8.11e-05	7.4e-06
330.1	14050	0.0001026	9.4e-06
330.1	14100	0.0001048	9e-06
330.1	14250	0.0001152	1.03e-05
330.1	14590	0.0001373	1.11e-05
330.1	14960	0.0001599	1.24e-05
330.1	15460	0.0001951	1.48e-05
330.1	15540	0.0002028	1.56e-05
330.1	15980	0.0002306	1.66e-05
330.1	16010	0.0002375	1.71e-05
330.1	16460	0.0002632	1.89e-05
330.1	16560	0.0002788	1.99e-05
330.1	16970	0.0002947	1.89e-05
330.1	17080	0.0003146	2.45e-05
330.1	17570	0.0003477	2.39e-05
340	11970	4.88e-06	1.08e-06
340	12550	9.86e-06	1.75e-06
340	13020	1.66e-05	2.4e-06
340	13540	2.74e-05	3.6e-06
340	14050	4.27e-05	5.4e-06
340	14600	6.41e-05	6.7e-06
340	15200	9.15e-05	9.5e-06
340	15990	0.0001428	1.16e-05
340	17000	0.0002179	1.6e-05
340	18090	0.0003328	2.36e-05
340	18860	0.0004271	2.92e-05
340	15200	9.57e-05	9.4e-06
340.1	11970	4.2e-06	1.2e-06
340.1	12440	7.4e-06	2.4e-06
340.1	12990	1.41e-05	2.3e-06
340.1	13490	2.36e-05	3.2e-06
340.1	13920	3.52e-05	4.5e-06
340.1	14530	5.9e-05	6.5e-06
340.1	15070	8.63e-05	7.9e-06
340.1	15580	0.0001205	1.06e-05
340.1	16100	0.0001569	1.73e-05
340.1	16600	0.0001983	1.46e-05
340.1	17160	0.0002468	1.92e-05
340.1	17620	0.0002885	2.06e-05
340.1	17800	0.0003114	2.15e-05

System: carbon dioxide + C.I. 61555; phases: Fluid (supercritical or subcritical phases), Crystal
Property: Amount concentration (molarity), mol/dm3 of C.I. 61555 (Fluid (supercritical or subcritical phases)); method: SPECTR
Temperature, K	Pressure, kPa	Amount concentration (molarity), mol/dm3 of C.I. 61555	uncertainty
299	6560	3.97e-05	5.1e-06
299	6660	4.45e-05	5.1e-06
299	7760	7.29e-05	6.2e-06
299	8720	9.61e-05	6.9e-06
299	9760	0.0001193	8e-06
299	10720	0.0001396	9.1e-06
299	11690	0.0001603	1.03e-05
299	12720	0.0001807	1.15e-05
299	13740	0.0002016	1.28e-05
299	14700	0.0002198	1.4e-05
299	15780	0.0002443	1.56e-05
299	16740	0.0002641	1.69e-05
299	17740	0.0002853	1.83e-05
299	18740	0.0003031	1.95e-05
305	7750	2.33e-05	5.6e-06
305	8700	6.25e-05	6.2e-06
305	9610	9.35e-05	7e-06
305	9630	9.45e-05	7.1e-06
305	10700	0.0001277	8.7e-06
305	11750	0.0001594	1.05e-05
305	12720	0.0001876	1.21e-05
305	13700	0.0002147	1.38e-05
305	14720	0.0002483	1.59e-05
305	14740	0.00025	1.6e-05
305	15700	0.0002798	1.79e-05
305	16640	0.0003101	1.98e-05
305	17640	0.0003404	2.18e-05
305	18690	0.000371	2.38e-05
310	8450	7.27e-06	5.85e-06
310	8510	9.72e-06	6.05e-06
310	8640	1.6e-05	6.1e-06
310	8650	1.81e-05	6.5e-06
310	8750	2.14e-05	6.2e-06
310	8760	2.31e-05	5.9e-06
310	9210	4.31e-05	5.9e-06
310	9710	6.42e-05	6.5e-06
310	9760	6.78e-05	6.6e-06
310	10230	8.49e-05	6.8e-06
310	10550	9.67e-05	7.8e-06
310	11200	0.0001237	9.4e-06
310	11710	0.0001424	1.01e-05
310	12120	0.0001606	1.15e-05
310	12600	0.000179	1.19e-05
310	13110	0.0001982	1.33e-05
310	13710	0.0002208	1.45e-05
310	14300	0.0002475	1.57e-05
310	14750	0.0002697	1.76e-05
310	15440	0.000301	1.9e-05
310	15750	0.0003151	2.03e-05
310	16240	0.0003344	2.1e-05
310	16770	0.0003594	2.29e-05
310	17240	0.0003809	2.39e-05
310	17790	0.0004028	2.55e-05
310	18280	0.0004184	2.67e-05
310	18750	0.0004392	2.81e-05
320	10260	1.12e-05	4.3e-06
320	10700	2.42e-05	5.1e-06
320	11200	4.37e-05	5.7e-06
320	11590	6.13e-05	6.7e-06
320	11690	6.65e-05	6.9e-06
320	12210	9.13e-05	8.2e-06
320	12700	0.0001181	9.6e-06
320	13200	0.0001435	1.11e-05
320	13690	0.000173	1.27e-05
320	14700	0.0002292	1.58e-05
320	15680	0.0002997	2.01e-05
320	15690	0.0002998	2.01e-05
320	16720	0.0003738	2.41e-05
320	17190	0.0004059	2.62e-05
320	17690	0.0004391	2.73e-05
330	11150	4.34e-06	2.15e-06
330	11660	1.06e-05	3e-06
330	12200	2.25e-05	3.7e-06
330	12690	3.8e-05	4.8e-06
330	13170	5.82e-05	7.1e-06
330	13700	8.46e-05	8.1e-06
330	14220	0.0001152	1.02e-05
330	14700	0.0001458	1.18e-05
330	15170	0.0001794	1.37e-05
330	15650	0.0002125	1.58e-05
330	16230	0.0002623	1.82e-05
330	16640	0.0003018	2.14e-05
330	17050	0.0003443	2.44e-05
330	17650	0.0004023	2.66e-05
330	18040	0.0004381	2.75e-05
340	12200	4.37e-06	1.43e-06
340	12610	8.07e-06	2.15e-06
340	13640	2.66e-05	3.8e-06
340	14610	6.12e-05	6.8e-06
340	15690	0.0001212	1.05e-05
340	15790	0.0001157	1.03e-05
340	16640	0.0001889	1.57e-05
340	17630	0.0002868	2.12e-05
340	18390	0.0003739	2.64e-05
340	18690	0.0004144	2.94e-05

System: carbon dioxide + 1,4-bis(isopropylamino)anthraquinone; phases: Fluid (supercritical or subcritical phases), Crystal
Property: Amount concentration (molarity), mol/dm3 of 1,4-bis(isopropylamino)anthraquinone (Fluid (supercritical or subcritical phases)); method: SPECTR
Temperature, K	Pressure, kPa	Amount concentration (molarity), mol/dm3 of 1,4-bis(isopropylamino)anthraquinone	uncertainty
305	7910	5.5e-05	8.2e-06
305	8860	0.0001026	9.2e-06
305	10260	0.0001575	1.09e-05
305	11360	0.0001968	1.29e-05
305	12390	0.000227	1.46e-05
305	13840	0.0002798	1.78e-05
305	15330	0.0003321	2.1e-05
305	16340	0.0003665	2.31e-05
305	17710	0.0004073	2.56e-05
310	8360	9.94e-06	9.54e-06
310	8610	2.79e-05	8.4e-06
310	9270	7.03e-05	8.3e-06
310	10110	0.0001131	9.5e-06
310	10160	0.0001182	9.8e-06
310	11100	0.0001637	1.19e-05
310	11760	0.0001926	1.31e-05
310	12590	0.0002257	1.48e-05
310	13170	0.0002538	1.67e-05
310	14200	0.000301	1.94e-05
310	14220	0.0003025	1.94e-05
310	15240	0.0003475	2.21e-05
310	16170	0.0003902	2.46e-05
310	16830	0.0004177	2.63e-05
315	9160	9.33e-06	6.4e-06
315	9530	2.58e-05	6e-06
315	10010	5.28e-05	7.7e-06
315	11030	0.0001102	9.8e-06
315	12100	0.0001695	1.24e-05
315	13100	0.0002191	1.49e-05
315	14050	0.0002708	1.79e-05
315	15050	0.0003275	2.11e-05
315	16090	0.0003845	2.45e-05
315	16570	0.0004094	2.59e-05
320	9710	6.1e-06	3.49e-06
320	10210	1.98e-05	5.4e-06
320	11110	6.47e-05	7.2e-06
320	12100	0.0001238	1.05e-05
320	13300	0.0001962	1.42e-05
320	14200	0.0002521	1.74e-05
320	15330	0.0003278	2.18e-05
320	16420	0.0004078	2.6e-05
330	10850	5.72e-06	2.9e-06
330	11550	1.76e-05	3.2e-06
330	12120	3.73e-05	4.6e-06
330	12500	5.36e-05	5.9e-06
330	13390	0.0001023	9.4e-06
330	14050	0.0001482	1.19e-05
330	14200	0.000158	1.24e-05
330	15190	0.0002311	1.7e-05
330	16220	0.0003251	2.25e-05
330	17100	0.0004122	2.76e-05
340	11880	7.72e-06	2.07e-06
340	12500	1.72e-05	2.8e-06
340	13250	3.57e-05	4.7e-06
340	14050	6.88e-05	7.5e-06
340	15100	0.0001318	1.15e-05
340	16290	0.0002296	1.77e-05
340	17350	0.0003498	2.48e-05

System: carbon dioxide + 1,4-bis-(octylamino)-9,10-anthraquinone; phases: Fluid (supercritical or subcritical phases), Crystal
Property: Amount concentration (molarity), mol/dm3 of 1,4-bis-(octylamino)-9,10-anthraquinone (Fluid (supercritical or subcritical phases)); method: SPECTR
Temperature, K	Pressure, kPa	Amount concentration (molarity), mol/dm3 of 1,4-bis-(octylamino)-9,10-anthraquinone	uncertainty
310.1	9040	7.9e-06	2e-06
310.1	9540	1.64e-05	2.5e-06
310.1	9550	1.62e-05	2.5e-06
310.1	10010	2.55e-05	2.7e-06
310.1	10030	2.41e-05	2.6e-06
310.1	10570	3.3e-05	3e-06
310.1	11060	4.02e-05	3.3e-06
310.1	11500	4.74e-05	3.8e-06
310.1	11600	5.1e-05	3.6e-06
310.1	12060	5.71e-05	4.2e-06
310.1	12590	6.58e-05	4.8e-06
310.1	13070	7.7e-05	5.4e-06
310.1	13560	8.6e-05	5.8e-06
310.1	14070	9.53e-05	6.5e-06
310.1	14600	0.0001046	7e-06
310.1	15080	0.0001134	7.5e-06
310.1	15570	0.0001222	8e-06
310.1	16010	0.0001296	8.4e-06
310.1	16440	0.0001377	8.9e-06
310.1	16980	0.0001468	9.5e-06
310.1	17480	0.0001557	1.01e-05
310.1	18020	0.0001655	1.08e-05
310.1	18510	0.0001741	1.13e-05
310.1	19030	0.000183	1.2e-05
310.1	19580	0.0001924	1.27e-05
310.1	9040	8.1e-06	2e-06
310.1	10030	2.46e-05	2.6e-06
310.1	11600	5.14e-05	3.6e-06
310.3	8530	9e-07	1.7e-06
310.3	9120	8.8e-06	2e-06
310.3	9590	1.61e-05	2.5e-06
310.3	10130	2.47e-05	2.5e-06
310.3	10640	3.28e-05	3e-06
310.3	11080	4.01e-05	3.3e-06
310.3	11610	4.94e-05	4.2e-06
310.3	11710	5.05e-05	3.8e-06
310.3	12110	5.81e-05	4.3e-06
310.3	12650	6.73e-05	4.9e-06
310.3	13200	7.73e-05	5.4e-06
310.3	13680	8.56e-05	5.9e-06
310.3	13720	8.51e-05	5.8e-06
310.3	14200	9.49e-05	6.3e-06
310.3	14690	0.0001039	6.9e-06
310.3	15230	0.0001141	7.5e-06
310.3	15740	0.0001231	8e-06
310.3	16180	0.0001314	8.6e-06
310.3	16700	0.0001405	9.1e-06
310.3	16710	0.0001406	9.1e-06
310.3	17310	0.0001519	9.9e-06
310.3	17340	0.0001516	9.8e-06
310.3	17790	0.0001599	1.04e-05
310.3	18290	0.0001688	1.1e-05
310.3	18820	0.0001781	1.16e-05
310.3	19350	0.0001879	1.23e-05
320	10010	1.6e-06	1.8e-06
320	10110	1.5e-06	1.9e-06
320	10470	3.7e-06	1.7e-06
320	10540	6.2e-06	1.6e-06
320	11040	1.1e-05	2e-06
320	11090	1.51e-05	2.1e-06
320	11510	2.04e-05	2.5e-06
320	11620	2.15e-05	2e-06
320	12060	3.11e-05	3.3e-06
320	12110	3.2e-05	3.3e-06
320	12440	3.93e-05	3.8e-06
320	12470	4.14e-05	3.9e-06
320	12530	4.29e-05	3.9e-06
320	12970	5.45e-05	4.5e-06
320	13010	5.5e-05	4.4e-06
320	13500	6.96e-05	5.1e-06
320	13550	6.98e-05	5.1e-06
320	13920	7.98e-05	6.3e-06
320	14020	8.43e-05	6.2e-06
320	14050	8.71e-05	7e-06
320	14520	9.98e-05	6.9e-06
320	14530	0.0001021	7.1e-06
320	14540	0.0001008	7e-06
320	15020	0.0001156	7.9e-06
320	15030	0.0001174	8.1e-06
320	15580	0.000136	9e-06
320	16020	0.0001489	9.5e-06
320	16140	0.0001555	1.15e-05
320	16480	0.0001647	1.04e-05
320	16630	0.0001728	1.18e-05
320	16950	0.0001806	1.18e-05
320	16990	0.0001828	1.2e-05
320	17160	0.0001918	1.24e-05
320	17450	0.0001992	1.28e-05
320	17650	0.0002094	1.35e-05
320	17950	0.0002164	1.4e-05
320	18130	0.0002268	1.47e-05
320	18530	0.0002371	1.54e-05
320	18680	0.000246	1.64e-05
320	19110	0.0002611	1.68e-05
320	19190	0.00026	1.67e-05
320	19980	0.0002863	1.81e-05
329.9	10600	6e-07	8e-07
329.9	11000	1e-06	1e-06
329.9	11510	2.9e-06	1e-06
329.9	12090	7.3e-06	1.5e-06
329.9	12660	1.57e-05	1.7e-06
329.9	13200	2.5e-05	2.5e-06
329.9	13690	3.73e-05	3.6e-06
329.9	13910	4.42e-05	4.4e-06
329.9	14480	6.33e-05	5.5e-06
329.9	15010	8.51e-05	7.3e-06
329.9	15560	0.0001097	8.4e-06
329.9	15930	0.0001272	8.6e-06
329.9	16540	0.0001594	1.18e-05
329.9	17130	0.0001927	1.33e-05
329.9	17630	0.0002216	1.51e-05
329.9	18090	0.0002486	1.62e-05
329.9	18500	0.0002722	1.91e-05
329.9	19010	0.0003009	1.99e-05
330	11530	2e-06	1e-06
330	12050	5.5e-06	1.4e-06
330	12490	1.01e-05	2.5e-06
330	13010	1.86e-05	2.7e-06
330	13560	3.17e-05	3.7e-06
330	14050	4.6e-05	4.8e-06
330	14590	6.55e-05	6.4e-06
330	15070	8.55e-05	7.3e-06
330	15570	0.0001086	8.3e-06
330	16110	0.0001433	1.11e-05
330	16170	0.0001446	1.1e-05
330	16550	0.0001646	1.21e-05
330	17050	0.0001924	1.35e-05
330	17620	0.0002252	1.53e-05
330	18080	0.0002523	1.64e-05
330	18650	0.0002861	1.82e-05
330	12490	1.02e-05	2.5e-06
340.1	11620	6e-07	8e-07
340.1	12050	7e-07	8e-07
340.1	12120	1.1e-06	8e-07
340.1	12660	2e-06	9e-07
340.1	12690	2e-06	9e-07
340.1	12700	2.5e-06	9e-07
340.1	13020	4.1e-06	1.1e-06
340.1	13140	3.9e-06	1.3e-06
340.1	13520	7.6e-06	1.7e-06
340.1	13610	7.5e-06	1.7e-06
340.1	14110	1.44e-05	2.3e-06
340.1	14140	1.35e-05	2.3e-06
340.1	14590	2.24e-05	3.1e-06
340.1	14670	2.24e-05	3.1e-06
340.1	15110	3.29e-05	4.2e-06
340.1	15130	3.47e-05	4.2e-06
340.1	15150	3.19e-05	4.2e-06
340.1	15190	3.46e-05	4.2e-06
340.1	15630	4.93e-05	5.1e-06
340.1	15650	4.68e-05	5.1e-06
340.1	16110	6.31e-05	6.5e-06
340.1	16190	7.09e-05	6.8e-06
340.1	16610	8.46e-05	7.6e-06
340.1	16660	9.11e-05	7.8e-06
340.1	17110	0.0001093	8.9e-06
340.1	17230	0.0001175	9.9e-06
340.1	17640	0.000139	1.1e-05
340.1	17720	0.0001439	1.12e-05
340.1	18160	0.0001702	1.3e-05
340.1	18190	0.0001733	1.31e-05
340.1	18820	0.0002156	1.54e-05
340.1	18870	0.000218	1.56e-05
340.1	19480	0.0002611	1.8e-05
340.1	19640	0.0002736	1.9e-05
340.1	19680	0.0002751	1.87e-05
