Measured thermophysical data. PVT Property Measurements for Ethyl Propionate, Ethyl Butyrate, and Ethyl Pentanoate Esters from (298 to 393) K and up to 35 MPa
Source: J. Chem. Eng. Data, 2009, 10.1021/je800251v
Compound 1: ethyl propanoate, C5H10O2, InChI=1S/C5H10O2/c1-3-5(6)7-4-2/h3-4H2,1-2H3, purity 99%
Compound 2: ethyl butanoate, C6H12O2, InChI=1S/C6H12O2/c1-3-5-6(7)8-4-2/h3-5H2,1-2H3, purity 99%
Compound 3: ethyl pentanoate, C7H14O2, InChI=1S/C7H14O2/c1-3-5-6-7(8)9-4-2/h3-6H2,1-2H3, purity 99%

System: ethyl propanoate; phases: Liquid
Property: Mass density, kg/m3 (Liquid); method: VIBTUB:UFactor:6
Pressure, kPa	Temperature, K	Mass density, kg/m3	uncertainty
100	298.15	884.3	0.8
100	303.15	878.5	0.8
100	308.15	872.7	0.8
100	313.15	866.8	0.8
100	318.15	860.9	0.9
100	323.15	854.9	0.9
100	328.15	849.2	0.9
100	333.15	843.1	0.9
100	338.15	836.9	0.9
100	343.15	831.1	0.9
100	348.15	824.9	0.9
100	353.15	818.7	1
100	363.15	803.5	1
100	373.15	790.9	1
1000	298.15	884.8	0.8
1000	303.15	879	0.8
1000	308.15	873.2	0.9
1000	313.15	867.4	0.9
1000	318.15	861.5	0.9
1000	323.15	856	0.9
1000	328.15	850.2	0.9
1000	333.15	844.2	0.9
1000	338.15	838.2	1
1000	343.15	832.2	1
1000	348.15	826	1
1000	353.15	819.9	1
1000	363.15	805.1	1.1
1000	373.15	792.6	1.1
1000	383.15	780	1.1
1000	393.15	766.4	1.2
2000	298.15	885.7	0.9
2000	303.15	880	0.9
2000	308.15	874.2	0.9
2000	313.15	868.4	0.9
2000	318.15	862.6	0.9
2000	323.15	857.1	0.9
2000	328.15	851.3	1
2000	333.15	845.4	1
2000	338.15	839.5	1
2000	343.15	833.5	1
2000	348.15	827.4	1
2000	353.15	821.3	1.1
2000	363.15	806.9	1.1
2000	373.15	794.5	1.2
2000	383.15	782.1	1.2
2000	393.15	768.7	1.2
3000	298.15	886.6	0.9
3000	303.15	880.9	0.9
3000	308.15	875.2	0.9
3000	313.15	869.4	0.9
3000	318.15	863.7	1
3000	323.15	858.1	1
3000	328.15	852.5	1
3000	333.15	846.6	1
3000	338.15	840.7	1
3000	343.15	834.8	1.1
3000	348.15	828.8	1.1
3000	353.15	822.7	1.1
3000	363.15	808.7	1.2
3000	373.15	796.4	1.2
3000	383.15	784.1	1.3
3000	393.15	770.8	1.3
3340	298.15	886.9	0.9
3340	303.15	881.2	0.9
3340	308.15	875.5	0.9
3340	313.15	869.8	1
3340	318.15	864.1	1
3340	323.15	858.4	1
3340	328.15	852.9	1
3340	333.15	847	1
3340	338.15	841.1	1.1
3340	343.15	835.2	1.1
3340	348.15	829.3	1.1
3340	353.15	823.2	1.1
3340	363.15	809.3	1.2
3340	373.15	797.1	1.2
3340	383.15	784.8	1.3
3340	393.15	771.5	1.3
5000	298.15	888.7	0.9
5000	303.15	883	1
5000	308.15	877.4	1
5000	313.15	871.7	1
5000	318.15	866.1	1
5000	323.15	860.3	1.1
5000	328.15	854.7	1.1
5000	333.15	849	1.1
5000	338.15	843.1	1.1
5000	343.15	837.4	1.2
5000	348.15	831.5	1.2
5000	353.15	825.6	1.2
5000	363.15	812	1.3
5000	373.15	800	1.3
5000	383.15	787.9	1.4
5000	393.15	775	1.4
10000	298.15	892.9	1.1
10000	303.15	887.4	1.1
10000	308.15	882	1.1
10000	313.15	876.5	1.2
10000	318.15	871	1.2
10000	323.15	865.4	1.2
10000	328.15	860	1.3
10000	333.15	854.6	1.3
10000	338.15	848.8	1.3
10000	343.15	843.4	1.4
10000	348.15	837.7	1.4
10000	353.15	832.1	1.4
10000	363.15	819.6	1.5
10000	373.15	808.2	1.6
10000	383.15	796.6	1.6
10000	393.15	784.5	1.7
15000	298.15	896.9	1.2
15000	303.15	891.6	1.3
15000	308.15	886.3	1.3
15000	313.15	880.9	1.3
15000	318.15	875.6	1.4
15000	323.15	870.2	1.4
15000	328.15	865	1.4
15000	333.15	859.7	1.5
15000	338.15	854.4	1.5
15000	343.15	848.9	1.6
15000	348.15	843.4	1.6
15000	353.15	838	1.6
15000	363.15	826.5	1.7
15000	373.15	815.6	1.8
15000	383.15	804.6	1.9
15000	393.15	793.1	2
20000	298.15	900.7	1.3
20000	303.15	895.6	1.4
20000	308.15	890.4	1.4
20000	313.15	885.1	1.5
20000	318.15	880	1.5
20000	323.15	874.7	1.6
20000	328.15	869.6	1.6
20000	333.15	864.5	1.7
20000	338.15	859.4	1.7
20000	343.15	854	1.7
20000	348.15	848.8	1.8
20000	353.15	843.5	1.8
20000	363.15	833	1.9
20000	373.15	822.5	2
20000	383.15	811.9	2.1
20000	393.15	800.8	2.2
25000	298.15	904.4	1.5
25000	303.15	899.4	1.5
25000	308.15	894.3	1.6
25000	313.15	889.3	1.6
25000	318.15	884.1	1.7
25000	323.15	879.1	1.7
25000	328.15	874	1.8
25000	333.15	869.2	1.8
25000	338.15	863.6	1.9
25000	343.15	859.1	1.9
25000	348.15	854	2
25000	353.15	848.9	2
25000	363.15	839.1	2.1
25000	373.15	829	2.2
25000	383.15	818.7	2.3
25000	393.15	808	2.4
30000	298.15	908.9	1.5
30000	303.15	904	1.6
30000	308.15	899.2	1.7
30000	313.15	894.4	1.7
30000	318.15	889.1	1.8
30000	323.15	884.3	1.8
30000	328.15	879.4	1.9
30000	333.15	874.8	1.9
30000	338.15	869.9	2
30000	343.15	865	2.1
30000	348.15	860.1	2.1
30000	353.15	855.3	2.2
30000	363.15	844.8	2.3
30000	373.15	834.9	2.4
30000	383.15	825	2.5
30000	393.15	814.7	2.6
35000	298.15	913.6	1.6
35000	303.15	908.9	1.7
35000	308.15	904.2	1.7
35000	313.15	899.5	1.8
35000	318.15	894.3	1.9
35000	323.15	889.7	1.9
35000	328.15	884.9	2
35000	333.15	880.6	2.1
35000	338.15	875.8	2.1
35000	343.15	871	2.2
35000	348.15	866.3	2.2
35000	353.15	861.6	2.3
35000	363.15	850.2	2.5
35000	373.15	840.6	2.6
35000	383.15	830.9	2.7
35000	393.15	820.9	2.8

System: ethyl butanoate; phases: Liquid
Property: Mass density, kg/m3 (Liquid); method: VIBTUB:UFactor:6
Pressure, kPa	Temperature, K	Mass density, kg/m3	uncertainty
100	298.15	873.3	0.8
100	303.15	868.1	0.8
100	308.15	862.6	0.8
100	313.15	857.3	0.9
100	318.15	851.9	0.9
100	323.15	846.7	0.9
100	328.15	841.4	0.9
100	333.15	835.8	0.9
100	338.15	830.3	0.9
100	343.15	824.8	1
100	348.15	819.1	1
100	353.15	813.5	1
100	363.15	799.9	1
100	373.15	788.5	1.1
100	383.15	776.9	1.1
100	393.15	765.1	1.1
1000	298.15	874.1	0.9
1000	303.15	868.9	0.9
1000	308.15	863.5	0.9
1000	313.15	858.2	0.9
1000	318.15	852.8	0.9
1000	323.15	847.4	0.9
1000	328.15	842	0.9
1000	333.15	837	1
1000	338.15	831.5	1
1000	343.15	825.9	1
1000	348.15	820.3	1
1000	353.15	814.7	1
1000	363.15	801.4	1.1
1000	373.15	790.1	1.1
1000	383.15	778.6	1.1
1000	393.15	766.9	1.2
2000	298.15	875	0.9
2000	303.15	869.8	0.9
2000	308.15	864.4	0.9
2000	313.15	859.1	0.9
2000	318.15	853.8	1
2000	323.15	848.4	1
2000	328.15	843.3	1
2000	333.15	838.1	1
2000	338.15	832.6	1
2000	343.15	827.1	1
2000	348.15	821.6	1.1
2000	353.15	816.1	1.1
2000	363.15	803	1.1
2000	373.15	791.7	1.2
2000	383.15	780.4	1.2
2000	393.15	768.8	1.2
3000	298.15	875.9	0.9
3000	303.15	870.7	0.9
3000	308.15	865.3	1
3000	313.15	860.1	1
3000	318.15	854.8	1
3000	323.15	849.5	1
3000	328.15	844.5	1
3000	333.15	839.2	1.1
3000	338.15	833.8	1.1
3000	343.15	828.3	1.1
3000	348.15	822.9	1.1
3000	353.15	817.4	1.2
3000	363.15	804.5	1.2
3000	373.15	793.4	1.2
3000	383.15	782.2	1.3
3000	393.15	770.8	1.3
3100	298.15	876	0.9
3100	303.15	870.7	0.9
3100	308.15	865.4	1
3100	313.15	860.2	1
3100	318.15	854.9	1
3100	323.15	849.6	1
3100	328.15	844.6	1
3100	333.15	839.3	1.1
3100	338.15	833.9	1.1
3100	343.15	828.4	1.1
3100	348.15	823	1.1
3100	353.15	817.5	1.1
3100	363.15	804.7	1.3
3100	373.15	793.6	1.2
3100	383.15	782.4	1.3
3100	393.15	771	1.3
5000	298.15	877.5	1
5000	303.15	872.4	1
5000	308.15	867.1	1
5000	313.15	861.9	1.1
5000	318.15	856.7	1.1
5000	323.15	851.7	1.1
5000	328.15	846.6	1.1
5000	333.15	841.2	1.1
5000	338.15	835.9	1.2
5000	343.15	830.7	1.2
5000	348.15	825.1	1.2
5000	353.15	819.8	1.2
5000	363.15	807.9	1.3
5000	373.15	796.8	1.3
5000	383.15	785.5	1.4
5000	393.15	774.5	1.4
10000	298.15	881.5	1.2
10000	303.15	876.5	1.2
10000	308.15	871.4	1.2
10000	313.15	866.3	1.2
10000	318.15	861.3	1.3
10000	323.15	856.7	1.3
10000	328.15	851.5	1.3
10000	333.15	846.3	1.3
10000	338.15	841.2	1.4
10000	343.15	836.2	1.4
10000	348.15	830.9	1.4
10000	353.15	825.7	1.5
10000	363.15	814.4	1.5
10000	373.15	804	1.6
10000	383.15	793.5	1.7
10000	393.15	783.1	1.7
15000	298.15	885.3	1.3
15000	303.15	880.4	1.3
15000	308.15	875.5	1.4
15000	313.15	870.5	1.4
15000	318.15	865.8	1.4
15000	323.15	861.1	1.5
15000	328.15	856.2	1.5
15000	333.15	851.1	1.5
15000	338.15	846.2	1.6
15000	343.15	841.4	1.6
15000	348.15	836.2	1.6
15000	353.15	831.2	1.7
15000	363.15	820.7	1.8
15000	373.15	810.8	1.8
15000	383.15	800.8	1.9
15000	393.15	790.9	2
20000	298.15	889	1.4
20000	303.15	884.1	1.5
20000	308.15	879.4	1.5
20000	313.15	874.5	1.6
20000	318.15	869.9	1.6
20000	323.15	865.4	1.6
20000	328.15	860.5	1.7
20000	333.15	855.6	1.7
20000	338.15	850.8	1.8
20000	343.15	846.1	1.8
20000	348.15	841.1	1.9
20000	353.15	836.3	1.9
20000	363.15	826.7	2
20000	373.15	817.2	2.1
20000	383.15	807.5	2.1
20000	393.15	798	2.2
25000	298.15	892.5	1.6
25000	303.15	887.8	1.6
25000	308.15	883.1	1.7
25000	313.15	878.4	1.7
25000	318.15	874.1	1.8
25000	323.15	869.4	1.8
25000	328.15	864.8	1.9
25000	333.15	860.1	1.9
25000	338.15	855.5	1.9
25000	343.15	850.1	2
25000	348.15	846	2
25000	353.15	841.4	2.1
25000	363.15	832.4	2.2
25000	373.15	823.1	2.3
25000	383.15	813.8	2.4
25000	393.15	804.6	2.5
30000	298.15	896.9	1.7
30000	303.15	892.3	1.7
30000	308.15	887.8	1.8
30000	313.15	883.2	1.8
30000	318.15	879	1.9
30000	323.15	874.5	1.9
30000	328.15	870	2
30000	333.15	865.4	2
30000	338.15	861	2.1
30000	343.15	855.7	2.2
30000	348.15	851.8	2.2
30000	353.15	847.4	2.3
30000	363.15	837.7	2.4
30000	373.15	828.7	2.5
30000	383.15	819.6	2.6
30000	393.15	810.7	2.7
35000	298.15	901.4	1.8
35000	303.15	896.9	1.8
35000	308.15	892.5	1.9
35000	313.15	888.1	2
35000	318.15	884.1	2
35000	323.15	879.7	2.1
35000	328.15	875.3	2.1
35000	333.15	870.8	2.2
35000	338.15	866.5	2.2
35000	343.15	861.8	2.3
35000	348.15	857.7	2.4
35000	353.15	853.4	2.4
35000	363.15	842.7	2.5
35000	373.15	834	2.7
35000	383.15	825.2	2.8
35000	393.15	816.6	2.9

System: ethyl pentanoate; phases: Liquid
Property: Mass density, kg/m3 (Liquid); method: VIBTUB:UFactor:6
Pressure, kPa	Temperature, K	Mass density, kg/m3	uncertainty
100	298.15	870.7	0.8
100	303.15	865.5	0.8
100	308.15	860.3	0.9
100	313.15	855	0.9
100	318.15	849.8	0.9
100	323.15	844.4	0.9
100	328.15	839.1	0.9
100	333.15	833.7	0.9
100	338.15	828.4	0.9
100	343.15	823	1
100	348.15	817.7	1
100	353.15	812.2	1
100	363.15	801.2	1
100	373.15	790.7	1
100	383.15	779.9	1.1
100	393.15	769	1.1
1000	298.15	871.5	0.9
1000	303.15	866.4	0.9
1000	308.15	861.2	0.9
1000	313.15	855.9	0.9
1000	318.15	850.6	0.9
1000	323.15	845.3	0.9
1000	328.15	840	1
1000	333.15	834.7	1
1000	338.15	829.5	1
1000	343.15	824.1	1
1000	348.15	818.7	1
1000	353.15	813.3	1
1000	363.15	802.5	1.1
1000	373.15	792	1.1
1000	383.15	781.3	1.1
1000	393.15	770.5	1.2
2000	298.15	872.4	0.9
2000	303.15	867.4	0.9
2000	308.15	862.1	0.9
2000	313.15	856.9	0.9
2000	318.15	851.7	1
2000	323.15	846.4	1
2000	328.15	841.1	1
2000	333.15	836	1
2000	338.15	830.7	1
2000	343.15	825.3	1
2000	348.15	820	1.1
2000	353.15	814.6	1.1
2000	363.15	803.9	1.1
2000	373.15	793.5	1.2
2000	383.15	783	1.2
2000	393.15	772.3	1.2
2780	298.15	873	0.9
2780	303.15	868.1	0.9
2780	308.15	862.9	1
2780	313.15	857.7	1
2780	318.15	852.4	1
2780	323.15	847.2	1
2780	328.15	842	1
2780	333.15	836.9	1
2780	338.15	831.5	1.1
2780	343.15	826.2	1.1
2780	348.15	821	1.1
2780	353.15	815.6	1.1
2780	363.15	805	1.2
2780	373.15	794.7	1.2
2780	383.15	784.2	1.2
2780	393.15	773.6	1.3
3000	298.15	873.2	0.9
3000	303.15	868.3	0.9
3000	308.15	863.1	1
3000	313.15	857.9	1
3000	318.15	852.7	1
3000	323.15	847.4	1
3000	328.15	842.3	1
3000	333.15	837.1	1.1
3000	338.15	831.8	1.1
3000	343.15	826.5	1.1
3000	348.15	821.3	1.1
3000	353.15	815.9	1.1
3000	363.15	805.5	1.2
3000	373.15	795	1.2
3000	383.15	784.5	1.2
3000	393.15	774.1	1.3
5000	298.15	875.1	1
5000	303.15	870.1	1
5000	308.15	865	1
5000	313.15	859.9	1.1
5000	318.15	854.6	1.1
5000	323.15	849.4	1.1
5000	328.15	844.4	1.1
5000	333.15	839.3	1.1
5000	338.15	834	1.2
5000	343.15	828.8	1.2
5000	348.15	823.7	1.2
5000	353.15	818.4	1.2
5000	363.15	808.1	1.3
5000	373.15	797.9	1.3
5000	383.15	787.6	1.4
5000	393.15	777.4	1.4
10000	298.15	879.4	1.2
10000	303.15	874.5	1.2
10000	308.15	869.5	1.2
10000	313.15	864.5	1.2
10000	318.15	859.4	1.3
10000	323.15	854.3	1.3
10000	328.15	849.4	1.3
10000	333.15	844.5	1.4
10000	338.15	839.4	1.4
10000	343.15	834.4	1.4
10000	348.15	829.4	1.4
10000	353.15	824.3	1.5
10000	363.15	814.6	1.5
10000	373.15	804.8	1.6
10000	383.15	795	1.6
10000	393.15	785.1	1.7
15000	298.15	883.4	1.3
15000	303.15	878.7	1.3
15000	308.15	873.8	1.4
15000	313.15	868.9	1.4
15000	318.15	863.9	1.5
15000	323.15	859	1.5
15000	328.15	854.2	1.5
15000	333.15	849.5	1.6
15000	338.15	844.5	1.6
15000	343.15	839.6	1.6
15000	348.15	834.8	1.7
15000	353.15	829.9	1.7
15000	363.15	820.5	1.8
15000	373.15	810.9	1.8
15000	383.15	801.5	1.9
15000	393.15	791.6	2
20000	298.15	887.3	1.5
20000	303.15	882.6	1.5
20000	308.15	877.8	1.5
20000	313.15	873	1.6
20000	318.15	868.2	1.6
20000	323.15	863.4	1.7
20000	328.15	858.7	1.7
20000	333.15	854.1	1.7
20000	338.15	849.3	1.8
20000	343.15	844.5	1.8
20000	348.15	839.9	1.9
20000	353.15	835.1	1.9
20000	363.15	826	2
20000	373.15	816.7	2.1
20000	383.15	807.6	2.1
20000	393.15	797.7	2.2
25000	298.15	891	1.6
25000	303.15	886.5	1.6
25000	308.15	881.8	1.7
25000	313.15	877	1.7
25000	318.15	872.3	1.8
25000	323.15	867.6	1.8
25000	328.15	863	1.9
25000	333.15	858.6	1.9
25000	338.15	853.9	2
25000	343.15	849.2	2
25000	348.15	844.7	2.1
25000	353.15	840	2.1
25000	363.15	831.2	2.2
25000	373.15	822.2	2.3
25000	383.15	813.4	2.4
25000	393.15	803.5	2.5
30000	298.15	894.6	1.7
30000	303.15	890.2	1.8
30000	308.15	885.6	1.8
30000	313.15	880.9	1.9
30000	318.15	876.3	1.9
30000	323.15	871.7	2
30000	328.15	867.1	2
30000	333.15	862.9	2.1
30000	338.15	858.2	2.1
30000	343.15	853.7	2.2
30000	348.15	849.3	2.2
30000	353.15	844.7	2.3
30000	363.15	836	2.4
30000	373.15	827.3	2.5
30000	383.15	818.9	2.6
30000	393.15	809	2.7
35000	298.15	898.1	1.8
35000	303.15	893.8	1.9
35000	308.15	889.2	1.9
35000	313.15	884.6	2
35000	318.15	880.1	2.1
35000	323.15	875.5	2.1
35000	328.15	871.1	2.2
35000	333.15	867	2.2
35000	338.15	862.4	2.3
35000	343.15	858	2.3
35000	348.15	853.6	2.4
35000	353.15	849.1	2.5
35000	363.15	840.8	2.6
35000	373.15	832.3	2.7
35000	383.15	824	2.8
35000	393.15	814	2.9
