Measured thermophysical data. Viscosities of p-Xylene, Acetic Acid, and p-Xylene + Acetic Acid at (313.15 to 473.15) K and (0.10 to 3.20) MPa: Determined by the Rolling-Ball Method
Source: J. Chem. Eng. Data, 2008, 10.1021/je800635g
Compound 1: acetic acid, C2H4O2, InChI=1S/C2H4O2/c1-2(3)4/h1H3,(H,3,4), purity 99.5%
Compound 2: decane, C10H22, InChI=1S/C10H22/c1-3-5-7-9-10-8-6-4-2/h3-10H2,1-2H3, purity 99.5%
Compound 3: toluene, C7H8, InChI=1S/C7H8/c1-7-5-3-2-4-6-7/h2-6H,1H3, purity 99.95%
Compound 4: 1,4-dimethylbenzene, C8H10, InChI=1S/C8H10/c1-7-3-5-8(2)6-4-7/h3-6H,1-2H3, purity 99.9%

System: acetic acid; phases: Liquid
Property: Viscosity, Pa*s (Liquid); method: Falling or rolling sphere viscometry
Temperature, K	Pressure, kPa	Viscosity, Pa*s	uncertainty
313.15	100	0.000903	1e-05
313.15	800	0.00091	1e-05
313.15	1600	0.000917	1e-05
313.15	2400	0.000924	1e-05
313.15	3200	0.000932	1e-05
333.15	100	0.000713	8e-06
333.15	800	0.00072	8e-06
333.15	1600	0.000727	8e-06
333.15	2400	0.000735	8e-06
333.15	3200	0.000743	8e-06
353.15	100	0.000574	6e-06
353.15	800	0.000582	6e-06
353.15	1600	0.00059	6e-06
353.15	2400	0.000598	6e-06
353.15	3200	0.000605	6e-06
373.15	100	0.000471	5e-06
373.15	800	0.000478	5e-06
373.15	1600	0.000486	5e-06
373.15	2400	0.000494	5e-06
373.15	3200	0.000502	5e-06
393.15	800	0.000394	4e-06
393.15	1600	0.000402	4e-06
393.15	2400	0.00041	4e-06
393.15	3200	0.000418	5e-06
413.15	800	0.000333	4e-06
413.15	1600	0.00034	4e-06
413.15	2400	0.000347	4e-06
413.15	3200	0.000354	4e-06
433.15	800	0.000281	3e-06
433.15	1600	0.000287	3e-06
433.15	2400	0.000294	3e-06
433.15	3200	0.000302	3e-06
453.15	800	0.000244	3e-06
453.15	1600	0.000251	3e-06
453.15	2400	0.000258	3e-06
453.15	3200	0.000264	3e-06
473.15	1600	0.000213	2e-06
473.15	2400	0.00022	2e-06
473.15	3200	0.000226	3e-06

System: decane; phases: Liquid
Property: Viscosity, Pa*s (Liquid); method: Falling or rolling sphere viscometry
Temperature, K	Pressure, kPa	Viscosity, Pa*s	uncertainty
313.15	100	0.0007051	7.5e-06
323.15	100	0.0006356	6.8e-06
333.15	100	0.0005646	6.1e-06
333.15	800	0.0005732	6.1e-06
333.15	1600	0.0005714	6.1e-06
333.15	2400	0.0005756	6.1e-06
333.15	3200	0.0005792	6.1e-06
343.15	100	0.0005069	5.4e-06
353.15	100	0.0004514	4.8e-06
363.15	100	0.0004136	4.4e-06
373.15	100	0.0003729	4e-06
373.15	800	0.0003773	4.1e-06
373.15	1600	0.0003818	4.1e-06
373.15	2400	0.0003851	4.2e-06
373.15	3200	0.0003906	4.2e-06
393.15	1600	0.0003216	3.5e-06
413.15	1600	0.000279	3e-06
433.15	1600	0.0002328	2.5e-06
453.15	1600	0.0002072	2.3e-06
473.15	1600	0.000174	1.9e-06

System: toluene; phases: Liquid
Property: Viscosity, Pa*s (Liquid); method: Falling or rolling sphere viscometry
Temperature, K	Pressure, kPa	Viscosity, Pa*s	uncertainty
313.15	100	0.0004651	4.9e-06
323.15	100	0.0004158	4.4e-06
333.15	100	0.0003758	3.9e-06
333.15	800	0.0003839	4e-06
333.15	1600	0.0003889	4e-06
333.15	2400	0.0003955	4.1e-06
333.15	3200	0.0004008	4.2e-06
343.15	100	0.0003428	3.6e-06
353.15	100	0.0003137	3.3e-06
363.15	100	0.0002901	3e-06
373.15	100	0.000268	2.8e-06
373.15	800	0.0002706	2.9e-06
373.15	1600	0.0002742	2.9e-06
373.15	2400	0.000278	2.9e-06
373.15	3200	0.0002822	3e-06
393.15	1600	0.0002397	2.5e-06
413.15	1600	0.0002058	2.2e-06
433.15	1600	0.0001769	1.9e-06
453.15	1600	0.0001517	1.6e-06
473.15	1600	0.0001353	1.5e-06

System: 1,4-dimethylbenzene; phases: Liquid
Property: Viscosity, Pa*s (Liquid); method: Falling or rolling sphere viscometry
Temperature, K	Pressure, kPa	Viscosity, Pa*s	uncertainty
313.15	100	0.000499	5e-06
313.15	800	0.0005029	5.2e-06
313.15	1600	0.00051	5e-06
313.15	2400	0.000516	5e-06
313.15	3200	0.000521	5e-06
333.15	100	0.000409	4e-06
333.15	800	0.000412	4e-06
333.15	1600	0.000414	4e-06
333.15	2400	0.000417	4e-06
333.15	3200	0.000419	4e-06
353.15	100	0.00034	4e-06
353.15	800	0.000346	4e-06
353.15	1600	0.00035	4e-06
353.15	2400	0.000356	4e-06
353.15	3200	0.000361	4e-06
373.15	100	0.000292	3e-06
373.15	800	0.000297	3e-06
373.15	1600	0.0003	3e-06
373.15	2400	0.000303	3e-06
373.15	3200	0.000305	3e-06
393.15	800	0.000254	3e-06
393.15	1600	0.000258	3e-06
393.15	2400	0.000262	3e-06
393.15	3200	0.000266	3e-06
413.15	800	0.000221	2e-06
413.15	1600	0.000223	2e-06
413.15	2400	0.000226	2e-06
413.15	3200	0.000228	2e-06
433.15	800	0.000192	2e-06
433.15	1600	0.000197	2e-06
433.15	2400	0.000201	2e-06
433.15	3200	0.000206	2e-06
453.15	800	0.000168	2e-06
453.15	1600	0.00017	2e-06
453.15	2400	0.000172	2e-06
453.15	3200	0.000175	2e-06
473.15	1600	0.000159	2e-06
473.15	2400	0.000163	2e-06
473.15	3200	0.000167	2e-06

System: acetic acid + 1,4-dimethylbenzene; phases: Liquid
Property: Viscosity, Pa*s (Liquid); method: Falling or rolling sphere viscometry
Temperature, K	Pressure, kPa	Mole fraction of 1,4-dimethylbenzene	Viscosity, Pa*s	uncertainty
313.15	100	0.1001	0.000725	8e-06
313.15	100	0.1997	0.00063	7e-06
313.15	100	0.3001	0.000571	6e-06
313.15	100	0.3997	0.000522	6e-06
313.15	100	0.5	0.00052	5e-06
313.15	100	0.6002	0.000514	5e-06
313.15	100	0.6988	0.000508	5e-06
313.15	100	0.7994	0.000505	5e-06
313.15	100	0.8994	0.000499	5e-06
313.15	800	0.1001	0.000731	8e-06
313.15	800	0.1997	0.000635	7e-06
313.15	800	0.3001	0.000576	6e-06
313.15	800	0.3997	0.000527	6e-06
313.15	800	0.5	0.000524	6e-06
313.15	800	0.6002	0.000519	5e-06
313.15	800	0.6988	0.000512	5e-06
313.15	800	0.7994	0.000509	5e-06
313.15	800	0.8994	0.000503	5e-06
313.15	1600	0.1001	0.000737	8e-06
313.15	1600	0.1997	0.000641	7e-06
313.15	1600	0.3001	0.000583	6e-06
313.15	1600	0.3997	0.000532	6e-06
313.15	1600	0.5	0.00053	6e-06
313.15	1600	0.6002	0.000524	6e-06
313.15	1600	0.6988	0.000517	5e-06
313.15	1600	0.7994	0.000514	5e-06
313.15	1600	0.8994	0.000508	5e-06
313.15	2400	0.1001	0.000743	8e-06
313.15	2400	0.1997	0.000647	7e-06
313.15	2400	0.3001	0.000585	6e-06
313.15	2400	0.3997	0.000537	6e-06
313.15	2400	0.5	0.000535	6e-06
313.15	2400	0.6002	0.000529	6e-06
313.15	2400	0.6988	0.000522	5e-06
313.15	2400	0.7994	0.000519	5e-06
313.15	2400	0.8994	0.000513	5e-06
313.15	3200	0.1001	0.000749	8e-06
313.15	3200	0.1997	0.000653	7e-06
313.15	3200	0.3001	0.000591	6e-06
313.15	3200	0.3997	0.000543	6e-06
313.15	3200	0.5	0.000541	6e-06
313.15	3200	0.6002	0.000534	6e-06
313.15	3200	0.6988	0.000527	6e-06
313.15	3200	0.7994	0.000525	5e-06
313.15	3200	0.8994	0.000518	5e-06
333.15	100	0.1001	0.000587	6e-06
333.15	100	0.1997	0.000508	5e-06
333.15	100	0.3001	0.000459	5e-06
333.15	100	0.3997	0.000424	4e-06
333.15	100	0.5	0.000419	4e-06
333.15	100	0.6002	0.000418	4e-06
333.15	100	0.6988	0.000415	4e-06
333.15	100	0.7994	0.000412	4e-06
333.15	100	0.8994	0.000407	4e-06
333.15	800	0.1001	0.000592	6e-06
333.15	800	0.1997	0.000514	5e-06
333.15	800	0.3001	0.000464	5e-06
333.15	800	0.3997	0.000429	5e-06
333.15	800	0.5	0.000424	4e-06
333.15	800	0.6002	0.000423	4e-06
333.15	800	0.6988	0.000419	4e-06
333.15	800	0.7994	0.000416	4e-06
333.15	800	0.8994	0.000411	4e-06
333.15	1600	0.1001	0.000598	6e-06
333.15	1600	0.1997	0.00052	6e-06
333.15	1600	0.3001	0.00047	5e-06
333.15	1600	0.3997	0.000434	5e-06
333.15	1600	0.5	0.000429	5e-06
333.15	1600	0.6002	0.000428	4e-06
333.15	1600	0.6988	0.000424	4e-06
333.15	1600	0.7994	0.000422	4e-06
333.15	1600	0.8994	0.000416	4e-06
333.15	2400	0.1001	0.000605	6e-06
333.15	2400	0.1997	0.000526	6e-06
333.15	2400	0.3001	0.000476	5e-06
333.15	2400	0.3997	0.00044	5e-06
333.15	2400	0.5	0.000435	5e-06
333.15	2400	0.6002	0.000433	5e-06
333.15	2400	0.6988	0.000429	4e-06
333.15	2400	0.7994	0.000427	4e-06
333.15	2400	0.8994	0.000421	4e-06
333.15	3200	0.1001	0.000611	6e-06
333.15	3200	0.1997	0.000532	6e-06
333.15	3200	0.3001	0.000482	5e-06
333.15	3200	0.3997	0.000445	5e-06
333.15	3200	0.5	0.00044	5e-06
333.15	3200	0.6002	0.000438	5e-06
333.15	3200	0.6988	0.000435	5e-06
333.15	3200	0.7994	0.000432	5e-06
333.15	3200	0.8994	0.000427	4e-06
353.15	100	0.1001	0.000481	5e-06
353.15	100	0.1997	0.000419	4e-06
353.15	100	0.3001	0.000378	4e-06
353.15	100	0.3997	0.000351	4e-06
353.15	100	0.5	0.000347	4e-06
353.15	100	0.6002	0.000342	4e-06
353.15	100	0.6988	0.000341	4e-06
353.15	100	0.7994	0.000339	4e-06
353.15	100	0.8994	0.000339	4e-06
353.15	800	0.1001	0.000487	5e-06
353.15	800	0.1997	0.000425	5e-06
353.15	800	0.3001	0.000384	4e-06
353.15	800	0.3997	0.000356	4e-06
353.15	800	0.5	0.000352	4e-06
353.15	800	0.6002	0.000347	4e-06
353.15	800	0.6988	0.000346	4e-06
353.15	800	0.7994	0.000343	4e-06
353.15	800	0.8994	0.000344	4e-06
353.15	1600	0.1001	0.000493	5e-06
353.15	1600	0.1997	0.000431	5e-06
353.15	1600	0.3001	0.00039	4e-06
353.15	1600	0.3997	0.000361	4e-06
353.15	1600	0.5	0.000357	4e-06
353.15	1600	0.6002	0.000352	4e-06
353.15	1600	0.6988	0.000351	4e-06
353.15	1600	0.7994	0.000349	4e-06
353.15	1600	0.8994	0.000349	4e-06
353.15	2400	0.1001	0.000499	5e-06
353.15	2400	0.1997	0.000437	5e-06
353.15	2400	0.3001	0.000396	4e-06
353.15	2400	0.3997	0.000367	4e-06
353.15	2400	0.5	0.000363	4e-06
353.15	2400	0.6002	0.000357	4e-06
353.15	2400	0.6988	0.000356	4e-06
353.15	2400	0.7994	0.000354	4e-06
353.15	2400	0.8994	0.000354	4e-06
353.15	3200	0.1001	0.000505	5e-06
353.15	3200	0.1997	0.000444	5e-06
353.15	3200	0.3001	0.000402	4e-06
353.15	3200	0.3997	0.000372	4e-06
353.15	3200	0.5	0.000368	4e-06
353.15	3200	0.6002	0.000363	4e-06
353.15	3200	0.6988	0.000361	4e-06
353.15	3200	0.7994	0.000359	4e-06
353.15	3200	0.8994	0.000359	4e-06
373.15	100	0.1001	0.000399	4e-06
373.15	100	0.1997	0.000353	4e-06
373.15	100	0.3001	0.000314	3e-06
373.15	100	0.3997	0.000297	3e-06
373.15	100	0.5	0.000293	3e-06
373.15	100	0.6002	0.000289	3e-06
373.15	100	0.6988	0.000287	3e-06
373.15	100	0.7994	0.000285	3e-06
373.15	100	0.8994	0.000288	3e-06
373.15	800	0.1001	0.000405	4e-06
373.15	800	0.1997	0.000359	4e-06
373.15	800	0.3001	0.000319	3e-06
373.15	800	0.3997	0.000302	3e-06
373.15	800	0.5	0.000298	3e-06
373.15	800	0.6002	0.000293	3e-06
373.15	800	0.6988	0.000291	3e-06
373.15	800	0.7994	0.000289	3e-06
373.15	800	0.8994	0.000293	3e-06
373.15	1600	0.1001	0.000412	4e-06
373.15	1600	0.1997	0.000365	4e-06
373.15	1600	0.3001	0.000326	3e-06
373.15	1600	0.3997	0.000307	3e-06
373.15	1600	0.5	0.000303	3e-06
373.15	1600	0.6002	0.000299	3e-06
373.15	1600	0.6988	0.000296	3e-06
373.15	1600	0.7994	0.000294	3e-06
373.15	1600	0.8994	0.000298	3e-06
373.15	2400	0.1001	0.000418	4e-06
373.15	2400	0.1997	0.000372	4e-06
373.15	2400	0.3001	0.000332	4e-06
373.15	2400	0.3997	0.000313	3e-06
373.15	2400	0.5	0.000309	3e-06
373.15	2400	0.6002	0.000304	3e-06
373.15	2400	0.6988	0.000302	3e-06
373.15	2400	0.7994	0.0003	3e-06
373.15	2400	0.8994	0.000303	3e-06
373.15	3200	0.1001	0.000424	5e-06
373.15	3200	0.1997	0.000378	4e-06
373.15	3200	0.3001	0.000338	4e-06
373.15	3200	0.3997	0.000319	3e-06
373.15	3200	0.5	0.000315	3e-06
373.15	3200	0.6002	0.000309	3e-06
373.15	3200	0.6988	0.000307	3e-06
373.15	3200	0.7994	0.000305	3e-06
373.15	3200	0.8994	0.000308	3e-06
393.15	800	0.1001	0.00034	4e-06
393.15	800	0.1997	0.000294	3e-06
393.15	800	0.3001	0.000269	3e-06
393.15	800	0.3997	0.000252	3e-06
393.15	800	0.5	0.000253	3e-06
393.15	800	0.6002	0.000249	3e-06
393.15	800	0.6988	0.000256	3e-06
393.15	800	0.7994	0.000254	3e-06
393.15	800	0.8994	0.000254	3e-06
393.15	1600	0.1001	0.000345	4e-06
393.15	1600	0.1997	0.0003	3e-06
393.15	1600	0.3001	0.000275	3e-06
393.15	1600	0.3997	0.000258	3e-06
393.15	1600	0.5	0.000258	3e-06
393.15	1600	0.6002	0.000254	3e-06
393.15	1600	0.6988	0.000261	3e-06
393.15	1600	0.7994	0.000258	3e-06
393.15	1600	0.8994	0.000259	3e-06
393.15	2400	0.1001	0.000352	4e-06
393.15	2400	0.1997	0.000306	3e-06
393.15	2400	0.3001	0.000281	3e-06
393.15	2400	0.3997	0.000263	3e-06
393.15	2400	0.5	0.000264	3e-06
393.15	2400	0.6002	0.00026	3e-06
393.15	2400	0.6988	0.000266	3e-06
393.15	2400	0.7994	0.000264	3e-06
393.15	2400	0.8994	0.000265	3e-06
393.15	3200	0.1001	0.000358	4e-06
393.15	3200	0.1997	0.000313	3e-06
393.15	3200	0.3001	0.000287	3e-06
393.15	3200	0.3997	0.000269	3e-06
393.15	3200	0.5	0.00027	3e-06
393.15	3200	0.6002	0.000265	3e-06
393.15	3200	0.6988	0.000272	3e-06
393.15	3200	0.7994	0.00027	3e-06
393.15	3200	0.8994	0.00027	3e-06
413.15	800	0.1001	0.000294	3e-06
413.15	800	0.1997	0.000255	3e-06
413.15	800	0.3001	0.000237	3e-06
413.15	800	0.3997	0.000221	2e-06
413.15	800	0.5	0.000217	2e-06
413.15	800	0.6002	0.000218	2e-06
413.15	800	0.6988	0.000222	2e-06
413.15	800	0.7994	0.000219	2e-06
413.15	800	0.8994	0.00022	2e-06
413.15	1600	0.1001	0.0003	3e-06
413.15	1600	0.1997	0.00026	3e-06
413.15	1600	0.3001	0.000243	3e-06
413.15	1600	0.3997	0.000227	2e-06
413.15	1600	0.5	0.000217	2e-06
413.15	1600	0.6002	0.000223	2e-06
413.15	1600	0.6988	0.000227	2e-06
413.15	1600	0.7994	0.000225	2e-06
413.15	1600	0.8994	0.000225	2e-06
413.15	2400	0.1001	0.000307	3e-06
413.15	2400	0.1997	0.000265	3e-06
413.15	2400	0.3001	0.000249	3e-06
413.15	2400	0.3997	0.000233	3e-06
413.15	2400	0.5	0.000228	2e-06
413.15	2400	0.6002	0.000229	2e-06
413.15	2400	0.6988	0.000232	3e-06
413.15	2400	0.7994	0.00023	2e-06
413.15	2400	0.8994	0.000231	2e-06
413.15	3200	0.1001	0.000313	3e-06
413.15	3200	0.1997	0.000271	3e-06
413.15	3200	0.3001	0.000255	3e-06
413.15	3200	0.3997	0.000239	3e-06
413.15	3200	0.5	0.000233	3e-06
413.15	3200	0.6002	0.000234	3e-06
413.15	3200	0.6988	0.000237	3e-06
413.15	3200	0.7994	0.000235	3e-06
413.15	3200	0.8994	0.000236	3e-06
433.15	800	0.1997	0.000223	2e-06
433.15	800	0.3001	0.000208	2e-06
433.15	800	0.3997	0.000196	2e-06
433.15	800	0.5	0.000195	2e-06
433.15	800	0.6002	0.000194	2e-06
433.15	800	0.6988	0.000194	2e-06
433.15	800	0.7994	0.000191	2e-06
433.15	800	0.8994	0.000194	2e-06
433.15	1600	0.1001	0.00026	3e-06
433.15	1600	0.1997	0.000228	2e-06
433.15	1600	0.3001	0.000213	2e-06
433.15	1600	0.3997	0.000202	2e-06
433.15	1600	0.5	0.000201	2e-06
433.15	1600	0.6002	0.000199	2e-06
433.15	1600	0.6988	0.000199	2e-06
433.15	1600	0.7994	0.000197	2e-06
433.15	1600	0.8994	0.000199	2e-06
433.15	2400	0.1001	0.000267	3e-06
433.15	2400	0.1997	0.000233	3e-06
433.15	2400	0.3001	0.000219	2e-06
433.15	2400	0.3997	0.000208	2e-06
433.15	2400	0.5	0.000206	2e-06
433.15	2400	0.6002	0.000205	2e-06
433.15	2400	0.6988	0.000204	2e-06
433.15	2400	0.7994	0.000202	2e-06
433.15	2400	0.8994	0.000204	2e-06
433.15	3200	0.1001	0.000273	3e-06
433.15	3200	0.1997	0.000239	3e-06
433.15	3200	0.3001	0.000226	2e-06
433.15	3200	0.3997	0.000213	2e-06
433.15	3200	0.5	0.000212	2e-06
433.15	3200	0.6002	0.00021	2e-06
433.15	3200	0.6988	0.000209	2e-06
433.15	3200	0.7994	0.000208	2e-06
433.15	3200	0.8994	0.000209	2e-06
453.15	800	0.1001	0.000221	2e-06
453.15	800	0.1997	0.000196	2e-06
453.15	800	0.3001	0.000181	2e-06
453.15	800	0.3997	0.000177	2e-06
453.15	800	0.5	0.000174	2e-06
453.15	800	0.6002	0.000173	2e-06
453.15	800	0.6988	0.000173	2e-06
453.15	800	0.7994	0.00017	2e-06
453.15	800	0.8994	0.00017	2e-06
453.15	1600	0.1001	0.000227	2e-06
453.15	1600	0.1997	0.000201	2e-06
453.15	1600	0.3001	0.000186	2e-06
453.15	1600	0.3997	0.000183	2e-06
453.15	1600	0.5	0.00018	2e-06
453.15	1600	0.6002	0.000179	2e-06
453.15	1600	0.6988	0.000178	2e-06
453.15	1600	0.7994	0.000176	2e-06
453.15	1600	0.8994	0.000175	2e-06
453.15	2400	0.1001	0.000233	3e-06
453.15	2400	0.1997	0.000206	2e-06
453.15	2400	0.3001	0.000192	2e-06
453.15	2400	0.3997	0.000188	2e-06
453.15	2400	0.5	0.000185	2e-06
453.15	2400	0.6002	0.000184	2e-06
453.15	2400	0.6988	0.000183	2e-06
453.15	2400	0.7994	0.000181	2e-06
453.15	2400	0.8994	0.00018	2e-06
453.15	3200	0.1001	0.00024	3e-06
453.15	3200	0.1997	0.000211	2e-06
453.15	3200	0.3001	0.000198	2e-06
453.15	3200	0.3997	0.000194	2e-06
453.15	3200	0.5	0.000191	2e-06
453.15	3200	0.6002	0.000189	2e-06
453.15	3200	0.6988	0.000188	2e-06
453.15	3200	0.7994	0.000187	2e-06
453.15	3200	0.8994	0.000184	2e-06
473.15	1600	0.1001	0.00019	2e-06
473.15	1600	0.1997	0.00017	2e-06
473.15	1600	0.3001	0.000162	2e-06
473.15	1600	0.3997	0.000162	2e-06
473.15	1600	0.5	0.000161	2e-06
473.15	1600	0.6002	0.00016	2e-06
473.15	1600	0.6988	0.00016	2e-06
473.15	1600	0.7994	0.000157	2e-06
473.15	1600	0.8994	0.000159	2e-06
473.15	2400	0.1001	0.000196	2e-06
473.15	2400	0.1997	0.000175	2e-06
473.15	2400	0.3001	0.000168	2e-06
473.15	2400	0.3997	0.000167	2e-06
473.15	2400	0.5	0.000166	2e-06
473.15	2400	0.6002	0.000165	2e-06
473.15	2400	0.6988	0.000164	2e-06
473.15	2400	0.7994	0.000162	2e-06
473.15	2400	0.8994	0.000164	2e-06
473.15	3200	0.1001	0.000202	2e-06
473.15	3200	0.1997	0.000181	2e-06
473.15	3200	0.3001	0.000173	2e-06
473.15	3200	0.3997	0.000173	2e-06
473.15	3200	0.5	0.000171	2e-06
473.15	3200	0.6002	0.00017	2e-06
473.15	3200	0.6988	0.000169	2e-06
473.15	3200	0.7994	0.000168	2e-06
473.15	3200	0.8994	0.000168	2e-06
