Measured thermophysical data. Solubility of Carbon Dioxide in 1-Ethyl-3-methylimidazolium Tetrafluoroborate
Source: J. Chem. Eng. Data, 2008, 10.1021/je8003657
Compound 1: 1-ethyl-3-methylimidazolium tetrafluoroborate, C6H11BF4N2, InChI=1S/C6H11N2.BF4/c1-3-8-5-4-7(2)6-8;2-1(3,4)5/h4-6H,3H2,1-2H3;/q+1;-1, purity 97%
Compound 2: carbon dioxide, CO2, InChI=1S/CO2/c2-1-3, purity 99.9%

System: carbon dioxide + 1-ethyl-3-methylimidazolium tetrafluoroborate; phases: Liquid, Gas
Property: Molality, mol/kg (Liquid); method: thermogravimetric microbalance
Temperature, K	Pressure, kPa	Molality, mol/kg	uncertainty
303.2	496	0.2067	0.0014
303.2	1035	0.4308	0.0046
303.2	2068	0.8611	0.004
303.2	3112	1.2673	0.0145
303.2	4155	1.5999	0.018
313.2	503	0.1607	0.0011
313.2	1040	0.3471	0.0032
313.2	2068	0.7058	0.0055
313.2	3136	1.0634	0.0124
313.2	4207	1.3796	0.0158
323.2	503	0.1228	0.0008
323.2	1049	0.2817	0.0022
323.2	2118	0.5946	0.0059
323.2	3136	0.8847	0.004
323.2	4254	1.1777	0.0137
333.2	503	0.0951	0.0005
333.2	1049	0.2294	0.0015
333.2	2118	0.4917	0.0058
333.2	3186	0.7456	0.0051
333.2	4329	0.9961	0.0038
343.2	517	0.0802	0.0004
343.2	1058	0.194	0.001
343.2	2167	0.421	0.004
343.2	3236	0.6254	0.006
343.2	4329	0.8104	0.0051
