Measured thermophysical data. Temperature Dependence of Air-Water Partitioning of N-Methylated (C1 and C2) Fatty Acid Amides
Source: J. Chem. Eng. Data, 2008, 10.1021/je800517r
Compound 1: N-methylformamide, C2H5NO, InChI=1S/C2H5NO/c1-3-2-4/h2H,1H3,(H,3,4)
Compound 2: water, H2O, InChI=1S/H2O/h1H2
Compound 3: N-methylacetamide, C3H7NO, InChI=1S/C3H7NO/c1-3(5)4-2/h1-2H3,(H,4,5)
Compound 4: dimethylformamide, C3H7NO, InChI=1S/C3H7NO/c1-4(2)3-5/h3H,1-2H3
Compound 5: N,N-dimethylethanamide, C4H9NO, InChI=1S/C4H9NO/c1-4(6)5(2)3/h1-3H3

System: N-methylformamide + water; phases: Liquid, Gas
Fixed: Mole fraction of N-methylformamide = 0
Property: Activity coefficient of N-methylformamide (Liquid); method: comparative ebulliometry, circulation still, and differential distillation method
Temperature, K	Activity coefficient of N-methylformamide	uncertainty
333.15	1.37	0.08
343.15	1.42	0.09
353.15	1.44	0.09
372.65	1.65	0.1

System: N-methylformamide + water; phases: Gas, Liquid
Fixed: Amount concentration (molarity), mol/dm3 of N-methylformamide = 0
Property: Amount concentration (molarity), mol/dm3 of N-methylformamide (Gas); method: comparative ebulliometry, circulation still, and differential distillation method
Temperature, K	Amount concentration (molarity), mol/dm3 of N-methylformamide	uncertainty
333.15	3.37e-06	1e-08
343.15	6.11e-06	1e-08
353.15	1.05e-05	1e-07
372.65	3.02e-05	1e-07

System: N-methylformamide + water; phases: Liquid, Gas
Fixed: Mole fraction of N-methylformamide = 0
Property: Henry's Law constant (mole fraction scale), kPa of N-methylformamide (Liquid); method: comparative ebulliometry, circulation still, and differential distillation method
Temperature, K	Henry's Law constant (mole fraction scale), kPa of N-methylformamide	uncertainty
333.15	0.509	0.031
343.15	0.944	0.058
353.15	1.66	0.1
372.65	4.98	0.31

System: N-methylacetamide + water; phases: Liquid, Gas
Fixed: Mole fraction of N-methylacetamide = 0
Property: Activity coefficient of N-methylacetamide (Liquid); method: comparative ebulliometry, circulation still, and differential distillation method
Temperature, K	Activity coefficient of N-methylacetamide	uncertainty
333.15	1.7	0.1
343.15	1.78	0.11
353.15	1.82	0.11

System: N-methylacetamide + water; phases: Gas, Liquid
Fixed: Amount concentration (molarity), mol/dm3 of N-methylacetamide = 0
Property: Amount concentration (molarity), mol/dm3 of N-methylacetamide (Gas); method: comparative ebulliometry, circulation still, and differential distillation method
Temperature, K	Amount concentration (molarity), mol/dm3 of N-methylacetamide	uncertainty
333.15	2.49e-06	1e-08
343.15	4.74e-06	1e-08
353.15	8.45e-06	1e-08

System: N-methylacetamide + water; phases: Liquid, Gas
Fixed: Mole fraction of N-methylacetamide = 0
Property: Henry's Law constant (mole fraction scale), kPa of N-methylacetamide (Liquid); method: comparative ebulliometry, circulation still, and differential distillation method
Temperature, K	Henry's Law constant (mole fraction scale), kPa of N-methylacetamide	uncertainty
333.15	0.376	0.023
343.15	0.732	0.045
353.15	1.34	0.08

System: dimethylformamide + water; phases: Liquid, Gas
Fixed: Mole fraction of dimethylformamide = 0
Property: Activity coefficient of dimethylformamide (Liquid); method: comparative ebulliometry, circulation still, and differential distillation method
Temperature, K	Activity coefficient of dimethylformamide	uncertainty
343.73	1.23	0.07
349.05	1.27	0.08
353.45	1.3	0.08
357.91	1.3	0.08
358.5	1.36	0.08
363.82	1.35	0.08
368.38	1.59	0.1
371.62	1.54	0.09
372	1.66	0.1

System: dimethylformamide + water; phases: Gas, Liquid
Fixed: Amount concentration (molarity), mol/dm3 of dimethylformamide = 0
Property: Amount concentration (molarity), mol/dm3 of dimethylformamide (Gas); method: comparative ebulliometry, circulation still, and differential distillation method
Temperature, K	Amount concentration (molarity), mol/dm3 of dimethylformamide	uncertainty
343.73	5.26e-05	1e-07
349.05	6.79e-05	1e-07
353.45	8.24e-05	1e-07
357.91	9.78e-05	1e-07
358.5	0.000105	1e-06
363.82	0.000127	1e-06
368.38	0.000178	1e-06
371.62	0.000194	1e-06
372	0.000212	1e-06

System: dimethylformamide + water; phases: Liquid, Gas
Fixed: Mole fraction of dimethylformamide = 0
Property: Henry's Law constant (mole fraction scale), kPa of dimethylformamide (Liquid); method: comparative ebulliometry, circulation still, and differential distillation method
Temperature, K	Henry's Law constant (mole fraction scale), kPa of dimethylformamide	uncertainty
343.73	8.13	0.16
349.05	10.6	0.2
353.45	13	0.3
357.91	15.6	0.3
358.5	16.8	0.3
363.82	20.6	0.4
368.38	29	0.6
371.62	31.9	0.6
372	34.9	0.7

System: N,N-dimethylethanamide + water; phases: Liquid, Gas
Fixed: Mole fraction of N,N-dimethylethanamide = 0
Property: Activity coefficient of N,N-dimethylethanamide (Liquid); method: comparative ebulliometry, circulation still, and differential distillation method
Temperature, K	Activity coefficient of N,N-dimethylethanamide	uncertainty
343.15	1.27	0.08
343.51	1.29	0.08
349.03	1.46	0.09
351.15	1.37	0.08
353.5	1.72	0.1
353.5	1.79	0.11
363.87	2.06	0.12
363.87	2.24	0.13
370.86	2.12	0.13
372.28	2.05	0.12

System: N,N-dimethylethanamide + water; phases: Gas, Liquid
Fixed: Amount concentration (molarity), mol/dm3 of N,N-dimethylethanamide = 0
Property: Amount concentration (molarity), mol/dm3 of N,N-dimethylethanamide (Gas); method: comparative ebulliometry, circulation still, and differential distillation method
Temperature, K	Amount concentration (molarity), mol/dm3 of N,N-dimethylethanamide	uncertainty
343.15	2.66e-05	1e-07
343.51	2.75e-05	1e-07
349.03	3.97e-05	1e-07
351.15	4.08e-05	1e-07
353.5	5.66e-05	1e-07
353.5	5.9e-05	1e-07
363.87	0.000104	1e-06
363.87	0.000114	1e-06
370.86	0.000141	1e-06
372.28	0.000144	1e-06

System: N,N-dimethylethanamide + water; phases: Liquid, Gas
Fixed: Mole fraction of N,N-dimethylethanamide = 0
Property: Henry's Law constant (mole fraction scale), kPa of N,N-dimethylethanamide (Liquid); method: comparative ebulliometry, circulation still, and differential distillation method
Temperature, K	Henry's Law constant (mole fraction scale), kPa of N,N-dimethylethanamide	uncertainty
343.15	4.12	0.25
343.51	4.25	0.26
349.03	6.21	0.38
351.15	6.42	0.4
353.5	8.96	0.55
353.5	9.33	0.58
363.87	16.9	1
363.87	18.4	1.1
370.86	23.1	1.4
372.28	23.7	1.5
