Measured thermophysical data. Partial Molar Volumes of Cyclic Alcohols at Infinite Dilution in Water at Temperatures T ) (298 to 373) K and Pressure of 0.5 MPa
Source: J. Chem. Eng. Data, 2009, 10.1021/je8004694
Compound 1: cyclopentanol, C5H10O, InChI=1S/C5H10O/c6-5-3-1-2-4-5/h5-6H,1-4H2, purity 99%
Compound 2: cyclohexanol, C6H12O, InChI=1S/C6H12O/c7-6-4-2-1-3-5-6/h6-7H,1-5H2, purity 99%
Compound 3: cycloheptanol, C7H14O, InChI=1S/C7H14O/c8-7-5-3-1-2-4-6-7/h7-8H,1-6H2, purity 97%
Compound 4: cyclooctanol, C8H16O, InChI=1S/C8H16O/c9-8-6-4-2-1-3-5-7-8/h8-9H,1-7H2, purity 98%
Compound 5: cyclohexylmethanol, C7H14O, InChI=1S/C7H14O/c8-6-7-4-2-1-3-5-7/h7-8H,1-6H2, purity 99%
Compound 6: 2-cyclohexylethanol, C8H16O, InChI=1S/C8H16O/c9-7-6-8-4-2-1-3-5-8/h8-9H,1-7H2, purity 99%
Compound 7: water, H2O, InChI=1S/H2O/h1H2, purity 99%

System: cyclopentanol + water; phases: Liquid
Property: Mass density, kg/m3 (Liquid); method: VIBTUB:UFactor:0.5
Temperature, K	Pressure, kPa	Molality, mol/kg of cyclopentanol	Mass density, kg/m3	uncertainty
298.14	450	0.045324	-0.12	0.0156
298.14	450	0.104916	-0.2568	0.0156
298.14	450	0.215073	-0.4734	0.0156
298.14	450	0.308765	-0.625	0.0156
298.14	450	0.401524	-0.7479	0.0156
298.14	450	0.045324	-0.1189	0.0156
298.14	450	0.104916	-0.2567	0.0156
298.14	450	0.215073	-0.4728	0.0156
298.14	450	0.308765	-0.6235	0.0156
298.14	450	0.401524	-0.747	0.0156
298.14	450	0.045324	-0.1175	0.0156
298.14	450	0.104916	-0.2556	0.0156
298.14	450	0.215073	-0.4714	0.0156
298.14	450	0.308765	-0.6214	0.0156
298.14	450	0.401524	-0.7464	0.0156
318.17	500	0.045324	-0.1431	0.0156
318.17	500	0.104916	-0.3192	0.0156
318.17	500	0.215073	-0.6234	0.0156
318.17	500	0.308765	-0.8619	0.0156
318.17	500	0.401524	-1.0841	0.0156
318.17	500	0.045324	-0.14	0.0156
318.17	500	0.104916	-0.3187	0.0156
318.17	500	0.215073	-0.6229	0.0156
318.17	500	0.308765	-0.8615	0.0156
318.17	500	0.401524	-1.0839	0.0156
318.17	500	0.045324	-0.1393	0.0156
318.17	500	0.104916	-0.3159	0.0156
318.17	500	0.215073	-0.6224	0.0156
318.17	500	0.308765	-0.8608	0.0156
318.17	500	0.401524	-1.0809	0.0156
338.16	510	0.045324	-0.179	0.0156
338.16	510	0.104916	-0.4076	0.0156
338.16	510	0.215073	-0.8142	0.0156
338.16	510	0.308765	-1.1501	0.0156
338.16	510	0.401524	-1.4766	0.0156
338.16	510	0.045324	-0.1777	0.0156
338.16	510	0.104916	-0.4052	0.0156
338.16	510	0.215073	-0.812	0.0156
338.16	510	0.308765	-1.1479	0.0156
338.16	510	0.401524	-1.4751	0.0156
338.16	510	0.045324	-0.1761	0.0156
338.16	510	0.104916	-0.403	0.0156
338.16	510	0.215073	-0.809	0.0156
338.16	510	0.308765	-1.1462	0.0156
338.16	510	0.401524	-1.4727	0.0156
358.15	510	0.05222	-0.2582	0.0156
358.15	510	0.10321	-0.5052	0.0156
358.15	510	0.207988	-1.0095	0.0156
358.15	510	0.300638	-1.4461	0.0156
358.15	510	0.398036	-1.9057	0.0156
358.15	510	0.05222	-0.257	0.0156
358.15	510	0.10321	-0.5018	0.0156
358.15	510	0.207988	-1.0086	0.0156
358.15	510	0.300638	-1.4449	0.0156
358.15	510	0.398036	-1.9046	0.0156
358.15	510	0.05222	-0.2565	0.0156
358.15	510	0.10321	-0.4993	0.0156
358.15	510	0.207988	-1.0081	0.0156
358.15	510	0.300638	-1.4399	0.0156
358.15	510	0.398036	-1.904	0.0156
358.15	510	0.05222	-0.2544	0.0156
358.15	510	0.10321	-0.4984	0.0156
358.15	510	0.207988	-1.0057	0.0156
358.15	510	0.300638	-1.4375	0.0156
358.15	510	0.398036	-1.898	0.0156
358.15	510	0.207988	-1.0014	0.0156
358.15	510	0.300638	-1.4371	0.0156
358.15	510	0.398036	-1.893	0.0156
373.16	510	0.05222	-0.2946	0.0156
373.16	510	0.10321	-0.5793	0.0156
373.16	510	0.207988	-1.1631	0.0156
373.16	510	0.300638	-1.679	0.0156
373.16	510	0.398036	-2.2188	0.0156
373.16	510	0.05222	-0.2928	0.0156
373.16	510	0.10321	-0.579	0.0156
373.16	510	0.207988	-1.1623	0.0156
373.16	510	0.300638	-1.6778	0.0156
373.16	510	0.398036	-2.2181	0.0156
373.16	510	0.05222	-0.2922	0.0156
373.16	510	0.10321	-0.5786	0.0156
373.16	510	0.207988	-1.1618	0.0156
373.16	510	0.300638	-1.6771	0.0156
373.16	510	0.398036	-2.2179	0.0156

System: cyclohexanol + water; phases: Liquid
Property: Mass density, kg/m3 (Liquid); method: VIBTUB:UFactor:0.5
Temperature, K	Pressure, kPa	Molality, mol/kg of cyclohexanol	Mass density, kg/m3	uncertainty
298.15	470	0.051332	-0.155	0.0156
298.15	470	0.093853	-0.2721	0.0156
298.15	470	0.143259	-0.3926	0.0157
298.15	470	0.198575	-0.522	0.0157
298.15	470	0.286954	-0.6896	0.0158
298.15	470	0.051332	-0.155	0.0156
298.15	470	0.093853	-0.2692	0.0156
298.15	470	0.143259	-0.3907	0.0157
298.15	470	0.198575	-0.5181	0.0157
298.15	470	0.286954	-0.6892	0.0158
298.15	470	0.051332	-0.1533	0.0156
298.15	470	0.093853	-0.2683	0.0156
298.15	470	0.143259	-0.3896	0.0157
298.15	470	0.198575	-0.5163	0.0157
298.15	470	0.286954	-0.6868	0.0158
318.17	500	0.051332	-0.2017	0.0156
318.17	500	0.093853	-0.3605	0.0156
318.17	500	0.143259	-0.5357	0.0157
318.17	500	0.198575	-0.7303	0.0158
318.17	500	0.286954	-1.0229	0.0159
318.17	500	0.051332	-0.2008	0.0156
318.17	500	0.093853	-0.3598	0.0156
318.17	500	0.143259	-0.5356	0.0157
318.17	500	0.198575	-0.7283	0.0158
318.17	500	0.286954	-1.0222	0.0159
318.17	500	0.051332	-0.2	0.0156
318.17	500	0.093853	-0.3592	0.0156
318.17	500	0.143259	-0.535	0.0157
318.17	500	0.198575	-0.7279	0.0158
318.17	500	0.286954	-1.0216	0.0159
338.15	510	0.051332	-0.2565	0.0156
338.15	510	0.093853	-0.4636	0.0157
338.15	510	0.143259	-0.6986	0.0158
338.15	510	0.198575	-0.9611	0.0159
338.15	510	0.286954	-1.3749	0.0161
338.15	510	0.051332	-0.2557	0.0156
338.15	510	0.093853	-0.4619	0.0157
338.15	510	0.143259	-0.6971	0.0158
338.15	510	0.198575	-0.9601	0.0159
338.15	510	0.286954	-1.3747	0.0161
338.15	510	0.051332	-0.253	0.0156
338.15	510	0.093853	-0.4597	0.0157
338.15	510	0.143259	-0.6956	0.0158
338.15	510	0.198575	-0.9591	0.0159
338.15	510	0.286954	-1.3745	0.0161
358.16	510	0.055059	-0.3369	0.0158
358.16	510	0.096443	-0.5878	0.0159
358.16	510	0.146662	-0.8932	0.016
358.16	510	0.205967	-1.2493	0.0162
358.16	510	0.259451	-1.5724	0.0163
358.16	510	0.055059	-0.3349	0.0158
358.16	510	0.096443	-0.5877	0.0159
358.16	510	0.146662	-0.8897	0.016
358.16	510	0.205967	-1.2484	0.0162
358.16	510	0.259451	-1.5715	0.0163
358.16	510	0.055059	-0.3344	0.0158
358.16	510	0.096443	-0.5844	0.0159
358.16	510	0.146662	-0.8861	0.016
358.16	510	0.205967	-1.2455	0.0162
358.16	510	0.259451	-1.5682	0.0163
373.16	520	0.055059	-0.3859	0.016
373.16	520	0.096443	-0.6773	0.0161
373.16	520	0.146662	-1.0287	0.0162
373.16	520	0.205967	-1.4443	0.0164
373.16	520	0.259451	-1.8192	0.0168
373.16	520	0.055059	-0.3857	0.016
373.16	520	0.096443	-0.6751	0.0161
373.16	520	0.146662	-1.0266	0.0162
373.16	520	0.205967	-1.4426	0.0164
373.16	520	0.259451	-1.8191	0.0168
373.16	520	0.055059	-0.385	0.016
373.16	520	0.096443	-0.6749	0.0161
373.16	520	0.146662	-1.0255	0.0162
373.16	520	0.205967	-1.442	0.0164
373.16	520	0.259451	-1.8174	0.0168

System: cycloheptanol + water; phases: Liquid
Property: Mass density, kg/m3 (Liquid); method: VIBTUB:UFactor:0.5
Temperature, K	Pressure, kPa	Molality, mol/kg of cycloheptanol	Mass density, kg/m3	uncertainty
298.15	450	0.052516	-0.1329	0.0156
298.15	450	0.060979	-0.153	0.0156
298.15	450	0.068649	-0.1636	0.0156
298.15	450	0.074997	-0.1779	0.0156
298.15	450	0.08757	-0.2001	0.0156
298.15	450	0.101006	-0.2341	0.0156
298.15	450	0.052516	-0.1303	0.0156
298.15	450	0.060979	-0.1529	0.0156
298.15	450	0.068649	-0.1628	0.0156
298.15	450	0.074997	-0.1739	0.0156
298.15	450	0.08757	-0.1992	0.0156
298.15	450	0.101006	-0.2325	0.0156
298.15	450	0.052516	-0.1293	0.0156
298.15	450	0.060979	-0.1512	0.0156
298.15	450	0.068649	-0.1618	0.0156
298.15	450	0.074997	-0.1724	0.0156
298.15	450	0.08757	-0.1986	0.0156
298.15	450	0.101006	-0.2318	0.0156
298.15	450	0.068649	-0.1607	0.0156
318.17	500	0.052516	-0.1958	0.0156
318.17	500	0.068649	-0.2518	0.0156
318.17	500	0.08757	-0.3163	0.0156
318.17	500	0.101006	-0.3606	0.0156
318.17	500	0.052516	-0.1957	0.0156
318.17	500	0.068649	-0.2516	0.0156
318.17	500	0.08757	-0.3158	0.0156
318.17	500	0.101006	-0.3606	0.0156
318.17	500	0.052516	-0.1955	0.0156
318.17	500	0.068649	-0.2507	0.0156
318.17	500	0.08757	-0.3151	0.0156
318.17	500	0.101006	-0.3598	0.0156
338.15	510	0.052516	-0.2653	0.0156
338.15	510	0.068649	-0.3427	0.0156
338.15	510	0.08757	-0.4339	0.0156
338.15	510	0.101006	-0.4986	0.0156
338.15	510	0.052516	-0.263	0.0156
338.15	510	0.068649	-0.3426	0.0156
338.15	510	0.08757	-0.4321	0.0156
338.15	510	0.101006	-0.4977	0.0156
338.15	510	0.052516	-0.2628	0.0156
338.15	510	0.068649	-0.3408	0.0156
338.15	510	0.08757	-0.432	0.0156
338.15	510	0.101006	-0.4973	0.0156
358.16	510	0.052516	-0.3373	0.0156
358.16	510	0.060979	-0.3901	0.0156
358.16	510	0.074997	-0.4747	0.0156
358.16	510	0.099948	-0.6352	0.0156
358.16	510	0.052516	-0.3362	0.0156
358.16	510	0.060979	-0.3869	0.0156
358.16	510	0.074997	-0.4742	0.0156
358.16	510	0.099948	-0.633	0.0156
358.16	510	0.052516	-0.3333	0.0156
358.16	510	0.060979	-0.3864	0.0156
358.16	510	0.074997	-0.4706	0.0156
358.16	510	0.099948	-0.6325	0.0156
373.16	520	0.048173	-0.3568	0.0156
373.16	520	0.060979	-0.4531	0.0156
373.16	520	0.074997	-0.5562	0.0156
373.16	520	0.099948	-0.7402	0.0156
373.16	520	0.048173	-0.3557	0.0156
373.16	520	0.060979	-0.452	0.0156
373.16	520	0.074997	-0.5547	0.0156
373.16	520	0.099948	-0.7399	0.0156
373.16	520	0.048173	-0.3554	0.0156
373.16	520	0.060979	-0.45	0.0156
373.16	520	0.074997	-0.5514	0.0156
373.16	520	0.099948	-0.7383	0.0156

System: cyclooctanol + water; phases: Liquid
Property: Mass density, kg/m3 (Liquid); method: VIBTUB:UFactor:0.5
Temperature, K	Pressure, kPa	Molality, mol/kg of cyclooctanol	Mass density, kg/m3	uncertainty
298.15	440	0.009612	-0.0217	0.0155
298.15	440	0.019655	-0.0361	0.0155
298.15	440	0.01977	-0.0378	0.0155
298.15	440	0.02009	-0.0383	0.0155
298.15	440	0.028315	-0.0544	0.0155
298.15	440	0.009612	-0.0211	0.0155
298.15	440	0.019655	-0.0359	0.0155
298.15	440	0.01977	-0.037	0.0155
298.15	440	0.02009	-0.0366	0.0155
298.15	440	0.028315	-0.0537	0.0155
298.15	440	0.009612	-0.0211	0.0155
298.15	440	0.019655	-0.0347	0.0155
298.15	440	0.01977	-0.0352	0.0155
298.15	440	0.02009	-0.0359	0.0155
298.15	440	0.028315	-0.0529	0.0155
298.15	440	0.009612	-0.0206	0.0155
298.15	440	0.028315	-0.0512	0.0155
318.17	500	0.009612	-0.0356	0.0155
318.17	500	0.01977	-0.0676	0.0155
318.17	500	0.028315	-0.0961	0.0155
318.17	500	0.009612	-0.0355	0.0155
318.17	500	0.01977	-0.0674	0.0155
318.17	500	0.028315	-0.0954	0.0155
318.17	500	0.009612	-0.0338	0.0155
318.17	500	0.01977	-0.0669	0.0155
318.17	500	0.028315	-0.0953	0.0155
338.16	510	0.009612	-0.0488	0.0155
338.16	510	0.01977	-0.0994	0.0155
338.16	510	0.028315	-0.139	0.0155
338.16	510	0.01977	-0.0989	0.0155
338.16	510	0.028315	-0.1385	0.0155
338.16	510	0.01977	-0.0979	0.0155
338.16	510	0.028315	-0.1383	0.0155
358.17	510	0.009731	-0.0657	0.0155
358.17	510	0.02009	-0.1319	0.0155
358.17	510	0.028216	-0.1833	0.0155
358.17	510	0.009731	-0.0654	0.0155
358.17	510	0.02009	-0.1318	0.0155
358.17	510	0.028216	-0.1825	0.0155
358.17	510	0.009731	-0.065	0.0155
358.17	510	0.02009	-0.1315	0.0155
358.17	510	0.028216	-0.182	0.0155
358.17	510	0.009731	-0.0649	0.0155
358.17	510	0.02009	-0.131	0.0155
358.17	510	0.028216	-0.1818	0.0155
358.17	510	0.009731	-0.0647	0.0155
358.17	510	0.02009	-0.1309	0.0155
358.17	510	0.028216	-0.1816	0.0155
373.16	520	0.009731	-0.0751	0.0155
373.16	520	0.02009	-0.1546	0.0155
373.16	520	0.028216	-0.2143	0.0155
373.16	520	0.009731	-0.0749	0.0155
373.16	520	0.02009	-0.1534	0.0155
373.16	520	0.028216	-0.2133	0.0155
373.16	520	0.02009	-0.1529	0.0155
373.16	520	0.028216	-0.2132	0.0155

System: cyclohexylmethanol + water; phases: Liquid
Property: Mass density, kg/m3 (Liquid); method: VIBTUB:UFactor:0.5
Temperature, K	Pressure, kPa	Molality, mol/kg of cyclohexylmethanol	Mass density, kg/m3	uncertainty
298.15	420	0.014608	-0.0682	0.0155
298.15	420	0.030078	-0.1348	0.0155
298.15	420	0.045073	-0.1969	0.0155
298.15	420	0.014608	-0.0677	0.0155
298.15	420	0.030078	-0.1344	0.0155
298.15	420	0.045073	-0.1966	0.0155
298.15	420	0.014608	-0.0675	0.0155
298.15	420	0.030078	-0.1335	0.0155
298.15	420	0.045073	-0.1964	0.0155
298.15	420	0.014608	-0.0672	0.0155
298.15	420	0.030078	-0.133	0.0155
298.15	420	0.045073	-0.196	0.0155
298.15	420	0.014608	-0.0665	0.0155
298.15	420	0.014608	-0.0663	0.0155
318.17	500	0.014608	-0.0904	0.0155
318.17	500	0.030078	-0.1768	0.0155
318.17	500	0.045073	-0.2604	0.0155
318.17	500	0.014608	-0.0893	0.0155
318.17	500	0.030078	-0.1763	0.0155
318.17	500	0.045073	-0.2603	0.0155
318.17	500	0.014608	-0.0876	0.0155
318.17	500	0.030078	-0.174	0.0155
318.17	500	0.045073	-0.2602	0.0155
338.16	510	0.014608	-0.1098	0.0155
338.16	510	0.030078	-0.2205	0.0155
338.16	510	0.045073	-0.3254	0.0155
338.16	510	0.014608	-0.1092	0.0155
338.16	510	0.030078	-0.2188	0.0155
338.16	510	0.045073	-0.324	0.0155
338.16	510	0.014608	-0.1067	0.0155
338.16	510	0.030078	-0.2169	0.0155
338.16	510	0.045073	-0.3226	0.0155
358.15	510	0.013856	-0.1292	0.0155
358.15	510	0.029138	-0.2602	0.0155
358.15	510	0.042254	-0.3756	0.0155
358.15	510	0.013856	-0.1243	0.0155
358.15	510	0.029138	-0.2564	0.0155
358.15	510	0.042254	-0.3727	0.0155
358.15	510	0.013856	-0.1227	0.0155
358.15	510	0.029138	-0.2559	0.0155
358.15	510	0.042254	-0.3701	0.0155
358.15	510	0.029138	-0.254	0.0155
358.15	510	0.042254	-0.3699	0.0155
358.15	510	0.029138	-0.2503	0.0155
358.15	510	0.042254	-0.3694	0.0155
373.16	510	0.013856	-0.1366	0.0155
373.16	510	0.029138	-0.2881	0.0155
373.16	510	0.042254	-0.4165	0.0155
373.16	510	0.013856	-0.1358	0.0155
373.16	510	0.029138	-0.2865	0.0155
373.16	510	0.042254	-0.4159	0.0155
373.16	510	0.013856	-0.1352	0.0155
373.16	510	0.029138	-0.2856	0.0155
373.16	510	0.042254	-0.4147	0.0155

System: 2-cyclohexylethanol + water; phases: Liquid
Property: Mass density, kg/m3 (Liquid); method: VIBTUB:UFactor:0.5
Temperature, K	Pressure, kPa	Molality, mol/kg of 2-cyclohexylethanol	Mass density, kg/m3	uncertainty
298.14	430	0.00688	-0.0436	0.0156
298.14	430	0.007624	-0.049	0.0156
298.14	430	0.010505	-0.0661	0.0156
298.14	430	0.00688	-0.0433	0.0156
298.14	430	0.007624	-0.0482	0.0156
298.14	430	0.010505	-0.0655	0.0156
298.14	430	0.007624	-0.0482	0.0156
298.14	430	0.010505	-0.0645	0.0156
318.17	500	0.00688	-0.0593	0.0156
318.17	500	0.007624	-0.0647	0.0156
318.17	500	0.010505	-0.089	0.0156
318.17	500	0.00688	-0.0588	0.0156
318.17	500	0.007624	-0.0647	0.0156
318.17	500	0.010505	-0.0882	0.0156
318.17	500	0.00688	-0.0582	0.0156
318.17	500	0.007624	-0.0643	0.0156
318.17	500	0.010505	-0.0878	0.0156
338.16	510	0.00688	-0.0718	0.0156
338.16	510	0.007624	-0.0795	0.0156
338.16	510	0.010505	-0.107	0.0156
338.16	510	0.00688	-0.0717	0.0156
338.16	510	0.007624	-0.0769	0.0156
338.16	510	0.010505	-0.1056	0.0156
338.16	510	0.00688	-0.0687	0.0156
338.16	510	0.007624	-0.076	0.0156
338.16	510	0.010505	-0.1033	0.0156
358.15	510	0.006354	-0.0798	0.0156
358.15	510	0.007696	-0.1026	0.0156
358.15	510	0.009593	-0.1185	0.0156
358.15	510	0.006354	-0.0793	0.0156
358.15	510	0.007696	-0.0919	0.0156
358.15	510	0.009593	-0.1161	0.0156
358.15	510	0.006354	-0.074	0.0156
358.15	510	0.007696	-0.0915	0.0156
358.15	510	0.009593	-0.1155	0.0156
358.15	510	0.006354	-0.0713	0.0156
358.15	510	0.007696	-0.0889	0.0156
358.15	510	0.009593	-0.1102	0.0156
358.15	510	0.007696	-0.0885	0.0156
358.15	510	0.009593	-0.1076	0.0156
373.16	510	0.006354	-0.0831	0.0156
373.16	510	0.007696	-0.1008	0.0156
373.16	510	0.009593	-0.1256	0.0156
373.16	510	0.006354	-0.0819	0.0156
373.16	510	0.007696	-0.0994	0.0156
373.16	510	0.009593	-0.1242	0.0156
373.16	510	0.006354	-0.0816	0.0156
373.16	510	0.007696	-0.0993	0.0156
373.16	510	0.009593	-0.1232	0.0156
