Measured thermophysical data. Determination and Correlation of Excess Molar Enthalpies of Eight Binary Systems Containing Acetophenone at Different Temperatures
Source: J. Chem. Eng. Data, 2008, 10.1021/je800193a
Compound 1: acetophenone, C8H8O, InChI=1S/C8H8O/c1-7(9)8-5-3-2-4-6-8/h2-6H,1H3, purity 99.5%
Compound 2: butan-1-ol, C4H10O, InChI=1S/C4H10O/c1-2-3-4-5/h5H,2-4H2,1H3, purity 99.7%
Compound 3: 2-methyl-1-propanol, C4H10O, InChI=1S/C4H10O/c1-4(2)3-5/h4-5H,3H2,1-2H3, purity 99.7%
Compound 4: pentan-1-ol, C5H12O, InChI=1S/C5H12O/c1-2-3-4-5-6/h6H,2-5H2,1H3, purity 99.7%
Compound 5: heptane, C7H16, InChI=1S/C7H16/c1-3-5-7-6-4-2/h3-7H2,1-2H3, purity 99.5%
Compound 6: cyclohexane, C6H12, InChI=1S/C6H12/c1-2-4-6-5-3-1/h1-6H2, purity 99.5%
Compound 7: water, H2O, InChI=1S/H2O/h1H2
Compound 8: hexane, C6H14, InChI=1S/C6H14/c1-3-5-6-4-2/h3-6H2,1-2H3, purity 99.7%
Compound 9: ethyl acetate, C4H8O2, InChI=1S/C4H8O2/c1-3-6-4(2)5/h3H2,1-2H3, purity 99.5%

System: butan-1-ol + acetophenone; phases: Liquid
Fixed: Pressure, kPa = 101.3
Property: Excess molar enthalpy (molar enthalpy of mixing), kJ/mol (Liquid); method: Flow calorimetry
Temperature, K	Mole fraction of acetophenone	Excess molar enthalpy (molar enthalpy of mixing), kJ/mol	uncertainty
298.2	0.0996	0.6242	0.0141
298.2	0.2005	1.009	0.0221
298.2	0.3001	1.246	0.027
298.2	0.3501	1.3269	0.0286
298.2	0.4002	1.3849	0.0299
298.2	0.4504	1.4221	0.0307
298.2	0.5005	1.4387	0.031
298.2	0.5506	1.4353	0.0309
298.2	0.6006	1.4101	0.0304
298.2	0.6504	1.3638	0.0294
298.2	0.7001	1.2911	0.0279
298.2	0.8	1.0557	0.023
298.2	0.9001	0.6457	0.0146
313.2	0.0996	0.718	0.0162
313.2	0.2005	1.1839	0.0257
313.2	0.3001	1.4922	0.0321
313.2	0.3501	1.587	0.0341
313.2	0.4002	1.6569	0.0355
313.2	0.4504	1.6994	0.0364
313.2	0.5005	1.7162	0.0368
313.2	0.5506	1.7049	0.0365
313.2	0.6006	1.6674	0.0357
313.2	0.6504	1.597	0.0343
313.2	0.7001	1.4991	0.0322
313.2	0.8	1.1937	0.0259
313.2	0.9001	0.7094	0.0161
328.2	0.0996	0.7836	0.0177
328.2	0.2005	1.3155	0.0285
328.2	0.3001	1.65	0.0354
328.2	0.3501	1.7642	0.0378
328.2	0.4002	1.8444	0.0394
328.2	0.4504	1.8919	0.0404
328.2	0.5005	1.9075	0.0408
328.2	0.5506	1.8898	0.0404
328.2	0.6006	1.8425	0.0394
328.2	0.6504	1.7548	0.0376
328.2	0.7001	1.6365	0.0351
328.2	0.8	1.2776	0.0277
328.2	0.9001	0.7384	0.0168
338.2	0.0996	0.8087	0.0183
338.2	0.2005	1.3645	0.0296
338.2	0.3001	1.7253	0.037
338.2	0.3501	1.841	0.0394
338.2	0.4002	1.9236	0.0411
338.2	0.4504	1.9694	0.042
338.2	0.5005	1.981	0.0423
338.2	0.5506	1.9606	0.0419
338.2	0.6006	1.9025	0.0406
338.2	0.6504	1.8074	0.0387
338.2	0.7001	1.6749	0.0359
338.2	0.8	1.3003	0.0282
338.2	0.9001	0.7515	0.0171
348.2	0.0996	0.8241	0.0186
348.2	0.2005	1.4003	0.0303
348.2	0.3001	1.7694	0.0379
348.2	0.3501	1.8922	0.0404
348.2	0.4002	1.9743	0.0421
348.2	0.4504	2.0209	0.0431
348.2	0.5005	2.0302	0.0433
348.2	0.5506	2.0043	0.0428
348.2	0.6006	1.9376	0.0414
348.2	0.6504	1.8405	0.0394
348.2	0.7001	1.7037	0.0366
348.2	0.8	1.3241	0.0287
348.2	0.9001	0.7713	0.0175

System: 2-methyl-1-propanol + acetophenone; phases: Liquid
Fixed: Pressure, kPa = 101.3
Property: Excess molar enthalpy (molar enthalpy of mixing), kJ/mol (Liquid); method: Flow calorimetry
Temperature, K	Mole fraction of acetophenone	Excess molar enthalpy (molar enthalpy of mixing), kJ/mol	uncertainty
298.2	0.1005	0.6958	0.0156
298.2	0.201	1.1021	0.0241
298.2	0.301	1.3661	0.0296
298.2	0.3512	1.4489	0.0313
298.2	0.4014	1.5109	0.0326
298.2	0.4516	1.5502	0.0334
298.2	0.5017	1.5673	0.0337
298.2	0.5518	1.5614	0.0336
298.2	0.6016	1.5328	0.033
298.2	0.6513	1.4795	0.0319
298.2	0.7008	1.4005	0.0302
298.2	0.8016	1.1346	0.0247
298.2	0.901	0.6842	0.0155
313.2	0.1005	0.8039	0.0181
313.2	0.201	1.3046	0.0283
313.2	0.301	1.63	0.0351
313.2	0.3512	1.732	0.0372
313.2	0.4014	1.8068	0.0388
313.2	0.4516	1.8517	0.0397
313.2	0.5017	1.8663	0.04
313.2	0.5518	1.8521	0.0397
313.2	0.6016	1.8084	0.0388
313.2	0.6513	1.7354	0.0372
313.2	0.7008	1.626	0.035
313.2	0.8016	1.2766	0.0277
313.2	0.901	0.7414	0.0169
328.2	0.1005	0.9176	0.0206
328.2	0.201	1.4909	0.0323
328.2	0.301	1.8798	0.0403
328.2	0.3512	1.9901	0.0426
328.2	0.4014	2.0685	0.0442
328.2	0.4516	2.1068	0.045
328.2	0.5017	2.1136	0.0451
328.2	0.5518	2.0832	0.0445
328.2	0.6016	2.0162	0.0431
328.2	0.6513	1.9069	0.0408
328.2	0.7008	1.7708	0.038
328.2	0.8016	1.3564	0.0295
328.2	0.901	0.7646	0.0175
338.2	0.1005	0.9335	0.0209
338.2	0.201	1.5373	0.0332
338.2	0.301	1.9258	0.0412
338.2	0.3512	2.0417	0.0436
338.2	0.4014	2.1219	0.0453
338.2	0.4516	2.1601	0.0461
338.2	0.5017	2.1606	0.0461
338.2	0.5518	2.1247	0.0453
338.2	0.6016	2.0478	0.0437
338.2	0.6513	1.937	0.0414
338.2	0.7008	1.7838	0.0383
338.2	0.8016	1.3617	0.0296
338.2	0.901	0.7759	0.0177
348.2	0.1005	0.9399	0.0211
348.2	0.201	1.5442	0.0334
348.2	0.301	1.9341	0.0414
348.2	0.3512	2.0554	0.0439
348.2	0.4014	2.131	0.0455
348.2	0.4516	2.1731	0.0463
348.2	0.5017	2.1761	0.0464
348.2	0.5518	2.1332	0.0455
348.2	0.6016	2.0584	0.0439
348.2	0.6513	1.9531	0.0418
348.2	0.7008	1.7899	0.0384
348.2	0.8016	1.3781	0.0299
348.2	0.901	0.7837	0.0179

System: pentan-1-ol + acetophenone; phases: Liquid
Fixed: Pressure, kPa = 101.3
Property: Excess molar enthalpy (molar enthalpy of mixing), kJ/mol (Liquid); method: Flow calorimetry
Temperature, K	Mole fraction of acetophenone	Excess molar enthalpy (molar enthalpy of mixing), kJ/mol	uncertainty
298.2	0.1003	0.6312	0.0142
298.2	0.1998	1.0055	0.022
298.2	0.2998	1.2463	0.027
298.2	0.3497	1.3224	0.0285
298.2	0.4001	1.3809	0.0298
298.2	0.4496	1.416	0.0305
298.2	0.4994	1.4333	0.0309
298.2	0.5497	1.4305	0.0308
298.2	0.6004	1.4053	0.0303
298.2	0.6501	1.3587	0.0293
298.2	0.7003	1.2862	0.0278
298.2	0.8004	1.0532	0.023
298.2	0.8995	0.6528	0.0147
313.2	0.1003	0.7294	0.0165
313.2	0.1998	1.1853	0.0257
313.2	0.2998	1.4877	0.032
313.2	0.3497	1.5829	0.034
313.2	0.4001	1.657	0.0355
313.2	0.4496	1.7025	0.0365
313.2	0.4994	1.7213	0.0369
313.2	0.5497	1.7151	0.0368
313.2	0.6004	1.6808	0.036
313.2	0.6501	1.6148	0.0346
313.2	0.7003	1.5198	0.0327
313.2	0.8004	1.2173	0.0264
313.2	0.8995	0.7297	0.0166
328.2	0.1003	0.7779	0.0176
328.2	0.1998	1.3006	0.0282
328.2	0.2998	1.65	0.0354
328.2	0.3497	1.76	0.0377
328.2	0.4001	1.8448	0.0395
328.2	0.4496	1.8942	0.0405
328.2	0.4994	1.9116	0.0409
328.2	0.5497	1.8969	0.0405
328.2	0.6004	1.848	0.0395
328.2	0.6501	1.767	0.0378
328.2	0.7003	1.6453	0.0353
328.2	0.8004	1.2823	0.0278
328.2	0.8995	0.7402	0.0168
338.2	0.1003	0.7969	0.0181
338.2	0.1998	1.3569	0.0294
338.2	0.2998	1.7231	0.037
338.2	0.3497	1.8394	0.0393
338.2	0.4001	1.928	0.0412
338.2	0.4496	1.9781	0.0422
338.2	0.4994	1.995	0.0426
338.2	0.5497	1.9771	0.0422
338.2	0.6004	1.9201	0.041
338.2	0.6501	1.8337	0.0392
338.2	0.7003	1.706	0.0366
338.2	0.8004	1.3197	0.0286
338.2	0.8995	0.7602	0.0173
348.2	0.1003	0.8017	0.0182
348.2	0.1998	1.3706	0.0297
348.2	0.2998	1.7444	0.0374
348.2	0.3497	1.8709	0.04
348.2	0.4001	1.9593	0.0418
348.2	0.4496	2.0095	0.0429
348.2	0.4994	2.0246	0.0432
348.2	0.5497	2.0009	0.0427
348.2	0.6004	1.9406	0.0414
348.2	0.6501	1.8439	0.0394
348.2	0.7003	1.7173	0.0368
348.2	0.8004	1.3303	0.0289
348.2	0.8995	0.7699	0.0175

System: acetophenone + heptane; phases: Liquid
Fixed: Pressure, kPa = 101.3
Property: Excess molar enthalpy (molar enthalpy of mixing), kJ/mol (Liquid); method: Flow calorimetry
Temperature, K	Mole fraction of acetophenone	Excess molar enthalpy (molar enthalpy of mixing), kJ/mol	uncertainty
298.2	0.0999	0.7232	0.0161
298.2	0.2002	1.1327	0.0245
298.2	0.3005	1.3089	0.0281
298.2	0.3498	1.3498	0.0289
298.2	0.4007	1.3657	0.0293
298.2	0.4504	1.3669	0.0293
298.2	0.5003	1.3479	0.0289
298.2	0.5504	1.3112	0.0281
298.2	0.6006	1.2579	0.027
298.2	0.6496	1.1907	0.0256
298.2	0.6998	1.1031	0.0238
298.2	0.8001	0.8693	0.019
298.2	0.8999	0.5056	0.0116
313.2	0.0999	0.7422	0.0166
313.2	0.2002	1.1942	0.0258
313.2	0.3005	1.4262	0.0306
313.2	0.3498	1.4807	0.0317
313.2	0.4007	1.5155	0.0324
313.2	0.4504	1.5152	0.0324
313.2	0.5003	1.4979	0.0321
313.2	0.5504	1.4579	0.0312
313.2	0.6006	1.3989	0.03
313.2	0.6496	1.3212	0.0284
313.2	0.6998	1.2185	0.0263
313.2	0.8001	0.9386	0.0205
313.2	0.8999	0.5239	0.0121
328.2	0.0999	0.7646	0.0172
328.2	0.2002	1.2471	0.027
328.2	0.3005	1.5108	0.0324
328.2	0.3498	1.5808	0.0338
328.2	0.4007	1.6218	0.0347
328.2	0.4504	1.6358	0.035
328.2	0.5003	1.621	0.0347
328.2	0.5504	1.5803	0.0338
328.2	0.6006	1.5166	0.0325
328.2	0.6496	1.4318	0.0307
328.2	0.6998	1.318	0.0284
328.2	0.8001	1.0098	0.022
328.2	0.8999	0.5656	0.0131
338.2	0.0999	0.7679	0.0172
338.2	0.2002	1.259	0.0272
338.2	0.3005	1.5429	0.0331
338.2	0.3498	1.6242	0.0347
338.2	0.4007	1.6667	0.0356
338.2	0.4504	1.6817	0.0359
338.2	0.5003	1.671	0.0357
338.2	0.5504	1.6297	0.0348
338.2	0.6006	1.5621	0.0334
338.2	0.6496	1.4709	0.0315
338.2	0.6998	1.3503	0.029
338.2	0.8001	1.0253	0.0223
338.2	0.8999	0.5705	0.0132
348.2	0.0999	0.7702	0.0173
348.2	0.2002	1.2626	0.0273
348.2	0.3005	1.5444	0.0331
348.2	0.3498	1.6283	0.0348
348.2	0.4007	1.6738	0.0358
348.2	0.4504	1.6885	0.0361
348.2	0.5003	1.6761	0.0358
348.2	0.5504	1.6332	0.0349
348.2	0.6006	1.5661	0.0335
348.2	0.6496	1.4801	0.0317
348.2	0.6998	1.3619	0.0293
348.2	0.8001	1.0308	0.0225
348.2	0.8999	0.579	0.0133

System: acetophenone + cyclohexane; phases: Liquid
Fixed: Pressure, kPa = 101.3
Property: Excess molar enthalpy (molar enthalpy of mixing), kJ/mol (Liquid); method: Flow calorimetry
Temperature, K	Mole fraction of acetophenone	Excess molar enthalpy (molar enthalpy of mixing), kJ/mol	uncertainty
298.2	0.1004	0.752	0.0166
298.2	0.1999	1.1064	0.0239
298.2	0.2999	1.2778	0.0275
298.2	0.3499	1.3272	0.0285
298.2	0.4002	1.3495	0.0289
298.2	0.4497	1.3529	0.029
298.2	0.4996	1.3383	0.0287
298.2	0.5498	1.3038	0.028
298.2	0.6005	1.2524	0.0269
298.2	0.6503	1.1815	0.0254
298.2	0.7004	1.0909	0.0235
298.2	0.8005	0.8368	0.0183
298.2	0.8995	0.4751	0.011
313.2	0.1004	0.7966	0.0176
313.2	0.1999	1.1943	0.0258
313.2	0.2999	1.4062	0.0302
313.2	0.3499	1.4637	0.0313
313.2	0.4002	1.4906	0.0319
313.2	0.4497	1.4935	0.032
313.2	0.4996	1.4742	0.0316
313.2	0.5498	1.4331	0.0307
313.2	0.6005	1.3681	0.0293
313.2	0.6503	1.2832	0.0276
313.2	0.7004	1.1723	0.0253
313.2	0.8005	0.8732	0.0191
313.2	0.8995	0.4896	0.0113
328.2	0.1004	0.8071	0.0179
328.2	0.1999	1.236	0.0267
328.2	0.2999	1.4753	0.0316
328.2	0.3499	1.54	0.0329
328.2	0.4002	1.5664	0.0335
328.2	0.4497	1.5701	0.0336
328.2	0.4996	1.5479	0.0331
328.2	0.5498	1.501	0.0321
328.2	0.6005	1.4274	0.0306
328.2	0.6503	1.334	0.0286
328.2	0.7004	1.2091	0.0261
328.2	0.8005	0.8892	0.0194
328.2	0.8995	0.4932	0.0114
338.2	0.1004	0.8166	0.0181
338.2	0.1999	1.2652	0.0273
338.2	0.2999	1.5156	0.0325
338.2	0.3499	1.5764	0.0337
338.2	0.4002	1.6098	0.0344
338.2	0.4497	1.6133	0.0345
338.2	0.4996	1.5812	0.0338
338.2	0.5498	1.5371	0.0329
338.2	0.6005	1.4623	0.0313
338.2	0.6503	1.3637	0.0293
338.2	0.7004	1.2385	0.0267
338.2	0.8005	0.9114	0.0199
338.2	0.8995	0.5062	0.0117
348.2	0.1004	0.8194	0.0182
348.2	0.1999	1.2703	0.0274
348.2	0.2999	1.5211	0.0326
348.2	0.3499	1.5873	0.0339
348.2	0.4002	1.6223	0.0347
348.2	0.4497	1.6185	0.0346
348.2	0.4996	1.5997	0.0342
348.2	0.5498	1.5534	0.0332
348.2	0.6005	1.4777	0.0316
348.2	0.6503	1.3775	0.0296
348.2	0.7004	1.2513	0.027
348.2	0.8005	0.9267	0.0203
348.2	0.8995	0.511	0.0119

System: acetophenone + water; phases: Liquid
Fixed: Pressure, kPa = 101.3
Property: Excess molar enthalpy (molar enthalpy of mixing), kJ/mol (Liquid); method: Flow calorimetry
Temperature, K	Mole fraction of acetophenone	Excess molar enthalpy (molar enthalpy of mixing), kJ/mol	uncertainty
298.2	0.1002	0.0707	0.002
298.2	0.1997	0.1379	0.0033
298.2	0.3001	0.2059	0.0048
298.2	0.3991	0.273	0.0062
298.2	0.5003	0.3413	0.0077
298.2	0.5991	0.4078	0.0091
298.2	0.6986	0.4747	0.0105
298.2	0.7987	0.5414	0.012
298.2	0.8515	0.5757	0.0127
298.2	0.8967	0.5882	0.0132
298.2	0.9534	0.3006	0.0084
313.2	0.1002	0.0906	0.0024
313.2	0.1997	0.1775	0.0042
313.2	0.3001	0.2661	0.0061
313.2	0.3991	0.3538	0.0079
313.2	0.5003	0.4432	0.0099
313.2	0.5991	0.5306	0.0117
313.2	0.6986	0.6189	0.0136
313.2	0.7987	0.7047	0.0155
313.2	0.8515	0.7323	0.016
313.2	0.8967	0.6698	0.0151
313.2	0.9534	0.3317	0.0094
328.2	0.1002	0.1308	0.0033
328.2	0.1997	0.2478	0.0057
328.2	0.3001	0.3664	0.0082
328.2	0.3991	0.4854	0.0107
328.2	0.5003	0.6065	0.0133
328.2	0.5991	0.7243	0.0158
328.2	0.6986	0.8419	0.0183
328.2	0.7987	0.9599	0.0208
328.2	0.8515	1.0034	0.0217
328.2	0.8967	0.7887	0.0181
328.2	0.9534	0.3874	0.0112
338.2	0.1002	0.143	0.0035
338.2	0.1997	0.2544	0.0059
338.2	0.3001	0.3976	0.0089
338.2	0.3991	0.5178	0.0114
338.2	0.5003	0.6542	0.0143
338.2	0.5991	0.7878	0.0172
338.2	0.6986	0.9237	0.0201
338.2	0.7987	1.0601	0.023
338.2	0.8515	1.0241	0.0222
338.2	0.8967	0.8023	0.0184
338.2	0.9534	0.392	0.0111
348.2	0.1002	0.1671	0.0042
348.2	0.1997	0.323	0.0074
348.2	0.3001	0.4832	0.0108
348.2	0.3991	0.6392	0.0141
348.2	0.5003	0.8047	0.0176
348.2	0.5991	0.963	0.021
348.2	0.6986	1.1246	0.0245
348.2	0.7987	1.2868	0.0277
348.2	0.8515	1.1459	0.025
348.2	0.8967	0.8551	0.0197
348.2	0.9534	0.4186	0.012

System: acetophenone + hexane; phases: Liquid
Fixed: Pressure, kPa = 101.3
Property: Excess molar enthalpy (molar enthalpy of mixing), kJ/mol (Liquid); method: Flow calorimetry
Temperature, K	Mole fraction of acetophenone	Excess molar enthalpy (molar enthalpy of mixing), kJ/mol	uncertainty
298.2	0.0997	0.7064	0.0157
298.2	0.2	1.1021	0.0239
298.2	0.2994	1.2794	0.0275
298.2	0.3503	1.3243	0.0284
298.2	0.4006	1.3434	0.0288
298.2	0.4503	1.3421	0.0288
298.2	0.4995	1.3234	0.0284
298.2	0.5494	1.2875	0.0276
298.2	0.5999	1.234	0.0265
298.2	0.6499	1.164	0.025
298.2	0.7005	1.0759	0.0232
298.2	0.8	0.8368	0.0183
298.2	0.8995	0.4741	0.0109
313.2	0.0997	0.7225	0.0162
313.2	0.2	1.1583	0.025
313.2	0.2994	1.3759	0.0295
313.2	0.3503	1.4356	0.0307
313.2	0.4006	1.4608	0.0313
313.2	0.4503	1.4654	0.0314
313.2	0.4995	1.4466	0.031
313.2	0.5494	1.4048	0.0301
313.2	0.5999	1.3334	0.0286
313.2	0.6499	1.2262	0.0264
313.2	0.7005	1.1102	0.0239
313.2	0.8	0.8476	0.0185
313.2	0.8995	0.4831	0.0111
328.2	0.0997	0.7326	0.0164
328.2	0.2	1.1904	0.0257
328.2	0.2994	1.4302	0.0307
328.2	0.3503	1.4925	0.0319
328.2	0.4006	1.527	0.0326
328.2	0.4503	1.5344	0.0328
328.2	0.4995	1.5188	0.0325
328.2	0.5494	1.4769	0.0316
328.2	0.5999	1.4099	0.0302
328.2	0.6499	1.3077	0.0281
328.2	0.7005	1.1603	0.025
328.2	0.8	0.8676	0.019
328.2	0.8995	0.4912	0.0113

System: acetophenone + ethyl acetate; phases: Liquid
Fixed: Pressure, kPa = 101.3
Property: Excess molar enthalpy (molar enthalpy of mixing), kJ/mol (Liquid); method: Flow calorimetry
Temperature, K	Mole fraction of acetophenone	Excess molar enthalpy (molar enthalpy of mixing), kJ/mol	uncertainty
298.2	0.1	-0.0122	0.0009
298.2	0.2004	-0.0213	0.001
298.2	0.2999	-0.0276	0.0011
298.2	0.3501	-0.0296	0.0011
298.2	0.4002	-0.0309	0.0011
298.2	0.4503	-0.0316	0.0011
298.2	0.5002	-0.0316	0.0011
298.2	0.5997	-0.03	0.0011
298.2	0.7005	-0.0263	0.001
298.2	0.8004	-0.0202	0.0009
298.2	0.9003	-0.0103	0.0009
313.2	0.1	-0.0119	0.0009
313.2	0.2004	-0.0207	0.001
313.2	0.2999	-0.0266	0.001
313.2	0.3501	-0.0284	0.0011
313.2	0.4002	-0.0294	0.0011
313.2	0.4503	-0.0299	0.0011
313.2	0.5002	-0.0297	0.0011
313.2	0.5997	-0.0279	0.0011
313.2	0.7005	-0.024	0.001
313.2	0.8004	-0.018	0.0009
313.2	0.9003	-0.0098	0.0009
328.2	0.1	-0.0117	0.0009
328.2	0.2004	-0.0205	0.001
328.2	0.2999	-0.0262	0.001
328.2	0.3501	-0.0282	0.0011
328.2	0.4002	-0.029	0.0011
328.2	0.4503	-0.0292	0.0011
328.2	0.5002	-0.0288	0.0011
328.2	0.5997	-0.0267	0.001
328.2	0.7005	-0.0226	0.001
328.2	0.8004	-0.0164	0.0009
328.2	0.9003	-0.0082	0.0008
