Measured thermophysical data. Vapor-Liquid Critical Properties of Some Tetraalkoxysilanes
Source: J. Chem. Eng. Data, 2008, 10.1021/je800086s
Compound 1: silicon tetramethoxide, C4H12O4Si, InChI=1S/C4H12O4Si/c1-5-9(6-2,7-3)8-4/h1-4H3
Compound 2: tetraethoxysilane, C8H20O4Si, InChI=1S/C8H20O4Si/c1-5-9-13(10-6-2,11-7-3)12-8-4/h5-8H2,1-4H3
Compound 3: tetrapropyl silicate, C12H28O4Si, InChI=1S/C12H28O4Si/c1-5-9-13-17(14-10-6-2,15-11-7-3)16-12-8-4/h5-12H2,1-4H3
Compound 4: tetrabutyl silicate, C16H36O4Si, InChI=1S/C16H36O4Si/c1-5-9-13-17-21(18-14-10-6-2,19-15-11-7-3)20-16-12-8-4/h5-16H2,1-4H3
Compound 5: amyl orthosilicate, C20H44O4Si, InChI=1S/C20H44O4Si/c1-5-9-13-17-21-25(22-18-14-10-6-2,23-19-15-11-7-3)24-20-16-12-8-4/h5-20H2,1-4H3
Compound 6: hexyl silicate, C24H52O4Si, InChI=1S/C24H52O4Si/c1-5-9-13-17-21-25-29(26-22-18-14-10-6-2,27-23-19-15-11-7-3)28-24-20-16-12-8-4/h5-24H2,1-4H3
Compound 7: heptyl orthosilicate, C28H60O4Si, InChI=1S/C28H60O4Si/c1-5-9-13-17-21-25-29-33(30-26-22-18-14-10-6-2,31-27-23-19-15-11-7-3)32-28-24-20-16-12-8-4/h5-28H2,1-4H3
Compound 8: octyl orthosilicate, C32H68O4Si, InChI=1S/C32H68O4Si/c1-5-9-13-17-21-25-29-33-37(34-30-26-22-18-14-10-6-2,35-31-27-23-19-15-11-7-3)36-32-28-24-20-16-12-8-4/h5-32H2,1-4H3
Compound 9: tetranonoxysilane, C36H76O4Si, InChI=1S/C36H76O4Si/c1-5-9-13-17-21-25-29-33-37-41(38-34-30-26-22-18-14-10-6-2,39-35-31-27-23-19-15-11-7-3)40-36-32-28-24-20-16-12-8-4/h5-36H2,1-4H3
Compound 10: decyl orthosilicate, C40H84O4Si, InChI=1S/C40H84O4Si/c1-5-9-13-17-21-25-29-33-37-41-45(42-38-34-30-26-22-18-14-10-6-2,43-39-35-31-27-23-19-15-11-7-3)44-40-36-32-28-24-20-16-12-8-4/h5-40H2,1-4H3

System: silicon tetramethoxide; phases: Liquid, Gas
Property: Critical pressure, kPa (Liquid); method: pulse-heating procedure
Critical pressure, kPa	uncertainty
2890	180

System: silicon tetramethoxide; phases: Liquid, Gas
Property: Critical temperature, K (Liquid); method: pulse heating procedure
Critical temperature, K	uncertainty
558	12

System: tetraethoxysilane; phases: Liquid, Gas
Property: Critical pressure, kPa (Liquid); method: pulse-heating procedure
Critical pressure, kPa	uncertainty
2040	120

System: tetraethoxysilane; phases: Liquid, Gas
Property: Critical temperature, K (Liquid); method: pulse heating procedure
Critical temperature, K	uncertainty
587	12

System: tetrapropyl silicate; phases: Liquid, Gas
Property: Critical pressure, kPa (Liquid); method: pulse-heating procedure
Critical pressure, kPa	uncertainty
1370	80

System: tetrapropyl silicate; phases: Liquid, Gas
Property: Critical temperature, K (Liquid); method: pulse heating procedure
Critical temperature, K	uncertainty
649	12

System: tetrabutyl silicate; phases: Liquid, Gas
Property: Critical pressure, kPa (Liquid); method: pulse-heating procedure
Critical pressure, kPa	uncertainty
1100	60

System: tetrabutyl silicate; phases: Liquid, Gas
Property: Critical temperature, K (Liquid); method: pulse heating procedure
Critical temperature, K	uncertainty
682	14

System: amyl orthosilicate; phases: Liquid, Gas
Property: Critical pressure, kPa (Liquid); method: pulse-heating procedure
Critical pressure, kPa	uncertainty
890	60

System: amyl orthosilicate; phases: Liquid, Gas
Property: Critical temperature, K (Liquid); method: pulse heating procedure
Critical temperature, K	uncertainty
714	14

System: hexyl silicate; phases: Liquid, Gas
Property: Critical pressure, kPa (Liquid); method: pulse-heating procedure
Critical pressure, kPa	uncertainty
790	40

System: hexyl silicate; phases: Liquid, Gas
Property: Critical temperature, K (Liquid); method: pulse heating procedure
Critical temperature, K	uncertainty
757	16

System: heptyl orthosilicate; phases: Liquid, Gas
Property: Critical pressure, kPa (Liquid); method: pulse-heating procedure
Critical pressure, kPa	uncertainty
740	40

System: heptyl orthosilicate; phases: Liquid, Gas
Property: Critical temperature, K (Liquid); method: pulse heating procedure
Critical temperature, K	uncertainty
778	16

System: octyl orthosilicate; phases: Liquid, Gas
Property: Critical pressure, kPa (Liquid); method: pulse-heating procedure
Critical pressure, kPa	uncertainty
660	40

System: octyl orthosilicate; phases: Liquid, Gas
Property: Critical temperature, K (Liquid); method: pulse heating procedure
Critical temperature, K	uncertainty
812	16

System: tetranonoxysilane; phases: Liquid, Gas
Property: Critical pressure, kPa (Liquid); method: pulse-heating procedure
Critical pressure, kPa	uncertainty
610	40

System: tetranonoxysilane; phases: Liquid, Gas
Property: Critical temperature, K (Liquid); method: pulse heating procedure
Critical temperature, K	uncertainty
830	16

System: decyl orthosilicate; phases: Liquid, Gas
Property: Critical pressure, kPa (Liquid); method: pulse-heating procedure
Critical pressure, kPa	uncertainty
600	40

System: decyl orthosilicate; phases: Liquid, Gas
Property: Critical temperature, K (Liquid); method: pulse heating procedure
Critical temperature, K	uncertainty
849	16
