Measured thermophysical data. Dielectric Properties of Methanol Mixtures with Ethanol, Isomers of Propanol, and Butanol
Source: J. Chem. Eng. Data, 2009, 10.1021/je800593p
Compound 1: methanol, CH4O, InChI=1S/CH4O/c1-2/h2H,1H3
Compound 2: ethanol, C2H6O, InChI=1S/C2H6O/c1-2-3/h3H,2H2,1H3
Compound 3: propan-1-ol, C3H8O, InChI=1S/C3H8O/c1-2-3-4/h4H,2-3H2,1H3
Compound 4: propan-2-ol, C3H8O, InChI=1S/C3H8O/c1-3(2)4/h3-4H,1-2H3
Compound 5: butan-1-ol, C4H10O, InChI=1S/C4H10O/c1-2-3-4-5/h5H,2-4H2,1H3
Compound 6: 2-methyl-1-propanol, C4H10O, InChI=1S/C4H10O/c1-4(2)3-5/h4-5H,3H2,1-2H3
Compound 7: butan-2-ol, C4H10O, InChI=1S/C4H10O/c1-3-4(2)5/h4-5H,3H2,1-2H3
Compound 8: 2-methylpropan-2-ol, C4H10O, InChI=1S/C4H10O/c1-4(2,3)5/h5H,1-3H3

System: methanol; phases: Liquid
Property: Refractive index (Na D-line) (Liquid); method: Standard Abbe refractometry
Temperature, K	Pressure, kPa	Refractive index (Na D-line)	uncertainty
298.15	101.325	1.3266	0.0007

System: methanol; phases: Liquid
Property: Mass density, kg/m3 (Liquid); method: Pycnometric method
Temperature, K	Pressure, kPa	Mass density, kg/m3	uncertainty
298.15	101.325	786.67	0.71

System: methanol; phases: Liquid
Fixed: Pressure, kPa = 101
Property: Relative permittivity at zero frequency (Liquid); method: dielectrometer
Temperature, K	Relative permittivity at zero frequency	uncertainty
288.15	34.62	0.06
293.15	33.6	0.06
298.15	32.6	0.06
303.15	31.65	0.06
308.15	30.72	0.06

System: ethanol; phases: Liquid
Property: Refractive index (Na D-line) (Liquid); method: Standard Abbe refractometry
Temperature, K	Pressure, kPa	Refractive index (Na D-line)	uncertainty
298.15	101.325	1.3594	0.0007

System: ethanol; phases: Liquid
Property: Mass density, kg/m3 (Liquid); method: Pycnometric method
Temperature, K	Pressure, kPa	Mass density, kg/m3	uncertainty
298.15	101.325	785.1	0.71

System: ethanol; phases: Liquid
Fixed: Pressure, kPa = 101
Property: Relative permittivity at zero frequency (Liquid); method: OTHER::sMethod:dielectrometer
Temperature, K	Relative permittivity at zero frequency	uncertainty
288.15	25.92	0.06
293.15	25.12	0.06
298.15	24.35	0.06
303.15	23.6	0.06
308.15	22.87	0.06

System: propan-1-ol; phases: Liquid
Property: Refractive index (Na D-line) (Liquid); method: Standard Abbe refractometry
Temperature, K	Pressure, kPa	Refractive index (Na D-line)	uncertainty
298.15	101.325	1.3833	0.0007

System: propan-1-ol; phases: Liquid
Property: Mass density, kg/m3 (Liquid); method: Pycnometric method
Temperature, K	Pressure, kPa	Mass density, kg/m3	uncertainty
298.15	101.325	799.6	0.72

System: propan-1-ol; phases: Liquid
Fixed: Pressure, kPa = 101
Property: Relative permittivity at zero frequency (Liquid); method: OTHER::sMethod:dielectrometer
Temperature, K	Relative permittivity at zero frequency	uncertainty
288.15	21.87	0.06
293.15	21.15	0.06
298.15	20.45	0.06
303.15	19.78	0.06
308.15	19.13	0.06

System: propan-2-ol; phases: Liquid
Property: Refractive index (Na D-line) (Liquid); method: Standard Abbe refractometry
Temperature, K	Pressure, kPa	Refractive index (Na D-line)	uncertainty
298.15	101.325	1.3751	0.0007

System: propan-2-ol; phases: Liquid
Property: Mass density, kg/m3 (Liquid); method: Pycnometric method
Temperature, K	Pressure, kPa	Mass density, kg/m3	uncertainty
298.15	101.325	781.01	0.7

System: propan-2-ol; phases: Liquid
Fixed: Pressure, kPa = 101
Property: Relative permittivity at zero frequency (Liquid); method: OTHER::sMethod:dielectrometer
Temperature, K	Relative permittivity at zero frequency	uncertainty
288.15	21.22	0.06
293.15	20.31	0.06
298.15	19.43	0.06
303.15	18.59	0.06
308.15	17.79	0.06

System: butan-1-ol; phases: Liquid
Property: Refractive index (Na D-line) (Liquid); method: Standard Abbe refractometry
Temperature, K	Pressure, kPa	Refractive index (Na D-line)	uncertainty
298.15	101.325	1.3974	0.0007

System: butan-1-ol; phases: Liquid
Property: Mass density, kg/m3 (Liquid); method: Pycnometric method
Temperature, K	Pressure, kPa	Mass density, kg/m3	uncertainty
298.15	101.325	805.64	0.72

System: butan-1-ol; phases: Liquid
Fixed: Pressure, kPa = 101
Property: Relative permittivity at zero frequency (Liquid); method: OTHER::sMethod:dielectrometer
Temperature, K	Relative permittivity at zero frequency	uncertainty
288.15	19.01	0.06
293.15	18.28	0.06
298.15	17.58	0.06
303.15	16.91	0.06
308.15	16.26	0.06

System: 2-methyl-1-propanol; phases: Liquid
Property: Refractive index (Na D-line) (Liquid); method: Standard Abbe refractometry
Temperature, K	Pressure, kPa	Refractive index (Na D-line)	uncertainty
298.15	101.325	1.3938	0.0007

System: 2-methyl-1-propanol; phases: Liquid
Property: Mass density, kg/m3 (Liquid); method: Pycnometric method
Temperature, K	Pressure, kPa	Mass density, kg/m3	uncertainty
298.15	101.325	797.74	0.72

System: 2-methyl-1-propanol; phases: Liquid
Fixed: Pressure, kPa = 101
Property: Relative permittivity at zero frequency (Liquid); method: OTHER::sMethod:dielectrometer
Temperature, K	Relative permittivity at zero frequency	uncertainty
288.15	19.51	0.06
293.15	18.71	0.06
298.15	17.96	0.06
303.15	17.23	0.06
308.15	16.53	0.06

System: butan-2-ol; phases: Liquid
Property: Refractive index (Na D-line) (Liquid); method: Standard Abbe refractometry
Temperature, K	Pressure, kPa	Refractive index (Na D-line)	uncertainty
298.15	101.325	1.3953	0.0007

System: butan-2-ol; phases: Liquid
Property: Mass density, kg/m3 (Liquid); method: Pycnometric method
Temperature, K	Pressure, kPa	Mass density, kg/m3	uncertainty
298.15	101.325	802.14	0.72

System: butan-2-ol; phases: Liquid
Fixed: Pressure, kPa = 101
Property: Relative permittivity at zero frequency (Liquid); method: OTHER::sMethod:dielectrometer
Temperature, K	Relative permittivity at zero frequency	uncertainty
288.15	18.47	0.06
293.15	17.51	0.06
298.15	16.6	0.06
303.15	15.75	0.06
308.15	14.94	0.06

System: ethanol + methanol; phases: Liquid
Fixed: Pressure, kPa = 101
Property: Relative permittivity at zero frequency (Liquid); method: dielectrometer
Temperature, K	Mole fraction of ethanol	Relative permittivity at zero frequency	uncertainty
288.15	0	34.62	0.06
288.15	0.0517	34.02	0.06
288.15	0.1023	33.43	0.06
288.15	0.1496	32.84	0.06
288.15	0.2011	32.25	0.06
288.15	0.249	31.67	0.06
288.15	0.2997	31.12	0.06
288.15	0.3523	30.53	0.06
288.15	0.4021	30.04	0.06
288.15	0.4489	29.57	0.06
288.15	0.5031	29.1	0.06
288.15	0.5487	28.71	0.06
288.15	0.5995	28.34	0.06
288.15	0.6525	27.95	0.06
288.15	0.7017	27.66	0.06
288.15	0.7485	27.36	0.06
288.15	0.8022	27.07	0.06
288.15	0.8497	26.79	0.06
288.15	0.9026	26.52	0.06
288.15	0.9526	26.21	0.06
288.15	1	25.92	0.06
293.15	0	33.6	0.06
293.15	0.0517	32.97	0.06
293.15	0.1023	32.37	0.06
293.15	0.1496	31.78	0.06
293.15	0.2011	31.2	0.06
293.15	0.249	30.64	0.06
293.15	0.2997	30.11	0.06
293.15	0.3523	29.54	0.06
293.15	0.4021	29.08	0.06
293.15	0.4489	28.63	0.06
293.15	0.5031	28.18	0.06
293.15	0.5487	27.8	0.06
293.15	0.5995	27.45	0.06
293.15	0.6525	27.07	0.06
293.15	0.7017	26.78	0.06
293.15	0.7485	26.49	0.06
293.15	0.8022	26.21	0.06
293.15	0.8497	25.93	0.06
293.15	0.9026	25.68	0.06
293.15	0.9526	25.38	0.06
293.15	1	25.12	0.06
298.15	0	32.6	0.06
298.15	0.0517	31.96	0.06
298.15	0.1023	31.32	0.06
298.15	0.1496	30.78	0.06
298.15	0.2011	30.17	0.06
298.15	0.249	29.66	0.06
298.15	0.2997	29.11	0.06
298.15	0.3523	28.61	0.06
298.15	0.4021	28.13	0.06
298.15	0.4489	27.74	0.06
298.15	0.5031	27.28	0.06
298.15	0.5487	26.95	0.06
298.15	0.5995	26.57	0.06
298.15	0.6525	26.24	0.06
298.15	0.7017	25.91	0.06
298.15	0.7485	25.66	0.06
298.15	0.8022	25.35	0.06
298.15	0.8497	25.12	0.06
298.15	0.9026	24.84	0.06
298.15	0.9526	24.59	0.06
298.15	1	24.35	0.06
303.15	0	31.65	0.06
303.15	0.0517	30.97	0.06
303.15	0.1023	30.34	0.06
303.15	0.1496	29.76	0.06
303.15	0.2011	29.2	0.06
303.15	0.249	28.67	0.06
303.15	0.2997	28.19	0.06
303.15	0.3523	27.67	0.06
303.15	0.4021	27.25	0.06
303.15	0.4489	26.84	0.06
303.15	0.5031	26.44	0.06
303.15	0.5487	26.08	0.06
303.15	0.5995	25.75	0.06
303.15	0.6525	25.39	0.06
303.15	0.7017	25.11	0.06
303.15	0.7485	24.83	0.06
303.15	0.8022	24.56	0.06
303.15	0.8497	24.29	0.06
303.15	0.9026	24.06	0.06
303.15	0.9526	23.8	0.06
303.15	1	23.6	0.06
308.15	0	30.72	0.06
308.15	0.0517	30	0.06
308.15	0.1023	29.38	0.06
308.15	0.1496	28.8	0.06
308.15	0.2011	28.25	0.06
308.15	0.249	27.74	0.06
308.15	0.2997	27.27	0.06
308.15	0.3523	26.78	0.06
308.15	0.4021	26.38	0.06
308.15	0.4489	25.99	0.06
308.15	0.5031	25.6	0.06
308.15	0.5487	25.26	0.06
308.15	0.5995	24.94	0.06
308.15	0.6525	24.59	0.06
308.15	0.7017	24.32	0.06
308.15	0.7485	24.04	0.06
308.15	0.8022	23.77	0.06
308.15	0.8497	23.51	0.06
308.15	0.9026	23.29	0.06
308.15	0.9526	23.05	0.06
308.15	1	22.87	0.06

System: methanol + propan-1-ol; phases: Liquid
Fixed: Pressure, kPa = 101
Property: Relative permittivity at zero frequency (Liquid); method: dielectrometer
Temperature, K	Mole fraction of propan-1-ol	Relative permittivity at zero frequency	uncertainty
288.15	0	34.62	0.06
288.15	0.0498	33.41	0.06
288.15	0.1003	32.28	0.06
288.15	0.1497	31.23	0.06
288.15	0.1999	30.29	0.06
288.15	0.2501	29.37	0.06
288.15	0.3008	28.56	0.06
288.15	0.3497	27.79	0.06
288.15	0.4004	27.1	0.06
288.15	0.4499	26.45	0.06
288.15	0.5001	25.87	0.06
288.15	0.5503	25.31	0.06
288.15	0.6001	24.82	0.06
288.15	0.649	24.36	0.06
288.15	0.7004	23.93	0.06
288.15	0.7496	23.52	0.06
288.15	0.7998	23.17	0.06
288.15	0.8503	22.8	0.06
288.15	0.8997	22.5	0.06
288.15	0.9501	22.16	0.06
288.15	1	21.87	0.06
293.15	0	33.6	0.06
293.15	0.0498	32.44	0.06
293.15	0.1003	31.32	0.06
293.15	0.1497	30.35	0.06
293.15	0.1999	29.39	0.06
293.15	0.2501	28.53	0.06
293.15	0.3008	27.7	0.06
293.15	0.3497	26.99	0.06
293.15	0.4004	26.29	0.06
293.15	0.4499	25.68	0.06
293.15	0.5001	25.07	0.06
293.15	0.5503	24.56	0.06
293.15	0.6001	24.04	0.06
293.15	0.649	23.63	0.06
293.15	0.7004	23.15	0.06
293.15	0.7496	22.8	0.06
293.15	0.7998	22.41	0.06
293.15	0.8503	22.08	0.06
293.15	0.8997	21.74	0.06
293.15	0.9501	21.44	0.06
293.15	1	21.15	0.06
298.15	0	32.6	0.06
298.15	0.0498	31.49	0.06
298.15	0.1003	30.41	0.06
298.15	0.1497	29.46	0.06
298.15	0.1999	28.53	0.06
298.15	0.2501	27.7	0.06
298.15	0.3008	26.89	0.06
298.15	0.3497	26.2	0.06
298.15	0.4004	25.5	0.06
298.15	0.4499	24.91	0.06
298.15	0.5001	24.32	0.06
298.15	0.5503	23.8	0.06
298.15	0.6001	23.32	0.06
298.15	0.649	22.88	0.06
298.15	0.7004	22.44	0.06
298.15	0.7496	22.08	0.06
298.15	0.7998	21.69	0.06
298.15	0.8503	21.37	0.06
298.15	0.8997	21.04	0.06
298.15	0.9501	20.75	0.06
298.15	1	20.45	0.06
303.15	0	31.65	0.06
303.15	0.0498	30.57	0.06
303.15	0.1003	29.53	0.06
303.15	0.1497	28.61	0.06
303.15	0.1999	27.7	0.06
303.15	0.2501	26.9	0.06
303.15	0.3008	26.1	0.06
303.15	0.3497	25.42	0.06
303.15	0.4004	24.76	0.06
303.15	0.4499	24.17	0.06
303.15	0.5001	23.59	0.06
303.15	0.5503	23.09	0.06
303.15	0.6001	22.59	0.06
303.15	0.649	22.17	0.06
303.15	0.7004	21.74	0.06
303.15	0.7496	21.37	0.06
303.15	0.7998	21.01	0.06
303.15	0.8503	20.67	0.06
303.15	0.8997	20.36	0.06
303.15	0.9501	20.06	0.06
303.15	1	19.78	0.06
308.15	0	30.72	0.06
308.15	0.0498	29.67	0.06
308.15	0.1003	28.69	0.06
308.15	0.1497	27.76	0.06
308.15	0.1999	26.92	0.06
308.15	0.2501	26.09	0.06
308.15	0.3008	25.36	0.06
308.15	0.3497	24.66	0.06
308.15	0.4004	24.03	0.06
308.15	0.4499	23.44	0.06
308.15	0.5001	22.89	0.06
308.15	0.5503	22.37	0.06
308.15	0.6001	21.9	0.06
308.15	0.649	21.48	0.06
308.15	0.7004	21.06	0.06
308.15	0.7496	20.69	0.06
308.15	0.7998	20.34	0.06
308.15	0.8503	20	0.06
308.15	0.8997	19.7	0.06
308.15	0.9501	19.4	0.06
308.15	1	19.13	0.06

System: methanol + propan-2-ol; phases: Liquid
Fixed: Pressure, kPa = 101
Property: Relative permittivity at zero frequency (Liquid); method: dielectrometer
Temperature, K	Mole fraction of propan-2-ol	Relative permittivity at zero frequency	uncertainty
288.15	0	34.62	0.06
288.15	0.0501	33.29	0.06
288.15	0.1005	32.05	0.06
288.15	0.1499	30.98	0.06
288.15	0.199	29.96	0.06
288.15	0.2498	29.03	0.06
288.15	0.3003	28.14	0.06
288.15	0.349	27.39	0.06
288.15	0.3996	26.62	0.06
288.15	0.4501	25.94	0.06
288.15	0.4997	25.28	0.06
288.15	0.5502	24.7	0.06
288.15	0.6004	24.13	0.06
288.15	0.6502	23.64	0.06
288.15	0.6998	23.15	0.06
288.15	0.7502	22.74	0.06
288.15	0.7999	22.33	0.06
288.15	0.8497	22.01	0.06
288.15	0.901	21.68	0.06
288.15	0.9502	21.44	0.06
288.15	1	21.22	0.06
293.15	0	33.6	0.06
293.15	0.0501	32.31	0.06
293.15	0.1005	31.13	0.06
293.15	0.1499	30.05	0.06
293.15	0.199	29.09	0.06
293.15	0.2498	28.14	0.06
293.15	0.3003	27.31	0.06
293.15	0.349	26.52	0.06
293.15	0.3996	25.8	0.06
293.15	0.4501	25.1	0.06
293.15	0.4997	24.5	0.06
293.15	0.5502	23.89	0.06
293.15	0.6004	23.36	0.06
293.15	0.6502	22.84	0.06
293.15	0.6998	22.4	0.06
293.15	0.7502	21.94	0.06
293.15	0.7999	21.57	0.06
293.15	0.8497	21.19	0.06
293.15	0.901	20.87	0.06
293.15	0.9502	20.56	0.06
293.15	1	20.31	0.06
298.15	0	32.6	0.06
298.15	0.0501	31.37	0.06
298.15	0.1005	30.2	0.06
298.15	0.1499	29.18	0.06
298.15	0.199	28.21	0.06
298.15	0.2498	27.31	0.06
298.15	0.3003	26.45	0.06
298.15	0.349	25.72	0.06
298.15	0.3996	24.98	0.06
298.15	0.4501	24.33	0.06
298.15	0.4997	23.7	0.06
298.15	0.5502	23.14	0.06
298.15	0.6004	22.58	0.06
298.15	0.6502	22.11	0.06
298.15	0.6998	21.63	0.06
298.15	0.7502	21.21	0.06
298.15	0.7999	20.79	0.06
298.15	0.8497	20.44	0.06
298.15	0.901	20.06	0.06
298.15	0.9502	19.75	0.06
298.15	1	19.43	0.06
303.15	0	31.65	0.06
303.15	0.0501	30.46	0.06
303.15	0.1005	29.32	0.06
303.15	0.1499	28.32	0.06
303.15	0.199	27.37	0.06
303.15	0.2498	26.49	0.06
303.15	0.3003	25.64	0.06
303.15	0.349	24.93	0.06
303.15	0.3996	24.19	0.06
303.15	0.4501	23.56	0.06
303.15	0.4997	22.94	0.06
303.15	0.5502	22.39	0.06
303.15	0.6004	21.85	0.06
303.15	0.6502	21.38	0.06
303.15	0.6998	20.91	0.06
303.15	0.7502	20.49	0.06
303.15	0.7999	20.07	0.06
303.15	0.8497	19.7	0.06
303.15	0.901	19.29	0.06
303.15	0.9502	18.96	0.06
303.15	1	18.59	0.06
308.15	0	30.72	0.06
308.15	0.0501	29.56	0.06
308.15	0.1005	28.48	0.06
308.15	0.1499	27.47	0.06
308.15	0.199	26.57	0.06
308.15	0.2498	25.67	0.06
308.15	0.3003	24.88	0.06
308.15	0.349	24.14	0.06
308.15	0.3996	23.46	0.06
308.15	0.4501	22.79	0.06
308.15	0.4997	22.23	0.06
308.15	0.5502	21.65	0.06
308.15	0.6004	21.16	0.06
308.15	0.6502	20.66	0.06
308.15	0.6998	20.23	0.06
308.15	0.7502	19.77	0.06
308.15	0.7999	19.38	0.06
308.15	0.8497	18.96	0.06
308.15	0.901	18.58	0.06
308.15	0.9502	18.17	0.06
308.15	1	17.79	0.06

System: methanol + butan-1-ol; phases: Liquid
Fixed: Pressure, kPa = 101
Property: Relative permittivity at zero frequency (Liquid); method: dielectrometer
Temperature, K	Mole fraction of butan-1-ol	Relative permittivity at zero frequency	uncertainty
288.15	0	34.62	0.06
288.15	0.0504	32.77	0.06
288.15	0.0999	31.18	0.06
288.15	0.1503	29.72	0.06
288.15	0.199	28.5	0.06
288.15	0.2491	27.34	0.06
288.15	0.2993	26.34	0.06
288.15	0.3502	25.4	0.06
288.15	0.3999	24.61	0.06
288.15	0.4506	23.84	0.06
288.15	0.4969	23.23	0.06
288.15	0.5503	22.55	0.06
288.15	0.5993	22.01	0.06
288.15	0.6505	21.45	0.06
288.15	0.6993	20.99	0.06
288.15	0.7498	20.52	0.06
288.15	0.7975	20.16	0.06
288.15	0.8513	19.75	0.06
288.15	0.8991	19.47	0.06
288.15	0.9477	19.2	0.06
288.15	1	19.01	0.06
293.15	0	33.6	0.06
293.15	0.0504	31.82	0.06
293.15	0.0999	30.24	0.06
293.15	0.1503	28.85	0.06
293.15	0.199	27.62	0.06
293.15	0.2491	26.53	0.06
293.15	0.2993	25.52	0.06
293.15	0.3502	24.64	0.06
293.15	0.3999	23.83	0.06
293.15	0.4506	23.12	0.06
293.15	0.4969	22.49	0.06
293.15	0.5503	21.86	0.06
293.15	0.5993	21.29	0.06
293.15	0.6505	20.78	0.06
293.15	0.6993	20.29	0.06
293.15	0.7498	19.86	0.06
293.15	0.7975	19.45	0.06
293.15	0.8513	19.08	0.06
293.15	0.8991	18.76	0.06
293.15	0.9477	18.51	0.06
293.15	1	18.28	0.06
298.15	0	32.6	0.06
298.15	0.0504	30.88	0.06
298.15	0.0999	29.34	0.06
298.15	0.1503	27.99	0.06
298.15	0.199	26.8	0.06
298.15	0.2491	25.74	0.06
298.15	0.2993	24.75	0.06
298.15	0.3502	23.89	0.06
298.15	0.3999	23.1	0.06
298.15	0.4506	22.4	0.06
298.15	0.4969	21.78	0.06
298.15	0.5503	21.16	0.06
298.15	0.5993	20.61	0.06
298.15	0.6505	20.11	0.06
298.15	0.6993	19.63	0.06
298.15	0.7498	19.2	0.06
298.15	0.7975	18.8	0.06
298.15	0.8513	18.42	0.06
298.15	0.8991	18.09	0.06
298.15	0.9477	17.84	0.06
298.15	1	17.58	0.06
303.15	0	31.65	0.06
303.15	0.0504	29.97	0.06
303.15	0.0999	28.47	0.06
303.15	0.1503	27.16	0.06
303.15	0.199	25.99	0.06
303.15	0.2491	24.96	0.06
303.15	0.2993	24	0.06
303.15	0.3502	23.16	0.06
303.15	0.3999	22.38	0.06
303.15	0.4506	21.7	0.06
303.15	0.4969	21.1	0.06
303.15	0.5503	20.5	0.06
303.15	0.5993	19.95	0.06
303.15	0.6505	19.46	0.06
303.15	0.6993	18.98	0.06
303.15	0.7498	18.57	0.06
303.15	0.7975	18.16	0.06
303.15	0.8513	17.79	0.06
303.15	0.8991	17.45	0.06
303.15	0.9477	17.18	0.06
303.15	1	16.91	0.06
308.15	0	30.72	0.06
308.15	0.0504	29.08	0.06
308.15	0.0999	27.65	0.06
308.15	0.1503	26.33	0.06
308.15	0.199	25.24	0.06
308.15	0.2491	24.19	0.06
308.15	0.2993	23.29	0.06
308.15	0.3502	22.43	0.06
308.15	0.3999	21.71	0.06
308.15	0.4506	21.01	0.06
308.15	0.4969	20.46	0.06
308.15	0.5503	19.83	0.06
308.15	0.5993	19.33	0.06
308.15	0.6505	18.81	0.06
308.15	0.6993	18.38	0.06
308.15	0.7498	17.93	0.06
308.15	0.7975	17.57	0.06
308.15	0.8513	17.15	0.06
308.15	0.8991	16.85	0.06
308.15	0.9477	16.53	0.06
308.15	1	16.26	0.06

System: methanol + 2-methyl-1-propanol; phases: Liquid
Fixed: Pressure, kPa = 101
Property: Relative permittivity at zero frequency (Liquid); method: dielectrometer
Temperature, K	Mole fraction of 2-methyl-1-propanol	Relative permittivity at zero frequency	uncertainty
288.15	0	34.62	0.06
288.15	0.0503	32.7	0.06
288.15	0.1	31	0.06
288.15	0.1502	29.54	0.06
288.15	0.1999	28.23	0.06
288.15	0.2499	27.11	0.06
288.15	0.2998	26.08	0.06
288.15	0.3502	25.19	0.06
288.15	0.3995	24.38	0.06
288.15	0.4502	23.68	0.06
288.15	0.4996	23.02	0.06
288.15	0.5502	22.46	0.06
288.15	0.5992	21.93	0.06
288.15	0.6501	21.47	0.06
288.15	0.6991	21.05	0.06
288.15	0.749	20.7	0.06
288.15	0.7997	20.36	0.06
288.15	0.8501	20.1	0.06
288.15	0.8998	19.85	0.06
288.15	0.95	19.67	0.06
288.15	1	19.51	0.06
293.15	0	33.6	0.06
293.15	0.0503	31.75	0.06
293.15	0.1	30.11	0.06
293.15	0.1502	28.68	0.06
293.15	0.1999	27.39	0.06
293.15	0.2499	26.29	0.06
293.15	0.2998	25.27	0.06
293.15	0.3502	24.4	0.06
293.15	0.3995	23.61	0.06
293.15	0.4502	22.92	0.06
293.15	0.4996	22.28	0.06
293.15	0.5502	21.73	0.06
293.15	0.5992	21.22	0.06
293.15	0.6501	20.77	0.06
293.15	0.6991	20.34	0.06
293.15	0.749	19.99	0.06
293.15	0.7997	19.63	0.06
293.15	0.8501	19.35	0.06
293.15	0.8998	19.08	0.06
293.15	0.95	18.89	0.06
293.15	1	18.71	0.06
298.15	0	32.6	0.06
298.15	0.0503	30.82	0.06
298.15	0.1	29.22	0.06
298.15	0.1502	27.83	0.06
298.15	0.1999	26.58	0.06
298.15	0.2499	25.5	0.06
298.15	0.2998	24.5	0.06
298.15	0.3502	23.65	0.06
298.15	0.3995	22.87	0.06
298.15	0.4502	22.2	0.06
298.15	0.4996	21.57	0.06
298.15	0.5502	21.03	0.06
298.15	0.5992	20.52	0.06
298.15	0.6501	20.07	0.06
298.15	0.6991	19.65	0.06
298.15	0.749	19.29	0.06
298.15	0.7997	18.93	0.06
298.15	0.8501	18.64	0.06
298.15	0.8998	18.36	0.06
298.15	0.95	18.15	0.06
298.15	1	17.96	0.06
303.15	0	31.65	0.06
303.15	0.0503	29.91	0.06
303.15	0.1	28.36	0.06
303.15	0.1502	27.01	0.06
303.15	0.1999	25.79	0.06
303.15	0.2499	24.73	0.06
303.15	0.2998	23.76	0.06
303.15	0.3502	22.93	0.06
303.15	0.3995	22.16	0.06
303.15	0.4502	21.5	0.06
303.15	0.4996	20.88	0.06
303.15	0.5502	20.34	0.06
303.15	0.5992	19.84	0.06
303.15	0.6501	19.4	0.06
303.15	0.6991	18.97	0.06
303.15	0.749	18.62	0.06
303.15	0.7997	18.25	0.06
303.15	0.8501	17.96	0.06
303.15	0.8998	17.67	0.06
303.15	0.95	17.45	0.06
303.15	1	17.23	0.06
308.15	0	30.72	0.06
308.15	0.0503	29.03	0.06
308.15	0.1	27.55	0.06
308.15	0.1502	26.19	0.06
308.15	0.1999	25.04	0.06
308.15	0.2499	23.97	0.06
308.15	0.2998	23.06	0.06
308.15	0.3502	22.2	0.06
308.15	0.3995	21.49	0.06
308.15	0.4502	20.8	0.06
308.15	0.4996	20.23	0.06
308.15	0.5502	19.66	0.06
308.15	0.5992	19.2	0.06
308.15	0.6501	18.73	0.06
308.15	0.6991	18.35	0.06
308.15	0.749	17.95	0.06
308.15	0.7997	17.62	0.06
308.15	0.8501	17.29	0.06
308.15	0.8998	17.02	0.06
308.15	0.95	16.75	0.06
308.15	1	16.53	0.06

System: methanol + butan-2-ol; phases: Liquid
Fixed: Pressure, kPa = 101
Property: Relative permittivity at zero frequency (Liquid); method: dielectrometer
Temperature, K	Mole fraction of butan-2-ol	Relative permittivity at zero frequency	uncertainty
288.15	0	34.62	0.06
288.15	0.05	32.65	0.06
288.15	0.1001	30.89	0.06
288.15	0.1503	29.39	0.06
288.15	0.1999	28.06	0.06
288.15	0.2503	26.91	0.06
288.15	0.299	25.89	0.06
288.15	0.3502	24.98	0.06
288.15	0.3997	24.16	0.06
288.15	0.4501	23.43	0.06
288.15	0.4991	22.76	0.06
288.15	0.5489	22.16	0.06
288.15	0.6001	21.56	0.06
288.15	0.6492	21.05	0.06
288.15	0.7004	20.52	0.06
288.15	0.75	20.09	0.06
288.15	0.8004	19.64	0.06
288.15	0.8487	19.29	0.06
288.15	0.9002	18.93	0.06
288.15	0.9502	18.68	0.06
288.15	1	18.47	0.06
293.15	0	33.6	0.06
293.15	0.05	31.69	0.06
293.15	0.1001	30.02	0.06
293.15	0.1503	28.52	0.06
293.15	0.1999	27.26	0.06
293.15	0.2503	26.09	0.06
293.15	0.299	25.13	0.06
293.15	0.3502	24.19	0.06
293.15	0.3997	23.41	0.06
293.15	0.4501	22.66	0.06
293.15	0.4991	22.02	0.06
293.15	0.5489	21.38	0.06
293.15	0.6001	20.82	0.06
293.15	0.6492	20.27	0.06
293.15	0.7004	19.77	0.06
293.15	0.75	19.28	0.06
293.15	0.8004	18.86	0.06
293.15	0.8487	18.45	0.06
293.15	0.9002	18.09	0.06
293.15	0.9502	17.76	0.06
293.15	1	17.51	0.06
298.15	0	32.6	0.06
298.15	0.05	30.78	0.06
298.15	0.1001	29.13	0.06
298.15	0.1503	27.72	0.06
298.15	0.1999	26.45	0.06
298.15	0.2503	25.34	0.06
298.15	0.299	24.35	0.06
298.15	0.3502	23.47	0.06
298.15	0.3997	22.66	0.06
298.15	0.4501	21.94	0.06
298.15	0.4991	21.27	0.06
298.15	0.5489	20.67	0.06
298.15	0.6001	20.06	0.06
298.15	0.6492	19.55	0.06
298.15	0.7004	19.01	0.06
298.15	0.75	18.55	0.06
298.15	0.8004	18.07	0.06
298.15	0.8487	17.68	0.06
298.15	0.9002	17.26	0.06
298.15	0.9502	16.92	0.06
298.15	1	16.6	0.06
303.15	0	31.65	0.06
303.15	0.05	29.88	0.06
303.15	0.1001	28.29	0.06
303.15	0.1503	26.91	0.06
303.15	0.1999	25.67	0.06
303.15	0.2503	24.59	0.06
303.15	0.299	23.62	0.06
303.15	0.3502	22.74	0.06
303.15	0.3997	21.94	0.06
303.15	0.4501	21.23	0.06
303.15	0.4991	20.56	0.06
303.15	0.5489	19.97	0.06
303.15	0.6001	19.36	0.06
303.15	0.6492	18.84	0.06
303.15	0.7004	18.29	0.06
303.15	0.75	17.83	0.06
303.15	0.8004	17.33	0.06
303.15	0.8487	16.92	0.06
303.15	0.9002	16.48	0.06
303.15	0.9502	16.11	0.06
303.15	1	15.75	0.06
308.15	0	30.72	0.06
308.15	0.05	29	0.06
308.15	0.1001	27.49	0.06
308.15	0.1503	26.11	0.06
308.15	0.1999	24.94	0.06
308.15	0.2503	23.84	0.06
308.15	0.299	22.93	0.06
308.15	0.3502	22.02	0.06
308.15	0.3997	21.27	0.06
308.15	0.4501	20.53	0.06
308.15	0.4991	19.9	0.06
308.15	0.5489	19.27	0.06
308.15	0.6001	18.7	0.06
308.15	0.6492	18.14	0.06
308.15	0.7004	17.62	0.06
308.15	0.75	17.11	0.06
308.15	0.8004	16.65	0.06
308.15	0.8487	16.18	0.06
308.15	0.9002	15.75	0.06
308.15	0.9502	15.32	0.06
308.15	1	14.94	0.06

System: methanol + 2-methylpropan-2-ol; phases: Liquid
Fixed: Pressure, kPa = 101
Property: Relative permittivity at zero frequency (Liquid); method: dielectrometer
Temperature, K	Mole fraction of 2-methylpropan-2-ol	Relative permittivity at zero frequency	uncertainty
288.15	0	34.62	0.06
288.15	0.0503	32.62	0.06
288.15	0.0989	30.9	0.06
288.15	0.1505	29.28	0.06
288.15	0.201	27.86	0.06
288.15	0.249	26.66	0.06
288.15	0.3012	25.49	0.06
288.15	0.3488	24.52	0.06
288.15	0.3999	23.58	0.06
288.15	0.4505	22.73	0.06
288.15	0.4998	21.96	0.06
288.15	0.5503	21.21	0.06
288.15	0.5977	20.55	0.06
288.15	0.6478	19.86	0.06
288.15	0.7014	19.14	0.06
288.15	0.7508	18.47	0.06
288.15	0.798	17.82	0.06
288.15	0.8487	17.1	0.06
288.15	0.9011	16.32	0.06
293.15	0	33.6	0.06
293.15	0.0503	31.63	0.06
293.15	0.0989	29.94	0.06
293.15	0.1505	28.34	0.06
293.15	0.201	26.95	0.06
293.15	0.249	25.76	0.06
293.15	0.3012	24.6	0.06
293.15	0.3488	23.65	0.06
293.15	0.3999	22.72	0.06
293.15	0.4505	21.87	0.06
293.15	0.4998	21.1	0.06
293.15	0.5503	20.36	0.06
293.15	0.5977	19.68	0.06
293.15	0.6478	18.98	0.06
293.15	0.7014	18.23	0.06
293.15	0.7508	17.54	0.06
293.15	0.798	16.85	0.06
293.15	0.8487	16.09	0.06
293.15	0.9011	15.25	0.06
298.15	0	32.6	0.06
298.15	0.0503	30.68	0.06
298.15	0.0989	29.01	0.06
298.15	0.1505	27.45	0.06
298.15	0.201	26.06	0.06
298.15	0.249	24.91	0.06
298.15	0.3012	23.76	0.06
298.15	0.3488	22.84	0.06
298.15	0.3999	21.9	0.06
298.15	0.4505	21.09	0.06
298.15	0.4998	20.3	0.06
298.15	0.5503	19.57	0.06
298.15	0.5977	18.88	0.06
298.15	0.6478	18.19	0.06
298.15	0.7014	17.4	0.06
298.15	0.7508	16.7	0.06
298.15	0.798	15.98	0.06
298.15	0.8487	15.19	0.06
298.15	0.9011	14.29	0.06
303.15	0	31.65	0.06
303.15	0.0503	29.75	0.06
303.15	0.0989	28.1	0.06
303.15	0.1505	26.56	0.06
303.15	0.201	25.21	0.06
303.15	0.249	24.06	0.06
303.15	0.3012	22.93	0.06
303.15	0.3488	22	0.06
303.15	0.3999	21.09	0.06
303.15	0.4505	20.26	0.06
303.15	0.4998	19.49	0.06
303.15	0.5503	18.74	0.06
303.15	0.5977	18.05	0.06
303.15	0.6478	17.33	0.06
303.15	0.7014	16.55	0.06
303.15	0.7508	15.81	0.06
303.15	0.798	15.07	0.06
303.15	0.8487	14.23	0.06
303.15	0.9011	13.31	0.06
308.15	0	30.72	0.06
308.15	0.0503	28.85	0.06
308.15	0.0989	27.23	0.06
308.15	0.1505	25.7	0.06
308.15	0.201	24.38	0.06
308.15	0.249	23.25	0.06
308.15	0.3012	22.14	0.06
308.15	0.3488	21.22	0.06
308.15	0.3999	20.32	0.06
308.15	0.4505	19.49	0.06
308.15	0.4998	18.73	0.06
308.15	0.5503	17.98	0.06
308.15	0.5977	17.29	0.06
308.15	0.6478	16.56	0.06
308.15	0.7014	15.77	0.06
308.15	0.7508	15.01	0.06
308.15	0.798	14.25	0.06
308.15	0.8487	13.39	0.06
308.15	0.9011	12.44	0.06
