Measured thermophysical data. Densities and Excess Molar Volumes of the Ternary Mixture 2-Butanol + Chloroform + Benzene and Binary Mixtures 2-Butanol + Chloroform, or + Benzene over the Temperature Range (288.15 to 313.15) K
Source: J. Chem. Eng. Data, 2008, 10.1021/je800157v
Compound 1: butan-2-ol, C4H10O, InChI=1S/C4H10O/c1-3-4(2)5/h4-5H,3H2,1-2H3, purity 99%
Compound 2: trichloromethane, CHCl3, InChI=1S/CHCl3/c2-1(3)4/h1H, purity 99.8%
Compound 3: benzene, C6H6, InChI=1S/C6H6/c1-2-4-6-5-3-1/h1-6H, purity 99.9%

System: butan-2-ol; phases: Liquid
Fixed: Pressure, kPa = 101
Property: Mass density, kg/m3 (Liquid); method: VIBTUB:UFactor:4
Temperature, K	Mass density, kg/m3	uncertainty
288.15	810.64	0.55
293.15	806.59	0.56
298.15	802.47	0.56
303.15	798.27	0.57
308.15	793.97	0.57
313.15	789.59	0.58

System: trichloromethane; phases: Liquid
Fixed: Pressure, kPa = 101
Property: Mass density, kg/m3 (Liquid); method: VIBTUB:UFactor:4
Temperature, K	Mass density, kg/m3	uncertainty
288.15	1498.08	0.92
293.15	1488.64	0.91
298.15	1479.15	0.89
303.15	1469.61	0.88
308.15	1460.03	0.86
313.15	1450.41	0.85

System: benzene; phases: Liquid
Fixed: Pressure, kPa = 101
Property: Mass density, kg/m3 (Liquid); method: VIBTUB:UFactor:4
Temperature, K	Mass density, kg/m3	uncertainty
288.15	884.25	0.31
293.15	878.92	0.31
298.15	873.58	0.32
303.15	868.23	0.33
308.15	862.87	0.34
313.15	857.5	0.35

System: trichloromethane + butan-2-ol; phases: Liquid
Fixed: Pressure, kPa = 101
Property: Mass density, kg/m3 (Liquid); method: VIBTUB:UFactor:4
Temperature, K	Mole fraction of butan-2-ol	Mass density, kg/m3	uncertainty
288.15	0	1498.08	0.92
288.15	0.0514	1455.49	0.88
288.15	0.1045	1413.17	0.82
288.15	0.1518	1376.62	0.77
288.15	0.1962	1342.92	0.72
288.15	0.2512	1302.06	0.67
288.15	0.2998	1266.64	0.62
288.15	0.3507	1230.33	0.57
288.15	0.3995	1196.11	0.53
288.15	0.4502	1161.11	0.48
288.15	0.4978	1128.73	0.44
288.15	0.546	1096.47	0.39
288.15	0.6008	1060.39	0.35
288.15	0.6498	1028.63	0.31
288.15	0.7008	995.87	0.27
288.15	0.7446	968.17	0.32
288.15	0.7984	934.4	0.37
288.15	0.8507	901.92	0.42
288.15	0.9	871.62	0.47
288.15	0.9486	841.91	0.51
288.15	1	810.64	0.55
293.15	0	1488.64	0.91
293.15	0.0514	1446.33	0.86
293.15	0.1045	1404.26	0.8
293.15	0.1518	1367.94	0.75
293.15	0.1962	1334.49	0.71
293.15	0.2512	1293.92	0.65
293.15	0.2998	1258.77	0.61
293.15	0.3507	1222.74	0.56
293.15	0.3995	1188.78	0.51
293.15	0.4502	1154.06	0.47
293.15	0.4978	1121.94	0.42
293.15	0.546	1089.93	0.38
293.15	0.6008	1054.14	0.34
293.15	0.6498	1022.64	0.3
293.15	0.7008	990.15	0.28
293.15	0.7446	962.68	0.32
293.15	0.7984	929.2	0.38
293.15	0.8507	897	0.43
293.15	0.9	866.99	0.47
293.15	0.9486	837.56	0.52
293.15	1	806.59	0.56
298.15	0	1479.15	0.89
298.15	0.0514	1437.12	0.85
298.15	0.1045	1395.31	0.79
298.15	0.1518	1359.22	0.74
298.15	0.1962	1326.01	0.69
298.15	0.2512	1285.73	0.64
298.15	0.2998	1250.84	0.59
298.15	0.3507	1215.09	0.55
298.15	0.3995	1181.4	0.5
298.15	0.4502	1146.95	0.46
298.15	0.4978	1115.08	0.41
298.15	0.546	1083.34	0.37
298.15	0.6008	1047.83	0.33
298.15	0.6498	1016.59	0.29
298.15	0.7008	984.37	0.29
298.15	0.7446	957.13	0.33
298.15	0.7984	923.93	0.38
298.15	0.8507	892.02	0.43
298.15	0.9	862.29	0.48
298.15	0.9486	833.14	0.52
298.15	1	802.47	0.56
303.15	0	1469.61	0.88
303.15	0.0514	1427.86	0.83
303.15	0.1045	1386.31	0.77
303.15	0.1518	1350.44	0.72
303.15	0.1962	1317.48	0.68
303.15	0.2512	1277.49	0.63
303.15	0.2998	1242.86	0.58
303.15	0.3507	1207.39	0.53
303.15	0.3995	1173.96	0.49
303.15	0.4502	1139.78	0.44
303.15	0.4978	1108.17	0.4
303.15	0.546	1076.68	0.36
303.15	0.6008	1041.47	0.31
303.15	0.6498	1010.48	0.27
303.15	0.7008	978.52	0.29
303.15	0.7446	951.51	0.34
303.15	0.7984	918.6	0.39
303.15	0.8507	886.97	0.44
303.15	0.9	857.51	0.48
303.15	0.9486	828.64	0.53
303.15	1	798.27	0.57
308.15	0	1460.03	0.86
308.15	0.0514	1418.55	0.82
308.15	0.1045	1377.26	0.76
308.15	0.1518	1341.17	0.71
308.15	0.1962	1308.89	0.67
308.15	0.2512	1269.19	0.61
308.15	0.2998	1234.82	0.57
308.15	0.3507	1199.64	0.52
308.15	0.3995	1166.47	0.48
308.15	0.4502	1132.56	0.43
308.15	0.4978	1101.2	0.39
308.15	0.546	1069.96	0.35
308.15	0.6008	1035.03	0.3
308.15	0.6498	1004.3	0.26
308.15	0.7008	972.61	0.3
308.15	0.7446	945.82	0.34
308.15	0.7984	913.19	0.39
308.15	0.8507	881.84	0.44
308.15	0.9	852.65	0.49
308.15	0.9486	824.05	0.54
308.15	1	793.97	0.57
313.15	0	1450.41	0.85
313.15	0.0514	1409.22	0.8
313.15	0.1045	1368.2	0.75
313.15	0.1518	1332.78	0.7
313.15	0.1962	1300.27	0.65
313.15	0.2512	1260.86	0.6
313.15	0.2998	1226.74	0.55
313.15	0.3507	1191.86	0.51
313.15	0.3995	1158.94	0.46
313.15	0.4502	1125.28	0.42
313.15	0.4978	1094.2	0.38
313.15	0.546	1063.21	0.34
313.15	0.6008	1028.55	0.29
313.15	0.6498	998.07	0.26
313.15	0.7008	966.65	0.31
313.15	0.7446	940.07	0.35
313.15	0.7984	907.74	0.4
313.15	0.8507	876.65	0.45
313.15	0.9	847.72	0.5
313.15	0.9486	819.39	0.54
313.15	1	789.59	0.58

System: benzene + butan-2-ol; phases: Liquid
Fixed: Pressure, kPa = 101
Property: Mass density, kg/m3 (Liquid); method: VIBTUB:UFactor:4
Temperature, K	Mole fraction of butan-2-ol	Mass density, kg/m3	uncertainty
288.15	0	884.25	0.31
288.15	0.0511	879.01	0.32
288.15	0.0995	874.6	0.33
288.15	0.1508	870.04	0.34
288.15	0.2013	865.76	0.35
288.15	0.2482	861.91	0.36
288.15	0.2999	857.8	0.37
288.15	0.3486	854.03	0.38
288.15	0.3995	850.21	0.39
288.15	0.4509	846.44	0.4
288.15	0.5003	842.93	0.41
288.15	0.5498	839.48	0.42
288.15	0.5953	836.41	0.44
288.15	0.6487	832.84	0.45
288.15	0.7006	829.46	0.46
288.15	0.7493	826.32	0.48
288.15	0.802	822.97	0.49
288.15	0.8501	819.96	0.51
288.15	0.9003	816.84	0.52
288.15	0.9206	815.57	0.53
288.15	0.9479	813.92	0.53
288.15	1	810.64	0.55
293.15	0	878.92	0.31
293.15	0.0511	873.67	0.33
293.15	0.0995	869.29	0.33
293.15	0.1508	864.77	0.34
293.15	0.2013	860.54	0.35
293.15	0.2482	856.74	0.36
293.15	0.2999	852.69	0.37
293.15	0.3486	848.96	0.38
293.15	0.3995	845.2	0.4
293.15	0.4509	841.48	0.41
293.15	0.5003	838.02	0.42
293.15	0.5498	834.64	0.43
293.15	0.5953	831.62	0.44
293.15	0.6487	828.13	0.46
293.15	0.7006	824.83	0.47
293.15	0.7493	821.78	0.48
293.15	0.802	818.51	0.5
293.15	0.8501	815.6	0.51
293.15	0.9003	812.58	0.53
293.15	0.9206	811.36	0.53
293.15	0.9479	809.76	0.54
293.15	1	806.59	0.56
298.15	0	873.58	0.32
298.15	0.0511	868.33	0.33
298.15	0.0995	863.96	0.34
298.15	0.1508	859.48	0.35
298.15	0.2013	855.3	0.36
298.15	0.2482	851.54	0.37
298.15	0.2999	847.54	0.38
298.15	0.3486	843.86	0.39
298.15	0.3995	840.14	0.4
298.15	0.4509	836.49	0.42
298.15	0.5003	833.08	0.43
298.15	0.5498	829.75	0.44
298.15	0.5953	826.79	0.45
298.15	0.6487	823.37	0.46
298.15	0.7006	820.15	0.48
298.15	0.7493	817.17	0.49
298.15	0.802	814	0.5
298.15	0.8501	811.17	0.52
298.15	0.9003	808.25	0.53
298.15	0.9206	807.07	0.54
298.15	0.9479	804.85	0.55
298.15	1	802.47	0.56
303.15	0	868.23	0.33
303.15	0.0511	862.98	0.34
303.15	0.0995	858.62	0.35
303.15	0.1508	854.17	0.36
303.15	0.2013	850.02	0.37
303.15	0.2482	846.3	0.38
303.15	0.2999	842.35	0.39
303.15	0.3486	838.72	0.4
303.15	0.3995	835.05	0.41
303.15	0.4509	831.44	0.42
303.15	0.5003	828.08	0.43
303.15	0.5498	824.82	0.45
303.15	0.5953	821.91	0.46
303.15	0.6487	818.56	0.47
303.15	0.7006	815.4	0.48
303.15	0.7493	812.5	0.5
303.15	0.802	809.41	0.51
303.15	0.8501	806.66	0.52
303.15	0.9003	803.84	0.54
303.15	0.9206	802.7	0.54
303.15	0.9479	801.21	0.55
303.15	1	798.27	0.57
308.15	0	862.87	0.34
308.15	0.0511	857.61	0.35
308.15	0.0995	853.25	0.36
308.15	0.1508	848.83	0.37
308.15	0.2013	844.72	0.38
308.15	0.2482	841.03	0.39
308.15	0.2999	837.13	0.4
308.15	0.3486	833.54	0.41
308.15	0.3995	829.92	0.42
308.15	0.4509	826.35	0.43
308.15	0.5003	823.04	0.44
308.15	0.5498	819.82	0.45
308.15	0.5953	816.96	0.46
308.15	0.6487	813.68	0.48
308.15	0.7006	810.59	0.49
308.15	0.7493	807.75	0.5
308.15	0.802	804.74	0.52
308.15	0.8501	802.07	0.53
308.15	0.9003	799.34	0.54
308.15	0.9206	798.25	0.55
308.15	0.9479	796.18	0.56
308.15	1	793.97	0.57
313.15	0	857.5	0.35
313.15	0.0511	852.24	0.36
313.15	0.0995	847.89	0.37
313.15	0.1508	843.48	0.38
313.15	0.2013	839.39	0.39
313.15	0.2482	835.75	0.4
313.15	0.2999	831.88	0.41
313.15	0.3486	828.34	0.42
313.15	0.3995	824.76	0.43
313.15	0.4509	821.21	0.44
313.15	0.5003	817.96	0.45
313.15	0.5498	814.8	0.46
313.15	0.5953	811.96	0.47
313.15	0.6487	808.75	0.48
313.15	0.7006	805.73	0.5
313.15	0.7493	802.95	0.51
313.15	0.802	800.01	0.52
313.15	0.8501	797.4	0.53
313.15	0.9003	794.77	0.55
313.15	0.9206	793.72	0.55
313.15	0.9479	791.73	0.56
313.15	1	789.59	0.58

System: trichloromethane + benzene + butan-2-ol; phases: Liquid
Fixed: Pressure, kPa = 101
Property: Mass density, kg/m3 (Liquid); method: VIBTUB:UFactor:4
Temperature, K	Mole fraction of butan-2-ol	Mole fraction of trichloromethane	Mass density, kg/m3	uncertainty
288.15	0.0191	0.9009	1427.48	0.82
288.15	0.0211	0.7895	1353.37	0.7
288.15	0.0318	0.6986	1292.92	0.61
288.15	0.0387	0.9007	1424.87	0.82
288.15	0.0388	0.8009	1358.45	0.71
288.15	0.0409	0.6001	1229.4	0.51
288.15	0.0489	0.5008	1167.29	0.41
288.15	0.0592	0.4006	1105.86	0.32
288.15	0.0615	0.896	1418.83	0.81
288.15	0.062	0.6968	1288.21	0.61
288.15	0.0707	0.2988	1044.78	0.23
288.15	0.0776	0.2164	996.74	0.18
288.15	0.0788	0.7992	1352.45	0.71
288.15	0.0798	0.6005	1225.34	0.51
288.15	0.0806	0.897	1417.16	0.81
288.15	0.0893	0.1023	931.55	0.26
288.15	0.0994	0.5001	1161.69	0.41
288.15	0.1187	0.698	1282.9	0.61
288.15	0.1207	0.3985	1098.48	0.32
288.15	0.1218	0.7944	1344.59	0.7
288.15	0.141	0.3031	1040.53	0.23
288.15	0.1563	0.8031	1346.52	0.71
288.15	0.1583	0.5986	1216.2	0.5
288.15	0.1589	0.1999	979.86	0.2
288.15	0.1753	0.8042	1345.14	0.72
288.15	0.1793	0.0998	922.23	0.28
288.15	0.1819	0.6937	1273.77	0.6
288.15	0.1893	0.5052	1156.07	0.41
288.15	0.2374	0.702	1273.34	0.61
288.15	0.2379	0.3933	1084.89	0.31
288.15	0.2415	0.5993	1208.94	0.51
288.15	0.2698	0.6978	1267.89	0.61
288.15	0.2808	0.2987	1026.14	0.23
288.15	0.2988	0.4987	1142.74	0.41
288.15	0.319	0.1999	966.86	0.24
288.15	0.32	0.6006	1202.87	0.51
288.15	0.3452	0.1017	910.08	0.31
288.15	0.3602	0.6008	1199.72	0.52
288.15	0.3617	0.3993	1078.19	0.32
288.15	0.3981	0.4995	1135.05	0.42
288.15	0.4192	0.3	1015.94	0.23
288.15	0.4497	0.4984	1130.13	0.42
288.15	0.4785	0.2021	956.12	0.27
288.15	0.4795	0.4012	1070.23	0.33
288.15	0.5383	0.401	1066.01	0.34
288.15	0.5393	0.1003	895.12	0.36
288.15	0.5596	0.3001	1005.99	0.24
288.15	0.6298	0.2995	1000.62	0.25
288.15	0.6412	0.1996	943.24	0.32
288.15	0.7182	0.202	939.81	0.34
288.15	0.719	0.1002	883.93	0.41
288.15	0.8103	0.1	877.08	0.44
293.15	0.0191	0.9009	1418.57	0.81
293.15	0.0211	0.7895	1345.01	0.69
293.15	0.0318	0.6986	1284.95	0.6
293.15	0.0387	0.9007	1415.95	0.81
293.15	0.0388	0.8009	1350.05	0.7
293.15	0.0409	0.6001	1221.91	0.5
293.15	0.0489	0.5008	1160.22	0.4
293.15	0.0592	0.4006	1099.17	0.31
293.15	0.0615	0.896	1409.94	0.8
293.15	0.062	0.6968	1280.28	0.59
293.15	0.0707	0.2988	1038.48	0.23
293.15	0.0776	0.2164	990.73	0.19
293.15	0.0788	0.7992	1344.03	0.7
293.15	0.0798	0.6005	1217.84	0.5
293.15	0.0806	0.897	1408.24	0.8
293.15	0.0893	0.1023	925.92	0.27
293.15	0.0994	0.5001	1154.62	0.4
293.15	0.1187	0.698	1274.96	0.59
293.15	0.1207	0.3985	1091.82	0.31
293.15	0.1218	0.7944	1336.19	0.69
293.15	0.141	0.3031	1034.25	0.22
293.15	0.1563	0.8031	1338.08	0.7
293.15	0.1583	0.5986	1208.72	0.49
293.15	0.1589	0.1999	973.96	0.21
293.15	0.1753	0.8042	1336.77	0.7
293.15	0.1793	0.0998	916.68	0.29
293.15	0.1819	0.6937	1265.88	0.59
293.15	0.1893	0.5052	1149.02	0.4
293.15	0.2374	0.702	1265.5	0.6
293.15	0.2379	0.3933	1078.33	0.3
293.15	0.2415	0.5993	1201.52	0.49
293.15	0.2698	0.6978	1260.01	0.6
293.15	0.2808	0.2987	1019.98	0.22
293.15	0.2988	0.4987	1135.78	0.4
293.15	0.319	0.1999	961.1	0.24
293.15	0.32	0.6006	1195.48	0.5
293.15	0.3452	0.1017	904.68	0.32
293.15	0.3602	0.6008	1192.37	0.51
293.15	0.3617	0.3993	1071.71	0.31
293.15	0.3981	0.4995	1128.15	0.41
293.15	0.4192	0.3	1009.91	0.22
293.15	0.4497	0.4984	1123.31	0.41
293.15	0.4785	0.2021	950.53	0.28
293.15	0.4795	0.4012	1063.87	0.32
293.15	0.5383	0.401	1059.69	0.32
293.15	0.5393	0.1003	889.95	0.37
293.15	0.5596	0.3001	1000.1	0.23
293.15	0.6298	0.2995	994.82	0.25
293.15	0.6412	0.1996	937.84	0.33
293.15	0.7182	0.202	934.51	0.35
293.15	0.719	0.1002	878.7	0.42
293.15	0.8103	0.1	872.3	0.44
298.15	0.0191	0.9009	1409.61	0.79
298.15	0.0211	0.7895	1336.61	0.68
298.15	0.0318	0.6986	1276.99	0.58
298.15	0.0387	0.9007	1406.99	0.79
298.15	0.0388	0.8009	1341.59	0.69
298.15	0.0409	0.6001	1214.38	0.49
298.15	0.0489	0.5008	1153.11	0.39
298.15	0.0592	0.4006	1092.46	0.3
298.15	0.0615	0.896	1400.98	0.79
298.15	0.062	0.6968	1272.31	0.58
298.15	0.0707	0.2988	1032.15	0.22
298.15	0.0776	0.2164	984.69	0.19
298.15	0.0788	0.7992	1335.56	0.68
298.15	0.0798	0.6005	1210.3	0.49
298.15	0.0806	0.897	1399.29	0.79
298.15	0.0893	0.1023	920.26	0.28
298.15	0.0994	0.5001	1147.51	0.39
298.15	0.1187	0.698	1266.98	0.58
298.15	0.1207	0.3985	1085.12	0.3
298.15	0.1218	0.7944	1327.74	0.68
298.15	0.141	0.3031	1027.93	0.22
298.15	0.1563	0.8031	1329.59	0.69
298.15	0.1583	0.5986	1201.21	0.48
298.15	0.1589	0.1999	968.02	0.22
298.15	0.1753	0.8042	1328.32	0.69
298.15	0.1793	0.0998	911.09	0.3
298.15	0.1819	0.6937	1257.93	0.58
298.15	0.1893	0.5052	1141.92	0.39
298.15	0.2374	0.702	1257.58	0.59
298.15	0.2379	0.3933	1071.72	0.29
298.15	0.2415	0.5993	1194.03	0.48
298.15	0.2698	0.6978	1252.08	0.58
298.15	0.2808	0.2987	1013.78	0.21
298.15	0.2988	0.4987	1128.78	0.39
298.15	0.319	0.1999	955.3	0.25
298.15	0.32	0.6006	1188.04	0.49
298.15	0.3452	0.1017	899.24	0.33
298.15	0.3602	0.6008	1184.95	0.49
298.15	0.3617	0.3993	1065.18	0.3
298.15	0.3981	0.4995	1121.2	0.4
298.15	0.4192	0.3	1003.83	0.22
298.15	0.4497	0.4984	1116.43	0.4
298.15	0.4785	0.2021	944.87	0.29
298.15	0.4795	0.4012	1057.46	0.31
298.15	0.5383	0.401	1053.31	0.31
298.15	0.5393	0.1003	884.73	0.38
298.15	0.5596	0.3001	994.16	0.24
298.15	0.6298	0.2995	988.96	0.26
298.15	0.6412	0.1996	932.38	0.33
298.15	0.7182	0.202	929.14	0.35
298.15	0.719	0.1002	873.35	0.42
298.15	0.8103	0.1	867.45	0.45
303.15	0.0191	0.9009	1400.6	0.78
303.15	0.0211	0.7895	1328.17	0.66
303.15	0.0318	0.6986	1268.98	0.57
303.15	0.0387	0.9007	1397.98	0.78
303.15	0.0388	0.8009	1333.09	0.67
303.15	0.0409	0.6001	1206.82	0.48
303.15	0.0489	0.5008	1145.97	0.38
303.15	0.0592	0.4006	1085.72	0.29
303.15	0.0615	0.896	1391.99	0.77
303.15	0.062	0.6968	1264.3	0.57
303.15	0.0707	0.2988	1025.79	0.21
303.15	0.0776	0.2164	978.63	0.2
303.15	0.0788	0.7992	1327.06	0.67
303.15	0.0798	0.6005	1202.72	0.47
303.15	0.0806	0.897	1390.28	0.77
303.15	0.0893	0.1023	914.58	0.29
303.15	0.0994	0.5001	1140.35	0.38
303.15	0.1187	0.698	1258.94	0.57
303.15	0.1207	0.3985	1078.39	0.29
303.15	0.1218	0.7944	1319.24	0.66
303.15	0.141	0.3031	1021.57	0.21
303.15	0.1563	0.8031	1321.05	0.67
303.15	0.1583	0.5986	1193.65	0.47
303.15	0.1589	0.1999	962.04	0.23
303.15	0.1753	0.8042	1319.8	0.68
303.15	0.1793	0.0998	905.48	0.3
303.15	0.1819	0.6937	1249.93	0.56
303.15	0.1893	0.5052	1134.77	0.38
303.15	0.2374	0.702	1249.58	0.57
303.15	0.2379	0.3933	1065.06	0.28
303.15	0.2415	0.5993	1186.49	0.47
303.15	0.2698	0.6978	1244.09	0.57
303.15	0.2808	0.2987	1007.53	0.2
303.15	0.2988	0.4987	1121.73	0.38
303.15	0.319	0.1999	949.45	0.26
303.15	0.32	0.6006	1180.54	0.48
303.15	0.3452	0.1017	893.76	0.34
303.15	0.3602	0.6008	1177.48	0.48
303.15	0.3617	0.3993	1058.6	0.29
303.15	0.3981	0.4995	1114.19	0.38
303.15	0.4192	0.3	997.7	0.21
303.15	0.4497	0.4984	1109.5	0.39
303.15	0.4785	0.2021	939.17	0.29
303.15	0.4795	0.4012	1050.98	0.3
303.15	0.5383	0.401	1046.87	0.3
303.15	0.5393	0.1003	879.45	0.38
303.15	0.5596	0.3001	988.17	0.25
303.15	0.6298	0.2995	983.04	0.27
303.15	0.6412	0.1996	926.86	0.34
303.15	0.7182	0.202	923.71	0.36
303.15	0.719	0.1002	868.03	0.43
303.15	0.8103	0.1	862.53	0.46
308.15	0.0191	0.9009	1391.54	0.76
308.15	0.0211	0.7895	1319.67	0.65
308.15	0.0318	0.6986	1260.92	0.56
308.15	0.0387	0.9007	1388.92	0.76
308.15	0.0388	0.8009	1324.53	0.66
308.15	0.0409	0.6001	1199.21	0.46
308.15	0.0489	0.5008	1138.79	0.37
308.15	0.0592	0.4006	1078.95	0.28
308.15	0.0615	0.896	1382.94	0.76
308.15	0.062	0.6968	1256.24	0.56
308.15	0.0707	0.2988	1019.41	0.2
308.15	0.0776	0.2164	972.55	0.21
308.15	0.0788	0.7992	1318.5	0.66
308.15	0.0798	0.6005	1195.1	0.46
308.15	0.0806	0.897	1381.22	0.76
308.15	0.0893	0.1023	908.88	0.29
308.15	0.0994	0.5001	1133.16	0.37
308.15	0.1187	0.698	1250.86	0.55
308.15	0.1207	0.3985	1071.62	0.28
308.15	0.1218	0.7944	1310.7	0.65
308.15	0.141	0.3031	1015.18	0.2
308.15	0.1563	0.8031	1312.46	0.66
308.15	0.1583	0.5986	1186.04	0.46
308.15	0.1589	0.1999	956.04	0.23
308.15	0.1753	0.8042	1311.2	0.66
308.15	0.1793	0.0998	899.82	0.31
308.15	0.1819	0.6937	1241.87	0.55
308.15	0.1893	0.5052	1127.57	0.37
308.15	0.2374	0.702	1241.5	0.56
308.15	0.2379	0.3933	1058.35	0.27
308.15	0.2415	0.5993	1178.9	0.46
308.15	0.2698	0.6978	1236.04	0.56
308.15	0.2808	0.2987	1001.24	0.19
308.15	0.2988	0.4987	1114.61	0.37
308.15	0.319	0.1999	943.55	0.27
308.15	0.32	0.6006	1172.98	0.46
308.15	0.3452	0.1017	888.23	0.34
308.15	0.3602	0.6008	1169.94	0.47
308.15	0.3617	0.3993	1051.96	0.28
308.15	0.3981	0.4995	1107.14	0.37
308.15	0.4192	0.3	991.5	0.22
308.15	0.4497	0.4984	1102.49	0.38
308.15	0.4785	0.2021	933.4	0.3
308.15	0.4795	0.4012	1044.42	0.29
308.15	0.5383	0.401	1040.37	0.29
308.15	0.5393	0.1003	874.12	0.39
308.15	0.5596	0.3001	982.11	0.25
308.15	0.6298	0.2995	977.05	0.27
308.15	0.6412	0.1996	921.28	0.35
308.15	0.7182	0.202	918.2	0.37
308.15	0.719	0.1002	862.81	0.44
308.15	0.8103	0.1	857.53	0.46
313.15	0.0191	0.9009	1382.43	0.75
313.15	0.0211	0.7895	1311.14	0.64
313.15	0.0318	0.6986	1252.83	0.55
313.15	0.0387	0.9007	1379.82	0.75
313.15	0.0388	0.8009	1315.94	0.65
313.15	0.0409	0.6001	1191.58	0.45
313.15	0.0489	0.5008	1131.57	0.36
313.15	0.0592	0.4006	1072.18	0.27
313.15	0.0615	0.896	1373.85	0.74
313.15	0.062	0.6968	1248.14	0.54
313.15	0.0707	0.2988	1013.02	0.19
313.15	0.0776	0.2164	966.46	0.21
313.15	0.0788	0.7992	1309.91	0.64
313.15	0.0798	0.6005	1187.46	0.45
313.15	0.0806	0.897	1372.12	0.74
313.15	0.0893	0.1023	903.17	0.3
313.15	0.0994	0.5001	1125.93	0.36
313.15	0.1187	0.698	1242.74	0.54
313.15	0.1207	0.3985	1064.83	0.27
313.15	0.1218	0.7944	1302.11	0.64
313.15	0.141	0.3031	1008.78	0.19
313.15	0.1563	0.8031	1303.82	0.65
313.15	0.1583	0.5986	1178.4	0.44
313.15	0.1589	0.1999	950.01	0.24
313.15	0.1753	0.8042	1302.56	0.65
313.15	0.1793	0.0998	894.16	0.32
313.15	0.1819	0.6937	1233.76	0.54
313.15	0.1893	0.5052	1120.33	0.36
313.15	0.2374	0.702	1233.37	0.55
313.15	0.2379	0.3933	1051.6	0.26
313.15	0.2415	0.5993	1171.26	0.45
313.15	0.2698	0.6978	1227.95	0.54
313.15	0.2808	0.2987	994.92	0.2
313.15	0.2988	0.4987	1107.44	0.35
313.15	0.319	0.1999	937.64	0.27
313.15	0.32	0.6006	1165.37	0.45
313.15	0.3452	0.1017	882.69	0.35
313.15	0.3602	0.6008	1162.35	0.46
313.15	0.3617	0.3993	1045.28	0.27
313.15	0.3981	0.4995	1100.08	0.36
313.15	0.4192	0.3	985.27	0.23
313.15	0.4497	0.4984	1095.44	0.36
313.15	0.4785	0.2021	927.6	0.31
313.15	0.4795	0.4012	1037.83	0.28
313.15	0.5383	0.401	1033.8	0.28
313.15	0.5393	0.1003	868.75	0.4
313.15	0.5596	0.3001	975.99	0.26
313.15	0.6298	0.2995	971.01	0.28
313.15	0.6412	0.1996	915.68	0.35
313.15	0.7182	0.202	912.66	0.37
313.15	0.719	0.1002	857.63	0.44
313.15	0.8103	0.1	852.47	0.47
