Measured thermophysical data. Vapor-Liquid Equilibrium for 1-Butanol + 1-Butene at (318.4 and 364.5) K and Vapor-Liquid Equilibrium of 1-Butanol + 2-Methylpropane, + n-Butane and 1-Butene + 2-Methylpropane at 318.4 K
Source: J. Chem. Eng. Data, 2008, 10.1021/je8004672
Compound 1: 1-butene, C4H8, InChI=1S/C4H8/c1-3-4-2/h3H,1,4H2,2H3
Compound 2: butan-1-ol, C4H10O, InChI=1S/C4H10O/c1-2-3-4-5/h5H,2-4H2,1H3
Compound 3: 2-methylpropane, C4H10, InChI=1S/C4H10/c1-4(2)3/h4H,1-3H3
Compound 4: butane, C4H10, InChI=1S/C4H10/c1-3-4-2/h3-4H2,1-2H3

System: 1-butene; phases: Liquid, Gas
Property: Vapor or sublimation pressure, kPa (Liquid); method: Closed cell (Static) method
Temperature, K	Vapor or sublimation pressure, kPa	uncertainty
318.32	525.2	2.4
318.4	525.8	2.2
364.53	1509.4	5.2

System: butan-1-ol; phases: Liquid, Gas
Property: Vapor or sublimation pressure, kPa (Liquid); method: Closed cell (Static) method
Temperature, K	Vapor or sublimation pressure, kPa	uncertainty
318.35	3.9	0.8
318.35	3.6	0.8
318.4	3.6	0.6
364.52	36.3	1.4

System: 2-methylpropane; phases: Liquid, Gas
Property: Vapor or sublimation pressure, kPa (Liquid); method: Closed cell (Static) method
Temperature, K	Vapor or sublimation pressure, kPa	uncertainty
318.33	607.8	2.6
318.34	608.1	2.6

System: butane; phases: Liquid, Gas
Property: Vapor or sublimation pressure, kPa (Liquid); method: Closed cell (Static) method
Temperature, K	Vapor or sublimation pressure, kPa	uncertainty
318.35	436.2	2

System: butan-1-ol + 1-butene; phases: Liquid, Gas
Property: Vapor or sublimation pressure, kPa (Liquid); method: Closed cell (Static) method
Temperature, K	Mole fraction of 1-butene	Vapor or sublimation pressure, kPa	uncertainty
318.4	0	3.6	0.6
318.4	0.0156	27.2	2.1
318.4	0.0341	53.8	3.2
318.4	0.0518	78.3	3.7
318.4	0.099	138.6	5.3
318.4	0.1469	192.5	6.4
318.4	0.1964	241.1	6.7
318.4	0.4976	416.2	3.9
318.4	0.4977	416.3	3.9
318.4	0.5468	431	3.4
318.4	0.5961	443.7	3.1
318.4	0.6451	454.7	2.8
318.4	0.6946	464.6	2.6
318.4	0.7441	473.6	2.4
318.4	0.7942	482.2	2.3
318.4	0.8446	490.5	2.2
318.4	0.8942	498.6	2.2
318.4	0.947	508.2	2.2
318.4	0.9671	512.9	2.2
318.4	0.9759	515.4	2.2
318.4	0.9874	519.4	2.2
318.4	1	525.8	2.2
318.41	0.2461	283.2	6.7
318.41	0.2958	319.2	6.3
318.41	0.3456	349.8	5.7
318.41	0.3966	376.1	5.2
318.41	0.4472	398	4.5
364.49	0.3917	943.2	14.6
364.49	0.7903	1306.1	7.2
364.5	0.4439	1009.7	13.2
364.5	0.5445	1116.5	10.9
364.51	0.5928	1159.8	9.9
364.51	0.7399	1271.5	7.7
364.51	0.8412	1342.7	6.7
364.52	0	36.3	1.4
364.52	0.0931	333	12.8
364.52	0.1394	458.9	15.1
364.52	0.2374	684.9	16.9
364.52	0.2884	782.2	16.7
364.52	0.3394	867.4	15.6
364.52	0.4969	1069.5	12
364.52	0.6413	1199.4	9.1
364.52	0.69	1236.2	8.3
364.52	0.8926	1382.5	6.5
364.52	0.9447	1432.1	5.9
364.52	0.968	1460.6	5.9
364.52	0.9796	1477.3	5.7
364.53	0.0124	79	5
364.53	0.0299	138.6	6.8
364.53	0.0473	194	8.7
364.53	0.1883	578.3	16.8
364.53	0.496	1068.7	12
364.53	0.9897	1492.9	5.6
364.53	1	1509.4	5.2

System: butan-1-ol + 2-methylpropane; phases: Liquid, Gas
Property: Vapor or sublimation pressure, kPa (Liquid); method: Closed cell (Static) method
Temperature, K	Mole fraction of 2-methylpropane	Vapor or sublimation pressure, kPa	uncertainty
318.34	0.0518	105.3	5.2
318.34	0.0986	185.6	7.4
318.34	0.1463	254.8	8.8
318.34	0.3445	439.6	5.7
318.34	0.3958	467.2	5.5
318.34	0.4473	489.8	4.7
318.34	0.4982	507.6	4.1
318.34	0.4991	507.8	4.1
318.34	0.5483	521.5	3.6
318.34	0.5974	533.1	3.4
318.34	0.7961	568.1	2.8
318.34	0.846	575.8	2.7
318.34	0.8973	583.8	2.7
318.34	0.9485	592.5	2.6
318.34	0.9696	596.8	2.7
318.34	0.9896	602.5	2.7
318.34	1	608.1	2.6
318.35	0	3.9	0.8
318.35	0.0161	38	3.3
318.35	0.0338	72.4	4.4
318.35	0.1935	312.7	7.5
318.35	0.2429	363	8
318.35	0.2942	405.8	7.9
318.35	0.646	543.1	3
318.35	0.696	552.1	2.9
318.35	0.7458	560.2	2.8

System: butan-1-ol + butane; phases: Liquid, Gas
Property: Vapor or sublimation pressure, kPa (Liquid); method: Closed cell (Static) method
Temperature, K	Mole fraction of butane	Vapor or sublimation pressure, kPa	uncertainty
318.34	0.5502	375	2.8
318.34	0.7971	409.6	2.1
318.34	0.8458	415	2
318.35	0	3.6	0.8
318.35	0.0124	22.7	2.2
318.35	0.0311	49.7	3.2
318.35	0.0501	75.2	3.6
318.35	0.0977	132.5	5.4
318.35	0.1941	223.3	5.3
318.35	0.2438	258.9	5.6
318.35	0.2957	289.6	5.6
318.35	0.3967	333.8	3.7
318.35	0.4482	350.3	3.6
318.35	0.4988	364.2	3.4
318.35	0.4991	363.6	3.3
318.35	0.5961	383.2	2.4
318.35	0.6462	391	2.3
318.35	0.6966	397.8	2.2
318.35	0.7465	403.9	2.1
318.35	0.8982	420.8	2
318.35	0.9483	426.7	2
318.35	0.9692	429.6	2
318.35	0.9893	433.2	2
318.35	1	436.2	2
318.36	0.146	182	5.8
318.36	0.3474	314.5	4.6

System: 2-methylpropane + 1-butene; phases: Liquid, Gas
Property: Vapor or sublimation pressure, kPa (Liquid); method: Closed cell (Static) method
Temperature, K	Mole fraction of 1-butene	Vapor or sublimation pressure, kPa	uncertainty
318.32	0.8	546.9	2.5
318.32	0.8494	541.8	2.5
318.32	0.8982	536.6	2.4
318.32	0.9479	531.1	2.4
318.32	0.9678	528.9	2.4
318.32	0.9872	526.6	2.4
318.32	1	525.2	2.4
318.33	0	607.8	2.6
318.33	0.0094	607.3	2.6
318.33	0.0288	606.2	2.6
318.33	0.1017	602.1	2.6
318.33	0.1519	599.2	2.6
318.33	0.6507	561.3	2.6
318.33	0.7005	556.7	2.6
318.33	0.7502	551.9	2.6
318.34	0.0501	605.1	2.6
318.34	0.2019	596	2.6
318.34	0.2521	592.8	2.6
318.34	0.3019	589.6	2.7
318.34	0.3522	586	2.7
318.34	0.5014	574.4	2.7
318.34	0.5514	570.2	2.7
318.34	0.6011	565.8	2.7
318.35	0.4023	582.3	2.7
318.35	0.4517	578.6	2.7
318.35	0.5016	574.7	2.7
