Measured thermophysical data. Solubility of Sebacic Acid in Binary Mixtures Containing Alcohols
Source: J. Chem. Eng. Data, 2009, 10.1021/je800549f
Compound 1: 1,10-decanedioic acid, C10H18O4, InChI=1S/C10H18O4/c11-9(12)7-5-3-1-2-4-6-8-10(13)14/h1-8H2,(H,11,12)(H,13,14)
Compound 2: ethanol, C2H6O, InChI=1S/C2H6O/c1-2-3/h3H,2H2,1H3
Compound 3: propan-1-ol, C3H8O, InChI=1S/C3H8O/c1-2-3-4/h4H,2-3H2,1H3
Compound 4: water, H2O, InChI=1S/H2O/h1H2

System: propan-1-ol + 1,10-decanedioic acid; phases: Liquid, Crystal
Fixed: Pressure, kPa = 101.3
Property: Solid-liquid equilibrium temperature, K (Liquid); method: laser monitoring
Mole fraction of 1,10-decanedioic acid	Solid-liquid equilibrium temperature, K	uncertainty
0.009	292	1
0.01353	297.66	1
0.01624	300.34	1
0.02127	304.99	1
0.02606	308.87	1
0.03004	311.8	1
0.03442	314.56	1
0.04289	318.74	1
0.04756	321.5	1
0.05294	323.44	1
0.06141	327.14	1
0.07582	331.86	1
0.09025	336.76	1
0.09561	337.71	1
0.1086	340.3	1
0.1096	340.35	1
0.118	342.05	1
0.1333	345.08	1
0.1425	347.47	1
0.1548	348.62	1

System: propan-1-ol + 1,10-decanedioic acid + water; phases: Liquid, Crystal
Fixed: Pressure, kPa = 101
Property: Solid-liquid equilibrium temperature, K (Liquid); method: laser monitoring
Solvent: Mole fraction of propan-1-ol	Mole fraction of 1,10-decanedioic acid	Solid-liquid equilibrium temperature, K	uncertainty
0.2	0.00275	295.41	1
0.2	0.00295	296.72	1
0.2	0.00475	300.83	1
0.2	0.00604	303.93	1
0.2	0.00663	305.74	1
0.2	0.00858	309.56	1
0.2	0.00945	311.1	1
0.2	0.01084	313.47	1
0.2	0.01229	315.38	1
0.2	0.01431	317.73	1
0.2	0.01789	322.99	1
0.2	0.01968	324.89	1
0.2	0.0258	329.28	1
0.2	0.0316	332.94	1
0.2	0.03927	335.8	1
0.2	0.04446	338.32	1
0.2	0.05075	340.5	1
0.4	0.00506	291.32	1
0.4	0.00912	294	1
0.4	0.00947	295.65	1
0.4	0.01014	295.95	1
0.4	0.01235	299.97	1
0.4	0.01488	302.24	1
0.4	0.01879	307.14	1
0.4	0.02151	309.32	1
0.4	0.02593	312.9	1
0.4	0.03018	316.1	1
0.4	0.0342	318.34	1
0.4	0.03838	321.05	1
0.4	0.04275	323.37	1
0.4	0.04951	326.35	1
0.4	0.0559	328.52	1
0.4	0.06435	332.32	1
0.4	0.07124	334.72	1
0.4	0.0784	336.74	1
0.4	0.08466	338.24	1
0.4	0.09326	340.76	1
0.4	0.1023	342.77	1
0.4	0.1123	345.12	1
0.4	0.1235	347.84	1
0.4	0.1334	349.77	1
0.6011	0.00967	292.05	1
0.6011	0.01402	295.65	1
0.6011	0.01746	298.75	1
0.6011	0.02319	302.96	1
0.6011	0.02851	307.59	1
0.6011	0.03288	311.08	1
0.6011	0.03714	314.44	1
0.6011	0.04364	316.82	1
0.6011	0.05089	320.6	1
0.6011	0.05655	322.35	1
0.6011	0.06181	325.15	1
0.6011	0.06739	327.45	1
0.6011	0.07662	331.15	1
0.6011	0.08673	334.8	1
0.6011	0.09363	336.71	1
0.6011	0.1055	338.5	1
0.6011	0.1171	341.32	1
0.6011	0.1294	344.31	1
0.6011	0.1427	347.66	1
0.8003	0.01355	292.21	1
0.8003	0.01786	297.06	1
0.8003	0.02346	301.92	1
0.8003	0.02847	305.97	1
0.8003	0.03279	309.37	1
0.8003	0.03623	311.66	1
0.8003	0.04338	316.25	1
0.8003	0.04846	318.03	1
0.8003	0.05555	321.3	1
0.8003	0.06137	324	1
0.8003	0.06812	327.07	1
0.8003	0.08864	333.29	1
0.8003	0.09676	335.43	1
0.8003	0.1092	339.05	1
0.8003	0.1221	342.15	1
0.8003	0.1354	345	1
1	0.009	292	1
1	0.01353	297.66	1
1	0.01624	300.34	1
1	0.02127	304.99	1
1	0.02606	308.87	1
1	0.03004	311.8	1
1	0.03442	314.56	1
1	0.04289	318.74	1
1	0.04756	321.5	1
1	0.05294	323.44	1
1	0.06141	327.14	1
1	0.07582	331.86	1
1	0.09025	336.76	1
1	0.09561	337.71	1
1	0.1086	340.3	1
1	0.1096	340.35	1
1	0.118	342.05	1
1	0.1333	345.08	1
1	0.1425	347.47	1
1	0.1548	348.62	1

System: ethanol + 1,10-decanedioic acid + water; phases: Liquid, Crystal
Fixed: Pressure, kPa = 101
Property: Solid-liquid equilibrium temperature, K (Liquid); method: laser monitoring
Solvent: Mole fraction of ethanol	Mole fraction of 1,10-decanedioic acid	Solid-liquid equilibrium temperature, K	uncertainty
0.1435	6.041e-05	289.3	1
0.1435	9.592e-05	295.54	1
0.1435	0.0001164	295.59	1
0.1435	0.0002297	303.14	1
0.1435	0.0003659	305.49	1
0.1435	0.0004959	308.31	1
0.1435	0.0006598	310.34	1
0.1435	0.000857	313.16	1
0.1435	0.00112	317.05	1
0.1435	0.001432	319.8	1
0.1435	0.001862	322.49	1
0.1435	0.002552	325.53	1
0.1435	0.003304	327.71	1
0.1435	0.005117	330.68	1
0.1435	0.007287	334.78	1
0.1435	0.01039	337.59	1
0.1435	0.01431	340.74	1
0.1435	0.0179	343.69	1
0.1435	0.02065	345.8	1
0.1435	0.02572	348.68	1
0.1435	0.02892	350.74	1
0.3697	0.0009859	288.47	1
0.3697	0.001752	290.55	1
0.3697	0.002669	292.67	1
0.3697	0.003383	296.97	1
0.3697	0.004199	298.05	1
0.3697	0.005313	300.16	1
0.3697	0.00679	303.65	1
0.3697	0.008567	306.66	1
0.3697	0.009566	309.06	1
0.3697	0.01131	309.87	1
0.3697	0.01445	313.7	1
0.3697	0.01567	316.14	1
0.3697	0.01975	318.45	1
0.3697	0.02411	321.57	1
0.3697	0.02939	325.86	1
0.3697	0.03071	326.92	1
0.3697	0.03621	328.87	1
0.3697	0.04242	331.34	1
0.3697	0.04908	334.33	1
0.3697	0.05562	336.44	1
0.3697	0.06235	338.74	1
0.3697	0.06906	340.33	1
0.3697	0.07357	341.96	1
0.3697	0.08348	344.16	1
0.3697	0.09221	346.04	1
0.3697	0.1002	348.01	1
0.3697	0.1085	350.08	1
0.7981	0.0094	292.46	1
0.7981	0.01451	295.74	1
0.7981	0.02024	300.8	1
0.7981	0.02476	305.24	1
0.7981	0.02975	308.56	1
0.7981	0.03533	311.91	1
0.7981	0.04198	316.01	1
0.7981	0.05025	319.91	1
0.7981	0.05489	321.52	1
0.7981	0.06388	325.39	1
0.7981	0.07326	328.73	1
0.7981	0.08456	332.44	1
0.7981	0.09393	335.53	1
0.7981	0.1046	337.88	1
0.7981	0.1167	340.48	1
0.7981	0.1306	344.04	1
0.9	0.02702	305.77	1
0.9	0.03892	313.76	1
0.9	0.05358	321.26	1
