Measured thermophysical data. Thermo Physical Properties of 4-Hydroxy 4-Methyl Pentanone with Nitrobenzene or Ethyl Benzene at Temperatures of (303.15, 313.15, and 323.15) K and a Pressure of 0.1 MPa
Source: J. Chem. Eng. Data, 2008, 10.1021/je8002699
Compound 1: 4-hydroxy-4-methylpentan-2-one, C6H12O2, InChI=1S/C6H12O2/c1-5(7)4-6(2,3)8/h8H,4H2,1-3H3
Compound 2: nitrobenzene, C6H5NO2, InChI=1S/C6H5NO2/c8-7(9)6-4-2-1-3-5-6/h1-5H
Compound 3: ethylbenzene, C8H10, InChI=1S/C8H10/c1-2-8-6-4-3-5-7-8/h3-7H,2H2,1H3
Compound 4: toluene, C7H8, InChI=1S/C7H8/c1-7-5-3-2-4-6-7/h2-6H,1H3

System: 4-hydroxy-4-methylpentan-2-one; phases: Liquid, Air at 1 atmosphere
Property: Surface tension liquid-gas, N/m (Liquid); method: RINGTE::UFactor:2
Temperature, K	Surface tension liquid-gas, N/m	uncertainty
303.15	0.02944	0.00085
313.15	0.02892	0.00084
323.15	0.02812	0.00082
323.15	0.02712	0.0008

System: 4-hydroxy-4-methylpentan-2-one; phases: Liquid
Fixed: Pressure, kPa = 101.325
Property: Refractive index (Na D-line) (Liquid); method: ABBE::UFactor:16
Temperature, K	Refractive index (Na D-line)	uncertainty
303.15	1.4239	0.005
313.15	1.4198	0.005
323.15	1.4151	0.005

System: 4-hydroxy-4-methylpentan-2-one; phases: Liquid
Fixed: Pressure, kPa = 101
Property: Viscosity, Pa*s (Liquid); method: CAPTUB:UFactor:8
Temperature, K	Viscosity, Pa*s	uncertainty
293.15	0.00289	0.0001311
303.15	0.00289	0.0001303
313.15	0.002791	0.0001261
323.15	0.00267	0.000121

System: 4-hydroxy-4-methylpentan-2-one; phases: Liquid
Fixed: Pressure, kPa = 101
Property: Speed of sound, m/s (Liquid); method: LVPAI::UFactor:4
Temperature, K	Speed of sound, m/s	uncertainty
303.15	1256	6
313.15	1183	5
323.15	1121	5

System: 4-hydroxy-4-methylpentan-2-one; phases: Liquid
Fixed: Pressure, kPa = 101
Property: Mass density, kg/m3 (Liquid); method: PYCNOM:UFactor:32
Temperature, K	Mass density, kg/m3	uncertainty
293.15	938	7
303.15	936	7.8
313.15	912	8.3
323.15	901	8.9

System: nitrobenzene; phases: Liquid, Air at 1 atmosphere
Property: Surface tension liquid-gas, N/m (Liquid); method: RINGTE::UFactor:2
Temperature, K	Surface tension liquid-gas, N/m	uncertainty
303.15	0.0409	0.00111
313.15	0.03824	0.00105
323.15	0.03647	0.00101

System: nitrobenzene; phases: Liquid
Fixed: Pressure, kPa = 101.325
Property: Refractive index (Na D-line) (Liquid); method: ABBE::UFactor:16
Temperature, K	Refractive index (Na D-line)	uncertainty
303.15	1.5504	0.005
313.15	1.5476	0.005
323.15	1.5435	0.005

System: nitrobenzene; phases: Liquid
Fixed: Pressure, kPa = 101
Property: Viscosity, Pa*s (Liquid); method: CAPTUB::UFactor:8
Temperature, K	Viscosity, Pa*s	uncertainty
303.15	0.0016167	7.58e-05
313.15	0.0014646	6.93e-05
323.15	0.0013434	6.42e-05

System: nitrobenzene; phases: Liquid
Fixed: Pressure, kPa = 101
Property: Speed of sound, m/s (Liquid); method: LVPAI::UFactor:4
Temperature, K	Speed of sound, m/s	uncertainty
303.15	1413	6
313.15	1318	6
323.15	1221	5

System: nitrobenzene; phases: Liquid
Fixed: Pressure, kPa = 101
Property: Mass density, kg/m3 (Liquid); method: PYCNOM::UFactor:32
Temperature, K	Mass density, kg/m3	uncertainty
303.15	1200	10.2
313.15	1196	11
323.15	1185	11.6

System: ethylbenzene; phases: Liquid, Air at 1 atmosphere
Property: Surface tension liquid-gas, N/m (Liquid); method: RINGTE::UFactor:2
Temperature, K	Surface tension liquid-gas, N/m	uncertainty
303.15	0.03001	0.00086
313.15	0.02904	0.00083
323.15	0.02812	0.00081

System: ethylbenzene; phases: Liquid
Fixed: Pressure, kPa = 101.325
Property: Refractive index (Na D-line) (Liquid); method: ABBE::UFactor:8
Temperature, K	Refractive index (Na D-line)	uncertainty
303.15	1.4985	0.0026
313.15	1.4901	0.0026
323.15	1.4821	0.0026

System: ethylbenzene; phases: Liquid
Fixed: Pressure, kPa = 101
Property: Viscosity, Pa*s (Liquid); method: CAPTUB::UFactor:12
Temperature, K	Viscosity, Pa*s	uncertainty
303.15	0.000577	4.67e-05
313.15	0.0005914	4.77e-05
323.15	0.0004841	4.08e-05

System: ethylbenzene; phases: Liquid
Fixed: Pressure, kPa = 101
Property: Speed of sound, m/s (Liquid); method: LVPAI::UFactor:4
Temperature, K	Speed of sound, m/s	uncertainty
303.15	1335	6
313.15	1289	6
323.15	1204	5

System: ethylbenzene; phases: Liquid
Fixed: Pressure, kPa = 101
Property: Mass density, kg/m3 (Liquid); method: PYCNOM::UFactor:16
Temperature, K	Mass density, kg/m3	uncertainty
303.15	867	3.9
313.15	842	3.9
323.15	832.1	4.1

System: toluene; phases: Liquid
Property: Mass density, kg/m3 (Liquid); method: Pycnometric method
Temperature, K	Pressure, kPa	Mass density, kg/m3	uncertainty
298.15	101.325	862.4	1

System: toluene; phases: Liquid
Property: Viscosity, Pa*s (Liquid); method: Capillary tube (Ostwald; Ubbelohde) method
Temperature, K	Pressure, kPa	Viscosity, Pa*s	uncertainty
298.15	101.325	0.000555	4.2e-06

System: nitrobenzene + 4-hydroxy-4-methylpentan-2-one; phases: Liquid, Air at 1 atmosphere
Property: Surface tension liquid-gas, N/m (Liquid); method: RINGTE:UFactor:2
Temperature, K	Mole fraction of 4-hydroxy-4-methylpentan-2-one	Surface tension liquid-gas, N/m	uncertainty
303.15	0	0.0409	0.00111
303.15	0.1248	0.0398	0.00109
303.15	0.2389	0.0387	0.00106
303.15	0.3446	0.0375	0.00103
303.15	0.4921	0.0359	0.001
303.15	0.5853	0.0347	0.00097
303.15	0.6427	0.034	0.00096
303.15	0.7532	0.0327	0.00093
303.15	0.8226	0.0317	0.0009
303.15	0.9349	0.0295	0.00085
303.15	1	0.02944	0.00085
313.15	0	0.03824	0.00105
313.15	0.1248	0.03745	0.00103
313.15	0.2389	0.0366	0.00101
313.15	0.3446	0.0356	0.00099
313.15	0.4921	0.0343	0.00096
313.15	0.5853	0.0334	0.00094
313.15	0.6427	0.0328	0.00093
313.15	0.7532	0.0317	0.0009
313.15	0.8226	0.031	0.00089
313.15	0.9349	0.0294	0.00085
313.15	1	0.02892	0.00084
323.15	0	0.03647	0.00101
323.15	0.1248	0.0358	0.00099
323.15	0.2389	0.035	0.00097
323.15	0.3446	0.0343	0.00096
323.15	0.4921	0.03311	0.00093
323.15	0.5853	0.0323	0.00091
323.15	0.6427	0.0318	0.0009
323.15	0.7532	0.0317	0.0009
323.15	0.8226	0.0301	0.00087
323.15	0.9349	0.0288	0.00084
323.15	1	0.02812	0.00082

System: nitrobenzene + 4-hydroxy-4-methylpentan-2-one; phases: Liquid
Fixed: Pressure, kPa = 101
Property: Viscosity, Pa*s (Liquid); method: CAPTUB:UFactor:8
Temperature, K	Mole fraction of 4-hydroxy-4-methylpentan-2-one	Viscosity, Pa*s	uncertainty
303.15	0	0.0016167	7.58e-05
303.15	0.1248	0.0020216	9.31e-05
303.15	0.2389	0.0021611	9.91e-05
303.15	0.3446	0.0022821	0.0001042
303.15	0.4921	0.0024501	0.0001114
303.15	0.5853	0.0025622	0.0001162
303.15	0.6427	0.0026244	0.0001188
303.15	0.7532	0.002735	0.0001236
303.15	0.8226	0.0027911	0.000126
303.15	0.9349	0.0028891	0.0001302
303.15	1	0.00289	0.0001303
313.15	0	0.0014646	6.93e-05
313.15	0.1248	0.0017523	8.17e-05
313.15	0.2389	0.0019311	8.93e-05
313.15	0.3446	0.0021368	9.81e-05
313.15	0.4921	0.0024115	0.0001097
313.15	0.5853	0.0025411	0.0001153
313.15	0.6427	0.0026615	0.0001204
313.15	0.7532	0.0027413	0.0001238
313.15	0.8226	0.0027645	0.0001249
313.15	0.9349	0.0027899	0.000126
313.15	1	0.002791	0.0001261
323.15	0	0.0013434	6.42e-05
323.15	0.1248	0.0016577	7.76e-05
323.15	0.2389	0.0018429	8.55e-05
323.15	0.3446	0.002018	9.3e-05
323.15	0.4921	0.0023198	0.0001059
323.15	0.5853	0.0024925	0.0001132
323.15	0.6427	0.0025788	0.0001169
323.15	0.7532	0.0026511	0.00012
323.15	0.8226	0.0026605	0.0001205
323.15	0.9349	0.0026699	0.000121
323.15	1	0.00267	0.000121

System: nitrobenzene + 4-hydroxy-4-methylpentan-2-one; phases: Liquid
Fixed: Pressure, kPa = 101
Property: Refractive index (Na D-line) (Liquid); method: ABBE:UFactor:16
Temperature, K	Mole fraction of 4-hydroxy-4-methylpentan-2-one	Refractive index (Na D-line)	uncertainty
303.15	0	1.5504	0.005
303.15	0.1248	1.5377	0.005
303.15	0.2389	1.5245	0.005
303.15	0.3446	1.5113	0.005
303.15	0.4921	1.4931	0.005
303.15	0.5853	1.4822	0.005
303.15	0.6427	1.474	0.005
303.15	0.7532	1.4601	0.005
303.15	0.8226	1.45	0.005
303.15	0.9349	1.43	0.005
303.15	1	1.4239	0.005
313.15	0	1.5476	0.005
313.15	0.1248	1.5351	0.005
313.15	0.2389	1.521	0.005
313.15	0.3446	1.508	0.005
313.15	0.4921	1.4897	0.005
313.15	0.5853	1.4782	0.005
313.15	0.6427	1.4706	0.005
313.15	0.7532	1.4548	0.005
313.15	0.8226	1.4456	0.005
313.15	0.9349	1.4261	0.005
313.15	1	1.4198	0.005
323.15	0	1.5435	0.005
323.15	0.1248	1.5304	0.005
323.15	0.2389	1.5268	0.01
323.15	0.3446	1.5048	0.005
323.15	0.4921	1.486	0.005
323.15	0.5853	1.475	0.005
323.15	0.6427	1.4675	0.005
323.15	0.7532	1.4503	0.005
323.15	0.8226	1.4412	0.005
323.15	0.9349	1.4215	0.005
323.15	1	1.4151	0.005

System: nitrobenzene + 4-hydroxy-4-methylpentan-2-one; phases: Liquid
Fixed: Pressure, kPa = 101
Property: Speed of sound, m/s (Liquid); method: LVPAI:UFactor:4
Temperature, K	Mole fraction of 4-hydroxy-4-methylpentan-2-one	Speed of sound, m/s	uncertainty
303.15	0	1413	6
303.15	0.1248	1395	6
303.15	0.2389	1378	6
303.15	0.3446	1363	6
303.15	0.4921	1341	6
303.15	0.5853	1327	6
303.15	0.6427	1317	6
303.15	0.7532	1298	6
303.15	0.8226	1287	6
303.15	0.9349	1263	6
303.15	1	1256	6
313.15	0	1318	6
313.15	0.1248	1304	6
313.15	0.2389	1290	6
313.15	0.3446	1277	6
313.15	0.4921	1258	6
313.15	0.5853	1244	6
313.15	0.6427	1236	6
313.15	0.7532	1221	5
313.15	0.8226	1211	5
313.15	0.9349	1190	5
313.15	1	1183	5
323.15	0	1221	5
323.15	0.1248	1212	5
323.15	0.2389	1201	5
323.15	0.3446	1192	5
323.15	0.4921	1178	5
323.15	0.5853	1169	5
323.15	0.6427	1163	5
323.15	0.7532	1152	5
323.15	0.8226	1144	5
323.15	0.9349	1128	5
323.15	1	1121	5

System: nitrobenzene + 4-hydroxy-4-methylpentan-2-one; phases: Liquid
Fixed: Pressure, kPa = 101
Property: Mass density, kg/m3 (Liquid); method: PYCNOM:UFactor:32
Temperature, K	Mole fraction of 4-hydroxy-4-methylpentan-2-one	Mass density, kg/m3	uncertainty
303.15	0	1200	10.2
303.15	0.1248	1163.9	9.9
303.15	0.2389	1130.2	9.6
303.15	0.3446	1102.1	9.4
303.15	0.4921	1062	9
303.15	0.5853	1038	8.8
303.15	0.6427	1023	8.7
303.15	0.7532	995.6	8.4
303.15	0.8226	979.1	8.3
303.15	0.9349	943.3	8.1
303.15	1	936	7.9
313.15	0	1196	11
313.15	0.1248	1157.7	10.6
313.15	0.2389	1120.9	10.3
313.15	0.3446	1088.8	10
313.15	0.4921	1046.3	9.6
313.15	0.5853	1019.9	9.4
313.15	0.6427	1004.4	9.2
313.15	0.7532	975.5	8.9
313.15	0.8226	957.8	8.7
313.15	0.9349	920	8.4
313.15	1	912	8.3
323.15	0	1185	11.6
323.15	0.1248	1146.5	11.2
323.15	0.2389	1109.6	10.9
323.15	0.3446	1077.5	10.6
323.15	0.4921	1035	10.2
323.15	0.5853	999.9	9.9
323.15	0.6427	993.1	9.8
323.15	0.7532	964.3	9.5
323.15	0.8226	946.6	9.3
323.15	0.9349	910	8.9
323.15	1	901	8.9

System: ethylbenzene + 4-hydroxy-4-methylpentan-2-one; phases: Liquid, Air at 1 atmosphere
Property: Surface tension liquid-gas, N/m (Liquid); method: RINGTE:UFactor:2
Temperature, K	Mole fraction of 4-hydroxy-4-methylpentan-2-one	Surface tension liquid-gas, N/m	uncertainty
303.15	0	0.03001	0.00086
303.15	0.1814	0.02992	0.00085
303.15	0.2621	0.02988	0.00085
303.15	0.3445	0.02984	0.00085
303.15	0.4219	0.0298	0.00085
303.15	0.5447	0.02976	0.00085
303.15	0.6624	0.02971	0.00085
303.15	0.7667	0.02962	0.00085
303.15	0.8388	0.02958	0.00085
303.15	0.9219	0.0295	0.00085
303.15	1	0.02944	0.00085
313.15	0	0.02904	0.00083
313.15	0.1814	0.02904	0.00083
313.15	0.2621	0.02904	0.00084
313.15	0.3445	0.02903	0.00084
313.15	0.4219	0.02903	0.00084
313.15	0.5447	0.02903	0.00084
313.15	0.6624	0.02903	0.00084
313.15	0.7667	0.02903	0.00084
313.15	0.8388	0.029	0.00084
313.15	0.9219	0.02895	0.00084
313.15	1	0.02892	0.00084
323.15	0	0.02812	0.00081
323.15	0.1814	0.02797	0.00081
323.15	0.2621	0.0279	0.00081
323.15	0.3445	0.02782	0.00081
323.15	0.4219	0.02775	0.00081
323.15	0.5447	0.02764	0.0008
323.15	0.6624	0.02753	0.0008
323.15	0.7667	0.02744	0.0008
323.15	0.8388	0.02735	0.0008
323.15	0.9219	0.02724	0.0008
323.15	1	0.02712	0.0008

System: ethylbenzene + 4-hydroxy-4-methylpentan-2-one; phases: Liquid
Fixed: Pressure, kPa = 101
Property: Viscosity, Pa*s (Liquid); method: CAPTUB:UFactor:12
Temperature, K	Mole fraction of 4-hydroxy-4-methylpentan-2-one	Viscosity, Pa*s	uncertainty
303.15	0	0.000577	4.67e-05
303.15	0.1814	0.00102	7.54e-05
303.15	0.2621	0.001191	8.64e-05
303.15	0.3445	0.00135	9.66e-05
303.15	0.4219	0.0015112	0.0001069
303.15	0.5447	0.0017523	0.0001225
303.15	0.6624	0.0020008	0.0001384
303.15	0.7667	0.0022661	0.0001553
303.15	0.8388	0.0024331	0.0001658
303.15	0.9219	0.0026604	0.0001802
303.15	1	0.00289	0.0001948
313.15	0	0.0005914	4.77e-05
313.15	0.1814	0.0009211	6.9e-05
313.15	0.2621	0.0010661	7.84e-05
313.15	0.3445	0.0012335	8.92e-05
313.15	0.4219	0.0013996	9.99e-05
313.15	0.5447	0.0015007	0.0001064
313.15	0.6624	0.0016881	0.0001185
313.15	0.7667	0.0019114	0.0001328
313.15	0.8388	0.0023771	0.0001624
313.15	0.9219	0.0025114	0.0001709
313.15	1	0.002791	0.0001885
323.15	0	0.0004841	4.08e-05
323.15	0.1814	0.0007842	6.02e-05
323.15	0.2621	0.0008814	6.65e-05
323.15	0.3445	0.0009901	7.36e-05
323.15	0.4219	0.001011	7.51e-05
323.15	0.5447	0.0012009	8.72e-05
323.15	0.6624	0.0013537	9.71e-05
323.15	0.7667	0.0015214	0.0001078
323.15	0.8388	0.0018125	0.0001268
323.15	0.9219	0.0020815	0.0001436
323.15	1	0.00267	0.0001809

System: ethylbenzene + 4-hydroxy-4-methylpentan-2-one; phases: Liquid
Fixed: Pressure, kPa = 101
Property: Refractive index (Na D-line) (Liquid); method: ABBE:UFactor:8
Temperature, K	Mole fraction of 4-hydroxy-4-methylpentan-2-one	Refractive index (Na D-line)	uncertainty
303.15	0	1.4985	0.0026
303.15	0.1814	1.4864	0.0026
303.15	0.2621	1.4813	0.0026
303.15	0.3445	1.4753	0.0026
303.15	0.4219	1.4701	0.0026
303.15	0.5447	1.4599	0.0026
303.15	0.6624	1.4505	0.0025
303.15	0.7667	1.4425	0.0025
303.15	0.8388	1.4373	0.0025
303.15	0.9219	1.43	0.0025
303.15	1	1.4239	0.0025
313.15	0	1.4901	0.0026
313.15	0.1814	1.479	0.0026
313.15	0.2621	1.4741	0.0026
313.15	0.3445	1.469	0.0026
313.15	0.4219	1.4637	0.0026
313.15	0.5447	1.454	0.0025
313.15	0.6624	1.4458	0.0025
313.15	0.7667	1.4384	0.0025
313.15	0.8388	1.4335	0.0025
313.15	0.9219	1.4264	0.0025
313.15	1	1.4198	0.0025
323.15	0	1.4821	0.0026
323.15	0.1814	1.4721	0.0026
323.15	0.2621	1.4675	0.0026
323.15	0.3445	1.4624	0.0026
323.15	0.4219	1.4518	0.007
323.15	0.5447	1.451	0.0025
323.15	0.6624	1.4433	0.0025
323.15	0.7667	1.4363	0.0025
323.15	0.8388	1.4285	0.0025
323.15	0.9219	1.4225	0.0025
323.15	1	1.4151	0.0025

System: ethylbenzene + 4-hydroxy-4-methylpentan-2-one; phases: Liquid
Fixed: Pressure, kPa = 101
Property: Speed of sound, m/s (Liquid); method: LVPAI:UFactor:4
Temperature, K	Mole fraction of 4-hydroxy-4-methylpentan-2-one	Speed of sound, m/s	uncertainty
303.15	0	1335	6
303.15	0.1814	1322	6
303.15	0.2621	1316	6
303.15	0.3445	1311	6
303.15	0.4219	1305	6
303.15	0.5447	1296	6
303.15	0.6624	1286	6
303.15	0.7667	1277	6
303.15	0.8388	1271	6
303.15	0.9219	1264	6
303.15	1	1256	6
313.15	0	1289	6
313.15	0.1814	1271	6
313.15	0.2621	1265	6
313.15	0.3445	1257	6
313.15	0.4219	1250	6
313.15	0.5447	1237	6
313.15	0.6624	1224	5
313.15	0.7667	1212	5
313.15	0.8388	1204	5
313.15	0.9219	1194	5
313.15	1	1183	5
323.15	0	1204	5
323.15	0.1814	1192	5
323.15	0.2621	1186	5
323.15	0.3445	1180	5
323.15	0.4219	1175	5
323.15	0.5447	1165	5
323.15	0.6624	1156	5
323.15	0.7667	1146	5
323.15	0.8388	1138	5
323.15	0.9219	1130	5
323.15	1	1121	5

System: ethylbenzene + 4-hydroxy-4-methylpentan-2-one; phases: Liquid
Fixed: Pressure, kPa = 101
Property: Mass density, kg/m3 (Liquid); method: PYCNOM:UFactor:16
Temperature, K	Mole fraction of 4-hydroxy-4-methylpentan-2-one	Mass density, kg/m3	uncertainty
303.15	0	867	3.9
303.15	0.1814	880.9	4
303.15	0.2621	886.6	4
303.15	0.3445	892.5	4
303.15	0.4219	898	4.1
303.15	0.5447	906.5	4.1
303.15	0.6624	914.7	4.1
303.15	0.7667	922	4.2
303.15	0.8388	926.5	4.2
303.15	0.9219	931.5	4.3
303.15	1	936	4.3
313.15	0	842	3.9
313.15	0.1814	856	4
313.15	0.2621	861.8	4
313.15	0.3445	867.8	4.1
313.15	0.4219	873.3	4.1
313.15	0.5447	882.2	4.2
313.15	0.6624	890.8	4.2
313.15	0.7667	897.5	4.3
313.15	0.8388	902.2	4.3
313.15	0.9219	907.6	4.3
313.15	1	912.1	4.4
323.15	0	832.1	4.1
323.15	0.1814	845.9	4.2
323.15	0.2621	851.6	4.2
323.15	0.3445	857.5	4.3
323.15	0.4219	863	4.3
323.15	0.5447	871.5	4.4
323.15	0.6624	879.9	4.4
323.15	0.7667	886.6	4.5
323.15	0.8388	891.3	4.5
323.15	0.9219	896.9	4.5
323.15	1	901	4.6
