Measured thermophysical data. Solubility of 1-Hydroxyethane-1,1-diphosphonic Acid Monohydrate in Aqueous Acetic Acid Mixtures
Source: J. Chem. Eng. Data, 2008, 10.1021/je8002332
Compound 1: acetic acid, C2H4O2, InChI=1S/C2H4O2/c1-2(3)4/h1H3,(H,3,4), purity 99.9%
Compound 2: etidronic acid, C2H8O7P2, InChI=1S/C2H8O7P2/c1-2(3,10(4,5)6)11(7,8)9/h3H,1H3,(H2,4,5,6)(H2,7,8,9)
Compound 3: water, H2O, InChI=1S/H2O/h1H2

System: acetic acid + etidronic acid + water; phases: Liquid, Crystal of intercomponent compound 1
Fixed: Pressure, kPa = 101
Property: Mole fraction of etidronic acid (Liquid); method: laser intensity variation
Temperature, K	Solvent: Mole fraction of water	Mole fraction of etidronic acid	uncertainty
293.15	0	0.00181	0.00018
298.15	0	0.0019	0.00019
303.15	0	0.00196	0.0002
308.15	0	0.002	0.0002
313.15	0	0.002	0.0002
318.15	0	0.00214	0.00021
323.15	0	0.00225	0.00023
328.15	0	0.00224	0.00022
293.15	0.10163	0.00231	0.00023
298.15	0.10163	0.00253	0.00025
303.15	0.10163	0.00253	0.00025
308.15	0.10163	0.00301	0.0003
313.15	0.10163	0.00328	0.00033
318.15	0.10163	0.00359	0.00036
323.15	0.10163	0.00391	0.00039
328.15	0.10163	0.00425	0.00043
293.15	0.2002	0.00448	0.00045
303.15	0.2002	0.00615	0.00062
308.15	0.2002	0.00756	0.00076
313.15	0.2002	0.00903	0.0009
298.15	0.2002	0.00521	0.00052
318.15	0.2002	0.01102	0.0011
323.15	0.2002	0.01372	0.00137
328.15	0.2002	0.01757	0.00176
303.15	0.30086	0.0172	0.00172
293.15	0.30086	0.01324	0.00132
308.15	0.30086	0.01995	0.002
313.15	0.30086	0.02362	0.00236
318.15	0.30086	0.02874	0.00287
298.15	0.30086	0.01485	0.00149
323.15	0.30086	0.03605	0.00361
328.15	0.30086	0.04708	0.00471
303.15	0.40114	0.03272	0.00327
308.15	0.40114	0.03963	0.00396
293.15	0.40114	0.02354	0.00235
313.15	0.40114	0.04858	0.00486
318.15	0.40114	0.05975	0.00598
323.15	0.40114	0.07384	0.00739
298.15	0.40114	0.02761	0.00276
328.15	0.40114	0.09053	0.00906
303.15	0.5003	0.06609	0.00661
313.15	0.5003	0.08938	0.00894
293.15	0.5003	0.05156	0.00516
318.15	0.5003	0.10164	0.01017
298.15	0.5003	0.05705	0.00571
323.15	0.5003	0.11658	0.01166
308.15	0.5003	0.07772	0.00777
328.15	0.5003	0.1359	0.01359
313.15	0.6003	0.13092	0.01309
303.15	0.6003	0.10395	0.0104
318.15	0.6003	0.1465	0.01465
293.15	0.6003	0.08509	0.00851
298.15	0.6003	0.09444	0.00945
323.15	0.6003	0.16285	0.01629
308.15	0.6003	0.11855	0.01186
328.15	0.6003	0.18073	0.01808
298.15	0.69991	0.12765	0.01277
318.15	0.69991	0.17615	0.01762
313.15	0.69991	0.16288	0.01629
303.15	0.69991	0.13829	0.01383
323.15	0.69991	0.19323	0.01933
293.15	0.69991	0.11783	0.01179
308.15	0.69991	0.1498	0.01498
328.15	0.69991	0.2112	0.02112
308.15	0.80027	0.17044	0.01705
293.15	0.80027	0.1426	0.01426
303.15	0.80027	0.1605	0.01605
313.15	0.80027	0.1822	0.01822
323.15	0.80027	0.20995	0.021
298.15	0.80027	0.15141	0.01514
318.15	0.80027	0.19485	0.01949
328.15	0.80027	0.2235	0.02236
313.15	0.90017	0.19847	0.01985
323.15	0.90017	0.22157	0.02216
298.15	0.90017	0.1698	0.01698
318.15	0.90017	0.2096	0.02096
303.15	0.90017	0.17852	0.01786
308.15	0.90017	0.18795	0.0188
293.15	0.90017	0.16166	0.01617
328.15	0.90017	0.23489	0.02349
323.15	1	0.22458	0.02246
313.15	1	0.20693	0.0207
298.15	1	0.18167	0.01817
318.15	1	0.21518	0.02152
303.15	1	0.18981	0.01899
308.15	1	0.1977	0.01977
293.15	1	0.17408	0.01741
328.15	1	0.23475	0.02348

System: etidronic acid + water; phases: Liquid, Crystal of intercomponent compound 1
Fixed: Pressure, kPa = 101
Property: Mole fraction of etidronic acid (Liquid); method: laser intensity variation
Temperature, K	Mole fraction of etidronic acid	uncertainty
293.15	0.17408	0.01741
298.15	0.18167	0.01817
303.15	0.18981	0.01899
308.15	0.1977	0.01977
313.15	0.20693	0.0207
318.15	0.21518	0.02152
323.15	0.22458	0.02246
328.15	0.23475	0.02348

System: acetic acid + etidronic acid; phases: Liquid, Crystal of intercomponent compound 1
Fixed: Pressure, kPa = 101
Property: Mole fraction of etidronic acid (Liquid); method: laser intensity variation
Temperature, K	Mole fraction of etidronic acid	uncertainty
293.15	0.00181	0.00018
298.15	0.0019	0.00019
303.15	0.00196	0.0002
308.15	0.002	0.0002
313.15	0.002	0.0002
318.15	0.00214	0.00021
323.15	0.00225	0.00023
328.15	0.00224	0.00022
