Measured thermophysical data. Density, Ultrasonic Velocity, Electrical Conductivity, Viscosity, and Raman Spectra of Methanolic Mg(ClO4)2, Mg(NO3)2, and Mg(OAc)2 Solutions
Source: J. Chem. Eng. Data, 2009, 10.1021/je800463k
Compound 1: methanol, CH4O, InChI=1S/CH4O/c1-2/h2H,1H3, purity 99.5%
Compound 2: magnesium acetate, C4H6MgO4, InChI=1S/2C2H4O2.Mg/c2*1-2(3)4;/h2*1H3,(H,3,4);/q;;+2/p-2, purity 99%
Compound 3: magnesium nitrate, MgN2O6, InChI=1S/Mg.2NO3/c;2*2-1(3)4/q+2;2*-1, purity 99%
Compound 4: magnesium perchlorate, Cl2MgO8, InChI=1S/2ClHO4.Mg/c2*2-1(3,4)5;/h2*(H,2,3,4,5);/q;;+2/p-2, purity 99%

System: methanol + magnesium acetate; phases: Liquid
Fixed: Pressure, kPa = 101
Fixed: Frequency, MHz = 0.001
Property: Electrical conductivity, S/m (Liquid); method: Alternating current cell with electrodes
Molality, mol/kg of magnesium acetate	Temperature, K	Electrical conductivity, S/m	uncertainty
0.0059	273.15	0.0325	0.0001
0.0059	278.15	0.0329	0.0001
0.0059	283.15	0.0334	0.0001
0.0059	288.15	0.0341	0.0001
0.0059	293.15	0.0349	0.0001
0.0059	298.15	0.0355	0.0001
0.0059	303.15	0.0362	0.0001
0.0059	308.15	0.0369	0.0001
0.0059	313.15	0.0376	0.0001
0.0093	273.15	0.055	0.0001
0.0093	278.15	0.0556	0.0001
0.0093	283.15	0.0562	0.0001
0.0093	288.15	0.0566	0.0001
0.0093	293.15	0.0575	0.0001
0.0093	298.15	0.058	0.0001
0.0093	303.15	0.0586	0.0001
0.0093	308.15	0.0592	0.0001
0.0093	313.15	0.0598	0.0001
0.018	273.15	0.0621	0.0001
0.018	278.15	0.0627	0.0001
0.018	283.15	0.0634	0.0001
0.018	288.15	0.0642	0.0001
0.018	293.15	0.0649	0.0001
0.018	298.15	0.0656	0.0001
0.018	303.15	0.0665	0.0001
0.018	308.15	0.0674	0.0001
0.018	313.15	0.0685	0.0001
0.0339	273.15	0.0796	0.0001
0.0339	278.15	0.0807	0.0001
0.0339	283.15	0.0818	0.0001
0.0339	288.15	0.0831	0.0001
0.0339	293.15	0.0843	0.0001
0.0339	298.15	0.0856	0.0001
0.0339	303.15	0.0868	0.0001
0.0339	308.15	0.0879	0.0001
0.0339	313.15	0.089	0.0001
0.053	273.15	0.0922	0.0001
0.053	278.15	0.0937	0.0001
0.053	283.15	0.0954	0.0001
0.053	288.15	0.0969	0.0001
0.053	293.15	0.0985	0.0001
0.053	298.15	0.1	0.0001
0.053	303.15	0.1018	0.0001
0.053	308.15	0.103	0.0001
0.053	313.15	0.1041	0.0001
0.0646	273.15	0.0965	0.0001
0.0646	278.15	0.0989	0.0001
0.0646	283.15	0.1008	0.0001
0.0646	288.15	0.1033	0.0001
0.0646	293.15	0.1055	0.0001
0.0646	298.15	0.108	0.0001
0.0646	303.15	0.1103	0.0001
0.0646	308.15	0.112	0.0001
0.0646	313.15	0.1137	0.0001
0.0855	273.15	0.106	0.0001
0.0855	278.15	0.1084	0.0001
0.0855	283.15	0.1089	0.0001
0.0855	288.15	0.1114	0.0001
0.0855	293.15	0.1149	0.0001
0.0855	298.15	0.1183	0.0001
0.0855	303.15	0.122	0.0001
0.0855	308.15	0.1232	0.0001
0.0855	313.15	0.1243	0.0001
0.1024	273.15	0.1148	0.0001
0.1024	278.15	0.1174	0.0001
0.1024	283.15	0.1198	0.0001
0.1024	288.15	0.1227	0.0001
0.1024	293.15	0.1258	0.0001
0.1024	298.15	0.1284	0.0001
0.1024	303.15	0.1302	0.0001
0.1024	308.15	0.1326	0.0001
0.1024	313.15	0.1348	0.0001
0.1402	273.15	0.1289	0.0001
0.1402	278.15	0.1326	0.0001
0.1402	283.15	0.1355	0.0001
0.1402	288.15	0.139	0.0001
0.1402	293.15	0.1426	0.0001
0.1402	298.15	0.1458	0.0001
0.1402	303.15	0.1487	0.0001
0.1402	308.15	0.151	0.0001
0.1402	313.15	0.1535	0.0001
0.1455	273.15	0.1307	0.0001
0.1455	278.15	0.135	0.0001
0.1455	283.15	0.1388	0.0001
0.1455	288.15	0.1428	0.0001
0.1455	293.15	0.1463	0.0001
0.1455	298.15	0.1485	0.0001
0.1455	303.15	0.1524	0.0001
0.1455	308.15	0.1557	0.0001
0.1455	313.15	0.1577	0.0001
0.1837	273.15	0.1414	0.0001
0.1837	278.15	0.1448	0.0001
0.1837	283.15	0.1465	0.0001
0.1837	288.15	0.1496	0.0001
0.1837	293.15	0.1536	0.0001
0.1837	298.15	0.1578	0.0001
0.1837	303.15	0.1617	0.0001
0.1837	308.15	0.1631	0.0001
0.1837	313.15	0.166	0.0001
0.2422	273.15	0.1507	0.0001
0.2422	278.15	0.153	0.0001
0.2422	283.15	0.1656	0.0001
0.2422	288.15	0.1673	0.0001
0.2422	293.15	0.1693	0.0001
0.2422	298.15	0.1717	0.0001
0.2422	303.15	0.1746	0.0001
0.2422	308.15	0.1782	0.0001
0.2422	313.15	0.1817	0.0001
0.2889	273.15	0.1565	0.0001
0.2889	278.15	0.1605	0.0001
0.2889	283.15	0.1642	0.0001
0.2889	288.15	0.1692	0.0001
0.2889	293.15	0.1735	0.0001
0.2889	298.15	0.1776	0.0001
0.2889	303.15	0.181	0.0001
0.2889	308.15	0.1835	0.0001
0.2889	313.15	0.1868	0.0001

System: methanol + magnesium acetate; phases: Liquid
Fixed: Pressure, kPa = 101
Property: Viscosity, Pa*s (Liquid); method: CAPTUB:UFactor:4
Molality, mol/kg of magnesium acetate	Temperature, K	Viscosity, Pa*s	uncertainty
0.014	273.15	0.000821	2.11e-05
0.014	278.15	0.0007547	1.96e-05
0.014	283.15	0.0006979	1.84e-05
0.014	288.15	0.0006458	1.72e-05
0.014	293.15	0.0006	1.62e-05
0.014	298.15	0.0005583	1.53e-05
0.014	303.15	0.0005207	1.45e-05
0.014	308.15	0.0004859	1.37e-05
0.014	313.15	0.0004545	1.3e-05
0.018	273.15	0.0008229	2.11e-05
0.018	278.15	0.0007565	1.97e-05
0.018	283.15	0.0006998	1.84e-05
0.018	288.15	0.0006478	1.73e-05
0.018	293.15	0.0006022	1.63e-05
0.018	298.15	0.0005605	1.54e-05
0.018	303.15	0.0005223	1.45e-05
0.018	308.15	0.0004878	1.38e-05
0.018	313.15	0.0004559	1.31e-05
0.0339	273.15	0.0008417	2.15e-05
0.0339	278.15	0.0007732	2.01e-05
0.0339	283.15	0.0007143	1.87e-05
0.0339	288.15	0.0006606	1.76e-05
0.0339	293.15	0.0006132	1.65e-05
0.0339	298.15	0.0005703	1.56e-05
0.0339	303.15	0.0005306	1.47e-05
0.0339	308.15	0.000496	1.39e-05
0.0339	313.15	0.0004632	1.32e-05
0.0646	273.15	0.0008642	2.21e-05
0.0646	278.15	0.0007927	2.05e-05
0.0646	283.15	0.0007304	1.91e-05
0.0646	288.15	0.0006743	1.79e-05
0.0646	293.15	0.0006249	1.68e-05
0.0646	298.15	0.0005802	1.58e-05
0.0646	303.15	0.0005393	1.49e-05
0.0646	308.15	0.0005027	1.41e-05
0.0646	313.15	0.0004698	1.34e-05
0.1012	273.15	0.0009108	2.3e-05
0.1012	278.15	0.0008332	2.14e-05
0.1012	283.15	0.0007669	1.99e-05
0.1012	288.15	0.0007063	1.86e-05
0.1012	293.15	0.0006535	1.74e-05
0.1012	298.15	0.0006059	1.64e-05
0.1012	303.15	0.0005622	1.54e-05
0.1012	308.15	0.0005234	1.46e-05
0.1012	313.15	0.0004881	1.38e-05
0.13	273.15	0.0009308	2.35e-05
0.13	278.15	0.0008509	2.18e-05
0.13	283.15	0.0007824	2.03e-05
0.13	288.15	0.0007206	1.89e-05
0.13	293.15	0.000666	1.77e-05
0.13	298.15	0.000617	1.66e-05
0.13	303.15	0.0005718	1.56e-05
0.13	308.15	0.000532	1.47e-05
0.13	313.15	0.0004956	1.39e-05
0.1402	273.15	0.0009493	2.39e-05
0.1402	278.15	0.000867	2.21e-05
0.1402	283.15	0.0007965	2.06e-05
0.1402	288.15	0.0007286	1.91e-05
0.1402	293.15	0.0006731	1.78e-05
0.1402	298.15	0.0006234	1.68e-05
0.1402	303.15	0.0005779	1.58e-05
0.1402	308.15	0.0005368	1.48e-05
0.1402	313.15	0.0005	1.4e-05
0.17	273.15	0.0009637	2.43e-05
0.17	278.15	0.0008812	2.24e-05
0.17	283.15	0.0008105	2.09e-05
0.17	288.15	0.0007465	1.95e-05
0.17	293.15	0.0006902	1.82e-05
0.17	298.15	0.0006396	1.71e-05
0.17	303.15	0.0005933	1.61e-05
0.17	308.15	0.0005518	1.52e-05
0.17	313.15	0.0005145	1.44e-05
0.2003	273.15	0.0009889	2.48e-05
0.2003	278.15	0.0009025	2.29e-05
0.2003	283.15	0.0008289	2.13e-05
0.2003	288.15	0.0007639	1.98e-05
0.2003	293.15	0.0007039	1.85e-05
0.2003	298.15	0.0006529	1.74e-05
0.2003	303.15	0.0006048	1.63e-05
0.2003	308.15	0.0005625	1.54e-05
0.2003	313.15	0.0005239	1.46e-05
0.2422	273.15	0.001042	2.6e-05
0.2422	278.15	0.0009469	2.39e-05
0.2422	283.15	0.0008664	2.21e-05
0.2422	288.15	0.0007865	2.04e-05
0.2422	293.15	0.0007255	1.9e-05
0.2422	298.15	0.0006701	1.78e-05
0.2422	303.15	0.0006232	1.67e-05
0.2422	308.15	0.0005782	1.58e-05
0.2422	313.15	0.0005375	1.49e-05
0.2453	273.15	0.001036	2.6e-05
0.2453	278.15	0.0009437	2.38e-05
0.2453	283.15	0.0008643	2.21e-05
0.2453	288.15	0.0007929	2.05e-05
0.2453	293.15	0.0007305	1.91e-05
0.2453	298.15	0.0006746	1.79e-05
0.2453	303.15	0.0006232	1.68e-05
0.2453	308.15	0.000578	1.58e-05
0.2453	313.15	0.0005373	1.49e-05
0.2889	273.15	0.001091	2.7e-05
0.2889	278.15	0.0009892	2.49e-05
0.2889	283.15	0.0008961	2.28e-05
0.2889	288.15	0.0008205	2.11e-05
0.2889	293.15	0.0007548	1.97e-05
0.2889	298.15	0.0006956	1.84e-05
0.2889	303.15	0.000642	1.72e-05
0.2889	308.15	0.0005942	1.61e-05
0.2889	313.15	0.0005513	1.52e-05

System: methanol + magnesium acetate; phases: Liquid
Fixed: Pressure, kPa = 101
Fixed: Frequency, MHz = 2
Property: Speed of sound, m/s (Liquid); method: LVPAI:UFactor:4
Molality, mol/kg of magnesium acetate	Temperature, K	Speed of sound, m/s	uncertainty
0.0059	273.15	1185.9	6.8
0.0059	278.15	1169.1	6.7
0.0059	283.15	1152.8	6.6
0.0059	288.15	1135.7	6.6
0.0059	293.15	1119	6.5
0.0059	298.15	1102.5	6.4
0.0059	303.15	1086.1	6.4
0.0059	308.15	1070.1	6.3
0.0059	313.15	1053.9	6.2
0.0093	273.15	1186.1	6.8
0.0093	278.15	1169.4	6.7
0.0093	283.15	1153.2	6.6
0.0093	288.15	1136.1	6.6
0.0093	293.15	1118.9	6.5
0.0093	298.15	1102	6.4
0.0093	303.15	1085.4	6.4
0.0093	308.15	1068.7	6.3
0.0093	313.15	1054.5	6.2
0.018	273.15	1186.2	6.8
0.018	278.15	1170	6.7
0.018	283.15	1154.7	6.6
0.018	288.15	1137.4	6.6
0.018	293.15	1120.9	6.5
0.018	298.15	1103.5	6.4
0.018	303.15	1086.1	6.4
0.018	308.15	1071.5	6.3
0.018	313.15	1055.7	6.3
0.053	273.15	1190.2	6.8
0.053	278.15	1172.6	6.7
0.053	283.15	1156.3	6.7
0.053	288.15	1138.1	6.6
0.053	293.15	1121.1	6.5
0.053	298.15	1104.6	6.4
0.053	303.15	1087.5	6.4
0.053	308.15	1075.1	6.3
0.053	313.15	1059.6	6.3
0.0855	273.15	1190.1	6.8
0.0855	278.15	1176.6	6.7
0.0855	283.15	1156.5	6.7
0.0855	288.15	1139.7	6.6
0.0855	293.15	1122.8	6.5
0.0855	298.15	1106.7	6.5
0.0855	303.15	1090.3	6.4
0.0855	308.15	1073.8	6.3
0.0855	313.15	1059	6.3
0.1024	273.15	1194.5	6.8
0.1024	278.15	1176.8	6.7
0.1024	283.15	1160.3	6.7
0.1024	288.15	1142.7	6.6
0.1024	293.15	1126	6.5
0.1024	298.15	1109.8	6.5
0.1024	303.15	1093.3	6.4
0.1024	308.15	1077.1	6.3
0.1024	313.15	1061	6.3
0.1402	273.15	1194.6	6.8
0.1402	278.15	1177.7	6.7
0.1402	283.15	1160.4	6.7
0.1402	288.15	1144.3	6.6
0.1402	293.15	1128.4	6.5
0.1402	298.15	1111.6	6.5
0.1402	303.15	1092.4	6.4
0.1402	308.15	1078.5	6.3
0.1402	313.15	1062.7	6.3
0.1455	273.15	1192.6	6.8
0.1455	278.15	1175	6.7
0.1455	283.15	1158.5	6.7
0.1455	288.15	1141.6	6.6
0.1455	293.15	1124.4	6.5
0.1455	298.15	1108.4	6.5
0.1455	303.15	1091.9	6.4
0.1455	308.15	1075.3	6.3
0.1455	313.15	1059.1	6.3
0.1837	273.15	1195.3	6.8
0.1837	278.15	1179.3	6.7
0.1837	283.15	1161.7	6.7
0.1837	288.15	1143.8	6.6
0.1837	293.15	1127.3	6.5
0.1837	298.15	1110.9	6.5
0.1837	303.15	1094.3	6.4
0.1837	308.15	1078.1	6.3
0.1837	313.15	1061.4	6.3
0.2192	273.15	1196.7	6.8
0.2192	278.15	1181	6.8
0.2192	283.15	1162.8	6.7
0.2192	288.15	1147.5	6.6
0.2192	293.15	1130.4	6.6
0.2192	298.15	1113.4	6.5
0.2192	303.15	1097.7	6.4
0.2192	308.15	1081.5	6.4
0.2192	313.15	1064.3	6.3
0.2422	273.15	1196.9	6.8
0.2422	278.15	1179.9	6.7
0.2422	283.15	1163.1	6.7
0.2422	288.15	1146.4	6.6
0.2422	293.15	1129.6	6.5
0.2422	298.15	1112.7	6.5
0.2422	303.15	1095.1	6.4
0.2422	308.15	1081.2	6.4
0.2422	313.15	1064.9	6.3
0.2889	273.15	1197.1	6.8
0.2889	278.15	1180.9	6.8
0.2889	283.15	1163.5	6.7
0.2889	288.15	1147	6.6
0.2889	293.15	1131.7	6.6
0.2889	298.15	1115.2	6.5
0.2889	303.15	1098.2	6.4
0.2889	308.15	1082	6.4
0.2889	313.15	1066.1	6.3
0.3042	273.15	1199.6	6.8
0.3042	278.15	1181.7	6.8
0.3042	283.15	1165.8	6.7
0.3042	288.15	1149.4	6.6
0.3042	293.15	1132.6	6.6
0.3042	298.15	1116.1	6.5
0.3042	303.15	1099.8	6.4
0.3042	308.15	1083.6	6.4
0.3042	313.15	1067.2	6.3

System: methanol + magnesium acetate; phases: Liquid
Fixed: Pressure, kPa = 101
Property: Mass density, kg/m3 (Liquid); method: Pycnometric method
Temperature, K	Molality, mol/kg of magnesium acetate	Mass density, kg/m3	uncertainty
296.65	0.1112	798.51	2.52
297.55	0.2192	803.53	2.9
298.5	0.0646	793.38	2.05
299	0.0339	790.63	1.22
299.1	0.014	788.94	0.86
299.25	0.1798	800.6	2.41
299.3	0.2192	801.81	4.19
299.35	0.1112	795.95	2.88
299.65	0.2422	803.36	7.95
300.15	0.2003	800.18	4.63
300.2	0.1402	796.94	3.18
300.25	0.0646	791.69	3.86
300.35	0.053	789.91	3.16
300.8	0.0339	788.95	1.23
300.8	0.3042	804.76	5.39
300.85	0.014	787.26	0.86
300.85	0.2668	803.07	4.74
301.1	0.1112	794.25	3.55
301.5	0.2422	801.62	8.21
301.9	0.2003	798.5	2.52
301.9	0.2192	799.27	3.74
301.95	0.1798	798.03	1.69
302.05	0.0646	790	3.77
302.15	0.053	788.23	1.84
302.2	0.0093	785.05	0.98
302.35	0.0059	784.31	0.89
302.55	0.3042	803.02	5.08
302.8	0.2668	801.25	4.31
302.85	0.1455	794.77	4.04
302.9	0.1402	794.38	3.89
303.05	0.0855	789.45	2.51
303.15	0.0059	783.47	0.79
303.25	0.2422	799.9	8.03
303.45	0.0339	786.42	1.32
303.5	0.014	784.74	0.81
303.65	0.2192	797.61	7.34
303.75	0.1112	791.73	3.4
303.95	0.053	786.54	0.98
304.35	0.3042	801.29	5.32
304.6	0.1402	792.72	4.61
304.6	0.1798	795.47	4.17
304.6	0.2003	795.91	3.94
304.65	0.0646	787.5	2.05
304.75	0.0855	787.76	2.68
304.85	0.2668	799.19	4.59
304.9	0.0093	782.5	1.04
304.95	0.0059	781.79	0.87
305.3	0.014	783.09	0.94
305.5	0.1455	792.24	3.79
305.65	0.053	784.95	1.81
305.8	0.2422	797.4	4.66
305.95	0.0339	783.96	0.88
306.1	0.3042	799.61	5.2
306.15	0.2192	795.21	3.23
306.25	0.1402	791.07	3.86
306.3	0.1112	789.29	2.82
306.35	0.2003	794.29	2.47
306.4	0.1798	793.8	4.3
306.55	0.0093	780.91	1.03
306.65	0.0059	780.15	0.89
306.95	0.2668	797.14	3.52
307.1	0.0646	785.07	1.57
307.3	0.053	783.25	1.6
307.3	0.1455	790.54	4.86
307.35	0.0855	785.26	2.7
307.5	0.2422	795.76	8.18
307.7	0.0339	782.34	1.32
307.7	0.3042	797.95	5.3
307.75	0.014	780.67	0.85
307.8	0.2192	793.51	7.38
307.95	0.1402	789.51	3.7
308.2	0.0093	779.23	0.92
308.7	0.1112	786.87	3.99
308.9	0.053	781.63	1.72
308.9	0.1798	791.35	3.84
308.9	0.2003	791.74	1.93
308.9	0.2668	795.13	5.81
308.95	0.0855	783.63	3.01
309.1	0.0059	777.74	0.75
309.1	0.1455	788.87	4.03
309.45	0.2192	791.87	7.44
309.5	0.3042	796.38	5.7
309.75	0.0646	782.66	1.92
309.95	0.2422	793.32	4.86
310.25	0.014	778.28	0.86
310.25	0.0339	779.95	1.33
310.5	0.1402	787	3.73
310.65	0.0093	776.87	0.86
311	0.2668	793.11	5.16
311.2	0.1112	784.4	3.91
311.2	0.3042	794.7	5.74
311.4	0.053	779.24	1.76
311.5	0.0855	781.28	2.96
311.5	0.1798	788.93	3.26
311.55	0.0059	775.36	0.52
311.6	0.1455	786.44	4.18
311.9	0.2192	789.45	2.38
312.1	0.1402	785.37	4.23
312.15	0.0646	780.21	2
312.3	0.0093	775.23	0.88
312.35	0.2003	788.52	4.21
312.45	0.2422	790.83	8.08
312.7	0.0339	777.5	1.02
312.75	0.014	775.84	0.97
312.9	0.053	777.6	1.35
313.05	0.0855	779.61	2.46
313.1	0.2668	791.07	4.67
313.55	0.3042	792.2	5.47
313.65	0.1112	782	3.11
313.95	0.1455	784.03	4.11
313.95	0.1798	786.45	3.59
314.05	0.0059	772.92	0.83
314.55	0.1402	782.97	4.16
314.6	0.0646	777.82	2.01
314.7	0.0093	772.8	0.91
314.8	0.2003	786.04	4.53
314.8	0.2422	788.41	5
314.8	0.2668	789.38	4.3
315.1	0.0339	775.12	1.12
315.2	0.014	773.47	1.03
315.4	0.053	775.16	1.22
315.45	0.0855	777.19	2.3
316.05	0.3042	789.78	5.42
316.35	0.0059	770.56	0.83
316.35	0.1798	784.05	5.15
316.35	0.0059	770.56	0.83
316.4	0.1455	781.57	4.96
316.95	0.0855	775.61	2.73
316.95	0.2668	787.26	5.15
317	0.0093	770.44	0.56
317	0.0093	770.44	0.56
317.25	0.2003	783.64	4.19
318.7	0.1455	779.18	3.24

System: methanol + magnesium nitrate; phases: Liquid
Fixed: Pressure, kPa = 101
Fixed: Frequency, MHz = 0.001
Property: Electrical conductivity, S/m (Liquid); method: Alternating current cell with electrodes
Molality, mol/kg of magnesium nitrate	Temperature, K	Electrical conductivity, S/m	uncertainty
0.0082	273.15	0.1095	0.0001
0.0082	278.15	0.1165	0.0001
0.0082	283.15	0.1221	0.0001
0.0082	288.15	0.1281	0.0001
0.0082	293.15	0.1341	0.0001
0.0082	298.15	0.1401	0.0001
0.0082	303.15	0.1462	0.0001
0.0082	308.15	0.1518	0.0001
0.0082	313.15	0.1573	0.0001
0.0545	273.15	0.3036	0.0001
0.0545	278.15	0.321	0.0001
0.0545	283.15	0.3368	0.0001
0.0545	288.15	0.3616	0.0001
0.0545	293.15	0.3807	0.0001
0.0545	298.15	0.3953	0.0001
0.0545	303.15	0.4108	0.0001
0.0545	308.15	0.4242	0.0001
0.0545	313.15	0.4382	0.0001
0.0667	273.15	0.3337	0.0001
0.0667	278.15	0.3538	0.0001
0.0667	283.15	0.3738	0.0001
0.0667	288.15	0.393	0.0001
0.0667	293.15	0.412	0.0001
0.0667	298.15	0.4305	0.0001
0.0667	303.15	0.4481	0.0001
0.0667	308.15	0.4649	0.0001
0.0667	313.15	0.4799	0.0001
0.1047	273.15	0.4393	0.0001
0.1047	278.15	0.4655	0.0001
0.1047	283.15	0.4908	0.0001
0.1047	288.15	0.5164	0.0001
0.1047	293.15	0.5415	0.0001
0.1047	298.15	0.5657	0.0001
0.1047	303.15	0.5889	0.0001
0.1047	308.15	0.6114	0.0001
0.1047	313.15	0.6326	0.0001
0.2776	273.15	0.8097	0.0001
0.2776	278.15	0.8637	0.0001
0.2776	283.15	0.9168	0.0001
0.2776	288.15	0.9691	0.0001
0.2776	293.15	1.021	0.001
0.2776	298.15	1.073	0.001
0.2776	303.15	1.123	0.001
0.2776	308.15	1.172	0.001
0.2776	313.15	1.215	0.001
0.4024	273.15	1.002	0.001
0.4024	278.15	1.073	0.001
0.4024	283.15	1.143	0.001
0.4024	288.15	1.214	0.001
0.4024	293.15	1.277	0.001
0.4024	298.15	1.343	0.001
0.4024	303.15	1.41	0.001
0.4024	308.15	1.476	0.001
0.4024	313.15	1.537	0.001
0.4555	273.15	1.043	0.001
0.4555	278.15	1.117	0.001
0.4555	283.15	1.192	0.001
0.4555	288.15	1.267	0.001
0.4555	293.15	1.341	0.001
0.4555	298.15	1.416	0.001
0.4555	303.15	1.489	0.001
0.4555	308.15	1.559	0.001
0.4555	313.15	1.625	0.001
0.6276	273.15	1.207	0.001
0.6276	278.15	1.3	0.001
0.6276	283.15	1.394	0.001
0.6276	288.15	1.489	0.001
0.6276	293.15	1.584	0.001
0.6276	298.15	1.68	0.001
0.6276	303.15	1.775	0.001
0.6276	308.15	1.867	0.001
0.6276	313.15	1.951	0.001
0.782	273.15	1.31	0.001
0.782	278.15	1.417	0.001
0.782	283.15	1.528	0.001
0.782	288.15	1.639	0.001
0.782	293.15	1.752	0.001
0.782	298.15	1.866	0.001
0.782	303.15	1.979	0.001
0.782	308.15	2.089	0.001
0.782	313.15	2.183	0.001
0.881	273.15	1.334	0.001
0.881	278.15	1.447	0.001
0.881	283.15	1.561	0.001
0.881	288.15	1.678	0.001
0.881	293.15	1.797	0.001
0.881	298.15	1.918	0.001
0.881	303.15	2.037	0.001
0.881	308.15	2.154	0.001
0.881	313.15	2.262	0.001
0.9116	273.15	1.344	0.001
0.9116	278.15	1.459	0.001
0.9116	283.15	1.573	0.001
0.9116	288.15	1.69	0.001
0.9116	293.15	1.811	0.001
0.9116	298.15	1.933	0.001
0.9116	303.15	2.054	0.001
0.9116	308.15	2.173	0.001
0.9116	313.15	2.287	0.001
1.004	273.15	1.372	0.001
1.004	278.15	1.494	0.001
1.004	283.15	1.618	0.001
1.004	288.15	1.744	0.001
1.004	293.15	1.873	0.001
1.004	298.15	2.005	0.001
1.004	303.15	2.136	0.001
1.004	308.15	2.266	0.001
1.004	313.15	2.39	0.001
1.259	273.15	1.361	0.001
1.259	278.15	1.494	0.001
1.259	283.15	1.632	0.001
1.259	288.15	1.772	0.001
1.259	293.15	1.917	0.001
1.259	298.15	2.065	0.001
1.259	303.15	2.213	0.001
1.259	308.15	2.359	0.001
1.259	313.15	2.502	0.001
1.492	273.15	1.314	0.001
1.492	278.15	1.453	0.001
1.492	283.15	1.597	0.001
1.492	288.15	1.746	0.001
1.492	293.15	1.9	0.001
1.492	298.15	2.06	0.001
1.492	303.15	2.223	0.001
1.492	308.15	2.396	0.001
1.492	313.15	2.545	0.001
1.71	273.15	1.281	0.001
1.71	278.15	1.436	0.001
1.71	283.15	1.59	0.001
1.71	288.15	1.738	0.001
1.71	293.15	1.902	0.001
1.71	298.15	2.073	0.001
1.71	303.15	2.246	0.001
1.71	308.15	2.421	0.001
1.71	313.15	2.587	0.001
1.875	273.15	1.238	0.001
1.875	278.15	1.383	0.001
1.875	283.15	1.538	0.001
1.875	288.15	1.698	0.001
1.875	293.15	1.866	0.001
1.875	298.15	2.039	0.001
1.875	303.15	2.217	0.001
1.875	308.15	2.395	0.001
1.875	313.15	2.567	0.001

System: methanol + magnesium nitrate; phases: Liquid
Fixed: Pressure, kPa = 101
Property: Viscosity, Pa*s (Liquid); method: CAPTUB:UFactor:8
Molality, mol/kg of magnesium nitrate	Temperature, K	Viscosity, Pa*s	uncertainty
0.0082	273.15	0.0008298	4.22e-05
0.0082	278.15	0.0007627	3.93e-05
0.0082	283.15	0.0007006	3.66e-05
0.0082	288.15	0.0006479	3.43e-05
0.0082	293.15	0.0006014	3.23e-05
0.0082	298.15	0.0005595	3.05e-05
0.0082	303.15	0.0005215	2.88e-05
0.0082	308.15	0.000486	2.73e-05
0.0082	313.15	0.0004543	2.59e-05
0.0545	273.15	0.0008885	4.47e-05
0.0545	278.15	0.0008108	4.14e-05
0.0545	283.15	0.0007465	3.86e-05
0.0545	288.15	0.00069	3.61e-05
0.0545	293.15	0.0006412	3.4e-05
0.0545	298.15	0.0005957	3.2e-05
0.0545	303.15	0.0005545	3.02e-05
0.0545	308.15	0.0005169	2.86e-05
0.0545	313.15	0.000483	2.72e-05
0.0667	273.15	0.0009109	4.57e-05
0.0667	278.15	0.000836	4.24e-05
0.0667	283.15	0.000775	3.98e-05
0.0667	288.15	0.0007149	3.72e-05
0.0667	293.15	0.0006621	3.49e-05
0.0667	298.15	0.0006148	3.29e-05
0.0667	303.15	0.0005716	3.1e-05
0.0667	308.15	0.0005321	2.93e-05
0.0667	313.15	0.0004662	2.65e-05
0.1047	273.15	0.0009548	4.76e-05
0.1047	278.15	0.0008755	4.41e-05
0.1047	283.15	0.0008049	4.11e-05
0.1047	288.15	0.000743	3.84e-05
0.1047	293.15	0.0006872	3.6e-05
0.1047	298.15	0.0006361	3.38e-05
0.1047	303.15	0.0005909	3.18e-05
0.1047	308.15	0.0005501	3.01e-05
0.1047	313.15	0.0005128	2.84e-05
0.2776	273.15	0.001129	5.5e-05
0.2776	278.15	0.001029	5.1e-05
0.2776	283.15	0.0009437	4.71e-05
0.2776	288.15	0.0008665	4.38e-05
0.2776	293.15	0.0007989	4.08e-05
0.2776	298.15	0.0007381	3.82e-05
0.2776	303.15	0.0006836	3.58e-05
0.2776	308.15	0.0006334	3.37e-05
0.2776	313.15	0.0005885	3.17e-05
0.4024	273.15	0.001336	6.4e-05
0.4024	278.15	0.001213	5.9e-05
0.4024	283.15	0.001109	5.4e-05
0.4024	288.15	0.001016	5e-05
0.4024	293.15	0.0009313	4.65e-05
0.4024	298.15	0.0008609	4.35e-05
0.4024	303.15	0.0007943	4.06e-05
0.4024	308.15	0.0007332	3.8e-05
0.4024	313.15	0.0006799	3.57e-05
0.4555	273.15	0.0014	6.7e-05
0.4555	278.15	0.001273	6.1e-05
0.4555	283.15	0.001158	5.6e-05
0.4555	288.15	0.00106	5.2e-05
0.4555	293.15	0.0009778	4.86e-05
0.4555	298.15	0.0008966	4.51e-05
0.4555	303.15	0.0008264	4.2e-05
0.4555	308.15	0.0007633	3.93e-05
0.4555	313.15	0.0007062	3.68e-05
0.6276	273.15	0.001836	8.5e-05
0.6276	278.15	0.001732	8.1e-05
0.6276	283.15	0.001562	7.4e-05
0.6276	288.15	0.001408	6.7e-05
0.6276	293.15	0.001271	6.1e-05
0.6276	298.15	0.001146	5.6e-05
0.6276	303.15	0.00105	5.2e-05
0.6276	308.15	0.0009449	4.72e-05
0.6276	313.15	0.0008707	4.4e-05
0.782	273.15	0.002128	9.8e-05
0.782	278.15	0.001905	8.8e-05
0.782	283.15	0.001719	8e-05
0.782	288.15	0.001556	7.3e-05
0.782	293.15	0.001415	6.7e-05
0.782	298.15	0.001287	6.2e-05
0.782	303.15	0.001177	5.7e-05
0.782	308.15	0.001077	5.3e-05
0.782	313.15	0.0009902	4.92e-05
0.881	273.15	0.00218	0.000101
0.881	278.15	0.001938	9e-05
0.881	283.15	0.001743	8.2e-05
0.881	288.15	0.001575	7.4e-05
0.881	293.15	0.001429	6.8e-05
0.881	298.15	0.001301	6.3e-05
0.881	303.15	0.001184	5.7e-05
0.881	308.15	0.001083	5.3e-05
0.881	313.15	0.0009936	4.92e-05
0.9116	273.15	0.002329	0.000106
0.9116	278.15	0.002079	9.6e-05
0.9116	283.15	0.001866	8.7e-05
0.9116	288.15	0.001679	7.9e-05
0.9116	293.15	0.001517	7.2e-05
0.9116	298.15	0.001369	6.5e-05
0.9116	303.15	0.001245	6e-05
0.9116	308.15	0.001135	5.5e-05
0.9116	313.15	0.001038	5.1e-05
1.004	273.15	0.002559	0.000117
1.004	278.15	0.002278	0.000104
1.004	283.15	0.002041	9.4e-05
1.004	288.15	0.001828	8.5e-05
1.004	293.15	0.00165	7.8e-05
1.004	298.15	0.001491	7.1e-05
1.004	303.15	0.001354	6.5e-05
1.004	308.15	0.001233	6e-05
1.004	313.15	0.001124	5.5e-05
1.259	273.15	0.003717	0.000165
1.259	278.15	0.00326	0.000146
1.259	283.15	0.002891	0.000131
1.259	288.15	0.002586	0.000118
1.259	293.15	0.002306	0.000106
1.259	298.15	0.002078	9.6e-05
1.259	303.15	0.001875	8.7e-05
1.259	308.15	0.001694	7.9e-05
1.259	313.15	0.001536	7.3e-05
1.492	273.15	0.004748	0.000209
1.492	278.15	0.004119	0.000182
1.492	283.15	0.003619	0.000161
1.492	288.15	0.003198	0.000144
1.492	293.15	0.002833	0.000128
1.492	298.15	0.002541	0.000116
1.492	303.15	0.002267	0.000104
1.492	308.15	0.002044	9.4e-05
1.492	313.15	0.001837	8.6e-05
1.71	273.15	0.006086	0.000254
1.71	278.15	0.005244	0.000227
1.71	283.15	0.004554	0.000201
1.71	288.15	0.003978	0.000177
1.71	293.15	0.0035	0.000156
1.71	298.15	0.003094	0.000139
1.71	303.15	0.00273	0.000124
1.71	308.15	0.002433	0.000111
1.71	313.15	0.002169	0.0001
1.875	273.15	0.007175	0.000288
1.875	278.15	0.006178	0.000257
1.875	283.15	0.005339	0.00023
1.875	288.15	0.004642	0.000204
1.875	293.15	0.004058	0.00018
1.875	298.15	0.003556	0.000159
1.875	303.15	0.003138	0.000141
1.875	308.15	0.002765	0.000125
1.875	313.15	0.00245	0.000112

System: methanol + magnesium nitrate; phases: Liquid
Fixed: Pressure, kPa = 101
Fixed: Frequency, MHz = 2
Property: Speed of sound, m/s (Liquid); method: LVPAI:UFactor:4
Molality, mol/kg of magnesium nitrate	Temperature, K	Speed of sound, m/s	uncertainty
0.0082	273.15	1187.6	6.8
0.0082	278.15	1171.2	6.7
0.0082	283.15	1158.5	6.7
0.0082	288.15	1141.9	6.6
0.0082	293.15	1123.3	6.5
0.0082	298.15	1108.5	6.5
0.0082	303.15	1091.9	6.4
0.0082	308.15	1075.4	6.3
0.0082	313.15	1059.8	6.3
0.0082	318.15	1044.1	6.2
0.0082	323.15	1027.3	6.1
0.0545	273.15	1194.3	6.8
0.0545	278.15	1178.6	6.7
0.0545	283.15	1163.6	6.7
0.0545	288.15	1145.7	6.6
0.0545	293.15	1129	6.5
0.0545	298.15	1115.7	6.5
0.0545	303.15	1098.1	6.4
0.0545	308.15	1082.1	6.4
0.0545	313.15	1066.6	6.3
0.0545	318.15	1045.1	6.2
0.0545	323.15	1033.4	6.2
0.0667	273.15	1197.6	6.8
0.0667	278.15	1181.3	6.8
0.0667	283.15	1164.3	6.7
0.0667	288.15	1147.2	6.6
0.0667	293.15	1130.5	6.6
0.0667	298.15	1113.6	6.5
0.0667	303.15	1096.9	6.4
0.0667	308.15	1083.3	6.4
0.0667	313.15	1067.2	6.3
0.0667	318.15	1051.1	6.2
0.0667	323.15	1035.4	6.2
0.1047	273.15	1202.4	6.8
0.1047	278.15	1185.8	6.8
0.1047	283.15	1168.9	6.7
0.1047	288.15	1152.3	6.6
0.1047	293.15	1134.7	6.6
0.1047	298.15	1118.5	6.5
0.1047	303.15	1102.5	6.4
0.1047	308.15	1086	6.4
0.1047	313.15	1072.3	6.3
0.1047	318.15	1056.1	6.3
0.1047	323.15	1039.7	6.2
0.2776	273.15	1220.4	6.9
0.2776	278.15	1203	6.8
0.2776	283.15	1187.4	6.8
0.2776	288.15	1170.8	6.7
0.2776	293.15	1154.7	6.6
0.2776	298.15	1138.2	6.6
0.2776	303.15	1121.5	6.5
0.2776	308.15	1106.2	6.5
0.2776	313.15	1090.3	6.4
0.2776	318.15	1074.8	6.3
0.2776	323.15	1058.3	6.3
0.4024	273.15	1228.8	6.9
0.4024	278.15	1214.1	6.9
0.4024	283.15	1198.4	6.8
0.4024	288.15	1182.6	6.8
0.4024	293.15	1165.8	6.7
0.4024	298.15	1149	6.6
0.4024	303.15	1132.5	6.6
0.4024	308.15	1116.1	6.5
0.4024	313.15	1099.9	6.4
0.4024	318.15	1083.3	6.4
0.4024	323.15	1067.5	6.3
0.4555	273.15	1237	7
0.4555	278.15	1222.1	6.9
0.4555	283.15	1204.7	6.8
0.4555	288.15	1188.5	6.8
0.4555	293.15	1172.6	6.7
0.4555	298.15	1155.9	6.7
0.4555	303.15	1139.1	6.6
0.4555	308.15	1122.4	6.5
0.4555	313.15	1105.5	6.5
0.4555	318.15	1089.9	6.4
0.4555	323.15	1076.2	6.3
0.6276	273.15	1253.3	7
0.6276	278.15	1235.6	7
0.6276	283.15	1219.1	6.9
0.6276	288.15	1203	6.8
0.6276	293.15	1187.3	6.8
0.6276	298.15	1171.1	6.7
0.6276	303.15	1155.5	6.7
0.6276	308.15	1139.5	6.6
0.6276	313.15	1123.8	6.5
0.6276	318.15	1108	6.5
0.6276	323.15	1093.5	6.4
0.782	273.15	1270.9	7.1
0.782	278.15	1254.4	7
0.782	283.15	1238.3	7
0.782	288.15	1221.6	6.9
0.782	293.15	1205.7	6.9
0.782	298.15	1188.8	6.8
0.782	303.15	1172.9	6.7
0.782	308.15	1157.4	6.7
0.782	313.15	1140.7	6.6
0.782	318.15	1124.4	6.5
0.782	323.15	1108.6	6.5
0.881	273.15	1274.9	7.1
0.881	278.15	1257.8	7.1
0.881	283.15	1241	7
0.881	288.15	1225.4	6.9
0.881	293.15	1212	6.9
0.881	298.15	1195.8	6.8
0.881	303.15	1179.3	6.7
0.881	308.15	1163.7	6.7
0.881	313.15	1147.3	6.6
0.881	318.15	1131.9	6.6
0.881	323.15	1115.5	6.5
0.9116	273.15	1279.9	7.1
0.9116	278.15	1263.2	7.1
0.9116	283.15	1247.8	7
0.9116	288.15	1231.2	7
0.9116	293.15	1215.2	6.9
0.9116	298.15	1198.8	6.8
0.9116	303.15	1182.3	6.8
0.9116	308.15	1165.8	6.7
0.9116	313.15	1150.2	6.6
0.9116	318.15	1134	6.6
0.9116	323.15	1119.3	6.5
1.004	273.15	1293.4	7.2
1.004	278.15	1277.2	7.1
1.004	283.15	1261.1	7.1
1.004	288.15	1245.4	7
1.004	293.15	1229.3	6.9
1.004	298.15	1212.9	6.9
1.004	303.15	1196.9	6.8
1.004	308.15	1180.7	6.8
1.004	313.15	1164.5	6.7
1.004	318.15	1148.2	6.6
1.004	323.15	1133.8	6.6
1.259	273.15	1315.8	7.3
1.259	278.15	1298.8	7.2
1.259	283.15	1282.7	7.2
1.259	288.15	1266.8	7.1
1.259	293.15	1250.2	7
1.259	298.15	1232.2	7
1.259	303.15	1219.1	6.9
1.259	308.15	1200	6.8
1.259	313.15	1183.5	6.8
1.259	318.15	1167.6	6.7
1.259	323.15	1151.8	6.6
1.492	273.15	1340.4	7.4
1.492	278.15	1324.8	7.3
1.492	283.15	1308.1	7.3
1.492	288.15	1292.2	7.2
1.492	293.15	1275.7	7.1
1.492	298.15	1259.5	7.1
1.492	303.15	1243	7
1.492	308.15	1227	6.9
1.492	313.15	1210.2	6.9
1.492	318.15	1193.9	6.8
1.492	323.15	1177.5	6.7
1.71	273.15	1360.5	7.5
1.71	278.15	1343.7	7.4
1.71	283.15	1327.3	7.3
1.71	288.15	1311.9	7.3
1.71	293.15	1295.5	7.2
1.71	298.15	1279.9	7.2
1.71	303.15	1263.7	7.1
1.71	308.15	1247.8	7
1.71	313.15	1231.4	7
1.71	318.15	1216.4	6.9
1.71	323.15	1199	6.8
1.875	273.15	1368.6	7.5
1.875	278.15	1352.5	7.4
1.875	283.15	1335.4	7.4
1.875	288.15	1320.1	7.3
1.875	293.15	1304	7.2
1.875	298.15	1288.1	7.2
1.875	303.15	1272.7	7.1
1.875	308.15	1256.6	7.1
1.875	313.15	1240.4	7
1.875	318.15	1225.2	6.9
1.875	323.15	1209.5	6.9

System: methanol + magnesium nitrate; phases: Liquid
Fixed: Pressure, kPa = 101
Property: Mass density, kg/m3 (Liquid); method: Pycnometric method
Temperature, K	Molality, mol/kg of magnesium nitrate	Mass density, kg/m3	uncertainty
300.6	0.1047	798.24	4.2
300.7	0.6276	850.07	21.37
300.8	0.881	871.54	34.85
301.1	1.492	934.05	50.11
301.25	0.4024	827.04	15.9
301.3	0.0082	785.69	0.79
301.4	0.2776	814.59	11.7
301.4	1.71	952.09	57.44
302.05	0.0545	790.26	2.44
302.2	0.4555	830.9	18.07
302.25	0.782	868.46	28.65
302.45	0.1047	796.51	4.21
302.55	1.004	883.47	36.82
302.7	0.6276	848.25	32.18
302.7	1.259	910.86	54.37
302.85	1.875	961.69	57.04
303.15	0.0082	783.99	0.96
303.25	0.4024	825.26	15.81
303.4	0.2776	812.83	11.65
303.4	1.492	932.03	48.71
303.75	0.0545	788.57	2.49
303.85	0.881	868.76	6.83
304	0.0082	782.31	1.4
304.1	0.782	866.62	5.87
304.2	0.4555	829.11	18.07
304.25	0.1047	794.8	5.45
304.35	0.0667	789.8	3.57
304.65	0.6276	846.53	23.97
304.65	1.004	881.56	39.5
304.8	1.259	908.91	47.58
304.9	1.71	949.01	60.96
304.95	0.0082	780.67	1.23
305.05	0.4024	823.53	16.08
305.15	0.0667	789.04	3.07
305.25	0.2776	811.08	11.45
305.55	0.0545	786.97	2.42
306	1.875	958.63	56.66
306.6	0.0082	778.26	0.98
306.7	1.492	929.13	55.93
306.75	1.004	879.67	43.6
306.8	0.4024	821.82	14.55
306.8	0.881	866.06	38.94
306.85	0.0667	787.33	3.61
306.85	0.1047	792.32	5.55
306.9	1.259	907.07	51.09
306.95	0.4555	826.52	16.62
307.1	1.71	947.08	57.29
307.15	0.2776	809.38	11.02
307.15	0.782	863.84	6.06
307.25	0.0545	785.27	2.43
307.55	0.6276	843.81	31.89
308.35	1.875	956.57	56.68
308.55	0.0667	785.71	2.86
308.6	0.4024	820.2	14.56
308.75	0.4555	824.82	16.49
308.75	1.004	877.82	43.24
308.85	1.492	927.12	45.13
309.1	0.0082	775.87	0.89
309.4	0.1047	789.92	6.36
309.75	0.0545	782.89	2.47
309.75	0.881	863.28	34.63
309.9	0.2776	806.88	11.51
309.95	1.259	904.15	47.57
310.1	0.782	861.14	31.84
310.2	0.0667	784.14	2.96
310.3	1.71	944.04	61.1
310.4	0.4024	818.47	15.09
310.45	0.6276	841.27	23.99
310.65	0.4555	823.17	18.76
310.7	1.004	876	27.93
311.55	1.875	953.58	56.52
311.6	0.0082	773.44	0.91
311.7	0.0667	782.46	4.3
311.9	0.881	861.58	35.38
311.9	1.259	902.37	52.21
312	0.1047	787.42	6.22
312	1.492	924.32	56.5
312.1	0.4024	816.76	14.34
312.2	0.4555	821.41	18.76
312.25	0.6276	839.48	26.46
312.3	0.0545	780.41	3.05
312.45	1.71	942.18	57.17
312.5	0.2776	804.41	11.67
312.85	0.782	858.54	39.73
313.3	0.0667	780.84	2.99
313.65	1.004	873.36	28.07
313.7	1.875	951.61	48.23
313.85	0.4024	815.07	15.97
313.95	0.0545	778.79	3.51
314	0.0082	771.07	0.94
314.25	1.492	922.37	49.81
314.4	0.1047	784.98	6.27
314.6	1.71	940.19	56.97
314.7	0.881	858.85	35.36
314.8	0.4555	818.87	18.13
314.85	1.259	899.51	52.41
314.9	0.6276	836.88	23.28
315.1	0.2776	801.88	10.69
315.45	0.4024	813.41	17.49
315.65	0.0667	778.45	3
315.65	0.782	855.81	39.86
315.8	1.875	949.71	56.3
315.95	0.1047	783.38	4.36
316.35	0.0545	776.41	2.97
316.5	0.4555	817.2	19.21
316.6	0.881	857.07	32.4
316.6	1.004	870.6	43.16
316.65	0.6276	835.18	23.5
316.75	1.259	897.65	53.71
317.35	0.2776	799.43	10.55
317.35	1.492	919.48	50.08
317.5	0.782	854.04	31.49
317.8	1.875	947.68	47.31
317.85	1.71	937.24	43.24
319.3	0.881	854.45	38.87
319.45	1.004	867.87	43.18
319.55	1.259	894.9	53.58
320.2	1.492	916.67	57.41
320.25	0.782	851.43	22.11
320.75	1.875	944.75	46.51
320.9	1.71	934.37	42.45

System: methanol + magnesium perchlorate; phases: Liquid
Fixed: Pressure, kPa = 101
Fixed: Frequency, MHz = 0.001
Property: Electrical conductivity, S/m (Liquid); method: Alternating current cell with electrodes
Molality, mol/kg of magnesium perchlorate	Temperature, K	Electrical conductivity, S/m	uncertainty
0.0542	273.15	0.2699	0.0001
0.0542	283.15	0.3054	0.0001
0.0542	293.15	0.3414	0.0001
0.0542	298.15	0.3599	0.0001
0.0542	303.15	0.3785	0.0001
0.0542	313.15	0.4141	0.0001
0.078	273.15	0.4031	0.0001
0.078	283.15	0.4563	0.0001
0.078	293.15	0.5074	0.0001
0.078	298.15	0.5344	0.0001
0.078	303.15	0.5625	0.0001
0.078	313.15	0.6138	0.0001
0.0925	273.15	0.4435	0.0001
0.0925	283.15	0.5023	0.0001
0.0925	293.15	0.5615	0.0001
0.0925	298.15	0.5917	0.0001
0.0925	303.15	0.6223	0.0001
0.0925	313.15	0.6801	0.0001
0.1673	273.15	0.6702	0.0001
0.1673	283.15	0.7619	0.0001
0.1673	293.15	0.854	0.0001
0.1673	298.15	0.9009	0.0001
0.1673	303.15	0.9485	0.0001
0.1673	313.15	1.04	0.001
0.2872	273.15	0.9762	0.0001
0.2872	283.15	1.116	0.001
0.2872	293.15	1.253	0.001
0.2872	298.15	1.332	0.001
0.2872	303.15	1.407	0.001
0.2872	313.15	1.549	0.001
0.3228	273.15	1.058	0.001
0.3228	283.15	1.213	0.001
0.3228	293.15	1.37	0.001
0.3228	298.15	1.452	0.001
0.3228	303.15	1.534	0.001
0.3228	313.15	1.691	0.001
0.4313	273.15	1.299	0.001
0.4313	283.15	1.497	0.001
0.4313	293.15	1.702	0.001
0.4313	298.15	1.807	0.001
0.4313	303.15	1.913	0.001
0.4313	313.15	2.119	0.001
0.6444	273.15	1.752	0.001
0.6444	283.15	2.001	0.001
0.6444	293.15	2.209	0.001
0.6444	298.15	2.389	0.001
0.6444	303.15	2.541	0.001
0.6444	313.15	2.844	0.001
1.059	273.15	2.122	0.001
1.059	283.15	2.513	0.001
1.059	293.15	2.926	0.001
1.059	298.15	3.143	0.001
1.059	303.15	3.367	0.001
1.059	313.15	3.813	0.001
1.395	273.15	2.273	0.001
1.395	283.15	2.731	0.001
1.395	293.15	3.221	0.001
1.395	298.15	3.48	0.001
1.395	303.15	3.746	0.001
1.395	313.15	4.297	0.001
1.717	273.15	2.343	0.001
1.717	283.15	2.848	0.001
1.717	293.15	3.39	0.001
1.717	298.15	3.683	0.001
1.717	303.15	3.979	0.001
1.717	313.15	4.592	0.001
2	273.15	2.355	0.001
2	283.15	2.892	0.001
2	293.15	3.474	0.001
2	298.15	3.779	0.001
2	303.15	4.1	0.001
2	313.15	4.75	0.001

System: methanol + magnesium perchlorate; phases: Liquid
Fixed: Pressure, kPa = 101
Property: Viscosity, Pa*s (Liquid); method: CAPTUB:UFactor:8
Molality, mol/kg of magnesium perchlorate	Temperature, K	Viscosity, Pa*s	uncertainty
0.0542	273.15	0.0008742	4.41e-05
0.0542	283.15	0.0007345	3.8e-05
0.0542	293.15	0.0006286	3.35e-05
0.0542	298.15	0.0005841	3.15e-05
0.0542	303.15	0.0005431	2.97e-05
0.0542	313.15	0.0004735	2.67e-05
0.0925	273.15	0.0009094	4.56e-05
0.0925	283.15	0.000768	3.95e-05
0.0925	293.15	0.0006569	3.47e-05
0.0925	298.15	0.0006098	3.26e-05
0.0925	303.15	0.0005669	3.08e-05
0.0925	313.15	0.0004938	2.76e-05
0.1673	273.15	0.0009874	4.9e-05
0.1673	283.15	0.0008318	4.23e-05
0.1673	293.15	0.0007098	3.7e-05
0.1673	298.15	0.000656	3.46e-05
0.1673	303.15	0.0006084	3.26e-05
0.1673	313.15	0.0005284	2.91e-05
0.2872	273.15	0.00113	5.5e-05
0.2872	283.15	0.0009437	4.71e-05
0.2872	293.15	0.0007995	4.09e-05
0.2872	298.15	0.0007391	3.82e-05
0.2872	303.15	0.000684	3.59e-05
0.2872	313.15	0.0005874	3.17e-05
0.3228	273.15	0.001168	5.7e-05
0.3228	283.15	0.0009745	4.84e-05
0.3228	293.15	0.0008248	4.2e-05
0.3228	298.15	0.0007618	3.92e-05
0.3228	303.15	0.0007005	3.66e-05
0.3228	313.15	0.0006082	3.26e-05
0.4313	273.15	0.001329	6.4e-05
0.4313	283.15	0.001102	5.4e-05
0.4313	293.15	0.0009286	4.65e-05
0.4313	298.15	0.000856	4.33e-05
0.4313	303.15	0.0007937	4.06e-05
0.4313	313.15	0.0006824	3.58e-05
0.6444	273.15	0.00164	7.7e-05
0.6444	283.15	0.001342	6.4e-05
0.6444	293.15	0.001112	5.4e-05
0.6444	298.15	0.001019	5e-05
0.6444	303.15	0.0009348	4.67e-05
0.6444	313.15	0.0007966	4.07e-05
1.059	273.15	0.002393	0.000109
1.059	283.15	0.001928	8.9e-05
1.059	293.15	0.001585	7.5e-05
1.059	298.15	0.001446	6.9e-05
1.059	303.15	0.001323	6.3e-05
1.059	313.15	0.001119	5.5e-05
1.395	273.15	0.003292	0.000147
1.395	283.15	0.002608	0.000119
1.395	293.15	0.00211	9.7e-05
1.395	298.15	0.00191	8.9e-05
1.395	303.15	0.001732	8.1e-05
1.395	313.15	0.001445	6.9e-05
1.717	273.15	0.003854	0.000171
1.717	283.15	0.003023	0.000136
1.717	293.15	0.00243	0.000111
1.717	298.15	0.002196	0.000101
1.717	303.15	0.00199	9.2e-05
1.717	313.15	0.001656	7.8e-05
2	273.15	0.004766	0.000209
2	283.15	0.003682	0.000164
2	293.15	0.002923	0.000132
2	298.15	0.002624	0.000119
2	303.15	0.002362	0.000108
2	313.15	0.001945	9e-05

System: methanol + magnesium perchlorate; phases: Liquid
Fixed: Pressure, kPa = 101
Fixed: Frequency, MHz = 2
Property: Speed of sound, m/s (Liquid); method: LVPAI:UFactor:4
Molality, mol/kg of magnesium perchlorate	Temperature, K	Speed of sound, m/s	uncertainty
0.0542	273.15	1195.2	6.8
0.0542	283.15	1162.7	6.7
0.0542	293.15	1128.4	6.5
0.0542	298.15	1111.3	6.5
0.0542	303.15	1094.8	6.4
0.0542	313.15	1062.7	6.3
0.078	273.15	1201.1	6.8
0.078	283.15	1167.8	6.7
0.078	293.15	1134.9	6.6
0.078	298.15	1119.1	6.5
0.078	303.15	1101.6	6.4
0.078	313.15	1069.7	6.3
0.0925	273.15	1203.6	6.8
0.0925	283.15	1170.8	6.7
0.0925	293.15	1137.7	6.6
0.0925	298.15	1121.2	6.5
0.0925	303.15	1104.6	6.4
0.0925	313.15	1072.7	6.3
0.1673	273.15	1212.8	6.9
0.1673	283.15	1178.9	6.7
0.1673	293.15	1146	6.6
0.1673	298.15	1129.8	6.5
0.1673	303.15	1114	6.5
0.1673	313.15	1082.2	6.4
0.2872	273.15	1226	6.9
0.2872	283.15	1193.9	6.8
0.2872	293.15	1161.8	6.7
0.2872	298.15	1145.7	6.6
0.2872	303.15	1129.8	6.5
0.2872	313.15	1098.9	6.4
0.3228	273.15	1230.6	7
0.3228	283.15	1197.5	6.8
0.3228	293.15	1165.4	6.7
0.3228	298.15	1149.1	6.6
0.3228	303.15	1133.5	6.6
0.3228	313.15	1102.5	6.4
0.4313	273.15	1245.5	7
0.4313	283.15	1213.2	6.9
0.4313	293.15	1181.4	6.8
0.4313	298.15	1165.2	6.7
0.4313	303.15	1147	6.6
0.4313	313.15	1115.5	6.5
0.6444	273.15	1268.2	7.1
0.6444	283.15	1236.8	7
0.6444	293.15	1205.9	6.9
0.6444	298.15	1189.2	6.8
0.6444	303.15	1173.3	6.7
0.6444	313.15	1141.6	6.6
1.059	273.15	1308.9	7.3
1.059	283.15	1278.5	7.1
1.059	293.15	1247.5	7
1.059	298.15	1232	7
1.059	303.15	1217	6.9
1.059	313.15	1185.5	6.8
1.395	273.15	1342.5	7.4
1.395	283.15	1313.4	7.3
1.395	293.15	1282.1	7.2
1.395	298.15	1267.7	7.1
1.395	303.15	1253.3	7
1.395	313.15	1224.6	6.9
1.717	273.15	1366.9	7.5
1.717	283.15	1336.5	7.4
1.717	293.15	1307.5	7.3
1.717	298.15	1293.2	7.2
1.717	303.15	1277.6	7.1
1.717	313.15	1249.9	7
2	273.15	1385.5	7.6
2	283.15	1358.1	7.5
2	293.15	1329.1	7.4
2	298.15	1314.4	7.3
2	303.15	1301.6	7.2
2	313.15	1273.8	7.1

System: methanol + magnesium perchlorate; phases: Liquid
Fixed: Pressure, kPa = 101
Property: Mass density, kg/m3 (Liquid); method: Pycnometric method
Temperature, K	Molality, mol/kg of magnesium perchlorate	Mass density, kg/m3	uncertainty
303.9	0.0542	788.92	3.56
306.6	0.0542	786.39	3.35
308.35	0.0542	784.7	2.93
311.05	0.0542	782.22	3.26
313.6	0.0542	779.81	3.01
316.1	0.0542	777.42	3
318.5	0.0542	774.98	2.98
320.05	0.0542	773.35	2.99
301.15	0.078	796.1	3.94
302.9	0.078	794.53	3.97
294	0.078	802.89	4.12
305.5	0.078	792.01	3.97
307.15	0.078	790.37	3.93
309.7	0.078	787.95	4.01
297.7	0.078	799.44	3.8
299.45	0.078	797.76	3.9
299.8	0.0925	798.59	4.65
304.2	0.0925	794.46	4.81
295.3	0.0925	802.82	4.55
306.8	0.0925	791.94	4.8
309.35	0.0925	789.49	4.75
301.65	0.0925	796.87	4.63
311.05	0.0925	787.88	5.6
298	0.0925	800.22	4.6
305.7	0.1673	802.67	8.3
303.05	0.1673	805.22	8.2
301.15	0.1673	806.95	8.16
307.35	0.1673	801.01	8.33
311.75	0.1673	796.89	8.83
313.35	0.1673	795.24	8.84
315.8	0.1673	792.81	8.88
298.3	0.1673	809.54	8.61
305.45	0.2872	817.88	14.24
307.25	0.2872	816.19	14.33
309.9	0.2872	813.69	13.41
296.9	0.2872	825.72	13.26
299.8	0.2872	823.08	13.15
312.55	0.2872	811.13	13.35
315.1	0.2872	808.66	13.4
302.75	0.2872	820.44	13.33
307.3	0.3228	820.29	15.03
299.75	0.3228	827.21	14.9
296.85	0.3228	829.87	14.9
309.95	0.3228	817.77	14.94
305.5	0.3228	821.98	15.01
312.6	0.3228	815.21	15.01
302.7	0.3228	824.56	14.72
315.2	0.3228	812.71	15.06
303.5	0.4313	838.73	22.02
311.4	0.4313	831.61	22.29
313.25	0.4313	829.89	22.16
308.5	0.4313	834.26	21.94
316	0.4313	827.39	22.42
318.65	0.4313	824.78	22.58
306.55	0.4313	836.04	22.02
321.15	0.4313	822.18	21.9
311.15	0.6444	859.02	32.91
304.85	0.6444	864.55	33.17
314.05	0.6444	856.37	32.92
315.85	0.6444	854.66	31.38
308.05	0.6444	861.75	32.78
305.95	0.6444	863.6	32.76
318.5	0.6444	851.96	33.07
320.2	0.6444	850.2	33.08
303.55	1.059	918.43	47.59
311.45	1.059	911.67	51.28
314.65	1.059	908.74	51.34
305.75	1.059	916.49	44.43
308	1.059	914.51	51.39
317.85	1.059	906.01	44.7
320.65	1.059	903.14	42.91
322.45	1.059	901.27	48.17
311.55	1.395	949.18	52.79
315.9	1.395	945.34	42.56
313.75	1.395	947.21	42.38
306.95	1.395	953.22	41.93
319.3	1.395	942.34	42.52
309.3	1.395	951.18	42.17
304.55	1.395	955.29	41.89
322.5	1.395	939.42	53.17
313.25	1.717	972.12	52.21
306	1.717	978.23	62.08
310.85	1.717	974.13	56.58
319	1.717	967.11	52.25
308.45	1.717	976.24	62.11
303.55	1.717	980.32	61.88
322.35	1.717	964.07	56.97
316.75	1.717	969.14	52.25
320.15	2	991.84	72.99
311.75	2	999.04	72.47
314.15	2	996.96	72.5
317.9	2	993.97	72.91
322.3	2	989.79	72.58
309.25	2	1001.1	72.22
302.75	2	1006.5	72.16
306.65	2	1003.3	72.32
