Measured thermophysical data. Activity Coefficients at Infinite Dilution of Organic Solutes in 1-Ethyl-3-methylimidazolium Tetrafluoroborate Using Gas-Liquid Chromatography
Source: J. Chem. Eng. Data, 2008, 10.1021/je800218g
Compound 1: pentane, C5H12, InChI=1S/C5H12/c1-3-5-4-2/h3-5H2,1-2H3, purity 99%
Compound 2: 1-ethyl-3-methylimidazolium tetrafluoroborate, C6H11BF4N2, InChI=1S/C6H11N2.BF4/c1-3-8-5-4-7(2)6-8;2-1(3,4)5/h4-6H,3H2,1-2H3;/q+1;-1
Compound 3: hexane, C6H14, InChI=1S/C6H14/c1-3-5-6-4-2/h3-6H2,1-2H3, purity 99%
Compound 4: heptane, C7H16, InChI=1S/C7H16/c1-3-5-7-6-4-2/h3-7H2,1-2H3, purity 99%
Compound 5: octane, C8H18, InChI=1S/C8H18/c1-3-5-7-8-6-4-2/h3-8H2,1-2H3, purity 99%
Compound 6: nonane, C9H20, InChI=1S/C9H20/c1-3-5-7-9-8-6-4-2/h3-9H2,1-2H3, purity 99%
Compound 7: decane, C10H22, InChI=1S/C10H22/c1-3-5-7-9-10-8-6-4-2/h3-10H2,1-2H3, purity 99%
Compound 8: cyclohexane, C6H12, InChI=1S/C6H12/c1-2-4-6-5-3-1/h1-6H2, purity 99%
Compound 9: methylcyclohexane, C7H14, InChI=1S/C7H14/c1-7-5-3-2-4-6-7/h7H,2-6H2,1H3, purity 99%
Compound 10: 2,2,4-trimethylpentane, C8H18, InChI=1S/C8H18/c1-7(2)6-8(3,4)5/h7H,6H2,1-5H3, purity 99%
Compound 11: cyclohexene, C6H10, InChI=1S/C6H10/c1-2-4-6-5-3-1/h1-2H,3-6H2, purity 99%
Compound 12: styrene, C8H8, InChI=1S/C8H8/c1-2-8-6-4-3-5-7-8/h2-7H,1H2, purity 99%
Compound 13: benzene, C6H6, InChI=1S/C6H6/c1-2-4-6-5-3-1/h1-6H, purity 99%
Compound 14: toluene, C7H8, InChI=1S/C7H8/c1-7-5-3-2-4-6-7/h2-6H,1H3, purity 99%
Compound 15: ethylbenzene, C8H10, InChI=1S/C8H10/c1-2-8-6-4-3-5-7-8/h3-7H,2H2,1H3, purity 99%
Compound 16: 1,2-dimethylbenzene, C8H10, InChI=1S/C8H10/c1-7-5-3-4-6-8(7)2/h3-6H,1-2H3, purity 99%
Compound 17: 1,3-dimethylbenzene, C8H10, InChI=1S/C8H10/c1-7-4-3-5-8(2)6-7/h3-6H,1-2H3, purity 99%
Compound 18: 1,4-dimethylbenzene, C8H10, InChI=1S/C8H10/c1-7-3-5-8(2)6-4-7/h3-6H,1-2H3, purity 99%
Compound 19: acetonitrile, C2H3N, InChI=1S/C2H3N/c1-2-3/h1H3, purity 99%
Compound 20: acetone, C3H6O, InChI=1S/C3H6O/c1-3(2)4/h1-2H3, purity 99%
Compound 21: 1,4-dioxane, C4H8O2, InChI=1S/C4H8O2/c1-2-6-4-3-5-1/h1-4H2, purity 99%
Compound 22: tetrahydrofuran, C4H8O, InChI=1S/C4H8O/c1-2-4-5-3-1/h1-4H2, purity 99%
Compound 23: ethyl acetate, C4H8O2, InChI=1S/C4H8O2/c1-3-6-4(2)5/h3H2,1-2H3, purity 99%
Compound 24: dichloromethane, CH2Cl2, InChI=1S/CH2Cl2/c2-1-3/h1H2, purity 99%
Compound 25: trichloromethane, CHCl3, InChI=1S/CHCl3/c2-1(3)4/h1H, purity 99%
Compound 26: tetrachloromethane, CCl4, InChI=1S/CCl4/c2-1(3,4)5, purity 99%

System: pentane + 1-ethyl-3-methylimidazolium tetrafluoroborate; phases: Liquid, Gas
Fixed: Mole fraction of pentane = 0
Property: Activity coefficient of pentane (Liquid); method: Chromatography
Temperature, K	Activity coefficient of pentane	uncertainty
303.15	68.78	7.24
313.15	62.52	6.58
323.15	57.64	6.07
333.15	53.85	5.67
343.15	49.03	5.16
353.15	45.66	4.81
363.15	42.12	4.43

System: hexane + 1-ethyl-3-methylimidazolium tetrafluoroborate; phases: Liquid, Gas
Fixed: Mole fraction of hexane = 0
Property: Activity coefficient of hexane (Liquid); method: Chromatography
Temperature, K	Activity coefficient of hexane	uncertainty
303.15	101.4	10.7
313.15	95.27	10.04
323.15	90.6	9.54
333.15	85.28	8.98
343.15	77.4	8.15
353.15	74.47	7.84
363.15	69.46	7.32

System: heptane + 1-ethyl-3-methylimidazolium tetrafluoroborate; phases: Liquid, Gas
Fixed: Mole fraction of heptane = 0
Property: Activity coefficient of heptane (Liquid); method: Chromatography
Temperature, K	Activity coefficient of heptane	uncertainty
303.15	153.5	16.2
313.15	138.1	14.6
323.15	124.1	13.1
333.15	111.3	11.7
343.15	104.2	11
353.15	96	10
363.15	90.39	9.52

System: octane + 1-ethyl-3-methylimidazolium tetrafluoroborate; phases: Liquid, Gas
Fixed: Mole fraction of octane = 0
Property: Activity coefficient of octane (Liquid); method: Chromatography
Temperature, K	Activity coefficient of octane	uncertainty
303.15	216.5	22.8
313.15	200.7	21.2
323.15	186.9	19.7
333.15	172.8	18.2
343.15	157.8	16.6
353.15	148.7	15.7
363.15	139.8	14.7

System: nonane + 1-ethyl-3-methylimidazolium tetrafluoroborate; phases: Liquid, Gas
Fixed: Mole fraction of nonane = 0
Property: Activity coefficient of nonane (Liquid); method: Chromatography
Temperature, K	Activity coefficient of nonane	uncertainty
303.15	319.1	33.7
313.15	293.9	31
323.15	271.9	28.7
333.15	254.2	26.8
343.15	248.2	26.2
353.15	234.8	24.8
363.15	223.8	23.6

System: decane + 1-ethyl-3-methylimidazolium tetrafluoroborate; phases: Liquid, Gas
Fixed: Mole fraction of decane = 0
Property: Activity coefficient of decane (Liquid); method: Chromatography
Temperature, K	Activity coefficient of decane	uncertainty
303.15	1112.5	117.5
313.15	984.3	103.9
323.15	861.4	90.9
333.15	751.4	79.3
343.15	642.8	67.8
353.15	544.7	57.5
363.15	455.8	48.1

System: cyclohexane + 1-ethyl-3-methylimidazolium tetrafluoroborate; phases: Liquid, Gas
Fixed: Mole fraction of cyclohexane = 0
Property: Activity coefficient of cyclohexane (Liquid); method: Chromatography
Temperature, K	Activity coefficient of cyclohexane	uncertainty
303.15	70.55	7.43
313.15	60.88	6.41
323.15	49.73	5.24
333.15	39.65	4.17
343.15	31.17	3.28
353.15	27.46	2.89
363.15	21.9	2.3

System: methylcyclohexane + 1-ethyl-3-methylimidazolium tetrafluoroborate; phases: Liquid, Gas
Fixed: Mole fraction of methylcyclohexane = 0
Property: Activity coefficient of methylcyclohexane (Liquid); method: Chromatography
Temperature, K	Activity coefficient of methylcyclohexane	uncertainty
303.15	92.97	9.79
313.15	79.67	8.39
323.15	67.65	7.13
333.15	58.92	6.2
343.15	51.36	5.41
353.15	43.32	4.56
363.15	32.26	3.4

System: 2,2,4-trimethylpentane + 1-ethyl-3-methylimidazolium tetrafluoroborate; phases: Liquid, Gas
Fixed: Mole fraction of 2,2,4-trimethylpentane = 0
Property: Activity coefficient of 2,2,4-trimethylpentane (Liquid); method: Chromatography
Temperature, K	Activity coefficient of 2,2,4-trimethylpentane	uncertainty
303.15	158.31	16.69
313.15	142.56	15.03
323.15	123.82	13.05
333.15	112.29	11.83
343.15	101.48	10.69
353.15	85.84	9.04
363.15	75.3	7.9

System: cyclohexene + 1-ethyl-3-methylimidazolium tetrafluoroborate; phases: Liquid, Gas
Fixed: Mole fraction of cyclohexene = 0
Property: Activity coefficient of cyclohexene (Liquid); method: Chromatography
Temperature, K	Activity coefficient of cyclohexene	uncertainty
303.15	21.81	2.29
313.15	19.65	2.07
323.15	16.64	1.75
333.15	14.39	1.51
343.15	12.75	1.34
353.15	10.51	1.11
363.15	9.13	0.96

System: styrene + 1-ethyl-3-methylimidazolium tetrafluoroborate; phases: Liquid, Gas
Fixed: Mole fraction of styrene = 0
Property: Activity coefficient of styrene (Liquid); method: Chromatography
Temperature, K	Activity coefficient of styrene	uncertainty
303.15	3.375	0.355
313.15	3.443	0.362
323.15	3.489	0.367
333.15	3.558	0.374
343.15	3.62	0.38
353.15	3.654	0.384
363.15	3.734	0.392

System: benzene + 1-ethyl-3-methylimidazolium tetrafluoroborate; phases: Liquid, Gas
Fixed: Mole fraction of benzene = 0
Property: Activity coefficient of benzene (Liquid); method: Chromatography
Temperature, K	Activity coefficient of benzene	uncertainty
303.15	2.127	0.223
313.15	2.107	0.221
323.15	2.087	0.219
333.15	2.052	0.215
343.15	2.018	0.212
353.15	1.986	0.208
363.15	1.963	0.206

System: toluene + 1-ethyl-3-methylimidazolium tetrafluoroborate; phases: Liquid, Gas
Fixed: Mole fraction of toluene = 0
Property: Activity coefficient of toluene (Liquid); method: Chromatography
Temperature, K	Activity coefficient of toluene	uncertainty
303.15	3.678	0.386
313.15	3.659	0.384
323.15	3.615	0.38
333.15	3.56	0.37
343.15	3.516	0.369
353.15	3.482	0.366
363.15	3.399	0.357

System: ethylbenzene + 1-ethyl-3-methylimidazolium tetrafluoroborate; phases: Liquid, Gas
Fixed: Mole fraction of ethylbenzene = 0
Property: Activity coefficient of ethylbenzene (Liquid); method: Chromatography
Temperature, K	Activity coefficient of ethylbenzene	uncertainty
303.15	6.49	0.68
313.15	6.3	0.66
323.15	6.11	0.64
333.15	5.89	0.62
343.15	5.58	0.59
353.15	5.44	0.57
363.15	5.31	0.56

System: 1,2-dimethylbenzene + 1-ethyl-3-methylimidazolium tetrafluoroborate; phases: Liquid, Gas
Fixed: Mole fraction of 1,2-dimethylbenzene = 0
Property: Activity coefficient of 1,2-dimethylbenzene (Liquid); method: Chromatography
Temperature, K	Activity coefficient of 1,2-dimethylbenzene	uncertainty
303.15	4.73	0.5
313.15	4.69	0.49
323.15	4.64	0.49
333.15	4.58	0.48
343.15	4.5	0.47
353.15	4.41	0.46
363.15	4.34	0.46

System: 1,3-dimethylbenzene + 1-ethyl-3-methylimidazolium tetrafluoroborate; phases: Liquid, Gas
Fixed: Mole fraction of 1,3-dimethylbenzene = 0
Property: Activity coefficient of 1,3-dimethylbenzene (Liquid); method: Chromatography
Temperature, K	Activity coefficient of 1,3-dimethylbenzene	uncertainty
303.15	5.88	0.62
313.15	5.71	0.6
323.15	5.57	0.59
333.15	5.32	0.56
343.15	5.17	0.54
353.15	4.98	0.52
363.15	4.83	0.51

System: 1,4-dimethylbenzene + 1-ethyl-3-methylimidazolium tetrafluoroborate; phases: Liquid, Gas
Fixed: Mole fraction of 1,4-dimethylbenzene = 0
Property: Activity coefficient of 1,4-dimethylbenzene (Liquid); method: Chromatography
Temperature, K	Activity coefficient of 1,4-dimethylbenzene	uncertainty
303.15	5.41	0.57
313.15	5.3	0.56
323.15	5.14	0.54
333.15	5.03	0.53
343.15	4.96	0.52
353.15	4.88	0.51
363.15	4.76	0.5

System: acetonitrile + 1-ethyl-3-methylimidazolium tetrafluoroborate; phases: Liquid, Gas
Fixed: Mole fraction of acetonitrile = 0
Property: Activity coefficient of acetonitrile (Liquid); method: Chromatography
Temperature, K	Activity coefficient of acetonitrile	uncertainty
303.15	0.892	0.091
313.15	0.875	0.09
323.15	0.853	0.087
333.15	0.832	0.085
343.15	0.814	0.084
353.15	0.792	0.082
363.15	0.769	0.079

System: acetone + 1-ethyl-3-methylimidazolium tetrafluoroborate; phases: Liquid, Gas
Fixed: Mole fraction of acetone = 0
Property: Activity coefficient of acetone (Liquid); method: Chromatography
Temperature, K	Activity coefficient of acetone	uncertainty
303.15	1.232	0.126
313.15	1.257	0.129
323.15	1.266	0.13
333.15	1.293	0.133
343.15	1.313	0.135
353.15	1.33	0.137
363.15	1.334	0.137

System: 1,4-dioxane + 1-ethyl-3-methylimidazolium tetrafluoroborate; phases: Liquid, Gas
Fixed: Mole fraction of 1,4-dioxane = 0
Property: Activity coefficient of 1,4-dioxane (Liquid); method: Chromatography
Temperature, K	Activity coefficient of 1,4-dioxane	uncertainty
303.15	1.346	0.139
313.15	1.397	0.144
323.15	1.423	0.147
333.15	1.436	0.148
343.15	1.467	0.152
353.15	1.485	0.154
363.15	1.511	0.157

System: tetrahydrofuran + 1-ethyl-3-methylimidazolium tetrafluoroborate; phases: Liquid, Gas
Fixed: Mole fraction of tetrahydrofuran = 0
Property: Activity coefficient of tetrahydrofuran (Liquid); method: Chromatography
Temperature, K	Activity coefficient of tetrahydrofuran	uncertainty
303.15	1.872	0.196
313.15	1.852	0.194
323.15	1.834	0.192
333.15	1.817	0.19
343.15	1.796	0.188
353.15	1.766	0.184
363.15	1.735	0.181

System: ethyl acetate + 1-ethyl-3-methylimidazolium tetrafluoroborate; phases: Liquid, Gas
Fixed: Mole fraction of ethyl acetate = 0
Property: Activity coefficient of ethyl acetate (Liquid); method: Chromatography
Temperature, K	Activity coefficient of ethyl acetate	uncertainty
303.15	2.938	0.309
313.15	2.92	0.307
323.15	2.892	0.304
333.15	2.867	0.301
343.15	2.835	0.298
353.15	2.795	0.294
363.15	2.755	0.289

System: dichloromethane + 1-ethyl-3-methylimidazolium tetrafluoroborate; phases: Liquid, Gas
Fixed: Mole fraction of dichloromethane = 0
Property: Activity coefficient of dichloromethane (Liquid); method: Chromatography
Temperature, K	Activity coefficient of dichloromethane	uncertainty
303.15	1.123	0.115
313.15	1.161	0.119
323.15	1.206	0.124
333.15	1.255	0.129
343.15	1.319	0.136
353.15	1.36	0.14
363.15	1.385	0.143

System: trichloromethane + 1-ethyl-3-methylimidazolium tetrafluoroborate; phases: Liquid, Gas
Fixed: Mole fraction of trichloromethane = 0
Property: Activity coefficient of trichloromethane (Liquid); method: Chromatography
Temperature, K	Activity coefficient of trichloromethane	uncertainty
303.15	1.361	0.14
313.15	1.375	0.142
323.15	1.39	0.143
333.15	1.409	0.146
343.15	1.426	0.147
353.15	1.46	0.151
363.15	1.495	0.155

System: tetrachloromethane + 1-ethyl-3-methylimidazolium tetrafluoroborate; phases: Liquid, Gas
Fixed: Mole fraction of tetrachloromethane = 0
Property: Activity coefficient of tetrachloromethane (Liquid); method: Chromatography
Temperature, K	Activity coefficient of tetrachloromethane	uncertainty
303.15	4.31	0.45
313.15	4.41	0.46
323.15	4.56	0.48
333.15	4.66	0.49
343.15	4.8	0.5
353.15	4.89	0.51
363.15	4.98	0.52
