Measured thermophysical data. Phase Equilibria Study of the Binary Systems (N-Butyl-4-methylpyridinium Tosylate Ionic Liquid + Organic Solvent, or Water)
Source: J. Chem. Eng. Data, 2009, 10.1021/je8006309
Compound 1: butan-1-ol, C4H10O, InChI=1S/C4H10O/c1-2-3-4-5/h5H,2-4H2,1H3
Compound 2: hexan-1-ol, C6H14O, InChI=1S/C6H14O/c1-2-3-4-5-6-7/h7H,2-6H2,1H3
Compound 3: hexane, C6H14, InChI=1S/C6H14/c1-3-5-6-4-2/h3-6H2,1-2H3
Compound 4: heptane, C7H16, InChI=1S/C7H16/c1-3-5-7-6-4-2/h3-7H2,1-2H3
Compound 5: octane, C8H18, InChI=1S/C8H18/c1-3-5-7-8-6-4-2/h3-8H2,1-2H3
Compound 6: toluene, C7H8, InChI=1S/C7H8/c1-7-5-3-2-4-6-7/h2-6H,1H3
Compound 7: propylbenzene, C9H12, InChI=1S/C9H12/c1-2-6-9-7-4-3-5-8-9/h3-5,7-8H,2,6H2,1H3
Compound 8: tetrahydrofuran, C4H8O, InChI=1S/C4H8O/c1-2-4-5-3-1/h1-4H2
Compound 9: N-butyl-4-methylpyridinium tosylate, C17H23NO3S, InChI=1S/C10H16N.C7H8O3S/c1-3-4-7-11-8-5-10(2)6-9-11;1-6-2-4-7(5-3-6)11(8,9)10/h5-6,8-9H,3-4,7H2,1-2H3;2-5H,1H3,(H,8,9,10)/q+1;/p-1, purity 98%
Compound 10: octan-1-ol, C8H18O, InChI=1S/C8H18O/c1-2-3-4-5-6-7-8-9/h9H,2-8H2,1H3, purity 99.8%
Compound 11: decan-1-ol, C10H22O, InChI=1S/C10H22O/c1-2-3-4-5-6-7-8-9-10-11/h11H,2-10H2,1H3
Compound 12: benzene, C6H6, InChI=1S/C6H6/c1-2-4-6-5-3-1/h1-6H
Compound 13: ethylbenzene, C8H10, InChI=1S/C8H10/c1-2-8-6-4-3-5-7-8/h3-7H,2H2,1H3
Compound 14: water, H2O, InChI=1S/H2O/h1H2, purity 99%

System: N-butyl-4-methylpyridinium tosylate; phases: Crystal, Liquid, Air at 1 atmosphere
Property: Molar enthalpy of transition or fusion, kJ/mol (Crystal); method: DSC
Molar enthalpy of transition or fusion, kJ/mol	uncertainty
14.33	0.38

System: N-butyl-4-methylpyridinium tosylate; phases: Glass, Liquid, Air at 1 atmosphere
Property: Triple point temperature, K (Glass); method: DTA
Triple point temperature, K	uncertainty
215.8	3

System: N-butyl-4-methylpyridinium tosylate; phases: Crystal, Liquid, Air at 1 atmosphere
Property: Normal melting temperature, K (Crystal); method: DTA
Normal melting temperature, K	uncertainty
324.86	0.39

System: octan-1-ol; phases: Crystal, Liquid, Air at 1 atmosphere
Property: Normal melting temperature, K (Crystal); method: VISOBS:UFactor:6
Normal melting temperature, K	uncertainty
259.15	0.93

System: decan-1-ol; phases: Crystal, Liquid, Air at 1 atmosphere
Property: Normal melting temperature, K (Crystal); method: VISOBS:UFactor:6
Normal melting temperature, K	uncertainty
280.51	0.93

System: benzene; phases: Crystal, Liquid, Air at 1 atmosphere
Property: Normal melting temperature, K (Crystal); method: DTA
Normal melting temperature, K	uncertainty
278.29	0.39

System: ethylbenzene; phases: Crystal, Liquid, Air at 1 atmosphere
Property: Normal melting temperature, K (Crystal); method: DTA
Normal melting temperature, K	uncertainty
278.29	0.39

System: water; phases: Crystal, Liquid, Air at 1 atmosphere
Property: Normal melting temperature, K (Crystal); method: VISOBS:UFactor:6
Normal melting temperature, K	uncertainty
273.15	0.93

System: butan-1-ol + N-butyl-4-methylpyridinium tosylate; phases: Liquid, Crystal
Fixed: Pressure, kPa = 101
Property: Solid-liquid equilibrium temperature, K (Liquid); method: VISOBS:UFactor:6
Mole fraction of N-butyl-4-methylpyridinium tosylate	Solid-liquid equilibrium temperature, K	uncertainty
0.2037	244.01	1.02
0.2416	259.51	0.98
0.286	268.84	0.95
0.335	277.92	0.94
0.3898	285.46	0.94
0.463	295.05	0.93
0.4699	294.91	0.93
0.4983	298.4	0.94
0.5312	301.61	0.93
0.5697	304.72	0.93
0.5857	305.3	0.93
0.609	307.66	0.93
0.6522	310.82	0.93
0.6864	312.87	0.93
0.7025	313.58	0.93
0.7337	315.14	0.93
0.7768	317.48	0.93
0.8025	318.4	0.93
0.8239	319.27	0.93
0.8464	320.51	0.93
0.873	321.39	0.93
0.8836	321.86	0.93
0.8997	322.43	0.93
0.9354	323.66	0.93
1	324.86	0.93

System: hexan-1-ol + N-butyl-4-methylpyridinium tosylate; phases: Liquid, Crystal
Fixed: Pressure, kPa = 101
Property: Solid-liquid equilibrium temperature, K (Liquid); method: VISOBS:UFactor:6
Mole fraction of N-butyl-4-methylpyridinium tosylate	Solid-liquid equilibrium temperature, K	uncertainty
0.1669	253.68	0.97
0.2029	263.48	0.96
0.2538	274.72	0.95
0.2826	278.5	0.94
0.3223	284.22	0.94
0.374	290.33	0.94
0.4178	295.02	0.93
0.4781	300.01	0.93
0.5318	304.27	0.93
0.5889	307.29	0.93
0.6297	310.01	0.93
0.6816	312.56	0.93
0.7303	315.03	0.93
0.7865	317.36	0.93
0.8468	320.04	0.93
0.894	321.63	0.93
0.9402	323.29	0.93
1	324.86	0.93

System: octan-1-ol + N-butyl-4-methylpyridinium tosylate; phases: Liquid, Crystal
Fixed: Pressure, kPa = 101
Property: Solid-liquid equilibrium temperature, K (Liquid); method: VISOBS:UFactor:6
Mole fraction of N-butyl-4-methylpyridinium tosylate	Solid-liquid equilibrium temperature, K	uncertainty
0	259.15	0.93
0.0558	259	0.93
0.0798	258.68	0.93
0.1057	257.92	0.93
0.1304	257.41	0.93
0.1544	256.64	0.93

System: octan-1-ol + N-butyl-4-methylpyridinium tosylate; phases: Liquid, Crystal
Fixed: Pressure, kPa = 101
Property: Solid-liquid equilibrium temperature, K (Liquid); method: VISOBS:UFactor:6
Mole fraction of N-butyl-4-methylpyridinium tosylate	Solid-liquid equilibrium temperature, K	uncertainty
0.1827	255.63	1.48
0.1916	265.9	1.09
0.2156	275.7	0.97
0.2458	281.59	0.94
0.2947	286.65	0.94
0.324	289.88	0.93
0.329	290.29	0.93
0.3713	295.12	0.94
0.4395	301.71	0.93
0.5249	307.29	0.93
0.6022	310.91	0.93
0.6736	313.67	0.93
0.7494	316.41	0.93
0.82	318.79	0.93
0.8908	320.94	0.93
0.9513	323	0.93
1	324.86	0.93

System: decan-1-ol + N-butyl-4-methylpyridinium tosylate; phases: Liquid, Crystal 1
Fixed: Pressure, kPa = 101
Property: Solid-liquid equilibrium temperature, K (Liquid); method: VISOBS:UFactor:6
Mole fraction of N-butyl-4-methylpyridinium tosylate	Solid-liquid equilibrium temperature, K	uncertainty
0	280.51	0.93
0.0633	279.47	0.93
0.1103	278.24	0.93
0.1502	277.29	0.93
0.1776	276.41	0.93

System: decan-1-ol + N-butyl-4-methylpyridinium tosylate; phases: Liquid, Crystal
Fixed: Pressure, kPa = 101
Property: Solid-liquid equilibrium temperature, K (Liquid); method: VISOBS:UFactor:6
Mole fraction of N-butyl-4-methylpyridinium tosylate	Solid-liquid equilibrium temperature, K	uncertainty
0.2046	275.79	0.96
0.2359	283.76	0.95
0.2666	288.39	0.94
0.3542	299.13	0.94
0.4054	303.82	0.93
0.4484	306.76	0.93
0.4974	309.74	0.93
0.5432	312.03	0.93
0.5806	313.33	0.93
0.6168	314.69	0.93
0.6609	315.89	0.93
0.737	317.9	0.93
0.7698	318.76	0.93
0.8068	319.62	0.93
0.8465	320.67	0.93
0.8878	321.79	0.93
0.9418	323.25	0.93
0.9788	324.29	0.93
1	324.86	0.93

System: water + N-butyl-4-methylpyridinium tosylate; phases: Liquid, Crystal
Fixed: Pressure, kPa = 101
Property: Solid-liquid equilibrium temperature, K (Liquid); method: VISOBS:UFactor:6
Mole fraction of N-butyl-4-methylpyridinium tosylate	Solid-liquid equilibrium temperature, K	uncertainty
0	273.15	0.93
0.0231	271.62	0.93
0.045	268.96	0.94
0.0574	267.07	0.94
0.0733	264.79	0.95
0.1147	256.64	0.95

System: water + N-butyl-4-methylpyridinium tosylate; phases: Liquid, Crystal
Fixed: Pressure, kPa = 101
Property: Solid-liquid equilibrium temperature, K (Liquid); method: VISOBS:UFactor:6
Mole fraction of N-butyl-4-methylpyridinium tosylate	Solid-liquid equilibrium temperature, K	uncertainty
0.3003	257.26	0.95
0.3276	262.52	0.95
0.3641	268.92	0.94
0.4207	277.27	0.94
0.4722	284.18	0.94
0.5168	290.69	0.94
0.5553	295.12	0.94
0.6022	299.56	0.93
0.6432	303.2	0.93
0.6824	306.36	0.93
0.7289	310.77	0.93
0.791	314.66	0.93
0.8454	317.53	0.93
0.8881	319.63	0.93
0.9407	322.1	0.93
1	324.86	0.93

System: hexane + N-butyl-4-methylpyridinium tosylate; phases: Liquid, Crystal
Fixed: Pressure, kPa = 101
Property: Solid-liquid equilibrium temperature, K (Liquid); method: VISOBS:UFactor:6
Mole fraction of N-butyl-4-methylpyridinium tosylate	Solid-liquid equilibrium temperature, K	uncertainty
0.8963	317.93	0.93
0.9118	319.29	0.93
0.9145	319.51	0.93
0.9216	320.02	0.93
0.9354	320.91	0.93
0.9573	322.29	0.93
0.9847	323.97	0.93
0.9933	324.45	0.93
1	324.86	0.93

System: hexane + N-butyl-4-methylpyridinium tosylate; phases: Liquid mixture 1, Liquid mixture 2
Fixed: Pressure, kPa = 101
Property: Liquid-liquid equilibrium temperature, K (Liquid mixture 1); method: Dynamic method
Mole fraction of N-butyl-4-methylpyridinium tosylate	Liquid-liquid equilibrium temperature, K	uncertainty
1.7e-05	318.15	1
2.2e-05	323.15	1
3.4e-05	328.15	1
5.1e-05	333.15	1
0.8054	384.68	1.04
0.8242	378.99	1.05
0.8402	373.49	1.05
0.8522	370.11	1.05
0.8572	367.94	1.07
0.8638	365.68	1.09
0.8733	360.88	1.18
0.881	354.79	1.34
0.8896	346.49	1.74
0.893	336.44	3.12

System: heptane + N-butyl-4-methylpyridinium tosylate; phases: Liquid, Crystal
Fixed: Pressure, kPa = 101
Property: Solid-liquid equilibrium temperature, K (Liquid); method: VISOBS:UFactor:6
Mole fraction of N-butyl-4-methylpyridinium tosylate	Solid-liquid equilibrium temperature, K	uncertainty
0.9612	324.54	0.93
0.9745	324.66	0.93
0.9797	324.71	0.93
0.989	324.71	0.93
0.995	324.8	0.93
1	324.86	0.93

System: heptane + N-butyl-4-methylpyridinium tosylate; phases: Liquid mixture 1, Liquid mixture 2
Fixed: Pressure, kPa = 101
Property: Liquid-liquid equilibrium temperature, K (Liquid mixture 1); method: Dynamic method
Mole fraction of N-butyl-4-methylpyridinium tosylate	Liquid-liquid equilibrium temperature, K	uncertainty
0.8631	386.98	1.09
0.8807	379.53	1.09
0.885	377.68	1.07
0.8929	374.83	1.06
0.9006	372.03	1.15
0.9073	366.52	1.21
0.9141	362.82	1.21
0.9199	357.83	1.26
0.9269	352.99	1.27
0.9324	348.07	1.5
0.9364	342.3	1.56
0.9434	334.68	1.51
0.9481	329.06	1.56

System: octane + N-butyl-4-methylpyridinium tosylate; phases: Liquid, Crystal
Fixed: Pressure, kPa = 101
Property: Solid-liquid equilibrium temperature, K (Liquid); method: VISOBS:UFactor:6
Mole fraction of N-butyl-4-methylpyridinium tosylate	Solid-liquid equilibrium temperature, K	uncertainty
0.9803	324.21	0.93
0.9858	324.49	0.93
0.9915	324.74	0.93
1	324.86	0.93

System: octane + N-butyl-4-methylpyridinium tosylate; phases: Liquid mixture 1, Liquid mixture 2
Fixed: Pressure, kPa = 101
Property: Liquid-liquid equilibrium temperature, K (Liquid mixture 1); method: Dynamic method
Mole fraction of N-butyl-4-methylpyridinium tosylate	Liquid-liquid equilibrium temperature, K	uncertainty
0.9335	387.07	1.29
0.9384	383.11	1.43
0.9431	377.23	1.52
0.9479	372.26	1.73
0.9545	361.32	1.88
0.9587	355.18	1.82
0.9645	346.19	1.79
0.9703	337.93	1.95
0.9751	328.4	2.22

System: benzene + N-butyl-4-methylpyridinium tosylate; phases: Liquid mixture 1, Liquid mixture 2
Fixed: Pressure, kPa = 101
Property: Liquid-liquid equilibrium temperature, K (Liquid mixture 1); method: Dynamic method
Mole fraction of N-butyl-4-methylpyridinium tosylate	Liquid-liquid equilibrium temperature, K	uncertainty
0.000569	303.15	1
0.000575	308.15	1
0.00058	318.15	1
0.000617	323.15	1
0.000658	328.15	1
0.000708	333.15	1
0.000798	338.15	1
0.0009	343.15	1
0.000976	348.15	1.01
0.2369	318.99	4.3
0.2392	309.38	4.45
0.2409	301.6	5.14
0.2425	292.71	5.65

System: benzene + N-butyl-4-methylpyridinium tosylate; phases: Liquid, Crystal
Fixed: Pressure, kPa = 101
Property: Solid-liquid equilibrium temperature, K (Liquid); method: VISOBS:UFactor:6
Mole fraction of N-butyl-4-methylpyridinium tosylate	Solid-liquid equilibrium temperature, K	uncertainty
0.2652	278.29	1.02
0.2671	277.5	1.02
0.3086	284.32	0.94
0.3528	288.97	0.94
0.3966	293.64	0.93
0.434	296.37	0.93
0.4682	298.76	0.93
0.5097	301.14	0.93
0.546	303.41	0.93
0.5865	305.64	0.93
0.6175	307.34	0.93
0.6581	309.64	0.93
0.6974	311.48	0.93
0.7465	313.71	0.93
0.8005	316.17	0.93
0.8483	318.44	0.93
0.8795	319.67	0.93
0.9195	321.08	0.93
0.9589	322.84	0.93
1	324.86	0.93

System: toluene + N-butyl-4-methylpyridinium tosylate; phases: Liquid, Crystal
Fixed: Pressure, kPa = 101
Property: Solid-liquid equilibrium temperature, K (Liquid); method: VISOBS:UFactor:6
Mole fraction of N-butyl-4-methylpyridinium tosylate	Solid-liquid equilibrium temperature, K	uncertainty
0.4573	302.52	0.93
0.4626	302.72	0.93
0.4952	304.07	0.93
0.5323	305.39	0.93
0.5653	306.78	0.93
0.6001	308.44	0.93
0.6411	310.13	0.93
0.6877	312.18	0.93
0.7217	313.36	0.93
0.7618	315	0.93
0.8053	317.02	0.93
0.8556	318.59	0.93
0.914	320.67	0.93
0.9428	322.06	0.93
0.9706	323.84	0.93
1	324.86	0.93

System: toluene + N-butyl-4-methylpyridinium tosylate; phases: Liquid mixture 1, Liquid mixture 2
Fixed: Pressure, kPa = 101
Property: Liquid-liquid equilibrium temperature, K (Liquid mixture 1); method: Dynamic method
Mole fraction of N-butyl-4-methylpyridinium tosylate	Liquid-liquid equilibrium temperature, K	uncertainty
0.4031	368.82	1.9
0.4089	359.46	1.87
0.4146	350.68	1.81
0.4203	342.23	1.95
0.4277	328.83	2.16
0.4318	320.11	1.96
0.4381	311.06	1.54
0.4448	304.93	1.36

System: ethylbenzene + N-butyl-4-methylpyridinium tosylate; phases: Liquid, Crystal
Fixed: Pressure, kPa = 101
Property: Solid-liquid equilibrium temperature, K (Liquid); method: VISOBS:UFactor:6
Mole fraction of N-butyl-4-methylpyridinium tosylate	Solid-liquid equilibrium temperature, K	uncertainty
0.6199	310.59	0.93
0.6419	311.43	0.93
0.6911	312.81	0.93
0.7358	314.01	0.93
0.781	315.82	0.93
0.8169	317.3	0.93
0.8546	318.77	0.93
0.9006	320.36	0.93
0.9467	322.1	0.93
0.9732	322.87	0.93
1	324.37	0.93

System: ethylbenzene + N-butyl-4-methylpyridinium tosylate; phases: Liquid mixture 1, Liquid mixture 2
Fixed: Pressure, kPa = 101
Property: Liquid-liquid equilibrium temperature, K (Liquid mixture 1); method: Dynamic method
Mole fraction of N-butyl-4-methylpyridinium tosylate	Liquid-liquid equilibrium temperature, K	uncertainty
9.6e-05	313.15	1
0.000102	318.15	1
0.000116	323.15	1
0.000177	333.15	1
0.000248	343.15	1
0.5276	378.51	1.43
0.5394	366.49	1.47
0.5484	356.16	1.48
0.5569	347.38	1.37
0.5666	339.07	1.49
0.5737	328.66	1.74
0.5826	316.22	1.72

System: propylbenzene + N-butyl-4-methylpyridinium tosylate; phases: Liquid, Crystal
Fixed: Pressure, kPa = 101
Property: Solid-liquid equilibrium temperature, K (Liquid); method: VISOBS:UFactor:6
Mole fraction of N-butyl-4-methylpyridinium tosylate	Solid-liquid equilibrium temperature, K	uncertainty
0.7153	315.43	0.93
0.7544	316.8	0.93
0.78	317.73	0.93
0.8031	318.43	0.93
0.8281	319.19	0.93
0.8532	320.06	0.93
0.8807	320.9	0.93
0.9134	321.82	0.93
0.9461	322.73	0.93
0.9754	323.76	0.93
1	324.86	0.93

System: propylbenzene + N-butyl-4-methylpyridinium tosylate; phases: Liquid mixture 1, Liquid mixture 2
Fixed: Pressure, kPa = 101
Property: Liquid-liquid equilibrium temperature, K (Liquid mixture 1); method: Dynamic method
Mole fraction of N-butyl-4-methylpyridinium tosylate	Liquid-liquid equilibrium temperature, K	uncertainty
0.6526	390.4	1.42
0.6583	384.62	1.51
0.6633	378.32	1.41
0.67	372.88	1.28
0.6767	367.66	1.3
0.6811	363.64	1.48
0.688	355.38	2.01
0.6905	345.88	4.68
0.6937	329.49	5.22

System: tetrahydrofuran + N-butyl-4-methylpyridinium tosylate; phases: Liquid, Crystal
Fixed: Pressure, kPa = 101
Property: Solid-liquid equilibrium temperature, K (Liquid); method: VISOBS:UFactor:6
Mole fraction of N-butyl-4-methylpyridinium tosylate	Solid-liquid equilibrium temperature, K	uncertainty
0.2721	293.29	0.93
0.3096	294.52	0.93
0.3474	296.41	0.93
0.3834	298.13	0.93
0.411	299.36	0.93
0.4454	300.99	0.93
0.4763	302.5	0.93
0.5108	304.14	0.93
0.5517	306.26	0.93
0.5869	308.17	0.93
0.6195	309.64	0.93
0.6493	311.09	0.93
0.6825	312.77	0.93
0.7209	314.22	0.93
0.7572	315.8	0.93
0.7919	317.22	0.93
0.8234	318.42	0.93
0.8497	319.62	0.93
0.8714	320.56	0.93
0.8965	321.48	0.93
0.9206	322.57	0.93
0.945	323.27	0.93
0.9699	324.11	0.93
1	324.86	0.93

System: tetrahydrofuran + N-butyl-4-methylpyridinium tosylate; phases: Liquid mixture 1, Liquid mixture 2
Fixed: Pressure, kPa = 101
Property: Liquid-liquid equilibrium temperature, K (Liquid mixture 1); method: Dynamic method
Mole fraction of N-butyl-4-methylpyridinium tosylate	Liquid-liquid equilibrium temperature, K	uncertainty
0.0025	314.8	14.44
0.0035	324.79	1.01
0.0038	333.53	14.44
0.0044	345.39	16.13
0.1917	353.33	3.28
0.1953	342.08	3.03
0.1991	332.16	1.82
0.2078	322.12	1.51
0.2135	315.98	1.17
0.2239	311.76	5.42
0.2253	304.3	5.42
0.2263	301.12	4.54
