Measured thermophysical data. Measurement and Correlation for Solubilities of Naphthalene in Acetone, Toluene, Xylene, Ethanol, Heptane, and 1-Butanol
Source: J. Chem. Eng. Data, 2009, 10.1021/je800628a
Compound 1: naphthalene, C10H8, InChI=1S/C10H8/c1-2-6-10-8-4-3-7-9(10)5-1/h1-8H
Compound 2: acetone, C3H6O, InChI=1S/C3H6O/c1-3(2)4/h1-2H3, purity 99.5%
Compound 3: ethanol, C2H6O, InChI=1S/C2H6O/c1-2-3/h3H,2H2,1H3, purity 99.7%
Compound 4: toluene, C7H8, InChI=1S/C7H8/c1-7-5-3-2-4-6-7/h2-6H,1H3, purity 99.5%
Compound 5: heptane, C7H16, InChI=1S/C7H16/c1-3-5-7-6-4-2/h3-7H2,1-2H3, purity 99.7%
Compound 6: butan-1-ol, C4H10O, InChI=1S/C4H10O/c1-2-3-4-5/h5H,2-4H2,1H3, purity 99%

System: naphthalene; phases: Crystal, Liquid, Air at 1 atmosphere
Property: Molar enthalpy of transition or fusion, kJ/mol (Crystal); method: DSC
Molar enthalpy of transition or fusion, kJ/mol	uncertainty
17.828519332	0.551133236

System: naphthalene; phases: Crystal, Liquid, Air at 1 atmosphere
Property: Normal melting temperature, K (Crystal); method: DTA
Normal melting temperature, K	uncertainty
356.1	1.1

System: acetone + naphthalene; phases: Liquid, Crystal
Fixed: Pressure, kPa = 101
Property: Solid-liquid equilibrium temperature, K (Liquid); method: Ebulliometric method (Recirculating still)
Mole fraction of naphthalene	Solid-liquid equilibrium temperature, K	uncertainty
0.2106	297.17	0.5
0.2185	298.11	0.56
0.2329	300.23	0.54
0.246	301.55	0.56
0.2589	303.47	0.61
0.2724	305.14	0.59
0.2846	306.63	0.55
0.2972	307.76	0.57
0.3101	309.37	0.66
0.323	311.03	0.61
0.3346	312.03	0.52
0.3468	312.97	0.56
0.3608	314.37	0.6
0.3762	315.74	0.58
0.3942	317.26	0.59
0.4154	319.06	0.58
0.4397	320.87	0.63
0.4586	322.7	0.72

System: ethanol + naphthalene; phases: Liquid, Crystal
Fixed: Pressure, kPa = 101
Property: Solid-liquid equilibrium temperature, K (Liquid); method: Ebulliometric method (Recirculating still)
Mole fraction of naphthalene	Solid-liquid equilibrium temperature, K	uncertainty
0.0464	304.26	1.4
0.05311	307.44	1.7
0.05656	309.53	1.88
0.06141	311.93	2.03
0.06584	314.52	1.85
0.07025	315.93	1.55
0.07601	318.07	1.62
0.08161	319.8	1.5
0.08761	321.46	0.95
0.1035	323.45	1.02
0.1162	325.68	1.17
0.1285	327.32	1.29
0.1395	329.34	1.11
0.1539	330.43	0.84
0.1742	332	0.86
0.2036	333.9	0.87
0.2382	335.9	0.76
0.2935	337.76	0.66
0.3815	339.76	0.69

System: naphthalene + toluene; phases: Liquid, Crystal
Fixed: Pressure, kPa = 101
Property: Solid-liquid equilibrium temperature, K (Liquid); method: Ebulliometric method (Recirculating still)
Mole fraction of naphthalene	Solid-liquid equilibrium temperature, K	uncertainty
0.2395	291.35	1.4
0.3103	301.45	1.69
0.3396	304.54	1.55
0.3739	308.53	1.71
0.4055	311.93	1.71
0.4387	315.25	1.78
0.4717	318.55	2.08
0.5027	322.23	1.81
0.5371	324.37	1.36
0.5889	327.55	1.67
0.6374	331.35	2.07
0.6773	334.65	2.26

System: naphthalene + heptane; phases: Liquid, Crystal
Fixed: Pressure, kPa = 101
Property: Solid-liquid equilibrium temperature, K (Liquid); method: Ebulliometric method (Recirculating still)
Mole fraction of naphthalene	Solid-liquid equilibrium temperature, K	uncertainty
0.05948	290.25	2.22
0.07054	294.3	2.67
0.07982	297.85	3.1
0.08893	301.37	2.61
0.09778	303.04	2.21
0.1066	305.3	2.81
0.115	307.53	2.99
0.1234	309.63	2.6
0.1326	311.2	2.25
0.1412	312.6	2.44
0.1498	314.13	2.27
0.1583	315.15	2.19
0.16823	316.63	2.29
0.177	317.65	2.08
0.209	321.33	2.61
0.2302	324.25	2.33
0.2646	326.98	1.9
0.3044	329.45	1.63
0.3294	330.26	1.51
0.3505	331.5	2.09
0.389	333.75	2.31

System: butan-1-ol + naphthalene; phases: Liquid, Crystal
Fixed: Pressure, kPa = 101
Property: Solid-liquid equilibrium temperature, K (Liquid); method: Ebulliometric method (Recirculating still)
Mole fraction of naphthalene	Solid-liquid equilibrium temperature, K	uncertainty
0.1127	313.77	0.98
0.1195	315.17	0.81
0.1388	317.98	0.84
0.159	320.74	0.87
0.1828	323.67	0.84
0.2046	325.6	0.8
0.2279	327.76	0.72
0.2524	329.03	0.69
0.2937	331.8	0.74
0.3326	333.65	0.62
0.3749	335.1	0.57
0.4363	337	0.6
0.4766	338.15	0.63
0.5265	339.63	0.65
0.5674	340.65	0.66
0.6197	342.04	0.65
0.6605	342.8	0.58
