Measured thermophysical data. Excess Molar Volume and Viscosity Deviation for the Methanol + Methyl Methacrylate Binary System at T) (283.15 to 333.15) K
Source: J. Chem. Eng. Data, 2008, 10.1021/je800164w
Compound 1: methanol, CH4O, InChI=1S/CH4O/c1-2/h2H,1H3, purity 99.9%
Compound 2: methyl methacrylate, C5H8O2, InChI=1S/C5H8O2/c1-4(2)5(6)7-3/h1H2,2-3H3, purity 99%

System: methanol; phases: Liquid
Fixed: Pressure, kPa = 101.325
Property: Viscosity, Pa*s (Liquid); method: Capillary tube (Ostwald; Ubbelohde) method
Temperature, K	Viscosity, Pa*s	uncertainty
283.15	0.0006781	4.5e-06
288.15	0.0006315	4.2e-06
293.15	0.0005884	4e-06
298.15	0.0005509	3.8e-06
303.15	0.0005154	3.6e-06
308.15	0.0004849	3.4e-06
313.15	0.0004576	3.3e-06
318.15	0.0004324	3.1e-06
323.15	0.0004093	3e-06
328.15	0.0003903	2.9e-06
333.15	0.0003724	2.8e-06

System: methanol; phases: Liquid
Fixed: Pressure, kPa = 101.325
Property: Mass density, kg/m3 (Liquid); method: VIBTUB:UFactor:2
Temperature, K	Mass density, kg/m3	uncertainty
283.15	800.605	0.222
288.15	795.915	0.226
293.15	791.218	0.23
298.15	786.507	0.233
303.15	781.778	0.237
308.15	777.028	0.241
313.15	772.238	0.245
318.15	767.326	0.249
323.15	762.567	0.253
328.15	757.671	0.257
333.15	752.801	0.261

System: methyl methacrylate; phases: Liquid
Fixed: Pressure, kPa = 101.325
Property: Viscosity, Pa*s (Liquid); method: Capillary tube (Ostwald; Ubbelohde) method
Temperature, K	Viscosity, Pa*s	uncertainty
283.15	0.0006808	5.6e-06
288.15	0.0006337	5.3e-06
293.15	0.0005899	4.9e-06
298.15	0.000554	4.7e-06
303.15	0.0005248	4.5e-06
308.15	0.0004956	4.3e-06
313.15	0.0004719	4.1e-06
318.15	0.0004497	3.9e-06
323.15	0.0004294	3.8e-06
328.15	0.00041	3.6e-06
333.15	0.0003938	3.5e-06

System: methyl methacrylate; phases: Liquid
Fixed: Pressure, kPa = 101.325
Property: Mass density, kg/m3 (Liquid); method: VIBTUB:UFactor:6
Temperature, K	Mass density, kg/m3	uncertainty
283.15	954.802	0.474
288.15	949.097	0.486
293.15	943.365	0.497
298.15	937.615	0.509
303.15	931.837	0.521
308.15	926.032	0.533
313.15	920.185	0.544
318.15	914.317	0.557
323.15	908.405	0.569
328.15	902.468	0.581
333.15	896.479	0.593

System: methanol + methyl methacrylate; phases: Liquid
Fixed: Pressure, kPa = 101
Property: Viscosity, Pa*s (Liquid); method: Capillary tube (Ostwald; Ubbelohde) method
Temperature, K	Mole fraction of methanol	Viscosity, Pa*s	uncertainty
283.15	0.1152	0.0006547	5.2e-06
283.15	0.2092	0.0006439	5e-06
283.15	0.3024	0.0006401	4.8e-06
283.15	0.4008	0.0006374	4.7e-06
283.15	0.5011	0.0006344	4.6e-06
283.15	0.6041	0.0006366	4.5e-06
283.15	0.7013	0.0006419	4.4e-06
283.15	0.8003	0.0006539	4.4e-06
283.15	0.9033	0.0006667	4.4e-06
288.15	0.1152	0.0006127	4.9e-06
288.15	0.2092	0.0006057	4.7e-06
288.15	0.3024	0.0006003	4.6e-06
288.15	0.4008	0.0005962	4.4e-06
288.15	0.5011	0.0005922	4.3e-06
288.15	0.6041	0.0005955	4.2e-06
288.15	0.7013	0.0005989	4.2e-06
288.15	0.8003	0.0006113	4.2e-06
288.15	0.9033	0.0006208	4.2e-06
293.15	0.1152	0.0005752	4.7e-06
293.15	0.2092	0.0005665	4.5e-06
293.15	0.3024	0.0005622	4.3e-06
293.15	0.4008	0.0005592	4.2e-06
293.15	0.5011	0.0005546	4.1e-06
293.15	0.6041	0.0005576	4e-06
293.15	0.7013	0.0005612	3.9e-06
293.15	0.8003	0.0005709	3.9e-06
293.15	0.9033	0.0005792	3.9e-06
298.15	0.1152	0.0005416	4.4e-06
298.15	0.2092	0.0005329	4.2e-06
298.15	0.3024	0.0005294	4.1e-06
298.15	0.4008	0.0005266	4e-06
298.15	0.5011	0.0005222	3.9e-06
298.15	0.6041	0.0005232	3.8e-06
298.15	0.7013	0.0005269	3.8e-06
298.15	0.8003	0.0005357	3.7e-06
298.15	0.9033	0.0005425	3.7e-06
303.15	0.1152	0.0005126	4.2e-06
303.15	0.2092	0.0005046	4.1e-06
303.15	0.3024	0.0005012	3.9e-06
303.15	0.4008	0.0004973	3.8e-06
303.15	0.5011	0.0004928	3.7e-06
303.15	0.6041	0.0004944	3.6e-06
303.15	0.7013	0.0004965	3.6e-06
303.15	0.8003	0.0005036	3.6e-06
303.15	0.9033	0.0005088	3.6e-06
308.15	0.1152	0.0004841	4e-06
308.15	0.2092	0.0004783	3.9e-06
308.15	0.3024	0.0004739	3.8e-06
308.15	0.4008	0.0004705	3.6e-06
308.15	0.5011	0.0004665	3.5e-06
308.15	0.6041	0.0004673	3.5e-06
308.15	0.7013	0.0004689	3.4e-06
308.15	0.8003	0.0004748	3.4e-06
308.15	0.9033	0.0004792	3.4e-06
313.15	0.1152	0.0004611	3.9e-06
313.15	0.2092	0.0004552	3.7e-06
313.15	0.3024	0.0004511	3.6e-06
313.15	0.4008	0.0004474	3.5e-06
313.15	0.5011	0.0004428	3.4e-06
313.15	0.6041	0.0004435	3.3e-06
313.15	0.7013	0.0004441	3.3e-06
313.15	0.8003	0.0004493	3.3e-06
313.15	0.9033	0.0004529	3.3e-06
318.15	0.1152	0.0004391	3.7e-06
318.15	0.2092	0.0004335	3.6e-06
318.15	0.3024	0.0004297	3.5e-06
318.15	0.4008	0.0004261	3.4e-06
318.15	0.5011	0.0004212	3.3e-06
318.15	0.6041	0.0004228	3.2e-06
318.15	0.7013	0.0004243	3.2e-06
318.15	0.8003	0.0004259	3.1e-06
318.15	0.9033	0.0004285	3.1e-06
323.15	0.1152	0.0004195	3.6e-06
323.15	0.2092	0.0004138	3.5e-06
323.15	0.3024	0.0004101	3.3e-06
323.15	0.4008	0.0004063	3.2e-06
323.15	0.5011	0.0004022	3.2e-06
323.15	0.6041	0.0004031	3.1e-06
323.15	0.7013	0.0004043	3.1e-06
323.15	0.8003	0.0004057	3e-06
323.15	0.9033	0.0004065	3e-06
328.15	0.1152	0.0004015	3.5e-06
328.15	0.2092	0.0003956	3.3e-06
328.15	0.3024	0.0003923	3.2e-06
328.15	0.4008	0.0003879	3.1e-06
328.15	0.5011	0.000384	3e-06
328.15	0.6041	0.0003849	3e-06
328.15	0.7013	0.0003857	2.9e-06
328.15	0.8003	0.0003871	2.9e-06
328.15	0.9033	0.0003882	2.9e-06
333.15	0.1152	0.0003857	3.3e-06
333.15	0.2092	0.0003812	3.2e-06
333.15	0.3024	0.0003766	3.1e-06
333.15	0.4008	0.0003718	3e-06
333.15	0.5011	0.0003678	2.9e-06
333.15	0.6041	0.0003688	2.9e-06
333.15	0.7013	0.0003695	2.9e-06
333.15	0.8003	0.0003705	2.8e-06
333.15	0.9033	0.0003711	2.8e-06

System: methanol + methyl methacrylate; phases: Liquid
Fixed: Pressure, kPa = 101
Property: Mass density, kg/m3 (Liquid); method: VIBTUB:UFactor:4
Temperature, K	Mole fraction of methanol	Mass density, kg/m3	uncertainty
283.15	0.1152	948.203	0.348
283.15	0.2092	941.705	0.331
283.15	0.3024	934.026	0.318
283.15	0.4008	924.596	0.311
283.15	0.5011	913.289	0.31
283.15	0.6041	899.281	0.316
283.15	0.7013	882.998	0.33
283.15	0.8003	862.45	0.354
283.15	0.9033	834.809	0.391
288.15	0.1152	942.499	0.355
288.15	0.2092	936.017	0.338
288.15	0.3024	928.391	0.326
288.15	0.4008	919.024	0.319
288.15	0.5011	907.797	0.318
288.15	0.6041	893.887	0.324
288.15	0.7013	877.696	0.338
288.15	0.8003	857.304	0.362
288.15	0.9033	829.862	0.398
293.15	0.1152	936.771	0.362
293.15	0.2092	930.303	0.346
293.15	0.3024	922.727	0.334
293.15	0.4008	913.423	0.327
293.15	0.5011	902.273	0.326
293.15	0.6041	888.436	0.332
293.15	0.7013	872.375	0.346
293.15	0.8003	852.138	0.369
293.15	0.9033	824.9	0.406
298.15	0.1152	931.013	0.369
298.15	0.2092	924.564	0.353
298.15	0.3024	917.034	0.342
298.15	0.4008	907.788	0.335
298.15	0.5011	896.707	0.334
298.15	0.6041	882.983	0.34
298.15	0.7013	867.022	0.354
298.15	0.8003	846.948	0.377
298.15	0.9033	819.918	0.414
303.15	0.1152	925.226	0.377
303.15	0.2092	918.792	0.361
303.15	0.3024	911.309	0.35
303.15	0.4008	902.119	0.343
303.15	0.5011	891.106	0.342
303.15	0.6041	877.479	0.348
303.15	0.7013	861.643	0.362
303.15	0.8003	841.725	0.385
303.15	0.9033	814.913	0.421
308.15	0.1152	919.404	0.384
308.15	0.2092	912.999	0.368
308.15	0.3024	905.566	0.358
308.15	0.4008	896.436	0.351
308.15	0.5011	885.499	0.35
308.15	0.6041	871.944	0.356
308.15	0.7013	856.222	0.37
308.15	0.8003	836.468	0.393
308.15	0.9033	809.896	0.429
313.15	0.1152	913.549	0.392
313.15	0.2092	907.145	0.376
313.15	0.3024	899.758	0.365
313.15	0.4008	890.692	0.359
313.15	0.5011	879.823	0.358
313.15	0.6041	866.361	0.365
313.15	0.7013	850.759	0.378
313.15	0.8003	831.171	0.401
313.15	0.9033	804.854	0.437
318.15	0.1152	907.673	0.399
318.15	0.2092	901.251	0.384
318.15	0.3024	893.899	0.374
318.15	0.4008	884.889	0.367
318.15	0.5011	874.068	0.367
318.15	0.6041	860.693	0.373
318.15	0.7013	845.279	0.387
318.15	0.8003	825.819	0.409
318.15	0.9033	799.711	0.445
323.15	0.1152	901.723	0.407
323.15	0.2092	895.325	0.392
323.15	0.3024	888.029	0.382
323.15	0.4008	879.081	0.376
323.15	0.5011	868.343	0.375
323.15	0.6041	855.055	0.382
323.15	0.7013	839.741	0.395
323.15	0.8003	820.417	0.418
323.15	0.9033	794.611	0.452
328.15	0.1152	895.739	0.414
328.15	0.2092	889.344	0.4
328.15	0.3024	882.091	0.39
328.15	0.4008	873.178	0.384
328.15	0.5011	862.493	0.384
328.15	0.6041	849.321	0.39
328.15	0.7013	834.153	0.404
328.15	0.8003	815.009	0.426
328.15	0.9033	789.453	0.46
333.15	0.1152	889.735	0.422
333.15	0.2092	883.385	0.408
333.15	0.3024	876.178	0.398
333.15	0.4008	867.346	0.392
333.15	0.5011	856.732	0.392
333.15	0.6041	843.663	0.399
333.15	0.7013	828.639	0.412
333.15	0.8003	809.661	0.434
333.15	0.9033	784.311	0.468
