Measured thermophysical data. Solubilities of Carbon Dioxide, Methane, and Ethane in Sodium Chloride Solution Containing Gas Hydrate
Source: J. Chem. Eng. Data, 2008, 10.1021/je800074z
Compound 1: water, H2O, InChI=1S/H2O/h1H2
Compound 2: carbon dioxide, CO2, InChI=1S/CO2/c2-1-3
Compound 3: methane, CH4, InChI=1S/CH4/h1H4
Compound 4: ethane, C2H6, InChI=1S/C2H6/c1-2/h1-2H3
Compound 5: sodium chloride, ClNa, InChI=1S/ClH.Na/h1H;/q;+1/p-1

System: water + carbon dioxide; phases: Liquid mixture 1, Liquid mixture 2
Property: Mole fraction of carbon dioxide (Liquid mixture 1); method: Phase equilibration
Pressure, kPa	Temperature, K	Mole fraction of carbon dioxide	uncertainty
10100	279.1	0.0231	0.0006
10100	280.4	0.0251	0.0006
10100	281.1	0.0271	0.0008
12100	279.7	0.023	0.0006
12100	280.8	0.0251	0.0006
15100	279.7	0.0231	0.0006
15100	280.8	0.0251	0.0007
15100	281.5	0.0271	0.0008
20100	279.5	0.0227	0.0007
20100	280.4	0.0251	0.0007

System: water + methane; phases: Liquid, Gas
Property: Mole fraction of methane (Liquid); method: Phase equilibration
Pressure, kPa	Temperature, K	Mole fraction of methane	uncertainty
10100	280.3	0.00178	4e-05
12700	280.5	0.00178	4e-05
14300	280.8	0.00178	4e-05

System: water + ethane; phases: Liquid, Gas
Property: Mole fraction of ethane (Liquid); method: Phase equilibration
Pressure, kPa	Temperature, K	Mole fraction of ethane	uncertainty
10100	277.7	0.000353	1.1e-05
10100	278.9	0.0004	1.2e-05
10100	280	0.00045	1.2e-05
15100	278.4	0.000354	1.1e-05
15100	279.5	0.000397	1.2e-05
15100	280.7	0.000452	1.3e-05

System: water + sodium chloride + carbon dioxide; phases: Liquid mixture 1, Liquid mixture 2
Fixed: Solvent: Molality, mol/kg of sodium chloride = 1
Property: Mole fraction of carbon dioxide (Liquid mixture 1); method: Phase equilibration
Pressure, kPa	Temperature, K	Mole fraction of carbon dioxide	uncertainty
10100	278.9	0.0227	0.00056
10100	280	0.02447	0.00059
15100	279.3	0.0227	0.00056
15100	280.4	0.02447	0.00059
20100	278.8	0.0227	0.00058
20100	279.8	0.02447	0.00061

System: water + sodium chloride + methane; phases: Liquid, Gas
Fixed: Solvent: Molality, mol/kg of sodium chloride = 1
Property: Mole fraction of methane (Liquid); method: Phase equilibration
Pressure, kPa	Temperature, K	Mole fraction of methane	uncertainty
10100	277.8	0.001198	3.2e-05
10100	279.6	0.001385	3.5e-05
10100	281.6	0.001591	3.8e-05
10100	283.2	0.001749	4e-05
15100	278.5	0.001198	3.5e-05
15100	280	0.001385	3.5e-05
15100	282.1	0.001591	3.7e-05
15100	283.7	0.001749	4e-05

System: water + sodium chloride + ethane; phases: Liquid, Gas
Fixed: Solvent: Molality, mol/kg of sodium chloride = 1
Property: Mole fraction of ethane (Liquid); method: Phase equilibration
Pressure, kPa	Temperature, K	Mole fraction of ethane	uncertainty
10100	278.5	0.000332	1.01e-05
10100	279.8	0.0003811	1.14e-05
10100	280.7	0.0004263	1.2e-05
15100	279.1	0.0003281	1.09e-05
15100	280.3	0.0003802	1.2e-05
15100	281.2	0.0004263	1.33e-05
