Measured thermophysical data. Solubility of D-(p-Hydroxy)phenylglycine in Water + 2-Propanol from (293 to 343) K
Source: J. Chem. Eng. Data, 2008, 10.1021/je800611r
Compound 1: (2R)-amino(4-hydroxyphenyl)ethanoic acid, C8H9NO3, InChI=1S/C8H9NO3/c9-7(8(11)12)5-1-3-6(10)4-2-5/h1-4,7,10H,9H2,(H,11,12)/t7-/m1/s1, purity 99.4%
Compound 2: propan-2-ol, C3H8O, InChI=1S/C3H8O/c1-3(2)4/h3-4H,1-2H3
Compound 3: water, H2O, InChI=1S/H2O/h1H2

System: water + (2R)-amino(4-hydroxyphenyl)ethanoic acid; phases: Liquid, Crystal
Fixed: Pressure, kPa = 101
Property: Mole fraction of (2R)-amino(4-hydroxyphenyl)ethanoic acid (Liquid); method: laser assisted observation
Temperature, K	Mole fraction of (2R)-amino(4-hydroxyphenyl)ethanoic acid	uncertainty
293.25	0.00196	5.7e-05
298.13	0.002101	5.9e-05
303.15	0.002237	6.3e-05
308.18	0.002407	6.8e-05
313.15	0.002548	7.2e-05
318.17	0.002718	7.6e-05
323.15	0.002982	8.4e-05
328.11	0.003187	9e-05
333.15	0.003439	9.7e-05
338.16	0.003663	0.000103
343.15	0.00391	0.00011

System: propan-2-ol + water + (2R)-amino(4-hydroxyphenyl)ethanoic acid; phases: Liquid, Crystal
Fixed: Pressure, kPa = 101
Property: Mole fraction of (2R)-amino(4-hydroxyphenyl)ethanoic acid (Liquid); method: laser assisted observation
Solvent: Mole fraction of propan-2-ol	Temperature, K	Mole fraction of (2R)-amino(4-hydroxyphenyl)ethanoic acid	uncertainty
0	293.25	0.00196	5.7e-05
0	298.13	0.002101	5.9e-05
0	303.15	0.002237	6.3e-05
0	308.18	0.002407	6.8e-05
0	313.15	0.002548	7.2e-05
0	318.17	0.002718	7.6e-05
0	323.15	0.002982	8.4e-05
0	328.11	0.003187	9e-05
0	333.15	0.003439	9.7e-05
0	338.16	0.003663	0.000103
0	343.15	0.00391	0.00011
0.0322	293.25	0.001631	4.4e-05
0.0322	298.12	0.001753	4.8e-05
0.0322	303.15	0.001899	5.2e-05
0.0322	308.11	0.002043	5.5e-05
0.0322	313.05	0.002216	6e-05
0.0322	318.19	0.002402	6.5e-05
0.0322	323.15	0.002592	7e-05
0.0322	328.13	0.002831	7.7e-05
0.0322	333.15	0.003076	8.4e-05
0.0322	338.16	0.00333	9e-05
0.0322	343.05	0.003601	9.8e-05
0.0697	293.19	0.001343	5e-05
0.0697	298.17	0.001457	5e-05
0.0697	303.15	0.001652	5.2e-05
0.0697	308.14	0.001731	5.3e-05
0.0697	313.11	0.001929	5.5e-05
0.0697	318.19	0.002079	5.6e-05
0.0697	323.12	0.002246	5.9e-05
0.0697	328.13	0.002493	6.5e-05
0.0697	333.07	0.002724	7.1e-05
0.0697	338.18	0.002982	7.8e-05
0.0697	343.15	0.003259	8.6e-05
0.1138	293.25	0.00109	3.6e-05
0.1138	298.13	0.001187	3.7e-05
0.1138	303.15	0.001339	3.8e-05
0.1138	308.16	0.00149	4e-05
0.1138	313.11	0.001634	4.1e-05
0.1138	318.12	0.001824	4.6e-05
0.1138	323.25	0.002004	5.1e-05
0.1138	328.16	0.002192	5.6e-05
0.1138	333.07	0.002417	6.1e-05
0.1138	338.16	0.00259	6.6e-05
0.1138	343.14	0.002786	7.1e-05
0.1665	293.18	0.000862	3.8e-05
0.1665	298.17	0.000991	3.9e-05
0.1665	303.12	0.001125	3.9e-05
0.1665	308.13	0.001236	4e-05
0.1665	312.98	0.001361	4.1e-05
0.1665	318.18	0.001514	4.2e-05
0.1665	322.85	0.001645	4.3e-05
0.1665	328.17	0.001819	4.5e-05
0.1665	332.75	0.001928	4.7e-05
0.1665	338.12	0.002152	5.3e-05
0.1665	342.85	0.002345	5.8e-05
0.2305	293.25	0.000667	2.4e-05
0.2305	298.11	0.000762	2.4e-05
0.2305	303.15	0.000858	2.5e-05
0.2305	308.16	0.000952	2.5e-05
0.2305	313.15	0.001047	2.6e-05
0.2305	318.12	0.001171	2.8e-05
0.2305	323.15	0.001259	3e-05
0.2305	328.16	0.001421	3.4e-05
0.2305	333.15	0.001541	3.7e-05
0.2305	338.16	0.001699	4e-05
0.2305	343.15	0.001863	4.4e-05
0.31	293.24	0.000506	2.1e-05
0.31	298.17	0.000562	2.1e-05
0.31	303.15	0.00064	2.1e-05
0.31	308.13	0.000695	2.2e-05
0.31	313.25	0.000774	2.2e-05
0.31	318.17	0.000854	2.2e-05
0.31	323.15	0.00094	2.3e-05
0.31	328.18	0.001029	2.4e-05
0.31	333.13	0.001152	2.7e-05
0.31	338.13	0.001238	2.9e-05
0.31	343.15	0.001325	3.1e-05
0.4114	293.25	0.00034	1.4e-05
0.4114	298.12	0.000375	1.5e-05
0.4114	303.17	0.000416	1.5e-05
0.4114	308.16	0.000442	1.5e-05
0.4114	313.15	0.000488	1.5e-05
0.4114	318.12	0.000525	1.5e-05
0.4114	323.14	0.00057	1.5e-05
0.4114	328.16	0.000645	1.5e-05
0.4114	333.15	0.000699	1.6e-05
0.4114	338.16	0.00076	1.7e-05
0.4114	343.16	0.000812	1.8e-05
0.5451	293.25	0.000194	4e-06
0.5451	298.17	0.000213	5e-06
0.5451	303.14	0.000234	5e-06
0.5451	308.16	0.000255	6e-06
0.5451	313.15	0.000277	6e-06
0.5451	318.16	0.0003	7e-06
0.5451	323.14	0.000323	7e-06
0.5451	328.12	0.000346	8e-06
0.5451	333.15	0.000371	8e-06
0.5451	338.11	0.000396	9e-06
0.5451	343.12	0.000421	9e-06
