Measured thermophysical data. Densities and Viscosities of 1-Butyl-3-methylimidazolium Tetrafluoroborate + Molecular Solvent Binary Mixtures
Source: J. Chem. Eng. Data, 2008, 10.1021/je8001128
Compound 1: 1-butyl-3-methylimidazolium tetrafluoroborate, C8H15BF4N2, InChI=1S/C8H15N2.BF4/c1-3-4-5-10-7-6-9(2)8-10;2-1(3,4)5/h6-8H,3-5H2,1-2H3;/q+1;-1
Compound 2: methyl methanoate, C2H4O2, InChI=1S/C2H4O2/c1-4-2-3/h2H,1H3
Compound 3: methyl ethanoate, C3H6O2, InChI=1S/C3H6O2/c1-3(4)5-2/h1-2H3
Compound 4: ethyl methanoate, C3H6O2, InChI=1S/C3H6O2/c1-2-5-3-4/h3H,2H2,1H3
Compound 5: acetone, C3H6O, InChI=1S/C3H6O/c1-3(2)4/h1-2H3

System: 1-butyl-3-methylimidazolium tetrafluoroborate; phases: Liquid
Property: Viscosity, Pa*s (Liquid); method: CAPTUB:UFactor:4
Temperature, K	Pressure, kPa	Viscosity, Pa*s	uncertainty
298.15	101	0.1103	0.0066

System: 1-butyl-3-methylimidazolium tetrafluoroborate; phases: Liquid
Property: Mass density, kg/m3 (Liquid); method: VIBTUB:UFactor:6
Temperature, K	Pressure, kPa	Mass density, kg/m3	uncertainty
298.15	101	1211.05	8.55

System: methyl methanoate; phases: Liquid
Property: Viscosity, Pa*s (Liquid); method: CAPTUB::UFactor:4
Temperature, K	Pressure, kPa	Viscosity, Pa*s	uncertainty
298.15	101	0.0003	0.0001

System: methyl methanoate; phases: Liquid
Property: Mass density, kg/m3 (Liquid); method: VIBTUB::UFactor:6
Temperature, K	Pressure, kPa	Mass density, kg/m3	uncertainty
298.15	101	964.78	0.45

System: methyl ethanoate; phases: Liquid
Property: Viscosity, Pa*s (Liquid); method: CAPTUB::UFactor:4
Temperature, K	Pressure, kPa	Viscosity, Pa*s	uncertainty
298.15	101	0.0004	0.0001

System: methyl ethanoate; phases: Liquid
Property: Mass density, kg/m3 (Liquid); method: VIBTUB::UFactor:6
Temperature, K	Pressure, kPa	Mass density, kg/m3	uncertainty
298.15	101	915.97	0.55

System: ethyl methanoate; phases: Liquid
Property: Viscosity, Pa*s (Liquid); method: CAPTUB::UFactor:4
Temperature, K	Pressure, kPa	Viscosity, Pa*s	uncertainty
298.15	101	0.0004	0.0001

System: ethyl methanoate; phases: Liquid
Property: Mass density, kg/m3 (Liquid); method: VIBTUB::UFactor:6
Temperature, K	Pressure, kPa	Mass density, kg/m3	uncertainty
298.15	101	928.48	0.52

System: acetone; phases: Liquid
Property: Viscosity, Pa*s (Liquid); method: CAPTUB::UFactor:4
Temperature, K	Pressure, kPa	Viscosity, Pa*s	uncertainty
298.15	101	0.0003	0.0001

System: acetone; phases: Liquid
Property: Mass density, kg/m3 (Liquid); method: VIBTUB::UFactor:6
Temperature, K	Pressure, kPa	Mass density, kg/m3	uncertainty
298.15	101	785.36	0.81

System: methyl methanoate + 1-butyl-3-methylimidazolium tetrafluoroborate; phases: Liquid
Fixed: Temperature, K = 298.15
Fixed: Pressure, kPa = 101
Property: Viscosity, Pa*s (Liquid); method: CAPTUB:UFactor:4
Mass fraction of 1-butyl-3-methylimidazolium tetrafluoroborate	Viscosity, Pa*s	uncertainty
0	0.0003	0.0001
0.1653	0.0005	0.0001
0.2974	0.0009	0.0001
0.4895	0.0019	0.0001
0.6165	0.0035	0.0001
0.6592	0.0044	0.0001
0.7145	0.0063	0.0002
0.7547	0.0082	0.0002
0.7899	0.0106	0.0003
0.8204	0.0137	0.0004
0.8492	0.01712	0.00048
0.8977	0.0283	0.0008
0.9376	0.0442	0.0013
0.9711	0.0684	0.0022
1	0.1103	0.0066

System: methyl methanoate + 1-butyl-3-methylimidazolium tetrafluoroborate; phases: Liquid
Fixed: Temperature, K = 298.15
Fixed: Pressure, kPa = 101
Property: Mass density, kg/m3 (Liquid); method: VIBTUB:UFactor:6
Mass fraction of 1-butyl-3-methylimidazolium tetrafluoroborate	Mass density, kg/m3	uncertainty
0	964.78	0.45
0.1653	1011.72	0.78
0.2974	1045.55	1.36
0.4895	1091.4	2.55
0.6165	1121.47	3.61
0.6592	1131.2	4.02
0.7145	1143.64	4.6
0.7547	1152.73	5.06
0.7899	1160.43	5.47
0.8204	1167.19	5.86
0.8492	1173.37	6.23
0.8977	1182.34	6.88
0.9376	1192.78	7.49
0.9711	1202.31	8.04
1	1211.05	8.55

System: methyl ethanoate + 1-butyl-3-methylimidazolium tetrafluoroborate; phases: Liquid
Fixed: Temperature, K = 298.15
Fixed: Pressure, kPa = 101
Property: Viscosity, Pa*s (Liquid); method: CAPTUB:UFactor:4
Mass fraction of 1-butyl-3-methylimidazolium tetrafluoroborate	Viscosity, Pa*s	uncertainty
0	0.0004	0.0001
0.1386	0.0006	0.0001
0.254	0.0009	0.0001
0.4326	0.002	0.0001
0.5703	0.0036	0.0001
0.622	0.0047	0.0001
0.6699	0.0062	0.0002
0.7149	0.0082	0.0002
0.7526	0.0102	0.0003
0.7875	0.0131	0.0004
0.8204	0.0163	0.0005
0.8766	0.0258	0.0007
0.9243	0.0408	0.0012
0.9648	0.0637	0.0019
1	0.1103	0.0066

System: methyl ethanoate + 1-butyl-3-methylimidazolium tetrafluoroborate; phases: Liquid
Fixed: Temperature, K = 298.15
Fixed: Pressure, kPa = 101
Property: Mass density, kg/m3 (Liquid); method: VIBTUB:UFactor:6
Mass fraction of 1-butyl-3-methylimidazolium tetrafluoroborate	Mass density, kg/m3	uncertainty
0	915.97	0.55
0.1386	964.5	0.72
0.254	996.04	1.01
0.4326	1045.98	1.97
0.5703	1084.58	3.01
0.622	1098.9	3.47
0.6699	1112.24	3.95
0.7149	1124.8	4.43
0.7526	1136.01	4.87
0.7875	1144.94	5.29
0.8204	1153.95	5.71
0.8766	1169.55	6.48
0.9243	1182.88	7.2
0.9648	1197.7	7.9
1	1211.05	8.55

System: ethyl methanoate + 1-butyl-3-methylimidazolium tetrafluoroborate; phases: Liquid
Fixed: Temperature, K = 298.15
Fixed: Pressure, kPa = 101
Property: Viscosity, Pa*s (Liquid); method: CAPTUB:UFactor:4
Mass fraction of 1-butyl-3-methylimidazolium tetrafluoroborate	Viscosity, Pa*s	uncertainty
0	0.0004	0.0001
0.1384	0.0006	0.0001
0.254	0.001	0.0001
0.4306	0.002	0.0001
0.5721	0.0038	0.0001
0.6278	0.0051	0.0002
0.6729	0.0065	0.0002
0.7159	0.0085	0.0002
0.751	0.0106	0.0003
0.7847	0.0133	0.0004
0.8199	0.0169	0.0005
0.8756	0.0266	0.0007
0.9231	0.0437	0.0013
0.9647	0.069	0.0023
1	0.1103	0.0066

System: ethyl methanoate + 1-butyl-3-methylimidazolium tetrafluoroborate; phases: Liquid
Fixed: Temperature, K = 298.15
Fixed: Pressure, kPa = 101
Property: Mass density, kg/m3 (Liquid); method: VIBTUB:UFactor:6
Mass fraction of 1-butyl-3-methylimidazolium tetrafluoroborate	Mass density, kg/m3	uncertainty
0	928.48	0.52
0.1384	961.2	0.72
0.254	989.2	1.02
0.4306	1040.81	1.93
0.5721	1082.16	3
0.6278	1098.26	3.51
0.6729	1111.27	3.96
0.7159	1123.69	4.43
0.751	1133.73	4.83
0.7847	1143.34	5.24
0.8199	1153.32	5.69
0.8756	1169.16	6.47
0.9231	1183.78	7.2
0.9647	1198.3	7.9
1	1211.05	8.55

System: acetone + 1-butyl-3-methylimidazolium tetrafluoroborate; phases: Liquid
Fixed: Temperature, K = 298.15
Fixed: Pressure, kPa = 101
Property: Viscosity, Pa*s (Liquid); method: CAPTUB:UFactor:4
Mass fraction of 1-butyl-3-methylimidazolium tetrafluoroborate	Viscosity, Pa*s	uncertainty
0	0.0003	0.0001
0.1724	0.0005	0.0001
0.3033	0.0007	0.0001
0.495	0.0015	0.0001
0.6276	0.003	0.0001
0.677	0.004	0.0001
0.7197	0.0052	0.0002
0.7603	0.0069	0.0002
0.7933	0.009	0.0003
0.8267	0.012	0.0003
0.8536	0.0151	0.0004
0.9024	0.0255	0.0007
0.939	0.0401	0.0012
0.9707	0.0647	0.002
1	0.1103	0.0066

System: acetone + 1-butyl-3-methylimidazolium tetrafluoroborate; phases: Liquid
Fixed: Temperature, K = 298.15
Fixed: Pressure, kPa = 101
Property: Mass density, kg/m3 (Liquid); method: VIBTUB:UFactor:6
Mass fraction of 1-butyl-3-methylimidazolium tetrafluoroborate	Mass density, kg/m3	uncertainty
0	785.36	0.81
0.1724	846.15	0.96
0.3033	894.39	1.23
0.495	970.29	1.99
0.6276	1026.98	2.96
0.677	1048.91	3.46
0.7197	1068.29	3.95
0.7603	1086.16	4.44
0.7933	1102.46	4.89
0.8267	1118.43	5.37
0.8536	1131.38	5.78
0.9024	1155.29	6.59
0.939	1174.32	7.25
0.9707	1193.01	7.9
1	1211.05	8.55
