Measured thermophysical data. Apparent Molal Volumes and Expansibilities of Tetraalkylammonium Bromides in Dilute Aqueous Solutions
Source: J. Chem. Eng. Data, 2008, 10.1021/je800329m
Compound 1: tetramethylammonium bromide, C4H12BrN, InChI=1S/C4H12N.BrH/c1-5(2,3)4;/h1-4H3;1H/q+1;/p-1, purity 99.8%
Compound 2: tetraethylammonium bromide, C8H20BrN, InChI=1S/C8H20N.BrH/c1-5-9(6-2,7-3)8-4;/h5-8H2,1-4H3;1H/q+1;/p-1, purity 99.8%
Compound 3: tetrabutylammonium bromide, C16H36BrN, InChI=1S/C16H36N.BrH/c1-5-9-13-17(14-10-6-2,15-11-7-3)16-12-8-4;/h5-16H2,1-4H3;1H/q+1;/p-1, purity 99.8%
Compound 4: water, H2O, InChI=1S/H2O/h1H2

System: tetramethylammonium bromide + water; phases: Liquid
Fixed: Pressure, kPa = 101
Property: Mass density, kg/m3 (Liquid); method: Buoyancy - hydrostatic balance with magnetic suspension - one sinker
Temperature, K	Molality, mol/kg of tetramethylammonium bromide	Mass density, kg/m3	uncertainty
278.15	0.00455	0.1951	0.0426
278.15	0.00945	0.4028	0.0417
278.15	0.02336	0.9763	0.0414
278.15	0.03085	1.284	0.0417
278.15	0.04684	1.9481	0.0411
278.15	0.05007	2.0799	0.0411
288.15	0.00252	0.1069	0.04
288.15	0.00439	0.1844	0.0417
288.15	0.00708	0.2961	0.0415
288.15	0.00927	0.3874	0.0422
288.15	0.01448	0.6046	0.0418
288.15	0.01941	0.8086	0.0413
288.15	0.02486	1.0365	0.0409
288.15	0.02853	1.1853	0.0418
288.15	0.03552	1.4747	0.0412
288.15	0.04105	1.7007	0.0411
293.15	0.00474	0.1897	0.039
293.15	0.00682	0.2746	0.0411
293.15	0.00886	0.3572	0.0409
293.15	0.01393	0.5636	0.0414
293.15	0.0212	0.8643	0.0411
293.15	0.02737	1.1125	0.0406
293.15	0.03048	1.2389	0.0413
293.15	0.03834	1.561	0.041
293.15	0.04184	1.7014	0.0404
293.15	0.05604	2.2759	0.0386
298.15	0.00547	0.2249	0.0406
298.15	0.00696	0.285	0.0394
298.15	0.0101	0.4064	0.0394
298.15	0.01541	0.6155	0.0397
298.15	0.0215	0.8556	0.0396
298.15	0.02769	1.0981	0.0395
298.15	0.03053	1.2095	0.0396
298.15	0.03727	1.4751	0.0395
298.15	0.04661	1.8412	0.0392
298.15	0.06023	2.3686	0.039

System: tetraethylammonium bromide + water; phases: Liquid
Fixed: Pressure, kPa = 101
Property: Mass density, kg/m3 (Liquid); method: Buoyancy - hydrostatic balance with magnetic suspension - one sinker
Temperature, K	Molality, mol/kg of tetraethylammonium bromide	Mass density, kg/m3	uncertainty
278.15	0.00564	0.2222	0.0401
278.15	0.00831	0.3286	0.039
278.15	0.01279	0.4998	0.039
278.15	0.02291	0.8941	0.0386
278.15	0.02885	1.1145	0.0392
278.15	0.03741	1.4577	0.0385
278.15	0.04611	1.7743	0.0367
288.15	0.00478	0.1885	0.0336
288.15	0.00589	0.2323	0.035
288.15	0.00656	0.2553	0.0282
288.15	0.01358	0.5258	0.0385
288.15	0.01574	0.6093	0.0393
288.15	0.02201	0.8504	0.0387
288.15	0.02658	1.0261	0.0384
288.15	0.03042	1.1754	0.0388
288.15	0.03502	1.3478	0.0471
288.15	0.03613	1.3964	0.0471
288.15	0.04252	1.6436	0.0377
288.15	0.04931	1.8973	0.0346
293.15	0.00692	0.2572	0.0154
293.15	0.00707	0.263	0.0154
293.15	0.01025	0.3885	0.0385
293.15	0.01475	0.5579	0.0377
293.15	0.02076	0.7823	0.0383
293.15	0.02694	1.0219	0.0385
293.15	0.03023	1.1443	0.0384
293.15	0.03371	1.2802	0.0371
293.15	0.04326	1.6266	0.0369
293.15	0.05082	1.9071	0.0374
298.15	0.00542	0.2048	0.0362
298.15	0.00732	0.2731	0.0365
298.15	0.01223	0.4513	0.037
298.15	0.01483	0.5491	0.0406
298.15	0.01539	0.5717	0.0406
298.15	0.01941	0.718	0.0369
298.15	0.02175	0.8048	0.0358
298.15	0.02387	0.8763	0.0365
298.15	0.02644	0.9741	0.0371
298.15	0.0305	1.1207	0.0372
298.15	0.03609	1.3296	0.0366
298.15	0.04225	1.547	0.0365
298.15	0.04838	1.7746	0.0374

System: tetrabutylammonium bromide + water; phases: Liquid
Fixed: Pressure, kPa = 101
Property: Mass density, kg/m3 (Liquid); method: Buoyancy - hydrostatic balance with magnetic suspension - one sinker
Temperature, K	Molality, mol/kg of tetrabutylammonium bromide	Mass density, kg/m3	uncertainty
278.15	0.00662	0.1769	0.028
278.15	0.00764	0.2051	0.028
278.15	0.01144	0.3103	0.0266
278.15	0.0153	0.4061	0.0268
278.15	0.02816	0.7506	0.0272
278.15	0.03656	0.9762	0.0276
278.15	0.04369	1.1732	0.028
288.15	0.00223	0.0597	0.0242
288.15	0.00312	0.0809	0.0235
288.15	0.00544	0.141	0.0254
288.15	0.00698	0.1802	0.0255
288.15	0.00884	0.2281	0.0265
288.15	0.0104	0.2663	0.0142
288.15	0.01073	0.2726	0.0142
288.15	0.01472	0.3759	0.0258
288.15	0.01931	0.4901	0.0254
288.15	0.02545	0.6442	0.0251
288.15	0.02919	0.7406	0.0258
288.15	0.03465	0.8762	0.025
288.15	0.04159	1.0505	0.0239
293.15	0.00521	0.116	0.0221
293.15	0.00768	0.1776	0.0257
293.15	0.00874	0.2009	0.0236
293.15	0.01127	0.2638	0.0249
293.15	0.0144	0.3408	0.024
293.15	0.02106	0.497	0.0243
293.15	0.02623	0.6245	0.0245
293.15	0.02999	0.711	0.0241
293.15	0.03701	0.8815	0.0243
293.15	0.04096	0.973	0.025
298.15	0.00512	0.1198	0.0231
298.15	0.00864	0.1997	0.0235
298.15	0.01148	0.2668	0.0232
298.15	0.01498	0.3441	0.0227
298.15	0.02013	0.4591	0.0228
298.15	0.02646	0.6005	0.0225
298.15	0.02845	0.6413	0.0227
298.15	0.03628	0.8177	0.0232
298.15	0.04217	0.9536	0.0229
298.15	0.04687	1.0554	0.0221
