Measured thermophysical data. Surface Properties of Binary Mixtures of Ethylene Glycol with a Series of Aliphatic Alcohols (1-Pentanol, 1-Hexanol, and 1-Heptanol)
Source: J. Chem. Eng. Data, 2008, 10.1021/je800101v
Compound 1: 1,2-ethanediol, C2H6O2, InChI=1S/C2H6O2/c3-1-2-4/h3-4H,1-2H2
Compound 2: pentan-1-ol, C5H12O, InChI=1S/C5H12O/c1-2-3-4-5-6/h6H,2-5H2,1H3
Compound 3: hexan-1-ol, C6H14O, InChI=1S/C6H14O/c1-2-3-4-5-6-7/h7H,2-6H2,1H3
Compound 4: heptan-1-ol, C7H16O, InChI=1S/C7H16O/c1-2-3-4-5-6-7-8/h8H,2-7H2,1H3

System: 1,2-ethanediol; phases: Liquid
Property: Mass density, kg/m3 (Liquid); method: VIBTUB:UFactor:6
Temperature, K	Pressure, kPa	Mass density, kg/m3	uncertainty
298.15	101.325	1109.71	0.9

System: 1,2-ethanediol; phases: Liquid, Air at 1 atmosphere
Property: Surface tension liquid-gas, N/m (Liquid); method: Ring tensiometer
Temperature, K	Surface tension liquid-gas, N/m	uncertainty
298.15	0.04779	0.00068
303.15	0.04757	0.00067
308.15	0.04725	0.00067
313.15	0.0471	0.00067
318.15	0.0464	0.00066

System: pentan-1-ol; phases: Liquid
Property: Mass density, kg/m3 (Liquid); method: VIBTUB:UFactor:6
Temperature, K	Pressure, kPa	Mass density, kg/m3	uncertainty
298.15	101.325	811.1	0.99

System: pentan-1-ol; phases: Liquid, Air at 1 atmosphere
Property: Surface tension liquid-gas, N/m (Liquid); method: Ring tensiometer
Temperature, K	Surface tension liquid-gas, N/m	uncertainty
298.15	0.02489	0.00041

System: hexan-1-ol; phases: Liquid
Property: Mass density, kg/m3 (Liquid); method: VIBTUB:UFactor:6
Temperature, K	Pressure, kPa	Mass density, kg/m3	uncertainty
298.15	101.325	815.02	0.98

System: hexan-1-ol; phases: Liquid, Air at 1 atmosphere
Property: Surface tension liquid-gas, N/m (Liquid); method: Ring tensiometer
Temperature, K	Surface tension liquid-gas, N/m	uncertainty
298.15	0.02569	0.00042

System: heptan-1-ol; phases: Liquid
Property: Mass density, kg/m3 (Liquid); method: Vibrating tube method
Temperature, K	Pressure, kPa	Mass density, kg/m3	uncertainty
298.15	101.325	818.11	0.81

System: heptan-1-ol; phases: Liquid, Air at 1 atmosphere
Property: Surface tension liquid-gas, N/m (Liquid); method: Ring tensiometer
Temperature, K	Surface tension liquid-gas, N/m	uncertainty
298.15	0.02638	0.00042

System: pentan-1-ol + 1,2-ethanediol; phases: Liquid, Air at 1 atmosphere
Property: Surface tension liquid-gas, N/m (Liquid); method: Ring tensiometer
Temperature, K	Mole fraction of pentan-1-ol	Surface tension liquid-gas, N/m	uncertainty
298.15	0.0488	0.03501	0.00052
298.15	0.0931	0.0321	0.00049
298.15	0.1523	0.02993	0.00046
298.15	0.2043	0.02926	0.00046
298.15	0.2502	0.02835	0.00045
298.15	0.2912	0.02804	0.00044
298.15	0.3503	0.02701	0.00043
298.15	0.4094	0.02739	0.00044
298.15	0.4586	0.02671	0.00043
298.15	0.5003	0.02675	0.00043
298.15	0.552	0.02653	0.00043
298.15	0.5982	0.02571	0.00042
298.15	0.6425	0.02632	0.00043
298.15	0.6979	0.02621	0.00043
298.15	0.7197	0.02612	0.00043
298.15	0.7739	0.02598	0.00042
298.15	0.837	0.02489	0.00041
298.15	0.9113	0.02545	0.00042
298.15	0.9536	0.02525	0.00042
303.15	0.0488	0.0344	0.00051
303.15	0.0931	0.03089	0.00047
303.15	0.1523	0.02914	0.00045
303.15	0.2043	0.02856	0.00045
303.15	0.2502	0.02794	0.00044
303.15	0.2912	0.02765	0.00044
303.15	0.3503	0.02705	0.00043
303.15	0.4094	0.02662	0.00043
303.15	0.4586	0.02619	0.00042
303.15	0.5003	0.02577	0.00042
303.15	0.552	0.02539	0.00042
303.15	0.5982	0.02515	0.00041
303.15	0.6425	0.02496	0.00041
303.15	0.6979	0.02475	0.00041
303.15	0.7197	0.02463	0.00041
303.15	0.7739	0.02435	0.00041
303.15	0.837	0.02423	0.0004
303.15	0.9113	0.02413	0.0004
303.15	0.9536	0.02402	0.0004
308.15	0.0488	0.03365	0.0005
308.15	0.0931	0.03071	0.00047
308.15	0.1523	0.02925	0.00045
308.15	0.2043	0.02841	0.00045
308.15	0.2502	0.02781	0.00044
308.15	0.2912	0.02751	0.00044
308.15	0.3503	0.02691	0.00043
308.15	0.4094	0.02648	0.00043
308.15	0.4586	0.02598	0.00042
308.15	0.5003	0.02561	0.00042
308.15	0.552	0.02521	0.00041
308.15	0.5982	0.02498	0.00041
308.15	0.6425	0.02479	0.00041
308.15	0.6979	0.02457	0.00041
308.15	0.7197	0.02451	0.00041
308.15	0.7739	0.02418	0.0004
308.15	0.837	0.02415	0.0004
308.15	0.9113	0.024	0.0004
308.15	0.9536	0.02389	0.0004
313.15	0.0488	0.03318	0.0005
313.15	0.0931	0.03051	0.00047
313.15	0.1523	0.02905	0.00045
313.15	0.2043	0.02827	0.00044
313.15	0.2502	0.02767	0.00044
313.15	0.2912	0.02735	0.00043
313.15	0.3503	0.0268	0.00043
313.15	0.4094	0.02631	0.00042
313.15	0.4586	0.02582	0.00042
313.15	0.5003	0.02543	0.00041
313.15	0.552	0.02502	0.00041
313.15	0.5982	0.02481	0.00041
313.15	0.6425	0.02467	0.00041
313.15	0.6979	0.02441	0.0004
313.15	0.7197	0.02437	0.0004
313.15	0.7739	0.02398	0.0004
313.15	0.837	0.02392	0.0004
313.15	0.9113	0.02381	0.0004
313.15	0.9536	0.02375	0.0004
318.15	0.0488	0.03285	0.00049
318.15	0.0931	0.03037	0.00047
318.15	0.1523	0.02887	0.00045
318.15	0.2043	0.02809	0.00044
318.15	0.2502	0.02751	0.00044
318.15	0.2912	0.02717	0.00043
318.15	0.3503	0.02668	0.00043
318.15	0.4094	0.02618	0.00042
318.15	0.4586	0.02569	0.00042
318.15	0.5003	0.02527	0.00041
318.15	0.552	0.02491	0.00041
318.15	0.5982	0.02468	0.00041
318.15	0.6425	0.02453	0.00041
318.15	0.6979	0.02425	0.0004
318.15	0.7197	0.02419	0.0004
318.15	0.7739	0.02382	0.0004
318.15	0.837	0.02378	0.0004
318.15	0.9113	0.02365	0.0004
318.15	0.9536	0.02361	0.0004

System: 1,2-ethanediol + hexan-1-ol; phases: Liquid, Air at 1 atmosphere
Property: Surface tension liquid-gas, N/m (Liquid); method: Ring tensiometer
Temperature, K	Mole fraction of hexan-1-ol	Surface tension liquid-gas, N/m	uncertainty
298.15	0	0.04779	0.00068
298.15	0.0429	0.0325	0.00052
298.15	0.1009	0.02907	0.00045
298.15	0.2761	0.028	0.00044
298.15	0.3098	0.0279	0.00044
298.15	0.35	0.02738	0.00044
298.15	0.3942	0.02732	0.00043
298.15	0.4468	0.02724	0.00043
298.15	0.5079	0.02703	0.00043
298.15	0.5405	0.02682	0.00043
298.15	0.6061	0.02671	0.00043
298.15	0.6452	0.02662	0.00043
298.15	0.6897	0.02651	0.00043
298.15	0.7407	0.02643	0.00043
298.15	0.8	0.02634	0.00043
298.15	0.8333	0.02628	0.00043
298.15	0.9091	0.02622	0.00043
298.15	0.9524	0.02616	0.00042
303.15	0	0.04757	0.00067
303.15	0.0429	0.03281	0.00049
303.15	0.1009	0.02949	0.00046
303.15	0.2761	0.02747	0.00044
303.15	0.3098	0.02732	0.00043
303.15	0.35	0.02712	0.00043
303.15	0.3942	0.02698	0.00043
303.15	0.4468	0.02678	0.00043
303.15	0.5079	0.02648	0.00043
303.15	0.5405	0.02638	0.00042
303.15	0.6061	0.02617	0.00042
303.15	0.6452	0.02597	0.00042
303.15	0.6897	0.02575	0.00042
303.15	0.7407	0.02548	0.00042
303.15	0.8	0.02538	0.00041
303.15	0.8333	0.02525	0.00041
303.15	0.9091	0.02516	0.00041
303.15	0.9524	0.02502	0.00041
308.15	0	0.04725	0.00067
308.15	0.0429	0.03268	0.00049
308.15	0.1009	0.02934	0.00046
308.15	0.2761	0.02731	0.00043
308.15	0.3098	0.02719	0.00043
308.15	0.35	0.02698	0.00043
308.15	0.3942	0.02683	0.00043
308.15	0.4468	0.02663	0.00043
308.15	0.5079	0.02635	0.00042
308.15	0.5405	0.02625	0.00042
308.15	0.6061	0.02601	0.00042
308.15	0.6452	0.02578	0.00042
308.15	0.6897	0.02558	0.00042
308.15	0.7407	0.0253	0.00041
308.15	0.8	0.02519	0.00041
308.15	0.8333	0.02517	0.00041
308.15	0.9091	0.02497	0.00041
308.15	0.9524	0.02481	0.00041
313.15	0	0.0471	0.00067
313.15	0.0429	0.03155	0.00048
313.15	0.1009	0.02927	0.00045
313.15	0.2761	0.02715	0.00043
313.15	0.3098	0.02702	0.00043
313.15	0.35	0.02681	0.00043
313.15	0.3942	0.02668	0.00043
313.15	0.4468	0.02647	0.00043
313.15	0.5079	0.02617	0.00042
313.15	0.5405	0.02607	0.00042
313.15	0.6061	0.02585	0.00042
313.15	0.6452	0.02565	0.00042
313.15	0.6897	0.02538	0.00041
313.15	0.7407	0.02516	0.00041
313.15	0.8	0.02502	0.00041
313.15	0.8333	0.02498	0.00041
313.15	0.9091	0.02478	0.00041
313.15	0.9524	0.02461	0.00041
318.15	0	0.0464	0.00066
318.15	0.0429	0.03138	0.00052
318.15	0.1009	0.02897	0.00045
318.15	0.2761	0.02691	0.00043
318.15	0.3098	0.0268	0.00043
318.15	0.35	0.02663	0.00043
318.15	0.3942	0.02647	0.00043
318.15	0.4468	0.02631	0.00042
318.15	0.5079	0.02597	0.00042
318.15	0.5405	0.02588	0.00042
318.15	0.6061	0.02567	0.00042
318.15	0.6452	0.02548	0.00042
318.15	0.6897	0.02521	0.00041
318.15	0.7407	0.02499	0.00041
318.15	0.8	0.02481	0.00041
318.15	0.8333	0.02475	0.00041
318.15	0.9091	0.02456	0.00041
318.15	0.9524	0.02445	0.0004

System: 1,2-ethanediol + heptan-1-ol; phases: Liquid, Air at 1 atmosphere
Property: Surface tension liquid-gas, N/m (Liquid); method: Ring tensiometer
Temperature, K	Mole fraction of heptan-1-ol	Surface tension liquid-gas, N/m	uncertainty
298.15	0.0559	0.02924	0.00045
298.15	0.1059	0.02773	0.00044
298.15	0.1508	0.02718	0.00043
298.15	0.1914	0.02705	0.00043
298.15	0.2512	0.02693	0.00043
298.15	0.3027	0.02678	0.00043
298.15	0.3559	0.02667	0.00043
298.15	0.4085	0.02657	0.00043
298.15	0.4532	0.02641	0.00043
298.15	0.4966	0.02632	0.00042
298.15	0.5502	0.02625	0.00042
298.15	0.5999	0.02617	0.00042
298.15	0.6369	0.026	0.00042
298.15	0.6928	0.02608	0.00042
298.15	0.7246	0.02601	0.00042
298.15	0.7978	0.02592	0.00042
298.15	0.8403	0.02583	0.00042
298.15	0.8875	0.02571	0.00042
298.15	0.9404	0.02562	0.00042
303.15	0.0559	0.02916	0.00045
303.15	0.1059	0.02802	0.00044
303.15	0.1508	0.02766	0.00044
303.15	0.1914	0.02754	0.00044
303.15	0.2512	0.02736	0.00043
303.15	0.3027	0.0272	0.00043
303.15	0.3559	0.02707	0.00043
303.15	0.4085	0.02689	0.00043
303.15	0.4532	0.02677	0.00043
303.15	0.4966	0.02667	0.00043
303.15	0.5502	0.0266	0.00043
303.15	0.5999	0.02648	0.00043
303.15	0.6369	0.02639	0.00042
303.15	0.6928	0.02631	0.00042
303.15	0.7246	0.02625	0.00042
303.15	0.7978	0.02618	0.00042
303.15	0.8403	0.02612	0.00042
303.15	0.8875	0.02607	0.00042
303.15	0.9404	0.02602	0.00042
308.15	0.0559	0.02896	0.00045
308.15	0.1059	0.02788	0.00044
308.15	0.1508	0.02755	0.00044
308.15	0.1914	0.02721	0.00043
308.15	0.2512	0.02698	0.00043
308.15	0.3027	0.02684	0.00043
308.15	0.3559	0.02669	0.00043
308.15	0.4085	0.02665	0.00043
308.15	0.4532	0.02657	0.00043
308.15	0.4966	0.02642	0.00043
308.15	0.5502	0.02624	0.00042
308.15	0.5999	0.02612	0.00042
308.15	0.6369	0.02609	0.00042
308.15	0.6928	0.02601	0.00042
308.15	0.7246	0.02591	0.00042
308.15	0.7978	0.02585	0.00042
308.15	0.8403	0.02578	0.00042
308.15	0.8875	0.02568	0.00042
308.15	0.9404	0.02562	0.00042
313.15	0.0559	0.02878	0.00045
313.15	0.1059	0.02771	0.00044
313.15	0.1508	0.02742	0.00044
313.15	0.1914	0.02706	0.00043
313.15	0.2512	0.02681	0.00043
313.15	0.3027	0.02671	0.00043
313.15	0.3559	0.02653	0.00043
313.15	0.4085	0.02642	0.00043
313.15	0.4532	0.02632	0.00042
313.15	0.4966	0.02623	0.00042
313.15	0.5502	0.02607	0.00042
313.15	0.5999	0.02592	0.00042
313.15	0.6369	0.02583	0.00042
313.15	0.6928	0.02568	0.00042
313.15	0.7246	0.02562	0.00042
313.15	0.7978	0.02552	0.00042
313.15	0.8403	0.02551	0.00042
313.15	0.8875	0.02545	0.00042
313.15	0.9404	0.02545	0.00042
318.15	0.0559	0.02864	0.00045
318.15	0.1059	0.02755	0.00044
318.15	0.1508	0.02728	0.00043
318.15	0.1914	0.02691	0.00043
318.15	0.2512	0.02667	0.00043
318.15	0.3027	0.02657	0.00043
318.15	0.3559	0.02635	0.00042
318.15	0.4085	0.02628	0.00042
318.15	0.4532	0.02616	0.00042
318.15	0.4966	0.02607	0.00042
318.15	0.5502	0.02591	0.00042
318.15	0.5999	0.02578	0.00042
318.15	0.6369	0.02565	0.00042
318.15	0.6928	0.02552	0.00042
318.15	0.7246	0.02548	0.00042
318.15	0.7978	0.02537	0.00041
318.15	0.8403	0.02531	0.00041
318.15	0.8875	0.02521	0.00041
318.15	0.9404	0.02514	0.00041
