Measured thermophysical data. Solubility of Cloxacillin Sodium in Different Binary Solvents
Source: J. Chem. Eng. Data, 2009, 10.1021/je800730k
Compound 1: butyl ethanoate, C6H12O2, InChI=1S/C6H12O2/c1-3-4-5-8-6(2)7/h3-5H2,1-2H3
Compound 2: ethyl acetate, C4H8O2, InChI=1S/C4H8O2/c1-3-6-4(2)5/h3H2,1-2H3
Compound 3: methanol, CH4O, InChI=1S/CH4O/c1-2/h2H,1H3
Compound 4: 4-thia-1-azabicyclo[3.2.0]heptane-2-carboxylic acid, 6-[[[3-(2-chlorophenyl)-5-methyl-4-isoxazolyl]carbonyl]amino]-3,3-dimethyl-, C19H18ClN3O5S, InChI=1S/C19H18ClN3O5S/c1-8-11(12(22-28-8)9-6-4-5-7-10(9)20)15(24)21-13-16(25)23-14(18(26)27)19(2,3)29-17(13)23/h4-7,13-14,17H,1-3H3,(H,21,24)(H,26,27)/t13-,14+,17-/m1/s1

System: 4-thia-1-azabicyclo[3.2.0]heptane-2-carboxylic acid, 6-[[[3-(2-chlorophenyl)-5-methyl-4-isoxazolyl]carbonyl]amino]-3,3-dimethyl- + methanol + butyl ethanoate; phases: Liquid, Crystal
Fixed: Pressure, kPa = 101.3
Property: Mole fraction of 4-thia-1-azabicyclo[3.2.0]heptane-2-carboxylic acid, 6-[[[3-(2-chlorophenyl)-5-methyl-4-isoxazolyl]carbonyl]amino]-3,3-dimethyl- (Liquid); method: laser monitoring system
Temperature, K	Solvent: Mole fraction of methanol	Mole fraction of 4-thia-1-azabicyclo[3.2.0]heptane-2-carboxylic acid, 6-[[[3-(2-chlorophenyl)-5-methyl-4-isoxazolyl]carbonyl]amino]-3,3-dimethyl-	uncertainty
283.15	0.156	0.000379	1.1e-05
283.15	0.202	0.000814	1.9e-05
283.15	0.258	0.00188	5e-05
283.15	0.307	0.0029	8e-05
283.15	0.36	0.0044	0.00011
283.15	0.411	0.006	0.00016
283.15	0.461	0.00843	0.00023
283.15	0.511	0.011	0.0003
283.15	0.559	0.0137	0.0004
283.15	0.606	0.017	0.0004
288.15	0.151	0.000499	1.4e-05
288.15	0.201	0.00114	3e-05
288.15	0.259	0.00248	6e-05
288.15	0.316	0.00422	0.0001
288.15	0.37	0.00614	0.00015
288.15	0.403	0.00792	0.0002
288.15	0.458	0.0111	0.0003
288.15	0.509	0.0144	0.0004
288.15	0.56	0.0177	0.0004
288.15	0.606	0.0206	0.0005
293.15	0.142	0.000635	1.4e-05
293.15	0.186	0.00139	3e-05
293.15	0.251	0.00279	7e-05
293.15	0.311	0.00513	0.00013
293.15	0.363	0.00749	0.00018
293.15	0.408	0.00998	0.00024
293.15	0.457	0.0126	0.0003
293.15	0.509	0.016	0.0004
293.15	0.556	0.0192	0.0005
293.15	0.603	0.0222	0.0006
298.15	0.0882	0.000152	5e-06
298.15	0.148	0.000587	1.4e-05
298.15	0.206	0.00173	4e-05
298.15	0.281	0.00433	0.0001
298.15	0.35	0.00788	0.00019
298.15	0.395	0.0108	0.0003
298.15	0.447	0.0144	0.0004
298.15	0.492	0.0178	0.0004
298.15	0.546	0.0213	0.0005
298.15	0.594	0.0249	0.0006

System: 4-thia-1-azabicyclo[3.2.0]heptane-2-carboxylic acid, 6-[[[3-(2-chlorophenyl)-5-methyl-4-isoxazolyl]carbonyl]amino]-3,3-dimethyl- + methanol + ethyl acetate; phases: Liquid, Crystal
Fixed: Pressure, kPa = 101.3
Property: Mole fraction of 4-thia-1-azabicyclo[3.2.0]heptane-2-carboxylic acid, 6-[[[3-(2-chlorophenyl)-5-methyl-4-isoxazolyl]carbonyl]amino]-3,3-dimethyl- (Liquid); method: laser monitoring
Temperature, K	Solvent: Mole fraction of methanol	Mole fraction of 4-thia-1-azabicyclo[3.2.0]heptane-2-carboxylic acid, 6-[[[3-(2-chlorophenyl)-5-methyl-4-isoxazolyl]carbonyl]amino]-3,3-dimethyl-	uncertainty
283.15	0.164	0.000652	1.9e-05
283.15	0.212	0.00156	4e-05
283.15	0.263	0.00274	7e-05
283.15	0.314	0.00501	0.00013
283.15	0.366	0.00745	0.00019
283.15	0.418	0.0101	0.0003
283.15	0.467	0.0131	0.0003
283.15	0.517	0.0163	0.0004
283.15	0.566	0.02	0.0005
283.15	0.616	0.0233	0.0006
288.15	0.163	0.000912	2.4e-05
288.15	0.213	0.00213	5e-05
288.15	0.264	0.00406	0.0001
288.15	0.313	0.00624	0.00015
288.15	0.364	0.00916	0.00023
288.15	0.414	0.0123	0.0003
288.15	0.463	0.0155	0.0004
288.15	0.512	0.0187	0.0005
288.15	0.56	0.0218	0.0006
288.15	0.61	0.0257	0.0007
293.15	0.158	0.00102	3e-05
293.15	0.212	0.00254	6e-05
293.15	0.264	0.00463	0.00012
293.15	0.315	0.00709	0.00019
293.15	0.363	0.00999	0.00026
293.15	0.413	0.0137	0.0004
293.15	0.463	0.0171	0.0004
293.15	0.512	0.021	0.0006
293.15	0.563	0.0246	0.0007
293.15	0.612	0.028	0.0008
298.15	0.162	0.00131	3e-05
298.15	0.217	0.00351	0.0001
298.15	0.268	0.00707	0.00019
298.15	0.318	0.0103	0.0003
298.15	0.367	0.0137	0.0004
298.15	0.41	0.0172	0.0005
298.15	0.461	0.0208	0.0005
298.15	0.51	0.0248	0.0007
298.15	0.56	0.0293	0.0008
298.15	0.61	0.0331	0.0009
