Measured thermophysical data. Interactions of Some Glycyl Dipeptides with Sodium Butyrate in Aqueous Solutions at 298.15 K: A Volumetric and Conductometric Study
Source: J. Chem. Eng. Data, 2009, 10.1021/je800713c
Compound 1: glycylglycine, C4H8N2O3, InChI=1S/C4H8N2O3/c5-1-3(7)6-2-4(8)9/h1-2,5H2,(H,6,7)(H,8,9)
Compound 2: water, H2O, InChI=1S/H2O/h1H2
Compound 3: glycyl-L-valine, C7H14N2O3, InChI=1S/C7H14N2O3/c1-4(2)6(7(11)12)9-5(10)3-8/h4,6H,3,8H2,1-2H3,(H,9,10)(H,11,12)/t6-/m0/s1
Compound 4: glycyl-L-leucine, C8H16N2O3, InChI=1S/C8H16N2O3/c1-5(2)3-6(8(12)13)10-7(11)4-9/h5-6H,3-4,9H2,1-2H3,(H,10,11)(H,12,13)/t6-/m0/s1
Compound 5: sodium butyrate, C4H7NaO2, InChI=1S/C4H8O2.Na/c1-2-3-4(5)6;/h2-3H2,1H3,(H,5,6);/q;+1/p-1

System: glycylglycine + water; phases: Liquid
Fixed: Temperature, K = 298.15
Fixed: Pressure, kPa = 101
Property: Mass density, kg/m3 (Liquid); method: Vibrating tube method
Molality, mol/kg of glycylglycine	Mass density, kg/m3	uncertainty
0	999.705	4.001
0.06033	1003.053	4.001
0.08146	1004.212	4.001
0.1018	1005.326	4.001
0.1481	1007.842	4.001
0.2504	1013.33	4.001
0.2965	1015.779	4.001
0.3421	1018.08	4.001

System: glycyl-L-valine + water; phases: Liquid
Fixed: Temperature, K = 298.15
Fixed: Pressure, kPa = 101
Property: Mass density, kg/m3 (Liquid); method: Vibrating tube method
Molality, mol/kg of glycyl-L-valine	Mass density, kg/m3	uncertainty
0	999.705	4.001
0.02261	1000.877	4.001
0.03982	1001.763	4.001
0.06223	1002.9	4.001
0.07858	1003.731	4.001
0.1017	1004.894	4.001
0.1513	1007.378	4.001
0.1799	1008.775	4.001

System: glycyl-L-leucine + water; phases: Liquid
Fixed: Temperature, K = 298.15
Fixed: Pressure, kPa = 101
Property: Mass density, kg/m3 (Liquid); method: Vibrating tube method
Molality, mol/kg of glycyl-L-leucine	Mass density, kg/m3	uncertainty
0	999.705	4.001
0.01944	1000.645	4.001
0.02958	1001.134	4.001
0.0395	1001.609	4.001
0.04928	1002.078	4.001
0.057	1002.444	4.001
0.07128	1003.122	4.001
0.07696	1003.39	4.001
0.09125	1004.06	4.001

System: sodium butyrate + water; phases: Liquid
Fixed: Pressure, kPa = 101
Fixed: Temperature, K = 298.15
Property: Molar conductivity, S*m2/mol (Liquid); method: Alternating current cell with electrodes
Amount concentration (molarity), mol/dm3 of sodium butyrate	Molar conductivity, S*m2/mol	uncertainty
0.00032342	0.007962	0.000127
0.0011161	0.00795	0.000126
0.0012729	0.007936	0.000126
0.0014883	0.007915	0.000126
0.0018798	0.007883	0.000125
0.0020761	0.007868	0.000125
0.0024303	0.007842	0.000125
0.0031665	0.007656	0.000122
0.0062982	0.007526	0.00012
0.0088494	0.007443	0.000118
0.011243	0.007374	0.000117
0.01353	0.007315	0.000116
0.015498	0.007268	0.000116
0.017206	0.007239	0.000115
0.019159	0.007203	0.000115
0.02091	0.007169	0.000114
0.022843	0.007137	0.000114
0.02481	0.0071	0.000113
0.026472	0.007072	0.000113

System: sodium butyrate + water; phases: Liquid
Fixed: Temperature, K = 298.15
Fixed: Pressure, kPa = 101
Property: Mass density, kg/m3 (Liquid); method: VIBTUB:UFactor:6
Molality, mol/kg of sodium butyrate	Mass density, kg/m3	uncertainty
0.5	1016.306	0.311
1	1033.731	0.369
1.5	1049.358	0.422
2	1064.029	0.471

System: sodium butyrate + glycylglycine + water; phases: Liquid
Fixed: Pressure, kPa = 101
Fixed: Temperature, K = 298.15
Property: Molar conductivity, S*m2/mol (Liquid); method: Alternating current cell with electrodes
Solvent: Molality, mol/kg of glycylglycine	Amount concentration (molarity), mol/dm3 of sodium butyrate	Molar conductivity, S*m2/mol	uncertainty
0.05	0.0032954	0.007232	0.000115
0.05	0.0049942	0.0072	0.000115
0.05	0.0063605	0.007182	0.000114
0.05	0.0077472	0.007138	0.000114
0.05	0.0091976	0.007105	0.000113
0.05	0.010131	0.007087	0.000113
0.05	0.011499	0.00706	0.000112
0.05	0.012837	0.00704	0.000112
0.05	0.014154	0.00701	0.000112
0.05	0.015655	0.00698	0.000111
0.05	0.016762	0.006963	0.000111
0.05	0.018171	0.006952	0.000111
0.05	0.019364	0.006936	0.00011
0.05	0.021081	0.00691	0.00011
0.05	0.022281	0.006886	0.00011
0.05	0.023696	0.006863	0.000109
0.05	0.024982	0.006847	0.000109
0.1	0.0028475	0.007135	0.000114
0.1	0.0043307	0.007088	0.000113
0.1	0.0055069	0.007062	0.000112
0.1	0.0070397	0.007029	0.000112
0.1	0.0084149	0.006997	0.000111
0.1	0.0097071	0.006978	0.000111
0.1	0.011128	0.006961	0.000111
0.1	0.012446	0.006935	0.00011
0.1	0.013754	0.006919	0.00011
0.1	0.015063	0.006898	0.00011
0.1	0.016399	0.006869	0.000109
0.1	0.017716	0.006864	0.000109
0.1	0.018967	0.006844	0.000109
0.1	0.020163	0.006828	0.000109
0.1	0.021248	0.006814	0.000108
0.1	0.0229	0.006781	0.000108
0.15	0.0032098	0.006874	0.000109
0.15	0.0046585	0.00687	0.000109
0.15	0.0062672	0.006832	0.000109
0.15	0.0078544	0.006815	0.000108
0.15	0.0091706	0.00679	0.000108
0.15	0.010623	0.006756	0.000107
0.15	0.011922	0.006744	0.000107
0.15	0.013222	0.006718	0.000107
0.15	0.014491	0.006702	0.000107
0.15	0.015731	0.006682	0.000106
0.15	0.016994	0.006661	0.000106
0.15	0.018295	0.006659	0.000106
0.15	0.019761	0.006641	0.000106
0.15	0.020829	0.006631	0.000106
0.15	0.02211	0.006613	0.000105
0.15	0.023311	0.0066	0.000105
0.15	0.025103	0.006578	0.000105
0.2	0.0031081	0.006797	0.000108
0.2	0.0043911	0.006776	0.000108
0.2	0.0057945	0.006756	0.000107
0.2	0.0072033	0.006739	0.000107
0.2	0.0091189	0.006714	0.000107
0.2	0.010558	0.006699	0.000107
0.2	0.011921	0.006675	0.000106
0.2	0.013404	0.006646	0.000106
0.2	0.01471	0.006628	0.000105
0.2	0.015889	0.006618	0.000105
0.2	0.017361	0.006592	0.000105
0.2	0.01864	0.006591	0.000105
0.2	0.020143	0.006571	0.000105
0.2	0.021677	0.00655	0.000104

System: sodium butyrate + glycylglycine + water; phases: Liquid
Fixed: Temperature, K = 298.15
Fixed: Pressure, kPa = 101
Property: Mass density, kg/m3 (Liquid); method: VIBTUB:UFactor:6
Solvent: Molality, mol/kg of sodium butyrate	Molality, mol/kg of glycylglycine	Mass density, kg/m3	uncertainty
0.5	0	1016.306	0.437
0.5	0.04371	1018.589	0.444
0.5	0.0608	1019.479	0.447
0.5	0.08197	1020.576	0.451
0.5	0.09915	1021.467	0.454
0.5	0.1977	1026.527	0.47
0.5	0.2515	1029.258	0.479
0.5	0.3142	1032.398	0.489
1	0	1033.731	0.496
1	0.02997	1035.23	0.497
1	0.04358	1035.914	0.501
1	0.05946	1036.711	0.504
1	0.08059	1037.761	0.507
1	0.1018	1038.82	0.511
1	0.1509	1041.255	0.518
1	0.2028	1043.807	0.526
1.5	0	1049.358	0.546
1.5	0.03309	1050.936	0.55
1.5	0.04353	1051.434	0.552
1.5	0.05905	1052.175	0.554
1.5	0.07914	1053.136	0.557
1.5	0.09991	1054.13	0.561
1.5	0.1509	1056.553	0.568
1.5	0.2019	1058.949	0.576
2	0	1064.029	0.593
2	0.03356	1065.557	0.598
2	0.04442	1066.052	0.6
2	0.06026	1066.775	0.602
2	0.08199	1067.76	0.605
2	0.1025	1068.679	0.608
2	0.1511	1070.9	0.616
2	0.2016	1073.18	0.623

System: sodium butyrate + glycyl-L-valine + water; phases: Liquid
Fixed: Pressure, kPa = 101
Fixed: Temperature, K = 298.15
Property: Molar conductivity, S*m2/mol (Liquid); method: Alternating current cell with electrodes
Solvent: Molality, mol/kg of glycyl-L-valine	Amount concentration (molarity), mol/dm3 of sodium butyrate	Molar conductivity, S*m2/mol	uncertainty
0.05	0.0043247	0.007077	0.000113
0.05	0.0060325	0.007029	0.000112
0.05	0.0075595	0.006982	0.000111
0.05	0.0090231	0.00694	0.00011
0.05	0.0106	0.006897	0.00011
0.05	0.012175	0.006875	0.000109
0.05	0.013866	0.006857	0.000109
0.05	0.015404	0.006825	0.000109
0.05	0.01685	0.006797	0.000108
0.05	0.018124	0.00679	0.000108
0.05	0.019468	0.006764	0.000108
0.05	0.02087	0.006739	0.000107
0.05	0.022167	0.006715	0.000107
0.05	0.023299	0.006698	0.000107
0.05	0.024367	0.006683	0.000106
0.05	0.025741	0.006662	0.000106
0.05	0.026606	0.006643	0.000106
0.1	0.0024978	0.006909	0.00011
0.1	0.0040032	0.006876	0.000109
0.1	0.0056393	0.006838	0.000109
0.1	0.0071912	0.00679	0.000108
0.1	0.0087958	0.006756	0.000107
0.1	0.010419	0.006721	0.000107
0.1	0.01175	0.006685	0.000106
0.1	0.013225	0.006658	0.000106
0.1	0.014603	0.006629	0.000105
0.1	0.016074	0.0066	0.000105
0.1	0.017515	0.006575	0.000105
0.1	0.018819	0.006573	0.000105
0.1	0.020246	0.006547	0.000104
0.1	0.021697	0.006522	0.000104
0.1	0.023041	0.006502	0.000103
0.1	0.024509	0.006478	0.000103
0.1	0.025874	0.006454	0.000103
0.15	0.0028719	0.006758	0.000108
0.15	0.0045667	0.006714	0.000107
0.15	0.0061642	0.006676	0.000106
0.15	0.0077154	0.006636	0.000106
0.15	0.0090626	0.006602	0.000105
0.15	0.010615	0.006573	0.000105
0.15	0.011938	0.006541	0.000104
0.15	0.013311	0.006514	0.000104
0.15	0.01455	0.006501	0.000103
0.15	0.015854	0.006469	0.000103
0.15	0.017172	0.006444	0.000103
0.15	0.018517	0.006442	0.000102
0.15	0.019657	0.006418	0.000102
0.15	0.021022	0.006397	0.000102
0.15	0.022258	0.006381	0.000102
0.15	0.023509	0.006362	0.000101
0.15	0.024687	0.006346	0.000101
0.15	0.025309	0.006337	0.000101
0.2	0.0028792	0.006525	0.000104
0.2	0.0045573	0.006472	0.000103
0.2	0.0062826	0.006416	0.000102
0.2	0.0079668	0.006362	0.000101
0.2	0.0094385	0.006343	0.000101
0.2	0.01107	0.006306	0.0001
0.2	0.012638	0.006276	0.0001
0.2	0.014197	0.006249	9.9e-05
0.2	0.015809	0.00622	9.9e-05
0.2	0.017368	0.006197	9.9e-05
0.2	0.018883	0.006186	9.8e-05
0.2	0.020365	0.006165	9.8e-05
0.2	0.021858	0.006144	9.8e-05
0.2	0.023245	0.006121	9.7e-05
0.2	0.024624	0.006106	9.7e-05
0.2	0.025948	0.00609	9.7e-05
0.2	0.026404	0.006084	9.7e-05

System: sodium butyrate + glycyl-L-valine + water; phases: Liquid
Fixed: Temperature, K = 298.15
Fixed: Pressure, kPa = 101
Property: Mass density, kg/m3 (Liquid); method: VIBTUB:UFactor:6
Solvent: Molality, mol/kg of sodium butyrate	Molality, mol/kg of glycyl-L-valine	Mass density, kg/m3	uncertainty
0.5	0	1016.313	0.436
0.5	0.02131	1017.33	0.44
0.5	0.04013	1018.233	0.443
0.5	0.05917	1019.151	0.446
0.5	0.08053	1020.178	0.449
0.5	0.1011	1021.168	0.452
0.5	0.1543	1023.679	0.46
0.5	0.1987	1025.781	0.467
1	0	1033.731	0.497
1	0.0207	1034.684	0.496
1	0.03876	1035.505	0.499
1	0.0593	1036.437	0.502
1	0.08059	1037.411	0.505
1	0.09878	1038.212	0.508
1	0.1528	1040.614	0.515
1	0.1767	1041.644	0.519
1	0.2019	1042.756	0.522
1.5	0	1049.358	0.546
1.5	0.0198	1050.197	0.547
1.5	0.03992	1051.048	0.55
1.5	0.06225	1051.996	0.553
1.5	0.08085	1052.785	0.556
1.5	0.1005	1053.644	0.559
1.5	0.1515	1055.788	0.565
1.5	0.1946	1057.585	0.571
2	0	1064.029	0.593
2	0.01923	1064.796	0.595
2	0.0404	1065.636	0.598
2	0.06126	1066.47	0.601
2	0.08011	1067.225	0.603
2	0.1016	1068.075	0.606
2	0.15	1069.973	0.612
2	0.1937	1071.667	0.618

System: sodium butyrate + glycyl-L-leucine + water; phases: Liquid
Fixed: Pressure, kPa = 101
Fixed: Temperature, K = 298.15
Property: Molar conductivity, S*m2/mol (Liquid); method: Alternating current cell with electrodes
Solvent: Molality, mol/kg of glycyl-L-leucine	Amount concentration (molarity), mol/dm3 of sodium butyrate	Molar conductivity, S*m2/mol	uncertainty
0.05	0.0040919	0.007063	0.000112
0.05	0.005483	0.007025	0.000112
0.05	0.0071202	0.006975	0.000111
0.05	0.0086843	0.006939	0.00011
0.05	0.010054	0.006896	0.00011
0.05	0.011622	0.006858	0.000109
0.05	0.013062	0.006822	0.000109
0.05	0.014504	0.006792	0.000108
0.05	0.015899	0.006759	0.000108
0.05	0.017329	0.006731	0.000107
0.05	0.018719	0.006716	0.000107
0.05	0.020117	0.006695	0.000107
0.05	0.021438	0.00667	0.000106
0.05	0.02278	0.006646	0.000106
0.05	0.024065	0.006624	0.000105
0.05	0.025211	0.006604	0.000105
0.05	0.026434	0.006584	0.000105
0.1	0.0042841	0.006889	0.00011
0.1	0.0060025	0.006809	0.000108
0.1	0.0076373	0.006768	0.000108
0.1	0.0093034	0.00673	0.000107
0.1	0.010849	0.006698	0.000107
0.1	0.01244	0.006667	0.000106
0.1	0.014109	0.00663	0.000105
0.1	0.015573	0.006596	0.000105
0.1	0.017008	0.006573	0.000105
0.1	0.018399	0.006563	0.000104
0.1	0.019788	0.006539	0.000104
0.1	0.021289	0.006514	0.000104
0.1	0.022582	0.006495	0.000103
0.1	0.023834	0.006474	0.000103
0.1	0.025295	0.006451	0.000103
0.15	0.0039682	0.006598	0.000105
0.15	0.005552	0.006565	0.000104
0.15	0.0070102	0.006524	0.000104
0.15	0.0084356	0.006484	0.000103
0.15	0.0098562	0.006447	0.000103
0.15	0.011325	0.006412	0.000102
0.15	0.01281	0.006385	0.000102
0.15	0.01425	0.006361	0.000101
0.15	0.015754	0.00633	0.000101
0.15	0.017154	0.006303	0.0001
0.15	0.018523	0.00628	0.0001
0.15	0.019923	0.006273	0.0001
0.15	0.021285	0.006246	9.9e-05
0.15	0.022637	0.006226	9.9e-05
0.15	0.023886	0.006207	9.9e-05
0.15	0.025036	0.006188	9.8e-05
0.15	0.025866	0.006175	9.8e-05
0.2	0.0059562	0.006208	9.9e-05
0.2	0.0074347	0.006193	9.9e-05
0.2	0.0088917	0.006161	9.8e-05
0.2	0.010423	0.006147	9.8e-05
0.2	0.01187	0.006125	9.7e-05
0.2	0.0133	0.006099	9.7e-05
0.2	0.014731	0.006085	9.7e-05
0.2	0.01629	0.00606	9.6e-05
0.2	0.017608	0.006041	9.6e-05
0.2	0.019058	0.006022	9.6e-05
0.2	0.020385	0.006017	9.6e-05
0.2	0.021704	0.005998	9.5e-05
0.2	0.023034	0.00598	9.5e-05
0.2	0.024534	0.005962	9.5e-05
0.2	0.025855	0.005944	9.5e-05
0.2	0.026479	0.005937	9.4e-05

System: sodium butyrate + glycyl-L-leucine + water; phases: Liquid
Fixed: Temperature, K = 298.15
Fixed: Pressure, kPa = 101
Property: Mass density, kg/m3 (Liquid); method: VIBTUB:UFactor:6
Solvent: Molality, mol/kg of sodium butyrate	Molality, mol/kg of glycyl-L-leucine	Mass density, kg/m3	uncertainty
0.5	0	1016.306	0.436
0.5	0.01941	1017.169	0.439
0.5	0.04004	1018.082	0.442
0.5	0.06057	1018.989	0.445
0.5	0.07994	1019.844	0.448
0.5	0.1002	1020.738	0.45
0.5	0.131	1022.079	0.455
0.5	0.1609	1023.385	0.459
1	0	1033.796	0.497
1	0.01958	1034.608	0.495
1	0.02968	1035.024	0.497
1	0.04027	1035.465	0.499
1	0.05083	1035.901	0.5
1	0.06061	1036.313	0.501
1	0.07067	1036.727	0.503
1	0.08075	1037.159	0.505
1	0.1043	1038.124	0.506
1.5	0	1049.358	0.545
1.5	0.02	1050.126	0.547
1.5	0.03023	1050.521	0.548
1.5	0.04059	1050.92	0.549
1.5	0.05032	1051.294	0.55
1.5	0.06082	1051.696	0.552
1.5	0.07047	1052.067	0.553
1.5	0.07865	1052.382	0.554
1.5	0.08773	1052.724	0.554
2	0	1064.029	0.592
2	0.0301	1065.1	0.596
2	0.04026	1065.463	0.597
2	0.05051	1065.832	0.598
2	0.06052	1066.186	0.599
2	0.07058	1066.541	0.601
2	0.08018	1066.877	0.602
2	0.08993	1067.215	0.603
