Measured thermophysical data. Binary Liquid-Liquid Equilibrium (LLE) for N-Methylformamide (NMF) + Hexadecane between (288.15 and 318.15) K and Ternary LLE for Systems of NMF + Heterocyclic Nitrogen Compounds + Hexadecane at 298.15 K
Source: J. Chem. Eng. Data, 2009, 10.1021/je8006265
Compound 1: N-methylformamide, C2H5NO, InChI=1S/C2H5NO/c1-3-2-4/h2H,1H3,(H,3,4)
Compound 2: hexadecane, C16H34, InChI=1S/C16H34/c1-3-5-7-9-11-13-15-16-14-12-10-8-6-4-2/h3-16H2,1-2H3
Compound 3: quinoline, C9H7N, InChI=1S/C9H7N/c1-2-6-9-8(4-1)5-3-7-10-9/h1-7H
Compound 4: pyridine, C5H5N, InChI=1S/C5H5N/c1-2-4-6-5-3-1/h1-5H
Compound 5: 1H-indole, C8H7N, InChI=1S/C8H7N/c1-2-4-8-7(3-1)5-6-9-8/h1-6,9H
Compound 6: pyrrole, C4H5N, InChI=1S/C4H5N/c1-2-4-5-3-1/h1-5H
Compound 7: aniline, C6H7N, InChI=1S/C6H7N/c7-6-4-2-1-3-5-6/h1-5H,7H2

System: N-methylformamide; phases: Liquid
Property: Mass density, kg/m3 (Liquid); method: VIBTUB:UFactor:4
Temperature, K	Pressure, kPa	Mass density, kg/m3	uncertainty
298.15	101.325	785.32	200

System: hexadecane; phases: Liquid
Property: Mass density, kg/m3 (Liquid); method: VIBTUB:UFactor:2
Temperature, K	Pressure, kPa	Mass density, kg/m3	uncertainty
298.15	101.325	773.19	0.32

System: quinoline; phases: Liquid
Property: Mass density, kg/m3 (Liquid); method: VIBTUB:UFactor:3
Temperature, K	Pressure, kPa	Mass density, kg/m3	uncertainty
298.15	101.325	1089.45	0.31

System: pyridine; phases: Liquid
Property: Mass density, kg/m3 (Liquid); method: VIBTUB:UFactor:4
Temperature, K	Pressure, kPa	Mass density, kg/m3	uncertainty
298.15	101.325	978.25	0.27

System: 1H-indole; phases: Crystal
Property: Mass density, kg/m3 (Crystal); method: PYCNOM:UFactor:6
Temperature, K	Pressure, kPa	Mass density, kg/m3	uncertainty
298.15	101.325	1216.68	1.88

System: pyrrole; phases: Liquid
Property: Mass density, kg/m3 (Liquid); method: VIBTUB:UFactor:12
Temperature, K	Pressure, kPa	Mass density, kg/m3	uncertainty
298.15	101.325	965.9	2.92

System: aniline; phases: Liquid
Property: Mass density, kg/m3 (Liquid); method: VIBTUB:UFactor:3
Temperature, K	Pressure, kPa	Mass density, kg/m3	uncertainty
298.15	101.325	1017.42	0.2

System: N-methylformamide + hexadecane; phases: Liquid mixture 1, Liquid mixture 2
Fixed: Pressure, kPa = 101
Property: Mole fraction of N-methylformamide (Liquid mixture 1); method: Chromatography
Temperature, K	Mole fraction of N-methylformamide	uncertainty
293.15	0.9993	0.0002
298.15	0.999	0.0002
303.15	0.9984	0.0002
308.15	0.9985	0.0002
313.15	0.9988	0.0002
318.15	0.9987	0.0002

System: N-methylformamide + hexadecane; phases: Liquid mixture 2, Liquid mixture 1
Fixed: Pressure, kPa = 101
Property: Mole fraction of N-methylformamide (Liquid mixture 2); method: Chromatography
Temperature, K	Mole fraction of N-methylformamide	uncertainty
293.15	0.0009	0.0002
298.15	0.0011	0.0002
303.15	0.0021	0.0002
308.15	0.0026	0.0002
313.15	0.0027	0.0002
318.15	0.0029	0.0002

System: 1H-indole + N-methylformamide + hexadecane; phases: Liquid mixture 1, Liquid mixture 2
Fixed: Temperature, K = 298.15
Fixed: Pressure, kPa = 101
Property: Mole fraction of 1H-indole (Liquid mixture 1); method: CHROM:UFactor:4
Property: Mole fraction of N-methylformamide (Liquid mixture 2); method: CHROM:UFactor:4
Property: Mole fraction of 1H-indole (Liquid mixture 2); method: CHROM:UFactor:4
Mole fraction of N-methylformamide	Mole fraction of 1H-indole	uncertainty	Mole fraction of N-methylformamide	uncertainty	Mole fraction of 1H-indole	uncertainty
0.9288	0.0695	0.0022	0	0.0001	0	
0.8588	0.1384	0.0043	0	0.0001	0.0001	
0.7982	0.1992	0.0062	0	0.0001	0.0002	
0.7328	0.2637	0.0082	0	0.0001	0.0003	
0.6725	0.3223	0.01	0	0.0001	0.0122	
0.6068	0.3876	0.012	0	0.0001	0.015	
0.5366	0.4567	0.0142	0	0.0001	0.0276	
0.4715	0.5209	0.0148	0	0.0001	0.0339	
0.4089	0.5817	0.013	0	0.0001	0.0386	
0.3498	0.6403	0.0111	0	0.0001	0.0452	
0.3029	0.6845	0.0098	0	0.0001	0.0497	
0.2783	0.7103	0.009	0	0.0001	0.0523	

System: quinoline + N-methylformamide + hexadecane; phases: Liquid mixture 1, Liquid mixture 2
Fixed: Pressure, kPa = 101
Fixed: Temperature, K = 298.15
Property: Mole fraction of N-methylformamide (Liquid mixture 1); method: CHROM:UFactor:4
Property: Mole fraction of N-methylformamide (Liquid mixture 2); method: CHROM:UFactor:4
Property: Mole fraction of quinoline (Liquid mixture 2); method: CHROM:UFactor:4
Mole fraction of quinoline	Mole fraction of N-methylformamide	uncertainty	Mole fraction of N-methylformamide	uncertainty	Mole fraction of quinoline	uncertainty
0.0439	0.9523	0.0015	0	0.0001	0.0283	
0.0674	0.9283	0.0022	0	0.0001	0.0444	
0.0946	0.8947	0.0033	0	0.0001	0.0548	
0.1509	0.8421	0.0049	0	0.0001	0.0773	
0.2071	0.7836	0.0067	0	0.0001	0.1064	
0.2938	0.698	0.0094	0	0.0001	0.1229	
0.3347	0.6529	0.0108	0	0.0001	0.1422	
0.3896	0.5941	0.0126	0	0.0001	0.1629	
0.4449	0.5371	0.0143	0	0.0001	0.1837	
0.4942	0.4829	0.015	0	0.0001	0.2244	
0.5456	0.4235	0.0131	0	0.0001	0.2345	
0.6974	0.2536	0.0079	0	0.0001	0.2942	
0.8329	0.0882	0.0029	0	0.0001	0.3816	
0.8279	0.0648	0.0021	0	0.0001	0.4154	
0.8169	0.0358	0.0012	0	0.0001	0.4675	
0.7984	0.0141	0.0005	0	0.0001	0.5564	

System: pyridine + N-methylformamide + hexadecane; phases: Liquid mixture 1, Liquid mixture 2
Fixed: Pressure, kPa = 101
Fixed: Temperature, K = 298.15
Property: Mole fraction of pyridine (Liquid mixture 1); method: CHROM:UFactor:4
Property: Mole fraction of N-methylformamide (Liquid mixture 2); method: CHROM:UFactor:4
Property: Mole fraction of pyridine (Liquid mixture 2); method: CHROM:UFactor:4
Mole fraction of N-methylformamide	Mole fraction of pyridine	uncertainty	Mole fraction of N-methylformamide	uncertainty	Mole fraction of pyridine	uncertainty
0.9664	0.0258	0.0008	0	0.0001	0.0188	
0.8649	0.1201	0.0037	0	0.0001	0.0571	
0.8474	0.1444	0.0045	0	0.0001	0.0831	
0.8088	0.1825	0.0057	0	0.0001	0.1005	
0.7696	0.2213	0.0069	0	0.0001	0.1194	
0.7014	0.2862	0.0089	0	0.0001	0.1567	
0.6195	0.3657	0.0113	0	0.0001	0.2199	
0.5524	0.4303	0.0133	0	0.0001	0.2397	
0.4895	0.4999	0.0155	0	0.0001	0.289	
0.431	0.5555	0.0138	0	0.0001	0.3172	
0.348	0.6298	0.0115	0	0.0001	0.377	
0.2886	0.684	0.0098	0	0.0001	0.4275	
0.2323	0.7388	0.0081	0	0.0001	0.468	
0.1814	0.7882	0.0066	0	0.0001	0.5163	
0.1436	0.8186	0.0056	0	0.0001	0.5413	
0.0506	0.8655	0.0042	0	0.0001	0.6881	

System: pyrrole + N-methylformamide + hexadecane; phases: Liquid mixture 1, Liquid mixture 2
Fixed: Pressure, kPa = 101
Fixed: Temperature, K = 298.15
Property: Mole fraction of pyrrole (Liquid mixture 1); method: CHROM:UFactor:4
Property: Mole fraction of N-methylformamide (Liquid mixture 2); method: CHROM:UFactor:4
Property: Mole fraction of pyrrole (Liquid mixture 2); method: CHROM:UFactor:4
Mole fraction of N-methylformamide	Mole fraction of pyrrole	uncertainty	Mole fraction of N-methylformamide	uncertainty	Mole fraction of pyrrole	uncertainty
0.9185	0.0759	0.0024	0	0.0001	0	
0.8412	0.1464	0.0045	0	0.0001	0.0104	
0.778	0.2157	0.0067	0	0.0001	0.0146	
0.6466	0.3453	0.0107	0	0.0001	0.0195	
0.5853	0.4082	0.0126	0	0.0001	0.0333	
0.4875	0.5033	0.0154	0	0.0001	0.0389	
0.4043	0.5912	0.0127	0	0.0001	0.0683	
0.3275	0.6654	0.0104	0	0.0001	0.0654	
0.2563	0.7359	0.0082	0	0.0001	0.0761	
0.1832	0.8105	0.0059	0	0.0001	0.1179	
0.1594	0.8319	0.0052	0	0.0001	0.1206	
0.1145	0.8729	0.0039	0	0.0001	0.1369	
0.0738	0.9125	0.0027	0	0.0001	0.1484	
0	0.9807	0.0006	0	0.0001	0.1722	
0.0001	0.9874	0.0004	0	0.0001	0.1735	

System: aniline + N-methylformamide + hexadecane; phases: Liquid mixture 1, Liquid mixture 2
Fixed: Pressure, kPa = 101
Fixed: Temperature, K = 298.15
Property: Mole fraction of aniline (Liquid mixture 1); method: CHROM:UFactor:4
Property: Mole fraction of N-methylformamide (Liquid mixture 2); method: CHROM:UFactor:4
Property: Mole fraction of aniline (Liquid mixture 2); method: CHROM:UFactor:4
Mole fraction of N-methylformamide	Mole fraction of aniline	uncertainty	Mole fraction of N-methylformamide	uncertainty	Mole fraction of aniline	uncertainty
0.9635	0.0356	0.0011	0	0.0001	0	
0.9295	0.0694	0.0022	0	0.0001	0.0001	
0.8782	0.1199	0.0037	0	0.0001	0.0002	
0.8389	0.1599	0.005	0	0.0001	0.0141	
0.7888	0.2096	0.0065	0	0.0001	0.0181	
0.7398	0.2586	0.008	0	0.0001	0.0234	
0.6915	0.3069	0.0095	0	0.0001	0.0299	
0.6315	0.3667	0.0114	0	0.0001	0.0348	
0.604	0.3943	0.0122	0	0.0001	0.0406	
0.55	0.4464	0.0138	0	0.0001	0.0469	
0.5086	0.4846	0.015	0	0.0001	0.0545	
0.4566	0.541	0.0142	0	0.0001	0.0591	
0.4367	0.561	0.0136	0	0.0001	0.0639	
0.3835	0.6147	0.0119	0	0.0001	0.0712	
0.3422	0.6535	0.0107	0	0.0001	0.0773	
0.2869	0.7106	0.009	0	0.0001	0.087	
0.2369	0.7575	0.0075	0	0.0001	0.0895	
0.1841	0.8123	0.0058	0	0.0001	0.1035	
0.1274	0.8679	0.0041	0	0.0001	0.1064	
0.0719	0.9206	0.0025	0	0.0001	0.1062	
0	0.9948	0.0003	0	0.0001	0.1289	
