Measured thermophysical data. Compressed and Saturated Liquid Densities for the 2-Propanol + Water System
Source: J. Chem. Eng. Data, 2008, 10.1021/je8001305
Compound 1: water, H2O, InChI=1S/H2O/h1H2
Compound 2: propan-2-ol, C3H8O, InChI=1S/C3H8O/c1-3(2)4/h3-4H,1-2H3, purity 99.8%

System: propan-2-ol + water; phases: Liquid
Property: Mass density, kg/m3 (Liquid); method: Vibrating tube method
Mole fraction of propan-2-ol	Temperature, K	Pressure, kPa	Mass density, kg/m3	uncertainty
0.2483	300.08	7	895.51	0.9
0.2483	300.08	146.2	895.5	0.9
0.2483	300.08	381.3	895.67	0.9
0.2483	300.08	764.9	895.89	0.9
0.2483	300.08	1101.1	896.11	0.9
0.2483	300.08	1556.8	896.32	0.9
0.2483	300.08	1921.9	896.56	0.91
0.2483	300.08	2181.5	896.86	0.91
0.2483	300.08	2610.1	897.09	0.91
0.2483	300.08	3080.5	897.32	0.91
0.2483	300.08	3522.3	897.58	0.91
0.2483	300.08	4082.6	897.87	0.91
0.2483	300.08	4663.3	898.17	0.91
0.2483	300.08	5151.3	898.42	0.91
0.2483	300.08	5562.5	898.65	0.91
0.2483	300.08	5980.5	898.85	0.91
0.2483	300.08	6414.3	899.11	0.91
0.2483	300.08	6754.8	899.33	0.91
0.2483	300.08	7246.8	899.56	0.91
0.2483	300.08	7636.7	899.78	0.91
0.2483	300.08	8131.6	900.04	0.91
0.2483	300.08	8662.8	900.28	0.91
0.2483	300.08	9087.3	900.54	0.91
0.2483	300.08	9562.3	900.79	0.91
0.2483	325.1	27.3	874.07	0.88
0.2483	325.1	72.6	874.13	0.88
0.2483	325.1	410.3	874.37	0.88
0.2483	325.1	962.1	874.71	0.88
0.2483	325.1	1343	875.01	0.88
0.2483	325.1	1859.5	875.37	0.89
0.2483	325.1	2332.6	875.6	0.89
0.2483	325.1	2826.4	875.91	0.89
0.2483	325.1	3319.4	876.24	0.89
0.2483	325.1	3776.3	876.52	0.89
0.2483	325.1	4236.7	876.83	0.89
0.2483	325.1	4598.7	877.08	0.89
0.2483	325.1	5089.3	877.36	0.89
0.2483	325.1	5564.2	877.68	0.89
0.2483	325.1	5954.2	877.93	0.89
0.2483	325.1	6394.3	878.21	0.89
0.2483	325.1	6808.5	878.48	0.89
0.2483	325.1	7288	878.8	0.89
0.2483	325.1	7782.7	879.08	0.89
0.2483	325.1	8079.1	879.34	0.89
0.2483	325.1	8438.9	879.63	0.89
0.2483	325.1	8828.5	879.87	0.89
0.2483	325.1	9358.9	880.18	0.89
0.2483	350.18	84.4	850.19	0.86
0.2483	350.18	220	850.33	0.86
0.2483	350.18	511	850.54	0.86
0.2483	350.18	938.8	850.91	0.86
0.2483	350.18	1369.7	851.29	0.86
0.2483	350.18	2066.9	851.75	0.86
0.2483	350.18	2381	852.09	0.86
0.2483	350.18	2718.1	852.39	0.86
0.2483	350.18	3107.7	852.73	0.86
0.2483	350.18	3464.8	853.04	0.87
0.2483	350.18	3957.6	853.37	0.87
0.2483	350.18	4346	853.71	0.87
0.2483	350.18	4781.1	854.06	0.87
0.2483	350.18	5267.8	854.49	0.87
0.2483	350.18	5743.8	854.83	0.87
0.2483	350.18	6196.4	855.2	0.87
0.2483	350.18	6734.2	855.63	0.87
0.2483	350.18	7374.9	856.07	0.87
0.2483	350.18	7999	856.54	0.87
0.2483	350.18	8630.3	857.02	0.87
0.2483	350.18	9298.3	857.54	0.87
0.4939	300.1	7.2	837.98	0.85
0.4939	300.1	233.4	838.18	0.85
0.4939	300.1	503	838.33	0.85
0.4939	300.1	946.6	838.71	0.85
0.4939	300.1	1545.3	839.06	0.85
0.4939	300.1	1902.2	839.36	0.85
0.4939	300.1	2303.5	839.65	0.85
0.4939	300.1	2724.6	839.96	0.85
0.4939	300.1	3136.5	840.26	0.85
0.4939	300.1	3567.9	840.56	0.85
0.4939	300.1	3995.8	840.87	0.85
0.4939	300.1	4436.2	841.18	0.85
0.4939	300.1	4835.5	841.48	0.85
0.4939	300.1	5262	841.77	0.85
0.4939	300.1	5699.8	842.07	0.85
0.4939	300.1	6161	842.39	0.86
0.4939	300.1	6588.4	842.68	0.86
0.4939	300.1	7053	843	0.86
0.4939	300.1	7437.9	843.28	0.86
0.4939	300.1	7862	843.57	0.86
0.4939	300.1	8248.5	843.86	0.86
0.4939	300.1	8704.4	844.15	0.86
0.4939	300.1	9260.6	844.49	0.86
0.4939	300.1	9966.4	845.04	0.86
0.4939	325.09	28.6	814.94	0.83
0.4939	325.09	65.4	814.96	0.83
0.4939	325.09	303	815.2	0.83
0.4939	325.09	645.3	815.47	0.83
0.4939	325.09	1004.8	815.8	0.83
0.4939	325.09	1391.9	816.13	0.83
0.4939	325.09	1788.1	816.48	0.83
0.4939	325.09	2242	816.83	0.83
0.4939	325.09	2881.1	817.33	0.83
0.4939	325.09	3904.6	818.19	0.83
0.4939	325.09	4242.1	818.51	0.83
0.4939	325.09	4784.4	818.94	0.83
0.4939	325.09	5116.8	819.26	0.83
0.4939	325.09	5507.3	819.61	0.83
0.4939	325.09	5912.2	819.93	0.83
0.4939	325.09	6322.1	820.28	0.84
0.4939	325.09	6773	820.6	0.84
0.4939	325.09	7214.5	820.97	0.84
0.4939	325.09	7613.3	821.31	0.84
0.4939	325.09	8080.5	821.7	0.84
0.4939	325.09	8603.1	822.11	0.84
0.4939	325.09	9197.3	822.51	0.84
0.4939	325.09	9561.4	822.86	0.84
0.4939	350.15	88	789.82	0.8
0.4939	350.15	161.7	789.8	0.8
0.4939	350.15	387.8	790.1	0.8
0.4939	350.15	695.2	790.45	0.8
0.4939	350.15	1020.8	790.78	0.8
0.4939	350.15	1400.1	791.25	0.8
0.4939	350.15	1795.8	791.61	0.8
0.4939	350.15	2147.1	791.96	0.81
0.4939	350.15	2497.9	792.31	0.81
0.4939	350.15	2892.7	792.74	0.81
0.4939	350.15	3277.9	793.12	0.81
0.4939	350.15	3611.5	793.5	0.81
0.4939	350.15	4087.3	794.01	0.81
0.4939	350.15	4606.7	794.49	0.81
0.4939	350.15	4955.2	794.83	0.81
0.4939	350.15	5376	795.26	0.81
0.4939	350.15	5837.6	795.69	0.81
0.4939	350.15	6296.4	796.18	0.81
0.4939	350.15	6886.6	796.77	0.82
0.4939	350.15	7400.8	797.28	0.82
0.4939	350.15	7935.6	797.73	0.82
0.4939	350.15	8400.3	798.24	0.82
0.4939	350.15	9000.6	798.68	0.82
0.4939	350.15	9521.2	799.18	0.82
0.7258	300.08	7.3	805.5	0.81
0.7258	300.08	88.2	805.57	0.81
0.7258	300.08	303	805.78	0.82
0.7258	300.08	565.1	806	0.82
0.7258	300.08	1126.2	806.42	0.82
0.7258	300.08	1702.5	806.92	0.82
0.7258	300.08	2239.8	807.33	0.82
0.7258	300.08	2722.7	807.73	0.82
0.7258	300.08	3196	808.11	0.82
0.7258	300.08	3715.6	808.53	0.82
0.7258	300.08	4231.5	808.93	0.82
0.7258	300.08	4587.1	809.31	0.82
0.7258	300.08	5314.6	809.85	0.82
0.7258	300.08	5793.2	810.24	0.82
0.7258	300.08	6301.2	810.63	0.83
0.7258	300.08	6783.9	811.02	0.83
0.7258	300.08	7297.6	811.43	0.83
0.7258	300.08	7804.4	811.81	0.83
0.7258	300.08	8342.2	812.23	0.83
0.7258	300.08	8818	812.6	0.83
0.7258	300.08	9330.1	813	0.83
0.7258	300.08	9918.9	813.45	0.83
0.7258	325.13	29.2	782.68	0.79
0.7258	325.13	83	782.69	0.79
0.7258	325.13	268.1	782.93	0.79
0.7258	325.13	528.3	783.18	0.79
0.7258	325.13	873.7	783.5	0.79
0.7258	325.13	1298.6	783.92	0.8
0.7258	325.13	1709.2	784.33	0.8
0.7258	325.13	2200.7	784.79	0.8
0.7258	325.13	2652.1	785.22	0.8
0.7258	325.13	3101.7	785.67	0.8
0.7258	325.13	3550.6	786.11	0.8
0.7258	325.13	4068.3	786.61	0.8
0.7258	325.13	4579.4	787.07	0.8
0.7258	325.13	5021.7	787.49	0.8
0.7258	325.13	5496.1	787.93	0.8
0.7258	325.13	5972.3	788.38	0.81
0.7258	325.13	6450.8	788.82	0.81
0.7258	325.13	6903	789.24	0.81
0.7258	325.13	7392	789.7	0.81
0.7258	325.13	7861.1	790.11	0.81
0.7258	325.13	8322.8	790.52	0.81
0.7258	325.13	8813.9	790.98	0.81
0.7258	325.13	9287.4	791.41	0.81
0.7258	325.13	9829.7	791.93	0.81
0.7258	351.14	93.2	756.9	0.77
0.7258	351.14	241.5	757.15	0.77
0.7258	351.14	444.5	757.34	0.77
0.7258	351.14	822.4	757.8	0.77
0.7258	351.14	1271.6	758.33	0.77
0.7258	351.14	1673.9	758.75	0.77
0.7258	351.14	2070.5	759.26	0.77
0.7258	351.14	2461.1	759.66	0.77
0.7258	351.14	2863.4	760.12	0.78
0.7258	351.14	3280.9	760.61	0.78
0.7258	351.14	4252.5	761.65	0.78
0.7258	351.14	4626.4	762.11	0.78
0.7258	351.14	5075.9	762.61	0.78
0.7258	351.14	5558.5	763.09	0.78
0.7258	351.14	5976.2	763.59	0.78
0.7258	351.14	6439.8	764.08	0.79
0.7258	351.14	6882.2	764.57	0.79
0.7258	351.14	7348.6	765.1	0.79
0.7258	351.14	7809.3	765.6	0.79
0.7258	351.14	8254	766.09	0.79
0.7258	351.14	8720.2	766.63	0.79
0.7258	351.14	9221.3	767.15	0.79
0.7258	351.14	9714.8	767.73	0.79
0.7258	351.14	10239.5	768.31	0.8
