Measured thermophysical data. Vapor-Liquid Equilibrium for the cis-2-Butene + Methanol, + 2-Propanol, + 2-Butanol, + 2-Methyl-2-propanol Systems at 364.5 K
Source: J. Chem. Eng. Data, 2008, 10.1021/je800088e
Compound 1: (Z)-2-butene, C4H8, InChI=1S/C4H8/c1-3-4-2/h3-4H,1-2H3/b4-3-
Compound 2: methanol, CH4O, InChI=1S/CH4O/c1-2/h2H,1H3
Compound 3: propan-2-ol, C3H8O, InChI=1S/C3H8O/c1-3(2)4/h3-4H,1-2H3
Compound 4: butan-2-ol, C4H10O, InChI=1S/C4H10O/c1-3-4(2)5/h4-5H,3H2,1-2H3
Compound 5: 2-methylpropan-2-ol, C4H10O, InChI=1S/C4H10O/c1-4(2,3)5/h5H,1-3H3

System: (Z)-2-butene; phases: Liquid, Gas
Property: Vapor or sublimation pressure, kPa (Liquid); method: Closed cell (Static) method
Temperature, K	Vapor or sublimation pressure, kPa	uncertainty
364.52	1190.5	5.3
364.52	1189.6	5.2
364.53	1190.7	5.2

System: methanol; phases: Liquid, Gas
Property: Vapor or sublimation pressure, kPa (Liquid); method: Closed cell (Static) method
Temperature, K	Vapor or sublimation pressure, kPa	uncertainty
364.52	267.3	1.4

System: propan-2-ol; phases: Liquid, Gas
Property: Vapor or sublimation pressure, kPa (Liquid); method: Closed cell (Static) method
Temperature, K	Vapor or sublimation pressure, kPa	uncertainty
364.52	143.9	1

System: butan-2-ol; phases: Liquid, Gas
Property: Vapor or sublimation pressure, kPa (Liquid); method: Closed cell (Static) method
Temperature, K	Vapor or sublimation pressure, kPa	uncertainty
364.52	74	0.9

System: 2-methylpropan-2-ol; phases: Liquid, Gas
Property: Vapor or sublimation pressure, kPa (Liquid); method: Closed cell (Static) method
Temperature, K	Vapor or sublimation pressure, kPa	uncertainty
364.52	143	1

System: methanol + (Z)-2-butene; phases: Liquid, Gas
Property: Vapor or sublimation pressure, kPa (Liquid); method: Closed cell (Static) method
Mole fraction of (Z)-2-butene	Temperature, K	Vapor or sublimation pressure, kPa	uncertainty
0	364.52	267.3	1.4
0.0157	364.52	379.6	10.2
0.0307	364.51	475.6	12.1
0.0474	364.52	568.4	11.8
0.0902	364.52	758.8	16.3
0.1348	364.52	899.9	15.9
0.1834	364.52	1007.6	13.8
0.2343	364.52	1085.4	13.4
0.2864	364.53	1140.5	8.5
0.3391	364.53	1179.8	9.1
0.3918	364.52	1208.1	7.3
0.4443	364.53	1229.4	6.7
0.4965	364.52	1245.9	5.6
0.499	364.52	1246.2	5.6
0.5479	364.52	1258.2	6.1
0.5981	364.52	1268.8	6
0.6473	364.53	1277.6	5.9
0.6976	364.53	1285.5	5.9
0.7475	364.52	1292.2	5.8
0.798	364.51	1297.5	5.8
0.8484	364.51	1300.3	5.8
0.9005	364.51	1297.4	5.8
0.9501	364.52	1275.4	6.8
0.9701	364.52	1251.9	6.7
0.9827	364.52	1229.7	6.6
0.9896	364.52	1215.5	6.8
1	364.52	1190.5	5.3

System: propan-2-ol + (Z)-2-butene; phases: Gas, Liquid
Property: Vapor or sublimation pressure, kPa (Gas); method: Closed cell (Static) method
Mole fraction of (Z)-2-butene	Temperature, K	Vapor or sublimation pressure, kPa	uncertainty
0	364.52	143.9	1
0.0202	364.53	203.6	4.7
0.0384	364.52	254.1	6.5
0.0558	364.52	300.1	7.5
0.1012	364.52	408.5	10.4
0.1481	364.52	505.5	11.8
0.1964	364.52	592	12.3
0.2451	364.52	667.1	12.4
0.2952	364.52	734	11.9
0.3459	364.52	792.6	11.4
0.3966	364.52	843.6	10.5
0.4478	364.52	888.9	10.2
0.4978	364.53	928.2	5.8
0.4991	364.52	928.7	5.8
0.5476	364.52	962.6	8.4
0.5968	364.52	994.1	7.8
0.6457	364.52	1022.6	7.3
0.695	364.52	1049.4	7
0.7456	364.51	1074.9	6.4
0.7954	364.52	1099.1	6
0.8457	364.52	1122.8	5.8
0.8972	364.52	1146.4	5.5
0.9486	364.52	1169.7	5.3
0.9689	364.52	1178.5	5.3
0.9793	364.52	1182.8	5.2
0.9891	364.52	1186.5	5.2
1	364.52	1190.5	5.2

System: butan-2-ol + (Z)-2-butene; phases: Gas, Liquid
Property: Vapor or sublimation pressure, kPa (Gas); method: Closed cell (Static) method
Mole fraction of (Z)-2-butene	Temperature, K	Vapor or sublimation pressure, kPa	uncertainty
0	364.52	74	0.9
0.0237	364.52	129.5	4.3
0.0395	364.52	165.1	5.4
0.0579	364.52	204.7	6.7
0.1052	364.52	300.4	9.4
0.1516	364.52	385.5	10.6
0.1997	364.52	465.2	11.8
0.2484	364.52	538	12.2
0.2976	364.52	604.2	12.1
0.3479	364.52	665.5	12.5
0.3977	364.53	720.5	10.9
0.4487	364.53	771.8	11.2
0.4987	364.52	817.1	9.6
0.4995	364.53	818.2	10.3
0.5476	364.52	858.3	9.2
0.596	364.52	895.9	8.9
0.6447	364.52	931.5	8.3
0.6939	364.52	965.7	7.9
0.7443	364.51	998.9	7.2
0.7936	364.51	1030.9	6.7
0.8443	364.51	1064.3	6.3
0.8957	364.52	1099.8	6.1
0.9475	364.52	1140.6	5.6
0.9687	364.52	1159.2	5.4
0.9793	364.53	1169.4	5.4
0.989	364.52	1178.8	5.4
1	364.52	1189.6	5.2

System: 2-methylpropan-2-ol + (Z)-2-butene; phases: Gas, Liquid
Property: Vapor or sublimation pressure, kPa (Gas); method: Closed cell (Static) method
Mole fraction of (Z)-2-butene	Temperature, K	Vapor or sublimation pressure, kPa	uncertainty
0	364.52	143	1
0.023	364.52	190	3.9
0.0392	364.51	221.9	4.8
0.0591	364.52	259.8	5.9
0.1046	364.52	341.4	8.1
0.1517	364.52	418.9	9.7
0.2006	364.52	493.2	11
0.249	364.52	560.4	11.5
0.2984	364.52	623.8	12.1
0.3483	364.53	682.6	11.3
0.3984	364.53	737	11.7
0.4492	364.52	787.7	10.3
0.4996	364.52	833.9	10.1
0.4997	364.51	834.4	10.1
0.5479	364.52	875.2	9.3
0.5968	364.52	914.3	9.2
0.6457	364.52	951.1	8.6
0.6953	364.52	986.4	7.9
0.7445	364.52	1019.9	7.3
0.7945	364.52	1052.7	6.8
0.8451	364.52	1085.3	6.2
0.8962	364.52	1118.4	5.9
0.948	364.52	1153.4	5.5
0.9684	364.52	1167.7	5.4
0.9803	364.52	1176.2	5.3
0.9892	364.52	1182.6	5.3
1	364.53	1190.7	5.2
