Measured thermophysical data. Vapor-Liquid Equilibria of the Fluoroethane (R161) + 1,1,1,2-Tetrafluoroethane (R134a) System at Various Temperatures from (253.15 to 292.92) K
Source: J. Chem. Eng. Data, 2008, 10.1021/je800505y
Compound 1: fluoroethane, C2H5F, InChI=1S/C2H5F/c1-2-3/h2H2,1H3, purity 99.7%
Compound 2: 1,1,1,2-tetrafluoroethane, C2H2F4, InChI=1S/C2H2F4/c3-1-2(4,5)6/h1H2, purity 99.6%

System: fluoroethane; phases: Liquid, Gas
Property: Vapor or sublimation pressure, kPa (Liquid); method: Ebulliometric method (Recirculating still)
Temperature, K	Vapor or sublimation pressure, kPa	uncertainty
253.15	214	10
263.15	311	10
278.15	517	10
292.92	802	10

System: 1,1,1,2-tetrafluoroethane; phases: Liquid, Gas
Property: Vapor or sublimation pressure, kPa (Liquid); method: Ebulliometric method (Recirculating still)
Temperature, K	Vapor or sublimation pressure, kPa	uncertainty
253.15	131	10
263.15	203	10
278.15	353	10
292.92	571	10

System: fluoroethane + 1,1,1,2-tetrafluoroethane; phases: Liquid, Gas
Property: Vapor or sublimation pressure, kPa (Liquid); method: Ebulliometric method (Recirculating still)
Mole fraction of fluoroethane	Temperature, K	Vapor or sublimation pressure, kPa	uncertainty
0	253.15	131	10
0	263.15	203	10
0	278.15	353	10
0	292.92	571	10
0.14	263.15	211	10
0.146	292.92	587	10
0.147	278.15	364	10
0.24	278.15	373	10
0.241	263.15	217	10
0.259	253.15	145	10
0.268	292.92	601	10
0.352	278.15	384	10
0.36	263.15	226	10
0.378	253.15	153	10
0.378	292.92	623	10
0.435	292.92	633	10
0.465	278.15	399	10
0.473	263.15	234	10
0.502	253.15	159	10
0.58	292.92	663	10
0.581	263.15	244	10
0.581	278.15	416	10
0.609	253.15	168	10
0.669	292.92	686	11
0.685	278.15	434	10
0.686	263.15	256	10
0.71	253.15	176	10
0.765	292.92	716	11
0.774	278.15	454	10
0.785	263.15	271	10
0.801	253.15	186	10
0.858	292.92	740	11
0.866	278.15	471	10
0.876	253.15	193	10
0.876	263.15	283	10
1	253.15	214	10
1	263.15	311	10
1	278.15	517	10
1	292.92	802	10

System: fluoroethane + 1,1,1,2-tetrafluoroethane; phases: Liquid, Gas
Property: Mole fraction of fluoroethane (Liquid); method: Chromatography
Mole fraction of fluoroethane	Temperature, K	Mole fraction of fluoroethane	uncertainty
0	253.15	0	0.001
0	263.15	0	0.001
0	278.15	0	0.001
0	292.92	0	0.001
0.14	263.15	0.117	0.012
0.146	292.92	0.122	0.012
0.147	278.15	0.116	0.012
0.24	278.15	0.195	0.012
0.241	263.15	0.191	0.012
0.259	253.15	0.203	0.012
0.268	292.92	0.21	0.012
0.352	278.15	0.292	0.012
0.36	263.15	0.294	0.012
0.378	253.15	0.301	0.012
0.378	292.92	0.317	0.013
0.435	292.92	0.378	0.013
0.465	278.15	0.395	0.013
0.473	263.15	0.387	0.012
0.502	253.15	0.408	0.013
0.58	292.92	0.503	0.013
0.581	263.15	0.482	0.013
0.581	278.15	0.494	0.013
0.609	253.15	0.503	0.013
0.669	292.92	0.599	0.014
0.685	278.15	0.603	0.013
0.686	263.15	0.59	0.013
0.71	253.15	0.602	0.013
0.765	292.92	0.706	0.014
0.774	278.15	0.701	0.014
0.785	263.15	0.697	0.014
0.801	253.15	0.705	0.014
0.858	292.92	0.808	0.014
0.866	278.15	0.809	0.015
0.876	253.15	0.808	0.016
0.876	263.15	0.809	0.015
1	253.15	1	0.001
1	263.15	1	0.001
1	278.15	1	0.001
1	292.92	1	0.001
