Measured thermophysical data. Solubility of Chloroquine Diphosphate and 4,7-Dichloroquinoline in Water, Ethanol, Tetrahydrofuran, Acetonitrile, and Acetone from (298.2 to 333.2) K
Source: J. Chem. Eng. Data, 2009, 10.1021/je8007099
Compound 1: chloroquine diphosphate, C18H32ClN3O8P2, InChI=1S/C18H26ClN3.2H3O4P/c1-4-22(5-2)12-6-7-14(3)21-17-10-11-20-18-13-15(19)8-9-16(17)18;2*1-5(2,3)4/h8-11,13-14H,4-7,12H2,1-3H3,(H,20,21);2*(H3,1,2,3,4), purity 96%
Compound 2: 4,7-dichloroquinoline, C9H5Cl2N, InChI=1S/C9H5Cl2N/c10-6-1-2-7-8(11)3-4-12-9(7)5-6/h1-5H, purity 95%
Compound 3: ethanol, C2H6O, InChI=1S/C2H6O/c1-2-3/h3H,2H2,1H3
Compound 4: tetrahydrofuran, C4H8O, InChI=1S/C4H8O/c1-2-4-5-3-1/h1-4H2
Compound 5: acetonitrile, C2H3N, InChI=1S/C2H3N/c1-2-3/h1H3
Compound 6: acetone, C3H6O, InChI=1S/C3H6O/c1-3(2)4/h1-2H3
Compound 7: water, H2O, InChI=1S/H2O/h1H2

System: chloroquine diphosphate + water; phases: Liquid, Crystal
Fixed: Pressure, kPa = 101
Property: Mole fraction of chloroquine diphosphate (Liquid); method: spectrphotometric method
Temperature, K	Mole fraction of chloroquine diphosphate	uncertainty
298.2	0.0088557	0.0005961
303.2	0.0099447	0.0006701
308.2	0.0112277	0.0007581
313.2	0.0130456	0.000885
318.1	0.0160928	0.001097
323.2	0.0197928	0.001354
328.3	0.0247409	0.001699
333.3	0.0294794	0.00203

System: chloroquine diphosphate + ethanol; phases: Liquid, Crystal
Fixed: Pressure, kPa = 101
Property: Mole fraction of chloroquine diphosphate (Liquid); method: spectrphotometric method
Temperature, K	Mole fraction of chloroquine diphosphate	uncertainty
298.2	1.94e-05	1.2e-06
303.1	2.07e-05	1.4e-06
308.2	2.28e-05	1e-06
313.1	2.51e-05	1.4e-06
318.2	2.73e-05	1.8e-06
323.2	3e-05	8e-07
328.1	3.43e-05	1.7e-06
333.2	3.66e-05	1.2e-06

System: chloroquine diphosphate + tetrahydrofuran; phases: Liquid, Crystal
Fixed: Pressure, kPa = 101
Property: Mole fraction of chloroquine diphosphate (Liquid); method: spectrphotometric method
Temperature, K	Mole fraction of chloroquine diphosphate	uncertainty
298.2	3.13e-05	1e-06
303.1	3.97e-05	2.7e-06
308.1	4.89e-05	2.7e-06
313.1	5.78e-05	2.1e-06
318	6.61e-05	3.4e-06
323.2	7.37e-05	4.2e-06
328.2	7.88e-05	3.8e-06
333.2	8.29e-05	3.8e-06

System: chloroquine diphosphate + acetonitrile; phases: Liquid, Crystal
Fixed: Pressure, kPa = 101
Property: Mole fraction of chloroquine diphosphate (Liquid); method: spectrphotometric method
Temperature, K	Mole fraction of chloroquine diphosphate	uncertainty
299.2	2.4e-06	2e-07
303.2	2.5e-06	2e-07
308.2	2.6e-06	4e-07
313.2	2.7e-06	2e-07
318.2	2.8e-06	6e-07
323.2	3e-06	2e-07
328.3	3.29e-06	2.3e-07
333.3	3.6e-06	2e-07

System: chloroquine diphosphate + acetone; phases: Liquid, Crystal
Fixed: Pressure, kPa = 101
Property: Mole fraction of chloroquine diphosphate (Liquid); method: spectrphotometric method
Temperature, K	Mole fraction of chloroquine diphosphate	uncertainty
298.2	4.2e-06	2e-07
303.2	4.61e-06	8.6e-07
308.2	5.1e-06	4e-07
313.2	5.8e-06	2e-07
318.2	6.7e-06	5e-07
323.2	8.6e-06	5e-07
328.1	1.09e-05	5e-07

System: 4,7-dichloroquinoline + water; phases: Liquid, Crystal
Fixed: Pressure, kPa = 101
Property: Mole fraction of 4,7-dichloroquinoline (Liquid); method: spectrphotometric method
Temperature, K	Mole fraction of 4,7-dichloroquinoline	uncertainty
298	2.84e-05	8e-07
303.3	2.9e-05	7e-07
308.2	3.01e-05	1e-06
313.1	3.21e-05	1e-06
318.3	3.45e-05	1e-06
323.3	3.88e-05	1.4e-06
327.7	4.2e-05	1.3e-06
333.3	4.85e-05	1.3e-06

System: ethanol + 4,7-dichloroquinoline; phases: Liquid, Crystal
Fixed: Pressure, kPa = 101
Property: Mole fraction of 4,7-dichloroquinoline (Liquid); method: spectrphotometric method
Temperature, K	Mole fraction of 4,7-dichloroquinoline	uncertainty
299.8	0.011295	0.0005242
303.2	0.0145431	0.0005691
308.1	0.0224294	0.0007822
313.3	0.0363709	0.002105
318.1	0.0563835	0.001311
323.2	0.0885715	0.002438
328.3	0.1352752	0.004535
333.4	0.2082549	0.004577

System: 4,7-dichloroquinoline + tetrahydrofuran; phases: Liquid, Crystal
Fixed: Pressure, kPa = 101
Property: Mole fraction of 4,7-dichloroquinoline (Liquid); method: spectrphotometric method
Temperature, K	Mole fraction of 4,7-dichloroquinoline	uncertainty
299.4	0.0682626	0.002058
303.2	0.0700725	0.002859
309.1	0.0744976	0.00147
313.3	0.0809741	0.002782
318.1	0.0886752	0.002672
323.2	0.1004632	0.002815
328.3	0.1190639	0.002977
333.4	0.1400418	0.003835

System: acetonitrile + 4,7-dichloroquinoline; phases: Liquid, Crystal
Fixed: Pressure, kPa = 101
Property: Mole fraction of 4,7-dichloroquinoline (Liquid); method: spectrphotometric method
Temperature, K	Mole fraction of 4,7-dichloroquinoline	uncertainty
299.8	0.0060267	0.0001846
303.2	0.0081413	0.000404
308.1	0.012675	0.0003408
313.3	0.0208271	0.0005021
318.1	0.0306787	0.001187
323.2	0.0488633	0.001963
328.3	0.0788004	0.003641
333.4	0.129711	0.006037

System: acetone + 4,7-dichloroquinoline; phases: Liquid, Crystal
Fixed: Pressure, kPa = 101
Property: Mole fraction of 4,7-dichloroquinoline (Liquid); method: spectrphotometric method
Temperature, K	Mole fraction of 4,7-dichloroquinoline	uncertainty
299.2	0.0590829	0.001701
303.2	0.0614226	0.002884
309.1	0.0657624	0.001699
313.3	0.072505	0.001726
318.1	0.0818016	0.001551
323.2	0.095369	0.003438
328.3	0.1133982	0.004402
