Measured thermophysical data. Solubility of Alcohols and Aromatic Compounds in Imidazolium-Based Ionic Liquids
Source: J. Chem. Eng. Data, 2008, 10.1021/je800331n
Compound 1: 1-butyl-3-methylimidazolium hexafluorophosphate, C8H15F6N2P, InChI=1S/C8H15N2.F6P/c1-3-4-5-10-7-6-9(2)8-10;1-7(2,3,4,5)6/h6-8H,3-5H2,1-2H3;/q+1;-1, purity 98%
Compound 2: propan-1-ol, C3H8O, InChI=1S/C3H8O/c1-2-3-4/h4H,2-3H2,1H3
Compound 3: butan-1-ol, C4H10O, InChI=1S/C4H10O/c1-2-3-4-5/h5H,2-4H2,1H3
Compound 4: pentan-1-ol, C5H12O, InChI=1S/C5H12O/c1-2-3-4-5-6/h6H,2-5H2,1H3
Compound 5: 1-butyl-3-methylimidazolium tetrafluoroborate, C8H15BF4N2, InChI=1S/C8H15N2.BF4/c1-3-4-5-10-7-6-9(2)8-10;2-1(3,4)5/h6-8H,3-5H2,1-2H3;/q+1;-1, purity 98%

System: 1-butyl-3-methylimidazolium hexafluorophosphate; phases: Liquid, Air at 1 atmosphere
Property: Mass density, kg/m3 (Liquid); method: Vibrating tube method
Temperature, K	Mass density, kg/m3	uncertainty
298.15	1366.57	0.55
303.15	1362.23	0.54
308.15	1357.92	0.54
313.15	1353.63	0.53
323.15	1345.33	0.53

System: 1-butyl-3-methylimidazolium tetrafluoroborate; phases: Liquid, Air at 1 atmosphere
Property: Mass density, kg/m3 (Liquid); method: Vibrating tube method
Temperature, K	Mass density, kg/m3	uncertainty
298.15	1192.03	0.39
303.15	1188.38	0.39
313.15	1181.25	0.38
323.15	1174.18	0.37
333.15	1167.09	0.37
343.15	1160.17	0.36
353.15	1152.63	0.36

System: propan-1-ol + 1-butyl-3-methylimidazolium hexafluorophosphate; phases: Liquid mixture 1, Liquid mixture 2
Fixed: Pressure, kPa = 100
Property: Liquid-liquid equilibrium temperature, K (Liquid mixture 1); method: VISOBS:UFactor:8
Mole fraction of 1-butyl-3-methylimidazolium hexafluorophosphate	Liquid-liquid equilibrium temperature, K	uncertainty
0.0013	305.92	7.08
0.0026	310.94	10.2
0.0039	319.87	9.25
0.0051	324.86	9.92
0.0064	329.26	6.42
0.009	335.96	2.46
0.0146	338.82	2.02
0.0209	345.38	1.74
0.0343	351.4	1.33
0.0674	357.3	1.25
0.1487	359.27	1.24
0.2019	357.83	1.24
0.262	354.44	1.25
0.3113	350.24	1.25
0.3653	345.29	1.26
0.419	338.04	1.26
0.4762	331.68	1.27
0.5342	323.36	1.27
0.5878	315.35	1.28
0.6326	308.17	1.3
0.684	297.32	1.31

System: butan-1-ol + 1-butyl-3-methylimidazolium hexafluorophosphate; phases: Liquid mixture 1, Liquid mixture 2
Fixed: Pressure, kPa = 100
Property: Liquid-liquid equilibrium temperature, K (Liquid mixture 1); method: VISOBS:UFactor:8
Mole fraction of 1-butyl-3-methylimidazolium hexafluorophosphate	Liquid-liquid equilibrium temperature, K	uncertainty
0.0105	353.22	6.68
0.0121	358.47	4.9
0.0153	364.88	4.19
0.3866	364.54	1.26
0.4058	362.2	1.26
0.427	360.03	1.26
0.4505	357.76	1.27
0.4666	354.73	1.27
0.4826	353.03	1.26
0.4999	350.88	1.27
0.5184	348.43	1.28
0.5397	344.83	1.27
0.5778	340.29	1.27
0.5989	337.26	1.27
0.617	334.58	1.27
0.6463	330.74	1.29
0.6729	325.04	1.31
0.7017	318.9	1.31
0.7332	311.87	1.34
0.7576	304.3	1.41
0.7777	296.98	1.44

System: pentan-1-ol + 1-butyl-3-methylimidazolium hexafluorophosphate; phases: Liquid mixture 1, Liquid mixture 2
Fixed: Pressure, kPa = 100
Property: Liquid-liquid equilibrium temperature, K (Liquid mixture 1); method: VISOBS:UFactor:8
Mole fraction of 1-butyl-3-methylimidazolium hexafluorophosphate	Liquid-liquid equilibrium temperature, K	uncertainty
0.002	337.87	13.78
0.003	347.16	13.42
0.0041	354.53	14.11
0.0051	359.14	13.78
0.6191	363.44	1.28
0.6606	356.97	1.29
0.6975	349.26	1.3
0.7433	340.71	1.3
0.7972	329.1	1.33
0.8429	317.17	1.38
0.8895	301.36	1.41

System: propan-1-ol + 1-butyl-3-methylimidazolium tetrafluoroborate; phases: Liquid mixture 1, Liquid mixture 2
Fixed: Pressure, kPa = 100
Property: Liquid-liquid equilibrium temperature, K (Liquid mixture 1); method: VISOBS:UFactor:4
Mole fraction of 1-butyl-3-methylimidazolium tetrafluoroborate	Liquid-liquid equilibrium temperature, K	uncertainty
0.0095	299.16	1.86
0.0181	306.72	1.75
0.0213	308.61	0.95
0.0276	310.28	0.75
0.0348	311.44	0.65
0.0476	312.16	0.62
0.0583	312.33	0.62
0.1311	311	0.62
0.1445	310.62	0.62
0.1615	309.89	0.62
0.178	309.38	0.62
0.1996	308.57	0.63
0.2396	306.63	0.63
0.2722	304.77	0.63
0.3017	302.85	0.64
0.3403	299.83	0.64
0.3607	297.86	0.65
0.3855	295.73	0.65
0.4019	293.92	0.66

System: butan-1-ol + 1-butyl-3-methylimidazolium tetrafluoroborate; phases: Liquid mixture 1, Liquid mixture 2
Fixed: Pressure, kPa = 100
Property: Liquid-liquid equilibrium temperature, K (Liquid mixture 1); method: VISOBS:UFactor:4
Mole fraction of 1-butyl-3-methylimidazolium tetrafluoroborate	Liquid-liquid equilibrium temperature, K	uncertainty
0.0043	301.57	4.25
0.0058	303.19	3.95
0.0069	307.04	3.88
0.0085	309.53	2.79
0.0106	312.1	2.68
0.0126	314.87	1.92
0.0168	317.95	1.62
0.0199	320.34	1.28
0.026	323.22	0.96
0.0345	325.75	0.74
0.0526	328.74	0.7
0.1339	329.92	0.62
0.2217	327.84	0.62
0.2965	325.63	0.62
0.3494	323.25	0.63
0.3877	321	0.63
0.4277	318.77	0.63
0.4574	316.85	0.63
0.4866	314.83	0.64
0.5142	312.74	0.64
0.5451	310.57	0.65
0.5686	307.76	0.66
0.5918	305.3	0.66
0.617	302.59	0.67
0.6444	298.54	0.69

System: pentan-1-ol + 1-butyl-3-methylimidazolium tetrafluoroborate; phases: Liquid mixture 1, Liquid mixture 2
Fixed: Pressure, kPa = 100
Property: Liquid-liquid equilibrium temperature, K (Liquid mixture 1); method: VISOBS:UFactor:4
Mole fraction of 1-butyl-3-methylimidazolium tetrafluoroborate	Liquid-liquid equilibrium temperature, K	uncertainty
0.0026	310.74	9.47
0.0056	324.92	8.51
0.0073	330.38	3.47
0.0109	334.52	1.78
0.0195	340.85	0.99
0.0363	344.86	0.67
0.0603	346.03	0.62
0.0971	345.76	0.62
0.1515	345.76	0.62
0.2074	344.6	0.62
0.2632	343.6	0.62
0.324	341.65	0.63
0.3896	338.43	0.63
0.4436	334.8	0.64
0.4918	331.03	0.64
0.5403	327.02	0.65
0.5646	323.92	0.67
0.6011	319.36	0.68
0.7037	303.92	0.69
