Measured thermophysical data. solubility of L-(+)-ascorbic acid in water, ethanol, methanol, propan-2-ol, acetone, acetonitrile, ethyl acetate, and tetrahydrofuran from (293 to 323) K
Source: J. Chem. Eng. Data, 2008, 10.1021/je800056h
Compound 1: L-ascorbic acid, C6H8O6, InChI=1S/C6H8O6/c7-1-2(8)5-3(9)4(10)6(11)12-5/h2,5,7-10H,1H2/t2-,5+/m0/s1, purity 99.7%
Compound 2: water, H2O, InChI=1S/H2O/h1H2
Compound 3: methanol, CH4O, InChI=1S/CH4O/c1-2/h2H,1H3, purity 98%
Compound 4: ethanol, C2H6O, InChI=1S/C2H6O/c1-2-3/h3H,2H2,1H3, purity 99%
Compound 5: propan-2-ol, C3H8O, InChI=1S/C3H8O/c1-3(2)4/h3-4H,1-2H3, purity 98%
Compound 6: acetone, C3H6O, InChI=1S/C3H6O/c1-3(2)4/h1-2H3, purity 98%
Compound 7: acetonitrile, C2H3N, InChI=1S/C2H3N/c1-2-3/h1H3, purity 98%
Compound 8: ethyl acetate, C4H8O2, InChI=1S/C4H8O2/c1-3-6-4(2)5/h3H2,1-2H3, purity 98%
Compound 9: tetrahydrofuran, C4H8O, InChI=1S/C4H8O/c1-2-4-5-3-1/h1-4H2, purity 98%

System: L-ascorbic acid + water; phases: Liquid, Crystal
Fixed: Pressure, kPa = 101
Property: Mole fraction of L-ascorbic acid (Liquid); method: gravimetric
Temperature, K	Mole fraction of L-ascorbic acid	uncertainty
293	0.02896	0.00024
298	0.03307	0.00025
303	0.03779	0.00026
308	0.04378	0.00028
313	0.05037	0.0003
318	0.05794	0.00032
323	0.06633	0.00034

System: L-ascorbic acid + methanol; phases: Liquid, Crystal
Fixed: Pressure, kPa = 101
Property: Mole fraction of L-ascorbic acid (Liquid); method: gravimetric
Temperature, K	Mole fraction of L-ascorbic acid	uncertainty
293	0.01006	0.0002
298	0.01083	0.0002
303	0.01214	0.0002
308	0.01326	0.00021
313	0.01512	0.00021
318	0.01676	0.00021
323	0.01832	0.00021

System: L-ascorbic acid + ethanol; phases: Liquid, Crystal
Fixed: Pressure, kPa = 101
Property: Mole fraction of L-ascorbic acid (Liquid); method: gravimetric
Temperature, K	Mole fraction of L-ascorbic acid	uncertainty
293	0.00229	6e-05
298	0.00274	0.0001
303	0.00321	8e-05
308	0.00385	5e-05
313	0.00463	8e-05
318	0.00535	8e-05
323	0.00593	6e-05

System: L-ascorbic acid + propan-2-ol; phases: Liquid, Crystal
Fixed: Pressure, kPa = 101
Property: Mole fraction of L-ascorbic acid (Liquid); method: gravimetric
Temperature, K	Mole fraction of L-ascorbic acid	uncertainty
293	0.00051	2e-05
298	0.00063	4e-05
303	0.00078	2e-05
308	0.001	4e-05
313	0.00124	2e-05
318	0.00165	4e-05
323	0.00205	4e-05

System: L-ascorbic acid + acetone; phases: Liquid, Crystal
Fixed: Pressure, kPa = 101
Property: Mole fraction of L-ascorbic acid (Liquid); method: gravimetric
Temperature, K	Mole fraction of L-ascorbic acid	uncertainty
293	0.00026	2e-05
298	0.00032	2e-05
303	0.00037	2e-05
308	0.00043	2e-05
313	0.00051	2e-05
318	0.00058	4e-05
323	0.00064	2e-05

System: L-ascorbic acid + acetonitrile; phases: Liquid, Crystal
Fixed: Pressure, kPa = 101
Property: Mole fraction of L-ascorbic acid (Liquid); method: gravimetric
Temperature, K	Mole fraction of L-ascorbic acid	uncertainty
293	0.0002	2e-05
298	0.00024	2e-05
303	0.00028	2e-05
308	0.00034	2e-05
313	0.0004	2e-05
318	0.00045	2e-05
323	0.0006	2e-05

System: L-ascorbic acid + ethyl acetate; phases: Liquid, Crystal
Fixed: Pressure, kPa = 101
Property: Mole fraction of L-ascorbic acid (Liquid); method: gravimetric
Temperature, K	Mole fraction of L-ascorbic acid	uncertainty
293	0.0001	2e-05
298	0.00013	2e-05
303	0.00017	2e-05
308	0.00023	2e-05
313	0.0003	4e-05
318	0.00038	4e-05
323	0.00048	6e-05

System: L-ascorbic acid + tetrahydrofuran; phases: Liquid, Crystal
Fixed: Pressure, kPa = 101
Property: Mole fraction of L-ascorbic acid (Liquid); method: gravimetric
Temperature, K	Mole fraction of L-ascorbic acid	uncertainty
293	0.00053	2e-05
298	0.00067	4e-05
303	0.00087	4e-05
308	0.00105	0.00012
313	0.00128	0.00014
318	0.00153	8e-05
323	0.00174	8e-05
