Measured thermophysical data. Interfacial Tension of Two Ionic Liquids, 1-Ethyl-3-methylimidazolium 2-(2-Ethoxyethoxy)ethylsulfate and 1-Butyl-3-methylimidazolium 2-(2-Methoxyethoxy)ethylsulfate, with Compressed CO2
Source: J. Chem. Eng. Data, 2009, 10.1021/je8006937
Compound 1: 1-ethyl-3-methylimidazolium 2-(2-ethoxyethoxy)ethylsulfate, C12H24N2O6S, InChI=1S/C6H11N2.C6H14O6S/c1-3-8-5-4-7(2)6-8;1-2-10-3-4-11-5-6-12-13(7,8)9/h4-6H,3H2,1-2H3;2-6H2,1H3,(H,7,8,9)/q+1;/p-1
Compound 2: 1-butyl-3-methylimidazolium 2-(2-ethoxyethoxy)ethylsulfate, C14H28N2O6S, InChI=1S/C8H15N2.C6H14O6S/c1-3-4-5-10-7-6-9(2)8-10;1-2-10-3-4-11-5-6-12-13(7,8)9/h6-8H,3-5H2,1-2H3;2-6H2,1H3,(H,7,8,9)/q+1;/p-1
Compound 3: carbon dioxide, CO2, InChI=1S/CO2/c2-1-3

System: carbon dioxide + 1-ethyl-3-methylimidazolium 2-(2-ethoxyethoxy)ethylsulfate; phases: Liquid, Fluid (supercritical or subcritical phases)
Property: Interfacial tension, N/m (Liquid); method: Pendant drop shape
Pressure, kPa	Temperature, K	Interfacial tension, N/m	uncertainty
100	280.25	0.0367	0.0002
100	280.25	0.0373	0.0002
1170	280.26	0.0303	0.0002
2340	280.26	0.0226	0.0001
3340	280.26	0.0155	0.0006
3950	280.28	0.0098	0.0007
4240	280.4	0.0063	0.0004
5230	280.46	0.0066	0.0005
7030	280.46	0.006	0.0001
8960	280.49	0.0058	0.0001
10860	280.51	0.0054	0.0001
12970	280.53	0.0054	0.0001
15110	280.54	0.0051	0.0001
17290	280.55	0.0051	0.0001
20670	280.58	0.0047	0.0001
100	299.4	0.0362	0.0002
4810	299.43	0.0149	0.0003
6680	299.47	0.0086	0.0002
8330	299.55	0.0079	0.0001
10230	299.53	0.0076	0.0001
12350	299.54	0.0068	0.0001
14740	299.43	0.0066	0.0001
16390	299.45	0.0064	0.0001
17880	299.46	0.0062	0.0001
20360	299.48	0.006	0.0001
100	319.75	0.0355	0.0002
100	319.75	0.0354	0.0002
1010	319.75	0.0315	0.0002
2000	319.74	0.0285	0.0002
3090	319.74	0.0251	0.0003
4040	319.74	0.0222	0.0003
5010	319.75	0.0194	0.0003
5950	319.76	0.0165	0.0003
7260	319.78	0.0131	0.0003
8950	319.76	0.0076	0.0002
10740	319.87	0.0098	0.0001
12430	319.87	0.0089	0.0001
14470	319.95	0.0084	0.0001
17410	319.98	0.0078	0.0001
20790	320.03	0.0077	0.0001

System: carbon dioxide + 1-butyl-3-methylimidazolium 2-(2-ethoxyethoxy)ethylsulfate; phases: Liquid, Fluid (supercritical or subcritical phases)
Property: Interfacial tension, N/m (Liquid); method: Pendant drop shape
Pressure, kPa	Temperature, K	Interfacial tension, N/m	uncertainty
100	281.31	0.0345	0.0002
1110	281.32	0.0282	0.0002
1960	281.3	0.023	0.0001
3150	281.31	0.0151	0.0001
3680	281.3	0.0108	0.0001
4300	281.48	0.0046	0.0001
5100	281.58	0.0045	0.0001
6970	281.58	0.0045	0.0001
9890	281.61	0.004	0.0001
13700	281.61	0.0038	0.0001
17000	281.63	0.0037	0.0001
19930	281.63	0.0035	0.0001
100	281.69	0.0343	0.0002
600	281.7	0.0306	0.0002
1490	281.69	0.0254	0.0001
2830	281.7	0.0173	0.0001
4160	281.7	0.0065	0.0001
4340	281.84	0.0049	0.0001
5900	281.87	0.0047	0.0001
12130	281.86	0.0044	0.0001
18060	281.91	0.0037	0.0001
100	295.14	0.034	0.0002
100	295.2	0.0342	0.0002
1030	295.3	0.0293	0.0002
1980	295.39	0.025	0.0001
3350	295.5	0.0188	0.0001
3950	295.8	0.0163	0.0001
4960	296.03	0.0124	0.0001
6150	296.29	0.0128	0.0001
6630	296.31	0.0058	0.0001
8190	296.35	0.0056	0.0001
10120	296.42	0.0052	0.0001
14370	296.5	0.0048	0.0001
17640	296.53	0.0045	0.0001
100	319.53	0.0333	0.0002
1030	319.58	0.0304	0.0002
2130	319.57	0.0277	0.0001
3610	319.58	0.0236	0.0001
5010	319.59	0.0195	0.0001
6190	319.6	0.0164	0.0001
7090	319.63	0.014	0.0001
8100	319.69	0.0123	0.0001
9070	319.71	0.0077	0.0001
10070	319.78	0.0079	0.0001
11080	319.78	0.008	0.0001
11720	319.79	0.0079	0.0001
14840	319.85	0.0076	0.0001
17840	319.91	0.0071	0.0001
20870	319.94	0.0067	0.0001
