Measured thermophysical data. Surface Tension of Dilute Solutions of Alkanes in Cyclohexanol at Different Temperatures
Source: J. Chem. Eng. Data, 2008, 10.1021/je8004112
Compound 1: hexane, C6H14, InChI=1S/C6H14/c1-3-5-6-4-2/h3-6H2,1-2H3
Compound 2: heptane, C7H16, InChI=1S/C7H16/c1-3-5-7-6-4-2/h3-7H2,1-2H3
Compound 3: nonane, C9H20, InChI=1S/C9H20/c1-3-5-7-9-8-6-4-2/h3-9H2,1-2H3
Compound 4: dodecane, C12H26, InChI=1S/C12H26/c1-3-5-7-9-11-12-10-8-6-4-2/h3-12H2,1-2H3
Compound 5: cyclohexane, C6H12, InChI=1S/C6H12/c1-2-4-6-5-3-1/h1-6H2
Compound 6: cyclohexanol, C6H12O, InChI=1S/C6H12O/c7-6-4-2-1-3-5-6/h6-7H,1-5H2

System: hexane; phases: Liquid, Gas
Property: Surface tension liquid-gas, N/m (Liquid); method: Ring tensiometer
Temperature, K	Surface tension liquid-gas, N/m	uncertainty
293.15	0.01856	0.00031
298.15	0.01803	0.0003
303.15	0.01744	0.0003
308.15	0.01692	0.00029
313.15	0.01638	0.00028

System: heptane; phases: Liquid, Gas
Property: Surface tension liquid-gas, N/m (Liquid); method: Ring tensiometer
Temperature, K	Surface tension liquid-gas, N/m	uncertainty
293.15	0.02005	0.00033
298.15	0.01954	0.00032
303.15	0.0191	0.00032
308.15	0.01858	0.00031
313.15	0.01808	0.0003
318.15	0.0176	0.0003
323.15	0.01706	0.00029

System: nonane; phases: Liquid, Gas
Property: Surface tension liquid-gas, N/m (Liquid); method: Ring tensiometer
Temperature, K	Surface tension liquid-gas, N/m	uncertainty
293.15	0.02304	0.00037
298.15	0.02249	0.00036
303.15	0.02204	0.00035
308.15	0.02149	0.00035
313.15	0.02094	0.00034
318.15	0.02047	0.00033
323.15	0.01998	0.00033

System: dodecane; phases: Liquid, Gas
Property: Surface tension liquid-gas, N/m (Liquid); method: Ring tensiometer
Temperature, K	Surface tension liquid-gas, N/m	uncertainty
293.15	0.02428	0.00038
298.15	0.02384	0.00038
303.15	0.02338	0.00037
308.15	0.02298	0.00036
313.15	0.02256	0.00036
318.15	0.02214	0.00035
323.15	0.02171	0.00035

System: cyclohexane; phases: Liquid, Gas
Property: Surface tension liquid-gas, N/m (Liquid); method: Ring tensiometer
Temperature, K	Surface tension liquid-gas, N/m	uncertainty
293.15	0.02506	0.00039
298.15	0.02445	0.00038
303.15	0.02387	0.00038
308.15	0.02321	0.00037
313.15	0.02271	0.00036
318.15	0.02205	0.00036
323.15	0.02145	0.00035

System: cyclohexanol; phases: Liquid, Gas
Property: Surface tension liquid-gas, N/m (Liquid); method: Ring tensiometer
Temperature, K	Surface tension liquid-gas, N/m	uncertainty
293.15	0.03315	0.00049
298.15	0.03274	0.00049
303.15	0.03235	0.00048
308.15	0.03191	0.00048
313.15	0.03158	0.00047
318.15	0.03113	0.00047
323.15	0.03078	0.00046

System: cyclohexanol + hexane; phases: Liquid, Gas
Property: Surface tension liquid-gas, N/m (Liquid); method: Ring tensiometer
Temperature, K	Mole fraction of hexane	Surface tension liquid-gas, N/m	uncertainty
293.15	0	0.03315	0.00049
293.15	0.007	0.03187	0.00055
293.15	0.009	0.03164	0.00056
293.15	0.012	0.0315	0.00048
293.15	0.021	0.03111	0.00048
293.15	0.03	0.0305	0.00047
293.15	0.042	0.03	0.00046
293.15	0.075	0.02885	0.00044
293.15	1	0.01856	0.00031
298.15	0	0.03274	0.00049
298.15	0.007	0.0315	0.00055
298.15	0.009	0.03131	0.00055
298.15	0.012	0.03108	0.00048
298.15	0.021	0.03071	0.00048
298.15	0.03	0.03007	0.00047
298.15	0.042	0.02959	0.00045
298.15	0.075	0.02842	0.00044
298.15	1	0.01803	0.0003
303.15	0	0.03235	0.00048
303.15	0.007	0.03113	0.00055
303.15	0.009	0.03096	0.00055
303.15	0.012	0.0307	0.00047
303.15	0.021	0.03033	0.00047
303.15	0.03	0.02967	0.00046
303.15	0.042	0.02915	0.00045
303.15	0.075	0.02796	0.00043
303.15	1	0.01744	0.0003
308.15	0	0.03191	0.00048
308.15	0.007	0.03077	0.00054
308.15	0.009	0.03064	0.00054
308.15	0.012	0.03026	0.00047
308.15	0.021	0.02996	0.00047
308.15	0.03	0.02926	0.00046
308.15	0.042	0.02874	0.00044
308.15	0.075	0.0275	0.00043
308.15	1	0.01692	0.00029
313.15	0	0.03158	0.00047
313.15	0.007	0.03042	0.00054
313.15	0.009	0.03031	0.00054
313.15	0.012	0.02988	0.00046
313.15	0.021	0.02955	0.00046
313.15	0.03	0.02885	0.00045
313.15	0.042	0.02833	0.00044
313.15	0.075	0.02706	0.00042
313.15	1	0.01638	0.00028

System: cyclohexanol + heptane; phases: Liquid, Gas
Property: Surface tension liquid-gas, N/m (Liquid); method: Ring tensiometer
Temperature, K	Mole fraction of heptane	Surface tension liquid-gas, N/m	uncertainty
293.15	0	0.03315	0.00049
293.15	0.011	0.03284	0.00049
293.15	0.014	0.03269	0.00049
293.15	0.02	0.03256	0.00051
293.15	0.025	0.0318	0.0005
293.15	0.033	0.03153	0.00048
293.15	0.037	0.03138	0.00048
293.15	0.061	0.02987	0.00047
293.15	1	0.02005	0.00033
298.15	0	0.03274	0.00049
298.15	0.011	0.03247	0.00049
298.15	0.014	0.03229	0.00048
298.15	0.02	0.0322	0.0005
298.15	0.025	0.03148	0.00049
298.15	0.033	0.03117	0.00047
298.15	0.037	0.03101	0.00047
298.15	0.061	0.02954	0.00046
298.15	1	0.01954	0.00032
303.15	0	0.03235	0.00048
303.15	0.011	0.03211	0.00048
303.15	0.014	0.03192	0.00048
303.15	0.02	0.0318	0.0005
303.15	0.025	0.03108	0.00049
303.15	0.033	0.03082	0.00047
303.15	0.037	0.03056	0.00048
303.15	0.061	0.0292	0.00046
303.15	1	0.0191	0.00032
308.15	0	0.03191	0.00048
308.15	0.011	0.03178	0.00048
308.15	0.014	0.03155	0.00048
308.15	0.02	0.03139	0.00049
308.15	0.025	0.03074	0.00048
308.15	0.033	0.03044	0.00047
308.15	0.037	0.03014	0.00048
308.15	0.061	0.02883	0.00045
308.15	1	0.01858	0.00031
313.15	0	0.03158	0.00047
313.15	0.011	0.03143	0.00047
313.15	0.014	0.03123	0.00048
313.15	0.02	0.03101	0.00049
313.15	0.025	0.03041	0.00048
313.15	0.033	0.0301	0.00046
313.15	0.037	0.02977	0.00048
313.15	0.061	0.02854	0.00045
313.15	1	0.01808	0.0003
318.15	0	0.03113	0.00047
318.15	0.011	0.03107	0.00047
318.15	0.014	0.03085	0.00048
318.15	0.02	0.03057	0.00048
318.15	0.025	0.03007	0.00047
318.15	0.033	0.02976	0.00046
318.15	0.037	0.02939	0.00048
318.15	0.061	0.02823	0.00044
318.15	1	0.0176	0.0003
323.15	0	0.03078	0.00046
323.15	0.011	0.0307	0.00046
323.15	0.014	0.03045	0.00047
323.15	0.02	0.03016	0.00048
323.15	0.025	0.0297	0.00046
323.15	0.033	0.02943	0.00046
323.15	0.037	0.02899	0.00049
323.15	0.061	0.02787	0.00044
323.15	1	0.01706	0.00029

System: cyclohexanol + nonane; phases: Liquid, Gas
Property: Surface tension liquid-gas, N/m (Liquid); method: Ring tensiometer
Temperature, K	Mole fraction of nonane	Surface tension liquid-gas, N/m	uncertainty
293.15	0	0.03315	0.00049
293.15	0.003	0.03291	0.00051
293.15	0.006	0.0327	0.00051
293.15	0.008	0.03265	0.00051
293.15	0.012	0.03224	0.0005
293.15	0.022	0.03179	0.00049
293.15	0.041	0.03067	0.00047
293.15	0.06	0.02988	0.00046
293.15	1	0.02304	0.00037
298.15	0	0.03274	0.00049
298.15	0.003	0.03251	0.00051
298.15	0.006	0.0323	0.0005
298.15	0.008	0.03222	0.0005
298.15	0.012	0.03185	0.00049
298.15	0.022	0.03144	0.00048
298.15	0.041	0.0303	0.00047
298.15	0.06	0.02948	0.00045
298.15	1	0.02249	0.00036
303.15	0	0.03235	0.00048
303.15	0.003	0.03211	0.00051
303.15	0.006	0.03184	0.00049
303.15	0.008	0.03178	0.00049
303.15	0.012	0.03149	0.00048
303.15	0.022	0.03109	0.00048
303.15	0.041	0.02991	0.00046
303.15	0.06	0.02911	0.00045
303.15	1	0.02204	0.00035
308.15	0	0.03191	0.00048
308.15	0.003	0.03172	0.0005
308.15	0.006	0.03144	0.00049
308.15	0.008	0.03135	0.00049
308.15	0.012	0.03109	0.00047
308.15	0.022	0.03072	0.00048
308.15	0.041	0.02952	0.00046
308.15	0.06	0.02872	0.00044
308.15	1	0.02149	0.00035
313.15	0	0.03158	0.00047
313.15	0.003	0.03136	0.0005
313.15	0.006	0.03108	0.00048
313.15	0.008	0.03094	0.00048
313.15	0.012	0.03075	0.00047
313.15	0.022	0.03038	0.00047
313.15	0.041	0.02917	0.00045
313.15	0.06	0.02837	0.00044
313.15	1	0.02094	0.00034
318.15	0	0.03113	0.00047
318.15	0.003	0.03099	0.00049
318.15	0.006	0.03069	0.00048
318.15	0.008	0.03052	0.00048
318.15	0.012	0.03041	0.00046
318.15	0.022	0.02999	0.00047
318.15	0.041	0.0288	0.00045
318.15	0.06	0.02798	0.00044
318.15	1	0.02047	0.00033
323.15	0	0.03078	0.00046
323.15	0.003	0.03054	0.00049
323.15	0.006	0.0303	0.00047
323.15	0.008	0.03007	0.00047
323.15	0.012	0.03002	0.00046
323.15	0.022	0.02962	0.00046
323.15	0.041	0.02841	0.00045
323.15	0.06	0.02756	0.00043
323.15	1	0.01998	0.00033

System: cyclohexanol + dodecane; phases: Liquid, Gas
Property: Surface tension liquid-gas, N/m (Liquid); method: Ring tensiometer
Temperature, K	Mole fraction of dodecane	Surface tension liquid-gas, N/m	uncertainty
293.15	0	0.03315	0.00049
293.15	0.006	0.0317	0.00066
293.15	0.009	0.03111	0.00061
293.15	0.011	0.03068	0.00049
293.15	0.022	0.03022	0.00046
293.15	0.031	0.02981	0.00046
293.15	0.046	0.02914	0.00046
293.15	0.075	0.02716	0.00044
293.15	1	0.02428	0.00038
298.15	0	0.03274	0.00049
298.15	0.006	0.03123	0.00066
298.15	0.009	0.03071	0.00058
298.15	0.011	0.03032	0.00048
298.15	0.022	0.02985	0.00046
298.15	0.031	0.02937	0.00045
298.15	0.046	0.02874	0.00045
298.15	0.075	0.0268	0.00043
298.15	1	0.02384	0.00038
303.15	0	0.03235	0.00048
303.15	0.006	0.03078	0.00066
303.15	0.009	0.03028	0.00056
303.15	0.011	0.02999	0.00047
303.15	0.022	0.02946	0.00046
303.15	0.031	0.02887	0.00045
303.15	0.046	0.02835	0.00045
303.15	0.075	0.02647	0.00043
303.15	1	0.02338	0.00037
308.15	0	0.03191	0.00048
308.15	0.006	0.03035	0.00065
308.15	0.009	0.02988	0.00055
308.15	0.011	0.02961	0.00047
308.15	0.022	0.02908	0.00046
308.15	0.031	0.02844	0.00044
308.15	0.046	0.02798	0.00044
308.15	0.075	0.0261	0.00042
308.15	1	0.02298	0.00036
313.15	0	0.03158	0.00047
313.15	0.006	0.02992	0.00066
313.15	0.009	0.02949	0.00053
313.15	0.011	0.02925	0.00046
313.15	0.022	0.02872	0.00045
313.15	0.031	0.02801	0.00044
313.15	0.046	0.02758	0.00044
313.15	0.075	0.02576	0.00042
313.15	1	0.02256	0.00036
318.15	0	0.03113	0.00047
318.15	0.006	0.02949	0.00066
318.15	0.009	0.02907	0.00052
318.15	0.011	0.02888	0.00046
318.15	0.022	0.02835	0.00045
318.15	0.031	0.02757	0.00043
318.15	0.046	0.02721	0.00043
318.15	0.075	0.02544	0.00041
318.15	1	0.02214	0.00035
323.15	0	0.03078	0.00046
323.15	0.006	0.029	0.00065
323.15	0.009	0.02869	0.00048
323.15	0.011	0.0285	0.0005
323.15	0.022	0.02799	0.00045
323.15	0.031	0.02713	0.00043
323.15	0.046	0.02683	0.00043
323.15	0.075	0.02509	0.00041
323.15	1	0.02171	0.00035

System: cyclohexanol + cyclohexane; phases: Liquid, Gas
Property: Surface tension liquid-gas, N/m (Liquid); method: Ring tensiometer
Temperature, K	Mole fraction of cyclohexane	Surface tension liquid-gas, N/m	uncertainty
293.15	0	0.03315	0.00049
293.15	0.005	0.03144	0.00069
293.15	0.009	0.03093	0.0005
293.15	0.013	0.03073	0.00047
293.15	0.023	0.03042	0.00046
293.15	0.031	0.03026	0.00046
293.15	0.044	0.03012	0.00046
293.15	0.07	0.02962	0.00045
293.15	1	0.02506	0.00039
298.15	0	0.03274	0.00049
298.15	0.005	0.031	0.00069
298.15	0.009	0.03054	0.00049
298.15	0.013	0.03032	0.00046
298.15	0.023	0.02999	0.00046
298.15	0.031	0.0298	0.00045
298.15	0.044	0.02962	0.00045
298.15	0.07	0.02915	0.00044
298.15	1	0.02445	0.00038
303.15	0	0.03235	0.00048
303.15	0.005	0.03055	0.00068
303.15	0.009	0.03017	0.00048
303.15	0.013	0.02988	0.00046
303.15	0.023	0.02957	0.00045
303.15	0.031	0.02938	0.00045
303.15	0.044	0.02916	0.00044
303.15	0.07	0.02865	0.00044
303.15	1	0.02387	0.00038
308.15	0	0.03191	0.00048
308.15	0.005	0.03012	0.00067
308.15	0.009	0.02977	0.00048
308.15	0.013	0.02949	0.00045
308.15	0.023	0.02915	0.00045
308.15	0.031	0.02893	0.00044
308.15	0.044	0.02865	0.00044
308.15	0.07	0.02818	0.00043
308.15	1	0.02321	0.00037
313.15	0	0.03158	0.00047
313.15	0.005	0.02973	0.00068
313.15	0.009	0.0294	0.00048
313.15	0.013	0.02906	0.00045
313.15	0.023	0.02876	0.00044
313.15	0.031	0.02848	0.00044
313.15	0.044	0.02826	0.00043
313.15	0.07	0.02775	0.00043
313.15	1	0.02271	0.00036
318.15	0	0.03113	0.00047
318.15	0.005	0.02926	0.00066
318.15	0.009	0.029	0.00046
318.15	0.013	0.02867	0.00044
318.15	0.023	0.02834	0.00044
318.15	0.031	0.02807	0.00043
318.15	0.044	0.02778	0.00043
318.15	0.07	0.02727	0.00042
318.15	1	0.02205	0.00036
323.15	0	0.03078	0.00046
323.15	0.005	0.02888	0.00066
323.15	0.009	0.02863	0.00046
323.15	0.013	0.0283	0.00044
323.15	0.023	0.02791	0.00043
323.15	0.031	0.02766	0.00043
323.15	0.044	0.02735	0.00042
323.15	0.07	0.02682	0.00042
323.15	1	0.02145	0.00035
