Measured thermophysical data. Solubility of 4,4-Bis[[4-morpholino-6-(p-sulfonatoanilino)-1,3,5-triazin-2-yl]amino] stilbene-2,2 -disulphonate in Sodium Chloride + Water from (273.15 to 313.95) K
Source: J. Chem. Eng. Data, 2008, 10.1021/je8002145
Compound 1: 4,4'-bis((4-morpholino-6-(p-sulphonatoanilino)-1,3,5-triazin-2-yl)amino)stilbene-2,2'-disulphonate, C40H36N12O14S4, InChI=1S/C40H40N12O14S4/c53-67(54,55)31-11-7-27(8-12-31)41-35-45-37(49-39(47-35)51-15-19-65-20-16-51)43-29-5-3-25(33(23-29)69(59,60)61)1-2-26-4-6-30(24-34(26)70(62,63)64)44-38-46-36(48-40(50-38)52-17-21-66-22-18-52)42-28-9-13-32(14-10-28)68(56,57)58/h1-14,23-24H,15-22H2,(H,53,54,55)(H,56,57,58)(H,59,60,61)(H,62,63,64)(H2,41,43,45,47,49)(H2,42,44,46,48,50)/p-4/b2-1+
Compound 2: sodium chloride, ClNa, InChI=1S/ClH.Na/h1H;/q;+1/p-1
Compound 3: water, H2O, InChI=1S/H2O/h1H2

System: water + 4,4'-bis((4-morpholino-6-(p-sulphonatoanilino)-1,3,5-triazin-2-yl)amino)stilbene-2,2'-disulphonate; phases: Liquid, Crystal
Fixed: Pressure, kPa = 101
Property: Mole fraction of 4,4'-bis((4-morpholino-6-(p-sulphonatoanilino)-1,3,5-triazin-2-yl)amino)stilbene-2,2'-disulphonate (Liquid); method: laser monitoring observation technique
Temperature, K	Mole fraction of 4,4'-bis((4-morpholino-6-(p-sulphonatoanilino)-1,3,5-triazin-2-yl)amino)stilbene-2,2'-disulphonate	uncertainty
273.15	0.0002902	3.58e-05
278.45	0.0003993	4.92e-05
283.35	0.0005453	6.72e-05
288.75	0.0007574	9.33e-05
293.25	0.0009903	0.000122
298.75	0.0013702	0.0001688
303.15	0.0017905	0.0002204
307.55	0.0021903	0.0002696
310.75	0.0026406	0.0003256
313.95	0.0031905	0.0003932

System: sodium chloride + water + 4,4'-bis((4-morpholino-6-(p-sulphonatoanilino)-1,3,5-triazin-2-yl)amino)stilbene-2,2'-disulphonate; phases: Liquid, Crystal
Fixed: Pressure, kPa = 101
Property: Mole fraction of 4,4'-bis((4-morpholino-6-(p-sulphonatoanilino)-1,3,5-triazin-2-yl)amino)stilbene-2,2'-disulphonate (Liquid); method: laser monitoring observation technique
Temperature, K	Solvent: Mass fraction of sodium chloride	Mole fraction of 4,4'-bis((4-morpholino-6-(p-sulphonatoanilino)-1,3,5-triazin-2-yl)amino)stilbene-2,2'-disulphonate	uncertainty
273.15	0	0.0002902	3.58e-05
273.15	0.036	0.0001793	2.21e-05
273.15	0.054	0.0001223	1.52e-05
273.55	0.062	8.93e-05	1.1e-05
273.55	0.123	8.6e-06	1.1e-06
273.65	0.108	1.32e-05	1.6e-06
273.75	0.086	4.12e-05	5.1e-06
273.85	0.074	7.53e-05	9.3e-06
273.95	0.15	6.8e-06	8e-07
274.15	0.098	2.47e-05	3e-06
278.15	0.123	1.19e-05	1.5e-06
278.35	0.074	9.84e-05	1.21e-05
278.45	0	0.0003993	4.92e-05
278.45	0.036	0.0002312	2.84e-05
278.45	0.062	0.0001144	1.41e-05
278.45	0.098	3.14e-05	3.9e-06
278.55	0.086	5.42e-05	6.7e-06
278.55	0.108	1.73e-05	2.1e-06
278.65	0.054	0.0001814	2.23e-05
279.15	0.15	9.1e-06	1.1e-06
283.25	0.074	0.0001392	1.71e-05
283.35	0	0.0005453	6.72e-05
283.35	0.054	0.0002381	2.93e-05
283.35	0.108	2.35e-05	2.9e-06
283.45	0.086	7.23e-05	8.9e-06
283.65	0.123	1.82e-05	2.2e-06
283.75	0.036	0.0003123	3.85e-05
283.75	0.098	4.13e-05	5.1e-06
283.95	0.062	0.0001682	2.07e-05
284.25	0.15	1.2e-05	1.5e-06
288.15	0.098	5.26e-05	6.5e-06
288.25	0.108	3.16e-05	3.9e-06
288.35	0.036	0.0004224	5.2e-05
288.45	0.123	2.44e-05	3e-06
288.55	0.062	0.0002113	2.6e-05
288.75	0	0.0007574	9.33e-05
288.75	0.074	0.0001773	2.18e-05
288.75	0.086	9.71e-05	1.2e-05
288.95	0.054	0.0003362	4.14e-05
289.45	0.15	1.52e-05	1.9e-06
293.15	0.086	0.0001289	1.59e-05
293.25	0	0.0009903	0.000122
293.35	0.098	7.48e-05	9.2e-06
293.45	0.062	0.0002884	3.55e-05
293.45	0.108	4.12e-05	5.1e-06
293.45	0.123	3.31e-05	4.1e-06
293.65	0.036	0.0005681	6.99e-05
293.75	0.054	0.0004413	5.44e-05
293.95	0.074	0.0002424	2.98e-05
293.95	0.15	1.82e-05	2.2e-06
298.15	0.036	0.0007283	8.98e-05
298.15	0.123	4.52e-05	5.6e-06
298.15	0.15	2.19e-05	2.7e-06
298.25	0.054	0.0005843	7.2e-05
298.25	0.074	0.0003054	3.76e-05
298.35	0.062	0.0003843	4.73e-05
298.75	0	0.0013702	0.0001688
298.75	0.098	0.0001038	1.28e-05
298.95	0.086	0.0001778	2.19e-05
298.95	0.108	5.86e-05	7.2e-06
303.15	0	0.0017905	0.0002204
303.15	0.086	0.0002143	2.64e-05
303.15	0.098	0.0001254	1.54e-05
303.15	0.123	5.76e-05	7.1e-06
303.35	0.062	0.0005132	6.32e-05
303.45	0.054	0.0007984	9.85e-05
303.45	0.15	2.87e-05	3.5e-06
303.55	0.074	0.0004193	5.16e-05
303.55	0.108	7.26e-05	8.9e-06
303.95	0.036	0.0010504	0.0001293
307.35	0.15	3.38e-05	4.2e-06
307.55	0	0.0021903	0.0002696
308.15	0.036	0.0012902	0.0001589
308.15	0.054	0.0011405	0.0001404
308.15	0.108	9.67e-05	1.19e-05
308.45	0.074	0.0005445	6.69e-05
308.55	0.123	7.79e-05	9.6e-06
308.85	0.062	0.0007161	8.82e-05
308.85	0.086	0.0003047	3.75e-05
308.95	0.098	0.0001732	2.13e-05
310.45	0.15	3.81e-05	4.7e-06
310.75	0	0.0026406	0.0003256
310.75	0.062	0.0008114	0.0001001
310.75	0.074	0.0006163	7.59e-05
310.85	0.098	0.0001987	2.45e-05
311.15	0.086	0.0003383	4.16e-05
311.35	0.123	9.34e-05	1.15e-05
311.45	0.036	0.0016201	0.0001997
311.75	0.054	0.0013805	0.0001697
311.95	0.108	0.0001184	1.46e-05
313.15	0.054	0.0014602	0.0001796
313.35	0.036	0.0017605	0.0002185
313.45	0.086	0.0004012	5.02e-05
313.45	0.098	0.0002243	2.77e-05
313.65	0.123	0.000109	1.34e-05
313.75	0.108	0.0001274	1.62e-05
313.85	0.062	0.0009914	0.0001221
313.85	0.074	0.0007381	9.07e-05
313.95	0	0.0031905	0.0003932
313.95	0.15	4.19e-05	5.1e-06
