Measured thermophysical data. Solubility of 2-Aminopyridine in Acetone, Chloroform, and Ethyl Acetate
Source: J. Chem. Eng. Data, 2009, 10.1021/je800768x
Compound 1: 2-pyridinamine, C5H6N2, InChI=1S/C5H6N2/c6-5-3-1-2-4-7-5/h1-4H,(H2,6,7)
Compound 2: acetone, C3H6O, InChI=1S/C3H6O/c1-3(2)4/h1-2H3
Compound 3: trichloromethane, CHCl3, InChI=1S/CHCl3/c2-1(3)4/h1H
Compound 4: ethyl acetate, C4H8O2, InChI=1S/C4H8O2/c1-3-6-4(2)5/h3H2,1-2H3

System: 2-pyridinamine; phases: Crystal, Liquid, Air at 1 atmosphere
Property: Normal melting temperature, K (Crystal); method: DTA
Normal melting temperature, K	uncertainty
330.95	0.5

System: acetone + 2-pyridinamine; phases: Liquid, Crystal
Fixed: Pressure, kPa = 101
Property: Mole fraction of 2-pyridinamine (Liquid); method: Beer-lambert law of absrobance
Temperature, K	Mole fraction of 2-pyridinamine	uncertainty
288.15	0.4205	0.0121
290.15	0.4387	0.0126
292.15	0.4624	0.0133
294.15	0.4839	0.014
296.15	0.5048	0.0146
298.15	0.5277	0.0151
300.15	0.5501	0.0157
302.15	0.574	0.0163
304.15	0.5981	0.017
306.15	0.6232	0.0176
308.15	0.6489	0.0183
310.15	0.6761	0.0191
312.15	0.7028	0.0198
313.15	0.7166	0.0202

System: trichloromethane + 2-pyridinamine; phases: Liquid, Crystal
Fixed: Pressure, kPa = 101
Property: Mole fraction of 2-pyridinamine (Liquid); method: Beer-lambert law of absrobance
Temperature, K	Mole fraction of 2-pyridinamine	uncertainty
288.15	0.3092	0.0087
290.15	0.3245	0.0092
292.15	0.3496	0.0099
294.15	0.3705	0.0105
296.15	0.3921	0.0111
298.15	0.4155	0.0118
300.15	0.4392	0.0124
302.15	0.4649	0.0132
304.15	0.4908	0.0139
306.15	0.5198	0.0147
308.15	0.5485	0.0155
310.15	0.5796	0.0163
312.15	0.6112	0.0172
314.15	0.6452	0.0182
316.15	0.681	0.0192
318.15	0.7182	0.0202

System: ethyl acetate + 2-pyridinamine; phases: Liquid, Crystal
Fixed: Pressure, kPa = 101
Property: Mole fraction of 2-pyridinamine (Liquid); method: Beer-lambert law of absrobance
Temperature, K	Mole fraction of 2-pyridinamine	uncertainty
288.15	0.3444	0.0098
290.15	0.3633	0.0103
292.15	0.3835	0.0109
294.15	0.4048	0.0115
296.15	0.4265	0.0121
298.15	0.4497	0.0128
300.15	0.4745	0.0135
302.15	0.4994	0.0142
304.15	0.5252	0.0149
306.15	0.5529	0.0157
308.15	0.5809	0.0164
310.15	0.611	0.0172
312.15	0.6419	0.0181
314.15	0.6744	0.019
316.15	0.7082	0.0199
318.15	0.7432	0.0209
320.15	0.7801	0.0219
323.15	0.8383	0.0236
