Measured thermophysical data. Enthalpies of Dilution of Acetamide and N,N-Dimethylformamide in Aqueous Sodium Chloride Solutions at 298.15 K
Source: J. Chem. Eng. Data, 2008, 10.1021/je8000393
Compound 1: ethanamide, C2H5NO, InChI=1S/C2H5NO/c1-2(3)4/h1H3,(H2,3,4)
Compound 2: water, H2O, InChI=1S/H2O/h1H2
Compound 3: dimethylformamide, C3H7NO, InChI=1S/C3H7NO/c1-4(2)3-5/h3H,1-2H3
Compound 4: sodium chloride, ClNa, InChI=1S/ClH.Na/h1H;/q;+1/p-1

System: ethanamide + water; phases: Liquid
Fixed: Temperature, K = 298.15
Fixed: Pressure, kPa = 101
Property: Molar enthalpy of dilution, kJ/mol (Liquid); method: Flow calorimetry
Initial molality of solute, mol/kg	Final molality of solute, mol/kg	Molar enthalpy of dilution, kJ/mol	uncertainty
0.1	0.0507	-0.00352	0.00081
0.15	0.076	-0.00371	0.00081
0.18	0.0912	-0.0039	0.00081
0.2	0.1013	-0.00395	0.00081
0.22	0.1114	-0.00407	0.00081
0.25	0.1265	-0.00426	0.00081
0.28	0.1416	-0.00447	0.00082
0.3	0.1517	-0.00463	0.00082
0.32	0.1617	-0.00483	0.00082
0.35	0.1768	-0.00507	0.00082
0.38	0.1919	-0.00533	0.00082
0.4	0.2019	-0.00553	0.00082

System: dimethylformamide + water; phases: Liquid
Fixed: Temperature, K = 298.15
Fixed: Pressure, kPa = 101
Property: Molar enthalpy of dilution, kJ/mol (Liquid); method: Flow calorimetry
Initial molality of solute, mol/kg	Final molality of solute, mol/kg	Molar enthalpy of dilution, kJ/mol	uncertainty
0.1	0.0502	-0.03038	0.00101
0.15	0.0756	-0.04835	0.00115
0.18	0.0893	-0.06015	0.00124
0.2	0.0994	-0.06733	0.0013
0.22	0.1098	-0.0742	0.00135
0.25	0.1247	-0.08503	0.00144
0.28	0.1392	-0.09614	0.00152
0.3	0.1493	-0.10325	0.00158
0.32	0.1598	-0.11004	0.00163
0.35	0.1742	-0.12118	0.00172
0.38	0.1888	-0.1321	0.0018
0.4	0.1993	-0.13859	0.00185

System: ethanamide + sodium chloride + water; phases: Liquid
Fixed: Temperature, K = 298.15
Fixed: Pressure, kPa = 101.3
Property: Molar enthalpy of dilution, kJ/mol (Liquid); method: Flow calorimetry
Solvent: Molality, mol/kg of sodium chloride	Initial molality of solute, mol/kg	Final molality of solute, mol/kg	Molar enthalpy of dilution, kJ/mol	uncertainty
0	0.1	0.0507	-0.00352	0.00081
0	0.15	0.076	-0.00371	0.00081
0	0.18	0.0912	-0.0039	0.00081
0	0.2	0.1013	-0.00395	0.00081
0	0.22	0.1114	-0.00407	0.00081
0	0.25	0.1265	-0.00426	0.00081
0	0.28	0.1416	-0.00447	0.00082
0	0.3	0.1517	-0.00463	0.00082
0	0.32	0.1617	-0.00483	0.00082
0	0.35	0.1768	-0.00507	0.00082
0	0.38	0.1919	-0.00533	0.00082
0	0.4	0.2019	-0.00553	0.00082
0.1	0.1	0.0505	-0.00628	0.00083
0.1	0.15	0.0756	-0.00592	0.00083
0.1	0.18	0.0907	-0.0057	0.00082
0.1	0.2	0.1007	-0.00558	0.00082
0.1	0.22	0.1107	-0.00548	0.00082
0.1	0.25	0.1257	-0.00532	0.00082
0.1	0.28	0.1407	-0.00528	0.00082
0.1	0.3	0.1506	-0.00535	0.00082
0.1	0.32	0.1606	-0.00545	0.00082
0.1	0.35	0.1755	-0.0058	0.00083
0.1	0.38	0.1906	-0.00628	0.00083
0.1	0.4	0.2004	-0.00675	0.00083
0.2	0.1	0.0506	-0.0089	0.00085
0.2	0.15	0.0759	-0.0079	0.00084
0.2	0.18	0.091	-0.0072	0.00084
0.2	0.2	0.1011	-0.00673	0.00083
0.2	0.22	0.1111	-0.00628	0.00083
0.2	0.25	0.1261	-0.00575	0.00083
0.2	0.28	0.1412	-0.00524	0.00082
0.2	0.3	0.1512	-0.0051	0.00082
0.2	0.32	0.1611	-0.00515	0.00082
0.2	0.35	0.1758	-0.0054	0.00082
0.2	0.38	0.1908	-0.00595	0.00083
0.2	0.4	0.2007	-0.00658	0.00083
0.3	0.1	0.052	-0.00738	0.00084
0.3	0.15	0.0779	-0.00685	0.00083
0.3	0.18	0.0934	-0.00645	0.00083
0.3	0.2	0.1037	-0.00618	0.00083
0.3	0.22	0.114	-0.00588	0.00083
0.3	0.25	0.1295	-0.00558	0.00082
0.3	0.28	0.1449	-0.00533	0.00082
0.3	0.3	0.1552	-0.00525	0.00082
0.3	0.32	0.1654	-0.0053	0.00082
0.3	0.35	0.1808	-0.00552	0.00082
0.3	0.38	0.1961	-0.00608	0.00083
0.3	0.4	0.2063	-0.00662	0.00083
0.4	0.1	0.0518	-0.00692	0.00083
0.4	0.15	0.0777	-0.00623	0.00083
0.4	0.18	0.0932	-0.00575	0.00083
0.4	0.2	0.1036	-0.00545	0.00082
0.4	0.22	0.114	-0.00517	0.00082
0.4	0.25	0.1295	-0.00482	0.00082
0.4	0.28	0.145	-0.00472	0.00082
0.4	0.3	0.1554	-0.00475	0.00082
0.4	0.32	0.1658	-0.00502	0.00082
0.4	0.35	0.1812	-0.00572	0.00083
0.4	0.38	0.1967	-0.00685	0.00083
0.4	0.4	0.2069	-0.00784	0.00084
0.5	0.1	0.0517	-0.00418	0.00081
0.5	0.15	0.0774	-0.00478	0.00082
0.5	0.18	0.0928	-0.00507	0.00082
0.5	0.2	0.103	-0.00518	0.00082
0.5	0.22	0.1133	-0.0053	0.00082
0.5	0.25	0.1286	-0.00548	0.00082
0.5	0.28	0.1439	-0.00565	0.00082
0.5	0.3	0.1541	-0.00575	0.00083
0.5	0.32	0.1643	-0.00595	0.00083
0.5	0.35	0.1796	-0.00623	0.00083
0.5	0.38	0.1948	-0.00654	0.00083
0.5	0.4	0.2049	-0.00683	0.00083
0.6	0.1	0.0519	0.00015	0.00078
0.6	0.15	0.0778	-0.00077	0.00079
0.6	0.18	0.0933	-0.00122	0.00079
0.6	0.2	0.1037	-0.00144	0.00079
0.6	0.22	0.114	-0.00168	0.00079
0.6	0.25	0.1295	-0.00192	0.0008
0.6	0.28	0.145	-0.00218	0.0008
0.6	0.3	0.1553	-0.00235	0.0008
0.6	0.32	0.1656	-0.00255	0.0008
0.6	0.35	0.181	-0.00272	0.0008
0.6	0.38	0.1965	-0.00298	0.0008
0.6	0.4	0.2068	-0.00318	0.00081

System: dimethylformamide + sodium chloride + water; phases: Liquid
Fixed: Temperature, K = 298.15
Fixed: Pressure, kPa = 101.3
Property: Molar enthalpy of dilution, kJ/mol (Liquid); method: Flow calorimetry
Solvent: Molality, mol/kg of sodium chloride	Initial molality of solute, mol/kg	Final molality of solute, mol/kg	Molar enthalpy of dilution, kJ/mol	uncertainty
0	0.1	0.0502	-0.03038	0.00101
0	0.15	0.0756	-0.04835	0.00115
0	0.18	0.0893	-0.06015	0.00124
0	0.2	0.0994	-0.06733	0.0013
0	0.22	0.1098	-0.0742	0.00135
0	0.25	0.1247	-0.08503	0.00144
0	0.28	0.1392	-0.09614	0.00152
0	0.3	0.1493	-0.10325	0.00158
0	0.32	0.1598	-0.11004	0.00163
0	0.35	0.1742	-0.12118	0.00172
0	0.38	0.1888	-0.1321	0.0018
0	0.4	0.1993	-0.13859	0.00185
0.1	0.1	0.0494	-0.03907	0.00108
0.1	0.15	0.0748	-0.05697	0.00122
0.1	0.18	0.0895	-0.06768	0.0013
0.1	0.2	0.0996	-0.07441	0.00135
0.1	0.22	0.1085	-0.08203	0.00141
0.1	0.25	0.1219	-0.09323	0.0015
0.1	0.28	0.139	-0.10148	0.00156
0.1	0.3	0.1501	-0.1071	0.00161
0.1	0.32	0.1578	-0.11513	0.00167
0.1	0.35	0.1736	-0.12396	0.00174
0.1	0.38	0.1879	-0.13375	0.00181
0.1	0.4	0.1972	-0.14037	0.00186
0.2	0.1	0.0498	-0.0267	0.00099
0.2	0.15	0.0744	-0.0458	0.00113
0.2	0.18	0.0894	-0.05673	0.00122
0.2	0.2	0.0999	-0.0635	0.00127
0.2	0.22	0.1096	-0.07091	0.00133
0.2	0.25	0.1242	-0.08185	0.00141
0.2	0.28	0.1391	-0.09252	0.00149
0.2	0.3	0.1481	-0.10033	0.00155
0.2	0.32	0.1579	-0.10748	0.00161
0.2	0.35	0.172	-0.11873	0.0017
0.2	0.38	0.1877	-0.12888	0.00178
0.2	0.4	0.1973	-0.13648	0.00183
0.3	0.1	0.0497	-0.0292	0.00101
0.3	0.15	0.0745	-0.04891	0.00116
0.3	0.18	0.0892	-0.05987	0.00124
0.3	0.2	0.099	-0.06736	0.0013
0.3	0.22	0.1089	-0.07464	0.00136
0.3	0.25	0.1237	-0.08561	0.00144
0.3	0.28	0.1386	-0.09638	0.00152
0.3	0.3	0.1485	-0.10356	0.00158
0.3	0.32	0.1581	-0.11097	0.00164
0.3	0.35	0.1728	-0.12202	0.00172
0.3	0.38	0.1871	-0.13357	0.00181
0.3	0.4	0.1973	-0.14078	0.00187
0.4	0.1	0.0495	-0.03354	0.00104
0.4	0.15	0.0742	-0.05308	0.00119
0.4	0.18	0.0889	-0.06441	0.00128
0.4	0.2	0.0986	-0.07181	0.00133
0.4	0.22	0.1085	-0.07893	0.00139
0.4	0.25	0.1232	-0.08955	0.00147
0.4	0.28	0.1381	-0.09986	0.00155
0.4	0.3	0.148	-0.10668	0.0016
0.4	0.32	0.1576	-0.1137	0.00166
0.4	0.35	0.1722	-0.12409	0.00174
0.4	0.38	0.1864	-0.13491	0.00182
0.4	0.4	0.1966	-0.14151	0.00187
0.5	0.1	0.0501	-0.03108	0.00102
0.5	0.15	0.0745	-0.05146	0.00118
0.5	0.18	0.0896	-0.06264	0.00126
0.5	0.2	0.0993	-0.07015	0.00132
0.5	0.22	0.1092	-0.0773	0.00138
0.5	0.25	0.1242	-0.08763	0.00146
0.5	0.28	0.139	-0.09783	0.00154
0.5	0.3	0.1484	-0.10491	0.00159
0.5	0.32	0.159	-0.1109	0.00164
0.5	0.35	0.1728	-0.12162	0.00172
0.5	0.38	0.1876	-0.13149	0.0018
0.5	0.4	0.1978	-0.1379	0.00185
0.6	0.1	0.0496	-0.02996	0.00101
0.6	0.15	0.0736	-0.05092	0.00117
0.6	0.18	0.0886	-0.06253	0.00126
0.6	0.2	0.0987	-0.06976	0.00132
0.6	0.22	0.1084	-0.0771	0.00138
0.6	0.25	0.1235	-0.0873	0.00145
0.6	0.28	0.1379	-0.09776	0.00154
0.6	0.3	0.1474	-0.10469	0.00159
0.6	0.32	0.1572	-0.1112	0.00164
0.6	0.35	0.1719	-0.12095	0.00171
0.6	0.38	0.1865	-0.13061	0.00179
0.6	0.4	0.1962	-0.13729	0.00184
