Measured thermophysical data. Isobaric Vapor-Liquid Equilibria for Binary and Ternary Mixtures of Diisopropyl Ether, 2-Propyl Alcohol, and 3-Methyl-1-Butanol
Source: J. Chem. Eng. Data, 2008, 10.1021/je800298n
Compound 1: diisopropyl ether, C6H14O, InChI=1S/C6H14O/c1-5(2)7-6(3)4/h5-6H,1-4H3, purity 99%
Compound 2: propan-2-ol, C3H8O, InChI=1S/C3H8O/c1-3(2)4/h3-4H,1-2H3, purity 99.8%
Compound 3: 3-methylbutan-1-ol, C5H12O, InChI=1S/C5H12O/c1-5(2)3-4-6/h5-6H,3-4H2,1-2H3, purity 99%

System: diisopropyl ether; phases: Liquid
Property: Refractive index (Na D-line) (Liquid); method: Standard Abbe refractometry
Temperature, K	Pressure, kPa	Refractive index (Na D-line)	uncertainty
298.15	101.325	1.3652	0.0005

System: diisopropyl ether; phases: Liquid
Property: Mass density, kg/m3 (Liquid); method: VIBTUB:UFactor:6
Temperature, K	Pressure, kPa	Mass density, kg/m3	uncertainty
298.15	101.325	718.32	0.96

System: diisopropyl ether; phases: Liquid, Gas
Property: Vapor or sublimation pressure, kPa (Liquid); method: EBULLIO::UFactor:2
Temperature, K	Vapor or sublimation pressure, kPa	uncertainty
341.49	101.3	

System: propan-2-ol; phases: Liquid
Property: Refractive index (Na D-line) (Liquid); method: Standard Abbe refractometry
Temperature, K	Pressure, kPa	Refractive index (Na D-line)	uncertainty
298.15	101.325	1.3754	0.0005

System: propan-2-ol; phases: Liquid
Property: Mass density, kg/m3 (Liquid); method: VIBTUB:UFactor:2
Temperature, K	Pressure, kPa	Mass density, kg/m3	uncertainty
298.15	101.325	782.69	0.24

System: propan-2-ol; phases: Liquid, Gas
Property: Vapor or sublimation pressure, kPa (Liquid); method: EBULLIO::UFactor:4
Temperature, K	Vapor or sublimation pressure, kPa	uncertainty
355.35	101.3	

System: 3-methylbutan-1-ol; phases: Liquid
Property: Refractive index (Na D-line) (Liquid); method: Standard Abbe refractometry
Temperature, K	Pressure, kPa	Refractive index (Na D-line)	uncertainty
298.15	101.325	1.4047	0.0005

System: 3-methylbutan-1-ol; phases: Liquid
Property: Mass density, kg/m3 (Liquid); method: Vibrating tube method
Temperature, K	Pressure, kPa	Mass density, kg/m3	uncertainty
298.15	101.325	804.46	0.24

System: 3-methylbutan-1-ol; phases: Liquid, Gas
Property: Vapor or sublimation pressure, kPa (Liquid); method: EBULLIO:UFactor:4
Temperature, K	Vapor or sublimation pressure, kPa	uncertainty
348.11	9.98	0.2
351.82	11.99	0.2
355.04	13.96	0.2
357.91	15.99	0.2
360.46	17.99	0.2
362.8	19.94	0.2
365.94	22.96	0.21
368.75	25.99	0.21
371.3	28.98	0.21
374.29	32.83	0.21
375.8	34.92	0.21
377.78	37.95	0.21
380.22	41.89	0.21
382.56	45.93	0.21
384.7	49.95	0.21
387.17	54.88	0.22
389.53	59.91	0.22
391.63	64.77	0.22
393.73	69.87	0.22
395.68	74.86	0.23
397.48	79.75	0.23
399.26	84.72	0.23
400.93	89.72	0.23
402.56	94.77	0.24
404.63	101.3	0.24

System: diisopropyl ether + 3-methylbutan-1-ol; phases: Liquid, Gas
Fixed: Pressure, kPa = 101.3
Property: Boiling temperature at pressure P, K (Liquid); method: EBULLIO:UFactor:2
Mole fraction of diisopropyl ether	Boiling temperature at pressure P, K	uncertainty
0	404.63	0.17
0.223	398.06	0.2
0.311	395.14	0.2
0.398	391.8	0.21
0.503	387.66	0.22
0.582	383.84	0.23
0.641	380.61	0.24
0.665	379.19	0.25
0.699	377.18	0.27
0.765	372.36	0.28
0.804	369.3	0.31
0.847	365.15	0.34
0.876	361.96	0.39
0.894	359.49	0.44
0.915	356.56	0.46
0.93	354.3	0.52
0.94	352.33	0.52
0.952	350.56	0.53
0.96	348.9	0.61
0.968	347.37	0.58
0.976	345.86	0.6
0.983	344.44	0.59
0.991	342.96	0.54
1	341.49	0.17

System: diisopropyl ether + 3-methylbutan-1-ol; phases: Liquid, Gas
Fixed: Pressure, kPa = 101.3
Property: Mole fraction of diisopropyl ether (Liquid); method: CHROM:UFactor:2
Mole fraction of diisopropyl ether	Mole fraction of diisopropyl ether	uncertainty
0	0	0.001
0.223	0.03	0.003
0.311	0.045	0.003
0.398	0.063	0.003
0.503	0.089	0.003
0.582	0.117	0.004
0.641	0.141	0.004
0.665	0.153	0.004
0.699	0.169	0.004
0.765	0.213	0.005
0.804	0.241	0.005
0.847	0.293	0.007
0.876	0.345	0.008
0.894	0.392	0.011
0.915	0.463	0.013
0.93	0.517	0.015
0.94	0.575	0.018
0.952	0.643	0.019
0.96	0.701	0.022
0.968	0.76	0.022
0.976	0.82	0.023
0.983	0.878	0.023
0.991	0.939	0.021
1	1	0.001

System: propan-2-ol + 3-methylbutan-1-ol; phases: Liquid, Gas
Fixed: Pressure, kPa = 101.3
Property: Boiling temperature at pressure P, K (Liquid); method: EBULLIO:UFactor:4
Mole fraction of propan-2-ol	Boiling temperature at pressure P, K	uncertainty
0	404.63	0.34
0.206	399.01	0.35
0.353	394.68	0.35
0.471	390.33	0.36
0.568	386.55	0.36
0.636	383.34	0.37
0.706	379.68	0.38
0.757	376.37	0.38
0.805	373.78	0.39
0.842	370.92	0.4
0.875	368.58	0.4
0.902	366.84	0.41
0.924	364.78	0.46
0.938	363.08	0.49
0.951	361.52	0.49
0.964	359.99	0.49
0.975	358.68	0.5
0.983	357.58	0.53
0.99	356.58	0.52
0.996	355.82	0.5
1	355.35	0.34

System: propan-2-ol + 3-methylbutan-1-ol; phases: Liquid, Gas
Fixed: Pressure, kPa = 101.3
Property: Mole fraction of propan-2-ol (Liquid); method: CHROM:UFactor:4
Mole fraction of propan-2-ol	Mole fraction of propan-2-ol	uncertainty
0	0	0.001
0.206	0.046	0.003
0.353	0.091	0.004
0.471	0.142	0.005
0.568	0.19	0.006
0.636	0.239	0.008
0.706	0.3	0.01
0.757	0.355	0.011
0.805	0.399	0.013
0.842	0.471	0.015
0.875	0.516	0.016
0.902	0.578	0.015
0.924	0.637	0.014
0.938	0.69	0.015
0.951	0.743	0.015
0.964	0.798	0.014
0.975	0.848	0.015
0.983	0.893	0.017
0.99	0.935	0.019
0.996	0.974	0.019
1	1	0.001

System: propan-2-ol + diisopropyl ether + 3-methylbutan-1-ol; phases: Liquid, Gas
Fixed: Pressure, kPa = 101.3
Property: Mole fraction of propan-2-ol (Liquid); method: CHROM:UFactor:4
Property: Mole fraction of propan-2-ol (Gas); method: CHROM:UFactor:4
Property: Mole fraction of diisopropyl ether (Gas); method: CHROM:UFactor:4
Temperature, K	Mole fraction of diisopropyl ether	Mole fraction of propan-2-ol	uncertainty	Mole fraction of propan-2-ol	uncertainty	Mole fraction of diisopropyl ether	uncertainty
340.3	0.742	0.221	0.007	0.214	0.008	0.783	
341.43	0.518	0.443	0.014	0.324	0.012	0.674	
341.45	0.896	0.057	0.003	0.08	0.004	0.914	
342.14	0.572	0.334	0.01	0.273	0.01	0.72	
342.36	0.788	0.111	0.004	0.129	0.005	0.86	
342.67	0.654	0.22	0.007	0.205	0.008	0.782	
343.72	0.319	0.646	0.011	0.444	0.017	0.553	
344.25	0.359	0.548	0.014	0.396	0.015	0.597	
345.3	0.68	0.109	0.004	0.119	0.005	0.857	
345.54	0.464	0.328	0.01	0.277	0.01	0.705	
345.83	0.384	0.434	0.013	0.343	0.013	0.642	
347.21	0.506	0.212	0.007	0.202	0.008	0.768	
348.46	0.264	0.536	0.014	0.438	0.016	0.545	
348.47	0.577	0.103	0.004	0.111	0.005	0.852	
348.54	0.173	0.733	0.008	0.579	0.016	0.413	
348.92	0.615	0.06	0.003	0.068	0.004	0.892	
349.66	0.36	0.321	0.01	0.297	0.011	0.671	
350.46	0.275	0.434	0.013	0.389	0.015	0.583	
350.46	0.175	0.649	0.011	0.55	0.017	0.434	
351.25	0.396	0.212	0.007	0.215	0.008	0.741	
352.41	0.465	0.099	0.004	0.112	0.005	0.833	
352.53	0.081	0.825	0.006	0.744	0.01	0.246	
353.4	0.046	0.909	0.004	0.844	0.006	0.151	
353.9	0.173	0.522	0.015	0.512	0.018	0.456	
355.04	0.255	0.313	0.01	0.337	0.013	0.612	
356.73	0.175	0.422	0.013	0.462	0.017	0.486	
356.94	0.282	0.209	0.007	0.247	0.009	0.681	
357.3	0.393	0.057	0.003	0.072	0.004	0.844	
357.45	0.081	0.638	0.011	0.696	0.011	0.267	
357.58	0.354	0.096	0.004	0.119	0.005	0.799	
359.03	0.041	0.708	0.009	0.813	0.007	0.151	
362.8	0.153	0.3	0.009	0.417	0.016	0.492	
363.47	0.257	0.098	0.004	0.143	0.006	0.736	
364.16	0.181	0.206	0.007	0.305	0.011	0.58	
364.79	0.085	0.409	0.013	0.591	0.015	0.312	
365.32	0.043	0.517	0.015	0.749	0.009	0.163	
370.92	0.173	0.095	0.004	0.174	0.007	0.634	
371.27	0.197	0.052	0.003	0.095	0.004	0.698	
374.69	0.086	0.195	0.006	0.409	0.015	0.378	
374.96	0.044	0.29	0.009	0.6	0.015	0.196	
380.08	0.094	0.097	0.004	0.237	0.009	0.455	
393.35	0.036	0.046	0.003	0.168	0.006	0.225	
