Measured thermophysical data. Thermodynamics of Mixtures Containing Alkoxyethanols. Part XXVI. Densities, Excess Molar Volumes, Speeds of Sound at (293.15, 298.15, and 303.15) K, and Isentropic or Isothermal Compressibilities at 298.15 K for 2-Methoxyethanol + Alkoxyethanol or 2-Propoxyethanol + Dibutylether Systems
Source: J. Chem. Eng. Data, 2008, 10.1021/je8000975
Compound 1: 2-methoxyethan-1-ol, C3H8O2, InChI=1S/C3H8O2/c1-5-3-2-4/h4H,2-3H2,1H3
Compound 2: 2-ethoxyethan-1-ol, C4H10O2, InChI=1S/C4H10O2/c1-2-6-4-3-5/h5H,2-4H2,1H3
Compound 3: 2-propoxyethanol, C5H12O2, InChI=1S/C5H12O2/c1-2-4-7-5-3-6/h6H,2-5H2,1H3
Compound 4: 2-butoxyethan-1-ol, C6H14O2, InChI=1S/C6H14O2/c1-2-3-5-8-6-4-7/h7H,2-6H2,1H3
Compound 5: 2-(2-methoxyethoxy)ethanol, C5H12O3, InChI=1S/C5H12O3/c1-7-4-5-8-3-2-6/h6H,2-5H2,1H3
Compound 6: dibutyl ether, C8H18O, InChI=1S/C8H18O/c1-3-5-7-9-8-6-4-2/h3-8H2,1-2H3

System: 2-methoxyethan-1-ol; phases: Liquid, Air at 1 atmosphere
Property: Speed of sound, m/s (Liquid); method: Sing-around technique in a fixed-path interferometer
Temperature, K	Speed of sound, m/s	uncertainty
293.15	1359.23	0.85
298.15	1341.58	0.84
303.15	1324.29	0.84

System: 2-methoxyethan-1-ol; phases: Liquid, Air at 1 atmosphere
Property: Mass density, kg/m3 (Liquid); method: VIBTUB:UFactor:4
Temperature, K	Mass density, kg/m3	uncertainty
293.15	964.656	0.288
298.15	960.088	0.292
303.15	955.471	0.297

System: 2-ethoxyethan-1-ol; phases: Liquid, Air at 1 atmosphere
Property: Speed of sound, m/s (Liquid); method: Sing-around technique in a fixed-path interferometer
Temperature, K	Speed of sound, m/s	uncertainty
293.15	1319.91	0.84
298.15	1301.73	0.83
303.15	1284.15	0.82

System: 2-ethoxyethan-1-ol; phases: Liquid, Air at 1 atmosphere
Property: Mass density, kg/m3 (Liquid); method: VIBTUB:UFactor:4
Temperature, K	Mass density, kg/m3	uncertainty
293.15	929.545	0.324
298.15	925.027	0.329
303.15	920.457	0.334

System: 2-propoxyethanol; phases: Liquid, Air at 1 atmosphere
Property: Speed of sound, m/s (Liquid); method: Sing-around technique in a fixed-path interferometer
Temperature, K	Speed of sound, m/s	uncertainty
293.15	1316.61	1.2
298.15	1298.58	1.2
303.15	1281.14	1.2

System: 2-propoxyethanol; phases: Liquid, Air at 1 atmosphere
Property: Mass density, kg/m3 (Liquid); method: VIBTUB:UFactor:6
Temperature, K	Mass density, kg/m3	uncertainty
293.15	911.515	0.562
298.15	907.151	0.571
303.15	902.736	0.58

System: 2-butoxyethan-1-ol; phases: Liquid, Air at 1 atmosphere
Property: Speed of sound, m/s (Liquid); method: Sing-around technique in a fixed-path interferometer
Temperature, K	Speed of sound, m/s	uncertainty
293.15	1322.5	2.11
298.15	1304.94	2.11
303.15	1288.02	2.11

System: 2-butoxyethan-1-ol; phases: Liquid, Air at 1 atmosphere
Property: Mass density, kg/m3 (Liquid); method: VIBTUB:UFactor:12
Temperature, K	Mass density, kg/m3	uncertainty
293.15	900.094	1.503
298.15	895.91	1.517
303.15	891.697	1.532

System: 2-(2-methoxyethoxy)ethanol; phases: Liquid, Air at 1 atmosphere
Property: Speed of sound, m/s (Liquid); method: Sing-around technique in a fixed-path interferometer
Temperature, K	Speed of sound, m/s	uncertainty
293.15	1432.37	2.12
298.15	1415.21	2.12
303.15	1397.93	2.12

System: 2-(2-methoxyethoxy)ethanol; phases: Liquid, Air at 1 atmosphere
Property: Mass density, kg/m3 (Liquid); method: VIBTUB:UFactor:12
Temperature, K	Mass density, kg/m3	uncertainty
293.15	1019.81	1.31
298.15	1015.408	1.277
303.15	1010.908	1.248

System: dibutyl ether; phases: Liquid, Air at 1 atmosphere
Property: Speed of sound, m/s (Liquid); method: Sing-around technique in a fixed-path interferometer
Temperature, K	Speed of sound, m/s	uncertainty
293.15	1181.82	0.8
298.15	1161.19	0.79
303.15	1142.07	0.78

System: dibutyl ether; phases: Liquid, Air at 1 atmosphere
Property: Mass density, kg/m3 (Liquid); method: VIBTUB:UFactor:4
Temperature, K	Mass density, kg/m3	uncertainty
293.15	768.468	0.522
298.15	764.17	0.529
303.15	759.829	0.536

System: 2-methoxyethan-1-ol + 2-ethoxyethan-1-ol; phases: Liquid
Fixed: Pressure, kPa = 101
Property: Speed of sound, m/s (Liquid); method: Sing-around technique in a fixed-path interferometer
Temperature, K	Mole fraction of 2-methoxyethan-1-ol	Speed of sound, m/s	uncertainty
293.15	0.1511	-1.409	0.557
293.15	0.2029	-1.744	0.557
293.15	0.3043	-2.3	0.557
293.15	0.3503	-2.461	0.557
293.15	0.5024	-2.823	0.557
293.15	0.5514	-2.876	0.557
293.15	0.6992	-2.515	0.557
293.15	0.7482	-2.301	0.557
293.15	0.798	-1.985	0.557
293.15	0.7992	-2.023	0.557
293.15	0.8504	-1.624	0.557
293.15	0.8997	-1.196	0.557
293.15	0.9488	-0.646	0.557
298.15	0.0536	-0.563	0.557
298.15	0.1039	-0.986	0.557
298.15	0.151	-1.37	0.557
298.15	0.1517	-1.371	0.557
298.15	0.3523	-2.548	0.557
298.15	0.3757	-2.593	0.557
298.15	0.4166	-2.727	0.557
298.15	0.4509	-2.786	0.557
298.15	0.5507	-2.889	0.557
298.15	0.5981	-2.868	0.557
298.15	0.7494	-2.31	0.557
298.15	0.7987	-2.013	0.557
298.15	0.8423	-1.67	0.557
298.15	0.8475	-1.664	0.557
298.15	0.9002	-1.173	0.557
298.15	0.9483	-0.648	0.557
303.15	0.1537	-1.331	0.557
303.15	0.1543	-1.356	0.557
303.15	0.2017	-1.719	0.557
303.15	0.2495	-2.06	0.557
303.15	0.3013	-2.313	0.557
303.15	0.402	-2.732	0.557
303.15	0.4505	-2.864	0.557
303.15	0.4985	-2.909	0.557
303.15	0.5505	-2.921	0.557
303.15	0.5979	-2.85	0.557
303.15	0.6504	-2.715	0.557
303.15	0.6979	-2.573	0.557
303.15	0.7488	-2.296	0.557
303.15	0.7998	-1.941	0.557
303.15	0.9001	-1.13	0.557

System: 2-methoxyethan-1-ol + 2-ethoxyethan-1-ol; phases: Liquid
Fixed: Pressure, kPa = 101
Property: Mass density, kg/m3 (Liquid); method: VIBTUB:UFactor:4
Temperature, K	Mole fraction of 2-methoxyethan-1-ol	Mass density, kg/m3	uncertainty
293.15	0.1511	933.958	0.318
293.15	0.2029	935.531	0.316
293.15	0.3043	938.709	0.313
293.15	0.3503	940.193	0.312
293.15	0.5024	945.313	0.306
293.15	0.5514	947.031	0.305
293.15	0.6992	952.448	0.299
293.15	0.7482	954.326	0.297
293.15	0.798	956.272	0.295
293.15	0.7992	956.321	0.295
293.15	0.8504	958.373	0.293
293.15	0.8997	960.393	0.291
293.15	0.9488	962.456	0.289
298.15	0.0536	926.563	0.326
298.15	0.1039	928.032	0.324
298.15	0.151	929.431	0.323
298.15	0.1517	929.455	0.323
298.15	0.3523	935.724	0.316
298.15	0.3757	936.488	0.315
298.15	0.4166	937.846	0.314
298.15	0.4509	939.002	0.313
298.15	0.5507	942.46	0.309
298.15	0.5981	944.155	0.307
298.15	0.7494	949.818	0.302
298.15	0.7987	951.747	0.3
298.15	0.8423	953.488	0.298
298.15	0.8475	953.698	0.298
298.15	0.9002	955.855	0.296
298.15	0.9483	957.869	0.294
303.15	0.1537	924.945	0.327
303.15	0.1543	924.961	0.327
303.15	0.2017	926.398	0.326
303.15	0.2495	927.868	0.324
303.15	0.3013	929.498	0.323
303.15	0.402	932.768	0.319
303.15	0.4505	934.39	0.318
303.15	0.4985	936.037	0.316
303.15	0.5505	937.856	0.314
303.15	0.5979	939.553	0.312
303.15	0.6504	941.473	0.31
303.15	0.6979	943.248	0.308
303.15	0.7488	945.193	0.306
303.15	0.7998	947.188	0.304
303.15	0.9001	951.244	0.3

System: 2-methoxyethan-1-ol + 2-butoxyethan-1-ol; phases: Liquid
Fixed: Pressure, kPa = 101
Property: Speed of sound, m/s (Liquid); method: Sing-around technique in a fixed-path interferometer
Temperature, K	Mole fraction of 2-methoxyethan-1-ol	Speed of sound, m/s	uncertainty
293.15	0.0524	-1.642	1.937
293.15	0.1023	-3.095	1.863
293.15	0.1513	-4.446	1.79
293.15	0.2009	-5.716	1.716
293.15	0.2491	-6.856	1.644
293.15	0.3006	-7.979	1.568
293.15	0.3411	-8.787	1.508
293.15	0.3986	-9.769	1.423
293.15	0.4484	-10.455	1.349
293.15	0.4994	-10.994	1.274
293.15	0.5492	-11.372	1.201
293.15	0.5987	-11.477	1.128
293.15	0.6489	-11.372	1.055
293.15	0.7291	-10.566	0.938
293.15	0.7487	-10.287	0.91
293.15	0.7996	-9.165	0.837
293.15	0.8491	-7.708	0.766
293.15	0.8992	-5.764	0.695
293.15	0.9495	-3.176	0.626
298.15	0.0522	-1.609	1.937
298.15	0.1029	-3.062	1.862
298.15	0.15	-4.358	1.792
298.15	0.2019	-5.699	1.715
298.15	0.2489	-6.837	1.645
298.15	0.2999	-7.909	1.569
298.15	0.3514	-8.963	1.493
298.15	0.3994	-9.753	1.422
298.15	0.449	-10.41	1.349
298.15	0.4755	-10.759	1.309
298.15	0.4987	-10.974	1.275
298.15	0.5985	-11.457	1.129
298.15	0.6476	-11.289	1.057
298.15	0.6975	-10.966	0.984
298.15	0.7481	-10.233	0.911
298.15	0.7988	-9.21	0.838
298.15	0.8476	-7.701	0.768
298.15	0.8993	-5.686	0.695
298.15	0.9478	-3.299	0.628
303.15	0.0483	-1.419	1.943
303.15	0.1002	-2.933	1.866
303.15	0.1519	-4.332	1.789
303.15	0.1997	-5.559	1.718
303.15	0.2393	-6.531	1.659
303.15	0.2476	-6.731	1.647
303.15	0.3501	-8.82	1.495
303.15	0.3985	-9.689	1.423
303.15	0.4499	-10.373	1.347
303.15	0.4966	-10.871	1.278
303.15	0.5031	-10.875	1.269
303.15	0.6119	-11.305	1.109
303.15	0.6471	-11.253	1.058
303.15	0.7275	-10.473	0.941
303.15	0.7491	-10.105	0.909
303.15	0.7969	-9.088	0.841
303.15	0.8463	-7.723	0.77
303.15	0.8986	-5.663	0.696
303.15	0.9475	-3.281	0.628

System: 2-methoxyethan-1-ol + 2-butoxyethan-1-ol; phases: Liquid
Fixed: Pressure, kPa = 101
Property: Mass density, kg/m3 (Liquid); method: VIBTUB:UFactor:8
Temperature, K	Mole fraction of 2-methoxyethan-1-ol	Mass density, kg/m3	uncertainty
293.15	0.0524	902.021	1.159
293.15	0.1023	903.942	1.109
293.15	0.1513	905.929	1.06
293.15	0.2009	908.026	1.013
293.15	0.2491	910.172	0.968
293.15	0.3006	912.586	0.921
293.15	0.3411	914.561	0.885
293.15	0.3986	917.531	0.836
293.15	0.4484	920.249	0.795
293.15	0.4994	923.189	0.753
293.15	0.5492	926.262	0.714
293.15	0.5987	929.459	0.677
293.15	0.6489	932.911	0.64
293.15	0.7291	938.888	0.582
293.15	0.7487	940.45	0.569
293.15	0.7996	944.683	0.534
293.15	0.8491	949.097	0.501
293.15	0.8992	953.883	0.472
293.15	0.9495	959.058	0.446
298.15	0.0522	897.844	1.167
298.15	0.1029	899.781	1.116
298.15	0.15	901.679	1.07
298.15	0.2019	903.86	1.02
298.15	0.2489	905.939	0.977
298.15	0.2999	908.306	0.931
298.15	0.3514	910.818	0.886
298.15	0.3994	913.289	0.846
298.15	0.449	915.99	0.805
298.15	0.4755	917.493	0.783
298.15	0.4987	918.836	0.765
298.15	0.5985	925.072	0.689
298.15	0.6476	928.432	0.653
298.15	0.6975	932.045	0.617
298.15	0.7481	935.968	0.582
298.15	0.7988	940.157	0.548
298.15	0.8476	944.484	0.515
298.15	0.8993	949.386	0.483
298.15	0.9478	954.336	0.458
303.15	0.0483	893.466	1.179
303.15	0.1002	895.434	1.127
303.15	0.1519	897.493	1.077
303.15	0.1997	899.493	1.031
303.15	0.2393	901.221	0.995
303.15	0.2476	901.59	0.987
303.15	0.3501	906.436	0.897
303.15	0.3985	908.906	0.857
303.15	0.4499	911.682	0.815
303.15	0.4966	914.34	0.778
303.15	0.5031	914.737	0.773
303.15	0.6119	921.563	0.691
303.15	0.6471	923.963	0.665
303.15	0.7275	929.874	0.609
303.15	0.7491	931.575	0.594
303.15	0.7969	935.498	0.562
303.15	0.8463	939.82	0.529
303.15	0.8986	944.764	0.496
303.15	0.9475	949.713	0.47

System: 2-methoxyethan-1-ol + 2-(2-methoxyethoxy)ethanol; phases: Liquid
Fixed: Pressure, kPa = 101
Property: Speed of sound, m/s (Liquid); method: Sing-around technique in a fixed-path interferometer
Temperature, K	Mole fraction of 2-methoxyethan-1-ol	Speed of sound, m/s	uncertainty
293.15	0.1005	1.873	1.865
293.15	0.1489	2.64	1.794
293.15	0.1983	3.395	1.72
293.15	0.2003	3.429	1.717
293.15	0.2517	4.074	1.641
293.15	0.2969	4.595	1.574
293.15	0.2993	4.65	1.57
293.15	0.3475	5.141	1.499
293.15	0.3505	5.129	1.495
293.15	0.3985	5.504	1.424
293.15	0.45	5.807	1.348
293.15	0.5003	5.96	1.274
293.15	0.5998	5.909	1.128
293.15	0.6476	5.712	1.058
293.15	0.6993	5.324	0.982
293.15	0.7475	4.84	0.913
293.15	0.7485	4.866	0.911
293.15	0.7971	4.211	0.841
293.15	0.8465	3.451	0.77
293.15	0.8977	2.471	0.698
293.15	0.9483	1.333	0.627
298.15	0.0523	1.03	1.937
298.15	0.1027	1.929	1.862
298.15	0.1523	2.805	1.788
298.15	0.1974	3.531	1.722
298.15	0.2507	4.23	1.642
298.15	0.294	4.717	1.578
298.15	0.3472	5.241	1.5
298.15	0.3976	5.618	1.425
298.15	0.4502	5.92	1.347
298.15	0.4981	6.072	1.277
298.15	0.5	6.118	1.274
298.15	0.5455	6.167	1.207
298.15	0.5989	6.083	1.129
298.15	0.6471	5.892	1.058
298.15	0.7005	5.551	0.981
298.15	0.749	5.04	0.91
298.15	0.7983	4.349	0.839
298.15	0.846	3.622	0.771
298.15	0.8832	2.889	0.718
298.15	0.8956	2.644	0.701
298.15	0.9483	1.392	0.627
303.15	0.0536	1.113	1.935
303.15	0.1018	2.067	1.864
303.15	0.15	2.848	1.792
303.15	0.2011	3.661	1.716
303.15	0.2499	4.283	1.644
303.15	0.2515	4.305	1.641
303.15	0.301	4.9	1.568
303.15	0.3527	5.363	1.491
303.15	0.3986	5.728	1.424
303.15	0.4493	6.016	1.349
303.15	0.5028	6.206	1.27
303.15	0.5499	6.211	1.201
303.15	0.6	6.144	1.127
303.15	0.6482	5.957	1.057
303.15	0.6941	5.642	0.99
303.15	0.7485	5.169	0.911
303.15	0.7979	4.465	0.84
303.15	0.8989	2.64	0.696
303.15	0.9476	1.489	0.628

System: 2-methoxyethan-1-ol + 2-(2-methoxyethoxy)ethanol; phases: Liquid
Fixed: Pressure, kPa = 101
Property: Mass density, kg/m3 (Liquid); method: VIBTUB:UFactor:8
Temperature, K	Mole fraction of 2-methoxyethan-1-ol	Mass density, kg/m3	uncertainty
293.15	0.1005	1016.018	1.008
293.15	0.1489	1014.091	0.944
293.15	0.1983	1012.062	0.881
293.15	0.2003	1011.979	0.878
293.15	0.2517	1009.775	0.816
293.15	0.2969	1007.77	0.763
293.15	0.2993	1007.666	0.76
293.15	0.3475	1005.453	0.706
293.15	0.3505	1005.311	0.703
293.15	0.3985	1003.011	0.652
293.15	0.45	1000.453	0.599
293.15	0.5003	997.85	0.564
293.15	0.5998	992.362	0.508
293.15	0.6476	989.566	0.487
293.15	0.6993	986.398	0.469
293.15	0.7475	983.311	0.455
293.15	0.7485	983.242	0.455
293.15	0.7971	979.992	0.443
293.15	0.8465	976.527	0.434
293.15	0.8977	972.767	0.427
293.15	0.9483	968.858	0.422
298.15	0.0523	1013.467	1.054
298.15	0.1027	1011.521	0.985
298.15	0.1523	1009.54	0.92
298.15	0.1974	1007.674	0.863
298.15	0.2507	1005.394	0.798
298.15	0.294	1003.471	0.748
298.15	0.3472	1001.025	0.689
298.15	0.3976	998.612	0.644
298.15	0.4502	995.991	0.607
298.15	0.4981	993.508	0.576
298.15	0.5	993.405	0.575
298.15	0.5455	990.948	0.549
298.15	0.5989	987.943	0.521
298.15	0.6471	985.114	0.498
298.15	0.7005	981.838	0.479
298.15	0.749	978.717	0.465
298.15	0.7983	975.395	0.454
298.15	0.846	972.046	0.445
298.15	0.8832	969.324	0.44
298.15	0.8956	968.391	0.438
298.15	0.9483	964.311	0.433
303.15	0.0536	1008.92	1.031
303.15	0.1018	1007.058	0.966
303.15	0.15	1005.13	0.903
303.15	0.2011	1003.02	0.839
303.15	0.2499	1000.923	0.78
303.15	0.2515	1000.848	0.779
303.15	0.301	998.636	0.73
303.15	0.3527	996.24	0.688
303.15	0.3986	994.036	0.654
303.15	0.4493	991.5	0.619
303.15	0.5028	988.711	0.585
303.15	0.5499	986.158	0.558
303.15	0.6	983.323	0.532
303.15	0.6482	980.488	0.51
303.15	0.6941	977.672	0.492
303.15	0.7485	974.182	0.476
303.15	0.7979	970.854	0.465
303.15	0.8989	963.546	0.449
303.15	0.9476	959.766	0.445

System: dibutyl ether + 2-propoxyethanol; phases: Liquid
Fixed: Pressure, kPa = 101
Property: Speed of sound, m/s (Liquid); method: Sing-around technique in a fixed-path interferometer
Temperature, K	Mole fraction of 2-propoxyethanol	Speed of sound, m/s	uncertainty
293.15	0.0625	-4.101	0.585
293.15	0.1231	-8.051	0.612
293.15	0.1827	-11.639	0.639
293.15	0.2394	-14.75	0.665
293.15	0.2492	-15.243	0.67
293.15	0.2944	-17.4	0.691
293.15	0.2949	-17.413	0.691
293.15	0.3486	-19.629	0.716
293.15	0.4023	-21.418	0.741
293.15	0.4544	-22.77	0.766
293.15	0.4567	-22.796	0.767
293.15	0.5556	-23.989	0.814
293.15	0.599	-23.941	0.835
293.15	0.6019	-23.903	0.836
293.15	0.6498	-23.358	0.859
293.15	0.6536	-23.259	0.861
293.15	0.7431	-20.629	0.904
293.15	0.8304	-16.027	0.947
293.15	0.8329	-15.841	0.948
293.15	0.875	-12.734	0.968
293.15	0.9173	-9.034	0.989
293.15	0.9567	-5.077	1.008
293.15	0.9568	-5.065	1.009
298.15	0.0551	-3.771	0.581
298.15	0.0626	-4.251	0.585
298.15	0.1039	-7.041	0.603
298.15	0.1246	-8.31	0.613
298.15	0.1556	-10.3	0.627
298.15	0.2367	-14.853	0.664
298.15	0.2393	-14.991	0.665
298.15	0.2922	-17.564	0.69
298.15	0.3545	-20.233	0.719
298.15	0.4014	-21.698	0.741
298.15	0.4031	-21.737	0.742
298.15	0.455	-23.087	0.766
298.15	0.5006	-23.856	0.788
298.15	0.5043	-23.907	0.79
298.15	0.5521	-24.354	0.812
298.15	0.6483	-23.675	0.858
298.15	0.6976	-22.524	0.882
298.15	0.6984	-22.469	0.883
298.15	0.6993	-22.464	0.883
298.15	0.7502	-20.618	0.908
298.15	0.7902	-18.64	0.927
298.15	0.8325	-16.068	0.948
298.15	0.9152	-9.358	0.988
298.15	0.9163	-9.28	0.989
298.15	0.9571	-5.036	1.009
298.15	0.9581	-4.955	1.009
298.15	0.8325	-16.047	0.948
303.15	0.0645	-4.473	0.586
303.15	0.1249	-8.485	0.613
303.15	0.1826	-12.035	0.639
303.15	0.2383	-15.129	0.665
303.15	0.3481	-20.104	0.716
303.15	0.4032	-21.973	0.742
303.15	0.4542	-23.257	0.766
303.15	0.4567	-23.309	0.767
303.15	0.5058	-24.134	0.79
303.15	0.5547	-24.453	0.814
303.15	0.5548	-24.471	0.814
303.15	0.5997	-24.358	0.835
303.15	0.6542	-23.701	0.861
303.15	0.6988	-22.557	0.883
303.15	0.7434	-20.974	0.904
303.15	0.7899	-18.758	0.927
303.15	0.8319	-16.118	0.947
303.15	0.8764	-12.809	0.969
303.15	0.9168	-9.214	0.989
303.15	0.9553	-5.284	1.008
303.15	0.9575	-5.017	1.009
303.15	0.2383	-15.118	0.665
303.15	0.9168	-9.267	0.989

System: dibutyl ether + 2-propoxyethanol; phases: Liquid
Fixed: Pressure, kPa = 101
Property: Mass density, kg/m3 (Liquid); method: VIBTUB:UFactor:4
Temperature, K	Mole fraction of 2-propoxyethanol	Mass density, kg/m3	uncertainty
293.15	0.0625	774.485	0.511
293.15	0.1231	780.612	0.506
293.15	0.1827	786.927	0.501
293.15	0.2394	793.199	0.496
293.15	0.2492	794.319	0.495
293.15	0.2944	799.55	0.491
293.15	0.2949	799.613	0.491
293.15	0.3486	806.069	0.487
293.15	0.4023	812.805	0.483
293.15	0.4544	819.603	0.479
293.15	0.4567	819.921	0.479
293.15	0.5556	833.65	0.472
293.15	0.599	840.02	0.469
293.15	0.6019	840.448	0.469
293.15	0.6498	847.778	0.465
293.15	0.6536	848.363	0.465
293.15	0.7431	862.909	0.458
293.15	0.8304	878.188	0.452
293.15	0.8329	878.643	0.452
293.15	0.875	886.46	0.449
293.15	0.9173	894.637	0.446
293.15	0.9567	902.506	0.443
293.15	0.9568	902.528	0.443
298.15	0.0551	769.407	0.518
298.15	0.0626	770.132	0.517
298.15	0.1039	774.248	0.514
298.15	0.1246	776.381	0.512
298.15	0.1556	779.622	0.509
298.15	0.2367	788.484	0.502
298.15	0.2393	788.779	0.502
298.15	0.2922	794.872	0.498
298.15	0.3545	802.367	0.492
298.15	0.4014	808.252	0.489
298.15	0.4031	808.491	0.488
298.15	0.455	815.247	0.485
298.15	0.5006	821.438	0.481
298.15	0.5043	821.944	0.481
298.15	0.5521	828.692	0.477
298.15	0.6483	843.112	0.47
298.15	0.6976	850.944	0.467
298.15	0.6984	851.074	0.466
298.15	0.6993	851.218	0.466
298.15	0.7502	859.679	0.463
298.15	0.7902	866.584	0.46
298.15	0.8325	874.153	0.457
298.15	0.9152	889.815	0.45
298.15	0.9163	890.027	0.45
298.15	0.9571	898.214	0.448
298.15	0.9581	898.407	0.448
298.15	0.8325	874.166	0.457
303.15	0.0645	765.959	0.523
303.15	0.1249	772.015	0.518
303.15	0.1826	778.083	0.513
303.15	0.2383	784.22	0.509
303.15	0.3481	797.121	0.499
303.15	0.4032	804.021	0.494
303.15	0.4542	810.67	0.49
303.15	0.4567	810.994	0.49
303.15	0.5058	817.67	0.486
303.15	0.5547	824.595	0.482
303.15	0.5548	824.612	0.482
303.15	0.5997	831.213	0.479
303.15	0.6542	839.567	0.475
303.15	0.6988	846.673	0.471
303.15	0.7434	854.06	0.468
303.15	0.7899	862.072	0.464
303.15	0.8319	869.613	0.461
303.15	0.8764	877.879	0.458
303.15	0.9168	885.687	0.455
303.15	0.9553	893.42	0.452
303.15	0.9575	893.858	0.452
303.15	0.2383	784.216	0.509
303.15	0.9168	885.692	0.455
