Measured thermophysical data. Solubility of C.I. Disperse Violet 1 in Supercritical Carbon Dioxide with or without Cosolvent
Source: J. Chem. Eng. Data, 2008, 10.1021/je8003673
Compound 1: carbon dioxide, CO2, InChI=1S/CO2/c2-1-3
Compound 2: ethanol, C2H6O, InChI=1S/C2H6O/c1-2-3/h3H,2H2,1H3
Compound 3: dimethyl sulfoxide, C2H6OS, InChI=1S/C2H6OS/c1-4(2)3/h1-2H3
Compound 4: 1,4-diaminoanthraquinone, C14H10N2O2, InChI=1S/C14H10N2O2/c15-9-5-6-10(16)12-11(9)13(17)7-3-1-2-4-8(7)14(12)18/h1-6H,15-16H2

System: 1,4-diaminoanthraquinone; phases: Crystal, Liquid, Air at 1 atmosphere
Property: Normal melting temperature, K (Crystal); method: DTA
Normal melting temperature, K	uncertainty
516.27	0.5

System: carbon dioxide + 1,4-diaminoanthraquinone; phases: Fluid (supercritical or subcritical phases), Crystal
Property: Mole fraction of 1,4-diaminoanthraquinone (Fluid (supercritical or subcritical phases)); method: Spectra
Temperature, K	Pressure, kPa	Mole fraction of 1,4-diaminoanthraquinone	uncertainty
353.2	15000	1.36e-07	2.9e-08
353.2	20000	7.48e-07	1.6e-07
353.2	25000	1.53e-06	3.3e-07
353.2	30000	2.77e-06	5.9e-07
373.2	15000	7.3e-08	1.6e-08
373.2	20000	5.6e-07	1.2e-07
373.2	25000	1.37e-06	2.9e-07
373.2	30000	3.27e-06	7e-07
393.2	15000	5.3e-08	1.2e-08
393.2	20000	3.82e-07	8.2e-08
393.2	25000	1.17e-06	2.5e-07
393.2	30000	3.49e-06	7.5e-07

System: ethanol + carbon dioxide + 1,4-diaminoanthraquinone; phases: Fluid (supercritical or subcritical phases), Crystal
Property: Mole fraction of 1,4-diaminoanthraquinone (Fluid (supercritical or subcritical phases)); method: Spectra
Temperature, K	Pressure, kPa	Solvent: Mole fraction of ethanol	Mole fraction of 1,4-diaminoanthraquinone	uncertainty
353.2	15000	0.01	1.74e-07	3.7e-08
353.2	15000	0.03	2.21e-07	4.7e-08
353.2	15000	0.05	2.72e-07	5.8e-08
353.2	20000	0.01	8.72e-07	1.86e-07
353.2	20000	0.03	1.07e-06	2.3e-07
353.2	20000	0.05	1.29e-06	2.8e-07
353.2	25000	0.01	1.64e-06	3.5e-07
353.2	25000	0.03	2.03e-06	4.3e-07
353.2	25000	0.05	2.48e-06	5.3e-07
353.2	30000	0.01	2.87e-06	6.1e-07
353.2	30000	0.03	3.49e-06	7.5e-07
353.2	30000	0.05	4.09e-06	8.7e-07
393.2	20000	0.01	5.08e-07	1.09e-07
393.2	20000	0.03	6.15e-07	1.32e-07
393.2	20000	0.05	8.38e-07	1.79e-07
393.2	25000	0.01	1.45e-06	3.1e-07
393.2	25000	0.03	1.8e-06	3.8e-07
393.2	25000	0.05	2.21e-06	4.7e-07
393.2	30000	0.01	3.98e-06	8.5e-07
393.2	30000	0.03	5.1e-06	1.09e-06
393.2	30000	0.05	5.85e-06	1.25e-06

System: dimethyl sulfoxide + carbon dioxide + 1,4-diaminoanthraquinone; phases: Fluid (supercritical or subcritical phases), Crystal
Fixed: Temperature, K = 353.2
Property: Mole fraction of 1,4-diaminoanthraquinone (Fluid (supercritical or subcritical phases)); method: Spectra
Pressure, kPa	Solvent: Mole fraction of dimethyl sulfoxide	Mole fraction of 1,4-diaminoanthraquinone	uncertainty
20000	0.01	1.98e-06	4.2e-07
20000	0.03	3.56e-06	7.6e-07
20000	0.05	6.29e-06	1.34e-06
25000	0.01	3.79e-06	8.1e-07
25000	0.03	5.5e-06	1.17e-06
25000	0.05	8.59e-06	1.83e-06
30000	0.01	6.04e-06	1.29e-06
30000	0.03	7.98e-06	1.7e-06
30000	0.05	1.06e-05	2.3e-06
