Measured thermophysical data. Solubility of Water in Tetradecyltrihexylphosphonium-Based Ionic Liquids
Source: J. Chem. Eng. Data, 2008, 10.1021/je8002805
Compound 1: trihexyl(tetradecyl)phosphonium bis[(trifluoromethyl)sulfonyl]imide, C34H68F6NO4PS2, InChI=1S/C32H68P.C2F6NO4S2/c1-5-9-13-17-18-19-20-21-22-23-24-28-32-33(29-25-14-10-6-2,30-26-15-11-7-3)31-27-16-12-8-4;3-1(4,5)14(10,11)9-15(12,13)2(6,7)8/h5-32H2,1-4H3;/q+1;-1, purity 97%
Compound 2: tetradecyl(trihexyl)phosphonium dicyanamide, C34H68N3P, InChI=1S/C32H68P.C2N3/c1-5-9-13-17-18-19-20-21-22-23-24-28-32-33(29-25-14-10-6-2,30-26-15-11-7-3)31-27-16-12-8-4;3-1-5-2-4/h5-32H2,1-4H3;/q+1;-1, purity 97%
Compound 3: tetradecyltrihexylphosphonium bromide, C32H68BrP, InChI=1S/C32H68P.BrH/c1-5-9-13-17-18-19-20-21-22-23-24-28-32-33(29-25-14-10-6-2,30-26-15-11-7-3)31-27-16-12-8-4;/h5-32H2,1-4H3;1H/q+1;/p-1, purity 96%
Compound 4: trihexyl(tetradecyl)phosphonium chloride, C32H68ClP, InChI=1S/C32H68P.ClH/c1-5-9-13-17-18-19-20-21-22-23-24-28-32-33(29-25-14-10-6-2,30-26-15-11-7-3)31-27-16-12-8-4;/h5-32H2,1-4H3;1H/q+1;/p-1, purity 96%
Compound 5: trihexyltetradecylphosphonium decanoate, C42H87O2P, InChI=1S/C32H68P.C10H20O2/c1-5-9-13-17-18-19-20-21-22-23-24-28-32-33(29-25-14-10-6-2,30-26-15-11-7-3)31-27-16-12-8-4;1-2-3-4-5-6-7-8-9-10(11)12/h5-32H2,1-4H3;2-9H2,1H3,(H,11,12)/q+1;/p-1, purity 95%
Compound 6: trihexyltetradecylphosphonium bis(2,4,4-trimethylpentyl)phosphinate, C48H102O2P2, InChI=1S/C32H68P.C16H35O2P/c1-5-9-13-17-18-19-20-21-22-23-24-28-32-33(29-25-14-10-6-2,30-26-15-11-7-3)31-27-16-12-8-4;1-13(9-15(3,4)5)11-19(17,18)12-14(2)10-16(6,7)8/h5-32H2,1-4H3;13-14H,9-12H2,1-8H3,(H,17,18)/q+1;/p-1, purity 95%
Compound 7: water, H2O, InChI=1S/H2O/h1H2

System: water + trihexyl(tetradecyl)phosphonium bis[(trifluoromethyl)sulfonyl]imide; phases: Liquid mixture 1, Liquid mixture 2
Fixed: Pressure, kPa = 101
Property: Mole fraction of water (Liquid mixture 1); method: Titration method
Temperature, K	Mole fraction of water	uncertainty
288.15	0.077	0.004
293.15	0.081	0.002
298.15	0.087	0.002
303.15	0.092	0.002
308.15	0.097	0.004
313.15	0.104	0.003
318.15	0.108	0.003

System: water + tetradecyl(trihexyl)phosphonium dicyanamide; phases: Liquid mixture 1, Liquid mixture 2
Fixed: Pressure, kPa = 101
Property: Mole fraction of water (Liquid mixture 1); method: Titration method
Temperature, K	Mole fraction of water	uncertainty
288.15	0.502	0.008
293.15	0.505	0.008
298.15	0.51	0.008
303.15	0.515	0.008
308.15	0.52	0.008
313.15	0.526	0.008
318.15	0.533	0.009

System: water + tetradecyltrihexylphosphonium bromide; phases: Liquid mixture 1, Liquid mixture 2
Fixed: Pressure, kPa = 101
Property: Mole fraction of water (Liquid mixture 1); method: Titration method
Temperature, K	Mole fraction of water	uncertainty
288.15	0.673	0.005
293.15	0.675	0.006
298.15	0.678	0.006
303.15	0.682	0.005
308.15	0.686	0.006
313.15	0.69	0.006
318.15	0.696	0.006

System: water + trihexyl(tetradecyl)phosphonium chloride; phases: Liquid mixture 1, Liquid mixture 2
Fixed: Pressure, kPa = 101
Property: Mole fraction of water (Liquid mixture 1); method: Titration method
Temperature, K	Mole fraction of water	uncertainty
288.15	0.811	0.003
293.15	0.814	0.007
298.15	0.817	0.007
303.15	0.819	0.008
308.15	0.822	0.008
313.15	0.826	0.005
318.15	0.83	0.007

System: water + trihexyltetradecylphosphonium decanoate; phases: Liquid mixture 1, Liquid mixture 2
Fixed: Pressure, kPa = 101
Property: Mole fraction of water (Liquid mixture 1); method: Titration method
Temperature, K	Mole fraction of water	uncertainty
288.15	0.855	0.008
293.15	0.86	0.008
298.15	0.864	0.01
303.15	0.87	0.01
308.15	0.875	0.01
313.15	0.882	0.008
318.15	0.888	0.006

System: water + trihexyltetradecylphosphonium bis(2,4,4-trimethylpentyl)phosphinate; phases: Liquid mixture 1, Liquid mixture 2
Fixed: Pressure, kPa = 101
Property: Mole fraction of water (Liquid mixture 1); method: Titration method
Temperature, K	Mole fraction of water	uncertainty
288.15	0.885	0.004
293.15	0.888	0.012
298.15	0.891	0.012
303.15	0.895	0.008
308.15	0.9	0.006
313.15	0.903	0.01
318.15	0.908	0.01
