Measured thermophysical data. Solubilities of Polyhydroxybenzophenones in an Ethanol + Water Mixture from (293.15 to 343.15) K
Source: J. Chem. Eng. Data, 2008, 10.1021/je800388y
Compound 1: 2,4-dihydroxybenzophenone, C13H10O3, InChI=1S/C13H10O3/c14-10-6-7-11(12(15)8-10)13(16)9-4-2-1-3-5-9/h1-8,14-15H
Compound 2: 2,3,4-trihydroxybenzophenone, C13H10O4, InChI=1S/C13H10O4/c14-10-7-6-9(12(16)13(10)17)11(15)8-4-2-1-3-5-8/h1-7,14,16-17H
Compound 3: 2,3,4,4'-tetrahydroxybenzophenone, C13H10O5, InChI=1S/C13H10O5/c14-8-3-1-7(2-4-8)11(16)9-5-6-10(15)13(18)12(9)17/h1-6,14-15,17-18H
Compound 4: 2,2',4,4'-tetrahydroxybenzophenone, C13H10O5, InChI=1S/C13H10O5/c14-7-1-3-9(11(16)5-7)13(18)10-4-2-8(15)6-12(10)17/h1-6,14-17H
Compound 5: ethanol, C2H6O, InChI=1S/C2H6O/c1-2-3/h3H,2H2,1H3
Compound 6: water, H2O, InChI=1S/H2O/h1H2

System: ethanol + 2,4-dihydroxybenzophenone + water; phases: Liquid, Crystal
Fixed: Pressure, kPa = 101
Property: Mass ratio of solute to solvent of 2,4-dihydroxybenzophenone (Liquid); method: high performance liquid chromatography
Temperature, K	Solvent: Mass fraction of ethanol	Mass ratio of solute to solvent of 2,4-dihydroxybenzophenone	uncertainty
293.15	0	7.1e-05	1.4e-05
293.15	0.1	0.000178	3.6e-05
293.15	0.2	0.00049	0.0001
293.15	0.3	0.00182	0.00036
298.15	0	9.2e-05	1.8e-05
298.15	0.1	0.000201	4e-05
298.15	0.2	0.00072	0.00014
298.15	0.3	0.00305	0.00061
303.15	0	0.000104	2.1e-05
303.15	0.1	0.000254	5.1e-05
303.15	0.2	0.00102	0.0002
303.15	0.3	0.0051	0.001
308.15	0	0.000123	2.5e-05
308.15	0.1	0.000333	6.7e-05
308.15	0.2	0.00141	0.00028
308.15	0.3	0.0084	0.0017
313.15	0	0.000161	3.2e-05
313.15	0.1	0.00047	9e-05
313.15	0.2	0.00209	0.00042
313.15	0.3	0.0125	0.0025
318.15	0	0.000189	3.8e-05
318.15	0.1	0.00063	0.00013
318.15	0.2	0.00294	0.00059
318.15	0.3	0.0185	0.0037
323.15	0	0.000258	5.2e-05
323.15	0.1	0.00087	0.00017
323.15	0.2	0.0043	0.0009
323.15	0.3	0.0285	0.0057
328.15	0	0.000332	6.6e-05
328.15	0.1	0.00125	0.00025
328.15	0.2	0.0062	0.0012
328.15	0.3	0.0422	0.0084
333.15	0	0.00043	9e-05
333.15	0.1	0.00161	0.00032
333.15	0.2	0.0088	0.0018
333.15	0.3	0.0601	0.012
338.15	0	0.00058	0.00012
338.15	0.1	0.00219	0.00044
338.15	0.2	0.0125	0.0025
338.15	0.3	0.083	0.0166
343.15	0	0.00081	0.00016
343.15	0.1	0.00314	0.00064
343.15	0.2	0.0185	0.0038
343.15	0.3	0.1123	0.0225

System: ethanol + 2,3,4-trihydroxybenzophenone + water; phases: Liquid, Crystal
Fixed: Pressure, kPa = 101
Property: Mass ratio of solute to solvent of 2,3,4-trihydroxybenzophenone (Liquid); method: high performance liquid chromatography
Temperature, K	Solvent: Mass fraction of ethanol	Mass ratio of solute to solvent of 2,3,4-trihydroxybenzophenone	uncertainty
293.15	0	0.000112	2.2e-05
293.15	0.1	0.00032	6e-05
293.15	0.2	0.00113	0.00023
293.15	0.3	0.0045	0.0009
298.15	0	0.000134	2.7e-05
298.15	0.1	0.00042	8e-05
298.15	0.2	0.00151	0.0003
298.15	0.3	0.0061	0.0012
303.15	0	0.000189	3.8e-05
303.15	0.1	0.00057	0.00011
303.15	0.2	0.00224	0.00045
303.15	0.3	0.0095	0.0019
308.15	0	0.000248	5e-05
308.15	0.1	0.00078	0.00016
308.15	0.2	0.00327	0.00065
308.15	0.3	0.0145	0.0029
313.15	0	0.000331	6.6e-05
313.15	0.1	0.00119	0.00024
313.15	0.2	0.0051	0.001
313.15	0.3	0.0223	0.0045
318.15	0	0.00044	9e-05
318.15	0.1	0.00173	0.00035
318.15	0.2	0.0074	0.0015
318.15	0.3	0.0373	0.0075
323.15	0	0.00063	0.00013
323.15	0.1	0.00241	0.00048
323.15	0.2	0.0115	0.0023
323.15	0.3	0.0533	0.0107
328.15	0	0.00086	0.00017
328.15	0.1	0.00354	0.00071
328.15	0.2	0.0181	0.0036
328.15	0.3	0.0755	0.0151
333.15	0	0.00122	0.00024
333.15	0.1	0.0051	0.001
333.15	0.2	0.0289	0.0058
333.15	0.3	0.0986	0.0197
338.15	0	0.00165	0.00033
338.15	0.1	0.0078	0.0016
338.15	0.2	0.0435	0.0087
338.15	0.3	0.126	0.0252
343.15	0	0.00219	0.00044
343.15	0.1	0.0115	0.0023
343.15	0.2	0.0644	0.0129
343.15	0.3	0.158	0.0316

System: ethanol + water + 2,3,4,4'-tetrahydroxybenzophenone; phases: Liquid, Crystal
Fixed: Pressure, kPa = 101
Property: Mass ratio of solute to solvent of 2,3,4,4'-tetrahydroxybenzophenone (Liquid); method: high performance liquid chromatography
Temperature, K	Solvent: Mass fraction of ethanol	Mass ratio of solute to solvent of 2,3,4,4'-tetrahydroxybenzophenone	uncertainty
293.15	0	0.000114	2.3e-05
293.15	0.1	0.000381	7.6e-05
293.15	0.2	0.00152	0.0003
293.15	0.3	0.009	0.0018
298.15	0	0.000153	3.1e-05
298.15	0.1	0.00051	0.0001
298.15	0.2	0.00244	0.00049
298.15	0.3	0.0112	0.0022
303.15	0	0.000222	4.4e-05
303.15	0.1	0.00078	0.00016
303.15	0.2	0.00369	0.00074
303.15	0.3	0.0151	0.003
308.15	0	0.000305	6.1e-05
308.15	0.1	0.00124	0.00025
308.15	0.2	0.0055	0.0011
308.15	0.3	0.0212	0.0042
313.15	0	0.00044	9e-05
313.15	0.1	0.00183	0.00037
313.15	0.2	0.0086	0.0017
313.15	0.3	0.0307	0.0061
318.15	0	0.0006	0.00012
318.15	0.1	0.00261	0.00052
318.15	0.2	0.0131	0.0026
318.15	0.3	0.0478	0.0096
323.15	0	0.00086	0.00017
323.15	0.1	0.00378	0.00076
323.15	0.2	0.0193	0.0039
323.15	0.3	0.0686	0.0137
328.15	0	0.00133	0.00027
328.15	0.1	0.0054	0.0011
328.15	0.2	0.0286	0.0057
328.15	0.3	0.0911	0.0182
333.15	0	0.00179	0.00036
333.15	0.1	0.0077	0.0015
333.15	0.2	0.0415	0.0083
333.15	0.3	0.1181	0.0236
338.15	0	0.00262	0.00052
338.15	0.1	0.0113	0.0023
338.15	0.2	0.0631	0.0126
338.15	0.3	0.1504	0.0301
343.15	0	0.00364	0.00073
343.15	0.1	0.0156	0.0032
343.15	0.2	0.0901	0.018
343.15	0.3	0.191	0.0382

System: ethanol + 2,2',4,4'-tetrahydroxybenzophenone + water; phases: Liquid, Crystal
Fixed: Pressure, kPa = 101
Property: Mass ratio of solute to solvent of 2,2',4,4'-tetrahydroxybenzophenone (Liquid); method: high performance liquid chromatography
Temperature, K	Solvent: Mass fraction of ethanol	Mass ratio of solute to solvent of 2,2',4,4'-tetrahydroxybenzophenone	uncertainty
293.15	0	7.1e-05	1.4e-05
293.15	0.1	0.000262	5.2e-05
293.15	0.2	0.00077	0.00015
293.15	0.3	0.00282	0.00057
298.15	0	8.9e-05	1.8e-05
298.15	0.1	0.000313	6.3e-05
298.15	0.2	0.00112	0.00022
298.15	0.3	0.0045	0.0009
303.15	0	0.000113	2.3e-05
303.15	0.1	0.000364	7.3e-05
303.15	0.2	0.00171	0.00034
303.15	0.3	0.0075	0.0015
308.15	0	0.000155	3.1e-05
308.15	0.1	0.00045	9e-05
308.15	0.2	0.00254	0.00051
308.15	0.3	0.0125	0.0025
313.15	0	0.000212	4.2e-05
313.15	0.1	0.00065	0.00013
313.15	0.2	0.00348	0.0007
313.15	0.3	0.019	0.0038
318.15	0	0.000273	5.5e-05
318.15	0.1	0.00114	0.00023
318.15	0.2	0.0055	0.0011
318.15	0.3	0.0285	0.0057
323.15	0	0.00038	7.6e-05
323.15	0.1	0.00161	0.00032
323.15	0.2	0.0091	0.0018
323.15	0.3	0.0405	0.0081
328.15	0	0.00057	0.00011
328.15	0.1	0.00248	0.0005
328.15	0.2	0.015	0.003
328.15	0.3	0.0561	0.0112
333.15	0	0.00088	0.00018
333.15	0.1	0.0041	0.0008
333.15	0.2	0.023	0.0046
333.15	0.3	0.0772	0.0154
338.15	0	0.00123	0.00025
338.15	0.1	0.006	0.0012
338.15	0.2	0.0331	0.0066
338.15	0.3	0.1052	0.021
343.15	0	0.00159	0.00032
343.15	0.1	0.0091	0.0018
343.15	0.2	0.0502	0.0101
343.15	0.3	0.1412	0.0282
