Measured thermophysical data. Solubility of Clindamycin Phosphate in Methanol, Ethanol, and Dimethyl Sulfoxide
Source: J. Chem. Eng. Data, 2008, 10.1021/je800291t
Compound 1: methanol, CH4O, InChI=1S/CH4O/c1-2/h2H,1H3, purity 99%
Compound 2: clindamycin phosphate, C18H34ClN2O8PS, InChI=1S/C18H34ClN2O8PS/c1-5-6-10-7-11(21(3)8-10)17(24)20-12(9(2)19)15-13(22)14(23)16(18(28-15)31-4)29-30(25,26)27/h9-16,18,22-23H,5-8H2,1-4H3,(H,20,24)(H2,25,26,27), purity 99%
Compound 3: ethanol, C2H6O, InChI=1S/C2H6O/c1-2-3/h3H,2H2,1H3, purity 99%
Compound 4: dimethyl sulfoxide, C2H6OS, InChI=1S/C2H6OS/c1-4(2)3/h1-2H3, purity 99%

System: methanol + clindamycin phosphate; phases: Liquid, Crystal
Fixed: Pressure, kPa = 101
Property: Mole fraction of clindamycin phosphate (Liquid); method: Titration method
Temperature, K	Mole fraction of clindamycin phosphate	uncertainty
286.15	0.000337	2.3e-05
291.15	0.000359	2.5e-05
296.15	0.000394	2.7e-05
301.15	0.000441	3e-05
306.15	0.000491	3.4e-05
311.15	0.000541	3.7e-05
316.15	0.000591	4.1e-05
321.15	0.000648	4.5e-05

System: ethanol + clindamycin phosphate; phases: Liquid, Crystal
Fixed: Pressure, kPa = 101
Property: Mole fraction of clindamycin phosphate (Liquid); method: Titration method
Temperature, K	Mole fraction of clindamycin phosphate	uncertainty
283.15	7.59e-06	7.59e-06
288.15	8.43e-06	8.43e-06
293.15	1.01e-05	1.01e-05
298.15	1.26e-05	1.26e-05
303.15	1.39e-05	1.39e-05
308.15	1.56e-05	1.56e-05
313.15	1.76e-05	1.76e-05
318.15	1.9e-05	1.9e-05

System: dimethyl sulfoxide + clindamycin phosphate; phases: Liquid, Crystal
Fixed: Pressure, kPa = 101
Property: Mole fraction of clindamycin phosphate (Liquid); method: Titration method
Temperature, K	Mole fraction of clindamycin phosphate	uncertainty
298.15	0.000422	4.3e-05
303.15	0.000519	5.2e-05
308.15	0.000702	7.1e-05
313.15	0.000893	9e-05
318.15	0.001197	0.000121
323.15	0.001506	0.000152
328.15	0.002169	0.000219
333.15	0.002859	0.000289
