Measured thermophysical data. Densities of the NaNO3 + NaCl + H2O and NaNO3 + KCl + H2O Systems and Their Correlation with the Pitzer Model
Source: J. Chem. Eng. Data, 2008, 10.1021/je800638f
Compound 1: sodium nitrate, NNaO3, InChI=1S/NO3.Na/c2-1(3)4;/q-1;+1
Compound 2: sodium chloride, ClNa, InChI=1S/ClH.Na/h1H;/q;+1/p-1
Compound 3: potassium chloride, ClK, InChI=1S/ClH.K/h1H;/q;+1/p-1
Compound 4: water, H2O, InChI=1S/H2O/h1H2

System: sodium nitrate + sodium chloride + water; phases: Liquid
Fixed: Pressure, kPa = 101
Property: Mass density, kg/m3 (Liquid); method: VIBTUB:UFactor:4
Temperature, K	Molality, mol/kg of sodium chloride	Molality, mol/kg of sodium nitrate	Mass density, kg/m3	uncertainty
293.15	0.0201	0.08	1003.59	0.29
293.15	0.04	0.06	1003.3	0.29
293.15	0.06	0.04	1003.01	0.29
293.15	0.08	0.02	1002.7	0.29
293.15	0.2003	0.7995	1050.23	0.33
293.15	0.3996	1.6003	1095.51	0.38
293.15	0.3998	0.6	1047.35	0.33
293.15	0.6	0.4001	1044.53	0.32
293.15	0.6009	2.398	1137.2	0.44
293.15	0.8001	0.2	1041.6	0.32
293.15	0.8001	1.1992	1090.19	0.38
293.15	1.1998	1.7991	1130	0.43
293.15	1.2002	0.8001	1084.85	0.37
293.15	1.5986	0.4007	1079.51	0.36
293.15	1.7992	1.2003	1122.69	0.42
293.15	2.3994	0.6005	1115.2	0.41
298.15	0.0201	0.08	1002.44	0.29
298.15	0.04	0.06	1002.01	0.29
298.15	0.06	0.04	1001.76	0.29
298.15	0.08	0.02	1001.5	0.29
298.15	0.2003	0.7995	1047.49	0.33
298.15	0.3996	1.6003	1093.29	0.38
298.15	0.3998	0.6	1044.73	0.32
298.15	0.6	0.4001	1042	0.32
298.15	0.6009	2.398	1134.59	0.44
298.15	0.8001	0.2	1039.2	0.32
298.15	0.8001	1.1992	1088.05	0.37
298.15	1.1998	1.7991	1127.54	0.43
298.15	1.2002	0.8001	1082.78	0.37
298.15	1.5986	0.4007	1077.5	0.36
298.15	1.7992	1.2003	1120.37	0.42
298.15	2.3994	0.6005	1113.02	0.41
303.15	0.0201	0.08	1000.97	0.29
303.15	0.04	0.06	1000.65	0.29
303.15	0.06	0.04	1000.31	0.28
303.15	0.08	0.02	1000.02	0.28
303.15	0.2003	0.7995	1045.38	0.33
303.15	0.3996	1.6003	1090.92	0.38
303.15	0.3998	0.6	1042.71	0.32
303.15	0.6	0.4001	1040.05	0.32
303.15	0.6009	2.398	1132.38	0.43
303.15	0.8001	0.2	1037.28	0.32
303.15	0.8001	1.1992	1085.78	0.37
303.15	1.1998	1.7991	1124.99	0.42
303.15	1.2002	0.8001	1080.59	0.36
303.15	1.5986	0.4007	1075.41	0.36
303.15	1.7992	1.2003	1117.92	0.41
303.15	2.3994	0.6005	1110.67	0.4

System: potassium chloride + sodium nitrate + water; phases: Liquid
Fixed: Pressure, kPa = 101
Property: Mass density, kg/m3 (Liquid); method: VIBTUB:UFactor:4
Temperature, K	Molality, mol/kg of potassium chloride	Molality, mol/kg of sodium nitrate	Mass density, kg/m3	uncertainty
293.15	0.02	0.0799	1003.7	0.29
293.15	0.04	0.06	1003.52	0.29
293.15	0.06	0.04	1003.32	0.29
293.15	0.08	0.02	1003.14	0.29
293.15	0.2	0.7999	1050.27	0.33
293.15	0.3998	1.6001	1097.43	0.39
293.15	0.3999	0.6002	1048.36	0.33
293.15	0.6001	0.3998	1046.46	0.33
293.15	0.6006	2.3996	1140.51	0.45
293.15	0.7997	0.2001	1044.64	0.32
293.15	0.8	1.2001	1093.71	0.38
293.15	1.2	0.8002	1090.31	0.38
293.15	1.2	1.7995	1135.44	0.44
293.15	1.5999	0.4	1086.8	0.37
293.15	1.7992	1.1995	1130.59	0.43
293.15	2.3984	0.6008	1125.48	0.43
298.15	0.02	0.0799	1002.49	0.29
298.15	0.04	0.06	1002.31	0.29
298.15	0.06	0.04	1002.13	0.29
298.15	0.08	0.02	1001.94	0.29
298.15	0.2	0.7999	1048.46	0.33
298.15	0.3998	1.6001	1095.13	0.38
298.15	0.3999	0.6002	1046.62	0.33
298.15	0.6001	0.3998	1044.76	0.33
298.15	0.6006	2.3996	1138.09	0.44
298.15	0.7997	0.2001	1043.15	0.32
298.15	0.8	1.2001	1091.56	0.38
298.15	1.2	0.8002	1088.27	0.37
298.15	1.2	1.7995	1133.39	0.44
298.15	1.5999	0.4	1084.89	0.37
298.15	1.7992	1.1995	1128.31	0.43
298.15	2.3984	0.6008	1123.34	0.42
303.15	0.02	0.0799	1001.06	0.29
303.15	0.04	0.06	1000.87	0.29
303.15	0.06	0.04	1000.66	0.29
303.15	0.08	0.02	1000.5	0.29
303.15	0.2	0.7999	1046.52	0.33
303.15	0.3998	1.6001	1093.1	0.38
303.15	0.3999	0.6002	1044.75	0.33
303.15	0.6001	0.3998	1042.94	0.32
303.15	0.6006	2.3996	1136.79	0.44
303.15	0.7997	0.2001	1041.35	0.32
303.15	0.8	1.2001	1089.59	0.38
303.15	1.2	0.8002	1086.15	0.37
303.15	1.2	1.7995	1132.22	0.43
303.15	1.5999	0.4	1082.89	0.37
303.15	1.7992	1.1995	1125.92	0.43
303.15	2.3984	0.6008	1121.1	0.42
