Measured thermophysical data. Experimental Isobaric Vapor-Liquid Equilibrium Data for Binary Mixtures of Cyclic Ethers with (1-Methylethyl)benzene
Source: J. Chem. Eng. Data, 2008, 10.1021/je800087p
Compound 1: tetrahydrofuran, C4H8O, InChI=1S/C4H8O/c1-2-4-5-3-1/h1-4H2
Compound 2: tetrahydropyran, C5H10O, InChI=1S/C5H10O/c1-2-4-6-5-3-1/h1-5H2
Compound 3: isopropylbenzene, C9H12, InChI=1S/C9H12/c1-8(2)9-6-4-3-5-7-9/h3-8H,1-2H3

System: tetrahydrofuran; phases: Liquid, Gas
Property: Normal boiling temperature, K (Liquid); method: Ebulliometric method (Recirculating still)
Normal boiling temperature, K	uncertainty
339.2	0.1

System: tetrahydrofuran; phases: Liquid
Property: Refractive index (Na D-line) (Liquid); method: Standard Abbe refractometry
Temperature, K	Pressure, kPa	Refractive index (Na D-line)	uncertainty
298.15	101.3	1.40443	0.000501

System: tetrahydropyran; phases: Liquid, Gas
Property: Normal boiling temperature, K (Liquid); method: Ebulliometric method (Recirculating still)
Normal boiling temperature, K	uncertainty
361.31	0.1

System: tetrahydropyran; phases: Liquid
Property: Refractive index (Na D-line) (Liquid); method: Standard Abbe refractometry
Temperature, K	Pressure, kPa	Refractive index (Na D-line)	uncertainty
298.15	101.3	1.418994	0.000633

System: isopropylbenzene; phases: Liquid, Gas
Property: Normal boiling temperature, K (Liquid); method: Ebulliometric method (Recirculating still)
Normal boiling temperature, K	uncertainty
425.63	0.1

System: isopropylbenzene; phases: Liquid
Property: Refractive index (Na D-line) (Liquid); method: Standard Abbe refractometry
Temperature, K	Pressure, kPa	Refractive index (Na D-line)	uncertainty
298.15	101.3	1.488292	0.00053

System: isopropylbenzene + tetrahydrofuran; phases: Liquid, Gas
Fixed: Pressure, kPa = 97.3
Property: Boiling temperature at pressure P, K (Liquid); method: Ebulliometric method (Recirculating still)
Mole fraction of tetrahydrofuran	Boiling temperature at pressure P, K	uncertainty
0.0926	421.21	0.15
0.15	419.05	0.15
0.291	413.43	0.15
0.3821	409.33	0.15
0.4923	403.65	0.15
0.5872	398.15	0.15
0.6644	392.9	0.15
0.7328	387.35	0.15
0.7849	382.48	0.15
0.8632	373.25	0.15
0.8942	368.65	0.16
0.9148	365.31	0.16
0.9391	360.34	0.17
0.9555	356.39	0.18
0.9657	353.58	0.19
0.9775	349.7	0.2
0.9839	347.15	0.22
0.989	344.75	0.24
0.9922	343.14	0.27
0.9969	340.35	0.31
0.9993	338.27	0.38

System: isopropylbenzene + tetrahydrofuran; phases: Liquid, Gas
Fixed: Pressure, kPa = 97.3
Property: Mole fraction of tetrahydrofuran (Liquid); method: Index of refraction calibration data
Mole fraction of tetrahydrofuran	Mole fraction of tetrahydrofuran	uncertainty
0.0926	0.0144	0.0004
0.15	0.0242	0.0004
0.291	0.0519	0.0004
0.3821	0.0734	0.0004
0.4923	0.105	0.0004
0.5872	0.1402	0.0005
0.6644	0.1768	0.0005
0.7328	0.2184	0.0006
0.7849	0.2597	0.0007
0.8632	0.3525	0.001
0.8942	0.407	0.0013
0.9148	0.4532	0.0016
0.9391	0.5276	0.002
0.9555	0.5954	0.0022
0.9657	0.6488	0.0027
0.9775	0.7287	0.0031
0.9839	0.7822	0.0038
0.989	0.8354	0.0044
0.9922	0.8732	0.0055
0.9969	0.9431	0.0063
0.9993	0.9865	0.0072

System: isopropylbenzene + tetrahydropyran; phases: Liquid, Gas
Fixed: Pressure, kPa = 97.3
Property: Boiling temperature at pressure P, K (Liquid); method: Ebulliometric method (Recirculating still)
Mole fraction of tetrahydropyran	Boiling temperature at pressure P, K	uncertainty
0.0924	421.32	0.15
0.2245	416.96	0.15
0.3013	414.08	0.15
0.4096	409.65	0.15
0.5263	404.24	0.16
0.6369	398.15	0.16
0.7096	393.51	0.16
0.7372	391.55	0.16
0.7667	389.36	0.16
0.8072	386.07	0.16
0.8528	381.85	0.16
0.8739	379.69	0.16
0.9043	376.2	0.16
0.9263	373.35	0.16
0.9489	370.05	0.17
0.9626	367.81	0.17
0.9775	365.15	0.17
0.9814	364.41	0.17
0.9886	362.88	0.18
0.9957	361.3	0.19
0.9973	360.85	0.19

System: isopropylbenzene + tetrahydropyran; phases: Liquid, Gas
Fixed: Pressure, kPa = 97.3
Property: Mole fraction of tetrahydropyran (Liquid); method: Index of refraction calibration data
Mole fraction of tetrahydropyran	Mole fraction of tetrahydropyran	uncertainty
0.0924	0.0227	0.0004
0.2245	0.0602	0.0004
0.3013	0.0853	0.0004
0.4096	0.1267	0.0005
0.5263	0.1823	0.0005
0.6369	0.2512	0.0007
0.7096	0.3101	0.001
0.7372	0.3364	0.0012
0.7667	0.368	0.0015
0.8072	0.4185	0.002
0.8528	0.4899	0.0028
0.8739	0.5299	0.0031
0.9043	0.5979	0.0031
0.9263	0.6582	0.0031
0.9489	0.7336	0.003
0.9626	0.7891	0.0029
0.9775	0.8599	0.0026
0.9814	0.881	0.0027
0.9886	0.9231	0.0027
0.9957	0.969	0.0029
0.9973	0.9802	0.0028
