Measured thermophysical data. Effect of Potassium Citrate Salts on the Transport Behavior of l-Alanine in Aqueous Solutions at T = (293.15 to 308.15) K
Source: J. Chem. Eng. Data, 2009, 10.1021/je800559d
Compound 1: (S)-2-aminopropanoic acid, C3H7NO2, InChI=1S/C3H7NO2/c1-2(4)3(5)6/h2H,4H2,1H3,(H,5,6)/t2-/m0/s1
Compound 2: potassium dihydrogen citrate, C6H7KO7, InChI=1S/C6H8O7.K/c7-3(8)1-6(13,5(11)12)2-4(9)10;/h13H,1-2H2,(H,7,8)(H,9,10)(H,11,12);/q;+1/p-1
Compound 3: potassium citrate, C6H5K3O7, InChI=1S/C6H8O7.3K/c7-3(8)1-6(13,5(11)12)2-4(9)10;;;/h13H,1-2H2,(H,7,8)(H,9,10)(H,11,12);;;/q;3*+1/p-3
Compound 4: water, H2O, InChI=1S/H2O/h1H2

System: water; phases: Liquid
Fixed: Pressure, kPa = 101
Property: Viscosity, Pa*s (Liquid); method: CAPTUB::UFactor:2
Temperature, K	Viscosity, Pa*s	uncertainty
293.15	0.001002	1.2e-05
298.15	0.00089	1.1e-05
303.15	0.000797	1e-05
308.15	0.000719	9e-06

System: potassium dihydrogen citrate + water; phases: Liquid
Fixed: Pressure, kPa = 101
Property: Viscosity, Pa*s (Liquid); method: CAPTUB:UFactor:2
Temperature, K	Amount concentration (molarity), mol/dm3 of potassium dihydrogen citrate	Viscosity, Pa*s	uncertainty
293.15	0	0.001002	1.2e-05
293.15	0.0215	0.001013	1.3e-05
293.15	0.0659	0.00104	1.3e-05
293.15	0.1082	0.001064	1.3e-05
293.15	0.154	0.001087	1.3e-05
293.15	0.1998	0.001113	1.4e-05
293.15	0.246	0.001142	1.4e-05
293.15	0.2872	0.001169	1.4e-05
293.15	0.339	0.001201	1.5e-05
298.15	0	0.00089	1.1e-05
298.15	0.0215	0.000897	1.1e-05
298.15	0.0658	0.000923	1.2e-05
298.15	0.108	0.000942	1.2e-05
298.15	0.1538	0.000963	1.2e-05
298.15	0.1996	0.000986	1.2e-05
298.15	0.2457	0.001014	1.3e-05
298.15	0.2868	0.00104	1.3e-05
298.15	0.3385	0.001067	1.3e-05
303.15	0	0.000797	1e-05
303.15	0.0214	0.000806	1e-05
303.15	0.0657	0.000831	1.1e-05
303.15	0.1079	0.000851	1.1e-05
303.15	0.1535	0.000869	1.1e-05
303.15	0.1992	0.000886	1.1e-05
303.15	0.2453	0.000907	1.1e-05
303.15	0.2863	0.000928	1.2e-05
303.15	0.3379	0.000957	1.2e-05
308.15	0	0.000719	9e-06
308.15	0.0214	0.000727	9e-06
308.15	0.0656	0.000751	1e-05
308.15	0.1077	0.000763	1e-05
308.15	0.1533	0.000778	1e-05
308.15	0.1989	0.000795	1e-05
308.15	0.2448	0.000813	1e-05
308.15	0.2858	0.000831	1.1e-05
308.15	0.3373	0.000854	1.1e-05

System: potassium dihydrogen citrate + water; phases: Liquid
Fixed: Pressure, kPa = 101
Property: Viscosity, Pa*s (Liquid); method: CAPTUB::UFactor:2
Temperature, K	Molality, mol/kg of potassium dihydrogen citrate	Viscosity, Pa*s	uncertainty
293.15	0.18	0.001074	1.4e-05
293.15	0.5	0.001237	1.6e-05
293.15	1	0.001419	1.8e-05
298.15	0.18	0.000954	1.2e-05
298.15	0.5	0.001089	1.4e-05
298.15	1	0.001253	1.6e-05
303.15	0.18	0.000853	1.1e-05
303.15	0.5	0.00097	1.3e-05
303.15	1	0.001117	1.4e-05
308.15	0.18	0.000766	1e-05
308.15	0.5	0.000876	1.1e-05
308.15	1	0.001002	1.3e-05

System: potassium citrate + water; phases: Liquid
Fixed: Pressure, kPa = 101
Property: Viscosity, Pa*s (Liquid); method: CAPTUB:UFactor:2
Temperature, K	Amount concentration (molarity), mol/dm3 of potassium citrate	Viscosity, Pa*s	uncertainty
293.15	0	0.001002	1.2e-05
293.15	0.0073	0.001015	1.3e-05
293.15	0.0145	0.001014	1.3e-05
293.15	0.0441	0.001043	1.3e-05
293.15	0.0726	0.001064	1.3e-05
293.15	0.1035	0.001084	1.3e-05
293.15	0.1335	0.001106	1.4e-05
293.15	0.1655	0.001133	1.4e-05
293.15	0.1949	0.001158	1.4e-05
293.15	0.2281	0.001192	1.4e-05
298.15	0	0.00089	1.1e-05
298.15	0.0072	0.0009	1.1e-05
298.15	0.0145	0.000899	1.1e-05
298.15	0.0441	0.000922	1.2e-05
298.15	0.0725	0.000945	1.2e-05
298.15	0.1034	0.000966	1.2e-05
298.15	0.1333	0.000991	1.2e-05
298.15	0.1653	0.001013	1.3e-05
298.15	0.1947	0.001032	1.3e-05
298.15	0.2278	0.00106	1.3e-05
303.15	0	0.000797	1e-05
303.15	0.0072	0.000809	1e-05
303.15	0.0145	0.000804	1e-05
303.15	0.044	0.000838	1.1e-05
303.15	0.0724	0.000855	1.1e-05
303.15	0.1032	0.000871	1.1e-05
303.15	0.1331	0.000891	1.1e-05
303.15	0.165	0.000912	1.1e-05
303.15	0.1944	0.000932	1.2e-05
303.15	0.2274	0.000959	1.2e-05
308.15	0	0.000719	9e-06
308.15	0.0072	0.000729	9e-06
308.15	0.0144	0.000728	9e-06
308.15	0.0439	0.000752	1e-05
308.15	0.0723	0.000767	1e-05
308.15	0.1031	0.000784	1e-05
308.15	0.1329	0.0008	1e-05
308.15	0.1647	0.000817	1e-05
308.15	0.194	0.000831	1.1e-05
308.15	0.227	0.00085	1.1e-05

System: potassium citrate + water; phases: Liquid
Fixed: Pressure, kPa = 101
Property: Viscosity, Pa*s (Liquid); method: CAPTUB::UFactor:2
Temperature, K	Molality, mol/kg of potassium citrate	Viscosity, Pa*s	uncertainty
293.15	0.14	0.001072	1.4e-05
293.15	0.5	0.001265	1.6e-05
293.15	1	0.001478	1.8e-05
298.15	0.14	0.000946	1.2e-05
298.15	0.5	0.001123	1.4e-05
298.15	1	0.00132	1.6e-05
303.15	0.14	0.000844	1.1e-05
303.15	0.5	0.001003	1.3e-05
303.15	1	0.001187	1.5e-05
308.15	0.14	0.000758	1e-05
308.15	0.5	0.000908	1.2e-05
308.15	1	0.00107	1.4e-05

System: (S)-2-aminopropanoic acid + water; phases: Liquid
Fixed: Pressure, kPa = 101
Property: Viscosity, Pa*s (Liquid); method: CAPTUB:UFactor:2
Temperature, K	Amount concentration (molarity), mol/dm3 of (S)-2-aminopropanoic acid	Viscosity, Pa*s	uncertainty
293.15	0.1684	0.001026	1.3e-05
293.15	0.2801	0.001068	1.4e-05
293.15	0.3958	0.0011	1.4e-05
293.15	0.5133	0.001128	1.4e-05
293.15	0.6276	0.001155	1.5e-05
293.15	0.7429	0.001207	1.5e-05
293.15	0.8563	0.001242	1.6e-05
298.15	0.1682	0.00091	1.2e-05
298.15	0.2798	0.000939	1.2e-05
298.15	0.3953	0.00097	1.3e-05
298.15	0.5126	0.000995	1.3e-05
298.15	0.6268	0.001024	1.3e-05
298.15	0.742	0.001063	1.4e-05
298.15	0.8551	0.0011	1.4e-05
303.15	0.1679	0.000814	1.1e-05
303.15	0.2794	0.000838	1.1e-05
303.15	0.3947	0.000865	1.1e-05
303.15	0.5118	0.000888	1.2e-05
303.15	0.6258	0.000914	1.2e-05
303.15	0.7408	0.000953	1.2e-05
303.15	0.8538	0.000977	1.3e-05
308.15	0.1677	0.000732	1e-05
308.15	0.2789	0.000754	1e-05
308.15	0.3941	0.000775	1e-05
308.15	0.511	0.000802	1.1e-05
308.15	0.6248	0.000823	1.1e-05
308.15	0.7396	0.00085	1.1e-05
308.15	0.8523	0.000877	1.1e-05

System: (S)-2-aminopropanoic acid + potassium dihydrogen citrate + water; phases: Liquid
Fixed: Pressure, kPa = 101
Property: Viscosity, Pa*s (Liquid); method: CAPTUB:UFactor:2
Temperature, K	Solvent: Molality, mol/kg of potassium dihydrogen citrate	Amount concentration (molarity), mol/dm3 of (S)-2-aminopropanoic acid	Viscosity, Pa*s	uncertainty
293.15	0	0	0.001002	1.3e-05
293.15	0	0.1684	0.001026	1.3e-05
293.15	0	0.2801	0.001068	1.4e-05
293.15	0	0.3958	0.0011	1.4e-05
293.15	0	0.5133	0.001128	1.4e-05
293.15	0	0.6276	0.001155	1.5e-05
293.15	0	0.7429	0.001207	1.5e-05
293.15	0	0.8563	0.001242	1.6e-05
293.15	0.18	0	0.001074	1.4e-05
293.15	0.18	0.0571	0.001091	1.4e-05
293.15	0.18	0.17	0.001124	1.4e-05
293.15	0.18	0.287	0.001161	1.5e-05
293.15	0.18	0.405	0.001199	1.5e-05
293.15	0.18	0.5235	0.001239	1.6e-05
293.15	0.18	0.6364	0.001283	1.6e-05
293.15	0.18	0.7561	0.001335	1.7e-05
293.15	0.18	0.8756	0.001385	1.7e-05
293.15	0.5	0	0.001237	1.6e-05
293.15	0.5	0.0588	0.001256	1.6e-05
293.15	0.5	0.1751	0.001301	1.6e-05
293.15	0.5	0.2957	0.001349	1.7e-05
293.15	0.5	0.4156	0.001393	1.7e-05
293.15	0.5	0.5361	0.001437	1.8e-05
293.15	0.5	0.6576	0.001485	1.8e-05
293.15	0.5	0.7752	0.00154	1.9e-05
293.15	0.5	0.9043	0.001597	2e-05
293.15	1	0	0.001419	1.8e-05
293.15	1	0.0579	0.001442	1.8e-05
293.15	1	0.1829	0.001495	1.8e-05
293.15	1	0.3057	0.001553	1.9e-05
293.15	1	0.4294	0.001611	2e-05
293.15	1	0.554	0.001674	2e-05
293.15	1	0.6741	0.001744	2.1e-05
293.15	1	0.8023	0.001821	2.2e-05
293.15	1	0.8973	0.001876	2.3e-05
298.15	0	0	0.00089	1.2e-05
298.15	0	0.1682	0.00091	1.2e-05
298.15	0	0.2798	0.000939	1.2e-05
298.15	0	0.3953	0.00097	1.3e-05
298.15	0	0.5126	0.000995	1.3e-05
298.15	0	0.6268	0.001024	1.3e-05
298.15	0	0.742	0.001063	1.4e-05
298.15	0	0.8551	0.0011	1.4e-05
298.15	0.18	0	0.000954	1.2e-05
298.15	0.18	0.057	0.000969	1.2e-05
298.15	0.18	0.1697	0.000997	1.3e-05
298.15	0.18	0.2866	0.001027	1.3e-05
298.15	0.18	0.4044	0.001062	1.4e-05
298.15	0.18	0.5228	0.001101	1.4e-05
298.15	0.18	0.6355	0.001136	1.4e-05
298.15	0.18	0.755	0.001177	1.5e-05
298.15	0.18	0.8743	0.001224	1.5e-05
298.15	0.5	0	0.001089	1.4e-05
298.15	0.5	0.0587	0.001109	1.4e-05
298.15	0.5	0.1748	0.001149	1.5e-05
298.15	0.5	0.2952	0.001193	1.5e-05
298.15	0.5	0.4149	0.001234	1.5e-05
298.15	0.5	0.5352	0.001278	1.6e-05
298.15	0.5	0.6565	0.001324	1.6e-05
298.15	0.5	0.7739	0.001376	1.7e-05
298.15	0.5	0.9028	0.001435	1.8e-05
298.15	1	0	0.001253	1.6e-05
298.15	1	0.0578	0.001269	1.6e-05
298.15	1	0.1826	0.001316	1.6e-05
298.15	1	0.3052	0.001362	1.7e-05
298.15	1	0.4286	0.001417	1.8e-05
298.15	1	0.5529	0.001476	1.8e-05
298.15	1	0.6728	0.001544	1.9e-05
298.15	1	0.8009	0.00161	2e-05
298.15	1	0.8956	0.001658	2e-05
303.15	0	0	0.000797	1.1e-05
303.15	0	0.1679	0.000814	1.1e-05
303.15	0	0.2794	0.000838	1.1e-05
303.15	0	0.3947	0.000865	1.1e-05
303.15	0	0.5118	0.000888	1.2e-05
303.15	0	0.6258	0.000914	1.2e-05
303.15	0	0.7408	0.000953	1.2e-05
303.15	0	0.8538	0.000977	1.3e-05
303.15	0.18	0	0.000853	1.1e-05
303.15	0.18	0.0569	0.000865	1.1e-05
303.15	0.18	0.1695	0.000891	1.2e-05
303.15	0.18	0.2862	0.000922	1.2e-05
303.15	0.18	0.4037	0.000951	1.2e-05
303.15	0.18	0.5219	0.00098	1.3e-05
303.15	0.18	0.6344	0.001013	1.3e-05
303.15	0.18	0.7538	0.001043	1.3e-05
303.15	0.18	0.8729	0.001087	1.4e-05
303.15	0.5	0	0.00097	1.3e-05
303.15	0.5	0.0586	0.000986	1.3e-05
303.15	0.5	0.1745	0.001022	1.3e-05
303.15	0.5	0.2947	0.001058	1.3e-05
303.15	0.5	0.4141	0.001092	1.4e-05
303.15	0.5	0.5342	0.001126	1.4e-05
303.15	0.5	0.6553	0.001164	1.5e-05
303.15	0.5	0.7724	0.001202	1.5e-05
303.15	0.5	0.9012	0.001249	1.6e-05
303.15	1	0	0.001117	1.4e-05
303.15	1	0.0577	0.001137	1.4e-05
303.15	1	0.1822	0.001177	1.5e-05
303.15	1	0.3046	0.001215	1.5e-05
303.15	1	0.4278	0.001256	1.6e-05
303.15	1	0.5519	0.001302	1.6e-05
303.15	1	0.6715	0.001357	1.7e-05
303.15	1	0.7993	0.001413	1.7e-05
303.15	1	0.8938	0.00146	1.8e-05
308.15	0	0	0.000719	1e-05
308.15	0	0.1677	0.000732	1e-05
308.15	0	0.2789	0.000754	1e-05
308.15	0	0.3941	0.000775	1e-05
308.15	0	0.511	0.000802	1.1e-05
308.15	0	0.6248	0.000823	1.1e-05
308.15	0	0.7396	0.00085	1.1e-05
308.15	0	0.8523	0.000877	1.1e-05
308.15	0.18	0	0.000766	1e-05
308.15	0.18	0.0568	0.000777	1e-05
308.15	0.18	0.1692	0.0008	1.1e-05
308.15	0.18	0.2857	0.000826	1.1e-05
308.15	0.18	0.403	0.000852	1.1e-05
308.15	0.18	0.521	0.00088	1.1e-05
308.15	0.18	0.6333	0.000905	1.2e-05
308.15	0.18	0.7524	0.000937	1.2e-05
308.15	0.18	0.8712	0.00098	1.3e-05
308.15	0.5	0	0.000876	1.1e-05
308.15	0.5	0.0585	0.000889	1.2e-05
308.15	0.5	0.1742	0.000919	1.2e-05
308.15	0.5	0.2941	0.000953	1.2e-05
308.15	0.5	0.4133	0.000984	1.3e-05
308.15	0.5	0.5332	0.001015	1.3e-05
308.15	0.5	0.654	0.00105	1.3e-05
308.15	0.5	0.7709	0.001086	1.4e-05
308.15	0.5	0.8994	0.001127	1.4e-05
308.15	1	0	0.001002	1.3e-05
308.15	1	0.0576	0.001019	1.3e-05
308.15	1	0.1818	0.001056	1.3e-05
308.15	1	0.304	0.001091	1.4e-05
308.15	1	0.4269	0.00113	1.4e-05
308.15	1	0.5507	0.001173	1.5e-05
308.15	1	0.6701	0.001213	1.5e-05
308.15	1	0.7976	0.001259	1.6e-05
308.15	1	0.892	0.001302	1.6e-05

System: (S)-2-aminopropanoic acid + potassium citrate + water; phases: Liquid
Fixed: Pressure, kPa = 101
Property: Viscosity, Pa*s (Liquid); method: CAPTUB:UFactor:2
Temperature, K	Solvent: Molality, mol/kg of potassium citrate	Amount concentration (molarity), mol/dm3 of (S)-2-aminopropanoic acid	Viscosity, Pa*s	uncertainty
293.15	0.14	0	0.001072	1.4e-05
293.15	0.14	0.0577	0.001085	1.4e-05
293.15	0.14	0.1722	0.00112	1.4e-05
293.15	0.14	0.2875	0.001156	1.5e-05
293.15	0.14	0.4045	0.001192	1.5e-05
293.15	0.14	0.515	0.001234	1.5e-05
293.15	0.14	0.6327	0.001277	1.6e-05
293.15	0.14	0.7522	0.001322	1.6e-05
293.15	0.14	0.8659	0.00137	1.7e-05
293.15	0.5	0	0.001265	1.6e-05
293.15	0.5	0.061	0.001287	1.6e-05
293.15	0.5	0.1819	0.00133	1.7e-05
293.15	0.5	0.3017	0.00138	1.7e-05
293.15	0.5	0.4272	0.001432	1.8e-05
293.15	0.5	0.5494	0.001482	1.8e-05
293.15	0.5	0.6755	0.001531	1.9e-05
293.15	0.5	0.7929	0.001591	1.9e-05
293.15	0.5	0.9149	0.001645	2e-05
293.15	1	0	0.001478	1.8e-05
293.15	1	0.0641	0.001507	1.9e-05
293.15	1	0.1898	0.001558	1.9e-05
293.15	1	0.2977	0.001605	2e-05
293.15	1	0.4485	0.001683	2.1e-05
293.15	1	0.5747	0.001747	2.1e-05
293.15	1	0.7056	0.001816	2.2e-05
293.15	1	0.8338	0.001884	2.3e-05
293.15	1	0.9662	0.001973	2.4e-05
298.15	0.14	0	0.000946	1.2e-05
298.15	0.14	0.0576	0.00096	1.2e-05
298.15	0.14	0.1719	0.000989	1.3e-05
298.15	0.14	0.2871	0.001024	1.3e-05
298.15	0.14	0.404	0.001063	1.4e-05
298.15	0.14	0.5143	0.001097	1.4e-05
298.15	0.14	0.6318	0.001135	1.4e-05
298.15	0.14	0.7512	0.001171	1.5e-05
298.15	0.14	0.8647	0.001211	1.5e-05
298.15	0.5	0	0.001123	1.4e-05
298.15	0.5	0.0609	0.001145	1.4e-05
298.15	0.5	0.1816	0.001182	1.5e-05
298.15	0.5	0.3012	0.001232	1.5e-05
298.15	0.5	0.4265	0.001276	1.6e-05
298.15	0.5	0.5486	0.00132	1.6e-05
298.15	0.5	0.6744	0.00136	1.7e-05
298.15	0.5	0.7916	0.001404	1.7e-05
298.15	0.5	0.9134	0.001453	1.8e-05
298.15	1	0	0.00132	1.6e-05
298.15	1	0.064	0.001342	1.7e-05
298.15	1	0.1895	0.001389	1.7e-05
298.15	1	0.2972	0.001431	1.8e-05
298.15	1	0.4478	0.001496	1.8e-05
298.15	1	0.5737	0.001551	1.9e-05
298.15	1	0.7043	0.001609	2e-05
298.15	1	0.8324	0.001675	2e-05
298.15	1	0.9645	0.00175	2.1e-05
303.15	0.14	0	0.000844	1.1e-05
303.15	0.14	0.0575	0.000859	1.1e-05
303.15	0.14	0.1717	0.00089	1.2e-05
303.15	0.14	0.2867	0.000923	1.2e-05
303.15	0.14	0.4033	0.000955	1.2e-05
303.15	0.14	0.5134	0.000987	1.3e-05
303.15	0.14	0.6308	0.001019	1.3e-05
303.15	0.14	0.75	0.001055	1.3e-05
303.15	0.14	0.8633	0.001084	1.4e-05
303.15	0.5	0	0.001003	1.3e-05
303.15	0.5	0.0608	0.001022	1.3e-05
303.15	0.5	0.1813	0.001062	1.4e-05
303.15	0.5	0.3007	0.0011	1.4e-05
303.15	0.5	0.4258	0.001142	1.4e-05
303.15	0.5	0.5476	0.001178	1.5e-05
303.15	0.5	0.6732	0.001214	1.5e-05
303.15	0.5	0.7903	0.00125	1.6e-05
303.15	0.5	0.9118	0.001297	1.6e-05
303.15	1	0	0.001187	1.5e-05
303.15	1	0.0639	0.001209	1.5e-05
303.15	1	0.1892	0.001245	1.6e-05
303.15	1	0.2967	0.001281	1.6e-05
303.15	1	0.447	0.001335	1.7e-05
303.15	1	0.5727	0.001382	1.7e-05
303.15	1	0.7031	0.001435	1.8e-05
303.15	1	0.8309	0.001486	1.8e-05
303.15	1	0.9628	0.001553	1.9e-05
308.15	0.14	0	0.000758	1e-05
308.15	0.14	0.0574	0.000772	1e-05
308.15	0.14	0.1714	0.000799	1.1e-05
308.15	0.14	0.2862	0.000825	1.1e-05
308.15	0.14	0.4026	0.00085	1.1e-05
308.15	0.14	0.5125	0.000878	1.1e-05
308.15	0.14	0.6297	0.000906	1.2e-05
308.15	0.14	0.7486	0.000931	1.2e-05
308.15	0.14	0.8617	0.000965	1.2e-05
308.15	0.5	0	0.000908	1.2e-05
308.15	0.5	0.0607	0.000925	1.2e-05
308.15	0.5	0.1809	0.000959	1.2e-05
308.15	0.5	0.3001	0.000986	1.3e-05
308.15	0.5	0.425	0.001023	1.3e-05
308.15	0.5	0.5466	0.001055	1.3e-05
308.15	0.5	0.672	0.001087	1.4e-05
308.15	0.5	0.7888	0.001125	1.4e-05
308.15	0.5	0.9101	0.001164	1.5e-05
308.15	1	0	0.00107	1.4e-05
308.15	1	0.0637	0.001085	1.4e-05
308.15	1	0.1888	0.00112	1.4e-05
308.15	1	0.2961	0.001151	1.5e-05
308.15	1	0.4461	0.001202	1.5e-05
308.15	1	0.5716	0.001242	1.6e-05
308.15	1	0.7017	0.001288	1.6e-05
308.15	1	0.8293	0.001334	1.7e-05
308.15	1	0.9609	0.001397	1.7e-05
