Measured thermophysical data. Solubility of Methane in Tetrahydrofuran + Ethanol at High Pressures
Source: J. Chem. Eng. Data, 2008, 10.1021/je800354p
Compound 1: methane, CH4, InChI=1S/CH4/h1H4
Compound 2: hexane, C6H14, InChI=1S/C6H14/c1-3-5-6-4-2/h3-6H2,1-2H3
Compound 3: tetrahydrofuran, C4H8O, InChI=1S/C4H8O/c1-2-4-5-3-1/h1-4H2
Compound 4: ethanol, C2H6O, InChI=1S/C2H6O/c1-2-3/h3H,2H2,1H3

System: methane + hexane; phases: Liquid, Gas
Fixed: Temperature, K = 298.15
Property: Mole fraction of methane (Liquid); method: Chromatography
Pressure, kPa	Mole fraction of methane	uncertainty
2050	0.0982	0.0042
5050	0.2283	0.0046
8100	0.3451	0.0055

System: ethanol + methane + tetrahydrofuran; phases: Liquid, Gas
Fixed: Solvent: Mole fraction of ethanol = 0.15
Property: Mole fraction of methane (Liquid); method: Chromatography
Temperature, K	Pressure, kPa	Mole fraction of methane	uncertainty
274.45	2700	0.054	0.004
274.45	3630	0.072	0.004
274.45	4540	0.087	0.004
274.45	5370	0.104	0.004
274.45	6320	0.13	0.004
274.45	7540	0.15	0.004
274.45	8880	0.171	0.004
274.45	9370	0.176	0.004
300.15	2710	0.052	0.004
300.15	3650	0.069	0.004
300.15	4590	0.086	0.004
300.15	5500	0.103	0.004
300.15	6320	0.118	0.004
300.15	7420	0.139	0.004
300.15	8400	0.155	0.004
300.15	9400	0.173	0.004
