Measured thermophysical data. Second Virial Coefficients for Dimethyl Ether
Source: J. Chem. Eng. Data, 2009, 10.1021/je800939p
Compound 1: dimethyl ether, C2H6O, InChI=1S/C2H6O/c1-3-2/h1-2H3, purity 99.8%

System: dimethyl ether; phases: Gas
Property: Amount density, mol/m3 (Gas); method: Burnett expansion method
Temperature, K	Pressure, kPa	Amount density, mol/m3	uncertainty
343.86	55	19.2	0.7
343.86	57	19.9	0.7
343.86	75.1	26.6	0.7
343.86	83.1	29.3	0.7
343.86	86.1	30.4	0.7
343.86	113.7	40.4	0.7
343.86	125.7	44.5	0.7
343.86	130.2	46.2	0.7
343.86	171.8	61.6	0.7
343.86	189.8	67.8	0.7
343.86	196.6	70.3	0.7
343.86	259.2	93.7	0.7
343.86	285.7	103.2	0.7
343.86	295.8	107	0.8
343.86	389	142.6	0.8
343.86	428	157	0.8
343.86	442.7	162.9	0.8
343.86	578.4	217	0.8
343.86	634	239	0.8
343.86	656.4	248	0.8
343.86	851	330.3	0.9
343.86	928.6	363.7	0.9
343.86	958.9	377.4	0.9
343.86	1225.6	502.7	1
343.86	1326.5	553.5	1
343.86	1365.4	574.4	1.1
343.86	1697.3	765.1	1.2
348.96	68.9	23.6	0.7
348.96	103.9	35.9	0.7
348.96	156.7	54.7	0.7
348.96	235.8	83.2	0.7
348.96	353.4	126.6	0.8
348.96	526.1	192.7	0.8
348.96	774.9	293.3	0.9
348.96	1121.1	446.4	1
348.96	1574.7	679.4	1.1
354.08	74.3	25.2	0.7
354.08	112.2	38.4	0.7
354.08	169.4	58.4	0.7
354.08	255.2	88.9	0.7
354.08	382.7	135.3	0.7
354.08	569.9	205.9	0.8
354.08	839.2	313.4	0.9
354.08	1212.9	477	1
354.08	1701.3	726	1
359.21	94.1	31.5	0.7
359.21	142	47.9	0.7
359.21	214.2	72.9	0.7
359.21	321.8	111	0.7
359.21	480.9	168.9	0.8
359.21	712.4	257.1	0.8
359.21	1040.8	391.3	0.9
359.21	1486.8	595.6	1
359.21	2045.9	906.5	1.2
364.35	103.8	34.6	0.7
364.35	157.1	52.6	0.7
364.35	237.3	80.1	0.7
364.35	357.2	121.9	0.7
364.35	534.5	185.5	0.7
364.35	790.3	282.3	0.8
364.35	1155.7	429.7	0.8
364.35	1647.7	654	1
364.35	2259.6	995.3	1.3
364.36	119.1	39.9	0.7
364.36	180.2	60.7	0.7
364.36	272.1	92.4	0.7
364.36	409	140.7	0.7
364.36	610.7	214.1	0.8
364.36	901.9	325.9	0.8
364.36	1309.2	496	0.9
364.36	1848.5	755	1.2
364.36	2485.7	1149.1	1.4
369.49	86.2	28.1	0.7
369.49	130.5	42.7	0.7
369.49	197	65	0.7
369.49	296.6	98.9	0.7
369.49	444.6	150.5	0.7
369.49	661.6	229.1	0.8
369.49	973.6	348.7	0.8
369.49	1407	530.7	1
369.49	1975.9	807.7	1
374.64	132.6	42.8	0.7
374.64	200.4	65.2	0.7
374.64	302.1	99.3	0.7
374.64	453.2	151.1	0.7
374.64	675.1	229.9	0.7
374.64	994.8	350	0.8
374.64	1440.5	532.6	0.9
374.64	2029.1	810.7	1.1
374.64	2729.9	1233.8	1.3
379.8	103.8	33.1	0.6
379.8	157.1	50.3	0.7
379.8	237.5	76.6	0.7
379.8	357.9	116.6	0.7
379.8	536.5	177.5	0.7
379.8	797.9	270.1	0.7
379.8	1171.8	411.1	0.8
379.8	1687.2	625.7	0.9
379.8	2352.9	952.3	1.2
379.8	3118.3	1449.4	1.4
384.95	128.9	40.7	0.6
384.95	195.1	62	0.7
384.95	294.6	94.3	0.7
384.95	443.1	143.6	0.7
384.95	662.2	218.5	0.7
384.95	980.3	332.6	0.8
384.95	1429.4	506.2	0.8
384.95	2045.7	770.4	1
384.95	2791	1172.5	1.4
384.95	3591.8	1784.6	1.9
390.14	197.5	61.7	0.6
390.14	298.4	94	0.6
390.14	448.9	143	0.7
390.14	671.4	217.7	0.7
390.14	995.2	331.4	0.7
390.14	1454	504.3	0.8
390.14	2077	767.6	0.9
390.14	2861.5	1168.2	1.2
390.14	3721.9	1778	1.8
390.15	224.4	69.7	0.6
390.15	338	106.2	0.7
390.15	507	161.6	0.7
390.15	755.4	245.9	0.7
390.15	1113.4	374.3	0.8
390.15	1614.4	569.6	0.9
390.15	2291.3	867	1.1
390.15	3094.9	1319.5	1.5
390.15	3936.5	2008.2	2.7
393.24	147.7	45.5	0.6
393.24	223.5	69.2	0.6
393.24	337.3	105.4	0.6
393.24	506.7	160.4	0.7
393.24	756.1	244.1	0.7
393.24	1116.9	371.5	0.7
393.24	1623.8	565.4	0.8
393.24	2302.3	860.5	1
393.24	3137.7	1309.6	1.4
393.24	4015.2	1993.2	2
