Measured thermophysical data. Densities and Excess Volumes of the 1-Chlorobutane + n-Hexane System at Temperatures from (283.15 to 333.15) K and Pressures from (0.1 to 35) MPa
Source: J. Chem. Eng. Data, 2008, 10.1021/je800012v
Compound 1: 1-chlorobutane, C4H9Cl, InChI=1S/C4H9Cl/c1-2-3-4-5/h2-4H2,1H3
Compound 2: hexane, C6H14, InChI=1S/C6H14/c1-3-5-6-4-2/h3-6H2,1-2H3

System: 1-chlorobutane; phases: Liquid
Property: Mass density, kg/m3 (Liquid); method: VIBTUB:UFactor:2
Temperature, K	Pressure, kPa	Mass density, kg/m3	uncertainty
283.15	100	897.21	0.17
283.15	2500	899.51	0.19
283.15	5000	901.82	0.2
283.15	10000	906.3	0.24
283.15	15000	910.57	0.26
283.15	20000	914.69	0.29
283.15	25000	918.63	0.31
283.15	30000	922.33	0.34
283.15	35000	926.05	0.36
293.15	100	886.18	0.18
293.15	2500	888.63	0.2
293.15	5000	891.13	0.21
293.15	10000	895.89	0.25
293.15	20000	904.73	0.31
293.15	25000	908.9	0.34
293.15	30000	912.88	0.36
293.15	35000	916.77	0.38
298.15	100	880.63	0.18
298.15	2500	883.17	0.2
298.15	5000	885.72	0.22
298.15	10000	890.65	0.25
298.15	15000	895.36	0.29
298.15	20000	899.79	0.32
298.15	25000	904.09	0.35
298.15	30000	908.22	0.37
298.15	35000	912.17	0.4
303.15	100	874.92	0.18
303.15	2500	877.59	0.21
303.15	5000	880.23	0.22
303.15	10000	885.43	0.26
303.15	15000	890.24	0.29
303.15	20000	894.84	0.33
303.15	25000	899.24	0.36
303.15	30000	903.46	0.39
303.15	35000	907.47	0.41
313.15	100	863.82	0.19
313.15	2500	866.65	0.21
313.15	5000	869.49	0.23
313.15	10000	874.93	0.27
313.15	15000	880.07	0.31
313.15	20000	884.94	0.35
313.15	25000	889.61	0.38
313.15	30000	894.04	0.41
313.15	35000	898.33	0.44
323.15	100	852.43	0.2
323.15	2500	855.47	0.22
323.15	5000	858.54	0.24
323.15	10000	864.35	0.29
323.15	15000	869.85	0.33
323.15	20000	875.03	0.37
323.15	25000	879.94	0.4
323.15	30000	884.62	0.43
323.15	35000	889.1	0.46
333.15	100	840.79	0.21
333.15	2500	844.06	0.23
333.15	5000	847.37	0.25
333.15	10000	853.61	0.3
333.15	15000	859.47	0.34
333.15	20000	864.97	0.38
333.15	25000	870.17	0.42
333.15	30000	875.12	0.46
333.15	35000	879.82	0.49

System: hexane; phases: Liquid
Property: Mass density, kg/m3 (Liquid); method: VIBTUB:UFactor:2
Temperature, K	Pressure, kPa	Mass density, kg/m3	uncertainty
283.15	100	668.07	0.32
283.15	2500	670.36	0.38
283.15	5000	672.69	0.44
283.15	10000	677.06	0.56
283.15	15000	681.19	0.68
283.15	20000	685.08	0.8
283.15	25000	688.82	0.91
283.15	30000	692.35	1.02
283.15	35000	695.65	1.12
293.15	100	659.18	0.33
293.15	2500	661.67	0.39
293.15	5000	664.17	0.45
293.15	10000	668.87	0.58
293.15	15000	673.27	0.7
293.15	20000	677.4	0.81
293.15	25000	681.33	0.93
293.15	30000	685.07	1.04
293.15	35000	688.63	1.15
298.15	100	654.61	0.33
298.15	2500	657.21	0.4
298.15	5000	659.81	0.46
298.15	10000	664.66	0.58
298.15	15000	669.24	0.7
298.15	20000	673.51	0.82
298.15	25000	677.56	0.94
298.15	30000	681.4	1.05
298.15	35000	685.02	1.16
303.15	100	649.97	0.34
303.15	2500	652.7	0.4
303.15	5000	655.36	0.46
303.15	10000	660.53	0.59
303.15	15000	665.23	0.71
303.15	20000	669.63	0.83
303.15	25000	673.81	0.95
303.15	30000	677.77	1.06
303.15	35000	681.45	1.17
313.15	100	640.82	0.35
313.15	2500	643.76	0.41
313.15	5000	646.69	0.47
313.15	10000	652.13	0.6
313.15	15000	657.16	0.73
313.15	20000	661.86	0.85
313.15	25000	666.28	0.97
313.15	30000	670.44	1.08
313.15	35000	674.41	1.2
323.15	100	631.41	0.35
323.15	2500	634.61	0.42
323.15	5000	637.8	0.48
323.15	10000	643.69	0.62
323.15	15000	649.12	0.74
323.15	20000	654.14	0.87
323.15	25000	658.84	0.99
323.15	30000	663.23	1.11
323.15	35000	667.4	1.22
333.15	100	621.8	0.36
333.15	2500	625.32	0.43
333.15	5000	628.77	0.5
333.15	10000	635.13	0.63
333.15	15000	640.94	0.76
333.15	20000	646.27	0.89
333.15	25000	651.23	1.01
333.15	30000	655.89	1.13
333.15	35000	660.3	1.25

System: 1-chlorobutane + hexane; phases: Liquid
Property: Mass density, kg/m3 (Liquid); method: VIBTUB:UFactor:2
Mole fraction of 1-chlorobutane	Temperature, K	Pressure, kPa	Mass density, kg/m3	uncertainty
0.10985	283.15	100	688.16	0.31
0.10985	283.15	2500	690.51	0.37
0.10985	283.15	5000	692.85	0.42
0.10985	283.15	10000	697.27	0.53
0.10985	283.15	15000	701.44	0.64
0.10985	283.15	20000	705.42	0.75
0.10985	283.15	25000	709.18	0.85
0.10985	283.15	30000	712.77	0.95
0.10985	283.15	35000	716.2	1.05
0.10985	293.15	100	679	0.32
0.10985	293.15	2500	681.5	0.37
0.10985	293.15	5000	684.03	0.43
0.10985	293.15	10000	688.77	0.55
0.10985	293.15	15000	693.23	0.66
0.10985	293.15	20000	697.41	0.77
0.10985	293.15	25000	701.41	0.87
0.10985	293.15	30000	705.17	0.98
0.10985	293.15	35000	708.81	1.08
0.10985	298.15	100	674.32	0.32
0.10985	298.15	2500	676.93	0.38
0.10985	298.15	5000	679.56	0.44
0.10985	298.15	10000	684.48	0.55
0.10985	298.15	15000	689.11	0.67
0.10985	298.15	20000	693.45	0.78
0.10985	298.15	25000	697.55	0.88
0.10985	298.15	30000	701.45	0.99
0.10985	298.15	35000	705.16	1.09
0.10985	303.15	100	669.66	0.33
0.10985	303.15	2500	672.37	0.38
0.10985	303.15	5000	675.06	0.44
0.10985	303.15	10000	680.26	0.56
0.10985	303.15	15000	685.01	0.67
0.10985	303.15	20000	689.49	0.79
0.10985	303.15	25000	693.71	0.89
0.10985	303.15	30000	697.71	1
0.10985	303.15	35000	701.46	1.1
0.10985	313.15	100	660.25	0.33
0.10985	313.15	2500	663.22	0.39
0.10985	313.15	5000	666.15	0.45
0.10985	313.15	10000	671.67	0.57
0.10985	313.15	15000	676.77	0.69
0.10985	313.15	20000	681.54	0.8
0.10985	313.15	25000	686.03	0.92
0.10985	313.15	30000	690.26	1.02
0.10985	313.15	35000	694.28	1.13
0.10985	323.15	100	650.68	0.34
0.10985	323.15	2500	653.88	0.4
0.10985	323.15	5000	657.08	0.46
0.10985	323.15	10000	663.04	0.59
0.10985	323.15	15000	668.53	0.71
0.10985	323.15	20000	673.62	0.82
0.10985	323.15	25000	678.38	0.94
0.10985	323.15	30000	682.82	1.05
0.10985	323.15	35000	687.05	1.15
0.10985	333.15	100	640.84	0.35
0.10985	333.15	2500	644.37	0.41
0.10985	333.15	5000	647.85	0.47
0.10985	333.15	10000	654.25	0.6
0.10985	333.15	15000	660.12	0.72
0.10985	333.15	20000	665.54	0.84
0.10985	333.15	25000	670.56	0.96
0.10985	333.15	30000	675.27	1.07
0.10985	333.15	35000	679.71	1.18
0.21203	283.15	100	707.78	0.3
0.21203	283.15	2500	710.17	0.35
0.21203	283.15	5000	712.52	0.4
0.21203	283.15	10000	716.94	0.5
0.21203	283.15	15000	721.17	0.61
0.21203	283.15	20000	725.18	0.7
0.21203	283.15	25000	728.95	0.8
0.21203	283.15	30000	732.59	0.89
0.21203	283.15	35000	736.03	0.98
0.21203	293.15	100	698.47	0.3
0.21203	293.15	2500	701.01	0.36
0.21203	293.15	5000	703.52	0.41
0.21203	293.15	10000	708.3	0.52
0.21203	293.15	15000	712.77	0.62
0.21203	293.15	20000	717.01	0.72
0.21203	293.15	25000	721.03	0.82
0.21203	293.15	30000	724.84	0.92
0.21203	293.15	35000	728.53	1.01
0.21203	298.15	100	693.72	0.31
0.21203	298.15	2500	696.34	0.36
0.21203	298.15	5000	698.96	0.42
0.21203	298.15	10000	703.92	0.52
0.21203	298.15	15000	708.6	0.63
0.21203	298.15	20000	712.95	0.73
0.21203	298.15	25000	717.1	0.83
0.21203	298.15	30000	721.06	0.93
0.21203	298.15	35000	724.8	1.02
0.21203	303.15	100	689.16	0.31
0.21203	303.15	2500	691.9	0.36
0.21203	303.15	5000	694.62	0.42
0.21203	303.15	10000	699.79	0.53
0.21203	303.15	15000	704.53	0.64
0.21203	303.15	20000	708.98	0.74
0.21203	303.15	25000	713.22	0.84
0.21203	303.15	30000	717.27	0.94
0.21203	303.15	35000	721.06	1.04
0.21203	313.15	100	679.39	0.32
0.21203	313.15	2500	682.37	0.37
0.21203	313.15	5000	685.31	0.43
0.21203	313.15	10000	690.86	0.54
0.21203	313.15	15000	695.99	0.65
0.21203	313.15	20000	700.78	0.76
0.21203	313.15	25000	705.32	0.86
0.21203	313.15	30000	709.59	0.96
0.21203	313.15	35000	713.66	1.06
0.21203	323.15	100	669.65	0.33
0.21203	323.15	2500	672.84	0.38
0.21203	323.15	5000	676.07	0.44
0.21203	323.15	10000	682.03	0.56
0.21203	323.15	15000	687.54	0.67
0.21203	323.15	20000	692.66	0.78
0.21203	323.15	25000	697.47	0.88
0.21203	323.15	30000	701.95	0.99
0.21203	323.15	35000	706.22	1.09
0.21203	333.15	100	659.59	0.33
0.21203	333.15	2500	663.28	0.39
0.21203	333.15	5000	666.6	0.45
0.21203	333.15	10000	673.04	0.57
0.21203	333.15	15000	678.96	0.69
0.21203	333.15	20000	684.42	0.8
0.21203	333.15	25000	689.51	0.91
0.21203	333.15	30000	694.27	1.01
0.21203	333.15	35000	698.78	1.11
0.29248	283.15	100	724.14	0.28
0.29248	283.15	2500	726.49	0.33
0.29248	283.15	5000	728.83	0.38
0.29248	283.15	10000	733.31	0.48
0.29248	283.15	15000	737.55	0.57
0.29248	283.15	20000	741.57	0.67
0.29248	283.15	25000	745.4	0.76
0.29248	283.15	30000	749.06	0.84
0.29248	283.15	35000	752.55	0.93
0.29248	293.15	100	714.61	0.29
0.29248	293.15	2500	717.13	0.34
0.29248	293.15	5000	719.69	0.39
0.29248	293.15	10000	724.48	0.49
0.29248	293.15	15000	728.99	0.59
0.29248	293.15	20000	733.23	0.69
0.29248	293.15	25000	737.29	0.78
0.29248	293.15	30000	741.13	0.87
0.29248	293.15	35000	744.84	0.95
0.29248	298.15	100	709.76	0.29
0.29248	298.15	2500	712.38	0.35
0.29248	298.15	5000	715.02	0.4
0.29248	298.15	10000	719.98	0.5
0.29248	298.15	15000	724.66	0.6
0.29248	298.15	20000	729.06	0.69
0.29248	298.15	25000	733.24	0.79
0.29248	298.15	30000	737.22	0.88
0.29248	298.15	35000	741	0.97
0.29248	303.15	100	704.96	0.3
0.29248	303.15	2500	707.69	0.35
0.29248	303.15	5000	710.41	0.4
0.29248	303.15	10000	715.6	0.51
0.29248	303.15	15000	720.39	0.61
0.29248	303.15	20000	724.92	0.7
0.29248	303.15	25000	729.21	0.8
0.29248	303.15	30000	733.29	0.89
0.29248	303.15	35000	737.11	0.98
0.29248	313.15	100	695.16	0.31
0.29248	313.15	2500	698.14	0.36
0.29248	313.15	5000	701.06	0.41
0.29248	313.15	10000	706.6	0.52
0.29248	313.15	15000	711.76	0.62
0.29248	313.15	20000	716.6	0.72
0.29248	313.15	25000	721.16	0.82
0.29248	313.15	30000	725.44	0.92
0.29248	313.15	35000	729.55	1.01
0.29248	323.15	100	685.16	0.31
0.29248	323.15	2500	688.38	0.37
0.29248	323.15	5000	691.59	0.42
0.29248	323.15	10000	697.57	0.53
0.29248	323.15	15000	703.11	0.64
0.29248	323.15	20000	708.23	0.74
0.29248	323.15	25000	713.06	0.84
0.29248	323.15	30000	717.58	0.94
0.29248	323.15	35000	721.89	1.03
0.29248	333.15	100	674.97	0.32
0.29248	333.15	2500	678.48	0.38
0.29248	333.15	5000	681.96	0.44
0.29248	333.15	10000	688.41	0.55
0.29248	333.15	15000	694.34	0.66
0.29248	333.15	20000	699.82	0.76
0.29248	333.15	25000	704.94	0.86
0.29248	333.15	30000	709.73	0.96
0.29248	333.15	35000	714.25	1.06
0.31601	283.15	100	728.91	0.28
0.31601	283.15	2500	731.23	0.33
0.31601	283.15	5000	733.62	0.38
0.31601	283.15	10000	738.08	0.47
0.31601	283.15	15000	742.33	0.56
0.31601	283.15	20000	746.36	0.66
0.31601	283.15	25000	750.17	0.74
0.31601	283.15	30000	753.86	0.83
0.31601	283.15	35000	757.33	0.91
0.31601	293.15	100	719.31	0.29
0.31601	293.15	2500	721.84	0.34
0.31601	293.15	5000	724.38	0.39
0.31601	293.15	10000	729.18	0.49
0.31601	293.15	15000	733.71	0.58
0.31601	293.15	20000	737.99	0.67
0.31601	293.15	25000	742.03	0.76
0.31601	293.15	30000	745.88	0.85
0.31601	293.15	35000	749.61	0.94
0.31601	298.15	100	714.52	0.29
0.31601	298.15	2500	717.11	0.34
0.31601	298.15	5000	719.75	0.39
0.31601	298.15	10000	724.72	0.49
0.31601	298.15	15000	729.39	0.59
0.31601	298.15	20000	733.8	0.68
0.31601	298.15	25000	737.94	0.78
0.31601	298.15	30000	741.91	0.86
0.31601	298.15	35000	745.72	0.95
0.31601	303.15	100	709.76	0.3
0.31601	303.15	2500	712.51	0.35
0.31601	303.15	5000	715.21	0.4
0.31601	303.15	10000	720.44	0.5
0.31601	303.15	15000	725.23	0.6
0.31601	303.15	20000	729.73	0.69
0.31601	303.15	25000	733.98	0.79
0.31601	303.15	30000	738.06	0.88
0.31601	303.15	35000	741.91	0.96
0.31601	313.15	100	699.82	0.3
0.31601	313.15	2500	702.79	0.36
0.31601	313.15	5000	705.74	0.41
0.31601	313.15	10000	711.27	0.51
0.31601	313.15	15000	716.43	0.61
0.31601	313.15	20000	721.27	0.71
0.31601	313.15	25000	725.85	0.81
0.31601	313.15	30000	730.12	0.9
0.31601	313.15	35000	734.28	0.99
0.31601	323.15	100	689.81	0.31
0.31601	323.15	2500	693.01	0.36
0.31601	323.15	5000	696.23	0.42
0.31601	323.15	10000	702.21	0.53
0.31601	323.15	15000	707.76	0.63
0.31601	323.15	20000	712.92	0.73
0.31601	323.15	25000	717.75	0.83
0.31601	323.15	30000	722.3	0.93
0.31601	323.15	35000	726.62	1.02
0.31601	333.15	100	679.61	0.32
0.31601	333.15	2500	683.13	0.37
0.31601	333.15	5000	686.6	0.43
0.31601	333.15	10000	693.04	0.54
0.31601	333.15	15000	698.97	0.65
0.31601	333.15	20000	704.46	0.75
0.31601	333.15	25000	709.59	0.85
0.31601	333.15	30000	714.38	0.95
0.31601	333.15	35000	718.92	1.04
0.40499	283.15	100	747.8	0.27
0.40499	283.15	2500	750.19	0.31
0.40499	283.15	5000	752.56	0.36
0.40499	283.15	10000	757.05	0.44
0.40499	283.15	15000	761.32	0.53
0.40499	283.15	20000	765.38	0.61
0.40499	283.15	25000	769.24	0.69
0.40499	283.15	30000	772.94	0.77
0.40499	283.15	35000	776.47	0.84
0.40499	293.15	100	738.08	0.27
0.40499	293.15	2500	740.6	0.32
0.40499	293.15	5000	743.13	0.37
0.40499	293.15	10000	747.97	0.46
0.40499	293.15	15000	752.5	0.55
0.40499	293.15	20000	756.78	0.63
0.40499	293.15	25000	760.9	0.71
0.40499	293.15	30000	764.76	0.79
0.40499	293.15	35000	768.53	0.87
0.40499	298.15	100	733.09	0.28
0.40499	298.15	2500	735.72	0.32
0.40499	298.15	5000	738.37	0.37
0.40499	298.15	10000	743.38	0.46
0.40499	298.15	15000	748.1	0.55
0.40499	298.15	20000	752.52	0.64
0.40499	298.15	25000	756.74	0.73
0.40499	298.15	30000	760.75	0.81
0.40499	298.15	35000	764.57	0.89
0.40499	303.15	100	728.25	0.28
0.40499	303.15	2500	730.98	0.33
0.40499	303.15	5000	733.71	0.38
0.40499	303.15	10000	738.89	0.47
0.40499	303.15	15000	743.69	0.56
0.40499	303.15	20000	748.24	0.65
0.40499	303.15	25000	752.58	0.74
0.40499	303.15	30000	756.71	0.82
0.40499	303.15	35000	760.56	0.9
0.40499	313.15	100	718.21	0.29
0.40499	313.15	2500	721.17	0.34
0.40499	313.15	5000	724.11	0.39
0.40499	313.15	10000	729.65	0.49
0.40499	313.15	15000	734.82	0.58
0.40499	313.15	20000	739.68	0.67
0.40499	313.15	25000	744.28	0.76
0.40499	313.15	30000	748.61	0.84
0.40499	313.15	35000	752.76	0.93
0.40499	323.15	100	708	0.3
0.40499	323.15	2500	711.21	0.35
0.40499	323.15	5000	714.41	0.4
0.40499	323.15	10000	720.41	0.5
0.40499	323.15	15000	725.96	0.6
0.40499	323.15	20000	731.15	0.69
0.40499	323.15	25000	736.01	0.78
0.40499	323.15	30000	740.59	0.87
0.40499	323.15	35000	744.94	0.95
0.40499	333.15	100	697.62	0.31
0.40499	333.15	2500	701.13	0.36
0.40499	333.15	5000	704.59	0.41
0.40499	333.15	10000	711.02	0.51
0.40499	333.15	15000	716.97	0.61
0.40499	333.15	20000	722.46	0.71
0.40499	333.15	25000	727.62	0.8
0.40499	333.15	30000	732.45	0.89
0.40499	333.15	35000	737.02	0.98
0.49777	283.15	100	768.4	0.25
0.49777	283.15	2500	770.77	0.29
0.49777	283.15	5000	773.13	0.33
0.49777	283.15	10000	777.64	0.41
0.49777	283.15	15000	781.91	0.49
0.49777	283.15	20000	785.99	0.56
0.49777	283.15	25000	789.87	0.64
0.49777	283.15	30000	793.59	0.71
0.49777	283.15	35000	797.15	0.77
0.49777	293.15	100	758.47	0.26
0.49777	293.15	2500	761	0.3
0.49777	293.15	5000	763.54	0.34
0.49777	293.15	10000	768.33	0.43
0.49777	293.15	15000	772.88	0.51
0.49777	293.15	20000	777.19	0.58
0.49777	293.15	25000	781.3	0.66
0.49777	293.15	30000	785.2	0.73
0.49777	293.15	35000	788.98	0.8
0.49777	298.15	100	753.4	0.26
0.49777	298.15	2500	756.03	0.31
0.49777	298.15	5000	758.67	0.35
0.49777	298.15	10000	763.66	0.43
0.49777	298.15	15000	768.37	0.52
0.49777	298.15	20000	772.82	0.59
0.49777	298.15	25000	777.05	0.67
0.49777	298.15	30000	781.09	0.74
0.49777	298.15	35000	784.94	0.82
0.49777	303.15	100	748.32	0.27
0.49777	303.15	2500	751.02	0.31
0.49777	303.15	5000	753.76	0.35
0.49777	303.15	10000	759.01	0.44
0.49777	303.15	15000	763.87	0.52
0.49777	303.15	20000	768.43	0.6
0.49777	303.15	25000	772.8	0.68
0.49777	303.15	30000	776.94	0.76
0.49777	303.15	35000	780.82	0.83
0.49777	313.15	100	738.18	0.27
0.49777	313.15	2500	741.14	0.32
0.49777	313.15	5000	744.08	0.37
0.49777	313.15	10000	749.65	0.46
0.49777	313.15	15000	754.83	0.54
0.49777	313.15	20000	759.7	0.63
0.49777	313.15	25000	764.34	0.71
0.49777	313.15	30000	768.68	0.78
0.49777	313.15	35000	772.87	0.86
0.49777	323.15	100	727.88	0.28
0.49777	323.15	2500	730.97	0.33
0.49777	323.15	5000	734.25	0.38
0.49777	323.15	10000	740.23	0.47
0.49777	323.15	15000	745.81	0.56
0.49777	323.15	20000	751.01	0.65
0.49777	323.15	25000	755.88	0.73
0.49777	323.15	30000	760.48	0.81
0.49777	323.15	35000	764.87	0.89
0.49777	333.15	100	717.27	0.29
0.49777	333.15	2500	720.76	0.34
0.49777	333.15	5000	724.22	0.39
0.49777	333.15	10000	730.64	0.48
0.49777	333.15	15000	736.59	0.58
0.49777	333.15	20000	742.1	0.67
0.49777	333.15	25000	747.28	0.75
0.49777	333.15	30000	752.13	0.83
0.49777	333.15	35000	756.72	0.91
0.5975	283.15	100	791.4	0.24
0.5975	283.15	2500	793.76	0.27
0.5975	283.15	5000	796.11	0.31
0.5975	283.15	10000	800.62	0.38
0.5975	283.15	15000	804.89	0.45
0.5975	283.15	20000	808.98	0.51
0.5975	283.15	25000	812.89	0.57
0.5975	283.15	30000	816.62	0.64
0.5975	283.15	35000	820.23	0.69
0.5975	293.15	100	781.32	0.24
0.5975	293.15	2500	783.84	0.28
0.5975	293.15	5000	786.39	0.32
0.5975	293.15	10000	791.18	0.39
0.5975	293.15	15000	795.72	0.46
0.5975	293.15	20000	800.04	0.53
0.5975	293.15	25000	804.2	0.6
0.5975	293.15	30000	808.12	0.66
0.5975	293.15	35000	811.92	0.72
0.5975	298.15	100	776.16	0.25
0.5975	298.15	2500	778.78	0.28
0.5975	298.15	5000	781.41	0.32
0.5975	298.15	10000	786.38	0.4
0.5975	298.15	15000	791.12	0.47
0.5975	298.15	20000	795.57	0.54
0.5975	298.15	25000	799.82	0.61
0.5975	298.15	30000	803.9	0.67
0.5975	298.15	35000	807.76	0.74
0.5975	303.15	100	770.96	0.25
0.5975	303.15	2500	773.66	0.29
0.5975	303.15	5000	776.4	0.33
0.5975	303.15	10000	781.67	0.41
0.5975	303.15	15000	786.55	0.48
0.5975	303.15	20000	791.14	0.55
0.5975	303.15	25000	795.51	0.62
0.5975	303.15	30000	799.69	0.69
0.5975	303.15	35000	803.62	0.75
0.5975	313.15	100	760.7	0.26
0.5975	313.15	2500	763.65	0.3
0.5975	313.15	5000	766.58	0.34
0.5975	313.15	10000	772.1	0.42
0.5975	313.15	15000	777.29	0.5
0.5975	313.15	20000	782.18	0.57
0.5975	313.15	25000	786.8	0.65
0.5975	313.15	30000	791.2	0.71
0.5975	313.15	35000	795.4	0.78
0.5975	323.15	100	750.16	0.27
0.5975	323.15	2500	753.32	0.31
0.5975	323.15	5000	756.52	0.35
0.5975	323.15	10000	762.49	0.44
0.5975	323.15	15000	768.07	0.52
0.5975	323.15	20000	773.25	0.59
0.5975	323.15	25000	778.17	0.67
0.5975	323.15	30000	782.79	0.74
0.5975	323.15	35000	787.22	0.81
0.5975	333.15	100	739.37	0.27
0.5975	333.15	2500	742.8	0.32
0.5975	333.15	5000	746.27	0.36
0.5975	333.15	10000	752.68	0.45
0.5975	333.15	15000	758.64	0.54
0.5975	333.15	20000	764.16	0.62
0.5975	333.15	25000	769.35	0.69
0.5975	333.15	30000	774.27	0.77
0.5975	333.15	35000	778.9	0.84
0.68694	283.15	100	813.19	0.23
0.68694	283.15	2500	815.54	0.26
0.68694	283.15	5000	817.89	0.28
0.68694	283.15	10000	822.39	0.35
0.68694	283.15	15000	826.69	0.41
0.68694	283.15	20000	830.8	0.46
0.68694	283.15	25000	834.7	0.52
0.68694	283.15	30000	838.47	0.57
0.68694	283.15	35000	842.08	0.62
0.68694	293.15	100	802.85	0.23
0.68694	293.15	2500	805.38	0.26
0.68694	293.15	5000	807.91	0.29
0.68694	293.15	10000	812.71	0.36
0.68694	293.15	15000	817.27	0.42
0.68694	293.15	20000	821.6	0.48
0.68694	293.15	25000	825.76	0.54
0.68694	293.15	30000	829.7	0.6
0.68694	293.15	35000	833.53	0.65
0.68694	298.15	100	797.59	0.23
0.68694	298.15	2500	800.23	0.27
0.68694	298.15	5000	802.86	0.3
0.68694	298.15	10000	807.84	0.37
0.68694	298.15	15000	812.57	0.43
0.68694	298.15	20000	817.04	0.49
0.68694	298.15	25000	821.3	0.55
0.68694	298.15	30000	825.39	0.61
0.68694	298.15	35000	829.27	0.66
0.68694	303.15	100	792.32	0.24
0.68694	303.15	2500	795.01	0.27
0.68694	303.15	5000	797.74	0.31
0.68694	303.15	10000	802.98	0.38
0.68694	303.15	15000	807.83	0.44
0.68694	303.15	20000	812.44	0.5
0.68694	303.15	25000	816.83	0.57
0.68694	303.15	30000	821.01	0.62
0.68694	303.15	35000	824.94	0.68
0.68694	313.15	100	781.81	0.24
0.68694	313.15	2500	784.75	0.28
0.68694	313.15	5000	787.66	0.32
0.68694	313.15	10000	793.2	0.39
0.68694	313.15	15000	798.39	0.46
0.68694	313.15	20000	803.3	0.53
0.68694	313.15	25000	807.96	0.59
0.68694	313.15	30000	812.36	0.65
0.68694	313.15	35000	816.59	0.71
0.68694	323.15	100	771.11	0.25
0.68694	323.15	2500	774.25	0.29
0.68694	323.15	5000	777.43	0.33
0.68694	323.15	10000	783.36	0.41
0.68694	323.15	15000	788.94	0.48
0.68694	323.15	20000	794.16	0.55
0.68694	323.15	25000	799.07	0.61
0.68694	323.15	30000	803.7	0.68
0.68694	323.15	35000	808.14	0.74
0.68694	333.15	100	760.13	0.26
0.68694	333.15	2500	763.57	0.3
0.68694	333.15	5000	766.97	0.34
0.68694	333.15	10000	773.35	0.42
0.68694	333.15	15000	779.29	0.5
0.68694	333.15	20000	784.83	0.57
0.68694	333.15	25000	790.03	0.64
0.68694	333.15	30000	794.94	0.7
0.68694	333.15	35000	799.6	0.77
0.82939	283.15	100	849.71	0.2
0.82939	283.15	2500	852.04	0.23
0.82939	283.15	5000	854.38	0.25
0.82939	283.15	10000	858.86	0.3
0.82939	283.15	15000	863.18	0.34
0.82939	283.15	20000	867.28	0.38
0.82939	283.15	25000	871.21	0.42
0.82939	283.15	30000	875.01	0.46
0.82939	283.15	35000	878.63	0.49
0.82939	293.15	100	839.13	0.21
0.82939	293.15	2500	841.63	0.24
0.82939	293.15	5000	844.15	0.26
0.82939	293.15	10000	848.93	0.31
0.82939	293.15	15000	853.49	0.36
0.82939	293.15	20000	857.83	0.4
0.82939	293.15	25000	861.98	0.44
0.82939	293.15	30000	865.95	0.49
0.82939	293.15	35000	869.81	0.52
0.82939	298.15	100	833.73	0.21
0.82939	298.15	2500	836.3	0.24
0.82939	298.15	5000	838.91	0.26
0.82939	298.15	10000	843.87	0.32
0.82939	298.15	15000	848.59	0.36
0.82939	298.15	20000	853.07	0.41
0.82939	298.15	25000	857.35	0.46
0.82939	298.15	30000	861.46	0.5
0.82939	298.15	35000	865.37	0.54
0.82939	303.15	100	828.52	0.22
0.82939	303.15	2500	831.2	0.24
0.82939	303.15	5000	833.88	0.27
0.82939	303.15	10000	839.08	0.32
0.82939	303.15	15000	843.86	0.37
0.82939	303.15	20000	848.41	0.42
0.82939	303.15	25000	852.75	0.47
0.82939	303.15	30000	856.96	0.51
0.82939	303.15	35000	860.94	0.55
0.82939	313.15	100	817.54	0.22
0.82939	313.15	2500	820.43	0.25
0.82939	313.15	5000	823.33	0.28
0.82939	313.15	10000	828.82	0.34
0.82939	313.15	15000	833.99	0.39
0.82939	313.15	20000	838.9	0.44
0.82939	313.15	25000	843.57	0.49
0.82939	313.15	30000	847.97	0.54
0.82939	313.15	35000	852.24	0.58
0.82939	323.15	100	806.56	0.23
0.82939	323.15	2500	809.67	0.26
0.82939	323.15	5000	812.8	0.29
0.82939	323.15	10000	818.69	0.35
0.82939	323.15	15000	824.21	0.41
0.82939	323.15	20000	829.43	0.47
0.82939	323.15	25000	834.36	0.52
0.82939	323.15	30000	839.01	0.57
0.82939	323.15	35000	843.47	0.61
0.82939	333.15	100	795.31	0.24
0.82939	333.15	2500	798.68	0.27
0.82939	333.15	5000	802.05	0.3
0.82939	333.15	10000	808.4	0.37
0.82939	333.15	15000	814.33	0.43
0.82939	333.15	20000	819.85	0.49
0.82939	333.15	25000	825.07	0.54
0.82939	333.15	30000	830	0.6
0.82939	333.15	35000	834.7	0.65
0.9025	283.15	100	869.66	0.19
0.9025	283.15	2500	871.97	0.22
0.9025	283.15	5000	874.31	0.23
0.9025	283.15	10000	878.8	0.27
0.9025	283.15	15000	883.07	0.31
0.9025	283.15	20000	887.19	0.35
0.9025	283.15	25000	891.13	0.38
0.9025	283.15	30000	894.92	0.41
0.9025	283.15	35000	898.57	0.44
0.9025	293.15	100	858.87	0.2
0.9025	293.15	2500	861.35	0.22
0.9025	293.15	5000	863.85	0.24
0.9025	293.15	10000	868.63	0.29
0.9025	293.15	15000	873.18	0.32
0.9025	293.15	20000	877.51	0.36
0.9025	293.15	25000	881.68	0.4
0.9025	293.15	30000	885.66	0.43
0.9025	293.15	35000	889.53	0.46
0.9025	298.15	100	853.37	0.2
0.9025	298.15	2500	855.94	0.23
0.9025	298.15	5000	858.53	0.25
0.9025	298.15	10000	863.49	0.29
0.9025	298.15	15000	868.18	0.33
0.9025	298.15	20000	872.66	0.37
0.9025	298.15	25000	876.94	0.41
0.9025	298.15	30000	881.06	0.44
0.9025	298.15	35000	884.99	0.48
0.9025	303.15	100	847.81	0.21
0.9025	303.15	2500	850.48	0.23
0.9025	303.15	5000	853.16	0.25
0.9025	303.15	10000	858.38	0.3
0.9025	303.15	15000	863.22	0.34
0.9025	303.15	20000	867.82	0.38
0.9025	303.15	25000	872.22	0.42
0.9025	303.15	30000	876.44	0.46
0.9025	303.15	35000	880.41	0.49
0.9025	313.15	100	836.89	0.21
0.9025	313.15	2500	839.76	0.24
0.9025	313.15	5000	842.65	0.26
0.9025	313.15	10000	848.11	0.31
0.9025	313.15	15000	853.27	0.36
0.9025	313.15	20000	858.17	0.4
0.9025	313.15	25000	862.84	0.44
0.9025	313.15	30000	867.27	0.48
0.9025	313.15	35000	871.55	0.52
0.9025	323.15	100	825.76	0.22
0.9025	323.15	2500	828.84	0.25
0.9025	323.15	5000	831.94	0.27
0.9025	323.15	10000	837.82	0.32
0.9025	323.15	15000	843.35	0.38
0.9025	323.15	20000	848.55	0.42
0.9025	323.15	25000	853.47	0.47
0.9025	323.15	30000	858.16	0.51
0.9025	323.15	35000	862.63	0.55
0.9025	333.15	100	814.35	0.23
0.9025	333.15	2500	817.7	0.26
0.9025	333.15	5000	821.05	0.28
0.9025	333.15	10000	827.36	0.34
0.9025	333.15	15000	833.22	0.39
0.9025	333.15	20000	838.75	0.45
0.9025	333.15	25000	843.95	0.49
0.9025	333.15	30000	848.89	0.54
0.9025	333.15	35000	853.59	0.58
