Measured thermophysical data. Ternary Liquid-Liquid Equilibria of Acetonitrile and Water with Heptanoic Acid and Nonanol at 323.15 K and 1 atm
Source: J. Chem. Eng. Data, 2009, 10.1021/je800404f
Compound 1: acetonitrile, C2H3N, InChI=1S/C2H3N/c1-2-3/h1H3, purity 99.9%
Compound 2: heptanoic acid, C7H14O2, InChI=1S/C7H14O2/c1-2-3-4-5-6-7(8)9/h2-6H2,1H3,(H,8,9), purity 99%
Compound 3: nonan-1-ol, C9H20O, InChI=1S/C9H20O/c1-2-3-4-5-6-7-8-9-10/h10H,2-9H2,1H3, purity 98%
Compound 4: water, H2O, InChI=1S/H2O/h1H2

System: acetonitrile; phases: Liquid
Property: Refractive index (Na D-line) (Liquid); method: Standard Abbe refractometry
Temperature, K	Pressure, kPa	Refractive index (Na D-line)	uncertainty
295.1	101.325	1.3441	0.0024

System: heptanoic acid; phases: Liquid
Property: Refractive index (Na D-line) (Liquid); method: Standard Abbe refractometry
Temperature, K	Pressure, kPa	Refractive index (Na D-line)	uncertainty
295.1	101.325	1.4175	0.0024

System: nonan-1-ol; phases: Liquid
Property: Refractive index (Na D-line) (Liquid); method: Standard Abbe refractometry
Temperature, K	Pressure, kPa	Refractive index (Na D-line)	uncertainty
295.1	101.325	1.4322	0.0024

System: water; phases: Liquid
Property: Refractive index (Na D-line) (Liquid); method: Standard Abbe refractometry
Temperature, K	Pressure, kPa	Refractive index (Na D-line)	uncertainty
295.1	101.325	1.333	0.0024

System: acetonitrile + heptanoic acid + water; phases: Liquid mixture 2, Liquid mixture 1
Fixed: Temperature, K = 323.15
Fixed: Pressure, kPa = 101
Property: Mole fraction of heptanoic acid (Liquid mixture 2); method: CHROM:UFactor:16
Property: Mole fraction of water (Liquid mixture 1); method: CHROM:UFactor:16
Property: Mole fraction of heptanoic acid (Liquid mixture 1); method: CHROM:UFactor:16
Mole fraction of water	Mole fraction of heptanoic acid	uncertainty	Mole fraction of water	uncertainty	Mole fraction of heptanoic acid	uncertainty
0.9984	0.0016	0.0003	0.2953	0.0092	0.7047	
0.9891	0.0017	0.0003	0.3309	0.0103	0.6366	
0.9787	0.0019	0.0003	0.3839	0.0119	0.5386	
0.9693	0.0021	0.0003	0.4109	0.0127	0.4739	
0.9579	0.0024	0.0003	0.4486	0.0139	0.3839	
0.9407	0.0036	0.0005	0.4826	0.015	0.2823	
0.9086	0.004	0.0005	0.5385	0.0143	0.1489	

System: acetonitrile + nonan-1-ol + water; phases: Liquid mixture 2, Liquid mixture 1
Fixed: Temperature, K = 323.15
Fixed: Pressure, kPa = 101
Property: Mole fraction of nonan-1-ol (Liquid mixture 2); method: CHROM:UFactor:16
Property: Mole fraction of water (Liquid mixture 1); method: CHROM:UFactor:16
Property: Mole fraction of nonan-1-ol (Liquid mixture 1); method: CHROM:UFactor:16
Mole fraction of water	Mole fraction of nonan-1-ol	uncertainty	Mole fraction of water	uncertainty	Mole fraction of nonan-1-ol	uncertainty
0.9965	0.0035	0.0004	0.2604	0.0081	0.7396	
0.9901	0.0023	0.0003	0.263	0.0081	0.7163	
0.9683	0.0026	0.0004	0.2687	0.0083	0.646	
0.9381	0.0028	0.0004	0.2849	0.0088	0.5391	
0.9223	0.0037	0.0005	0.2873	0.0089	0.4872	
0.9026	0.0027	0.0004	0.2987	0.0093	0.4091	
0.8768	0.0035	0.0004	0.3177	0.0098	0.3329	
0.8568	0.0034	0.0004	0.3426	0.0106	0.2557	
0.8325	0.002	0.0003	0.3726	0.0115	0.1782	
