Measured thermophysical data. Sublimation Thermodynamic Parameters for Cholesterol, Ergosterol,
Source: J. Chem. Eng. Data, 2009, 10.1021/je800395m
Compound 1: .DELTA.5-cholesten-3.beta.-ol, C27H46O, InChI=1S/C27H46O/c1-18(2)7-6-8-19(3)23-11-12-24-22-10-9-20-17-21(28)13-15-26(20,4)25(22)14-16-27(23,24)5/h9,18-19,21-25,28H,6-8,10-17H2,1-5H3/t19-,21+,22+,23-,24+,25+,26+,27-/m1/s1
Compound 2: (22E)-ergosta-5,7,22-trien-3.beta.-ol, C28H44O, InChI=1S/C28H44O/c1-18(2)19(3)7-8-20(4)24-11-12-25-23-10-9-21-17-22(29)13-15-27(21,5)26(23)14-16-28(24,25)6/h7-10,18-20,22,24-26,29H,11-17H2,1-6H3/b8-7+/t19-,20+,22-,24+,25-,26-,27-,28+/m0/s1
Compound 3: .beta.-sitosterol, C29H50O, InChI=1S/C29H50O/c1-7-21(19(2)3)9-8-20(4)25-12-13-26-24-11-10-22-18-23(30)14-16-28(22,5)27(24)15-17-29(25,26)6/h10,19-21,23-27,30H,7-9,11-18H2,1-6H3/t20-,21-,23+,24+,25-,26+,27+,28+,29-/m1/s1
Compound 4: (22E)-stigmasta-5,22-dien-3.beta.-ol, C29H48O, InChI=1S/C29H48O/c1-7-21(19(2)3)9-8-20(4)25-12-13-26-24-11-10-22-18-23(30)14-16-28(22,5)27(24)15-17-29(25,26)6/h8-10,19-21,23-27,30H,7,11-18H2,1-6H3/b9-8+/t20-,21-,23+,24+,25-,26+,27+,28+,29-/m1/s1
Compound 5: anthracene, C14H10, InChI=1S/C14H10/c1-2-6-12-10-14-8-4-3-7-13(14)9-11(12)5-1/h1-10H
Compound 6: 2,3-benzanthracene, C18H12, InChI=1S/C18H12/c1-2-6-14-10-18-12-16-8-4-3-7-15(16)11-17(18)9-13(14)5-1/h1-12H

System: .DELTA.5-cholesten-3.beta.-ol; phases: Crystal, Liquid, Air at 1 atmosphere
Property: Normal melting temperature, K (Crystal); method: DTA
Normal melting temperature, K	uncertainty
421	1

System: .DELTA.5-cholesten-3.beta.-ol; phases: Crystal, Gas
Property: Vapor or sublimation pressure, kPa (Crystal); method: Calculated from knudsen effusion weight loss
Temperature, K	Vapor or sublimation pressure, kPa	uncertainty
386.6	1.18e-05	7e-07
392	2.13e-05	1.2e-06
397.3	3.95e-05	2.2e-06
403.1	7.14e-05	3.9e-06
408.2	0.0001251	6.8e-06
413.8	0.0002146	1.12e-05

System: (22E)-ergosta-5,7,22-trien-3.beta.-ol; phases: Crystal, Liquid, Air at 1 atmosphere
Property: Normal melting temperature, K (Crystal); method: DTA
Normal melting temperature, K	uncertainty
431	1

System: (22E)-ergosta-5,7,22-trien-3.beta.-ol; phases: Crystal, Gas
Property: Vapor or sublimation pressure, kPa (Crystal); method: Calculated from knudsen effusion weight loss
Temperature, K	Vapor or sublimation pressure, kPa	uncertainty
381.3	3.1e-06	2e-07
383.8	4.4e-06	3e-07
386.5	5.6e-06	4e-07
394.4	1.42e-05	8e-07
399.6	2.6e-05	1.4e-06
402.3	3.54e-05	1.9e-06
404.6	4.47e-05	2.4e-06
407.2	5.91e-05	3.3e-06
412.3	0.0001027	5.4e-06

System: .beta.-sitosterol; phases: Crystal, Liquid, Air at 1 atmosphere
Property: Normal melting temperature, K (Crystal); method: DTA
Normal melting temperature, K	uncertainty
411	1

System: .beta.-sitosterol; phases: Crystal, Gas
Property: Vapor or sublimation pressure, kPa (Crystal); method: Calculated from knudsen effusion weight loss
Temperature, K	Vapor or sublimation pressure, kPa	uncertainty
389.9	9.4e-06	6e-07
392.4	1.27e-05	7e-07
395.2	1.72e-05	9e-07
397.7	2.23e-05	1.2e-06
400.3	2.99e-05	1.7e-06
405.6	5.2e-05	3e-06
410.7	9.02e-05	4.8e-06

System: (22E)-stigmasta-5,22-dien-3.beta.-ol; phases: Crystal, Liquid, Air at 1 atmosphere
Property: Normal melting temperature, K (Crystal); method: DTA
Normal melting temperature, K	uncertainty
435	1

System: (22E)-stigmasta-5,22-dien-3.beta.-ol; phases: Crystal, Gas
Property: Vapor or sublimation pressure, kPa (Crystal); method: Calculated from knudsen effusion weight loss
Temperature, K	Vapor or sublimation pressure, kPa	uncertainty
390.9	3.9e-06	2e-07
392	4.6e-06	3e-07
393.5	5.6e-06	3e-07
396.1	8.2e-06	5e-07
397.2	9.4e-06	5e-07
398.7	1.15e-05	7e-07
401.2	1.61e-05	9e-07
403.9	2.2e-05	1e-06
406.3	2.96e-05	1.7e-06
408.9	4.11e-05	2.3e-06
411.5	5.38e-05	3e-06
414	7.23e-05	4e-06
416.6	9.54e-05	5.1e-06

System: anthracene; phases: Crystal, Gas
Property: Vapor or sublimation pressure, kPa (Crystal); method: Calculated from knudsen effusion weight loss
Temperature, K	Vapor or sublimation pressure, kPa	uncertainty
319.6	1.3e-05	8e-07
319.6	1.29e-05	8e-07
323.9	2.14e-05	1.2e-06
326.8	3.04e-05	1.7e-06
326.9	3e-05	1.7e-06
331.7	5.29e-05	2.7e-06
332.1	5.32e-05	2.7e-06
332.2	5.41e-05	2.9e-06
334	6.51e-05	3.6e-06
334.2	6.59e-05	3.7e-06
337	9.16e-05	4.9e-06
339.4	0.0001131	6.1e-06
342	0.0001487	8.5e-06
349.7	0.0003165	1.68e-05
349.7	0.0003121	1.66e-05
354.8	0.0005077	2.65e-05

System: 2,3-benzanthracene; phases: Crystal 2, Gas
Property: Vapor or sublimation pressure, kPa (Crystal 2); method: KNUDSEN:UFactor:2
Temperature, K	Vapor or sublimation pressure, kPa	uncertainty
399	1.46e-05	1.5e-06
404.4	2.1e-05	2.2e-06
405.6	2.55e-05	2.6e-06
409.5	3.39e-05	3.5e-06
410.6	4.22e-05	4.3e-06
414.6	5.42e-05	5.5e-06
415.8	6.67e-05	6.8e-06
416.6	6.39e-05	6.5e-06
418.6	7.84e-05	8e-06
419.6	8.46e-05	8.8e-06
420.8	0.0001032	1.05e-05
424.7	0.0001278	1.3e-05
430.1	0.0002146	2.17e-05
