Measured thermophysical data. Vapor-Liquid Equilibrium for 1-Butene + Methanol, + 1-Propanol, + 2-Propanol, + 2-Butanol, and 2-Methyl-2-propanol (TBA) at 364.5 K
Source: J. Chem. Eng. Data, 2008, 10.1021/je800160q
Compound 1: 1-butene, C4H8, InChI=1S/C4H8/c1-3-4-2/h3H,1,4H2,2H3, purity 99.4%
Compound 2: methanol, CH4O, InChI=1S/CH4O/c1-2/h2H,1H3, purity 99.8%
Compound 3: propan-1-ol, C3H8O, InChI=1S/C3H8O/c1-2-3-4/h4H,2-3H2,1H3, purity 99.8%
Compound 4: propan-2-ol, C3H8O, InChI=1S/C3H8O/c1-3(2)4/h3-4H,1-2H3, purity 99.8%
Compound 5: butan-2-ol, C4H10O, InChI=1S/C4H10O/c1-3-4(2)5/h4-5H,3H2,1-2H3, purity 99.8%
Compound 6: 2-methylpropan-2-ol, C4H10O, InChI=1S/C4H10O/c1-4(2,3)5/h5H,1-3H3, purity 99.8%

System: methanol + 1-butene; phases: Liquid, Gas
Property: Vapor or sublimation pressure, kPa (Liquid); method: Closed cell (Static) method
Mole fraction of 1-butene	Temperature, K	Vapor or sublimation pressure, kPa	uncertainty
0	364.52	267.4	1.8
0.234	364.52	361.1	5.5
0.4134	364.52	482.4	5.2
0.522	364.51	596.8	9.1
0.6632	364.51	842	7.6
0.7316	364.51	1035.9	8.2
0.7702	364.52	1184.1	10.7
0.7931	364.52	1291	11.4
0.8072	364.52	1368.2	12.5
0.8157	364.53	1423.4	14.9
0.8207	364.51	1461.7	23.5
0.8235	364.51	1490.5	26.5
0.8252	364.52	1513.1	28.5
0.8253	364.51	1512.8	28.3
0.8265	364.51	1529.2	27.2
0.8278	364.51	1543.6	18.1
0.83	364.51	1556.8	17.9
0.8336	364.51	1568.5	10
0.8399	364.51	1579.8	8.2
0.85	364.51	1589.9	7.4
0.8663	364.51	1598.4	7.1
0.8933	364.51	1601.8	7.1
0.9328	364.51	1586.8	7.3
0.9594	364.51	1561.9	7.5
0.9736	364.53	1545.9	7.8
0.9873	364.52	1527.6	6.9
1	364.51	1509.9	6.6

System: propan-1-ol + 1-butene; phases: Liquid, Gas
Property: Vapor or sublimation pressure, kPa (Liquid); method: Closed cell (Static) method
Mole fraction of 1-butene	Temperature, K	Vapor or sublimation pressure, kPa	uncertainty
0	364.52	81.3	1.4
0.4018	364.52	135.6	2.6
0.5936	364.52	200.8	2.3
0.6981	364.51	270.9	4.6
0.8061	364.51	422.9	4.1
0.855	364.52	565.1	10.6
0.8817	364.52	689.8	10.8
0.8984	364.53	797.7	16.1
0.91	364.52	892.2	19.7
0.9183	364.52	972.1	20.6
0.9246	364.52	1039.9	22.5
0.9298	364.52	1098.6	23.2
0.934	364.52	1146.4	21.3
0.9341	364.52	1148.8	21.3
0.9375	364.52	1187.1	23.2
0.9407	364.52	1223.3	23.3
0.9438	364.53	1257.3	21.5
0.947	364.52	1288.8	26.6
0.9503	364.51	1319	15.2
0.9542	364.51	1349.4	15.2
0.9591	364.51	1380.9	12.4
0.9662	364.51	1415.1	10.2
0.9775	364.51	1455.9	8.8
0.9854	364.51	1478.4	7.9
0.9884	364.51	1485.7	7.3
0.9945	364.51	1499.4	6.9
1	364.51	1510.7	6.6

System: propan-2-ol + 1-butene; phases: Liquid, Gas
Property: Vapor or sublimation pressure, kPa (Liquid); method: Closed cell (Static) method
Temperature, K	Mole fraction of 1-butene	Vapor or sublimation pressure, kPa	uncertainty
364.5	0.3913	1032.5	3.4
364.5	0.4438	1092.4	3.6
364.51	0	144.5	1.5
364.51	0.0478	318.2	1.7
364.51	0.0928	460.2	1.9
364.51	0.1401	589	2.2
364.51	0.1883	702.2	2.5
364.51	0.2383	802.7	2.7
364.51	0.2899	891.7	3
364.51	0.3397	965.8	3.2
364.51	0.4961	1145.3	3.7
364.51	0.5453	1188.6	3.9
364.51	0.5942	1228.7	4
364.51	0.643	1266.1	4.2
364.51	0.6921	1301.4	4.3
364.51	0.7424	1335.8	4.4
364.51	0.7925	1369	4.5
364.51	0.8434	1402.4	4.6
364.51	0.8952	1437	4.8
364.51	0.9485	1474.5	4.9
364.51	0.9787	1496.4	5
364.51	0.9888	1503.5	5
364.51	1	1511	5.3
364.52	0.0132	195	1.5
364.52	0.0303	257.3	1.6
364.52	0.4974	1145.8	3.7
364.52	0.9689	1489.5	5

System: butan-2-ol + 1-butene; phases: Liquid, Gas
Property: Vapor or sublimation pressure, kPa (Liquid); method: Closed cell (Static) method
Mole fraction of 1-butene	Temperature, K	Vapor or sublimation pressure, kPa	uncertainty
0	364.51	74.5	1.4
0.3479	364.52	114.4	3.6
0.5605	364.52	169.3	2.5
0.6633	364.52	221.2	2.6
0.7837	364.51	342.4	4.5
0.8382	364.52	454.5	9.6
0.8695	364.52	558.2	10.3
0.8899	364.52	653.8	11.7
0.9042	364.51	740.6	18
0.9151	364.51	820.8	17.7
0.9235	364.51	893.1	20.2
0.9304	364.51	958.8	22.1
0.9363	364.51	1019.4	23
0.9364	364.51	1019.3	22.6
0.9411	364.52	1070.1	22.2
0.9455	364.51	1117.9	22.6
0.9496	364.51	1163.2	22.2
0.9537	364.51	1206.6	21.3
0.9579	364.51	1249	19.9
0.9626	364.51	1291.7	17.3
0.968	364.52	1335.5	14.6
0.9749	364.51	1383.4	11.9
0.9848	364.51	1439.8	10.9
0.9898	364.51	1466.1	8.8
0.9927	364.51	1479.4	7.9
0.9964	364.51	1496	7.4
1	364.51	1510.5	6.6

System: 2-methylpropan-2-ol + 1-butene; phases: Liquid, Gas
Property: Vapor or sublimation pressure, kPa (Liquid); method: Closed cell (Static) method
Mole fraction of 1-butene	Temperature, K	Vapor or sublimation pressure, kPa	uncertainty
0	364.51	142.7	1.5
0.1991	364.51	177.8	1.6
0.3723	364.51	226.3	1.7
0.479	364.51	271.2	1.8
0.632	364.5	379.4	2.1
0.7135	364.5	480.4	2.5
0.7647	364.5	575.3	2.8
0.8001	364.51	664.2	3.1
0.8263	364.51	747.9	3.4
0.8461	364.52	823.7	3.7
0.8622	364.52	895.2	4
0.8756	364.51	960.9	4.3
0.8871	364.51	1022.6	4.5
0.8875	364.51	1020.6	4.5
0.8969	364.51	1074.1	4.7
0.9055	364.51	1124.8	4.9
0.9136	364.52	1172.4	5.2
0.9217	364.51	1218.6	5.4
0.9301	364.51	1264	5.6
0.939	364.51	1308.5	5.8
0.949	364.51	1352.8	5.9
0.9613	364.51	1400	6.2
0.9769	364.51	1449.9	6.4
0.9855	364.5	1474.3	6.5
0.9911	364.51	1489.2	6.5
0.9946	364.5	1497.3	6.6
1	364.5	1509.8	6.6
