Measured thermophysical data. Solubility of 1-(2-Dimethylaminoethyl)-5-mercapto-1H-tetrazole in Water, DMF, Methanol, Ethanol, 1-Propanol, 2-Propanol, 1-Butanol, and 2-Butanol between (293 and 343) K
Source: J. Chem. Eng. Data, 2008, 10.1021/je8003244
Compound 1: 1-(2-dimethylaminoethyl)-5-mercapto-1H-tetrazole, C5H11N5S, InChI=1S/C5H11N5S/c1-9(2)3-4-10-5(11)6-7-8-10/h3-4H2,1-2H3,(H,6,8,11)
Compound 2: water, H2O, InChI=1S/H2O/h1H2
Compound 3: dimethylformamide, C3H7NO, InChI=1S/C3H7NO/c1-4(2)3-5/h3H,1-2H3
Compound 4: methanol, CH4O, InChI=1S/CH4O/c1-2/h2H,1H3
Compound 5: ethanol, C2H6O, InChI=1S/C2H6O/c1-2-3/h3H,2H2,1H3
Compound 6: propan-1-ol, C3H8O, InChI=1S/C3H8O/c1-2-3-4/h4H,2-3H2,1H3
Compound 7: propan-2-ol, C3H8O, InChI=1S/C3H8O/c1-3(2)4/h3-4H,1-2H3
Compound 8: butan-1-ol, C4H10O, InChI=1S/C4H10O/c1-2-3-4-5/h5H,2-4H2,1H3
Compound 9: butan-2-ol, C4H10O, InChI=1S/C4H10O/c1-3-4(2)5/h4-5H,3H2,1-2H3

System: water + 1-(2-dimethylaminoethyl)-5-mercapto-1H-tetrazole; phases: Liquid, Crystal
Fixed: Pressure, kPa = 101
Property: Mole fraction of 1-(2-dimethylaminoethyl)-5-mercapto-1H-tetrazole (Liquid); method: laser monitoring observation technique
Temperature, K	Mole fraction of 1-(2-dimethylaminoethyl)-5-mercapto-1H-tetrazole	uncertainty
293.15	0.004212	0.00019
298.12	0.005157	0.000233
303.15	0.006365	0.000288
308.22	0.008005	0.000362
313.35	0.01009	0.00046
318.28	0.01268	0.00057
323.35	0.01612	0.00073
328.24	0.01988	0.0009
333.35	0.02464	0.00112
338.21	0.03026	0.00137
343.3	0.03708	0.00168

System: dimethylformamide + 1-(2-dimethylaminoethyl)-5-mercapto-1H-tetrazole; phases: Liquid, Crystal
Fixed: Pressure, kPa = 101
Property: Mole fraction of 1-(2-dimethylaminoethyl)-5-mercapto-1H-tetrazole (Liquid); method: laser monitoring observation technique
Temperature, K	Mole fraction of 1-(2-dimethylaminoethyl)-5-mercapto-1H-tetrazole	uncertainty
293.45	0.0008025	3.24e-05
298.34	0.000875	3.54e-05
303.35	0.001046	4.2e-05
308.38	0.001221	4.9e-05
313.25	0.001462	5.9e-05
318.22	0.001794	7.3e-05
323.2	0.002121	8.6e-05
328.12	0.002528	0.000102
333.3	0.002972	0.00012
338.22	0.003354	0.000135
345.15	0.003932	0.000159

System: methanol + 1-(2-dimethylaminoethyl)-5-mercapto-1H-tetrazole; phases: Liquid, Crystal
Fixed: Pressure, kPa = 101
Property: Mole fraction of 1-(2-dimethylaminoethyl)-5-mercapto-1H-tetrazole (Liquid); method: laser monitoring observation technique
Temperature, K	Mole fraction of 1-(2-dimethylaminoethyl)-5-mercapto-1H-tetrazole	uncertainty
293.05	0.0001564	6.5e-06
298.17	0.0001856	7.7e-06
303.15	0.0002195	9.2e-06
308.2	0.0002536	1.06e-05
313.05	0.0002914	1.22e-05
318.24	0.0003479	1.45e-05
323.25	0.0004138	1.73e-05
328.23	0.0004855	2.03e-05
333.15	0.0005712	2.38e-05

System: ethanol + 1-(2-dimethylaminoethyl)-5-mercapto-1H-tetrazole; phases: Liquid, Crystal
Fixed: Pressure, kPa = 101
Property: Mole fraction of 1-(2-dimethylaminoethyl)-5-mercapto-1H-tetrazole (Liquid); method: laser monitoring observation technique
Temperature, K	Mole fraction of 1-(2-dimethylaminoethyl)-5-mercapto-1H-tetrazole	uncertainty
293.25	5.338e-05	2.18e-06
298.15	6.156e-05	2.52e-06
302.95	7.308e-05	2.99e-06
308.1	8.478e-05	3.47e-06
312.94	9.91e-05	4.06e-06
318.15	0.0001177	4.8e-06
322.55	0.0001326	5.4e-06
327.45	0.0001555	6.4e-06
332.55	0.0001813	7.4e-06
338.05	0.0002058	8.4e-06
342.2	0.0002265	9.3e-06

System: propan-1-ol + 1-(2-dimethylaminoethyl)-5-mercapto-1H-tetrazole; phases: Liquid, Crystal
Fixed: Pressure, kPa = 101
Property: Mole fraction of 1-(2-dimethylaminoethyl)-5-mercapto-1H-tetrazole (Liquid); method: laser monitoring observation technique
Temperature, K	Mole fraction of 1-(2-dimethylaminoethyl)-5-mercapto-1H-tetrazole	uncertainty
293.17	5.795e-05	2.37e-06
298.14	7.343e-05	2.98e-06
303.25	8.518e-05	3.46e-06
308.12	0.0001066	4.3e-06
313.15	0.0001265	5.1e-06
318.23	0.0001399	5.7e-06
323.2	0.000161	6.5e-06
328.34	0.0001762	7.1e-06
332.95	0.0001887	7.6e-06
338.18	0.000216	8.8e-06
343.16	0.0002406	9.7e-06

System: propan-2-ol + 1-(2-dimethylaminoethyl)-5-mercapto-1H-tetrazole; phases: Liquid, Crystal
Fixed: Pressure, kPa = 101
Property: Mole fraction of 1-(2-dimethylaminoethyl)-5-mercapto-1H-tetrazole (Liquid); method: laser monitoring observation technique
Temperature, K	Mole fraction of 1-(2-dimethylaminoethyl)-5-mercapto-1H-tetrazole	uncertainty
293.15	3.471e-05	1.41e-06
298.28	4.153e-05	1.69e-06
303.35	4.795e-05	1.94e-06
308.14	5.427e-05	2.2e-06
313.25	6.149e-05	2.49e-06
318.2	6.959e-05	2.82e-06
323.25	7.958e-05	3.23e-06
328.16	9.088e-05	3.69e-06
333.35	0.0001055	4.3e-06
338.32	0.0001229	5e-06
343.45	0.0001441	5.8e-06

System: butan-1-ol + 1-(2-dimethylaminoethyl)-5-mercapto-1H-tetrazole; phases: Liquid, Crystal
Fixed: Pressure, kPa = 101
Property: Mole fraction of 1-(2-dimethylaminoethyl)-5-mercapto-1H-tetrazole (Liquid); method: laser monitoring observation technique
Temperature, K	Mole fraction of 1-(2-dimethylaminoethyl)-5-mercapto-1H-tetrazole	uncertainty
293.15	6.108e-05	2.47e-06
298.21	6.925e-05	2.8e-06
303.35	7.655e-05	3.09e-06
308.14	8.492e-05	3.43e-06
313.05	9.473e-05	3.82e-06
318.28	0.0001029	4.2e-06
323	0.0001119	4.5e-06
328.14	0.0001261	5.1e-06
333.05	0.0001411	5.7e-06
338.12	0.0001582	6.4e-06
343.1	0.0001786	7.2e-06

System: butan-2-ol + 1-(2-dimethylaminoethyl)-5-mercapto-1H-tetrazole; phases: Liquid, Crystal
Fixed: Pressure, kPa = 101
Property: Mole fraction of 1-(2-dimethylaminoethyl)-5-mercapto-1H-tetrazole (Liquid); method: laser monitoring observation technique
Temperature, K	Mole fraction of 1-(2-dimethylaminoethyl)-5-mercapto-1H-tetrazole	uncertainty
293.35	3.159e-05	1.28e-06
298.37	3.493e-05	1.41e-06
303.25	4.116e-05	1.66e-06
308.24	4.365e-05	1.76e-06
313.15	4.842e-05	1.96e-06
318.12	6.194e-05	2.51e-06
323	7.523e-05	3.05e-06
327.33	9.183e-05	3.73e-06
330.85	0.0001095	4.4e-06
335.57	0.0001329	5.4e-06
340.5	0.0001647	6.7e-06
