Measured thermophysical data. Solubility of Pravastatin Sodium in Water, Methanol, Ethanol, 2-Propanol, 1-Propanol, and 1-Butanol from (278 to 333) K
Source: J. Chem. Eng. Data, 2008, 10.1021/je800196k
Compound 1: pravastatin sodium, C23H35NaO7, InChI=1S/C23H36O7.Na/c1-4-13(2)23(29)30-20-11-17(25)9-15-6-5-14(3)19(22(15)20)8-7-16(24)10-18(26)12-21(27)28;/h5-6,9,13-14,16-20,22,24-26H,4,7-8,10-12H2,1-3H3,(H,27,28);/q;+1/p-1/t13-,14-,16+,17+,18+,19-,20-,22-;/m0./s1, purity 99.5%
Compound 2: water, H2O, InChI=1S/H2O/h1H2
Compound 3: methanol, CH4O, InChI=1S/CH4O/c1-2/h2H,1H3, purity 99.5%
Compound 4: ethanol, C2H6O, InChI=1S/C2H6O/c1-2-3/h3H,2H2,1H3, purity 99.5%
Compound 5: propan-2-ol, C3H8O, InChI=1S/C3H8O/c1-3(2)4/h3-4H,1-2H3, purity 99.5%
Compound 6: propan-1-ol, C3H8O, InChI=1S/C3H8O/c1-2-3-4/h4H,2-3H2,1H3, purity 99.5%
Compound 7: butan-1-ol, C4H10O, InChI=1S/C4H10O/c1-2-3-4-5/h5H,2-4H2,1H3, purity 99.5%

System: water + pravastatin sodium; phases: Liquid, Crystal
Fixed: Pressure, kPa = 101
Property: Mole fraction of pravastatin sodium (Liquid); method: laser monitoring observation technique
Temperature, K	Mole fraction of pravastatin sodium	uncertainty
278.4	0.00911	0.00068
283	0.01193	0.0009
288	0.01624	0.00123
293	0.02165	0.00165
298	0.02852	0.00218
303	0.03431	0.00264
308	0.04089	0.00317
313	0.04772	0.00373
318	0.05528	0.00435
323	0.06419	0.0051
328	0.0723	0.0058
333	0.08414	0.00683

System: methanol + pravastatin sodium; phases: Liquid, Crystal
Fixed: Pressure, kPa = 101
Property: Mole fraction of pravastatin sodium (Liquid); method: laser monitoring observation technique
Temperature, K	Mole fraction of pravastatin sodium	uncertainty
277.8	0.02246	0.00096
283	0.02448	0.00105
287.9	0.02695	0.00116
293	0.03009	0.0013
297.8	0.03262	0.00141
302.9	0.03732	0.00162
308	0.04175	0.00182
313	0.04921	0.00216
318	0.0588	0.0026
324	0.06867	0.00308

System: ethanol + pravastatin sodium; phases: Liquid, Crystal
Fixed: Pressure, kPa = 101
Property: Mole fraction of pravastatin sodium (Liquid); method: laser monitoring observation technique
Temperature, K	Mole fraction of pravastatin sodium	uncertainty
278	0.0031	0.0001
283	0.00325	9e-05
288	0.00346	0.0001
293	0.00366	0.00011
298	0.00406	0.00012
303	0.00429	0.00013
308	0.00463	0.00014
313	0.00493	0.00014
318	0.00569	0.00017
323	0.00692	0.0002
328	0.00793	0.00023
333	0.00942	0.00028

System: propan-2-ol + pravastatin sodium; phases: Liquid, Crystal
Fixed: Pressure, kPa = 101
Property: Mole fraction of pravastatin sodium (Liquid); method: laser monitoring observation technique
Temperature, K	Mole fraction of pravastatin sodium	uncertainty
278	0.000605	8.1e-05
283	0.000684	8.1e-05
288	0.000753	8.1e-05
293	0.000818	8.1e-05
298	0.000903	8.1e-05
303	0.00103	8e-05
308	0.0011	8e-05
318	0.00141	8e-05
322.9	0.00164	8e-05
327.9	0.0019	9e-05

System: propan-1-ol + pravastatin sodium; phases: Liquid, Crystal
Fixed: Pressure, kPa = 101
Property: Mole fraction of pravastatin sodium (Liquid); method: laser monitoring observation technique
Temperature, K	Mole fraction of pravastatin sodium	uncertainty
278	0.00208	5e-05
283	0.00216	5e-05
288	0.00219	5e-05
293	0.00227	5e-05
298	0.00238	5e-05
303	0.00274	6e-05
308	0.00343	8e-05
313	0.00449	0.0001
318	0.0062	0.00014
328	0.01216	0.00027
333	0.01578	0.00036

System: butan-1-ol + pravastatin sodium; phases: Liquid, Crystal
Fixed: Pressure, kPa = 101
Property: Mole fraction of pravastatin sodium (Liquid); method: laser monitoring observation technique
Temperature, K	Mole fraction of pravastatin sodium	uncertainty
278.1	0.00108	0.0001
283	0.00118	0.0001
288	0.00127	0.0001
293	0.00144	0.0001
298	0.00159	0.0001
303	0.00178	0.0001
308	0.00223	0.0001
313	0.0029	0.00011
318.2	0.00345	0.00011
323	0.00408	0.00011
328	0.00493	0.00012
