Measured thermophysical data. Effect of Temperature on Phase Equilibrium of the Mixed-Solvent System of (2,2,2-Trifluoroethanol + Methanol + Cyclohexane)
Source: J. Chem. Eng. Data, 2009, 10.1021/je8002964
Compound 1: heptane, C7H16, InChI=1S/C7H16/c1-3-5-7-6-4-2/h3-7H2,1-2H3
Compound 2: methanol, CH4O, InChI=1S/CH4O/c1-2/h2H,1H3
Compound 3: propan-2-ol, C3H8O, InChI=1S/C3H8O/c1-3(2)4/h3-4H,1-2H3
Compound 4: cyclohexane, C6H12, InChI=1S/C6H12/c1-2-4-6-5-3-1/h1-6H2
Compound 5: 2,2,2-trifluoroethanol, C2H3F3O, InChI=1S/C2H3F3O/c3-2(4,5)1-6/h6H,1H2

System: heptane; phases: Liquid
Property: Mass density, kg/m3 (Liquid); method: VIBTUB:UFactor:4
Temperature, K	Pressure, kPa	Mass density, kg/m3	uncertainty
298.15	101.325	680	0.7

System: methanol; phases: Liquid
Property: Mass density, kg/m3 (Liquid); method: VIBTUB:UFactor:3
Temperature, K	Pressure, kPa	Mass density, kg/m3	uncertainty
298.15	101.325	787	0.4

System: propan-2-ol; phases: Liquid
Property: Mass density, kg/m3 (Liquid); method: VIBTUB:UFactor:4
Temperature, K	Pressure, kPa	Mass density, kg/m3	uncertainty
298.15	101.325	781.4	0.5

System: cyclohexane; phases: Liquid
Property: Mass density, kg/m3 (Liquid); method: VIBTUB:UFactor:2
Temperature, K	Pressure, kPa	Mass density, kg/m3	uncertainty
298.15	101.325	774	0.3

System: 2,2,2-trifluoroethanol; phases: Liquid
Property: Mass density, kg/m3 (Liquid); method: VIBTUB:UFactor:5
Temperature, K	Pressure, kPa	Mass density, kg/m3	uncertainty
298.15	101.325	1382.4	1.2

System: methanol + 2,2,2-trifluoroethanol + cyclohexane; phases: Liquid mixture 1, Liquid mixture 2
Fixed: Pressure, kPa = 100
Property: Mole fraction of 2,2,2-trifluoroethanol (Liquid mixture 1); method: CHROM:UFactor:16
Property: Mole fraction of 2,2,2-trifluoroethanol (Liquid mixture 2); method: CHROM:UFactor:16
Property: Mole fraction of methanol (Liquid mixture 2); method: CHROM:UFactor:16
Temperature, K	Mole fraction of methanol	Mole fraction of 2,2,2-trifluoroethanol	uncertainty	Mole fraction of 2,2,2-trifluoroethanol	uncertainty	Mole fraction of methanol	uncertainty
303.15	0.894	0.15	0.019	0	0.001	0	
313.15	0.881	0.188	0.023	0	0.001	0	
293.15	0.744	0.127	0.016	0.009	0.006	0.157	
293.15	0.85	0.125	0.016	0.01	0.006	0.052	
293.15	0.697	0.129	0.016	0.011	0.006	0.202	
303.15	0.855	0.161	0.02	0.012	0.006	0.031	
313.15	0.797	0.197	0.024	0.012	0.006	0.082	
303.15	0.799	0.16	0.02	0.013	0.006	0.085	
293.15	0.643	0.12	0.015	0.019	0.006	0.253	
283.15	0.884	0.066	0.01	0.02	0.007	0.079	
303.15	0.698	0.158	0.02	0.024	0.007	0.176	
313.15	0.721	0.197	0.024	0.032	0.007	0.148	
293.15	0.546	0.107	0.014	0.033	0.007	0.337	
303.15	0.61	0.153	0.019	0.036	0.007	0.263	
283.15	0.802	0.053	0.009	0.036	0.007	0.157	
313.15	0.654	0.194	0.024	0.036	0.007	0.207	
283.15	0.729	0.049	0.008	0.04	0.008	0.23	
293.15	0.465	0.097	0.013	0.045	0.008	0.432	
283.15	0.646	0.045	0.008	0.046	0.008	0.321	
283.15	0.554	0.042	0.008	0.049	0.008	0.406	
283.15	0.442	0.04	0.008	0.052	0.008	0.509	
283.15	0.367	0.038	0.007	0.055	0.009	0.581	
313.15	0.557	0.182	0.023	0.056	0.009	0.3	
293.15	0.435	0.086	0.012	0.057	0.009	0.461	
283.15	0.221	0.035	0.007	0.058	0.009	0.716	
303.15	0.517	0.138	0.017	0.059	0.009	0.358	
283.15	0.317	0.034	0.007	0.06	0.009	0.621	
283.15	0.16	0.031	0.007	0.061	0.009	0.762	
283.15	0	0	0.001	0.061	0.009	0.875	
283.15	0.072	0.013	0.006	0.066	0.01	0.836	
303.15	0.426	0.129	0.016	0.07	0.01	0.446	
293.15	0.315	0.065	0.01	0.079	0.011	0.578	
313.15	0.478	0.163	0.02	0.083	0.011	0.373	
293.15	0.261	0.046	0.008	0.095	0.012	0.636	
303.15	0.315	0.106	0.014	0.095	0.012	0.547	
293.15	0.198	0.034	0.007	0.106	0.013	0.698	
293.15	0	0	0.001	0.108	0.014	0.842	
313.15	0.354	0.144	0.018	0.108	0.014	0.483	
293.15	0.15	0.013	0.006	0.119	0.015	0.744	
303.15	0.238	0.079	0.011	0.121	0.015	0.601	
313.15	0.262	0.131	0.016	0.126	0.016	0.556	
303.15	0.182	0.055	0.009	0.146	0.018	0.658	
303.15	0.111	0.048	0.008	0.157	0.019	0.715	
313.15	0.201	0.102	0.013	0.16	0.02	0.594	
303.15	0	0	0.001	0.16	0.02	0.81	
303.15	0.078	0.034	0.008	0.16	0.02	0.744	
313.15	0.167	0.075	0.011	0.188	0.024	0.631	
313.15	0.117	0.052	0.009	0.212	0.027	0.667	
313.15	0.083	0.035	0.008	0.231	0.029	0.697	
313.15	0	0	0.001	0.242	0.03	0.739	
