Measured thermophysical data. molar heat capacities of 1,2-cyclohexanediol isomers from (173 to 428) K
Source: J. Chem. Eng. Data, 2008, 10.1021/je800047t
Compound 1: cis-1,2-cyclohexanediol, C6H12O2, InChI=1S/C6H12O2/c7-5-3-1-2-4-6(5)8/h5-8H,1-4H2/t5-,6+, purity 0.99%
Compound 2: trans-1,4-cyclohexanediol, C6H12O2, InChI=1S/C6H12O2/c7-5-1-2-6(8)4-3-5/h5-8H,1-4H2/t5-,6-, purity 0.99%

System: cis-1,2-cyclohexanediol; phases: Crystal 2
Fixed: Pressure, kPa = 101.325
Property: Molar heat capacity at constant pressure, J/K/mol (Crystal 2); method: Small sample (50 mg) DSC
Temperature, K	Molar heat capacity at constant pressure, J/K/mol	uncertainty
174.3	89.6	2
185.2	92.7	2.2
193.1	100	3
202.2	101.1	2.1
215.9	111	2.4
230.1	121.1	2.2
248.1	127.3	2.3
259.2	134.9	2.2
266.2	138.2	2.1
273.1	141.4	2.6
278.2	148.8	2.5
283	151.1	2.8
288.2	152	3
288.2	154.2	2.7
293.2	157.8	2.6
293.2	157.6	2.6
298.1	160.4	2.9
300.2	162	5
300.2	163.9	2.7
308.2	168	5
308.2	166.4	2.8
316	171.9	2.7
323.3	175	2.8
328.2	177.2	3.1
333.2	180.8	3.1
339.2	184.3	3.1
344.1	186.2	3.1
346.3	190	3.2
348.1	191.8	3.1
350.2	192.5	3.1

System: cis-1,2-cyclohexanediol; phases: Crystal 1
Fixed: Pressure, kPa = 101.325
Property: Molar heat capacity at constant pressure, J/K/mol (Crystal 1); method: Small sample (50 mg) DSC
Temperature, K	Molar heat capacity at constant pressure, J/K/mol	uncertainty
363.1	279.6	4.3
366.2	284.9	4.4
367.2	290.4	4.5
368.2	292.8	4.5

System: cis-1,2-cyclohexanediol; phases: Liquid
Fixed: Pressure, kPa = 101.325
Property: Molar heat capacity at constant pressure, J/K/mol (Liquid); method: Small sample (50 mg) DSC
Temperature, K	Molar heat capacity at constant pressure, J/K/mol	uncertainty
378.1	297.9	4.6
383.2	300	4.6
385.2	302.5	4.7
388	304.1	4.7
393.2	305	5
397.3	306.3	4.7
403.1	310.5	4.8
413.2	312.8	4.8

System: trans-1,4-cyclohexanediol; phases: Crystal
Fixed: Pressure, kPa = 101.325
Property: Molar heat capacity at constant pressure, J/K/mol (Crystal); method: Small sample (50 mg) DSC
Temperature, K	Molar heat capacity at constant pressure, J/K/mol	uncertainty
176.5	100.6	2.1
183.2	105.6	2.2
189.1	109.5	2.2
198.9	115.4	2.3
206.9	115.6	4.3
215	121	2
222.2	124.6	2.4
230.2	127.3	2.5
238.3	135.4	2.4
258.3	142.2	2.7
273.2	145.6	2.7
278.1	148.8	2.6
278.1	150.6	2.9
278.1	149	3
283.2	151	3
283.2	151.1	2.9
288.2	154	3
293.2	156.4	2.9
293.2	157.4	2.7
303.2	167	2.9
308.1	168.1	2.8
308.1	169.9	4.7
313.2	173	3
323.3	174	3
333.1	177.4	3
343.2	181.4	3.1
343.2	183.9	3
353.1	187.1	3.2
363.2	190.5	3.4
373.2	198	4

System: trans-1,4-cyclohexanediol; phases: Liquid
Fixed: Pressure, kPa = 101.325
Property: Molar heat capacity at constant pressure, J/K/mol (Liquid); method: Small sample (50 mg) DSC
Temperature, K	Molar heat capacity at constant pressure, J/K/mol	uncertainty
393.1	310.7	4.8
403.2	313	6
