Measured thermophysical data. Vapor-Liquid Equilibrium Data for the Nitrogen + n-Decane System from (344 to 563) K and at Pressures up to 50 MPa
Source: J. Chem. Eng. Data, 2009, 10.1021/je800881t
Compound 1: decane, C10H22, InChI=1S/C10H22/c1-3-5-7-9-10-8-6-4-2/h3-10H2,1-2H3, purity 99%
Compound 2: nitrogen, N2, InChI=1S/N2/c1-2, purity 99.999%

System: decane + nitrogen; phases: Gas, Liquid
Property: Vapor or sublimation pressure, kPa (Gas); method: Manometric method
Mole fraction of nitrogen	Temperature, K	Vapor or sublimation pressure, kPa	uncertainty
0.0152	533.5	1040	50
0.0195	344.6	1460	50
0.0212	563.1	1530	50
0.026	533.5	1490	50
0.0263	344.6	2120	60
0.0279	503	1520	50
0.0307	377.4	2230	60
0.0352	410.9	1940	60
0.0365	344.6	2990	70
0.0371	563.1	2140	60
0.0384	463.7	1830	50
0.0402	533.5	2100	60
0.0406	503	2140	60
0.0461	463.7	2250	60
0.0525	533.5	2680	70
0.0526	563.1	2660	70
0.0535	503	2750	70
0.0564	410.9	3210	80
0.0592	344.6	4990	110
0.0601	377.4	4550	100
0.0634	463.7	3190	80
0.0659	377.4	5010	110
0.0705	503	3640	80
0.0735	533.5	3650	80
0.0735	563.1	3500	80
0.0759	410.9	4620	100
0.0838	344.6	6990	150
0.0855	463.7	4510	100
0.0876	410.9	5480	120
0.0878	503	4530	100
0.0902	377.4	6970	150
0.0938	533.5	4550	100
0.0993	463.7	5310	110
0.0997	563.1	4540	100
0.1072	503	5610	120
0.1097	344.6	9400	190
0.1145	410.9	7390	150
0.1167	533.5	5550	120
0.1195	377.4	9480	200
0.1263	463.7	6990	150
0.1275	563.1	5620	120
0.1317	503	6980	150
0.1343	344.6	12030	250
0.1428	410.9	9620	200
0.1452	533.5	6950	150
0.148	377.4	11980	240
0.158	344.6	14440	290
0.1632	563.1	7010	150
0.1643	463.7	9460	190
0.1729	410.9	12070	250
0.1748	377.4	14460	290
0.1758	503	9490	200
0.1812	344.6	17000	340
0.1955	533.5	9370	190
0.2001	463.7	12070	250
0.2003	410.9	14370	290
0.2009	377.4	16980	340
0.2025	344.6	19630	400
0.2192	503	11950	240
0.2235	377.4	19440	390
0.2264	344.6	22230	450
0.2265	563.1	9500	200
0.2317	410.9	17070	350
0.2351	463.7	14480	290
0.242	344.6	24490	490
0.2464	533.5	11950	240
0.2474	377.4	21990	440
0.2563	410.9	19580	400
0.2613	503	14420	290
0.263	344.6	27010	550
0.2682	377.4	24460	490
0.2698	463.7	17010	340
0.2808	410.9	21990	440
0.2838	344.6	29610	600
0.2891	377.4	26960	540
0.2891	563.1	11940	240
0.2982	344.6	32060	650
0.2984	533.5	14480	290
0.3023	463.7	19550	400
0.3033	503	16940	340
0.3078	410.9	24680	500
0.3106	377.4	29540	600
0.3162	344.6	34610	700
0.3295	410.9	26870	540
0.3315	463.7	21910	440
0.3322	377.4	32040	650
0.3341	344.6	37090	750
0.337	503	19120	390
0.3452	533.5	16960	340
0.3467	344.6	39580	800
0.3483	377.4	34440	690
0.3546	410.9	29460	590
0.3566	563.1	14490	290
0.3617	344.6	42030	850
0.3656	463.7	24460	490
0.3679	377.4	37020	750
0.3777	344.6	44430	900
0.3786	410.9	32130	650
0.3802	503	21930	440
0.3863	377.4	39500	800
0.3902	344.6	47010	950
0.3939	463.7	27060	550
0.3945	563.1	15720	320
0.3949	533.5	19510	390
0.3974	410.9	34470	700
0.3985	344.6	48780	980
0.4036	344.6	49910	1010
0.4061	377.4	42020	850
0.4186	503	24380	490
0.4189	410.9	37010	750
0.4205	377.4	44010	890
0.4254	463.7	29430	590
0.4305	563.1	17000	340
0.4391	410.9	39350	790
0.4417	377.4	46890	950
0.4455	533.5	22080	450
0.448	377.4	48270	970
0.4544	463.7	31960	640
0.4561	503	26740	540
0.458	377.4	49560	1000
0.4611	410.9	42010	850
0.4815	410.9	44410	900
0.4851	463.7	34580	700
0.4988	533.5	24480	490
0.5	563.1	19050	390
0.5012	503	29600	600
0.5046	410.9	47040	950
0.5149	463.7	36980	750
0.5234	410.9	49500	1000
0.53	410.9	50320	1010
0.5373	563.1	19640	400
0.5409	503	32050	650
0.5433	463.7	39540	800
0.561	533.5	27030	550
0.5728	463.7	42100	850
0.5878	503	34880	700
0.5999	463.7	44460	900
0.6239	533.5	29660	600
0.6285	463.7	47270	950
0.6317	503	37250	750
0.6553	463.7	49840	1000
0.7053	503	40220	810

System: decane + nitrogen; phases: Gas, Liquid
Property: Mole fraction of nitrogen (Gas); method: Chromatography
Mole fraction of nitrogen	Temperature, K	Mole fraction of nitrogen	uncertainty
0.0152	533.5	0.4458	0.1696
0.0195	344.6	0.9953	0.0047
0.0212	563.1	0.3473	0.0522
0.026	533.5	0.5759	0.1167
0.0263	344.6	0.9968	0.0032
0.0279	503	0.7515	0.0811
0.0307	377.4	0.9932	0.0068
0.0352	410.9	0.9823	0.0177
0.0365	344.6	0.9975	0.0025
0.0371	563.1	0.4794	0.0519
0.0384	463.7	0.9299	0.0467
0.0402	533.5	0.6677	0.0735
0.0406	503	0.8122	0.05
0.0461	463.7	0.9385	0.0403
0.0525	533.5	0.7204	0.0549
0.0526	563.1	0.5604	0.0458
0.0535	503	0.8477	0.0431
0.0564	410.9	0.9877	0.0123
0.0592	344.6	0.9981	0.0019
0.0601	377.4	0.9958	0.0042
0.0634	463.7	0.9513	0.04
0.0659	377.4	0.996	0.004
0.0705	503	0.8779	0.0408
0.0735	533.5	0.7755	0.0465
0.0735	563.1	0.6402	0.0426
0.0759	410.9	0.9899	0.0101
0.0838	344.6	0.9983	0.0017
0.0855	463.7	0.9604	0.0396
0.0876	410.9	0.9906	0.0094
0.0878	503	0.8957	0.0402
0.0902	377.4	0.9963	0.0037
0.0938	533.5	0.8069	0.0425
0.0993	463.7	0.9632	0.0368
0.0997	563.1	0.6895	0.0406
0.1072	503	0.9084	0.0401
0.1097	344.6	0.9984	0.0016
0.1145	410.9	0.9915	0.0085
0.1167	533.5	0.8322	0.0408
0.1195	377.4	0.9965	0.0035
0.1263	463.7	0.9673	0.0327
0.1275	563.1	0.7179	0.0405
0.1317	503	0.9179	0.0401
0.1343	344.6	0.9983	0.0017
0.1428	410.9	0.9917	0.0083
0.1452	533.5	0.8538	0.0402
0.148	377.4	0.9964	0.0036
0.158	344.6	0.9982	0.0018
0.1632	563.1	0.7488	0.0402
0.1643	463.7	0.9709	0.0291
0.1729	410.9	0.9916	0.0084
0.1748	377.4	0.9963	0.0037
0.1758	503	0.9289	0.04
0.1812	344.6	0.998	0.002
0.1955	533.5	0.8752	0.0401
0.2001	463.7	0.9725	0.0275
0.2003	410.9	0.9915	0.0085
0.2009	377.4	0.9961	0.0039
0.2025	344.6	0.9978	0.0022
0.2192	503	0.9358	0.04
0.2235	377.4	0.9958	0.0042
0.2264	344.6	0.9976	0.0024
0.2265	563.1	0.7808	0.0401
0.2317	410.9	0.9912	0.0088
0.2351	463.7	0.9726	0.0274
0.242	344.6	0.9974	0.0026
0.2464	533.5	0.8872	0.04
0.2474	377.4	0.9955	0.0045
0.2563	410.9	0.9905	0.0095
0.2613	503	0.9388	0.04
0.263	344.6	0.9971	0.0029
0.2682	377.4	0.995	0.005
0.2698	463.7	0.9718	0.0282
0.2808	410.9	0.99	0.01
0.2838	344.6	0.9968	0.0032
0.2891	377.4	0.9945	0.0055
0.2891	563.1	0.7975	0.0401
0.2982	344.6	0.9965	0.0035
0.2984	533.5	0.8899	0.04
0.3023	463.7	0.9718	0.0282
0.3033	503	0.9388	0.04
0.3078	410.9	0.9893	0.0107
0.3106	377.4	0.994	0.006
0.3162	344.6	0.9962	0.0038
0.3295	410.9	0.9887	0.0113
0.3315	463.7	0.9705	0.0295
0.3322	377.4	0.9935	0.0065
0.3341	344.6	0.9959	0.0041
0.337	503	0.9387	0.04
0.3452	533.5	0.8905	0.04
0.3467	344.6	0.9955	0.0045
0.3483	377.4	0.9932	0.0068
0.3546	410.9	0.9877	0.0123
0.3566	563.1	0.7964	0.0401
0.3617	344.6	0.995	0.005
0.3656	463.7	0.9688	0.0312
0.3679	377.4	0.9927	0.0073
0.3777	344.6	0.9945	0.0055
0.3786	410.9	0.987	0.013
0.3802	503	0.9368	0.04
0.3863	377.4	0.992	0.008
0.3902	344.6	0.9941	0.0059
0.3939	463.7	0.9673	0.0327
0.3945	563.1	0.79	0.0401
0.3949	533.5	0.8854	0.04
0.3974	410.9	0.9864	0.0136
0.3985	344.6	0.9936	0.0064
0.4036	344.6	0.9932	0.0068
0.4061	377.4	0.9913	0.0087
0.4186	503	0.9339	0.04
0.4189	410.9	0.9852	0.0148
0.4205	377.4	0.9907	0.0093
0.4254	463.7	0.9653	0.0347
0.4305	563.1	0.7766	0.0401
0.4391	410.9	0.984	0.016
0.4417	377.4	0.9896	0.0104
0.4455	533.5	0.8766	0.04
0.448	377.4	0.9887	0.0113
0.4544	463.7	0.9629	0.0371
0.4561	503	0.9309	0.04
0.458	377.4	0.9882	0.0118
0.4611	410.9	0.9819	0.0181
0.4815	410.9	0.9808	0.0192
0.4851	463.7	0.9611	0.0389
0.4988	533.5	0.8655	0.0401
0.5	563.1	0.7375	0.0401
0.5012	503	0.9239	0.04
0.5046	410.9	0.9796	0.0204
0.5149	463.7	0.9578	0.04
0.5234	410.9	0.9778	0.0222
0.53	410.9	0.9771	0.0229
0.5373	563.1	0.712	0.0402
0.5409	503	0.9161	0.04
0.5433	463.7	0.9532	0.04
0.561	533.5	0.8445	0.0402
0.5728	463.7	0.9502	0.04
0.5878	503	0.9001	0.0401
0.5999	463.7	0.9464	0.04
0.6239	533.5	0.7848	0.0411
0.6285	463.7	0.9381	0.04
0.6317	503	0.8849	0.0401
0.6553	463.7	0.9313	0.04
0.7053	503	0.8487	0.0403
