Measured thermophysical data. Solubility of Diphenyl Carbonate in Pure Alcohols from (283 to 333) K
Source: J. Chem. Eng. Data, 2008, 10.1021/je800569v
Compound 1: diphenyl carbonate, C13H10O3, InChI=1S/C13H10O3/c14-13(15-11-7-3-1-4-8-11)16-12-9-5-2-6-10-12/h1-10H
Compound 2: methanol, CH4O, InChI=1S/CH4O/c1-2/h2H,1H3, purity 99.5%
Compound 3: ethanol, C2H6O, InChI=1S/C2H6O/c1-2-3/h3H,2H2,1H3, purity 99.5%
Compound 4: propan-1-ol, C3H8O, InChI=1S/C3H8O/c1-2-3-4/h4H,2-3H2,1H3, purity 99.5%
Compound 5: propan-2-ol, C3H8O, InChI=1S/C3H8O/c1-3(2)4/h3-4H,1-2H3, purity 99.5%
Compound 6: butan-1-ol, C4H10O, InChI=1S/C4H10O/c1-2-3-4-5/h5H,2-4H2,1H3, purity 99.5%
Compound 7: butan-2-ol, C4H10O, InChI=1S/C4H10O/c1-3-4(2)5/h4-5H,3H2,1-2H3, purity 99.5%
Compound 8: 2-methyl-1-propanol, C4H10O, InChI=1S/C4H10O/c1-4(2)3-5/h4-5H,3H2,1-2H3, purity 99.5%

System: diphenyl carbonate; phases: Crystal, Liquid, Air at 1 atmosphere
Property: Normal melting temperature, K (Crystal); method: DTA
Normal melting temperature, K	uncertainty
355.95	0.5

System: methanol + diphenyl carbonate; phases: Liquid, Crystal
Fixed: Pressure, kPa = 101
Property: Mole fraction of diphenyl carbonate (Liquid); method: UV Spectrometry
Temperature, K	Mole fraction of diphenyl carbonate	uncertainty
283	0.008601	0.000447
288	0.01009	0.00052
293	0.0118	0.00061
298	0.01532	0.0008
303	0.01962	0.00102
308	0.02671	0.00139
313	0.04167	0.00217
318	0.0701	0.00366
323	0.1209	0.0064

System: ethanol + diphenyl carbonate; phases: Liquid, Crystal
Fixed: Pressure, kPa = 101
Property: Mole fraction of diphenyl carbonate (Liquid); method: UV Spectrometry
Temperature, K	Mole fraction of diphenyl carbonate	uncertainty
283	0.007325	0.000373
288	0.008685	0.000443
293	0.01063	0.00071
298	0.01341	0.00068
303	0.01862	0.00095
308	0.02568	0.00131
313	0.04138	0.00211
318	0.07005	0.00358
323	0.1205	0.0062
328	0.2349	0.0121

System: propan-1-ol + diphenyl carbonate; phases: Liquid, Crystal
Fixed: Pressure, kPa = 101
Property: Mole fraction of diphenyl carbonate (Liquid); method: UV Spectrometry
Temperature, K	Mole fraction of diphenyl carbonate	uncertainty
283	0.01008	0.00051
288	0.01058	0.00054
293	0.01286	0.00065
298	0.0155	0.00078
303	0.0208	0.0013
308	0.02858	0.00215
313	0.0402	0.00203
318	0.06182	0.00313
323	0.09912	0.00503
328	0.1648	0.0084

System: propan-2-ol + diphenyl carbonate; phases: Liquid, Crystal
Fixed: Pressure, kPa = 101
Property: Mole fraction of diphenyl carbonate (Liquid); method: UV Spectrometry
Temperature, K	Mole fraction of diphenyl carbonate	uncertainty
283	0.005055	0.000256
288	0.007102	0.000359
293	0.008683	0.000439
298	0.0105	0.00053
303	0.01558	0.00079
308	0.02038	0.00103
313	0.03308	0.00167
318	0.05112	0.00259
323	0.08278	0.00419
328	0.1396	0.0071

System: butan-1-ol + diphenyl carbonate; phases: Liquid, Crystal
Fixed: Pressure, kPa = 101
Property: Mole fraction of diphenyl carbonate (Liquid); method: UV Spectrometry
Temperature, K	Mole fraction of diphenyl carbonate	uncertainty
283	0.007308	0.000368
288	0.009085	0.000458
293	0.01128	0.00132
298	0.0155	0.00083
303	0.02238	0.00113
308	0.03152	0.00159
313	0.04055	0.00204
318	0.06819	0.00344
323	0.1108	0.0056
328	0.1889	0.0096
333	0.3642	0.0185

System: butan-2-ol + diphenyl carbonate; phases: Liquid, Crystal
Fixed: Pressure, kPa = 101
Property: Mole fraction of diphenyl carbonate (Liquid); method: UV Spectrometry
Temperature, K	Mole fraction of diphenyl carbonate	uncertainty
283	0.005685	0.000286
288	0.006861	0.000346
293	0.009248	0.000466
298	0.01223	0.00073
303	0.0176	0.00089
308	0.0261	0.00132
313	0.037	0.00186
318	0.06148	0.0031
323	0.1016	0.0051
328	0.2018	0.0102
333	0.43	0.022

System: 2-methyl-1-propanol + diphenyl carbonate; phases: Liquid, Crystal
Fixed: Pressure, kPa = 101
Property: Mole fraction of diphenyl carbonate (Liquid); method: UV Spectrometry
Temperature, K	Mole fraction of diphenyl carbonate	uncertainty
283	0.006555	0.00033
288	0.007756	0.000391
293	0.009248	0.000466
298	0.01212	0.00061
303	0.0158	0.00102
308	0.02312	0.00117
313	0.03354	0.00169
318	0.05426	0.00274
323	0.0994	0.00502
328	0.191	0.0097
333	0.4252	0.0217
