Measured thermophysical data. Solubility of Oxymatrine in Supercritical Carbon Dioxide
Source: J. Chem. Eng. Data, 2008, 10.1021/je800179c
Compound 1: oxymatrine, C15H24N2O2, InChI=1S/C15H24N2O2/c18-14-7-1-6-13-12-5-3-9-17(19)8-2-4-11(15(12)17)10-16(13)14/h11-13,15H,1-10H2/t11-,12+,13+,15-,17?/m0/s1, purity 98%
Compound 2: carbon dioxide, CO2, InChI=1S/CO2/c2-1-3, purity 99.995%

System: carbon dioxide + oxymatrine; phases: Fluid (supercritical or subcritical phases), Crystal
Property: Mole fraction of oxymatrine (Fluid (supercritical or subcritical phases)); method: Chromatography
Temperature, K	Pressure, kPa	Mole fraction of oxymatrine	uncertainty
308.15	11100	6.81e-07	1.74e-07
308.15	13000	8.92e-07	2.27e-07
308.15	15050	1.15e-06	2.93e-07
308.15	17050	1.32e-06	3.36e-07
308.15	19100	1.35e-06	3.44e-07
308.15	21030	1.42e-06	3.61e-07
318.15	11050	8.87e-07	2.26e-07
318.15	12910	1.11e-06	2.83e-07
318.15	15050	1.54e-06	3.92e-07
318.15	17000	2.04e-06	5.19e-07
318.15	19020	2.1e-06	5.34e-07
318.15	21070	2.15e-06	5.47e-07
328.15	11040	7.27e-07	1.86e-07
328.15	12990	1.18e-06	3.02e-07
328.15	14990	1.89e-06	4.82e-07
328.15	16950	2.38e-06	6.05e-07
328.15	18940	2.42e-06	6.15e-07
328.15	21000	2.46e-06	6.26e-07
