Measured thermophysical data. Solubility of Fluorene in Benzene, Chloroform, Acetone, 1-Propanol, Isobutanol, and Methylbenzene from (283 to 323) K
Source: J. Chem. Eng. Data, 2009, 10.1021/je800676s
Compound 1: fluorene, C13H10, InChI=1S/C13H10/c1-3-7-12-10(5-1)9-11-6-2-4-8-13(11)12/h1-8H,9H2
Compound 2: benzene, C6H6, InChI=1S/C6H6/c1-2-4-6-5-3-1/h1-6H, purity 99.8%
Compound 3: trichloromethane, CHCl3, InChI=1S/CHCl3/c2-1(3)4/h1H, purity 99.8%
Compound 4: acetone, C3H6O, InChI=1S/C3H6O/c1-3(2)4/h1-2H3, purity 99.8%
Compound 5: propan-1-ol, C3H8O, InChI=1S/C3H8O/c1-2-3-4/h4H,2-3H2,1H3, purity 99.8%
Compound 6: 2-methyl-1-propanol, C4H10O, InChI=1S/C4H10O/c1-4(2)3-5/h4-5H,3H2,1-2H3, purity 99.8%
Compound 7: toluene, C7H8, InChI=1S/C7H8/c1-7-5-3-2-4-6-7/h2-6H,1H3, purity 99.8%

System: benzene + fluorene; phases: Liquid, Crystal
Fixed: Pressure, kPa = 101
Property: Mole fraction of fluorene (Liquid); method: Laser monitoring observation method
Temperature, K	Mole fraction of fluorene	uncertainty
283	0.08832	0.00444
288	0.09824	0.00494
293	0.1091	0.0055
298	0.1257	0.0063
303.2	0.1432	0.0072
308	0.1584	0.008
313	0.1835	0.0092
318	0.2091	0.0105
323	0.2346	0.0118

System: trichloromethane + fluorene; phases: Liquid, Crystal
Fixed: Pressure, kPa = 101
Property: Mole fraction of fluorene (Liquid); method: Laser monitoring observation method
Temperature, K	Mole fraction of fluorene	uncertainty
283	0.08928	0.00448
288	0.1016	0.0051
293	0.1144	0.0057
298	0.1318	0.0066
303.1	0.1526	0.0077
308.2	0.1731	0.0087
313	0.1952	0.0098
318	0.2199	0.011
323	0.2497	0.0125

System: acetone + fluorene; phases: Liquid, Crystal
Fixed: Pressure, kPa = 101
Property: Mole fraction of fluorene (Liquid); method: Laser monitoring observation method
Temperature, K	Mole fraction of fluorene	uncertainty
283	0.04448	0.00224
288	0.04896	0.00247
293	0.05577	0.00282
298	0.06872	0.00347
303.1	0.07931	0.00401
308.2	0.09074	0.00458
313	0.1038	0.0052
318	0.1198	0.0061
323	0.1398	0.0071

System: propan-1-ol + fluorene; phases: Liquid, Crystal
Fixed: Pressure, kPa = 101
Property: Mole fraction of fluorene (Liquid); method: Laser monitoring observation method
Temperature, K	Mole fraction of fluorene	uncertainty
283	0.00817	0.00041
288	0.00903	0.00046
293	0.01154	0.00058
298.4	0.01339	0.00068
303.2	0.01631	0.00082
308	0.01882	0.00095
313	0.02151	0.00108
318	0.02483	0.00125
323	0.0289	0.00146

System: 2-methyl-1-propanol + fluorene; phases: Liquid, Crystal
Fixed: Pressure, kPa = 101
Property: Mole fraction of fluorene (Liquid); method: Laser monitoring observation method
Temperature, K	Mole fraction of fluorene	uncertainty
283	0.00425	0.00021
288	0.00544	0.00027
293	0.00691	0.00035
298.4	0.00902	0.00046
303.2	0.01212	0.00061
308	0.01563	0.00079
313	0.01924	0.00097
318	0.02296	0.00116
323	0.02668	0.00134

System: fluorene + toluene; phases: Liquid, Crystal
Fixed: Pressure, kPa = 101
Property: Mole fraction of fluorene (Liquid); method: Laser monitoring observation method
Temperature, K	Mole fraction of fluorene	uncertainty
283	0.06295	0.00318
288	0.08088	0.00407
293	0.09674	0.00487
298	0.1239	0.0062
303	0.1525	0.0077
308	0.1952	0.0099
313	0.2497	0.0126
318	0.2999	0.0151
323	0.3696	0.0187
