Measured thermophysical data. Solubility of Hexamethylenetetramine in a Pure Water, Methanol, Acetic Acid, and Ethanol + Water Mixture from (299.38 to 340.35) K
Source: J. Chem. Eng. Data, 2008, 10.1021/je800662m
Compound 1: 1,3,5,7-tetraazaadamantane, C6H12N4, InChI=1S/C6H12N4/c1-7-2-9-4-8(1)5-10(3-7)6-9/h1-6H2, purity 99%
Compound 2: water, H2O, InChI=1S/H2O/h1H2
Compound 3: methanol, CH4O, InChI=1S/CH4O/c1-2/h2H,1H3
Compound 4: acetic acid, C2H4O2, InChI=1S/C2H4O2/c1-2(3)4/h1H3,(H,3,4)
Compound 5: ethanol, C2H6O, InChI=1S/C2H6O/c1-2-3/h3H,2H2,1H3

System: 1,3,5,7-tetraazaadamantane + water; phases: Liquid, Crystal
Fixed: Pressure, kPa = 101
Property: Mole fraction of 1,3,5,7-tetraazaadamantane (Liquid); method: laser monitoring observation
Temperature, K	Mole fraction of 1,3,5,7-tetraazaadamantane	uncertainty
303.21	0.098	0.0027
307.4	0.0959	0.0026
312.18	0.0948	0.0026
317.05	0.0931	0.0025
321.86	0.0914	0.0025
326.15	0.0894	0.0024
330.45	0.0891	0.0024
335.42	0.0895	0.0024
340.35	0.0914	0.0025

System: methanol + 1,3,5,7-tetraazaadamantane; phases: Liquid, Crystal
Fixed: Pressure, kPa = 101
Property: Mole fraction of 1,3,5,7-tetraazaadamantane (Liquid); method: laser monitoring observation
Temperature, K	Mole fraction of 1,3,5,7-tetraazaadamantane	uncertainty
299.91	0.0234	0.0005
304.45	0.0251	0.0006
307.85	0.0264	0.0006
311.9	0.028	0.0006
315.95	0.0293	0.0007
319.63	0.0304	0.0007
323.65	0.032	0.0007
326.25	0.0335	0.0007
330.85	0.0353	0.0008

System: acetic acid + 1,3,5,7-tetraazaadamantane; phases: Liquid, Crystal
Fixed: Pressure, kPa = 101
Property: Mole fraction of 1,3,5,7-tetraazaadamantane (Liquid); method: laser monitoring observation
Temperature, K	Mole fraction of 1,3,5,7-tetraazaadamantane	uncertainty
304.52	0.2448	0.0052
310.83	0.2453	0.0052
317.35	0.2463	0.0052
321.91	0.2492	0.0052
327.65	0.2501	0.0053
332.65	0.2513	0.0053
337.15	0.2556	0.0054

System: ethanol + 1,3,5,7-tetraazaadamantane + water; phases: Liquid, Crystal
Fixed: Pressure, kPa = 101
Property: Mole fraction of 1,3,5,7-tetraazaadamantane (Liquid); method: laser monitoring observation
Solvent: Mass fraction of ethanol	Temperature, K	Mole fraction of 1,3,5,7-tetraazaadamantane	uncertainty
0.20174	299.38	0.0957	0.0019
0.20174	304.13	0.0961	0.002
0.20174	309	0.0961	0.002
0.20174	312.4	0.0962	0.002
0.20174	316.86	0.0958	0.0019
0.20174	321.55	0.0957	0.0019
0.20174	326.18	0.0953	0.0019
0.39639	300.26	0.0904	0.0018
0.39639	303.98	0.0905	0.0018
0.39639	308.74	0.0912	0.0019
0.39639	312.4	0.0921	0.0019
0.39639	316.23	0.0926	0.0019
0.39639	320.63	0.093	0.0019
0.39639	325.24	0.094	0.0019
0.39639	329.15	0.0947	0.0019
0.62731	301.05	0.0761	0.0016
0.62731	304.08	0.0768	0.0016
0.62731	307.63	0.0781	0.0016
0.62731	311.43	0.0792	0.0016
0.62731	315.39	0.08	0.0016
0.62731	319.11	0.0812	0.0017
0.62731	323.12	0.0828	0.0017
0.62731	327.52	0.084	0.0017
0.7907	300.27	0.0566	0.0011
0.7907	303.09	0.0573	0.0012
0.7907	306.86	0.0585	0.0012
0.7907	311.52	0.0602	0.0012
0.7907	316.34	0.0616	0.0013
0.7907	320.4	0.0633	0.0013
0.7907	323.3	0.0641	0.0013
0.7907	326.64	0.0653	0.0013
