Measured thermophysical data. Temperature Dependence of Vapor Pressures over Saturated Aqueous Solutions at Invariant Points of the NaCl + KCl + H2O, NaCl + NaNO3 + H2O, KCl + KBr + H2O, KCl + KI + H2O, KCl + KNO3 + H2O, and KCl + K2SO4 + H2O Systems
Source: J. Chem. Eng. Data, 2009, 10.1021/je800963g
Compound 1: water, H2O, InChI=1S/H2O/h1H2
Compound 2: sodium chloride, ClNa, InChI=1S/ClH.Na/h1H;/q;+1/p-1, purity 99%
Compound 3: potassium chloride, ClK, InChI=1S/ClH.K/h1H;/q;+1/p-1, purity 99%
Compound 4: sodium nitrate, NNaO3, InChI=1S/NO3.Na/c2-1(3)4;/q-1;+1, purity 99%
Compound 5: potassium bromide, BrK, InChI=1S/BrH.K/h1H;/q;+1/p-1, purity 99%
Compound 6: potassium iodide, IK, InChI=1S/HI.K/h1H;/q;+1/p-1, purity 99%
Compound 7: potassium nitrate, KNO3, InChI=1S/K.NO3/c;2-1(3)4/q+1;-1, purity 99%
Compound 8: potassium sulfate, K2O4S, InChI=1S/2K.H2O4S/c;;1-5(2,3)4/h;;(H2,1,2,3,4)/q2*+1;/p-2, purity 99%

System: potassium chloride + sodium chloride + water; phases: Liquid, Crystal, Crystal, Gas
Property: Vapor or sublimation pressure, kPa (Liquid); method: electronic hygrometer
Temperature, K	Vapor or sublimation pressure, kPa	uncertainty
277.85	0.582	0.035
280.05	0.659	0.04
280.15	0.743	0.045
282.25	0.786	0.047
284.65	0.923	0.056
285.45	1.029	0.062
287.05	1.066	0.064
289.15	1.218	0.084
289.55	1.378	0.092
291.25	1.466	0.088
293.45	1.625	0.098
294.15	1.843	0.112
295.35	1.909	0.115
295.45	1.932	0.117
297.75	2.177	0.133
298.15	2.276	0.138
298.7	2.336	0.141
298.75	2.437	0.147
300.75	2.635	0.159
300.77	2.641	0.159
301.35	2.633	0.159
302.25	2.756	0.168
303.15	3.12	0.191
303.5	3.182	0.192
304.25	3.165	0.191
306.55	3.541	0.215
307.55	4.044	0.244
308.75	3.984	0.24
310.85	4.548	0.276
312.05	5.122	0.309
313.05	5.112	0.308
315.55	5.799	0.351
316.65	6.514	0.393
317.95	6.535	0.395
320.45	7.882	0.476
322.55	8.251	0.497

System: sodium nitrate + sodium chloride + water; phases: Liquid, Crystal, Crystal, Gas
Property: Vapor or sublimation pressure, kPa (Liquid); method: hygrometer
Temperature, K	Vapor or sublimation pressure, kPa	uncertainty
279.95	0.675	0.015
279.95	0.675	0.015
284.65	0.896	0.019
284.65	0.896	0.019
289.55	1.205	0.026
289.55	1.205	0.026
294.25	1.589	0.034
294.25	1.589	0.034
317.45	5.531	0.117
322.25	6.952	0.146

System: potassium chloride + water + potassium bromide; phases: Liquid, Crystal, Crystal, Gas
Property: Vapor or sublimation pressure, kPa (Liquid); method: hygrometer
Temperature, K	Vapor or sublimation pressure, kPa	uncertainty
279.55	0.775	0.017
281.45	0.885	0.019
281.95	0.922	0.02
282.05	0.924	0.02
283.65	1.034	0.022
285.05	1.122	0.024
285.15	1.132	0.024
286.05	1.21	0.026
287.85	1.35	0.029
290.15	1.562	0.036
290.35	1.595	0.037
292.95	1.852	0.04
294.65	2.067	0.044
294.65	2.057	0.044
296.65	2.323	0.052
296.95	2.383	0.052
298.15	2.579	0.055
298.95	2.662	0.057
299.05	2.691	0.057
299.35	2.763	0.059
300.25	2.892	0.062
300.85	3.032	0.065
302.05	3.235	0.068
303.05	3.377	0.072
303.05	3.41	0.072
303.55	3.51	0.075
304.75	3.711	0.083
304.95	3.777	0.084
306.35	4.077	0.087
308.15	4.524	0.096
308.25	4.515	0.096
308.25	4.532	0.096
310.05	4.984	0.106
310.65	5.188	0.11
312.05	5.553	0.117
312.55	5.733	0.121
312.85	5.782	0.12
314.35	6.277	0.133
315.45	6.627	0.14
316.85	7.111	0.15
317.55	7.327	0.155
317.85	7.516	0.167
319.15	7.974	0.168
320.75	8.616	0.182
321.75	9.026	0.19
322.35	9.312	0.196
323.35	9.75	0.205

System: potassium chloride + potassium iodide + water; phases: Liquid, Crystal, Crystal, Gas
Property: Vapor or sublimation pressure, kPa (Liquid); method: hygrometer
Temperature, K	Vapor or sublimation pressure, kPa	uncertainty
279.85	0.695	0.015
281.45	0.761	0.016
282.25	0.807	0.018
283.55	0.885	0.019
284.75	0.959	0.021
286.15	1.053	0.023
286.95	1.1	0.024
288.65	1.231	0.026
288.75	1.237	0.026
288.75	1.212	0.026
289.75	1.29	0.028
289.95	1.307	0.03
290.25	1.359	0.03
290.65	1.384	0.029
290.95	1.406	0.03
291.05	1.407	0.03
291.85	1.49	0.032
292.05	1.509	0.033
292.15	1.507	0.033
292.75	1.59	0.035
292.95	1.596	0.034
293.35	1.634	0.035
294.75	1.793	0.037
295.05	1.811	0.039
295.05	1.806	0.039
296.05	1.941	0.04
296.25	1.945	0.041
296.45	1.977	0.044
297.25	2.087	0.045
297.85	2.151	0.046
298.65	2.249	0.048
298.75	2.269	0.048
298.95	2.293	0.049
300.05	2.443	0.051
300.05	2.443	0.051
300.25	2.465	0.052
301.05	2.575	0.055
301.35	2.636	0.057
302.05	2.741	0.058
302.15	2.761	0.058
302.35	2.773	0.057
303.25	2.912	0.062
303.55	2.975	0.065
303.85	3.036	0.065
305.05	3.231	0.069
305.15	3.259	0.069
306.15	3.433	0.073
306.75	3.56	0.075
307.55	3.69	0.078
308.65	3.945	0.084
308.75	3.955	0.084
310.05	4.253	0.089
310.35	4.298	0.09
311.65	4.631	0.098
312.65	4.837	0.102
313.55	5.082	0.108
314.75	5.423	0.115
316.05	5.789	0.122
317.75	6.294	0.133
318.85	6.66	0.141
320.15	7.116	0.151
321.25	7.556	0.16
322.55	8.064	0.17

System: potassium chloride + water + potassium nitrate; phases: Liquid, Crystal, Crystal, Gas
Property: Vapor or sublimation pressure, kPa (Liquid); method: hygrometer
Temperature, K	Vapor or sublimation pressure, kPa	uncertainty
279.05	0.738	0.016
280.85	0.846	0.019
281.35	0.905	0.022
283.65	1.036	0.024
284.05	1.082	0.025
285.75	1.209	0.025
285.95	1.214	0.025
288.15	1.41	0.03
289.75	1.566	0.034
289.85	1.578	0.034
291.35	1.766	0.038
292.25	1.811	0.039
292.95	1.94	0.042
293.75	2	0.042
294.25	2.07	0.044
294.25	2.075	0.044
295.45	2.216	0.047
296.55	2.366	0.051
298.25	2.607	0.056
298.85	2.722	0.059
299.65	2.864	0.061
300.05	2.89	0.062
301.45	3.155	0.068
302.95	3.454	0.073
303.55	3.514	0.075
304.95	3.82	0.081
307.15	4.306	0.091
307.85	4.46	0.095
308.85	4.707	0.1
310.95	5.279	0.112
312.55	5.683	0.12
313.35	5.923	0.126
315.45	6.577	0.139
316.45	6.929	0.147
316.95	7.103	0.15
318.95	7.843	0.165
320.95	8.604	0.181
322.15	9.067	0.191
322.75	9.379	0.198
324.75	10.313	0.217

System: potassium chloride + water + potassium sulfate; phases: Liquid, Crystal, Crystal, Gas
Property: Vapor or sublimation pressure, kPa (Liquid); method: hygrometer
Temperature, K	Vapor or sublimation pressure, kPa	uncertainty
280.15	0.852	0.018
282.95	1.018	0.022
284.15	1.104	0.024
284.85	1.173	0.026
285.35	1.221	0.026
286.25	1.286	0.028
288.25	1.457	0.031
289.65	1.597	0.035
289.95	1.634	0.035
291.15	1.757	0.038
293.85	2.073	0.045
294.45	2.161	0.046
295.15	2.232	0.047
295.85	2.334	0.05
297.05	2.513	0.053
297.15	2.519	0.054
297.25	2.537	0.053
298.15	2.697	0.058
298.55	2.739	0.059
298.95	2.844	0.061
298.95	2.818	0.061
299.65	2.937	0.063
300.35	3.082	0.065
301.45	3.225	0.069
302.85	3.517	0.076
303.45	3.697	0.078
303.65	3.652	0.077
304.25	3.815	0.081
305.55	4.063	0.086
306.35	4.291	0.093
307.85	4.715	0.097
308.05	4.694	0.097
308.35	4.756	0.099
308.65	4.795	0.102
309.65	5.078	0.108
310.15	5.243	0.112
310.65	5.394	0.116
311.55	5.724	0.119
311.75	5.69	0.118
311.85	5.749	0.118
313.25	6.152	0.131
313.95	6.508	0.138
316.05	7.191	0.152
316.95	7.616	0.161
317.45	7.714	0.162
318.45	8.141	0.172
320.15	8.847	0.187
321.55	9.483	0.2
323.45	10.387	0.219
