Measured thermophysical data. Solubility of Hesperetin in Various Solvents from (288.2 to 323.2) K
Source: J. Chem. Eng. Data, 2008, 10.1021/je800078j
Compound 1: acetone, C3H6O, InChI=1S/C3H6O/c1-3(2)4/h1-2H3
Compound 2: water, H2O, InChI=1S/H2O/h1H2
Compound 3: 2,3-Dihydro-5,7-dihydroxy-2-(3-hydroxy-4-methoxyphenyl)-4H-1-benzopyran-4-one, C16H14O6, InChI=1S/C16H14O6/c1-21-13-3-2-8(4-10(13)18)14-7-12(20)16-11(19)5-9(17)6-15(16)22-14/h2-6,14,17-19H,7H2,1H3/t14-/m0/s1
Compound 4: methanol, CH4O, InChI=1S/CH4O/c1-2/h2H,1H3
Compound 5: ethanol, C2H6O, InChI=1S/C2H6O/c1-2-3/h3H,2H2,1H3
Compound 6: butan-1-ol, C4H10O, InChI=1S/C4H10O/c1-2-3-4-5/h5H,2-4H2,1H3

System: methanol + 2,3-Dihydro-5,7-dihydroxy-2-(3-hydroxy-4-methoxyphenyl)-4H-1-benzopyran-4-one; phases: Liquid, Crystal
Fixed: Pressure, kPa = 101
Property: Amount concentration (molarity), mol/dm3 (Liquid); method: SPECTR
Temperature, K	Amount concentration (molarity), mol/dm3	uncertainty
288.2	0.085	0.002
293.2	0.092	0.04
298.2	0.106	0.04
303.2	0.111	0.02
308.2	0.127	0.06
313.2	0.142	0.02
318.2	0.162	0.02
323.2	0.187	0.04

System: ethanol + 2,3-Dihydro-5,7-dihydroxy-2-(3-hydroxy-4-methoxyphenyl)-4H-1-benzopyran-4-one; phases: Liquid, Crystal
Fixed: Pressure, kPa = 101
Property: Amount concentration (molarity), mol/dm3 (Liquid); method: SPECTR
Temperature, K	Amount concentration (molarity), mol/dm3	uncertainty
288.2	0.069	0.002
293.2	0.073	0.002
298.2	0.087	0.004
303.2	0.093	0.004
308.2	0.107	0.004
313.2	0.116	0.006
318.2	0.131	0.003
323.2	0.132	0.004

System: butan-1-ol + 2,3-Dihydro-5,7-dihydroxy-2-(3-hydroxy-4-methoxyphenyl)-4H-1-benzopyran-4-one; phases: Liquid, Crystal
Fixed: Pressure, kPa = 101
Property: Amount concentration (molarity), mol/dm3 (Liquid); method: SPECTR
Temperature, K	Amount concentration (molarity), mol/dm3	uncertainty
288.2	0.0301	0.0007
293.2	0.032	0.0011
298.2	0.037	0.0013
303.2	0.0419	0.0013
308.2	0.0468	0.0009
313.2	0.0539	0.0016
318.2	0.0641	0.0018
323.2	0.0719	0.0022

System: acetone + 2,3-Dihydro-5,7-dihydroxy-2-(3-hydroxy-4-methoxyphenyl)-4H-1-benzopyran-4-one; phases: Liquid, Crystal
Fixed: Pressure, kPa = 101
Property: Amount concentration (molarity), mol/dm3 (Liquid); method: SPECTR
Temperature, K	Amount concentration (molarity), mol/dm3	uncertainty
288.2	0.285	0.009
293.2	0.312	0.011
298.2	0.34	0.005
303.2	0.366	0.011
308.2	0.383	0.011
313.2	0.385	0.015
318.2	0.394	0.013
323.2	0.429	0.01

System: 2,3-Dihydro-5,7-dihydroxy-2-(3-hydroxy-4-methoxyphenyl)-4H-1-benzopyran-4-one + water; phases: Liquid, Crystal
Fixed: Pressure, kPa = 101
Property: Amount concentration (molarity), mol/dm3 (Liquid); method: SPECTR
Temperature, K	Amount concentration (molarity), mol/dm3	uncertainty
288.2	1.2e-06	8e-07
293.2	2.4e-06	8e-07
298.2	4.5e-06	8e-07
303.2	8.6e-06	9e-07
308.2	1.71e-05	1e-06
313.2	3.3e-05	1.3e-06
318.2	5.88e-05	1.7e-06
323.2	0.0001123	2.6e-06
