Measured thermophysical data. Solidification Behavior of the Benzamide + O-Chlorobenzoic Acid Eutectic System
Source: J. Chem. Eng. Data, 2009, 10.1021/je800848u
Compound 1: benzamide, C7H7NO, InChI=1S/C7H7NO/c8-7(9)6-4-2-1-3-5-6/h1-5H,(H2,8,9)
Compound 2: 2-chlorobenzoic acid, C7H5ClO2, InChI=1S/C7H5ClO2/c8-6-4-2-1-3-5(6)7(9)10/h1-4H,(H,9,10)

System: benzamide; phases: Crystal, Liquid, Air at 1 atmosphere
Property: Molar enthalpy of transition or fusion, kJ/mol (Crystal); method: DSC
Molar enthalpy of transition or fusion, kJ/mol	uncertainty
23.1419398848	0.6807878044

System: benzamide; phases: Crystal, Liquid, Air at 1 atmosphere
Property: Normal melting temperature, K (Crystal); method: VISOBS
Normal melting temperature, K	uncertainty
400.15	0.4

System: 2-chlorobenzoic acid; phases: Crystal, Liquid, Gas
Property: Molar enthalpy of transition or fusion, kJ/mol (Crystal); method: DSC
Molar enthalpy of transition or fusion, kJ/mol	uncertainty
27.533714346	0.790658805

System: 2-chlorobenzoic acid; phases: Crystal, Liquid, Air at 1 atmosphere
Property: Normal melting temperature, K (Crystal); method: VISOBS
Normal melting temperature, K	uncertainty
414.15	0.4

System: benzamide + 2-chlorobenzoic acid; phases: Crystal, Crystal, Liquid, Air at 1 atmosphere
Property: Eutectic temperature, K (Crystal); method: DTA::::
Eutectic temperature, K	uncertainty
345.05	2

System: benzamide + 2-chlorobenzoic acid; phases: Liquid, Crystal
Fixed: Pressure, kPa = 101
Property: Solid-liquid equilibrium temperature, K (Liquid); method: VISOBS:UFactor:16
Mole fraction of 2-chlorobenzoic acid	Solid-liquid equilibrium temperature, K	uncertainty
0	400.15	2.5
0.075	396.95	2.5
0.1665	391.55	2.5
0.2468	387.85	2.5
0.3467	381.15	2.5
0.4324	354.35	2.5
0.4559	345.95	2.5

System: benzamide + 2-chlorobenzoic acid; phases: Liquid, Crystal
Fixed: Pressure, kPa = 101
Property: Solid-liquid equilibrium temperature, K (Liquid); method: VISOBS:UFactor:16
Mole fraction of 2-chlorobenzoic acid	Solid-liquid equilibrium temperature, K	uncertainty
0.5	377.65	2.5
0.6338	395.25	2.5
0.7647	405.75	2.5
0.8636	407.95	2.5
0.9516	412.85	2.5
1	414.15	2.5
