Measured thermophysical data. Transfer Enthalpies of Amino Acids and Glycine Peptides from Water to Aqueous Solutions of Sugar Alcohol at 298.15 K
Source: J. Chem. Eng. Data, 2009, 10.1021/je800615s
Compound 1: 2-aminoacetic acid, C2H5NO2, InChI=1S/C2H5NO2/c3-1-2(4)5/h1,3H2,(H,4,5), purity 99%
Compound 2: (S)-2-aminopropanoic acid, C3H7NO2, InChI=1S/C3H7NO2/c1-2(4)3(5)6/h2H,4H2,1H3,(H,5,6)/t2-/m0/s1, purity 99%
Compound 3: L-threonine, C4H9NO3, InChI=1S/C4H9NO3/c1-2(6)3(5)4(7)8/h2-3,6H,5H2,1H3,(H,7,8)/t2-,3+/m1/s1, purity 99%
Compound 4: N-(carboxymethyl)glycine, C4H7NO4, InChI=1S/C4H7NO4/c6-3(7)1-5-2-4(8)9/h5H,1-2H2,(H,6,7)(H,8,9)
Compound 5: nitrilotriacetic acid, C6H9NO6, InChI=1S/C6H9NO6/c8-4(9)1-7(2-5(10)11)3-6(12)13/h1-3H2,(H,8,9)(H,10,11)(H,12,13)
Compound 6: D-sorbitol, C6H14O6, InChI=1S/C6H14O6/c7-1-3(9)5(11)6(12)4(10)2-8/h3-12H,1-2H2/t3-,4+,5-,6-/m1/s1
Compound 7: D-mannitol, C6H14O6, InChI=1S/C6H14O6/c7-1-3(9)5(11)6(12)4(10)2-8/h3-12H,1-2H2/t3-,4-,5-,6-/m1/s1
Compound 8: xylitol, C5H12O5, InChI=1S/C5H12O5/c6-1-3(8)5(10)4(9)2-7/h3-10H,1-2H2/t3-,4+,5+
Compound 9: water, H2O, InChI=1S/H2O/h1H2
Compound 10: L-serine, C3H7NO3, InChI=1S/C3H7NO3/c4-2(1-5)3(6)7/h2,5H,1,4H2,(H,6,7)/t2-/m0/s1, purity 99%

System: 2-aminoacetic acid + water; phases: Liquid
Property: Molar enthalpy of solution, kJ/mol (Liquid); method: microcalorimeter
Mole fraction of 2-aminoacetic acid	Pressure, kPa	Temperature, K	Molar enthalpy of solution, kJ/mol	uncertainty
0	101	298.15	14.17	0.11

System: (S)-2-aminopropanoic acid + water; phases: Liquid
Property: Molar enthalpy of solution, kJ/mol (Liquid); method: microcalorimeter
Mole fraction of (S)-2-aminopropanoic acid	Pressure, kPa	Temperature, K	Molar enthalpy of solution, kJ/mol	uncertainty
0	101	298.15	7.6	0.06

System: L-serine + water; phases: Liquid
Property: Molar enthalpy of solution, kJ/mol (Liquid); method: microcalorimeter
Mole fraction of L-serine	Pressure, kPa	Temperature, K	Molar enthalpy of solution, kJ/mol	uncertainty
0	101	298.15	11.3	0.1

System: L-threonine + water; phases: Liquid
Property: Molar enthalpy of solution, kJ/mol (Liquid); method: microcalorimeter
Mole fraction of L-threonine	Pressure, kPa	Temperature, K	Molar enthalpy of solution, kJ/mol	uncertainty
0	101	298.15	10.35	0.08

System: N-(carboxymethyl)glycine + water; phases: Liquid
Property: Molar enthalpy of solution, kJ/mol (Liquid); method: microcalorimeter
Mole fraction of N-(carboxymethyl)glycine	Pressure, kPa	Temperature, K	Molar enthalpy of solution, kJ/mol	uncertainty
0	101	298.15	11.81	0.1

System: nitrilotriacetic acid + water; phases: Liquid
Property: Molar enthalpy of solution, kJ/mol (Liquid); method: microcalorimeter
Mole fraction of nitrilotriacetic acid	Pressure, kPa	Temperature, K	Molar enthalpy of solution, kJ/mol	uncertainty
0	101	298.15	16.06	0.12

System: D-sorbitol + 2-aminoacetic acid + water; phases: Liquid
Fixed: Mole fraction of 2-aminoacetic acid = 0
Fixed: Pressure, kPa = 101
Fixed: Temperature, K = 298.15
Property: Molar enthalpy of solution, kJ/mol (Liquid); method: microcalirimotry
Solvent: Molality, mol/kg of D-sorbitol	Molar enthalpy of solution, kJ/mol	uncertainty
0.0998	14.14	0.11
0.0999	14.1	0.11
0.1997	13.9	0.11
0.2998	13.73	0.11
0.3997	13.51	0.1
0.4999	13.35	0.1
0.6003	13.21	0.11
0.6999	13.02	0.12
0.7998	12.81	0.1

System: 2-aminoacetic acid + D-mannitol + water; phases: Liquid
Fixed: Mole fraction of 2-aminoacetic acid = 0
Fixed: Pressure, kPa = 101
Fixed: Temperature, K = 298.15
Property: Molar enthalpy of solution, kJ/mol (Liquid); method: microcalirimotry
Solvent: Molality, mol/kg of D-mannitol	Molar enthalpy of solution, kJ/mol	uncertainty
0.0998	14.14	0.11
0.1996	14.08	0.13
0.2997	13.96	0.11
0.3999	13.8	0.13
0.4999	13.65	0.11
0.5997	13.43	0.12
0.6998	13.23	0.1
0.7996	13.02	0.1

System: 2-aminoacetic acid + xylitol + water; phases: Liquid
Fixed: Mole fraction of 2-aminoacetic acid = 0
Fixed: Pressure, kPa = 101
Fixed: Temperature, K = 298.15
Property: Molar enthalpy of solution, kJ/mol (Liquid); method: microcalirimotry
Solvent: Molality, mol/kg of xylitol	Molar enthalpy of solution, kJ/mol	uncertainty
0.1002	14.11	0.11
0.1996	13.96	0.11
0.3001	13.79	0.11
0.3997	13.59	0.11
0.5001	13.41	0.11
0.6002	13.26	0.1
0.6998	13.08	0.1
0.7998	12.86	0.11

System: D-sorbitol + (S)-2-aminopropanoic acid + water; phases: Liquid
Fixed: Mole fraction of (S)-2-aminopropanoic acid = 0
Fixed: Pressure, kPa = 101
Fixed: Temperature, K = 298.15
Property: Molar enthalpy of solution, kJ/mol (Liquid); method: microcalirimotry
Solvent: Molality, mol/kg of D-sorbitol	Molar enthalpy of solution, kJ/mol	uncertainty
0.0999	7.55	0.06
0.1997	7.52	0.06
0.2998	7.46	0.07
0.3997	7.39	0.06
0.4999	7.28	0.06
0.6003	7.2	0.06
0.6999	7.09	0.06
0.7998	6.97	0.05

System: (S)-2-aminopropanoic acid + D-mannitol + water; phases: Liquid
Fixed: Mole fraction of (S)-2-aminopropanoic acid = 0
Fixed: Pressure, kPa = 101
Fixed: Temperature, K = 298.15
Property: Molar enthalpy of solution, kJ/mol (Liquid); method: microcalirimotry
Solvent: Molality, mol/kg of D-mannitol	Molar enthalpy of solution, kJ/mol	uncertainty
0.0998	7.59	0.06
0.1996	7.58	0.1
0.2997	7.54	0.08
0.3999	7.47	0.06
0.4999	7.39	0.06
0.5997	7.32	0.06
0.6998	7.23	0.08
0.7996	7.15	0.06

System: (S)-2-aminopropanoic acid + xylitol + water; phases: Liquid
Fixed: Mole fraction of (S)-2-aminopropanoic acid = 0
Fixed: Pressure, kPa = 101
Fixed: Temperature, K = 298.15
Property: Molar enthalpy of solution, kJ/mol (Liquid); method: microcalirimotry
Solvent: Molality, mol/kg of xylitol	Molar enthalpy of solution, kJ/mol	uncertainty
0.1002	7.56	0.06
0.1996	7.54	0.06
0.3001	7.47	0.07
0.3997	7.41	0.06
0.5001	7.29	0.06
0.6002	7.21	0.07
0.6998	7.18	0.09
0.7998	7.02	0.06

System: D-sorbitol + L-serine + water; phases: Liquid
Fixed: Mole fraction of L-serine = 0
Fixed: Pressure, kPa = 101
Fixed: Temperature, K = 298.15
Property: Molar enthalpy of solution, kJ/mol (Liquid); method: microcalirimotry
Solvent: Molality, mol/kg of D-sorbitol	Molar enthalpy of solution, kJ/mol	uncertainty
0.0999	11.21	0.09
0.1997	10.98	0.09
0.2998	10.73	0.08
0.3997	10.5	0.1
0.4999	10.32	0.08
0.6003	10.21	0.08
0.6999	10.04	0.08
0.7998	9.85	0.08

System: L-serine + D-mannitol + water; phases: Liquid
Fixed: Mole fraction of L-serine = 0
Fixed: Pressure, kPa = 101
Fixed: Temperature, K = 298.15
Property: Molar enthalpy of solution, kJ/mol (Liquid); method: microcalirimotry
Solvent: Molality, mol/kg of D-mannitol	Molar enthalpy of solution, kJ/mol	uncertainty
0.0998	11.27	0.09
0.1996	11.15	0.09
0.2997	10.98	0.11
0.3999	10.79	0.08
0.4999	10.55	0.1
0.5997	10.33	0.08
0.6998	10.18	0.08
0.7996	9.95	0.11

System: L-serine + xylitol + water; phases: Liquid
Fixed: Mole fraction of L-serine = 0
Fixed: Pressure, kPa = 101
Fixed: Temperature, K = 298.15
Property: Molar enthalpy of solution, kJ/mol (Liquid); method: microcalirimotry
Solvent: Molality, mol/kg of xylitol	Molar enthalpy of solution, kJ/mol	uncertainty
0.1002	11.22	0.09
0.1996	11.01	0.09
0.3001	10.77	0.09
0.3997	10.57	0.08
0.5001	10.32	0.08
0.6002	10.23	0.08
0.6998	10.09	0.08
0.7998	9.88	0.08

System: D-sorbitol + L-threonine + water; phases: Liquid
Fixed: Mole fraction of L-threonine = 0
Fixed: Pressure, kPa = 101
Fixed: Temperature, K = 298.15
Property: Molar enthalpy of solution, kJ/mol (Liquid); method: microcalirimotry
Solvent: Molality, mol/kg of D-sorbitol	Molar enthalpy of solution, kJ/mol	uncertainty
0.0999	10.3	0.08
0.1997	10.23	0.09
0.2998	10.14	0.11
0.3997	10.02	0.11
0.4999	9.88	0.08
0.6003	9.77	0.11
0.6999	9.68	0.08
0.7998	9.6	0.09

System: D-mannitol + L-threonine + water; phases: Liquid
Fixed: Mole fraction of L-threonine = 0
Fixed: Pressure, kPa = 101
Fixed: Temperature, K = 298.15
Property: Molar enthalpy of solution, kJ/mol (Liquid); method: microcalirimotry
Solvent: Molality, mol/kg of D-mannitol	Molar enthalpy of solution, kJ/mol	uncertainty
0.0998	10.34	0.08
0.1996	10.29	0.08
0.2997	10.24	0.08
0.3999	10.16	0.08
0.4999	10.09	0.09
0.5997	9.99	0.09
0.6998	9.85	0.08
0.7996	9.73	0.08

System: L-threonine + xylitol + water; phases: Liquid
Fixed: Mole fraction of L-threonine = 0
Fixed: Pressure, kPa = 101
Fixed: Temperature, K = 298.15
Property: Molar enthalpy of solution, kJ/mol (Liquid); method: microcalirimotry
Solvent: Molality, mol/kg of xylitol	Molar enthalpy of solution, kJ/mol	uncertainty
0.1002	10.31	0.08
0.1996	10.25	0.11
0.3001	10.17	0.09
0.3997	10.05	0.11
0.5001	9.92	0.08
0.6002	9.82	0.09
0.6998	9.73	0.08
0.7998	9.64	0.08

System: D-sorbitol + N-(carboxymethyl)glycine + water; phases: Liquid
Fixed: Mole fraction of N-(carboxymethyl)glycine = 0
Fixed: Pressure, kPa = 101
Fixed: Temperature, K = 298.15
Property: Molar enthalpy of solution, kJ/mol (Liquid); method: microcalirimotry
Solvent: Molality, mol/kg of D-sorbitol	Molar enthalpy of solution, kJ/mol	uncertainty
0.0999	11.41	0.1
0.1997	10.92	0.09
0.2998	10.44	0.08
0.3997	9.97	0.09
0.4999	9.6	0.09
0.6003	9.19	0.1
0.6999	8.79	0.07
0.7998	8.37	0.07

System: D-mannitol + N-(carboxymethyl)glycine + water; phases: Liquid
Fixed: Mole fraction of N-(carboxymethyl)glycine = 0
Fixed: Pressure, kPa = 101
Fixed: Temperature, K = 298.15
Property: Molar enthalpy of solution, kJ/mol (Liquid); method: microcalirimotry
Solvent: Molality, mol/kg of D-mannitol	Molar enthalpy of solution, kJ/mol	uncertainty
0.0998	11.53	0.1
0.1996	11.2	0.09
0.2997	10.87	0.08
0.3999	10.42	0.1
0.4999	10.15	0.09
0.5997	9.93	0.11
0.6998	9.66	0.08
0.7996	9.49	0.07

System: xylitol + N-(carboxymethyl)glycine + water; phases: Liquid
Fixed: Mole fraction of N-(carboxymethyl)glycine = 0
Fixed: Pressure, kPa = 101
Fixed: Temperature, K = 298.15
Property: Molar enthalpy of solution, kJ/mol (Liquid); method: microcalirimotry
Solvent: Molality, mol/kg of xylitol	Molar enthalpy of solution, kJ/mol	uncertainty
0.1002	11.43	0.1
0.1996	11.03	0.09
0.3001	10.55	0.08
0.3997	10.13	0.09
0.5001	9.79	0.09
0.6002	9.36	0.1
0.6998	8.94	0.08
0.7998	8.61	0.07

System: D-sorbitol + nitrilotriacetic acid + water; phases: Liquid
Fixed: Mole fraction of nitrilotriacetic acid = 0
Fixed: Pressure, kPa = 101
Fixed: Temperature, K = 298.15
Property: Molar enthalpy of solution, kJ/mol (Liquid); method: microcalirimotry
Solvent: Molality, mol/kg of D-sorbitol	Molar enthalpy of solution, kJ/mol	uncertainty
0.0999	14.89	0.12
0.1997	14.26	0.11
0.2998	13.59	0.11
0.3997	12.96	0.1
0.4999	12.28	0.1
0.6003	11.63	0.09
0.6999	11.21	0.09
0.7998	11.04	0.09

System: D-mannitol + nitrilotriacetic acid + water; phases: Liquid
Fixed: Mole fraction of nitrilotriacetic acid = 0
Fixed: Pressure, kPa = 101
Fixed: Temperature, K = 298.15
Property: Molar enthalpy of solution, kJ/mol (Liquid); method: microcalirimotry
Solvent: Molality, mol/kg of D-mannitol	Molar enthalpy of solution, kJ/mol	uncertainty
0.0998	15.46	0.14
0.1996	15.02	0.12
0.2997	14.52	0.13
0.3999	13.99	0.11
0.4999	13.46	0.1
0.5997	12.89	0.1
0.6998	12.41	0.11
0.7996	11.99	0.1

System: xylitol + nitrilotriacetic acid + water; phases: Liquid
Fixed: Mole fraction of nitrilotriacetic acid = 0
Fixed: Pressure, kPa = 101
Fixed: Temperature, K = 298.15
Property: Molar enthalpy of solution, kJ/mol (Liquid); method: microcalirimotry
Solvent: Molality, mol/kg of xylitol	Molar enthalpy of solution, kJ/mol	uncertainty
0.1002	15.11	0.12
0.1996	14.44	0.11
0.3001	13.85	0.11
0.3997	13.29	0.1
0.5001	12.57	0.11
0.6002	11.96	0.09
0.6998	11.49	0.09
0.7998	11.24	0.11
