Measured thermophysical data. Prediction of Ionic Liquid Properties. II. Volumetric Properties as a Function of Temperature and Pressure
Source: J. Chem. Eng. Data, 2008, 10.1021/je8002817
Compound 1: butyltrimethylammonium bis(trifluoromethylsulfonyl)imide, C9H18F6N2O4S2, InChI=1S/C7H18N.C2F6NO4S2/c1-5-6-7-8(2,3)4;3-1(4,5)14(10,11)9-15(12,13)2(6,7)8/h5-7H2,1-4H3;/q+1;-1, purity 99%
Compound 2: 1-butyl-1-methylpyrrolidinium bis[(trifluoromethyl)sulfonyl]imide, C11H20F6N2O4S2, InChI=1S/C9H20N.C2F6NO4S2/c1-3-4-7-10(2)8-5-6-9-10;3-1(4,5)14(10,11)9-15(12,13)2(6,7)8/h3-9H2,1-2H3;/q+1;-1, purity 99%

System: butyltrimethylammonium bis(trifluoromethylsulfonyl)imide; phases: Liquid
Fixed: Pressure, kPa = 101.325
Property: Mass density, kg/m3 (Liquid); method: VIBTUB:UFactor:4
Temperature, K	Mass density, kg/m3	uncertainty
293.48	1396.3	1.6
302.84	1387.9	1.5
312.82	1379	1.5
322.33	1370.5	1.5
332.75	1361.3	1.5
342.67	1352.5	1.5
352.36	1343.9	1.4
373.31	1325.5	1.4
391.28	1309.7	1.4
414.93	1288.6	1.3

System: butyltrimethylammonium bis(trifluoromethylsulfonyl)imide; phases: Liquid
Property: Mass density, kg/m3 (Liquid); method: VIBTUB:UFactor:2
Pressure, kPa	Temperature, K	Mass density, kg/m3	uncertainty
1000	293.48	1396.8	1.2
1000	322.34	1371.1	1.2
1000	352.36	1344.6	1.2
1000	373.33	1326.2	1.1
1000	391.27	1310.5	1.1
1000	414.95	1289.4	1.1
5000	293.49	1398.8	1.3
5000	322.29	1373.5	1.3
5000	352.3	1347.3	1.3
5000	373.28	1328.9	1.2
5000	391.31	1313.1	1.2
5000	414.94	1292.5	1.2
10000	293.51	1401.4	1.5
10000	322.32	1376.4	1.5
10000	352.29	1350.5	1.4
10000	373.3	1332.4	1.4
10000	391.26	1316.9	1.4
10000	414.94	1296.6	1.3
20000	293.51	1406.6	1.9
20000	322.31	1382.2	1.8
20000	352.27	1356.9	1.8
20000	373.3	1339.2	1.7
20000	391.28	1324.2	1.7
20000	414.94	1304.5	1.6
30000	293.51	1411.7	2.3
30000	322.33	1387.7	2.2
30000	352.34	1363	2.1
30000	373.31	1345.8	2
30000	391.25	1331.2	2
30000	414.89	1312.1	1.9
40000	293.5	1416.7	2.7
40000	322.32	1393.2	2.6
40000	352.32	1369.1	2.5
40000	373.35	1352.3	2.4
40000	391.31	1338.1	2.3
40000	414.92	1319.5	2.2

System: 1-butyl-1-methylpyrrolidinium bis[(trifluoromethyl)sulfonyl]imide; phases: Liquid
Fixed: Pressure, kPa = 101.325
Property: Mass density, kg/m3 (Liquid); method: VIBTUB:UFactor:4
Temperature, K	Mass density, kg/m3	uncertainty
293.49	1398	1.6
302.66	1390.1	1.5
312.62	1381.5	1.5
322.35	1373.2	1.5
332.63	1364.3	1.5
342.54	1355.9	1.5
352.32	1347.5	1.4
373.33	1329.5	1.4
391.3	1314.1	1.4
414.93	1293.9	1.3

System: 1-butyl-1-methylpyrrolidinium bis[(trifluoromethyl)sulfonyl]imide; phases: Liquid
Property: Mass density, kg/m3 (Liquid); method: VIBTUB:UFactor:2
Pressure, kPa	Temperature, K	Mass density, kg/m3	uncertainty
1000	293.51	1398.6	1.2
1000	322.33	1373.8	1.2
1000	352.35	1348.1	1.2
1000	373.32	1330.1	1.2
1000	391.26	1314.9	1.2
1000	414.94	1294.7	1.2
5000	293.51	1401	1.4
5000	322.32	1376.4	1.3
5000	352.33	1351	1.3
5000	373.31	1333.2	1.3
5000	391.3	1318.1	1.3
5000	414.93	1298.1	1.2
10000	293.5	1404	1.5
10000	322.31	1379.7	1.5
10000	352.32	1354.5	1.4
10000	373.33	1337	1.4
10000	391.29	1322	1.4
10000	414.93	1302.4	1.4
20000	293.5	1409.8	1.9
20000	322.31	1386	1.9
20000	352.31	1361.5	1.8
20000	373.34	1344.2	1.7
20000	391.32	1329.6	1.7
20000	414.93	1310.5	1.6
30000	293.5	1415.5	2.3
30000	322.32	1392.2	2.2
30000	352.33	1368.1	2.1
30000	373.31	1351.3	2.1
30000	391.29	1337	2
30000	414.93	1318.1	1.9
40000	293.5	1421	2.8
40000	322.31	1398.2	2.6
40000	352.31	1374.5	2.5
40000	373.34	1358	2.4
40000	391.32	1344	2.4
40000	414.93	1325.6	2.3
