Measured thermophysical data. Electrical Conductances of Tetrabutylammonium Bromide, Sodium Tetraphenylborate, and Sodium Bromide in N,N-Dimethylformamide at (308.15, 313.15, 318.15, and 323.15) K
Source: J. Chem. Eng. Data, 2009, 10.1021/je801001h
Compound 1: dimethylformamide, C3H7NO, InChI=1S/C3H7NO/c1-4(2)3-5/h3H,1-2H3, purity 99%
Compound 2: tetrabutylammonium bromide, C16H36BrN, InChI=1S/C16H36N.BrH/c1-5-9-13-17(14-10-6-2,15-11-7-3)16-12-8-4;/h5-16H2,1-4H3;1H/q+1;/p-1
Compound 3: sodium tetraphenylboron, C24H20BNa, InChI=1S/C24H20B.Na/c1-5-13-21(14-6-1)25(22-15-7-2-8-16-22,23-17-9-3-10-18-23)24-19-11-4-12-20-24;/h1-20H;/q-1;+1
Compound 4: sodium bromide, BrNa, InChI=1S/BrH.Na/h1H;/q;+1/p-1

System: dimethylformamide; phases: Liquid
Fixed: Pressure, kPa = 101.325
Property: Viscosity, Pa*s (Liquid); method: CAPTUB:UFactor:2
Temperature, K	Viscosity, Pa*s	uncertainty
308.15	0.00071025	1.002e-05
313.15	0.00066907	9.5e-06
318.15	0.00064015	9.16e-06
323.15	0.00059989	8.72e-06

System: dimethylformamide; phases: Liquid
Fixed: Pressure, kPa = 101.325
Property: Mass density, kg/m3 (Liquid); method: Pycnometric method
Temperature, K	Mass density, kg/m3	uncertainty
308.15	934.92	0.72
313.15	930.85	0.76
318.15	926.12	0.76
323.15	922.04	0.73

System: dimethylformamide + tetrabutylammonium bromide; phases: Liquid
Fixed: Pressure, kPa = 101
Property: Molar conductivity, S*m2/mol (Liquid); method: dip-type cell
Temperature, K	Amount concentration (molarity), mol/dm3 of tetrabutylammonium bromide	Molar conductivity, S*m2/mol	uncertainty
308.15	0.00199	0.008366	5.02e-05
308.15	0.00299	0.0081486	4.89e-05
308.15	0.00406	0.0079237	4.75e-05
308.15	0.00505	0.0076821	4.61e-05
308.15	0.00606	0.007442	4.47e-05
308.15	0.00706	0.0072548	4.35e-05
308.15	0.00806	0.0070121	4.21e-05
308.15	0.00906	0.0068147	4.09e-05
313.15	0.00198	0.0087081	5.22e-05
313.15	0.00298	0.0084571	5.07e-05
313.15	0.00404	0.0082591	4.96e-05
313.15	0.00502	0.0080378	4.82e-05
313.15	0.00603	0.0078158	4.69e-05
313.15	0.00702	0.007611	4.57e-05
313.15	0.00801	0.0073562	4.41e-05
313.15	0.00901	0.0071765	4.31e-05
318.15	0.00197	0.0091344	5.48e-05
318.15	0.00296	0.0088887	5.33e-05
318.15	0.00402	0.0086312	5.18e-05
318.15	0.00499	0.0084059	5.04e-05
318.15	0.00599	0.0081519	4.89e-05
318.15	0.00698	0.0079152	4.75e-05
318.15	0.00797	0.0076856	4.61e-05
318.15	0.00896	0.0074358	4.46e-05
323.15	0.00196	0.0095028	5.7e-05
323.15	0.00295	0.0092747	5.56e-05
323.15	0.004	0.0090087	5.41e-05
323.15	0.00497	0.0087461	5.25e-05
323.15	0.00597	0.0085222	5.11e-05
323.15	0.00695	0.0082895	4.97e-05
323.15	0.00793	0.0080058	4.8e-05
323.15	0.00891	0.0077723	4.66e-05

System: dimethylformamide + sodium bromide; phases: Liquid
Fixed: Pressure, kPa = 101
Property: Molar conductivity, S*m2/mol (Liquid); method: dip-type cell
Temperature, K	Amount concentration (molarity), mol/dm3 of sodium bromide	Molar conductivity, S*m2/mol	uncertainty
308.15	0.00196	0.0086729	3.47e-05
308.15	0.00314	0.0084252	3.37e-05
308.15	0.00404	0.0082226	3.29e-05
308.15	0.00503	0.0080127	3.21e-05
308.15	0.00612	0.0077807	3.11e-05
308.15	0.00711	0.0075858	3.03e-05
308.15	0.0081	0.0073852	2.95e-05
308.15	0.00919	0.0071553	2.86e-05
313.15	0.00195	0.0091348	3.65e-05
313.15	0.00312	0.0089295	3.57e-05
313.15	0.00403	0.0087679	3.51e-05
313.15	0.00501	0.0085902	3.44e-05
313.15	0.0061	0.0083811	3.35e-05
313.15	0.00709	0.0082089	3.28e-05
313.15	0.00807	0.0080116	3.2e-05
313.15	0.00916	0.007834	3.13e-05
318.15	0.00194	0.0097044	3.88e-05
318.15	0.0031	0.0095173	3.81e-05
318.15	0.004	0.0093637	3.75e-05
318.15	0.00498	0.0092054	3.68e-05
318.15	0.00606	0.0090174	3.61e-05
318.15	0.00704	0.0088322	3.53e-05
318.15	0.00803	0.008666	3.47e-05
318.15	0.00911	0.0084728	3.39e-05
323.15	0.00194	0.0102648	4.11e-05
323.15	0.00309	0.0100854	4.03e-05
323.15	0.00399	0.0099371	3.97e-05
323.15	0.00496	0.0098004	3.92e-05
323.15	0.00604	0.0096008	3.84e-05
323.15	0.00702	0.0094597	3.78e-05
323.15	0.00799	0.0092712	3.71e-05
323.15	0.00907	0.0090999	3.64e-05

System: dimethylformamide + sodium tetraphenylboron; phases: Liquid
Fixed: Pressure, kPa = 101
Property: Molar conductivity, S*m2/mol (Liquid); method: dip-type cell
Temperature, K	Amount concentration (molarity), mol/dm3 of sodium tetraphenylboron	Molar conductivity, S*m2/mol	uncertainty
308.15	0.002	0.0057503	2.3e-05
308.15	0.00304	0.0056344	2.25e-05
308.15	0.00407	0.0055065	2.2e-05
308.15	0.00504	0.0053904	2.16e-05
308.15	0.00593	0.0052982	2.12e-05
308.15	0.00711	0.005157	2.06e-05
308.15	0.00815	0.0050374	2.01e-05
308.15	0.00914	0.0049311	1.97e-05
313.15	0.00199	0.0060809	2.43e-05
313.15	0.00302	0.0059545	2.38e-05
313.15	0.00405	0.0058314	2.33e-05
313.15	0.00502	0.0057197	2.29e-05
313.15	0.0059	0.0056075	2.24e-05
313.15	0.00708	0.0054701	2.19e-05
313.15	0.00811	0.0053558	2.14e-05
313.15	0.0091	0.0052368	2.09e-05
318.15	0.00198	0.0064199	2.57e-05
318.15	0.003	0.0062882	2.52e-05
318.15	0.00403	0.0061611	2.46e-05
318.15	0.00499	0.0060482	2.42e-05
318.15	0.00587	0.0059531	2.38e-05
318.15	0.00704	0.0058035	2.32e-05
318.15	0.00806	0.0056802	2.27e-05
318.15	0.00905	0.0055569	2.22e-05
323.15	0.00197	0.0067606	2.7e-05
323.15	0.00299	0.0066357	2.65e-05
323.15	0.00401	0.0064972	2.6e-05
323.15	0.00497	0.0063775	2.55e-05
323.15	0.00585	0.0062749	2.51e-05
323.15	0.00701	0.0061447	2.46e-05
323.15	0.00803	0.006011	2.4e-05
323.15	0.00901	0.0058934	2.36e-05
