Measured thermophysical data. Solubility of Ethyl Maltol in Aqueous Ethanol Mixtures
Source: J. Chem. Eng. Data, 2008, 10.1021/je800600q
Compound 1: 2-ethyl-3-hydroxy-4H-pyran-4-one, C7H8O3, InChI=1S/C7H8O3/c1-2-6-7(9)5(8)3-4-10-6/h3-4,9H,2H2,1H3, purity 99.7%
Compound 2: ethanol, C2H6O, InChI=1S/C2H6O/c1-2-3/h3H,2H2,1H3
Compound 3: water, H2O, InChI=1S/H2O/h1H2

System: 2-ethyl-3-hydroxy-4H-pyran-4-one; phases: Crystal, Liquid, Air at 1 atmosphere
Property: Normal melting temperature, K (Crystal); method: DTA
Normal melting temperature, K	uncertainty
364.17	0.5

System: 2-ethyl-3-hydroxy-4H-pyran-4-one + water; phases: Liquid, Crystal
Fixed: Pressure, kPa = 101
Property: Mole fraction of 2-ethyl-3-hydroxy-4H-pyran-4-one (Liquid); method: Laser Monitoring
Temperature, K	Mole fraction of 2-ethyl-3-hydroxy-4H-pyran-4-one	uncertainty
293.15	0.0021	0.0004
298.15	0.0023	0.0005
303.15	0.0027	0.0005
308.15	0.0033	0.0007
313.15	0.004	0.0008
318.15	0.0051	0.001
323.15	0.0067	0.0013
328.15	0.0089	0.0018
333.15	0.0126	0.0025

System: ethanol + 2-ethyl-3-hydroxy-4H-pyran-4-one + water; phases: Liquid, Crystal
Fixed: Pressure, kPa = 101
Property: Mole fraction of 2-ethyl-3-hydroxy-4H-pyran-4-one (Liquid); method: Laser Monitoring
Temperature, K	Mole fraction of ethanol	Mole fraction of 2-ethyl-3-hydroxy-4H-pyran-4-one	uncertainty
293.15	0	0.0021	0.0004
293.15	0.1435	0.0115	0.0023
293.15	0.2811	0.0246	0.0049
293.15	0.4771	0.0246	0.005
293.15	0.61	0.0462	0.0093
293.15	0.7787	0.0624	0.0125
293.15	0.8814	0.0776	0.0155
293.15	0.9504	0.0715	0.0143
293.15	1	0.0599	0.012
298.15	0	0.0023	0.0005
298.15	0.1435	0.0152	0.003
298.15	0.2811	0.0373	0.0075
298.15	0.4771	0.0648	0.013
298.15	0.61	0.0799	0.016
298.15	0.7787	0.0928	0.0186
298.15	0.8814	0.093	0.0186
298.15	0.9504	0.0902	0.0181
298.15	1	0.0798	0.016
303.15	0	0.0027	0.0005
303.15	0.1435	0.0216	0.0043
303.15	0.2811	0.054	0.0108
303.15	0.4771	0.0847	0.017
303.15	0.61	0.1023	0.0205
303.15	0.7787	0.1142	0.0229
303.15	0.8814	0.1126	0.0225
303.15	0.9504	0.1097	0.022
303.15	1	0.0974	0.0195
308.15	0	0.0033	0.0007
308.15	0.1435	0.0319	0.0064
308.15	0.2811	0.0804	0.0161
308.15	0.4771	0.1185	0.0237
308.15	0.61	0.1341	0.0269
308.15	0.7787	0.1551	0.0311
308.15	0.8814	0.162	0.0324
308.15	0.9504	0.1486	0.0297
308.15	1	0.1329	0.0266
313.15	0	0.004	0.0008
313.15	0.1435	0.0466	0.0094
313.15	0.2811	0.1221	0.0245
313.15	0.4771	0.1672	0.0335
313.15	0.61	0.1761	0.0353
313.15	0.7787	0.1987	0.0398
313.15	0.8814	0.1871	0.0375
313.15	0.9504	0.1811	0.0363
313.15	1	0.1739	0.0348
318.15	0	0.0051	0.001
318.15	0.1435	0.0733	0.0147
318.15	0.2811	0.1878	0.0377
318.15	0.4771	0.22	0.0441
318.15	0.61	0.2271	0.0455
318.15	0.7787	0.2426	0.0486
318.15	0.8814	0.2445	0.049
318.15	0.9504	0.234	0.0468
318.15	1	0.2272	0.0455
323.15	0	0.0067	0.0013
323.15	0.1435	0.1182	0.0237
323.15	0.2811	0.2699	0.0541
323.15	0.4771	0.2856	0.0572
323.15	0.61	0.2808	0.0562
323.15	0.7787	0.3024	0.0606
323.15	0.8814	0.3126	0.0626
323.15	0.9504	0.302	0.0605
323.15	1	0.2907	0.0582
328.15	0	0.0089	0.0018
328.15	0.1435	0.1573	0.0316
328.15	0.2811	0.3636	0.073
328.15	0.4771	0.3592	0.072
328.15	0.61	0.3577	0.0717
328.15	0.7787	0.3976	0.0796
328.15	0.8814	0.3968	0.0794
328.15	0.9504	0.3857	0.0772
328.15	1	0.3669	0.0735
333.15	0	0.0126	0.0025
333.15	0.1435	0.1976	0.0397
333.15	0.2811	0.437	0.0877
333.15	0.4771	0.4495	0.0901
333.15	0.61	0.449	0.09
333.15	0.7787	0.4799	0.0961
333.15	0.8814	0.4724	0.0946
333.15	0.9504	0.4649	0.0931
333.15	1	0.4594	0.092
