Measured thermophysical data. Solubility of p-Aminobenzenesulfonamide in Supercritical Carbon Dioxide with Acetone Cosolvent
Source: J. Chem. Eng. Data, 2009, 10.1021/je800700r
Compound 1: 4-aminobenzenesulfonamide, C6H8N2O2S, InChI=1S/C6H8N2O2S/c7-5-1-3-6(4-2-5)11(8,9)10/h1-4H,7H2,(H2,8,9,10)
Compound 2: acetone, C3H6O, InChI=1S/C3H6O/c1-3(2)4/h1-2H3
Compound 3: carbon dioxide, CO2, InChI=1S/CO2/c2-1-3

System: 4-aminobenzenesulfonamide + carbon dioxide; phases: Fluid (supercritical or subcritical phases), Crystal
Property: Mass concentration, kg/m3 (Fluid (supercritical or subcritical phases)); method: flow apparatus
Pressure, kPa	Temperature, K	Mass concentration, kg/m3	uncertainty
11000	308.15	1.5024e-06	1.503e-07
11000	318.15	1.5925e-06	1.614e-07
11000	328.15	1.6747e-06	1.71e-07
13000	308.15	1.5525e-06	1.557e-07
13000	318.15	2.1084e-06	2.116e-07
13000	328.15	2.3649e-06	2.382e-07
15000	308.15	1.591e-06	1.596e-07
15000	318.15	2.2218e-06	2.227e-07
15000	328.15	2.8094e-06	2.815e-07
17000	308.15	1.7257e-06	1.733e-07
17000	318.15	2.4745e-06	2.478e-07
17000	328.15	2.9272e-06	2.93e-07
21000	308.15	1.8649e-06	1.871e-07
21000	318.15	2.6276e-06	2.632e-07
21000	328.15	3.3277e-06	3.332e-07

System: 4-aminobenzenesulfonamide + acetone + carbon dioxide; phases: Fluid (supercritical or subcritical phases), Crystal
Fixed: Temperature, K = 318.15
Property: Mass concentration, kg/m3 of 4-aminobenzenesulfonamide (Fluid (supercritical or subcritical phases)); method: flow apparatus
Pressure, kPa	Solvent: Mole fraction of acetone	Mass concentration, kg/m3 of 4-aminobenzenesulfonamide	uncertainty
11000	0	1.5925e-06	1.613e-07
11000	0.03	2.0734e-06	2.09e-07
11000	0.06	2.5972e-06	2.619e-07
13000	0	2.1084e-06	2.114e-07
13000	0.03	2.6107e-06	2.625e-07
13000	0.06	3.2755e-06	3.282e-07
15000	0	2.2218e-06	2.224e-07
15000	0.03	3.1577e-06	3.166e-07
15000	0.06	3.4251e-06	3.43e-07
17000	0	2.4745e-06	2.475e-07
17000	0.03	3.5522e-06	3.554e-07
17000	0.06	3.9865e-06	3.988e-07
21000	0	2.6276e-06	2.628e-07
21000	0.03	3.8585e-06	3.859e-07
21000	0.06	4.2012e-06	4.202e-07
