Measured thermophysical data. Volumetric Behavior of the Binary Mixtures of Methyl Ethyl Ketone with n-Hexane, Cyclohexane, and Benzene at T ) (303.15, 313.15, and 323.15) K
Source: J. Chem. Eng. Data, 2009, 10.1021/je800883b
Compound 1: butanone, C4H8O, InChI=1S/C4H8O/c1-3-4(2)5/h3H2,1-2H3, purity 98%
Compound 2: hexane, C6H14, InChI=1S/C6H14/c1-3-5-6-4-2/h3-6H2,1-2H3, purity 95%
Compound 3: cyclohexane, C6H12, InChI=1S/C6H12/c1-2-4-6-5-3-1/h1-6H2, purity 99%
Compound 4: benzene, C6H6, InChI=1S/C6H6/c1-2-4-6-5-3-1/h1-6H, purity 99%

System: butanone; phases: Liquid
Fixed: Pressure, kPa = 101
Property: Mass density, kg/m3 (Liquid); method: Pycnometric method
Temperature, K	Mass density, kg/m3	uncertainty
303.15	794.6	0.8
313.15	784	0.8
323.15	773.3	0.8

System: hexane; phases: Liquid
Fixed: Pressure, kPa = 101
Property: Mass density, kg/m3 (Liquid); method: Pycnometric method
Temperature, K	Mass density, kg/m3	uncertainty
303.15	650.9	2.4
313.15	641.7	2.4
323.15	630.9	2.3

System: cyclohexane; phases: Liquid
Fixed: Pressure, kPa = 101
Property: Mass density, kg/m3 (Liquid); method: Pycnometric method
Temperature, K	Mass density, kg/m3	uncertainty
303.15	768.9	0.6
313.15	759.2	0.6
323.15	748.7	0.6

System: benzene; phases: Liquid
Fixed: Pressure, kPa = 101
Property: Mass density, kg/m3 (Liquid); method: Pycnometric method
Temperature, K	Mass density, kg/m3	uncertainty
303.15	868.1	0.6
313.15	857.4	0.6
323.15	846.6	0.6

System: butanone + cyclohexane; phases: Liquid
Fixed: Pressure, kPa = 101
Property: Mass density, kg/m3 (Liquid); method: Pycnometric method
Temperature, K	Mole fraction of butanone	Mass density, kg/m3	uncertainty
303.15	0	768.9	0.6
303.15	0.1066	768	0.6
303.15	0.2093	768.3	0.6
303.15	0.3084	769.5	0.6
303.15	0.4042	771.3	0.6
303.15	0.5064	773.6	0.7
303.15	0.6055	776.2	0.7
303.15	0.7007	779.8	0.7
303.15	0.8015	784	0.7
303.15	0.907	789.6	0.8
303.15	1	794.6	0.8
313.15	0	759.2	0.6
313.15	0.1066	758.3	0.6
313.15	0.2093	757.4	0.6
313.15	0.3084	758.2	0.6
313.15	0.4042	759.9	0.6
313.15	0.5064	762.4	0.7
313.15	0.6055	765.1	0.7
313.15	0.7007	769.2	0.7
313.15	0.8015	772.7	0.7
313.15	0.907	777.8	0.8
313.15	1	784	0.8
323.15	0	748.7	0.6
323.15	0.1066	747.4	0.6
323.15	0.2093	746.5	0.6
323.15	0.3084	747.3	0.6
323.15	0.4042	749.2	0.6
323.15	0.5064	751.3	0.7
323.15	0.6055	754.4	0.7
323.15	0.7007	757.8	0.7
323.15	0.8015	761.7	0.7
323.15	0.907	767.2	0.8
323.15	1	773.3	0.8

System: butanone + hexane; phases: Liquid
Fixed: Pressure, kPa = 101
Property: Mass density, kg/m3 (Liquid); method: Pycnometric method
Temperature, K	Mole fraction of butanone	Mass density, kg/m3	uncertainty
303.15	0	650.9	2.4
303.15	0.1057	660	2.2
303.15	0.2048	670	2
303.15	0.3035	680.6	1.8
303.15	0.4071	692.9	1.6
303.15	0.5035	706	1.4
303.15	0.6029	720.7	1.3
303.15	0.7042	736.8	1.1
303.15	0.8059	754.9	1
303.15	0.9033	774	0.9
303.15	1	794.6	0.8
313.15	0	641.7	2.4
313.15	0.1057	650.4	2.2
313.15	0.2048	659	1.9
313.15	0.3035	669.5	1.8
313.15	0.4071	682	1.6
313.15	0.5035	694.7	1.4
313.15	0.6029	709.2	1.3
313.15	0.7042	725.3	1.1
313.15	0.8059	742.9	1
313.15	0.9033	763	0.9
313.15	1	784	0.8
323.15	0	630.9	2.3
323.15	0.1057	639.6	2.1
323.15	0.2048	648	1.9
323.15	0.3035	658.5	1.7
323.15	0.4071	670.4	1.6
323.15	0.5035	683.8	1.4
323.15	0.6029	698.2	1.2
323.15	0.7042	714.2	1.1
323.15	0.8059	732.2	1
323.15	0.9033	752.3	0.9
323.15	1	773.3	0.8

System: benzene + butanone; phases: Liquid
Fixed: Pressure, kPa = 101
Property: Mass density, kg/m3 (Liquid); method: Pycnometric method
Temperature, K	Mole fraction of butanone	Mass density, kg/m3	uncertainty
303.15	0	868.1	0.6
303.15	0.101	861.2	0.6
303.15	0.1999	854.2	0.6
303.15	0.2988	847.1	0.6
303.15	0.3969	839.9	0.7
303.15	0.4996	832.7	0.7
303.15	0.5988	825.2	0.7
303.15	0.6993	817.5	0.7
303.15	0.7931	809.9	0.8
303.15	0.8961	802.2	0.8
303.15	1	794.6	0.8
313.15	0	857.4	0.6
313.15	0.101	850.6	0.6
313.15	0.1999	843.5	0.6
313.15	0.2988	836.6	0.7
313.15	0.3969	829.3	0.7
313.15	0.4996	822.1	0.7
313.15	0.5988	814.6	0.7
313.15	0.6993	806.9	0.7
313.15	0.7931	799.4	0.8
313.15	0.8961	791.7	0.8
313.15	1	784	0.8
323.15	0	846.6	0.6
323.15	0.101	839.9	0.6
323.15	0.1999	832.9	0.6
323.15	0.2988	825.9	0.7
323.15	0.3969	818.7	0.7
323.15	0.4996	811.5	0.7
323.15	0.5988	803.9	0.7
323.15	0.6993	796.4	0.7
323.15	0.7931	788.9	0.8
323.15	0.8961	781.1	0.8
323.15	1	773.3	0.8
