Measured thermophysical data. Solubility of Methyl Salicylate in Supercritical Carbon Dioxide at Several Temperatures
Source: J. Chem. Eng. Data, 2008, 10.1021/je800476n
Compound 1: methyl 2-hydroxybenzoate, C8H8O3, InChI=1S/C8H8O3/c1-11-8(10)6-4-2-3-5-7(6)9/h2-5,9H,1H3
Compound 2: carbon dioxide, CO2, InChI=1S/CO2/c2-1-3

System: methyl 2-hydroxybenzoate + carbon dioxide; phases: Fluid (supercritical or subcritical phases), Crystal
Property: Mole fraction of methyl 2-hydroxybenzoate (Fluid (supercritical or subcritical phases)); method: Chromatography
Pressure, kPa	Temperature, K	Mole fraction of methyl 2-hydroxybenzoate	uncertainty
9000	343.15	0.00051	7e-05
9000	363.15	0.00082	9e-05
9000	383.15	0.00129	0.00016
9000	403.15	0.00272	0.00031
9000	423.15	0.00413	0.00044
11000	343.15	0.00346	0.00039
11000	363.15	0.00149	0.00017
11000	383.15	0.00198	0.00022
11000	403.15	0.00344	0.00038
11000	423.15	0.00503	0.00053
13000	343.15	0.00574	0.00067
13000	363.15	0.00293	0.00033
13000	383.15	0.00281	0.00029
13000	403.15	0.00446	0.00048
13000	423.15	0.00641	0.00067
15000	343.15	0.01003	0.00146
15000	363.15	0.00538	0.0006
15000	383.15	0.00475	0.00048
15000	403.15	0.00636	0.00066
15000	423.15	0.00806	0.00083
17000	343.15	0.03179	0.00388
17000	363.15	0.00972	0.00158
17000	383.15	0.00693	0.0007
17000	403.15	0.00854	0.00087
17000	423.15	0.0102	0.00103
19000	363.15	0.01875	0.00223
19000	383.15	0.01122	0.00119
19000	403.15	0.01117	0.00112
19000	423.15	0.01124	0.00113
21000	363.15	0.04093	0.00486
21000	383.15	0.01503	0.00198
21000	403.15	0.01526	0.00153
21000	423.15	0.01473	0.00148
23000	383.15	0.02122	0.00217
23000	403.15	0.02254	0.00226
23000	423.15	0.02341	0.00235
25000	383.15	0.0432	0.00445
25000	403.15	0.03318	0.00346
25000	423.15	0.02433	0.00249
27000	403.15	0.04226	0.00431
27000	423.15	0.0363	0.00368
29000	403.15	0.05689	0.00575
29000	423.15	0.04982	0.00501
31000	423.15	0.07533	0.00759
