Measured thermophysical data. Phase Equilibria of the Azeotropic Mixture Hexane + Ethyl Acetate with Ionic Liquids at 298.15 K
Source: J. Chem. Eng. Data, 2008, 10.1021/je800077r
Compound 1: 1-octyl-3-methylimidazolium hexafluorophosphate, C12H23F6N2P, InChI=1S/C12H23N2.F6P/c1-3-4-5-6-7-8-9-14-11-10-13(2)12-14;1-7(2,3,4,5)6/h10-12H,3-9H2,1-2H3;/q+1;-1
Compound 2: hexane, C6H14, InChI=1S/C6H14/c1-3-5-6-4-2/h3-6H2,1-2H3
Compound 3: ethyl acetate, C4H8O2, InChI=1S/C4H8O2/c1-3-6-4(2)5/h3H2,1-2H3
Compound 4: 1-hexyl-3-methylimidazolium hexafluorophosphate, C10H19F6N2P, InChI=1S/C10H19N2.F6P/c1-3-4-5-6-7-12-9-8-11(2)10-12;1-7(2,3,4,5)6/h8-10H,3-7H2,1-2H3;/q+1;-1

System: hexane + ethyl acetate; phases: Liquid
Fixed: Pressure, kPa = 101
Property: Refractive index (Na D-line) (Liquid); method: Standard Abbe refractometry
Temperature, K	Mole fraction of hexane	Refractive index (Na D-line)	uncertainty
293.15	0	1.37241	0.00061
293.15	0.0469	1.37193	0.00063
293.15	0.0969	1.37157	0.00063
293.15	0.1898	1.37105	0.00064
293.15	0.2962	1.3706	0.00066
293.15	0.3907	1.37053	0.00065
293.15	0.5028	1.37066	0.00066
293.15	0.598	1.37101	0.00067
293.15	0.6995	1.3718	0.00067
293.15	0.803	1.37266	0.00069
293.15	0.9005	1.37381	0.00067
293.15	0.9514	1.3744	0.00067
293.15	1	1.37495	0.00067
298.15	0	1.36977	0.00061
298.15	0.0469	1.36926	0.00062
298.15	0.0969	1.3689	0.00062
298.15	0.1898	1.36832	0.00063
298.15	0.2962	1.36785	0.00063
298.15	0.3907	1.36776	0.00064
298.15	0.5028	1.36789	0.00065
298.15	0.598	1.36823	0.00065
298.15	0.6995	1.36896	0.00067
298.15	0.803	1.3698	0.00068
298.15	0.9005	1.37096	0.00068
298.15	0.9514	1.37157	0.00068
298.15	1	1.37217	0.00067
303.15	0	1.36712	0.00062
303.15	0.0469	1.3666	0.00061
303.15	0.0969	1.36622	0.00062
303.15	0.1898	1.36559	0.00062
303.15	0.2962	1.36513	0.00062
303.15	0.3907	1.365	0.00063
303.15	0.5028	1.36511	0.00063
303.15	0.598	1.36547	0.00063
303.15	0.6995	1.36611	0.00066
303.15	0.803	1.36689	0.00066
303.15	0.9005	1.36803	0.00069
303.15	0.9514	1.36866	0.00068
303.15	1	1.36936	0.00067

System: hexane + ethyl acetate; phases: Liquid
Fixed: Pressure, kPa = 101
Property: Speed of sound, m/s (Liquid); method: Sing-around technique in a fixed-path interferometer
Temperature, K	Mole fraction of hexane	Speed of sound, m/s	uncertainty
293.15	0	1162	1
293.15	0.0469	1152	1
293.15	0.0969	1141	1
293.15	0.1898	1125	1
293.15	0.2962	1111	1
293.15	0.3907	1101	1
293.15	0.5028	1093	1
293.15	0.598	1090	2
293.15	0.6995	1088	2
293.15	0.803	1089	2
293.15	0.9005	1093	2
293.15	0.9514	1096	2
293.15	1	1100	2
298.15	0	1141	1
298.15	0.0469	1129	1
298.15	0.0969	1119	1
298.15	0.1898	1103	1
298.15	0.2962	1089	1
298.15	0.3907	1079	1
298.15	0.5028	1071	1
298.15	0.598	1067	2
298.15	0.6995	1066	2
298.15	0.803	1067	2
298.15	0.9005	1071	2
298.15	0.9514	1074	2
298.15	1	1078	2
303.15	0	1111	1
303.15	0.0469	1099	1
303.15	0.0969	1089	1
303.15	0.1898	1074	1
303.15	0.2962	1061	1
303.15	0.3907	1053	1
303.15	0.5028	1046	1
303.15	0.598	1042	2
303.15	0.6995	1041	2
303.15	0.803	1043	2
303.15	0.9005	1047	2
303.15	0.9514	1051	2
303.15	1	1055	2

System: hexane + ethyl acetate; phases: Liquid
Fixed: Pressure, kPa = 101
Property: Mass density, kg/m3 (Liquid); method: Vibrating tube method
Temperature, K	Mole fraction of hexane	Mass density, kg/m3	uncertainty
293.15	0	900.5	0.1
293.15	0.0469	884.3	0.2
293.15	0.0969	868	0.2
293.15	0.1898	838.9	0.2
293.15	0.2962	808.6	0.2
293.15	0.3907	783.5	0.2
293.15	0.5028	756	0.2
293.15	0.598	734.5	0.2
293.15	0.6995	713.1	0.2
293.15	0.803	693.3	0.2
293.15	0.9005	675.8	0.2
293.15	0.9514	667.3	0.3
293.15	1	659.5	0.3
298.15	0	894.4	0.1
298.15	0.0469	878.2	0.2
298.15	0.0969	862	0.2
298.15	0.1898	833.1	0.2
298.15	0.2962	803	0.2
298.15	0.3907	778	0.2
298.15	0.5028	750.7	0.2
298.15	0.598	729.3	0.2
298.15	0.6995	708.1	0.2
298.15	0.803	688.4	0.2
298.15	0.9005	671.1	0.2
298.15	0.9514	662.7	0.3
298.15	1	654.9	0.3
303.15	0	888.2	0.1
303.15	0.0469	872.2	0.2
303.15	0.0969	855.9	0.2
303.15	0.1898	827.3	0.2
303.15	0.2962	797.3	0.2
303.15	0.3907	772.4	0.2
303.15	0.5028	745.3	0.2
303.15	0.598	724.1	0.2
303.15	0.6995	703.1	0.2
303.15	0.803	683.5	0.2
303.15	0.9005	666.4	0.2
303.15	0.9514	658.1	0.3
303.15	1	650.4	0.3

System: ethyl acetate + 1-hexyl-3-methylimidazolium hexafluorophosphate; phases: Liquid
Fixed: Pressure, kPa = 101
Property: Refractive index (Na D-line) (Liquid); method: Standard Abbe refractometry
Temperature, K	Mole fraction of 1-hexyl-3-methylimidazolium hexafluorophosphate	Refractive index (Na D-line)	uncertainty
293.15	0	1.37241	0.00061
293.15	0.0506	1.38064	0.00046
293.15	0.104	1.3874	0.00044
293.15	0.1978	1.39645	0.00045
293.15	0.2924	1.402	0.00051
293.15	0.4549	1.40845	0.00063
293.15	0.4974	1.40969	0.00067
293.15	0.5904	1.41237	0.00072
293.15	0.7015	1.41438	0.00083
293.15	0.7926	1.41592	0.0009
293.15	0.8941	1.41731	0.00099
293.15	0.9459	1.41797	0.00104
293.15	1	1.41923	0.00108
298.15	0	1.36977	0.00061
298.15	0.0506	1.37838	0.00056
298.15	0.104	1.38537	0.00055
298.15	0.1978	1.39415	0.00059
298.15	0.2924	1.40007	0.00059
298.15	0.4549	1.4069	0.00065
298.15	0.4974	1.40821	0.00068
298.15	0.5904	1.41083	0.00076
298.15	0.7015	1.41296	0.00083
298.15	0.7926	1.41446	0.0009
298.15	0.8941	1.41594	0.00099
298.15	0.9459	1.41662	0.00103
298.15	1	1.41787	0.00108
303.15	0	1.36712	0.00062
303.15	0.0506	1.37606	0.0007
303.15	0.104	1.38312	0.00071
303.15	0.1978	1.39194	0.00073
303.15	0.2924	1.39821	0.00071
303.15	0.4549	1.40523	0.00068
303.15	0.4974	1.40664	0.0007
303.15	0.5904	1.40893	0.00079
303.15	0.7015	1.4115	0.00085
303.15	0.7926	1.41307	0.00091
303.15	0.8941	1.41454	0.00099
303.15	0.9459	1.41526	0.00103
303.15	1	1.41643	0.00109

System: ethyl acetate + 1-hexyl-3-methylimidazolium hexafluorophosphate; phases: Liquid
Fixed: Pressure, kPa = 101
Property: Speed of sound, m/s (Liquid); method: Sing-around technique in a fixed-path interferometer
Temperature, K	Mole fraction of 1-hexyl-3-methylimidazolium hexafluorophosphate	Speed of sound, m/s	uncertainty
293.15	0	1162	1
293.15	0.0506	1185	1
293.15	0.104	1210	2
293.15	0.1978	1252	2
293.15	0.2924	1288	2
293.15	0.4549	1335	3
293.15	0.4974	1346	3
293.15	0.5904	1366	3
293.15	0.7015	1387	4
293.15	0.7926	1403	4
293.15	0.8941	1420	5
293.15	0.9459	1429	5
293.15	1	1438	5
298.15	0	1141	1
298.15	0.0506	1163	1
298.15	0.104	1189	2
298.15	0.1978	1233	2
298.15	0.2924	1271	2
298.15	0.4549	1320	3
298.15	0.4974	1331	3
298.15	0.5904	1352	3
298.15	0.7015	1374	4
298.15	0.7926	1390	4
298.15	0.8941	1407	5
298.15	0.9459	1415	5
298.15	1	1424	5
303.15	0	1111	1
303.15	0.0506	1142	1
303.15	0.104	1169	2
303.15	0.1978	1215	2
303.15	0.2924	1254	2
303.15	0.4549	1305	3
303.15	0.4974	1317	3
303.15	0.5904	1338	3
303.15	0.7015	1361	4
303.15	0.7926	1378	4
303.15	0.8941	1395	5
303.15	0.9459	1403	5
303.15	1	1411	5

System: ethyl acetate + 1-hexyl-3-methylimidazolium hexafluorophosphate; phases: Liquid
Fixed: Pressure, kPa = 101
Property: Mass density, kg/m3 (Liquid); method: Vibrating tube method
Temperature, K	Mole fraction of 1-hexyl-3-methylimidazolium hexafluorophosphate	Mass density, kg/m3	uncertainty
293.15	0	900.5	0.1
293.15	0.0506	952.6	0.2
293.15	0.104	998.7	0.2
293.15	0.1978	1063.8	0.4
293.15	0.2924	1114.6	0.7
293.15	0.4549	1179.7	1.7
293.15	0.4974	1193.3	2.1
293.15	0.5904	1219.5	2.9
293.15	0.7015	1245.8	4.2
293.15	0.7926	1263.8	5.5
293.15	0.8941	1281.6	7.2
293.15	0.9459	1289.8	8.1
293.15	1	1297.9	9.2
298.15	0	894.4	0.1
298.15	0.0506	946.8	0.2
298.15	0.104	993.2	0.2
298.15	0.1978	1058.6	0.4
298.15	0.2924	1109.8	0.7
298.15	0.4549	1175.2	1.7
298.15	0.4974	1188.9	2
298.15	0.5904	1215.2	2.9
298.15	0.7015	1241.5	4.2
298.15	0.7926	1259.8	5.5
298.15	0.8941	1277.6	7.1
298.15	0.9459	1285.8	8.1
298.15	1	1293.7	9.1
303.15	0	888.2	0.1
303.15	0.0506	941	0.2
303.15	0.104	987.6	0.2
303.15	0.1978	1053.4	0.4
303.15	0.2924	1104.9	0.7
303.15	0.4549	1170.5	1.7
303.15	0.4974	1184.2	2
303.15	0.5904	1210.7	2.9
303.15	0.7015	1237.2	4.2
303.15	0.7926	1255.6	5.4
303.15	0.8941	1273.8	7.1
303.15	0.9459	1282	8
303.15	1	1289.6	9.1

System: hexane + ethyl acetate + 1-hexyl-3-methylimidazolium hexafluorophosphate; phases: Liquid mixture 2, Liquid mixture 1
Fixed: Temperature, K = 298.15
Fixed: Pressure, kPa = 101
Property: Mole fraction of hexane (Liquid mixture 2); method: Density calibration data
Property: Mole fraction of ethyl acetate (Liquid mixture 1); method: Density calibration data
Property: Mole fraction of hexane (Liquid mixture 1); method: Density calibration data
Mole fraction of ethyl acetate	Mole fraction of hexane	uncertainty	Mole fraction of ethyl acetate	uncertainty	Mole fraction of hexane	uncertainty
0.218	0.019	0.005	0.06	0.007	0.94	
0.302	0.033	0.005	0.123	0.007	0.877	
0.384	0.039	0.005	0.184	0.007	0.816	
0.415	0.051	0.005	0.258	0.007	0.743	
0.482	0.064	0.005	0.352	0.007	0.648	
0.52	0.076	0.005	0.417	0.007	0.582	
0.578	0.091	0.005	0.498	0.007	0.501	
0.631	0.108	0.005	0.571	0.007	0.427	
0.658	0.111	0.005	0.626	0.007	0.371	
0.675	0.125	0.006	0.67	0.007	0.326	
0.696	0.134	0.005	0.71	0.007	0.286	
0.72	0.141	0.006	0.747	0.006	0.244	
0.745	0.159	0.006	0.782	0.006	0.193	

System: hexane + ethyl acetate + 1-octyl-3-methylimidazolium hexafluorophosphate; phases: Liquid mixture 2, Liquid mixture 1
Fixed: Temperature, K = 298.15
Fixed: Pressure, kPa = 101
Property: Mole fraction of hexane (Liquid mixture 2); method: Density calibration data
Property: Mole fraction of ethyl acetate (Liquid mixture 1); method: Density calibration data
Property: Mole fraction of hexane (Liquid mixture 1); method: Density calibration data
Mole fraction of ethyl acetate	Mole fraction of hexane	uncertainty	Mole fraction of ethyl acetate	uncertainty	Mole fraction of hexane	uncertainty
0.209	0.087	0.005	0.028	0.007	0.972	
0.267	0.099	0.005	0.08	0.007	0.92	
0.332	0.116	0.005	0.111	0.007	0.889	
0.393	0.132	0.005	0.175	0.007	0.825	
0.444	0.147	0.005	0.236	0.007	0.764	
0.49	0.158	0.005	0.302	0.007	0.698	
0.544	0.163	0.005	0.345	0.007	0.653	
0.6	0.173	0.005	0.406	0.007	0.592	
0.62	0.178	0.006	0.466	0.007	0.532	
0.65	0.195	0.006	0.505	0.007	0.492	
0.67	0.204	0.007	0.534	0.007	0.462	
0.681	0.228	0.012	0.598	0.007	0.396	
0.681	0.262	0.027	0.639	0.007	0.35	
