Measured thermophysical data. Solubility of Lamotrigine, Diazepam, and Clonazepam in Ethanol + Water Mixtures at 298.15 K
Source: J. Chem. Eng. Data, 2009, 10.1021/je8007827
Compound 1: lamotrigine, C9H7Cl2N5, InChI=1S/C9H7Cl2N5/c10-5-3-1-2-4(6(5)11)7-8(12)14-9(13)16-15-7/h1-3H,(H4,12,13,14,16)
Compound 2: 7-chloro-1,3-dihydro-1-methyl-5-phenyl-2H-1,4-benzodiazepin-2-one, C16H13ClN2O, InChI=1S/C16H13ClN2O/c1-19-14-8-7-12(17)9-13(14)16(18-10-15(19)20)11-5-3-2-4-6-11/h2-9H,10H2,1H3
Compound 3: clonazepam, C15H10ClN3O3, InChI=1S/C15H10ClN3O3/c16-12-4-2-1-3-10(12)15-11-7-9(19(21)22)5-6-13(11)18-14(20)8-17-15/h1-7H,8H2,(H,18,20)
Compound 4: ethanol, C2H6O, InChI=1S/C2H6O/c1-2-3/h3H,2H2,1H3
Compound 5: water, H2O, InChI=1S/H2O/h1H2

System: water + lamotrigine; phases: Liquid, Crystal
Property: Amount concentration (molarity), mol/dm3 (Liquid); method: SPECTR
Temperature, K	Pressure, kPa	Amount concentration (molarity), mol/dm3	uncertainty
298.15	101	0.00073	6e-05

System: water + lamotrigine; phases: Liquid, Crystal
Property: Mass density, kg/m3 (Liquid); method: PYCNOM::UFactor:16
Temperature, K	Pressure, kPa	Mass density, kg/m3	uncertainty
298.15	101	1000	6

System: ethanol + lamotrigine; phases: Liquid, Crystal
Property: Amount concentration (molarity), mol/dm3 (Liquid); method: SPECTR
Temperature, K	Pressure, kPa	Amount concentration (molarity), mol/dm3	uncertainty
298.15	101	0.01398	0.00117

System: ethanol + lamotrigine; phases: Liquid, Crystal
Property: Mass density, kg/m3 (Liquid); method: PYCNOM::UFactor:16
Temperature, K	Pressure, kPa	Mass density, kg/m3	uncertainty
298.15	101	790	4

System: 7-chloro-1,3-dihydro-1-methyl-5-phenyl-2H-1,4-benzodiazepin-2-one + water; phases: Liquid, Crystal
Property: Amount concentration (molarity), mol/dm3 (Liquid); method: SPECTR
Temperature, K	Pressure, kPa	Amount concentration (molarity), mol/dm3	uncertainty
298.15	101	0.00015	1e-05

System: 7-chloro-1,3-dihydro-1-methyl-5-phenyl-2H-1,4-benzodiazepin-2-one + water; phases: Liquid, Crystal
Property: Mass density, kg/m3 (Liquid); method: PYCNOM::UFactor:16
Temperature, K	Pressure, kPa	Mass density, kg/m3	uncertainty
298.15	101	1002	6

System: ethanol + 7-chloro-1,3-dihydro-1-methyl-5-phenyl-2H-1,4-benzodiazepin-2-one; phases: Liquid, Crystal
Property: Amount concentration (molarity), mol/dm3 (Liquid); method: SPECTR
Temperature, K	Pressure, kPa	Amount concentration (molarity), mol/dm3	uncertainty
298.15	101	0.09158	0.00765

System: ethanol + 7-chloro-1,3-dihydro-1-methyl-5-phenyl-2H-1,4-benzodiazepin-2-one; phases: Liquid, Crystal
Property: Mass density, kg/m3 (Liquid); method: PYCNOM::UFactor:16
Temperature, K	Pressure, kPa	Mass density, kg/m3	uncertainty
298.15	101	808	4

System: clonazepam + water; phases: Liquid, Crystal
Property: Amount concentration (molarity), mol/dm3 (Liquid); method: SPECTR
Temperature, K	Pressure, kPa	Amount concentration (molarity), mol/dm3	uncertainty
298.15	101	0.0001	1e-05

System: clonazepam + water; phases: Liquid, Crystal
Property: Mass density, kg/m3 (Liquid); method: PYCNOM::UFactor:24
Temperature, K	Pressure, kPa	Mass density, kg/m3	uncertainty
298.15	101	1004	9

System: ethanol + clonazepam; phases: Liquid, Crystal
Property: Amount concentration (molarity), mol/dm3 (Liquid); method: SPECTR
Temperature, K	Pressure, kPa	Amount concentration (molarity), mol/dm3	uncertainty
298.15	101	0.01619	0.00135

System: ethanol + clonazepam; phases: Liquid, Crystal
Property: Mass density, kg/m3 (Liquid); method: PYCNOM:UFactor:24
Temperature, K	Pressure, kPa	Mass density, kg/m3	uncertainty
298.15	101	794	6

System: ethanol + water + lamotrigine; phases: Liquid, Crystal
Fixed: Pressure, kPa = 101
Fixed: Temperature, K = 298.15
Property: Amount concentration (molarity), mol/dm3 of lamotrigine (Liquid); method: SPECTR
Solvent: Volume fraction of ethanol	Amount concentration (molarity), mol/dm3 of lamotrigine	uncertainty
0	0.00073	6e-05
0.1	0.00187	0.00016
0.2	0.00231	0.00019
0.3	0.00439	0.00037
0.4	0.00969	0.00081
0.5	0.02032	0.0017
0.6	0.03562	0.00298
0.7	0.04242	0.00355
0.8	0.04386	0.00367
0.9	0.03762	0.00314
1	0.01398	0.00117

System: ethanol + water + lamotrigine; phases: Liquid, Crystal
Fixed: Pressure, kPa = 101
Fixed: Temperature, K = 298.15
Property: Mass density, kg/m3 (Liquid); method: PYCNOM:UFactor:16
Solvent: Volume fraction of ethanol	Mass density, kg/m3	uncertainty
0	1000	6
0.1	988	6
0.2	977	6
0.3	965	6
0.4	948	6
0.5	931	5
0.6	910	5
0.7	885	5
0.8	862	5
0.9	831	5
1	790	4

System: ethanol + 7-chloro-1,3-dihydro-1-methyl-5-phenyl-2H-1,4-benzodiazepin-2-one + water; phases: Liquid, Crystal
Fixed: Pressure, kPa = 101
Fixed: Temperature, K = 298.15
Property: Amount concentration (molarity), mol/dm3 of 7-chloro-1,3-dihydro-1-methyl-5-phenyl-2H-1,4-benzodiazepin-2-one (Liquid); method: SPECTR
Solvent: Volume fraction of ethanol	Amount concentration (molarity), mol/dm3 of 7-chloro-1,3-dihydro-1-methyl-5-phenyl-2H-1,4-benzodiazepin-2-one	uncertainty
0	0.00015	1e-05
0.1	0.00039	3e-05
0.2	0.00074	6e-05
0.3	0.00199	0.00017
0.4	0.00666	0.00056
0.5	0.01673	0.0014
0.6	0.03925	0.00328
0.7	0.07486	0.00626
0.8	0.10071	0.00842
0.9	0.13473	0.01126
1	0.09158	0.00765

System: ethanol + 7-chloro-1,3-dihydro-1-methyl-5-phenyl-2H-1,4-benzodiazepin-2-one + water; phases: Liquid, Crystal
Fixed: Pressure, kPa = 101
Fixed: Temperature, K = 298.15
Property: Mass density, kg/m3 (Liquid); method: PYCNOM:UFactor:16
Solvent: Volume fraction of ethanol	Mass density, kg/m3	uncertainty
0	1002	6
0.1	990	6
0.2	981	6
0.3	963	6
0.4	950	6
0.5	931	5
0.6	915	5
0.7	887	5
0.8	867	5
0.9	840	5
1	808	4

System: ethanol + clonazepam + water; phases: Liquid, Crystal
Fixed: Pressure, kPa = 101
Fixed: Temperature, K = 298.15
Property: Amount concentration (molarity), mol/dm3 of clonazepam (Liquid); method: SPECTR
Solvent: Volume fraction of ethanol	Amount concentration (molarity), mol/dm3 of clonazepam	uncertainty
0	0.0001	1e-05
0.1	0.00013	1e-05
0.2	0.00025	2e-05
0.3	0.00063	5e-05
0.4	0.0019	0.00016
0.5	0.00452	0.00038
0.6	0.00836	0.0007
0.7	0.01336	0.00112
0.8	0.01788	0.00149
0.9	0.01957	0.00164
1	0.01619	0.00135

System: ethanol + clonazepam + water; phases: Liquid, Crystal
Fixed: Pressure, kPa = 101
Fixed: Temperature, K = 298.15
Property: Mass density, kg/m3 (Liquid); method: PYCNOM:UFactor:24
Solvent: Volume fraction of ethanol	Mass density, kg/m3	uncertainty
0	1004	9
0.1	988	8
0.2	977	8
0.3	965	8
0.4	948	8
0.5	937	8
0.6	910	8
0.7	883	7
0.8	862	7
0.9	825	7
1	794	6
