Measured thermophysical data. Vapor Pressures for the Acetonitrile + Tetrabutylammonium Bromide, Water + Tetrabutylammonium Bromide, and Acetonitrile + Water + Tetrabutylammonium Bromide Systems
Source: J. Chem. Eng. Data, 2009, 10.1021/je800557h
Compound 1: acetonitrile, C2H3N, InChI=1S/C2H3N/c1-2-3/h1H3, purity 99.9%
Compound 2: tetrabutylammonium bromide, C16H36BrN, InChI=1S/C16H36N.BrH/c1-5-9-13-17(14-10-6-2,15-11-7-3)16-12-8-4;/h5-16H2,1-4H3;1H/q+1;/p-1, purity 99%
Compound 3: water, H2O, InChI=1S/H2O/h1H2

System: acetonitrile; phases: Liquid, Gas
Property: Vapor or sublimation pressure, kPa (Liquid); method: Ebulliometric method (Recirculating still)
Temperature, K	Vapor or sublimation pressure, kPa	uncertainty
323.15	33.86	0.379

System: water; phases: Liquid, Gas
Property: Vapor or sublimation pressure, kPa (Liquid); method: Ebulliometric method (Recirculating still)
Temperature, K	Vapor or sublimation pressure, kPa	uncertainty
298.15	3.166	0.054
323.15	12.348	0.087

System: acetonitrile + tetrabutylammonium bromide; phases: Liquid, Gas
Fixed: Temperature, K = 323.15
Property: Vapor or sublimation pressure, kPa (Liquid); method: Ebulliometric method (Recirculating still)
Molality, mol/kg of tetrabutylammonium bromide	Vapor or sublimation pressure, kPa	uncertainty
0	33.86	0.379
0.2	33.008	0.37
0.4	32.504	0.365
0.6	32.02	0.36
0.8	31.487	0.354
1	31.022	0.349

System: tetrabutylammonium bromide + water; phases: Liquid, Gas
Property: Vapor or sublimation pressure, kPa (Liquid); method: Ebulliometric method (Recirculating still)
Temperature, K	Molality, mol/kg of tetrabutylammonium bromide	Vapor or sublimation pressure, kPa	uncertainty
298.15	0	3.166	0.054
298.15	0.2	3.055	0.053
298.15	0.4	2.959	0.053
298.15	0.6	2.864	0.053
298.15	0.8	2.779	0.053
298.15	1	2.701	0.052
323.15	0	12.348	0.087
323.15	0.2	12.006	0.086
323.15	0.4	11.704	0.084
323.15	0.6	11.358	0.083
323.15	0.8	10.907	0.081
323.15	1	10.532	0.08

System: acetonitrile + water; phases: Liquid, Gas
Property: Vapor or sublimation pressure, kPa (Liquid); method: Ebulliometric method (Recirculating still)
Temperature, K	Mole fraction of acetonitrile	Vapor or sublimation pressure, kPa	uncertainty
298.15	0.02	5.488	0.082
298.15	0.05	8.398	0.11
298.15	0.1	11.127	0.138
298.15	0.2	12.441	0.152
298.15	0.3	12.663	0.154
298.15	0.4	12.702	0.155
298.15	0.5	12.749	0.155
298.15	0.65	12.793	0.156
298.15	0.75	12.899	0.157
298.15	0.85	12.797	0.156
298.15	0.95	12.264	0.15
323.15	0.02	18.622	0.217
323.15	0.05	27.002	0.306
323.15	0.1	32.267	0.363
323.15	0.2	35.89	0.402
323.15	0.3	36.791	0.411
323.15	0.4	37.457	0.418
323.15	0.5	37.601	0.42
323.15	0.65	37.991	0.424
323.15	0.75	38.124	0.425
323.15	0.85	37.629	0.42
323.15	0.95	35.34	0.396

System: acetonitrile + tetrabutylammonium bromide + water; phases: Liquid, Gas
Property: Vapor or sublimation pressure, kPa (Liquid); method: Ebulliometric method (Recirculating still)
Temperature, K	Mole fraction of acetonitrile	Molality, mol/kg of tetrabutylammonium bromide	Vapor or sublimation pressure, kPa	uncertainty
298.15	0.02	0	5.488	0.082
298.15	0.02	0.2	4.023	0.069
298.15	0.02	0.4	3.72	0.066
298.15	0.02	0.6	3.546	0.065
298.15	0.02	0.8	3.336	0.063
298.15	0.02	1	3.26	0.063
298.15	0.05	0	8.398	0.11
298.15	0.05	0.2	6.236	0.089
298.15	0.05	0.4	5.425	0.081
298.15	0.05	0.6	4.916	0.077
298.15	0.05	0.8	4.611	0.074
298.15	0.05	1	4.273	0.071
298.15	0.1	0	11.127	0.138
298.15	0.1	0.2	7.923	0.106
298.15	0.1	0.4	7.188	0.098
298.15	0.1	0.6	6.336	0.09
298.15	0.1	0.8	5.767	0.084
298.15	0.1	1	5.182	0.079
298.15	0.2	0	12.441	0.152
298.15	0.2	0.2	10.867	0.136
298.15	0.2	0.4	9.839	0.125
298.15	0.2	0.6	8.742	0.114
298.15	0.2	0.8	7.657	0.103
298.15	0.2	1	6.933	0.096
298.15	0.3	0	12.663	0.154
298.15	0.3	0.2	11.124	0.138
298.15	0.3	0.4	10.28	0.13
298.15	0.3	0.6	9.528	0.122
298.15	0.3	0.8	8.763	0.114
298.15	0.3	1	8.099	0.107
298.15	0.4	0	12.702	0.155
298.15	0.4	0.2	11.798	0.145
298.15	0.4	0.4	11.119	0.138
298.15	0.4	0.6	10.428	0.131
298.15	0.4	0.8	9.744	0.124
298.15	0.4	1	8.976	0.116
298.15	0.5	0	12.749	0.155
298.15	0.5	0.2	12.121	0.149
298.15	0.5	0.4	11.62	0.144
298.15	0.5	0.6	11.141	0.139
298.15	0.5	0.8	10.664	0.134
298.15	0.5	1	10.176	0.129
298.15	0.65	0	12.793	0.156
298.15	0.65	0.2	12.267	0.15
298.15	0.65	0.4	11.795	0.145
298.15	0.65	0.6	11.299	0.14
298.15	0.65	0.8	10.862	0.136
298.15	0.65	1	10.33	0.13
298.15	0.75	0	12.899	0.157
298.15	0.75	0.2	12.456	0.152
298.15	0.75	0.4	11.995	0.147
298.15	0.75	0.6	11.483	0.142
298.15	0.75	0.8	11.042	0.138
298.15	0.75	1	10.607	0.133
298.15	0.85	0	12.797	0.156
298.15	0.85	0.2	12.33	0.151
298.15	0.85	0.4	11.886	0.146
298.15	0.85	0.6	11.427	0.142
298.15	0.85	0.8	11.019	0.137
298.15	0.85	1	10.648	0.133
298.15	0.95	0	12.264	0.15
298.15	0.95	0.2	11.865	0.146
298.15	0.95	0.4	11.531	0.143
298.15	0.95	0.6	11.188	0.139
298.15	0.95	0.8	10.859	0.136
298.15	0.95	1	10.577	0.133
323.15	0.02	0	18.622	0.217
323.15	0.02	0.2	14.134	0.17
323.15	0.02	0.4	12.935	0.157
323.15	0.02	0.6	12.164	0.149
323.15	0.02	0.8	11.163	0.139
323.15	0.02	1	10.461	0.132
323.15	0.05	0	27.002	0.306
323.15	0.05	0.2	17.92	0.21
323.15	0.05	0.4	15.916	0.189
323.15	0.05	0.6	14.927	0.178
323.15	0.05	0.8	14.196	0.17
323.15	0.05	1	13.636	0.165
323.15	0.1	0	32.267	0.363
323.15	0.1	0.2	21.071	0.243
323.15	0.1	0.4	18.304	0.214
323.15	0.1	0.6	16.841	0.198
323.15	0.1	0.8	15.41	0.183
323.15	0.1	1	14.707	0.176
323.15	0.2	0	35.89	0.402
323.15	0.2	0.2	27.844	0.315
323.15	0.2	0.4	24.554	0.28
323.15	0.2	0.6	21.855	0.252
323.15	0.2	0.8	20.062	0.233
323.15	0.2	1	18.037	0.211
323.15	0.3	0	36.791	0.411
323.15	0.3	0.2	29.985	0.338
323.15	0.3	0.4	26.243	0.298
323.15	0.3	0.6	24.054	0.275
323.15	0.3	0.8	22.019	0.253
323.15	0.3	1	20.67	0.239
323.15	0.4	0	37.457	0.418
323.15	0.4	0.2	31.55	0.355
323.15	0.4	0.4	29.447	0.333
323.15	0.4	0.6	27.572	0.313
323.15	0.4	0.8	26.057	0.296
323.15	0.4	1	25.083	0.286
323.15	0.5	0	37.601	0.42
323.15	0.5	0.2	34.189	0.383
323.15	0.5	0.4	31.573	0.355
323.15	0.5	0.6	30.09	0.339
323.15	0.5	0.8	28.623	0.324
323.15	0.5	1	27.289	0.31
323.15	0.65	0	37.991	0.424
323.15	0.65	0.2	36.043	0.403
323.15	0.65	0.4	35.564	0.398
323.15	0.65	0.6	32.977	0.37
323.15	0.65	0.8	31.379	0.353
323.15	0.65	1	30.081	0.339
323.15	0.75	0	38.124	0.425
323.15	0.75	0.2	36.725	0.41
323.15	0.75	0.4	35.294	0.395
323.15	0.75	0.6	34.216	0.384
323.15	0.75	0.8	33.242	0.373
323.15	0.75	1	32.211	0.362
323.15	0.85	0	37.629	0.42
323.15	0.85	0.2	36.288	0.406
323.15	0.85	0.4	35.002	0.392
323.15	0.85	0.6	33.593	0.377
323.15	0.85	0.8	32.32	0.363
323.15	0.85	1	31.009	0.349
323.15	0.95	0	35.34	0.396
323.15	0.95	0.2	34.229	0.384
323.15	0.95	0.4	33.225	0.373
323.15	0.95	0.6	32.069	0.361
323.15	0.95	0.8	31.165	0.351
323.15	0.95	1	30.063	0.339
