Measured thermophysical data. Vapor Pressure Measurements of Dimethyl Ether from (213 to 393) K
Source: J. Chem. Eng. Data, 2008, 10.1021/je800375t
Compound 1: dimethyl ether, C2H6O, InChI=1S/C2H6O/c1-3-2/h1-2H3, purity 99.95%

System: dimethyl ether; phases: Liquid, Gas
Property: Vapor or sublimation pressure, kPa (Liquid); method: CCELL:UFactor:2
Temperature, K	Vapor or sublimation pressure, kPa	uncertainty
213.076	16.46	1.4
218.11	22.24	1.4
223.152	29.61	1.4
228.058	38.64	1.41
233.092	49.96	1.41
238.11	63.84	1.41
243.07	80.36	1.42
248.123	100.43	1.43
253.125	124.09	1.45
258.135	152.4	1.47
263.132	184.96	1.5
268.13	222.7	1.54
273.167	266.5	1.6
278.166	316.12	1.67
283.16	372.9	1.77
288.134	436.69	1.88
293.165	509.01	2.02
298.084	588.17	2.19
298.784	600.51	2.22
303.151	679.68	2.4
303.782	691.56	2.42
308.127	778.92	2.63
313.166	889.98	2.9
318.164	1011.55	3.21
323.165	1144.73	3.57
328.161	1290.23	4.03
333.165	1449.22	4.52
338.166	1621.53	5.05
343.163	1809.11	5.64
348.16	2012.44	6.27
353.162	2232.34	6.95
358.159	2468.87	7.68
363.157	2723.27	8.47
368.136	2996.38	9.32
373.136	3291.17	10.23
378.151	3608.63	11.22
383.15	3948.62	12.27
388.162	4313.91	13.4
393.163	4706.18	14.62
