Measured thermophysical data. Gas Solubilities (CO2, O2, Ar, N2, H2, and He) in Liquid Chlorinated Methanes
Source: J. Chem. Eng. Data, 2008, 10.1021/je800200j
Compound 1: dichloromethane, CH2Cl2, InChI=1S/CH2Cl2/c2-1-3/h1H2
Compound 2: chloromethane, CH3Cl, InChI=1S/CH3Cl/c1-2/h1H3
Compound 3: carbon dioxide, CO2, InChI=1S/CO2/c2-1-3
Compound 4: oxygen, O2, InChI=1S/O2/c1-2
Compound 5: argon, Ar, InChI=1S/Ar
Compound 6: hydrogen, H2, InChI=1S/H2/h1H
Compound 7: nitrogen, N2, InChI=1S/N2/c1-2
Compound 8: helium, He, InChI=1S/He

System: dichloromethane + carbon dioxide; phases: Liquid, Gas
Fixed: Mole fraction of carbon dioxide = 0
Property: Henry's Law constant (mole fraction scale), kPa of carbon dioxide (Liquid); method: Decrease in pressure due to absorption
Temperature, K	Henry's Law constant (mole fraction scale), kPa of carbon dioxide	uncertainty
283.15	9727	238
288.15	10550	260
293.15	11400	280
298.15	12300	300
303.15	13230	320
308.15	14200	350
313.15	15210	370
318.15	16250	400
323.15	17330	420

System: dichloromethane + oxygen; phases: Liquid, Gas
Fixed: Mole fraction of oxygen = 0
Property: Henry's Law constant (mole fraction scale), kPa of oxygen (Liquid); method: Decrease in pressure due to absorption
Temperature, K	Henry's Law constant (mole fraction scale), kPa of oxygen	uncertainty
283.15	190000	5600
288.15	185000	5500
293.15	180400	5300
298.15	176000	5200
303.15	171900	5100
308.15	168000	5000
313.15	164300	4900
318.15	160800	4800
323.15	157400	4700

System: dichloromethane + argon; phases: Liquid, Gas
Fixed: Mole fraction of argon = 0
Property: Henry's Law constant (mole fraction scale), kPa of argon (Liquid); method: Decrease in pressure due to absorption
Temperature, K	Henry's Law constant (mole fraction scale), kPa of argon	uncertainty
283.15	209600	5800
288.15	203700	5700
293.15	198200	5500
298.15	193000	5400
303.15	188100	5200
308.15	183500	5100
313.15	179100	5000
318.15	175000	4900
323.15	171100	4800

System: dichloromethane + nitrogen; phases: Liquid, Gas
Fixed: Mole fraction of nitrogen = 0
Property: Henry's Law constant (mole fraction scale), kPa of nitrogen (Liquid); method: Decrease in pressure due to absorption
Temperature, K	Henry's Law constant (mole fraction scale), kPa of nitrogen	uncertainty
283.15	333500	10500
288.15	319300	10000
293.15	306200	9600
298.15	294000	9200
303.15	282700	8900
308.15	272100	8500
313.15	262300	8200
318.15	253100	7900
323.15	244600	7700

System: dichloromethane + hydrogen; phases: Liquid, Gas
Fixed: Mole fraction of hydrogen = 0
Property: Henry's Law constant (mole fraction scale), kPa of hydrogen (Liquid); method: Decrease in pressure due to absorption
Temperature, K	Henry's Law constant (mole fraction scale), kPa of hydrogen	uncertainty
283.15	648800	22700
288.15	607800	21300
293.15	570700	20000
298.15	537000	18800
303.15	506300	17700
308.15	478300	16700
313.15	452600	15800
318.15	429100	15000
323.15	407400	14300

System: dichloromethane + helium; phases: Liquid, Gas
Fixed: Mole fraction of helium = 0
Property: Henry's Law constant (mole fraction scale), kPa of helium (Liquid); method: Decrease in pressure due to absorption
Temperature, K	Henry's Law constant (mole fraction scale), kPa of helium	uncertainty
283.15	1525000	184000
288.15	1404000	170000
293.15	1296000	157000
298.15	1200000	145000
303.15	1114000	135000
308.15	1036000	125000
313.15	966400	116800
318.15	903200	109100
323.15	845900	102200

System: chloromethane + carbon dioxide; phases: Liquid, Gas
Fixed: Mole fraction of carbon dioxide = 0
Property: Henry's Law constant (mole fraction scale), kPa of carbon dioxide (Liquid); method: Decrease in pressure due to absorption
Temperature, K	Henry's Law constant (mole fraction scale), kPa of carbon dioxide	uncertainty
283.15	8782	356
288.15	9492	385
293.15	10230	410
298.15	11000	450
303.15	11800	480
308.15	12630	510
313.15	13480	550
318.15	14370	580
323.15	15280	620

System: chloromethane + oxygen; phases: Liquid, Gas
Fixed: Mole fraction of oxygen = 0
Property: Henry's Law constant (mole fraction scale), kPa of oxygen (Liquid); method: Decrease in pressure due to absorption
Temperature, K	Henry's Law constant (mole fraction scale), kPa of oxygen	uncertainty
283.15	142300	5500
288.15	140100	5400
293.15	138000	5300
298.15	136000	5300
303.15	134100	5200
308.15	132300	5100
313.15	130500	5000
318.15	128800	5000
323.15	127200	4900

System: chloromethane + argon; phases: Liquid, Gas
Fixed: Mole fraction of argon = 0
Property: Henry's Law constant (mole fraction scale), kPa of argon (Liquid); method: Decrease in pressure due to absorption
Temperature, K	Henry's Law constant (mole fraction scale), kPa of argon	uncertainty
283.15	130400	4100
288.15	128500	4000
293.15	126700	4000
298.15	125000	3900
303.15	123400	3900
308.15	121800	3800
313.15	120300	3800
318.15	118900	3700
323.15	117500	3700

System: chloromethane + nitrogen; phases: Liquid, Gas
Fixed: Mole fraction of nitrogen = 0
Property: Henry's Law constant (mole fraction scale), kPa of nitrogen (Liquid); method: Decrease in pressure due to absorption
Temperature, K	Henry's Law constant (mole fraction scale), kPa of nitrogen	uncertainty
283.15	278300	11300
288.15	268600	10900
293.15	259500	10500
298.15	251000	10200
303.15	243100	9900
308.15	235600	9600
313.15	228600	9300
318.15	222000	9000
323.15	215900	8800

System: chloromethane + hydrogen; phases: Liquid, Gas
Fixed: Mole fraction of hydrogen = 0
Property: Henry's Law constant (mole fraction scale), kPa of hydrogen (Liquid); method: Decrease in pressure due to absorption
Temperature, K	Henry's Law constant (mole fraction scale), kPa of hydrogen	uncertainty
283.15	568100	46200
288.15	530200	43100
293.15	496000	40300
298.15	465000	37800
303.15	436900	35500
308.15	411300	33400
313.15	388000	31500
318.15	366700	29800
323.15	347100	28200

System: chloromethane + helium; phases: Liquid, Gas
Fixed: Mole fraction of helium = 0
Property: Henry's Law constant (mole fraction scale), kPa of helium (Liquid); method: Decrease in pressure due to absorption
Temperature, K	Henry's Law constant (mole fraction scale), kPa of helium	uncertainty
283.15	1385000	236000
288.15	1267000	216000
293.15	1163000	198000
298.15	1070000	183000
303.15	987400	168400
308.15	913600	155800
313.15	847400	144600
318.15	787800	134400
323.15	734100	125200
