Measured thermophysical data. Solubility of Isoniazid in Various Organic Solvents from (301 to 313) K
Source: J. Chem. Eng. Data, 2008, 10.1021/je800156m
Compound 1: isonicotinic acid hydrazide, C6H7N3O, InChI=1S/C6H7N3O/c7-9-6(10)5-1-3-8-4-2-5/h1-4H,7H2,(H,9,10)
Compound 2: ethanol, C2H6O, InChI=1S/C2H6O/c1-2-3/h3H,2H2,1H3
Compound 3: methanol, CH4O, InChI=1S/CH4O/c1-2/h2H,1H3
Compound 4: ethyl acetate, C4H8O2, InChI=1S/C4H8O2/c1-3-6-4(2)5/h3H2,1-2H3
Compound 5: acetone, C3H6O, InChI=1S/C3H6O/c1-3(2)4/h1-2H3

System: isonicotinic acid hydrazide + ethanol; phases: Liquid, Crystal
Fixed: Pressure, kPa = 101
Property: Mole fraction of isonicotinic acid hydrazide (Liquid); method: gravimetrically
Temperature, K	Mole fraction of isonicotinic acid hydrazide	uncertainty
301	0.00545	0.00055
303	0.00579	0.00058
308	0.00717	0.00072
311	0.00816	0.00082
313	0.00887	0.00089

System: isonicotinic acid hydrazide + methanol; phases: Liquid, Crystal
Fixed: Pressure, kPa = 101
Property: Mole fraction of isonicotinic acid hydrazide (Liquid); method: gravimetrically
Temperature, K	Mole fraction of isonicotinic acid hydrazide	uncertainty
301	0.0107	0.00108
303	0.01139	0.00115
308	0.01371	0.00138
311	0.01541	0.00155
313	0.01634	0.00164

System: isonicotinic acid hydrazide + ethyl acetate; phases: Liquid, Crystal
Fixed: Pressure, kPa = 101
Property: Mole fraction of isonicotinic acid hydrazide (Liquid); method: gravimetrically
Temperature, K	Mole fraction of isonicotinic acid hydrazide	uncertainty
301	0.00159	0.00016
303	0.00172	0.00017
308	0.00206	0.00021
311	0.00225	0.00023
313	0.00251	0.00025

System: isonicotinic acid hydrazide + acetone; phases: Liquid, Crystal
Fixed: Pressure, kPa = 101
Property: Mole fraction of isonicotinic acid hydrazide (Liquid); method: gravimetrically
Temperature, K	Mole fraction of isonicotinic acid hydrazide	uncertainty
301	0.00946	0.00095
303	0.01042	0.00118
308	0.01362	0.00137
311	0.01603	0.00162
313	0.01873	0.00189
