Measured thermophysical data. Solubility of Lovastatin in Acetone + Water Solvent Mixtures
Source: J. Chem. Eng. Data, 2008, 10.1021/je800063d
Compound 1: acetone, C3H6O, InChI=1S/C3H6O/c1-3(2)4/h1-2H3
Compound 2: lovastatin, C24H36O5, InChI=1S/C24H36O5/c1-5-15(3)24(27)29-21-11-14(2)10-17-7-6-16(4)20(23(17)21)9-8-19-12-18(25)13-22(26)28-19/h6-7,10,14-16,18-21,23,25H,5,8-9,11-13H2,1-4H3/t14-,15-,16-,18+,19+,20-,21-,23-/m0/s1, purity 99.5%
Compound 3: water, H2O, InChI=1S/H2O/h1H2

System: lovastatin; phases: Crystal, Liquid, Air at 1 atmosphere
Property: Normal melting temperature, K (Crystal); method: VISOBS
Normal melting temperature, K	uncertainty
452.15	1.06

System: acetone + water + lovastatin; phases: Liquid, Crystal
Fixed: Pressure, kPa = 101
Property: Mole fraction of lovastatin (Liquid); method: laser monitoring observation technique
Temperature, K	Mole fraction of acetone	Mole fraction of lovastatin	uncertainty
278.15	0.2	4.68e-05	3.2e-06
278.15	0.3	0.000315	2.09e-05
278.15	0.4	0.00115	7.5e-05
278.15	0.5	0.002	0.000128
278.15	0.6	0.00416	0.000264
278.15	0.7	0.00554	0.000348
278.15	0.8	0.00582	0.000363
278.15	0.9	0.00601	0.000373
278.65	1	0.006375	0.000394
283.15	0.2	6.56e-05	4.5e-06
283.15	0.3	0.00041	2.73e-05
283.15	0.4	0.00146	9.5e-05
283.15	0.5	0.0025	0.00016
283.15	0.6	0.00507	0.000321
283.15	0.7	0.00669	0.000421
283.15	0.8	0.00707	0.000441
283.15	0.9	0.0073	0.000453
283.2	1	0.007416	0.000458
288.15	0.2	9.05e-05	6.2e-06
288.15	0.3	0.000526	3.5e-05
288.15	0.4	0.00183	0.000119
288.15	0.5	0.00306	0.000196
288.15	0.6	0.00616	0.000391
288.15	0.7	0.00802	0.000504
288.15	0.8	0.00823	0.000514
288.15	0.9	0.00842	0.000523
288.2	1	0.008692	0.000537
293.15	0.2	0.0001235	8.5e-06
293.15	0.3	0.000696	4.63e-05
293.15	0.4	0.00229	0.000149
293.15	0.5	0.00391	0.000251
293.15	0.6	0.00744	0.000472
293.15	0.7	0.00966	0.000607
293.15	0.8	0.00984	0.000614
293.15	0.9	0.01003	0.000623
293.25	1	0.01043	0.00064
298.15	0.2	0.0001666	1.14e-05
298.15	0.3	0.000912	6.1e-05
298.15	0.4	0.00289	0.000188
298.15	0.5	0.00488	0.000313
298.15	0.6	0.00883	0.00056
298.15	0.7	0.0114	0.00072
298.15	0.8	0.01176	0.00073
298.15	0.9	0.01197	0.00074
298.75	1	0.01233	0.00076
303.15	0.2	0.0002243	1.54e-05
303.15	0.3	0.00116	7.7e-05
303.15	0.4	0.0036	0.000234
303.15	0.5	0.00618	0.000396
303.15	0.6	0.01052	0.00067
303.15	0.7	0.01361	0.00086
303.15	0.8	0.01524	0.00095
303.15	0.9	0.01547	0.00096
303.95	1	0.01573	0.00097
308.15	0.2	0.0003021	2.07e-05
308.15	0.3	0.0015	0.0001
308.15	0.4	0.00459	0.000299
308.15	0.5	0.00762	0.000489
308.15	0.6	0.01278	0.00081
308.15	0.7	0.01625	0.00102
308.15	0.8	0.01753	0.00109
308.15	0.9	0.01787	0.00111
308.25	1	0.01832	0.00113
313.15	0.2	0.0004046	2.77e-05
313.15	0.3	0.00202	0.000134
313.15	0.4	0.00578	0.000376
313.15	0.5	0.00947	0.000608
313.15	0.6	0.01557	0.00099
313.15	0.7	0.01952	0.00123
313.15	0.8	0.02138	0.00134
313.15	0.9	0.02204	0.00137
313.25	1	0.02259	0.0014
318.15	0.2	0.0005433	3.72e-05
318.15	0.3	0.00256	0.00017
318.15	0.4	0.00723	0.000471
318.15	0.5	0.01166	0.00075
318.15	0.6	0.01909	0.00121
318.15	0.7	0.02323	0.00146
318.15	0.8	0.0249	0.00156
318.15	0.9	0.02636	0.00164
318.15	1	0.02716	0.00168
322.65	1	0.03206	0.00198
323.15	0.2	0.0007401	5.07e-05
323.15	0.3	0.00335	0.000223
323.15	0.4	0.00899	0.000586
323.15	0.5	0.01463	0.00094
323.15	0.6	0.02355	0.00149
323.15	0.7	0.02795	0.00176
323.15	0.8	0.0301	0.00188
323.15	0.9	0.03188	0.00198
