Measured thermophysical data. Solubility of 1,5-Diaminobromo-4,8-dihydroxyanthraquinone in Supercritical Carbon Dioxide with or without Cosolvent
Source: J. Chem. Eng. Data, 2009, 10.1021/je800646h
Compound 1: 1,5-diaminobromo-4,8-dihydroxyanthraquinone, C14H9BrN2O4, InChI=1S/C14H9BrN2O4/c15-4-3-7(19)10-11(12(4)17)14(21)9-6(18)2-1-5(16)8(9)13(10)20/h1-3,18-19H,16-17H2
Compound 2: carbon dioxide, CO2, InChI=1S/CO2/c2-1-3
Compound 3: ethanol, C2H6O, InChI=1S/C2H6O/c1-2-3/h3H,2H2,1H3
Compound 4: dimethyl sulfoxide, C2H6OS, InChI=1S/C2H6OS/c1-4(2)3/h1-2H3

System: 1,5-diaminobromo-4,8-dihydroxyanthraquinone; phases: Crystal, Liquid, Gas
Property: Triple point temperature, K (Crystal); method: DTA
Triple point temperature, K	uncertainty
453.4	1.1

System: carbon dioxide + 1,5-diaminobromo-4,8-dihydroxyanthraquinone; phases: Fluid (supercritical or subcritical phases), Crystal
Property: Mole fraction of 1,5-diaminobromo-4,8-dihydroxyanthraquinone (Fluid (supercritical or subcritical phases)); method: Spectroscopy
Temperature, K	Pressure, kPa	Mole fraction of 1,5-diaminobromo-4,8-dihydroxyanthraquinone	uncertainty
353.15	15000	3.9e-07	9e-08
353.15	20000	2.6e-06	5.2e-07
353.15	25000	5.87e-06	1.18e-06
353.15	30000	1.04e-05	2.1e-06
373.15	15000	3.3e-07	7e-08
373.15	20000	2.52e-06	5.1e-07
373.15	25000	7.31e-06	1.48e-06
373.15	30000	1.69e-05	3.4e-06
393.15	15000	3.5e-07	8e-08
393.15	20000	3.45e-06	7e-07
393.15	25000	9.51e-06	1.93e-06
393.15	30000	2.58e-05	5.2e-06

System: ethanol + carbon dioxide + 1,5-diaminobromo-4,8-dihydroxyanthraquinone; phases: Fluid (supercritical or subcritical phases), Crystal
Property: Mole fraction of 1,5-diaminobromo-4,8-dihydroxyanthraquinone (Fluid (supercritical or subcritical phases)); method: Spectroscopy
Temperature, K	Pressure, kPa	Solvent: Mole fraction of ethanol	Mole fraction of 1,5-diaminobromo-4,8-dihydroxyanthraquinone	uncertainty
353.15	15000	0.01	4.5e-07	1e-07
353.15	15000	0.03	5.8e-07	1.2e-07
353.15	15000	0.05	8e-07	1.7e-07
353.15	20000	0.01	2.67e-06	5.4e-07
353.15	20000	0.03	3.5e-06	7.1e-07
353.15	20000	0.05	4.75e-06	9.6e-07
353.15	25000	0.01	6.08e-06	1.23e-06
353.15	25000	0.03	7.77e-06	1.56e-06
353.15	25000	0.05	1.06e-05	2.1e-06
353.15	30000	0.01	1.13e-05	2.3e-06
353.15	30000	0.03	1.37e-05	2.8e-06
353.15	30000	0.05	1.88e-05	3.8e-06
393.15	20000	0.01	3.84e-06	7.8e-07
393.15	20000	0.03	4.39e-06	8.9e-07
393.15	20000	0.05	5.3e-06	1.08e-06
393.15	25000	0.01	1.03e-05	2.1e-06
393.15	25000	0.03	1.25e-05	2.5e-06
393.15	25000	0.05	1.5e-05	3e-06
393.15	30000	0.01	2.72e-05	5.5e-06
393.15	30000	0.03	3.07e-05	6.2e-06
393.15	30000	0.05	3.45e-05	6.9e-06

System: dimethyl sulfoxide + carbon dioxide + 1,5-diaminobromo-4,8-dihydroxyanthraquinone; phases: Fluid (supercritical or subcritical phases), Crystal
Fixed: Temperature, K = 353.15
Property: Mole fraction of 1,5-diaminobromo-4,8-dihydroxyanthraquinone (Fluid (supercritical or subcritical phases)); method: Spectroscopy
Pressure, kPa	Solvent: Mole fraction of dimethyl sulfoxide	Mole fraction of 1,5-diaminobromo-4,8-dihydroxyanthraquinone	uncertainty
20000	0.01	4.3e-06	9e-07
20000	0.03	6.5e-06	1.3e-06
20000	0.05	9.1e-06	1.9e-06
25000	0.01	1.1e-05	2.2e-06
25000	0.03	1.5e-05	3e-06
25000	0.05	2.44e-05	4.9e-06
30000	0.01	2.04e-05	4.1e-06
30000	0.03	2.95e-05	5.9e-06
30000	0.05	4.28e-05	8.6e-06
