Measured thermophysical data. High-Pressure Phase Equilibria for the Carbon Dioxide + 1-Propanol System
Source: J. Chem. Eng. Data, 2008, 10.1021/je8004485
Compound 1: propan-1-ol, C3H8O, InChI=1S/C3H8O/c1-2-3-4/h4H,2-3H2,1H3, purity 98%
Compound 2: carbon dioxide, CO2, InChI=1S/CO2/c2-1-3, purity 99.7%

System: propan-1-ol + carbon dioxide; phases: Liquid, Gas
Property: Critical pressure, kPa (Liquid); method: Direct measurement
Mole fraction of carbon dioxide	Critical pressure, kPa	uncertainty
0.8676	13400	600
0.9176	11150	530
0.9785	8190	440

System: propan-1-ol + carbon dioxide; phases: Liquid, Gas
Property: Critical temperature, K (Liquid); method: Visual observation in a stirred cell
Mole fraction of carbon dioxide	Critical temperature, K	uncertainty
0.8676	353.15	2.41
0.9176	333.15	2.17
0.9785	313.15	1.98

System: propan-1-ol + carbon dioxide; phases: Liquid, Gas
Property: Vapor or sublimation pressure, kPa (Liquid); method: CCELL:UFactor:8
Temperature, K	Mole fraction of carbon dioxide	Vapor or sublimation pressure, kPa	uncertainty
293.15	0.0492	740	90
293.15	0.1045	1490	90
293.15	0.1881	2550	110
293.15	0.2882	3600	130
293.15	0.4181	4520	150
293.15	0.612	5160	170
293.15	0.6559	5210	170
293.15	0.8089	5260	170
303.15	0.0361	640	110
303.15	0.0817	1410	100
303.15	0.1729	2640	120
303.15	0.2732	3970	140
303.15	0.4389	5470	180
303.15	0.567	6180	200
303.15	0.7631	6490	210
303.15	0.7913	6520	210
313.15	0.0337	610	100
313.15	0.089	1550	120
313.15	0.1442	2540	130
313.15	0.2204	3650	150
313.15	0.2867	4790	180
313.15	0.3744	5870	200
313.15	0.542	7160	230
313.15	0.7423	7860	250
333.15	0.0402	940	140
333.15	0.0858	1980	160
333.15	0.1291	3050	170
333.15	0.1974	4440	180
333.15	0.2758	5760	210
333.15	0.3517	6950	240
333.15	0.3703	7220	250
333.15	0.4509	8290	280
333.15	0.5285	9350	310
333.15	0.607	9970	320
353.15	0.0263	750	190
353.15	0.0664	2020	180
353.15	0.1079	3010	170
353.15	0.1559	4120	190
353.15	0.227	5820	230
353.15	0.3157	7720	280
353.15	0.3619	8560	300
353.15	0.4159	9620	330
353.15	0.4335	9930	330
353.15	0.5017	10970	360
353.15	0.5685	12010	390
353.15	0.6286	12640	410

System: propan-1-ol + carbon dioxide; phases: Gas, Liquid
Property: Mole fraction of carbon dioxide (Gas); method: PVT measurement
Temperature, K	Mole fraction of carbon dioxide	Mole fraction of carbon dioxide	uncertainty
293.15	0.0492	0.9895	0.006
293.15	0.1045	0.995	0.005
293.15	0.1881	0.9974	0.0026
293.15	0.2882	0.9978	0.0022
293.15	0.4181	0.9975	0.0025
293.15	0.612	0.9967	0.0033
293.15	0.6559	0.9959	0.0041
293.15	0.8089	0.9943	0.0057
303.15	0.0361	0.9873	0.0061
303.15	0.0817	0.9949	0.0051
303.15	0.1729	0.9966	0.0034
303.15	0.2732	0.997	0.003
303.15	0.4389	0.995	0.005
303.15	0.567	0.9931	0.006
303.15	0.7631	0.9921	0.006
303.15	0.7913	0.9912	0.006
313.15	0.0337	0.9837	0.0061
313.15	0.089	0.9941	0.0059
313.15	0.1442	0.9958	0.0042
313.15	0.2204	0.9961	0.0039
313.15	0.2867	0.9958	0.0042
313.15	0.3744	0.9952	0.0048
313.15	0.542	0.9915	0.006
313.15	0.7423	0.9882	0.006
333.15	0.0402	0.9775	0.0062
333.15	0.0858	0.9856	0.0061
333.15	0.1291	0.9893	0.006
333.15	0.1974	0.9903	0.006
333.15	0.2758	0.9908	0.006
333.15	0.3517	0.9889	0.006
333.15	0.3703	0.9885	0.006
333.15	0.4509	0.9862	0.006
333.15	0.5285	0.9826	0.006
333.15	0.607	0.9786	0.006
353.15	0.0263	0.9533	0.0065
353.15	0.0664	0.9691	0.0062
353.15	0.1079	0.9749	0.006
353.15	0.1559	0.9784	0.006
353.15	0.227	0.9807	0.006
353.15	0.3157	0.9771	0.006
353.15	0.3619	0.9753	0.006
353.15	0.4159	0.972	0.006
353.15	0.4335	0.97	0.006
353.15	0.5017	0.9641	0.0061
353.15	0.5685	0.9479	0.0063
353.15	0.6286	0.9211	0.0066
