Measured thermophysical data. Solubility and Metastable Zone of Cefoperazone Sodium in Acetone + Water System
Source: J. Chem. Eng. Data, 2009, 10.1021/je800837z
Compound 1: sodium (6S,7S)-7-{[(2S)-2-{[(4-ethyl-2,3-dioxopiperazin-1-yl)carbonyl]amino}-2-(4-hydroxyphenyl)acetyl]amino}-3-{[(1-methyl-1H-tetrazol-5-yl)sulfanyl]methyl}-8-oxo-5-thia-1-azabicyclo[4.2.0]oct-2-ene-2-carboxylate, C25H26N9NaO8S2, InChI=1S/C25H27N9O8S2.Na/c1-3-32-8-9-33(21(39)20(32)38)24(42)27-15(12-4-6-14(35)7-5-12)18(36)26-16-19(37)34-17(23(40)41)13(10-43-22(16)34)11-44-25-28-29-30-31(25)2;/h4-7,15-16,22,35H,3,8-11H2,1-2H3,(H,26,36)(H,27,42)(H,40,41);/q;+1/p-1/t15-,16-,22-;/m0./s1
Compound 2: water, H2O, InChI=1S/H2O/h1H2
Compound 3: acetone, C3H6O, InChI=1S/C3H6O/c1-3(2)4/h1-2H3

System: sodium (6S,7S)-7-{[(2S)-2-{[(4-ethyl-2,3-dioxopiperazin-1-yl)carbonyl]amino}-2-(4-hydroxyphenyl)acetyl]amino}-3-{[(1-methyl-1H-tetrazol-5-yl)sulfanyl]methyl}-8-oxo-5-thia-1-azabicyclo[4.2.0]oct-2-ene-2-carboxylate; phases: Crystal, Liquid, Air at 1 atmosphere
Property: Normal melting temperature, K (Crystal); method: DTA
Normal melting temperature, K	uncertainty
453.15	1.06

System: acetone + water + sodium (6S,7S)-7-{[(2S)-2-{[(4-ethyl-2,3-dioxopiperazin-1-yl)carbonyl]amino}-2-(4-hydroxyphenyl)acetyl]amino}-3-{[(1-methyl-1H-tetrazol-5-yl)sulfanyl]methyl}-8-oxo-5-thia-1-azabicyclo[4.2.0]oct-2-ene-2-carboxylate; phases: Liquid, Crystal
Fixed: Pressure, kPa = 101
Property: Mole fraction of sodium (6S,7S)-7-{[(2S)-2-{[(4-ethyl-2,3-dioxopiperazin-1-yl)carbonyl]amino}-2-(4-hydroxyphenyl)acetyl]amino}-3-{[(1-methyl-1H-tetrazol-5-yl)sulfanyl]methyl}-8-oxo-5-thia-1-azabicyclo[4.2.0]oct-2-ene-2-carboxylate (Liquid); method: Gravimetrical method
Temperature, K	Solvent: Mole fraction of water	Mole fraction of sodium (6S,7S)-7-{[(2S)-2-{[(4-ethyl-2,3-dioxopiperazin-1-yl)carbonyl]amino}-2-(4-hydroxyphenyl)acetyl]amino}-3-{[(1-methyl-1H-tetrazol-5-yl)sulfanyl]methyl}-8-oxo-5-thia-1-azabicyclo[4.2.0]oct-2-ene-2-carboxylate	uncertainty
288.15	0.2447	0.000401	4.2e-05
288.15	0.2691	0.000579	6e-05
288.15	0.3103	0.000801	8.4e-05
288.15	0.3932	0.002064	0.000218
288.15	0.4475	0.003766	0.0004
288.15	0.4793	0.004811	0.000513
288.15	0.5314	0.005678	0.000609
288.15	0.7297	0.010234	0.001144
298.15	0.215	0.000521	5.4e-05
298.15	0.2473	0.000628	6.6e-05
298.15	0.2719	0.000777	8.1e-05
298.15	0.3134	0.001439	0.000151
298.15	0.3966	0.003162	0.000334
298.15	0.451	0.004479	0.000475
298.15	0.4828	0.006118	0.000652
298.15	0.5349	0.008452	0.000907
298.15	0.7325	0.016676	0.001866
