Measured thermophysical data. Cryoscopic and Volumetric Studies in the Maleic Acid + Water System
Source: J. Chem. Eng. Data, 2009, 10.1021/je800357c
Compound 1: cis-1,4-butenedioic acid, C4H4O4, InChI=1S/C4H4O4/c5-3(6)1-2-4(7)8/h1-2H,(H,5,6)(H,7,8)/b2-1-, purity 99.7%
Compound 2: water, H2O, InChI=1S/H2O/h1H2, purity 99.5%

System: cis-1,4-butenedioic acid + water; phases: Liquid, Crystal
Fixed: Pressure, kPa = 101
Property: Solid-liquid equilibrium temperature, K (Liquid); method: VISOBS
Molality, mol/kg of cis-1,4-butenedioic acid	Solid-liquid equilibrium temperature, K	uncertainty
0.001	-0.003	0.2
0.0014	-0.004	0.2
0.0028	-0.008	0.2
0.0051	-0.014	0.2
0.0075	-0.021	0.2
0.0106	-0.031	0.2
0.025	-0.076	0.2
0.0501	-0.139	0.2
0.0769	-0.215	0.2
0.1048	-0.269	0.2
0.2459	-0.599	0.2
0.5177	-1.168	0.2
0.6946	-1.563	0.2
1.009	-2.23	0.2
1.404	-2.99	0.2
1.987	-4.05	0.2
3.085	-5.76	0.2

System: cis-1,4-butenedioic acid + water; phases: Liquid
Fixed: Pressure, kPa = 101
Property: Mass density, kg/m3 (Liquid); method: VIBTUB:UFactor:4
Temperature, K	Molality, mol/kg of cis-1,4-butenedioic acid	Mass density, kg/m3	uncertainty
288.15	0.09831	1003.24	0.43
288.15	0.4902	1018.5	0.44
288.15	0.979	1035.99	0.45
293.15	0.09831	1002.29	0.43
293.15	0.4902	1017.26	0.44
293.15	0.979	1034.47	0.45
298.15	0.09831	1001.04	0.43
298.15	0.4902	1015.79	0.44
298.15	0.979	1032.74	0.45
303.15	0.09831	999.59	0.43
303.15	0.4902	1014.1	0.44
303.15	0.979	1030.81	0.45
308.15	0.09831	997.91	0.43
308.15	0.4902	1012.25	0.44
308.15	0.979	1028.74	0.45
313.15	0.09831	996.07	0.43
313.15	0.4902	1010.18	0.44
313.15	0.979	1026.46	0.45
318.15	0.09831	994.03	0.43
318.15	0.4902	1007.98	0.44
318.15	0.979	1024.06	0.44
323.15	0.09831	991.81	0.44
323.15	0.4902	1005.58	0.43
323.15	0.979	1021.47	0.44
328.15	0.09831	989.41	0.44
328.15	0.4902	1003.01	0.43
328.15	0.979	1018.75	0.44
333.15	0.09831	986.88	0.44
333.15	0.4902	1000.36	0.43
333.15	0.979	1015.92	0.44
