Measured thermophysical data. Solubility of Bis(benzoxazolyl-2-methyl) Sulfide in Different Pure Solvents and Ethanol + Water Binary Mixtures between (273.25 and 325.25) K
Source: J. Chem. Eng. Data, 2008, 10.1021/je8005419
Compound 1: sodium bicarbonate, CHNaO3, InChI=1S/CH2O3.Na/c2-1(3)4;/h(H2,2,3,4);/q;+1/p-1
Compound 2: water, H2O, InChI=1S/H2O/h1H2
Compound 3: ethanol, C2H6O, InChI=1S/C2H6O/c1-2-3/h3H,2H2,1H3
Compound 4: butan-1-ol, C4H10O, InChI=1S/C4H10O/c1-2-3-4-5/h5H,2-4H2,1H3
Compound 5: propan-2-ol, C3H8O, InChI=1S/C3H8O/c1-3(2)4/h3-4H,1-2H3
Compound 6: chlorobenzene, C6H5Cl, InChI=1S/C6H5Cl/c7-6-4-2-1-3-5-6/h1-5H
Compound 7: toluene, C7H8, InChI=1S/C7H8/c1-7-5-3-2-4-6-7/h2-6H,1H3
Compound 8: 1,2-dimethylbenzene, C8H10, InChI=1S/C8H10/c1-7-5-3-4-6-8(7)2/h3-6H,1-2H3
Compound 9: bis(benzoxazolyl-2-methyl) sulfide, C16H12N2O2S, InChI=1S/C16H12N2O2S/c1-3-7-13-11(5-1)17-15(19-13)9-21-10-16-18-12-6-2-4-8-14(12)20-16/h1-8H,9-10H2

System: bis(benzoxazolyl-2-methyl) sulfide; phases: Crystal, Liquid, Air at 1 atmosphere
Property: Normal melting temperature, K (Crystal); method: DTA
Normal melting temperature, K	uncertainty
350	3

System: sodium bicarbonate + water; phases: Liquid, Crystal
Fixed: Pressure, kPa = 101
Property: Mass fraction of sodium bicarbonate (Liquid); method: laser monitoring observation technique
Temperature, K	Mass fraction of sodium bicarbonate	uncertainty
293.15	0.0872	0.0036
298.15	0.0929	0.0039
303.15	0.0991	0.0041
308.15	0.1058	0.0044
318.15	0.1198	0.005

System: ethanol + bis(benzoxazolyl-2-methyl) sulfide; phases: Liquid, Crystal
Fixed: Pressure, kPa = 101
Property: Mole fraction of bis(benzoxazolyl-2-methyl) sulfide (Liquid); method: laser monitoring observation technique
Temperature, K	Mole fraction of bis(benzoxazolyl-2-methyl) sulfide	uncertainty
274.15	0.00741	0.00032
278.15	0.00978	0.00042
283.15	0.01401	0.0006
288.35	0.02001	0.00086
291.15	0.02355	0.00101
293.15	0.0279	0.0012
295.55	0.03175	0.00136
298.15	0.03768	0.00162
300.25	0.04345	0.00187
302.95	0.05201	0.00223
305.15	0.05785	0.00249
308.15	0.07044	0.00303

System: butan-1-ol + bis(benzoxazolyl-2-methyl) sulfide; phases: Liquid, Crystal
Fixed: Pressure, kPa = 101
Property: Mole fraction of bis(benzoxazolyl-2-methyl) sulfide (Liquid); method: laser monitoring observation technique
Temperature, K	Mole fraction of bis(benzoxazolyl-2-methyl) sulfide	uncertainty
278.35	0.00349	0.00015
283.15	0.00494	0.00021
288.15	0.00698	0.00029
293.25	0.00986	0.00041
298.15	0.01422	0.00059
303.25	0.01994	0.00083
308.15	0.02711	0.00112
313.25	0.03722	0.00154
318.15	0.05163	0.00214
323.15	0.06786	0.0028

System: propan-2-ol + bis(benzoxazolyl-2-methyl) sulfide; phases: Liquid, Crystal
Fixed: Pressure, kPa = 101
Property: Mole fraction of bis(benzoxazolyl-2-methyl) sulfide (Liquid); method: laser monitoring observation technique
Temperature, K	Mole fraction of bis(benzoxazolyl-2-methyl) sulfide	uncertainty
278.15	0.00231	0.0001
283.15	0.00333	0.00014
289.15	0.00523	0.00022
293.15	0.00703	0.0003
298.15	0.01047	0.00044
303.15	0.01403	0.00059
308.15	0.01939	0.00081
313.15	0.02676	0.00112
318.15	0.03723	0.00156
323.15	0.05102	0.00213

System: chlorobenzene + bis(benzoxazolyl-2-methyl) sulfide; phases: Liquid, Crystal
Fixed: Pressure, kPa = 101
Property: Mole fraction of bis(benzoxazolyl-2-methyl) sulfide (Liquid); method: laser monitoring observation technique
Temperature, K	Mole fraction of bis(benzoxazolyl-2-methyl) sulfide	uncertainty
274.85	0.00424	0.00017
278.15	0.00514	0.00021
283.15	0.00684	0.00028
287.95	0.00889	0.00036
292.95	0.0119	0.00049
298.35	0.01573	0.00064
303.25	0.02046	0.00083
308.15	0.02621	0.00107
313.25	0.03415	0.00139
318.05	0.04268	0.00173

System: toluene + bis(benzoxazolyl-2-methyl) sulfide; phases: Liquid, Crystal
Fixed: Pressure, kPa = 101
Property: Mole fraction of bis(benzoxazolyl-2-methyl) sulfide (Liquid); method: laser monitoring observation technique
Temperature, K	Mole fraction of bis(benzoxazolyl-2-methyl) sulfide	uncertainty
274.15	0.000608	3.8e-05
278.15	0.000971	6e-05
283.15	0.00176	0.00011
288.15	0.00306	0.00019
293.15	0.00522	0.00032
298.15	0.00861	0.00053
303.15	0.01392	0.00085
308.15	0.02402	0.00146
313.25	0.02923	0.00177
318.15	0.04132	0.00251

System: 1,2-dimethylbenzene + bis(benzoxazolyl-2-methyl) sulfide; phases: Liquid, Crystal
Fixed: Pressure, kPa = 101
Property: Mole fraction of bis(benzoxazolyl-2-methyl) sulfide (Liquid); method: laser monitoring observation technique
Temperature, K	Mole fraction of bis(benzoxazolyl-2-methyl) sulfide	uncertainty
273.35	0.000297	1.8e-05
278.15	0.000431	2.6e-05
283.15	0.00064	3.9e-05
287.95	0.000899	5.5e-05
293.05	0.00138	8e-05
298.15	0.00203	0.00012
303.15	0.00305	0.00019
308.35	0.00443	0.00027
313.15	0.00656	0.0004
318.15	0.00904	0.00055

System: ethanol + water + bis(benzoxazolyl-2-methyl) sulfide; phases: Liquid, Crystal
Fixed: Pressure, kPa = 101
Property: Mole fraction of bis(benzoxazolyl-2-methyl) sulfide (Liquid); method: laser monitoring observation technique
Solvent: Mass fraction of water	Temperature, K	Mole fraction of bis(benzoxazolyl-2-methyl) sulfide	uncertainty
0	274.15	0.00741	0.00031
0	278.15	0.00978	0.0004
0	283.15	0.01401	0.00058
0	288.35	0.02001	0.00082
0	291.15	0.02355	0.00097
0	293.15	0.0279	0.00115
0	295.55	0.03175	0.0013
0	298.15	0.03768	0.00155
0	300.25	0.04345	0.00179
0	302.95	0.05201	0.00214
0	305.15	0.05785	0.00239
0	308.15	0.07044	0.00291
0.0196	273.25	0.00152	6e-05
0.0196	278.45	0.00241	0.0001
0.0196	282.95	0.00366	0.00015
0.0196	288.15	0.00558	0.00023
0.0196	293.15	0.00807	0.00033
0.0196	298.15	0.01227	0.00051
0.0196	303.35	0.01806	0.00074
0.0196	308.15	0.02573	0.00107
0.0196	310.95	0.03149	0.0013
0.0196	313.25	0.03706	0.00153
0.0196	316.15	0.04621	0.00191
0.0196	319.35	0.05767	0.00238
0.0497	273.25	0.000615	2.5e-05
0.0497	278.25	0.00112	5e-05
0.0497	282.95	0.00171	7e-05
0.0497	288.15	0.00275	0.00011
0.0497	293.15	0.00454	0.00019
0.0497	298.25	0.00706	0.00029
0.0497	303.25	0.01074	0.00044
0.0497	308.15	0.01616	0.00067
0.0497	311.15	0.02137	0.00089
0.0497	314.55	0.02793	0.00116
0.0497	318.25	0.03814	0.00159
0.0497	322.15	0.05284	0.00219
0.1132	274.75	0.000268	1.1e-05
0.1132	277.95	0.000381	1.6e-05
0.1132	282.95	0.000627	2.6e-05
0.1132	288.15	0.00104	4e-05
0.1132	292.95	0.00159	7e-05
0.1132	298.15	0.00262	0.00011
0.1132	303.15	0.00407	0.00017
0.1132	308.15	0.00627	0.00026
0.1132	313.15	0.00961	0.0004
0.1132	318.25	0.01459	0.00061
0.1132	322.15	0.02013	0.00083
0.1132	325.25	0.02549	0.00104
0.1976	273.25	0.000215	9e-06
0.1976	278.65	0.000355	1.5e-05
0.1976	284.15	0.00053	2.2e-05
0.1976	288.75	0.000758	3.1e-05
0.1976	294.35	0.00121	5e-05
0.1976	299.15	0.0017	7e-05
0.1976	303.15	0.00234	0.0001
0.1976	308.15	0.00325	0.00013
0.1976	313.15	0.00452	0.00019
0.1976	318.25	0.00667	0.00027
0.1976	322.15	0.00859	0.00035
0.1976	325.15	0.01047	0.00043
