Measured thermophysical data. Measurement and Correlation of the Surface Tension-Temperature Relation for Methanol
Source: J. Chem. Eng. Data, 2008, 10.1021/je8003468
Compound 1: methanol, CH4O, InChI=1S/CH4O/c1-2/h2H,1H3

System: methanol; phases: Liquid, Air at 1 atmosphere
Property: Surface tension liquid-gas, N/m (Liquid); method: Ring tensiometer
Temperature, K	Surface tension liquid-gas, N/m	uncertainty
279.11	0.02387	0.00014
282.59	0.02363	0.00014
288.3	0.02314	0.00012
293.37	0.02273	0.00012
296.97	0.02243	0.00013
301.54	0.02199	0.00011
307.31	0.02143	0.00011
311.76	0.021	0.00015
317.66	0.02043	0.00014
322.9	0.01983	0.00017
326.56	0.01942	0.00015
330.01	0.01909	0.00011
333.81	0.01863	0.00014
