Measured thermophysical data. Phase Behavior of 2,2-Dimethyl-1,3-propanediol in Carbon Dioxide Kyung-Kyu
Source: J. Chem. Eng. Data, 2008, 10.1021/je8001514
Compound 1: carbon dioxide, CO2, InChI=1S/CO2/c2-1-3
Compound 2: 2,2-dimethyl-1,3-propanediol, C5H12O2, InChI=1S/C5H12O2/c1-5(2,3-6)4-7/h6-7H,3-4H2,1-2H3

System: carbon dioxide + 2,2-dimethyl-1,3-propanediol; phases: Liquid, Gas
Property: Critical pressure, kPa (Liquid); method: DIRECT:UFactor:8
Temperature, K	Critical pressure, kPa	uncertainty
355.3	121800	4900
355.3	125500	5000
358.4	100200	4000
358.4	102500	4100
363.3	81500	3300
363.3	82100	3300
373.3	64550	2580
383.3	55240	2210
403.2	46450	1860

System: carbon dioxide + 2,2-dimethyl-1,3-propanediol; phases: Liquid, Gas
Property: Critical temperature, K (Liquid); method: Visual observation in a stirred cell
Mole fraction of 2,2-dimethyl-1,3-propanediol	Critical temperature, K	uncertainty
0.1264	355.3	0.5
0.1264	358.4	0.5
0.1264	363.3	0.5
0.1264	373.3	0.5
0.1264	383.3	0.5
0.1264	403.2	0.5
0.1503	355.3	0.5
0.1503	358.4	0.5
0.1503	363.3	0.5

System: carbon dioxide + 2,2-dimethyl-1,3-propanediol; phases: Liquid, Gas
Property: Vapor or sublimation pressure, kPa (Liquid); method: CCELL:UFactor:8
Mole fraction of 2,2-dimethyl-1,3-propanediol	Temperature, K	Vapor or sublimation pressure, kPa	uncertainty
0.1503	373.3	64810	1650
0.1503	383.3	55460	1390
0.1503	403.2	46880	1180
0.1849	355.3	119700	3800
0.1849	358.4	101400	3100
0.1849	363.3	81400	2200
0.1849	373.3	64360	1680
0.1849	383.3	54950	1380
0.1849	403.2	46400	1160
0.2199	353.3	166000	11000
0.2199	355.3	115000	5700
0.2199	358.4	96900	2900
0.2199	363.3	79700	2100
0.2199	373.3	63170	1650
0.2199	383.3	54570	1370
0.2199	403.2	46300	1160
0.2542	352.3	155300	9400
0.2542	353.3	134500	7500
0.2542	355.3	103600	4200
0.2542	358.4	88800	2600
0.2542	363.3	74900	2000
0.2542	373.3	60670	1570
0.2542	383.3	52380	1310
0.2542	403.2	44850	1120
0.2993	352.3	101700	5900
0.2993	353.3	93100	3200
0.2993	355.3	85000	2400
0.2993	358.4	78400	2100
0.2993	363.3	68770	1770
0.2993	373.3	57810	1480
0.2993	383.3	51190	1280
0.2993	403.2	44300	1110
0.3403	352.3	66770	4190
0.3403	353.3	65500	2050
0.3403	355.3	59980	1630
0.3403	358.4	57920	1500
0.3403	363.3	53090	1350
0.3403	373.3	48430	1220
0.3403	383.3	43950	1100
0.3403	403.2	39300	980
0.3886	352.3	52950	1590
0.3886	353.3	51710	1380
0.3886	355.3	49540	1260
0.3886	358.4	48020	1210
0.3886	363.3	45130	1130
0.3886	373.3	41300	1030
0.3886	383.3	38780	970
0.3886	403.2	35780	890
0.506	352.3	24720	620
0.506	353.3	24650	610
0.506	355.3	24650	610
0.506	358.4	24540	610
0.506	363.3	24510	610
0.506	373.3	24370	610
0.506	383.3	24100	600
0.506	403.2	23790	590

System: carbon dioxide + 2,2-dimethyl-1,3-propanediol; phases: Gas, Liquid
Property: Vapor or sublimation pressure, kPa (Gas); method: CCELL:UFactor:8
Mole fraction of 2,2-dimethyl-1,3-propanediol	Temperature, K	Vapor or sublimation pressure, kPa	uncertainty
0.0044	352.3	20680	660
0.0044	353.3	20680	510
0.0044	355.3	20370	510
0.0044	358.4	20240	500
0.0044	363.3	19660	490
0.0044	373.3	19480	480
0.0044	383.3	19180	480
0.0044	403.2	18930	470
0.0109	352.3	30550	830
0.0109	353.3	30340	770
0.0109	355.3	29590	750
0.0109	358.4	28440	710
0.0109	363.3	27330	680
0.0109	373.3	25850	640
0.0109	383.3	24300	610
0.0109	403.2	21500	530
0.0219	352.3	49810	1310
0.0219	353.3	48090	1290
0.0219	355.3	45680	1190
0.0219	358.4	42990	1090
0.0219	363.3	40640	1020
0.0219	373.3	36370	910
0.0219	383.3	33140	820
0.0219	403.2	30680	770
0.0466	352.3	90000	2400
0.0466	353.3	83600	2500
0.0466	355.3	76000	2100
0.0466	358.4	70000	1900
0.0466	363.3	60300	1570
0.0466	373.3	49470	1270
0.0466	383.3	43830	1100
0.0466	403.2	37780	950
0.0728	352.3	106300	9700
0.0728	353.3	100900	3200
0.0728	355.3	92000	2800
0.0728	358.4	83800	2300
0.0728	363.3	72400	1900
0.0728	373.3	58090	1510
0.0728	383.3	50330	1260
0.0728	403.2	42730	1070
0.0971	352.3	173100	16500
0.0971	353.3	127600	18500
0.1023	353.3	157200	9300
0.1023	355.3	115100	5500
0.1023	358.4	95000	2900
0.1023	363.3	79300	2100
0.1023	373.3	62660	1630
0.1023	383.3	54470	1370
0.1023	403.2	45860	1150
