Measured thermophysical data. Solid-Liquid Equilibria for the Carbon Dioxide + 1,1-Tetrafluoroethane and Nitrous Oxide + 1,1-Tetrafluoroethane Systems
Source: J. Chem. Eng. Data, 2008, 10.1021/je800285k
Compound 1: 1,1,1,2-tetrafluoroethane, C2H2F4, InChI=1S/C2H2F4/c3-1-2(4,5)6/h1H2
Compound 2: carbon dioxide, CO2, InChI=1S/CO2/c2-1-3
Compound 3: nitrous oxide, N2O, InChI=1S/N2O/c1-2-3

System: carbon dioxide + 1,1,1,2-tetrafluoroethane; phases: Crystal, Crystal, Liquid, Gas
Property: Eutectic temperature, K (Crystal); method: Derived from phase diagram analysis
Eutectic temperature, K	uncertainty
156	1

System: carbon dioxide + 1,1,1,2-tetrafluoroethane; phases: Crystal, Crystal, Liquid, Gas
Property: Eutectic composition: mole fraction of carbon dioxide (Crystal); method: Derived from phase diagram analysis
Eutectic composition: mole fraction of carbon dioxide	uncertainty
0.14	0.01

System: carbon dioxide + 1,1,1,2-tetrafluoroethane; phases: Liquid, Crystal, Gas
Property: Triple point temperature, K (Liquid); method: Large-sample thermal analysis
Mole fraction of carbon dioxide	Triple point temperature, K	uncertainty
0	169.7	1
0.032	167.18	1
0.05	166.18	1
0.079	162.91	1
0.116	160.43	1

System: carbon dioxide + 1,1,1,2-tetrafluoroethane; phases: Liquid, Crystal, Gas
Property: Triple point temperature, K (Liquid); method: Large-sample thermal analysis
Mole fraction of carbon dioxide	Triple point temperature, K	uncertainty
0.161	160.43	1
0.198	165.7	1
0.252	170.66	1
0.369	181.5	1
0.455	187.29	1
0.576	196.14	1
0.656	200.52	1
0.729	204.56	1
0.735	204.19	1
0.816	207.54	1
0.881	210.93	1
0.919	213.41	1
1	216.52	1

System: 1,1,1,2-tetrafluoroethane + nitrous oxide; phases: Crystal, Crystal, Liquid, Gas
Property: Eutectic temperature, K (Crystal); method: Derived from phase diagram analysis
Eutectic temperature, K	uncertainty
142	1

System: 1,1,1,2-tetrafluoroethane + nitrous oxide; phases: Crystal, Crystal, Liquid, Gas
Property: Eutectic composition: mole fraction of 1,1,1,2-tetrafluoroethane (Crystal); method: Derived from phase diagram analysis
Eutectic composition: mole fraction of 1,1,1,2-tetrafluoroethane	uncertainty
0.3	0.01

System: 1,1,1,2-tetrafluoroethane + nitrous oxide; phases: Liquid, Crystal, Gas
Property: Triple point temperature, K (Liquid); method: Large-sample thermal analysis
Mole fraction of nitrous oxide	Triple point temperature, K	uncertainty
0	169.7	1
0.068	163.52	1
0.128	158.13	1
0.129	158.76	1
0.194	151.71	1
0.286	145.17	1
0.304	142.15	1

System: 1,1,1,2-tetrafluoroethane + nitrous oxide; phases: Liquid, Crystal, Gas
Property: Triple point temperature, K (Liquid); method: Large-sample thermal analysis
Mole fraction of nitrous oxide	Triple point temperature, K	uncertainty
0.353	147.69	1
0.368	148.25	1
0.422	151.59	1
0.542	159.41	1
0.583	163.05	1
0.7	168.54	1
0.784	172.65	1
0.898	178.57	1
0.936	179.55	1
1	181.9	1
