Measured thermophysical data. Vapor-Liquid Equilibrium Data of the Binary Systems in Oxidative Carbonylation of Dimethyl Ether Synthesizing Dimethyl Carbonate
Source: J. Chem. Eng. Data, 2008, 10.1021/je8002282
Compound 1: carbon monoxide, CO, InChI=1S/CO/c1-2, purity 99.99%
Compound 2: oxygen, O2, InChI=1S/O2/c1-2, purity 99.99%
Compound 3: dimethyl ether, C2H6O, InChI=1S/C2H6O/c1-3-2/h1-2H3, purity 99.99%
Compound 4: dimethyl carbonate, C3H6O3, InChI=1S/C3H6O3/c1-5-3(4)6-2/h1-2H3

System: dimethyl ether; phases: Liquid, Gas
Property: Vapor or sublimation pressure, kPa (Liquid); method: CCELL:UFactor:24
Temperature, K	Vapor or sublimation pressure, kPa	uncertainty
293	520	40
313	900	70
353	2240	170
373	3260	240

System: dimethyl carbonate; phases: Liquid, Gas
Property: Vapor or sublimation pressure, kPa (Liquid); method: CCELL:UFactor:24
Temperature, K	Vapor or sublimation pressure, kPa	uncertainty
293	10	20
313	20	20
353	70	20
373	140	20

System: dimethyl ether + dimethyl carbonate; phases: Gas, Liquid
Property: Vapor or sublimation pressure, kPa (Gas); method: CCELL:UFactor:24
Mole fraction of dimethyl ether	Temperature, K	Vapor or sublimation pressure, kPa	uncertainty
0	293	10	20
0	313	20	20
0	353	70	20
0	373	140	20
0.3452	373	500	40
0.594	353	400	40
0.6828	373	1000	80
0.7071	353	600	50
0.8069	353	800	60
0.8136	373	1500	110
0.8157	313	200	30
0.8333	353	1010	80
0.87	293	100	20
0.876	313	300	30
0.8767	373	2050	160
0.8834	353	1200	90
0.905	313	400	40
0.922	313	500	40
0.924	293	200	30
0.9248	353	1600	130
0.9336	373	2500	190
0.946	313	600	50
0.948	293	300	30
0.959	293	350	40
0.9641	353	2000	150
0.968	293	400	40
0.9724	313	700	60
0.9724	373	3000	230
0.9812	313	790	60
0.983	293	450	40
1	293	520	40
1	313	900	70
1	353	2240	170
1	373	3260	240

System: dimethyl ether + dimethyl carbonate; phases: Liquid, Gas
Property: Mole fraction of dimethyl ether (Liquid); method: CHROM:UFactor:4
Mole fraction of dimethyl ether	Temperature, K	Mole fraction of dimethyl ether	uncertainty
0.3452	373	0.033	0.0044
0.594	353	0.081	0.005
0.6828	373	0.162	0.0066
0.7071	353	0.133	0.0062
0.8069	353	0.229	0.0089
0.8136	373	0.3218	0.0116
0.8157	313	0.0857	0.0085
0.8333	353	0.294	0.0128
0.87	293	0.0899	0.0107
0.876	313	0.193	0.0109
0.8767	373	0.4563	0.0174
0.8834	353	0.397	0.0178
0.905	313	0.283	0.0157
0.922	313	0.354	0.0204
0.924	293	0.2186	0.0152
0.9248	353	0.585	0.0222
0.9336	373	0.6239	0.019
0.946	313	0.4584	0.0216
0.948	293	0.364	0.0306
0.959	293	0.4739	0.046
0.9641	353	0.7743	0.0154
0.968	293	0.5825	0.0425
0.9724	313	0.552	0.0289
0.9724	373	0.8203	0.0213
0.9812	313	0.7092	0.071
0.983	293	0.7196	0.0376

System: dimethyl carbonate + carbon monoxide; phases: Liquid, Gas
Property: Vapor or sublimation pressure, kPa (Liquid); method: CCELL:UFactor:16
Mole fraction of carbon monoxide	Temperature, K	Vapor or sublimation pressure, kPa	uncertainty
0.0418	373	2000	640
0.0485	353	2000	370
0.0534	313	2000	690
0.0545	373	4000	560
0.0547	293	2000	610
0.0646	313	4000	500
0.0677	353	4000	630
0.0679	293	4000	580
0.0723	373	6000	610
0.0752	353	6000	770
0.0838	293	6000	450
0.084	373	8000	830
0.0868	313	6000	460
0.0873	353	8000	940
0.0936	353	10000	1200
0.0943	373	10000	790
0.1087	313	8000	620
0.1095	373	12000	790
0.1138	293	8000	480
0.1199	313	10000	600
0.1204	353	12000	660
0.1413	293	10000	600
0.1511	313	12000	650
0.1606	293	12000	730

System: dimethyl carbonate + carbon monoxide; phases: Gas, Liquid
Property: Mass density, kg/m3 (Gas); method: Pycnometric method
Temperature, K	Mole fraction of carbon monoxide	Mass density, kg/m3	uncertainty
293	0.983	119.3	5.6
293	0.9909	108.7	5.4
293	0.9924	25.3	40
293	0.9935	52.8	25.3
293	0.9936	91.4	10.5
293	0.9945	77.3	14.6
313	0.9803	22.1	3.1
313	0.9871	40.3	25.9
313	0.9892	62.2	20.2
313	0.9893	104.3	21.1
313	0.9923	96.5	9.2
313	0.9934	73.5	50.1
353	0.9483	80.4	2.1
353	0.9655	71.5	3.4
353	0.9765	56	9.8
353	0.9801	35.7	4.3
353	0.9803	15.7	5.3
353	0.9837	25.3	0.5
373	0.9846	75.1	9.7
373	0.99	62	9.7
373	0.9916	13.9	35
373	0.9924	21.6	27.4
373	0.9925	47.4	14
373	0.993	32.3	20.4

System: dimethyl carbonate + carbon monoxide; phases: Liquid, Gas
Property: Mass density, kg/m3 (Liquid); method: Pycnometric method
Temperature, K	Mole fraction of carbon monoxide	Mass density, kg/m3	uncertainty
293	0.0547	1078	44.9
293	0.0679	1036.5	43.1
293	0.0838	992.5	40.2
293	0.1138	963.5	38.9
293	0.1413	919.7	37.7
293	0.1606	865.9	36.4
313	0.0534	966.4	41.9
313	0.0646	948	38.5
313	0.0868	910.2	36.9
313	0.1087	885.7	36
313	0.1199	834.8	34.8
313	0.1511	786.6	32.1
353	0.0485	868.7	35
353	0.0677	853	34.3
353	0.0752	847.4	35.5
353	0.0873	802.4	35.9
353	0.0936	773.3	33.4
353	0.1204	720.7	29.7
373	0.0418	841.2	33.8
373	0.0545	829.8	33.6
373	0.0723	801.3	32.6
373	0.084	786.7	32.6
373	0.0943	754.3	32.5
373	0.1095	710.1	30.7

System: dimethyl carbonate + carbon monoxide; phases: Gas, Liquid
Property: Mole fraction of carbon monoxide (Gas); method: Phase equilibration
Mole fraction of carbon monoxide	Temperature, K	Mole fraction of carbon monoxide	uncertainty
0.0418	373	0.9916	0.004
0.0485	353	0.9803	0.004
0.0534	313	0.9803	0.004
0.0545	373	0.9924	0.004
0.0547	293	0.9924	0.004
0.0646	313	0.9871	0.0041
0.0677	353	0.9837	0.0041
0.0679	293	0.9935	0.004
0.0723	373	0.993	0.004
0.0752	353	0.9801	0.0047
0.0838	293	0.9945	0.004
0.084	373	0.9925	0.004
0.0868	313	0.9892	0.004
0.0873	353	0.9765	0.0051
0.0936	353	0.9655	0.0045
0.0943	373	0.99	0.0042
0.1087	313	0.9934	0.004
0.1095	373	0.9846	0.0043
0.1138	293	0.9936	0.004
0.1199	313	0.9923	0.004
0.1204	353	0.9483	0.004
0.1413	293	0.9909	0.0041
0.1511	313	0.9893	0.004
0.1606	293	0.983	0.0043

System: dimethyl carbonate + oxygen; phases: Liquid, Gas
Property: Vapor or sublimation pressure, kPa (Liquid); method: CCELL:UFactor:16
Mole fraction of oxygen	Temperature, K	Vapor or sublimation pressure, kPa	uncertainty
0.0233	373	2000	710
0.0347	373	4000	550
0.0412	353	2000	360
0.0506	313	2000	650
0.0523	353	4000	820
0.0539	373	6000	530
0.061	313	4000	690
0.0612	293	2000	460
0.0614	353	6000	770
0.071	373	8000	640
0.0733	353	8000	870
0.0748	313	6000	510
0.0791	293	4000	490
0.082	353	10000	750
0.0858	373	10000	820
0.0953	373	12000	1030
0.097	293	6000	450
0.099	313	8000	490
0.1018	353	12000	690
0.1266	293	8000	470
0.1307	313	10000	540
0.1605	293	10000	550
0.175	313	12000	620
0.1977	293	12000	630

System: dimethyl carbonate + oxygen; phases: Gas, Liquid
Property: Mass density, kg/m3 (Gas); method: determining using the ratio of the masses to the volume of the sample.
Temperature, K	Mole fraction of oxygen	Mass density, kg/m3	uncertainty
293.15	0.975	11.8	0.2
293.15	0.98	14.2	0.2
293.15	0.985	18.6	0.2
293.15	0.99	49.2	0.4
293.15	0.991	31.1	0.2
293.15	0.992	40.5	0.3
313	0.985	10.9	0.2
313	0.989	20.1	0.2
313	0.99	47.6	0.5
313	0.991	30.5	0.2
313	0.992	25.1	0.2
313	0.993	41.8	0.2
353	0.985	9.2	0.2
353	0.989	15.1	0.2
353	0.99	40.1	0.2
353	0.991	28.9	0.2
353	0.992	21.1	0.2
353	0.993	33.1	0.2
373	0.9853	9	0.2
373	0.9891	12.4	0.2
373	0.9915	26.5	0.2
373	0.9922	17.5	0.2
373	0.9933	38.9	0.3
373	0.9936	31.9	0.2

System: dimethyl carbonate + oxygen; phases: Liquid, Gas
Property: Mass density, kg/m3 (Liquid); method: determining using the ratio of the masses to the volume of the sample.
Temperature, K	Mole fraction of oxygen	Mass density, kg/m3	uncertainty
293.15	0.0612	1087.6	5.7
293.15	0.0791	1062.4	6.3
293.15	0.097	1032	6.7
293.15	0.1266	984.7	6.5
293.15	0.1605	931.3	8.4
293.15	0.1977	838	10.1
313	0.0506	1056.6	13.7
313	0.061	1014.8	16
313	0.0748	960.2	13.7
313	0.099	885.7	9.8
313	0.1307	824.8	6.4
313	0.175	766.6	5.5
353	0.0412	988.5	4.8
353	0.0523	947.8	21.3
353	0.0614	882.2	20.7
353	0.0733	826.7	29.1
353	0.082	728.8	19.1
353	0.1018	685.3	6.1
373	0.0233	935.5	12.4
373	0.0347	900.2	12.4
373	0.0539	841.3	11.2
373	0.071	798.9	16
373	0.0858	712.5	24
373	0.0953	652.5	25.3

System: dimethyl carbonate + oxygen; phases: Gas, Liquid
Property: Mole fraction of oxygen (Gas); method: Phase equilibration
Mole fraction of oxygen	Temperature, K	Mole fraction of oxygen	uncertainty
0.0233	373	0.9853	0.0042
0.0347	373	0.9891	0.0041
0.0412	353	0.985	0.0041
0.0506	313	0.985	0.004
0.0523	353	0.989	0.0042
0.0539	373	0.9922	0.004
0.061	313	0.989	0.0042
0.0612	293	0.975	0.0042
0.0614	353	0.992	0.004
0.071	373	0.9915	0.004
0.0733	353	0.991	0.004
0.0748	313	0.992	0.004
0.0791	293	0.98	0.0042
0.082	353	0.993	0.004
0.0858	373	0.9936	0.004
0.0953	373	0.9933	0.004
0.097	293	0.985	0.0041
0.099	313	0.991	0.004
0.1018	353	0.99	0.004
0.1266	293	0.991	0.004
0.1307	313	0.993	0.004
0.1605	293	0.992	0.004
0.175	313	0.99	0.004
0.1977	293	0.99	0.004
