Measured thermophysical data. Physical Properties (Density, Excess Molar Volume, Viscosity, Surface Tension, and Refractive Index) of Ethanol + Glycerol
Source: J. Chem. Eng. Data, 2008, 10.1021/je8004479
Compound 1: ethanol, C2H6O, InChI=1S/C2H6O/c1-2-3/h3H,2H2,1H3
Compound 2: glycerol, C3H8O3, InChI=1S/C3H8O3/c4-1-3(6)2-5/h3-6H,1-2H2

System: glycerol + ethanol; phases: Liquid, Air at 1 atmosphere
Fixed: Temperature, K = 294
Property: Surface tension liquid-gas, N/m (Liquid); method: RINGTE:UFactor:4
Mole fraction of ethanol	Surface tension liquid-gas, N/m	uncertainty
0	0.0631	0.0032
0.084	0.052	0.0027
0.1222	0.0488	0.0026
0.1761	0.043	0.0023
0.2037	0.0417	0.0022
0.2385	0.0394	0.0021
0.2789	0.0358	0.002
0.351	0.0332	0.0019
0.4138	0.0297	0.0017
0.4841	0.0285	0.0016
0.5497	0.0271	0.0016
0.6046	0.0251	0.0015
0.6526	0.0243	0.0014
0.7451	0.0235	0.0014
0.7984	0.0235	0.0014
0.8336	0.023	0.0014
0.8777	0.0225	0.0014
0.9353	0.0224	0.0014
0.9596	0.0223	0.0013
1	0.0222	0.0013

System: glycerol + ethanol; phases: Liquid
Fixed: Pressure, kPa = 101
Fixed: Temperature, K = 294
Property: Viscosity, Pa*s (Liquid); method: CAPTUB:UFactor:4
Mole fraction of ethanol	Viscosity, Pa*s	uncertainty
0	1.39	0.348
0.084	0.8005	0.1644
0.1222	0.6279	0.1172
0.1761	0.45	0.0727
0.2037	0.3851	0.0578
0.2385	0.27	0.0336
0.2789	0.2205	0.0243
0.351	0.1414	0.0112
0.4138	0.08071	0.00428
0.4841	0.05401	0.00267
0.5497	0.03152	0.00225
0.6046	0.02031	0.0021
0.6526	0.0167	0.00207
0.7451	0.009096	0.002019
0.7984	0.005217	0.002007
0.8336	0.0041	0.002004
0.8777	0.003037	0.002002
0.9353	0.001898	0.002001
0.9596	0.00149	0.002001
1	0.001214	0.002

System: glycerol + ethanol; phases: Liquid
Fixed: Pressure, kPa = 101
Fixed: Temperature, K = 294
Property: Refractive index (Na D-line) (Liquid); method: Standard Abbe refractometry
Mole fraction of ethanol	Refractive index (Na D-line)	uncertainty
0	1.474	0.0035
0.084	1.468	0.0035
0.1222	1.466	0.0035
0.1761	1.4619	0.0035
0.2037	1.4592	0.0034
0.2385	1.4562	0.0034
0.2789	1.4528	0.0034
0.351	1.447	0.0034
0.4138	1.4392	0.0034
0.4841	1.4326	0.0034
0.5497	1.4253	0.0034
0.6046	1.4179	0.0034
0.6526	1.4131	0.0033
0.7451	1.4016	0.0033
0.7984	1.3934	0.0033
0.8336	1.3885	0.0033
0.8777	1.3815	0.0033
0.9353	1.3727	0.0032
0.9596	1.3681	0.0032
1	1.3618	0.0032

System: glycerol + ethanol; phases: Liquid
Fixed: Pressure, kPa = 101
Fixed: Temperature, K = 294
Property: Mass density, kg/m3 (Liquid); method: Vibrating tube method
Mole fraction of ethanol	Mass density, kg/m3	uncertainty
0	1261.51	0.34
0.084	1233.48	0.75
0.1222	1220.3	0.77
0.1761	1201.19	0.78
0.2037	1191.35	0.79
0.2385	1178.37	0.81
0.2789	1162.98	0.84
0.351	1134.3	0.86
0.4138	1108.32	0.9
0.4841	1077.53	0.94
0.5497	1047.03	0.98
0.6046	1020.27	1.02
0.6526	995.96	1.08
0.7451	946.41	1.12
0.7984	916.05	1.17
0.8336	895.63	1.21
0.8777	868.79	1.25
0.9353	832.89	1.28
0.9596	816.85	1.35
1	789.91	0.22
