Measured thermophysical data. Viscosity of Water + tert-Butyl Alcohol (2-Methyl-2-propanol) Mixtures at Low Temperatures and High Pressure
Source: J. Chem. Eng. Data, 2009, 10.1021/je800504n
Compound 1: 2-methylpropan-2-ol, C4H10O, InChI=1S/C4H10O/c1-4(2,3)5/h5H,1-3H3
Compound 2: water, H2O, InChI=1S/H2O/h1H2

System: 2-methylpropan-2-ol + water; phases: Liquid
Property: Viscosity, Pa*s (Liquid); method: Falling or rolling sphere viscometry
Mole fraction of 2-methylpropan-2-ol	Temperature, K	Pressure, kPa	Viscosity, Pa*s	uncertainty
0.00982	268.15	100	0.003007	6.9e-05
0.00982	268.15	11500	0.002928	6.7e-05
0.00982	268.15	26000	0.002847	6.5e-05
0.00982	268.15	51300	0.002734	6.2e-05
0.00982	268.15	75600	0.002661	6e-05
0.00982	268.15	76000	0.002662	6e-05
0.00982	268.15	100600	0.002608	5.9e-05
0.00982	268.15	125500	0.002573	6.4e-05
0.00982	268.15	150400	0.002554	5.7e-05
0.00982	268.15	175300	0.002548	5.7e-05
0.00982	268.15	200300	0.002555	5.7e-05
0.00982	268.15	225400	0.002568	5.8e-05
0.00982	268.15	250400	0.002592	5.8e-05
0.00982	268.15	275500	0.002612	5.9e-05
0.00982	268.15	300200	0.002648	5.9e-05
0.00982	268.15	325900	0.002699	6e-05
0.00982	268.15	350900	0.002743	6.2e-05
0.00982	273.15	100	0.002433	5.6e-05
0.00982	273.15	2900	0.002428	5.6e-05
0.00982	273.15	5200	0.00242	5.6e-05
0.00982	273.15	10600	0.002398	5.5e-05
0.00982	273.15	25500	0.002346	5.4e-05
0.00982	273.15	50500	0.002277	5.2e-05
0.00982	273.15	75500	0.002228	5.1e-05
0.00982	273.15	100600	0.002194	5e-05
0.00982	273.15	125500	0.002176	4.9e-05
0.00982	273.15	150200	0.002166	4.9e-05
0.00982	273.15	174800	0.002166	4.9e-05
0.00982	273.15	200000	0.002175	4.9e-05
0.00982	273.15	224300	0.002187	4.9e-05
0.00982	273.15	249600	0.002206	5e-05
0.00982	273.15	274400	0.002233	5e-05
0.00982	273.15	300300	0.002267	5.1e-05
0.00982	273.15	325200	0.002298	5.2e-05
0.00982	273.15	350200	0.002332	5.2e-05
0.00982	278.15	100	0.002009	4.5e-05
0.00982	278.15	3000	0.002006	4.5e-05
0.00982	278.15	5000	0.002001	4.5e-05
0.00982	278.15	10400	0.001988	4.5e-05
0.00982	278.15	25200	0.001956	4.4e-05
0.00982	278.15	50300	0.001912	4.3e-05
0.00982	278.15	75600	0.001883	4.2e-05
0.00982	278.15	100600	0.001866	4.1e-05
0.00982	278.15	125500	0.001856	4.1e-05
0.00982	278.15	150200	0.001856	4.1e-05
0.00982	278.15	174800	0.001858	4.1e-05
0.00982	278.15	200000	0.001868	4.1e-05
0.00982	278.15	225000	0.001884	4.2e-05
0.00982	278.15	249400	0.001903	4.2e-05
0.00982	278.15	274700	0.001929	4.3e-05
0.00982	278.15	300300	0.001955	4.3e-05
0.00982	278.15	325300	0.001986	4.4e-05
0.00982	278.15	348600	0.002017	4.5e-05
0.00982	288.15	100	0.001439	3.2e-05
0.00982	288.15	2800	0.001437	3.2e-05
0.00982	288.15	5100	0.001432	3.2e-05
0.00982	288.15	9400	0.001432	3.2e-05
0.00982	288.15	23900	0.00142	3.2e-05
0.00982	288.15	47200	0.001408	3.1e-05
0.00982	288.15	70400	0.0014	3.1e-05
0.00982	288.15	93700	0.001397	3.1e-05
0.00982	288.15	117000	0.001397	3.1e-05
0.00982	288.15	140200	0.0014	3.1e-05
0.00982	288.15	163500	0.001407	3.1e-05
0.00982	288.15	186600	0.001416	3.1e-05
0.00982	288.15	209800	0.001428	3.1e-05
0.00982	288.15	232900	0.001442	3.2e-05
0.00982	288.15	254600	0.001458	3.2e-05
0.00982	288.15	278100	0.001476	3.3e-05
0.00982	288.15	301600	0.001496	3.3e-05
0.00982	288.15	323800	0.001516	3.3e-05
0.00982	298.15	100	0.001087	2.4e-05
0.00982	298.15	400	0.001087	2.4e-05
0.00982	298.15	6200	0.001086	2.4e-05
0.00982	298.15	11300	0.001085	2.4e-05
0.00982	298.15	25700	0.001083	2.4e-05
0.00982	298.15	50200	0.001082	2.4e-05
0.00982	298.15	75600	0.001084	2.4e-05
0.00982	298.15	100600	0.001088	2.4e-05
0.00982	298.15	125500	0.001095	2.4e-05
0.00982	298.15	150500	0.001103	2.4e-05
0.00982	298.15	175500	0.001114	2.4e-05
0.00982	298.15	200500	0.001126	2.4e-05
0.00982	298.15	225500	0.001139	2.5e-05
0.00982	298.15	250500	0.001155	2.5e-05
0.00982	298.15	275500	0.00117	2.5e-05
0.00982	298.15	300500	0.001187	2.6e-05
0.00982	298.15	325500	0.001205	2.7e-05
0.00982	298.15	350300	0.001226	2.7e-05
0.00982	268.15	100	0.003025	7e-05
0.00982	273.15	100	0.002438	5.6e-05
0.00982	278.15	100	0.002014	4.5e-05
0.00982	298.15	100	0.001089	2.4e-05
0.02462	268.15	100	0.004996	0.000134
0.02462	268.15	5200	0.004955	0.000124
0.02462	268.15	10800	0.004894	0.000126
0.02462	268.15	25600	0.004767	0.000124
0.02462	268.15	30400	0.004722	0.000131
0.02462	268.15	50600	0.004579	0.000119
0.02462	268.15	75000	0.004434	0.000116
0.02462	268.15	100400	0.004326	0.000114
0.02462	268.15	124900	0.00425	0.000113
0.02462	268.15	149400	0.004198	0.000112
0.02462	268.15	174800	0.00417	9.4e-05
0.02462	268.15	199900	0.00416	9.4e-05
0.02462	268.15	225000	0.004166	9.4e-05
0.02462	268.15	250200	0.00419	9.5e-05
0.02462	268.15	274600	0.004219	9.5e-05
0.02462	273.15	100	0.003845	9.2e-05
0.02462	273.15	300	0.003842	9.2e-05
0.02462	273.15	1200	0.003835	9.1e-05
0.02462	273.15	3000	0.003827	9.3e-05
0.02462	273.15	5500	0.003816	9.1e-05
0.02462	273.15	10700	0.003784	9e-05
0.02462	273.15	25700	0.003712	8.8e-05
0.02462	273.15	50600	0.003613	8.5e-05
0.02462	273.15	74900	0.00353	8.3e-05
0.02462	273.15	100600	0.003474	8.1e-05
0.02462	273.15	124000	0.003436	8e-05
0.02462	273.15	148900	0.003409	8e-05
0.02462	273.15	174400	0.003399	7.9e-05
0.02462	273.15	199300	0.003404	7.9e-05
0.02462	273.15	224400	0.003411	7.9e-05
0.02462	273.15	249400	0.003437	7.8e-05
0.02462	273.15	274700	0.003474	7.9e-05
0.02462	273.15	298100	0.003512	7.9e-05
0.02462	278.15	100	0.003057	7e-05
0.02462	278.15	3000	0.003026	6.9e-05
0.02462	278.15	5600	0.003014	6.9e-05
0.02462	278.15	10700	0.003	6.8e-05
0.02462	278.15	25700	0.002962	6.8e-05
0.02462	278.15	50000	0.002914	6.6e-05
0.02462	278.15	75600	0.002871	6.5e-05
0.02462	278.15	100500	0.002842	6.5e-05
0.02462	278.15	124300	0.002826	6.4e-05
0.02462	278.15	149400	0.002819	6.4e-05
0.02462	278.15	174700	0.002818	6.4e-05
0.02462	278.15	199700	0.002827	6.4e-05
0.02462	278.15	224500	0.002844	6.5e-05
0.02462	278.15	249700	0.002866	0.000102
0.02462	278.15	250400	0.002871	0.000103
0.02462	278.15	273500	0.002906	6.5e-05
0.02462	278.15	275100	0.002897	6.5e-05
0.02462	278.15	299200	0.002935	6.5e-05
0.02462	278.15	324500	0.002985	6.6e-05
0.02462	278.15	349000	0.00303	6.7e-05
0.02462	278.15	387800	0.003113	6.9e-05
0.02462	288.15	100	0.002031	4.6e-05
0.02462	288.15	1400	0.00203	4.6e-05
0.02462	288.15	3100	0.002025	4.6e-05
0.02462	288.15	5600	0.002026	4.6e-05
0.02462	288.15	10500	0.002024	4.6e-05
0.02462	288.15	25500	0.002015	4.6e-05
0.02462	288.15	50300	0.002004	4.5e-05
0.02462	288.15	75500	0.002	4.5e-05
0.02462	288.15	100500	0.001997	4.5e-05
0.02462	288.15	125500	0.002004	4.5e-05
0.02462	288.15	149000	0.002012	4.5e-05
0.02462	288.15	174200	0.002024	4.5e-05
0.02462	288.15	199000	0.002041	4.6e-05
0.02462	288.15	222800	0.002059	4.6e-05
0.02462	288.15	249400	0.002083	4.7e-05
0.02462	288.15	274800	0.002109	4.7e-05
0.02462	288.15	299600	0.002141	4.8e-05
0.02462	288.15	324700	0.002171	4.9e-05
0.02462	288.15	348400	0.002204	5e-05
0.02462	288.15	371900	0.002243	5e-05
0.02462	298.15	100	0.001453	3.3e-05
0.02462	298.15	300	0.001451	3.3e-05
0.02462	298.15	1200	0.001449	3.3e-05
0.02462	298.15	3000	0.001451	3.3e-05
0.02462	298.15	5500	0.001452	3.3e-05
0.02462	298.15	10600	0.001452	3.3e-05
0.02462	298.15	25200	0.001454	3.3e-05
0.02462	298.15	50200	0.00146	3.3e-05
0.02462	298.15	75000	0.001468	3.3e-05
0.02462	298.15	100500	0.001479	3.3e-05
0.02462	298.15	125500	0.001489	3.3e-05
0.02462	298.15	150500	0.001504	3.3e-05
0.02462	298.15	174900	0.001518	3.4e-05
0.02462	298.15	199700	0.001537	3.4e-05
0.02462	298.15	224400	0.001558	3.4e-05
0.02462	298.15	250200	0.00158	3.5e-05
0.02462	298.15	275100	0.001599	3.5e-05
0.02462	298.15	300200	0.001626	3.6e-05
0.02462	298.15	325000	0.001652	3.6e-05
0.02462	298.15	350100	0.001682	3.7e-05
0.02462	298.15	374500	0.001713	3.8e-05
0.02462	278.15	100	0.003035	7e-05
0.02462	288.15	100	0.00203	4.6e-05
0.02462	278.15	100	0.003041	7e-05
0.02462	278.15	100	0.003029	6.9e-05
0.02462	278.15	100	0.003036	7e-05
0.05982	263.15	100	0.02228	0.000574
0.05982	263.15	30200	0.02249	0.000574
0.05982	263.15	31100	0.0225	0.000574
0.05982	263.15	46400	0.02246	0.00057
0.05982	263.15	79200	0.02247	0.000567
0.05982	263.15	101000	0.0225	0.000565
0.05982	263.15	125400	0.02256	0.000556
0.05982	263.15	125900	0.02261	0.000557
0.05982	263.15	140900	0.02259	0.000566
0.05982	263.15	146400	0.02271	0.000567
0.05982	268.15	100	0.01418	0.000395
0.05982	268.15	6500	0.01433	0.000396
0.05982	268.15	11400	0.01441	0.000359
0.05982	268.15	24700	0.01451	0.000399
0.05982	268.15	50300	0.01472	0.0004
0.05982	268.15	75500	0.01486	0.0004
0.05982	268.15	100400	0.01499	0.000401
0.05982	268.15	120600	0.01505	0.000401
0.05982	268.15	140700	0.01515	0.000407
0.05982	273.15	100	0.009584	0.000252
0.05982	273.15	11000	0.009721	0.000285
0.05982	273.15	25600	0.009863	0.000258
0.05982	273.15	50000	0.01006	0.00026
0.05982	273.15	75600	0.01025	0.00027
0.05982	273.15	100600	0.01041	0.00027
0.05982	273.15	125500	0.01056	0.00027
0.05982	273.15	149000	0.0107	0.00027
0.05982	273.15	174300	0.01086	0.00026
0.05982	273.15	196100	0.01098	0.00026
0.05982	273.15	198000	0.01102	0.00026
0.05982	278.15	100	0.006754	0.00016
0.05982	278.15	24100	0.006975	0.000166
0.05982	278.15	50600	0.007187	0.00017
0.05982	278.15	75600	0.007355	0.000174
0.05982	278.15	100600	0.00751	0.000178
0.05982	278.15	125500	0.007658	0.000181
0.05982	278.15	148000	0.007794	0.000183
0.05982	278.15	174200	0.007951	0.000187
0.05982	278.15	198600	0.008104	0.00019
0.05982	278.15	222900	0.008287	0.000189
0.05982	278.15	241500	0.008388	0.000191
0.05982	288.15	100	0.003769	9.1e-05
0.05982	288.15	5500	0.003802	9.1e-05
0.05982	288.15	10700	0.003834	9.2e-05
0.05982	288.15	25700	0.003928	9.5e-05
0.05982	288.15	50200	0.004068	9.8e-05
0.05982	288.15	75600	0.004202	0.000101
0.05982	288.15	100600	0.004328	0.000104
0.05982	288.15	125500	0.004445	0.000106
0.05982	288.15	150500	0.00457	0.000109
0.05982	288.15	174700	0.004681	0.000111
0.05982	288.15	196300	0.004785	0.000113
0.05982	288.15	221400	0.004914	0.000116
0.05982	288.15	247100	0.005033	0.000118
0.05982	288.15	273400	0.005184	0.000115
0.05982	288.15	298000	0.005316	0.000118
0.05982	288.15	322400	0.005444	0.000121
0.05982	288.15	349800	0.005586	0.000123
0.05982	298.15	100	0.00238	5.8e-05
0.05982	298.15	5600	0.002406	5.9e-05
0.05982	298.15	10600	0.002424	5.9e-05
0.05982	298.15	30600	0.002506	6.1e-05
0.05982	298.15	50100	0.002583	6.3e-05
0.05982	298.15	75000	0.002677	6.5e-05
0.05982	298.15	100600	0.002773	6.7e-05
0.05982	298.15	125500	0.00288	6.9e-05
0.05982	298.15	150500	0.002992	7.1e-05
0.05982	298.15	175500	0.003101	7.3e-05
0.05982	298.15	200400	0.003207	7.5e-05
0.05982	298.15	225400	0.003308	7.7e-05
0.05982	298.15	250200	0.003424	7.9e-05
0.05982	298.15	272200	0.00353	8.2e-05
0.05982	298.15	297500	0.003676	8.5e-05
0.05982	298.15	317100	0.003765	8.7e-05
0.05982	298.15	337400	0.003896	8.9e-05
0.05982	298.15	355200	0.003965	9.1e-05
0.05982	268.15	100	0.01422	0.000396
0.05982	273.15	100	0.009608	0.000253
0.05982	278.15	100	0.006752	0.00016
0.05982	288.15	100	0.003765	9.1e-05
0.05982	298.15	100	0.002383	5.8e-05
0.05982	268.15	100	0.01423	0.000396
0.05982	268.15	100	0.01423	0.000396
0.09495	273.15	100	0.01382	0.000342
0.09495	273.15	12700	0.01463	0.000367
0.09495	273.15	25300	0.01544	0.000388
0.09495	273.15	49800	0.01717	0.000428
0.09495	278.15	100	0.009445	0.00023
0.09495	278.15	11100	0.009846	0.000238
0.09495	278.15	15600	0.01005	0.000244
0.09495	278.15	30600	0.01065	0.000258
0.09495	278.15	44800	0.01124	0.000278
0.09495	278.15	60600	0.0119	0.00029
0.09495	278.15	75600	0.01256	0.000294
0.09495	278.15	90300	0.01322	0.000312
0.09495	288.15	100	0.005053	0.000125
0.09495	288.15	25700	0.005501	0.000137
0.09495	288.15	50600	0.005937	0.000148
0.09495	288.15	75600	0.006389	0.000162
0.09495	288.15	100500	0.006874	0.000173
0.09495	288.15	125500	0.007371	0.000168
0.09495	288.15	150000	0.007874	0.00018
0.09495	298.15	100	0.003106	7.7e-05
0.09495	298.15	1100	0.003119	7.7e-05
0.09495	298.15	3000	0.003145	7.7e-05
0.09495	298.15	5400	0.003162	7.8e-05
0.09495	298.15	10700	0.003214	7.9e-05
0.09495	298.15	25400	0.003349	8.3e-05
0.09495	298.15	50100	0.003577	8.9e-05
0.09495	298.15	75600	0.003815	9.6e-05
0.09495	298.15	100600	0.00405	8.9e-05
0.09495	298.15	125600	0.004307	9.5e-05
0.09495	298.15	150600	0.004551	0.000117
0.09495	298.15	175500	0.004837	0.000122
0.09495	298.15	200500	0.005104	0.000127
0.09495	298.15	225300	0.005394	0.000133
0.09495	298.15	249800	0.005697	0.000139
0.09495	278.15	100	0.009478	0.000231
0.09495	288.15	100	0.005067	0.000125
0.09495	298.15	100	0.00312	7.7e-05
0.09495	278.15	100	0.00947	0.000231

System: 2-methylpropan-2-ol + water; phases: Liquid
Property: Mass density, kg/m3 (Liquid); method: Vibrating tube method
Mole fraction of 2-methylpropan-2-ol	Temperature, K	Pressure, kPa	Mass density, kg/m3	uncertainty
0.00982	268.15	100	993.23	0.12
0.00982	268.15	11500	999.4	0.12
0.00982	268.15	26000	1006.99	0.12
0.00982	268.15	51300	1019.61	0.13
0.00982	268.15	75600	1030.99	0.17
0.00982	268.15	76000	1031.16	0.17
0.00982	268.15	100600	1042.09	0.23
0.00982	268.15	125500	1052.63	0.31
0.00982	268.15	150400	1062.63	0.43
0.00982	268.15	175300	1072.24	0.55
0.00982	268.15	200300	1081.51	0.7
0.00982	268.15	225400	1090.44	0.86
0.00982	268.15	250400	1099	1.03
0.00982	268.15	275500	1107.3	1.22
0.00982	268.15	300200	1115.23	1.42
0.00982	268.15	325900	1123.21	1.64
0.00982	268.15	350900	1130.74	1.86
0.00982	273.15	100	993.58	0.12
0.00982	273.15	2900	995.03	0.12
0.00982	273.15	5200	996.16	0.12
0.00982	273.15	10600	998.87	0.12
0.00982	273.15	25500	1006.14	0.12
0.00982	273.15	50500	1017.79	0.13
0.00982	273.15	75500	1028.77	0.16
0.00982	273.15	100600	1039.22	0.22
0.00982	273.15	125500	1049.15	0.3
0.00982	273.15	150200	1058.55	0.4
0.00982	273.15	174800	1067.54	0.52
0.00982	273.15	200000	1076.38	0.66
0.00982	273.15	224300	1084.63	0.8
0.00982	273.15	249600	1092.89	0.97
0.00982	273.15	274400	1100.73	1.14
0.00982	273.15	300300	1108.63	1.34
0.00982	273.15	325200	1116.03	1.54
0.00982	273.15	350200	1123.25	1.75
0.00982	278.15	100	993.66	0.12
0.00982	278.15	3000	995.02	0.12
0.00982	278.15	5000	995.99	0.12
0.00982	278.15	10400	998.51	0.12
0.00982	278.15	25200	1005.23	0.12
0.00982	278.15	50300	1016.12	0.13
0.00982	278.15	75600	1026.54	0.16
0.00982	278.15	100600	1036.34	0.21
0.00982	278.15	125500	1045.68	0.28
0.00982	278.15	150200	1054.57	0.38
0.00982	278.15	174800	1063.05	0.49
0.00982	278.15	200000	1071.42	0.62
0.00982	278.15	225000	1079.42	0.76
0.00982	278.15	249400	1086.98	0.91
0.00982	278.15	274700	1094.58	1.08
0.00982	278.15	300300	1102.03	1.26
0.00982	278.15	325300	1109.08	1.45
0.00982	278.15	348600	1115.48	1.64
0.00982	288.15	100	992.71	0.12
0.00982	288.15	2800	993.88	0.12
0.00982	288.15	5100	994.91	0.12
0.00982	288.15	9400	996.75	0.12
0.00982	288.15	23900	1002.89	0.12
0.00982	288.15	47200	1012.32	0.13
0.00982	288.15	70400	1021.31	0.15
0.00982	288.15	93700	1029.95	0.18
0.00982	288.15	117000	1038.26	0.23
0.00982	288.15	140200	1046.23	0.31
0.00982	288.15	163500	1053.92	0.4
0.00982	288.15	186600	1061.32	0.5
0.00982	288.15	209800	1068.49	0.62
0.00982	288.15	232900	1075.42	0.75
0.00982	288.15	254600	1081.73	0.87
0.00982	288.15	278100	1088.38	1.02
0.00982	288.15	301600	1094.85	1.18
0.00982	288.15	323800	1100.83	1.34
0.00982	298.15	100	990.54	0.12
0.00982	298.15	400	990.65	0.12
0.00982	298.15	6200	993.13	0.12
0.00982	298.15	11300	995.3	0.12
0.00982	298.15	25700	1001.24	0.12
0.00982	298.15	50200	1010.98	0.13
0.00982	298.15	75600	1020.66	0.15
0.00982	298.15	100600	1029.76	0.19
0.00982	298.15	125500	1038.52	0.24
0.00982	298.15	150500	1046.96	0.33
0.00982	298.15	175500	1055.1	0.43
0.00982	298.15	200500	1062.98	0.55
0.00982	298.15	225500	1070.6	0.68
0.00982	298.15	250500	1078.02	0.82
0.00982	298.15	275500	1085.2	0.98
0.00982	298.15	300500	1092.2	1.14
0.00982	298.15	325500	1099	1.32
0.00982	298.15	350300	1105.59	1.51
0.00982	268.15	100	993.23	0.12
0.00982	273.15	100	993.58	0.12
0.00982	278.15	100	993.66	0.12
0.00982	298.15	100	990.54	0.12
0.02462	268.15	100	987.5	0.12
0.02462	268.15	5200	989.74	0.12
0.02462	268.15	10800	992.16	0.12
0.02462	268.15	25600	998.45	0.12
0.02462	268.15	30400	1000.44	0.12
0.02462	268.15	50600	1008.69	0.12
0.02462	268.15	75000	1018.27	0.14
0.02462	268.15	100400	1027.81	0.18
0.02462	268.15	124900	1036.67	0.23
0.02462	268.15	149400	1045.23	0.32
0.02462	268.15	174800	1053.78	0.42
0.02462	268.15	199900	1061.97	0.54
0.02462	268.15	225000	1069.9	0.67
0.02462	268.15	250200	1077.63	0.82
0.02462	268.15	274600	1084.91	0.97
0.02462	273.15	100	987.47	0.12
0.02462	273.15	300	987.57	0.12
0.02462	273.15	1200	987.96	0.12
0.02462	273.15	3000	988.72	0.12
0.02462	273.15	5500	989.83	0.12
0.02462	273.15	10700	992.02	0.12
0.02462	273.15	25700	998.32	0.12
0.02462	273.15	50600	1008.38	0.12
0.02462	273.15	74900	1017.79	0.14
0.02462	273.15	100600	1027.3	0.18
0.02462	273.15	124000	1035.65	0.23
0.02462	273.15	148900	1044.23	0.31
0.02462	273.15	174400	1052.72	0.41
0.02462	273.15	199300	1060.7	0.53
0.02462	273.15	224400	1068.54	0.66
0.02462	273.15	249400	1076.1	0.8
0.02462	273.15	274700	1083.54	0.96
0.02462	273.15	298100	1090.22	1.11
0.02462	278.15	100	987.19	0.12
0.02462	278.15	3000	988.46	0.12
0.02462	278.15	5600	989.57	0.12
0.02462	278.15	10700	991.75	0.12
0.02462	278.15	25700	998.06	0.12
0.02462	278.15	50000	1007.92	0.12
0.02462	278.15	75600	1017.82	0.14
0.02462	278.15	100500	1027.05	0.18
0.02462	278.15	124300	1035.52	0.23
0.02462	278.15	149400	1044.15	0.31
0.02462	278.15	174700	1052.55	0.41
0.02462	278.15	199700	1060.56	0.53
0.02462	278.15	224500	1068.27	0.66
0.02462	278.15	249700	1075.86	0.8
0.02462	278.15	250400	1076.04	0.8
0.02462	278.15	273500	1082.81	0.94
0.02462	278.15	275100	1083.27	0.95
0.02462	278.15	299200	1090.14	1.11
0.02462	278.15	324500	1097.16	1.29
0.02462	278.15	349000	1103.77	1.48
0.02462	278.15	387800	1113.94	1.79
0.02462	288.15	100	985.57	0.12
0.02462	288.15	1400	986.09	0.12
0.02462	288.15	3100	986.77	0.12
0.02462	288.15	5600	987.79	0.12
0.02462	288.15	10500	989.79	0.12
0.02462	288.15	25500	995.71	0.12
0.02462	288.15	50300	1005.14	0.12
0.02462	288.15	75500	1014.32	0.14
0.02462	288.15	100500	1023.04	0.17
0.02462	288.15	125500	1031.43	0.21
0.02462	288.15	149000	1039.02	0.28
0.02462	288.15	174200	1046.88	0.37
0.02462	288.15	199000	1054.4	0.48
0.02462	288.15	222800	1061.36	0.59
0.02462	288.15	249400	1068.92	0.73
0.02462	288.15	274800	1075.9	0.87
0.02462	288.15	299600	1082.56	1.03
0.02462	288.15	324700	1089.12	1.19
0.02462	288.15	348400	1095.15	1.36
0.02462	288.15	371900	1100.99	1.53
0.02462	298.15	100	982.77	0.12
0.02462	298.15	300	982.84	0.12
0.02462	298.15	1200	983.26	0.12
0.02462	298.15	3000	984.01	0.12
0.02462	298.15	5500	985.09	0.12
0.02462	298.15	10600	987.26	0.12
0.02462	298.15	25200	993.35	0.12
0.02462	298.15	50200	1003.4	0.12
0.02462	298.15	75000	1012.92	0.13
0.02462	298.15	100500	1022.32	0.16
0.02462	298.15	125500	1031.14	0.21
0.02462	298.15	150500	1039.62	0.29
0.02462	298.15	174900	1047.62	0.38
0.02462	298.15	199700	1055.49	0.49
0.02462	298.15	224400	1063.06	0.61
0.02462	298.15	250200	1070.76	0.75
0.02462	298.15	275100	1077.94	0.9
0.02462	298.15	300200	1084.98	1.06
0.02462	298.15	325000	1091.77	1.23
0.02462	298.15	350100	1098.46	1.41
0.02462	298.15	374500	1104.82	1.6
0.02462	278.15	100	987.19	0.12
0.02462	288.15	100	985.57	0.12
0.02462	278.15	100	987.19	0.12
0.02462	278.15	100	987.19	0.12
0.02462	278.15	100	987.19	0.12
0.05982	263.15	100	983.51	0.12
0.05982	263.15	30200	994.28	0.12
0.05982	263.15	31100	994.59	0.12
0.05982	263.15	46400	999.87	0.12
0.05982	263.15	79200	1010.86	0.13
0.05982	263.15	101000	1017.9	0.15
0.05982	263.15	125400	1025.59	0.19
0.05982	263.15	125900	1025.72	0.19
0.05982	263.15	140900	1030.34	0.22
0.05982	263.15	146400	1031.99	0.24
0.05982	268.15	100	981.45	0.12
0.05982	268.15	6500	983.79	0.12
0.05982	268.15	11400	985.58	0.12
0.05982	268.15	24700	990.34	0.12
0.05982	268.15	50300	999.21	0.12
0.05982	268.15	75500	1007.66	0.12
0.05982	268.15	100400	1015.7	0.15
0.05982	268.15	120600	1022.05	0.17
0.05982	268.15	140700	1028.18	0.21
0.05982	273.15	100	979.21	0.12
0.05982	273.15	11000	983.22	0.12
0.05982	273.15	25600	988.48	0.12
0.05982	273.15	50000	996.97	0.12
0.05982	273.15	75600	1005.56	0.12
0.05982	273.15	100600	1013.62	0.14
0.05982	273.15	125500	1021.39	0.17
0.05982	273.15	149000	1028.5	0.22
0.05982	273.15	174300	1035.89	0.3
0.05982	273.15	196100	1042.09	0.37
0.05982	273.15	198000	1042.64	0.38
0.05982	278.15	100	976.86	0.12
0.05982	278.15	24100	985.07	0.12
0.05982	278.15	50600	993.73	0.12
0.05982	278.15	75600	1001.59	0.12
0.05982	278.15	100600	1009.11	0.13
0.05982	278.15	125500	1016.36	0.16
0.05982	278.15	148000	1022.67	0.19
0.05982	278.15	174200	1029.81	0.25
0.05982	278.15	198600	1036.22	0.33
0.05982	278.15	222900	1042.46	0.42
0.05982	278.15	241500	1047.1	0.5
0.05982	288.15	100	971.48	0.12
0.05982	288.15	5500	973.66	0.12
0.05982	288.15	10700	975.71	0.12
0.05982	288.15	25700	981.55	0.12
0.05982	288.15	50200	990.69	0.12
0.05982	288.15	75600	999.66	0.12
0.05982	288.15	100600	1008.07	0.13
0.05982	288.15	125500	1016.09	0.16
0.05982	288.15	150500	1023.79	0.2
0.05982	288.15	174700	1030.97	0.26
0.05982	288.15	196300	1037.16	0.34
0.05982	288.15	221400	1044.11	0.43
0.05982	288.15	247100	1050.98	0.54
0.05982	288.15	273400	1057.78	0.67
0.05982	288.15	298000	1063.93	0.8
0.05982	288.15	322400	1069.87	0.94
0.05982	288.15	349800	1076.33	1.1
0.05982	298.15	100	965.48	0.12
0.05982	298.15	5600	967.56	0.12
0.05982	298.15	10600	969.47	0.12
0.05982	298.15	30600	976.74	0.13
0.05982	298.15	50100	983.54	0.13
0.05982	298.15	75000	991.74	0.13
0.05982	298.15	100600	999.77	0.12
0.05982	298.15	125500	1007.2	0.13
0.05982	298.15	150500	1014.29	0.16
0.05982	298.15	175500	1021.1	0.2
0.05982	298.15	200400	1027.61	0.27
0.05982	298.15	225400	1033.87	0.35
0.05982	298.15	250200	1039.89	0.44
0.05982	298.15	272200	1045.05	0.53
0.05982	298.15	297500	1050.79	0.64
0.05982	298.15	317100	1055.1	0.73
0.05982	298.15	337400	1059.46	0.84
0.05982	298.15	355200	1063.2	0.93
0.05982	268.15	100	981.45	0.12
0.05982	273.15	100	979.21	0.12
0.05982	278.15	100	976.86	0.12
0.05982	288.15	100	971.48	0.12
0.05982	298.15	100	965.48	0.12
0.05982	268.15	100	981.45	0.12
0.05982	268.15	100	981.45	0.12
0.09495	273.15	100	963.62	0.12
0.09495	273.15	12700	969.08	0.12
0.09495	273.15	25300	974.3	0.13
0.09495	273.15	49800	983.93	0.13
0.09495	278.15	100	959.89	0.12
0.09495	278.15	11100	964.74	0.13
0.09495	278.15	15600	966.65	0.13
0.09495	278.15	30600	972.87	0.13
0.09495	278.15	44800	978.52	0.13
0.09495	278.15	60600	984.52	0.13
0.09495	278.15	75600	989.96	0.13
0.09495	278.15	90300	995.09	0.12
0.09495	288.15	100	952.49	0.12
0.09495	288.15	25700	963.56	0.14
0.09495	288.15	50600	973.47	0.14
0.09495	288.15	75600	982.73	0.14
0.09495	288.15	100500	991.3	0.13
0.09495	288.15	125500	999.41	0.12
0.09495	288.15	150000	1006.92	0.13
0.09495	298.15	100	945.11	0.12
0.09495	298.15	1100	945.57	0.12
0.09495	298.15	3000	946.45	0.13
0.09495	298.15	5400	947.56	0.13
0.09495	298.15	10700	949.94	0.13
0.09495	298.15	25400	956.4	0.14
0.09495	298.15	50100	966.52	0.15
0.09495	298.15	75600	976.21	0.15
0.09495	298.15	100600	985.07	0.14
0.09495	298.15	125600	993.37	0.13
0.09495	298.15	150600	1001.19	0.12
0.09495	298.15	175500	1008.61	0.14
0.09495	298.15	200500	1015.65	0.19
0.09495	298.15	225300	1022.34	0.25
0.09495	298.15	249800	1028.64	0.33
0.09495	278.15	100	959.89	0.12
0.09495	288.15	100	952.49	0.12
0.09495	298.15	100	945.11	0.12
0.09495	278.15	100	959.89	0.12
