Measured thermophysical data. Phase Behavior of Carbon Dioxide in Ionic Liquids: [emim][Acetate], [emim][Trifluoroacetate], and [emim][Acetate] + [emim][Trifluoroacetate] Mixtures
Source: J. Chem. Eng. Data, 2009, 10.1021/je800701j
Compound 1: carbon dioxide, CO2, InChI=1S/CO2/c2-1-3
Compound 2: 1-ethyl-3-methylimidazolium acetate, C8H14N2O2, InChI=1S/C6H11N2.C2H4O2/c1-3-8-5-4-7(2)6-8;1-2(3)4/h4-6H,3H2,1-2H3;1H3,(H,3,4)/q+1;/p-1
Compound 3: 1-ethyl-3-methylimidazolium trifluoroacetate, C8H11F3N2O2, InChI=1S/C6H11N2.C2HF3O2/c1-3-8-5-4-7(2)6-8;3-2(4,5)1(6)7/h4-6H,3H2,1-2H3;(H,6,7)/q+1;/p-1

System: 1-ethyl-3-methylimidazolium acetate; phases: Liquid
Fixed: Pressure, kPa = 101
Property: Mass density, kg/m3 (Liquid); method: Pycnometric method
Temperature, K	Mass density, kg/m3	uncertainty
298.1	1102	9
323.1	1086	9
348.1	1073	8
373.1	1059	8

System: 1-ethyl-3-methylimidazolium trifluoroacetate; phases: Liquid
Fixed: Pressure, kPa = 101
Property: Mass density, kg/m3 (Liquid); method: Pycnometric method
Temperature, K	Mass density, kg/m3	uncertainty
298.1	1301	10
323.1	1283	10
348.1	1264	10
373.1	1250	10

System: carbon dioxide + 1-ethyl-3-methylimidazolium acetate; phases: Liquid, Gas
Property: Mole fraction of carbon dioxide (Liquid); method: gravimetric microbalance
Temperature, K	Pressure, kPa	Mole fraction of carbon dioxide	uncertainty
323.1	10	0.138	0.004
323.1	49.9	0.203	0.005
323.1	100	0.23	0.005
323.1	400	0.285	0.006
323.1	700	0.314	0.007
323.1	1000.1	0.336	0.007
323.1	1299.7	0.35	0.008
323.1	1499.8	0.361	0.008
323.1	1999.6	0.39	0.008
348.1	10.1	0.094	0.003
348.1	50.1	0.157	0.004
348.1	100.2	0.186	0.004
348.1	399.7	0.241	0.005
348.1	999.8	0.28	0.006
348.1	1299.6	0.294	0.006
348.2	699.6	0.264	0.006
348.2	1499.7	0.298	0.006
348.2	1999.6	0.321	0.007

System: carbon dioxide + 1-ethyl-3-methylimidazolium trifluoroacetate; phases: Liquid, Gas
Property: Mole fraction of carbon dioxide (Liquid); method: gravimetric microbalance
Temperature, K	Pressure, kPa	Mole fraction of carbon dioxide	uncertainty
323.1	10	0.004	0.001
323.1	49.9	0.009	0.001
323.1	100	0.015	0.001
323.1	400	0.044	0.002
323.1	700	0.072	0.003
323.1	1000.1	0.104	0.004
323.1	1299.7	0.134	0.005
323.1	1499.8	0.156	0.006
323.1	1999.6	0.2	0.008
348.1	10.1	0.006	0.001
348.1	50.1	0.01	0.001
348.1	100.2	0.013	0.001
348.1	399.7	0.032	0.001
348.1	999.8	0.07	0.003
348.1	1299.6	0.095	0.004
348.1	1499.7	0.108	0.004
348.2	699.6	0.05	0.002
348.2	1999.6	0.144	0.006

System: 1-ethyl-3-methylimidazolium acetate + 1-ethyl-3-methylimidazolium trifluoroacetate; phases: Liquid
Fixed: Pressure, kPa = 101
Property: Mass density, kg/m3 (Liquid); method: Pycnometric method
Temperature, K	Mole fraction of 1-ethyl-3-methylimidazolium trifluoroacetate	Mass density, kg/m3	uncertainty
298.1	0	1102	9
298.1	0.2464	1152	9
298.1	0.5002	1204	10
298.1	0.7468	1252	10
298.1	1	1301	10
323.1	0	1086	9
323.1	0.2464	1136	9
323.1	0.5002	1189	9
323.1	0.7468	1235	10
323.1	1	1283	10
348.1	0	1073	8
348.1	0.2464	1121	9
348.1	0.5002	1172	9
348.1	0.7468	1217	10
348.1	1	1264	10
373.1	0	1059	8
373.1	0.2464	1107	9
373.1	0.5002	1157	9
373.1	0.7468	1202	10
373.1	1	1250	10

System: carbon dioxide + 1-ethyl-3-methylimidazolium acetate + 1-ethyl-3-methylimidazolium trifluoroacetate; phases: Liquid, Gas
Fixed: Solvent: Mole fraction of 1-ethyl-3-methylimidazolium acetate = 0.4998
Property: Mole fraction of carbon dioxide (Liquid); method: gravimetric microbalance
Temperature, K	Pressure, kPa	Mole fraction of carbon dioxide	uncertainty
298.1	10.1	0.106	0.003
298.1	50.1	0.146	0.003
298.1	100.1	0.164	0.003
298.1	399.7	0.215	0.004
298.1	999.7	0.282	0.006
298.1	1299.6	0.31	0.007
298.1	1499.5	0.327	0.007
298.1	1999.5	0.371	0.008
298.2	699.6	0.25	0.005
323.1	10	0.063	0.002
323.1	50	0.105	0.002
323.1	100.1	0.124	0.003
323.1	400	0.171	0.004
323.1	699.6	0.199	0.004
323.1	999.6	0.223	0.005
323.1	1299.8	0.246	0.005
323.1	1499.8	0.258	0.005
323.1	1999.6	0.291	0.006
348	1299.7	0.189	0.004
348.1	10.2	0.045	0.002
348.1	50.1	0.081	0.002
348.1	100.2	0.099	0.002
348.1	400	0.141	0.003
348.1	700	0.16	0.003
348.1	1499.8	0.196	0.004
348.1	1999.5	0.223	0.005
348.2	999.8	0.176	0.004
