Measured thermophysical data. KCl-Induced Phase Separation of 1,4-Dioxane + Water Mixtures Studied by Electrical Conductivity and Refractive Index
Source: J. Chem. Eng. Data, 2009, 10.1021/je8005002
Compound 1: 1,4-dioxane, C4H8O2, InChI=1S/C4H8O2/c1-2-6-4-3-5-1/h1-4H2
Compound 2: water, H2O, InChI=1S/H2O/h1H2
Compound 3: potassium chloride, ClK, InChI=1S/ClH.K/h1H;/q;+1/p-1

System: 1,4-dioxane + potassium chloride + water; phases: Liquid mixture 1, Liquid mixture 2, Crystal
Fixed: Pressure, kPa = 101
Property: Electrical conductivity, S/m (Liquid mixture 1); method: commercial (phywe type) conductometer
Temperature, K	Electrical conductivity, S/m	uncertainty
311.061	1.147	0.023
311.108	1.217	0.024
311.178	1.288	0.026
311.22	1.32	0.026
311.29	1.368	0.027
311.368	1.415	0.028
311.522	1.496	0.03
311.741	1.593	0.032
312.03	1.704	0.034
312.319	1.81	0.036
312.548	1.886	0.038
312.763	1.956	0.039
312.973	2.023	0.04
313.235	2.104	0.042
313.407	2.15	0.043
313.607	2.206	0.044
313.685	2.231	0.045
313.799	2.254	0.045
313.915	2.29	0.046
314.106	2.339	0.047
314.235	2.377	0.048
314.513	2.447	0.049
314.702	2.497	0.05
314.971	2.568	0.051
315.143	2.606	0.052
315.302	2.648	0.053
315.587	2.719	0.054
315.762	2.759	0.055
315.917	2.794	0.056
316.174	2.853	0.057
316.402	2.912	0.058
316.616	2.959	0.059
316.829	3.01	0.06
316.95	3.037	0.061
317.08	3.069	0.061
317.22	3.093	0.062
317.464	3.155	0.063
317.896	3.251	0.065
318.318	3.341	0.067
318.742	3.431	0.069
319.254	3.541	0.071
319.55	3.621	0.072
319.843	3.708	0.074
320.215	3.768	0.075
320.383	3.819	0.076
320.79	3.915	0.078
321.274	4.039	0.081
321.83	4.181	0.084
322.182	4.246	0.085
322.457	4.327	0.087
322.848	4.384	0.088
323.38	4.544	0.091
323.77	4.65	0.093
324.149	4.71	0.094
324.439	4.789	0.096
324.856	4.884	0.098
325.326	5.023	0.1
326.031	5.131	0.103
326.864	5.337	0.107
327.592	5.511	0.11
327.918	5.576	0.112

System: 1,4-dioxane + potassium chloride + water; phases: Liquid mixture 2, Liquid mixture 1, Crystal
Fixed: Pressure, kPa = 101
Property: Electrical conductivity, S/m (Liquid mixture 2); method: commercial (phywe type) conductometer
Temperature, K	Electrical conductivity, S/m	uncertainty
311.061	0.8784	0.0176
311.108	0.837	0.0167
311.178	0.8044	0.0161
311.22	0.785	0.0157
311.29	0.7572	0.0151
311.368	0.7327	0.0147
311.522	0.6942	0.0139
311.741	0.656	0.0131
312.03	0.6195	0.0124
312.319	0.5865	0.0117
312.548	0.5674	0.0113
312.763	0.55	0.011
312.973	0.5325	0.0107
313.235	0.5134	0.0103
313.407	0.5074	0.0101
313.607	0.498	0.01
313.685	0.491	0.0098
313.799	0.494	0.0099
313.915	0.484	0.0097
314.106	0.479	0.0096
314.235	0.469	0.0094
314.513	0.462	0.0092
314.702	0.4531	0.0091
314.971	0.4411	0.0088
315.143	0.4406	0.0088
315.302	0.434	0.0087
315.587	0.4234	0.0085
315.762	0.4206	0.0084
315.917	0.4197	0.0084
316.174	0.4154	0.0083
316.402	0.4032	0.0081
316.616	0.4005	0.008
316.829	0.3941	0.0079
316.95	0.3923	0.0078
317.08	0.3867	0.0077
317.22	0.3919	0.0078
317.464	0.3798	0.0076
317.896	0.3716	0.0074
318.318	0.3676	0.0074
318.742	0.3625	0.0073
319.254	0.3538	0.0071
319.55	0.3314	0.0066
319.843	0.3441	0.0069
320.215	0.34	0.0068
320.383	0.3383	0.0068
320.79	0.3327	0.0067
321.274	0.3275	0.0066
321.83	0.3217	0.0064
322.182	0.3172	0.0063
322.457	0.3169	0.0063
322.848	0.3113	0.0062
323.38	0.3067	0.0061
323.77	0.303	0.006
324.149	0.2999	0.006
324.439	0.296	0.0059
324.856	0.293	0.0059
325.326	0.2897	0.0058
326.031	0.283	0.0057
326.864	0.2713	0.0054
327.592	0.2637	0.0053
327.918	0.2618	0.0052

System: 1,4-dioxane + potassium chloride + water; phases: Liquid, Crystal
Fixed: Mole fraction of 1,4-dioxane = 0.295
Fixed: Pressure, kPa = 101
Property: Electrical conductivity, S/m (Liquid); method: commercial (phywe type) conductometer
Temperature, K	Electrical conductivity, S/m	uncertainty
304.481	1.011	0.02
305.064	1.027	0.021
305.652	1.044	0.021
306.078	1.058	0.021
306.706	1.077	0.022
307.144	1.092	0.022
307.579	1.107	0.022
308.04	1.121	0.022
308.777	1.146	0.023
309.305	1.165	0.023
309.925	1.187	0.024
310.38	1.204	0.024
310.72	1.218	0.024
310.932	1.227	0.025

System: 1,4-dioxane + potassium chloride + water; phases: Liquid, Crystal
Fixed: Pressure, kPa = 101
Fixed: Mole fraction of 1,4-dioxane = 0.295
Property: Refractive index (Na D-line) (Liquid); method: Standard Abbe refractometry
Temperature, K	Refractive index (Na D-line)	uncertainty
303.315	1.3957	0.0004
304.483	1.3955	0.0004
305.658	1.3952	0.0004
306.078	1.3951	0.0004
306.706	1.395	0.0004
307.144	1.395	0.0004
307.267	1.3949	0.0004
307.579	1.3949	0.0004
307.79	1.3948	0.0004
308.039	1.3948	0.0004
308.198	1.3948	0.0004
308.289	1.3947	0.0004
308.708	1.3947	0.0004
309.305	1.3946	0.0004
309.395	1.3945	0.0004
309.781	1.3945	0.0004
309.929	1.3944	0.0004
310.193	1.3944	0.0004
310.412	1.3943	0.0004
310.649	1.3943	0.0004
310.72	1.3943	0.0004
310.829	1.3943	0.0004

System: 1,4-dioxane + potassium chloride + water; phases: Liquid mixture 1, Liquid mixture 2, Crystal
Fixed: Pressure, kPa = 101
Property: Refractive index (Na D-line) (Liquid mixture 1); method: Standard Abbe refractometry
Temperature, K	Refractive index (Na D-line)	uncertainty
311.054	1.3961	0.0004
311.11	1.3964	0.0004
311.165	1.3966	0.0004
311.235	1.3968	0.0004
311.319	1.397	0.0004
311.409	1.3972	0.0004
311.547	1.3974	0.0004
311.671	1.3975	0.0004
311.842	1.3977	0.0004
312.023	1.3978	0.0004
312.208	1.3978	0.0004
312.392	1.3978	0.0004
312.598	1.3979	0.0004
312.848	1.3979	0.0004
312.99	1.3979	0.0004
313.091	1.3979	0.0004
313.165	1.3979	0.0004
313.24	1.3979	0.0004
313.421	1.3979	0.0004
313.52	1.3979	0.0004
313.601	1.3979	0.0004
313.733	1.3978	0.0004
313.862	1.3978	0.0004
313.973	1.3978	0.0004
314.138	1.3978	0.0004
314.201	1.3978	0.0004
314.26	1.3978	0.0004
314.37	1.3978	0.0004
314.511	1.3977	0.0004
314.614	1.3977	0.0004
314.728	1.3977	0.0004
314.76	1.3977	0.0004
314.874	1.3977	0.0004
315.028	1.3976	0.0004
315.134	1.3976	0.0004
315.284	1.3976	0.0004
315.334	1.3975	0.0004
315.474	1.3975	0.0004
315.587	1.3975	0.0004
315.695	1.3975	0.0004
315.819	1.3974	0.0004
315.948	1.3974	0.0004
316.085	1.3973	0.0004
316.267	1.3973	0.0004
316.348	1.3973	0.0004
316.463	1.3972	0.0004
316.71	1.3971	0.0004
316.984	1.3971	0.0004
317.23	1.397	0.0004
317.407	1.3969	0.0004
317.65	1.3969	0.0004
317.843	1.3968	0.0004
318.021	1.3968	0.0004
318.153	1.3967	0.0004
318.268	1.3967	0.0004
318.5	1.3966	0.0004
318.579	1.3966	0.0004
318.799	1.3965	0.0004
319.028	1.3964	0.0004
319.285	1.3963	0.0004
319.463	1.3962	0.0004
319.63	1.3962	0.0004
319.893	1.3961	0.0004
320.095	1.396	0.0004
320.229	1.396	0.0004
320.526	1.3958	0.0004
320.739	1.3958	0.0004
320.915	1.3957	0.0004
321.041	1.3957	0.0004
321.281	1.3956	0.0004
321.63	1.3955	0.0004
321.838	1.3954	0.0004
321.936	1.3953	0.0004
322.243	1.3952	0.0004
322.56	1.3951	0.0004
322.935	1.3949	0.0004
323.38	1.3947	0.0004
323.664	1.3946	0.0004
323.815	1.3945	0.0004
324.13	1.3943	0.0004
324.392	1.3942	0.0004
324.641	1.3941	0.0004
324.768	1.394	0.0004
325.006	1.3939	0.0004
325.249	1.3938	0.0004
325.476	1.3937	0.0004

System: 1,4-dioxane + potassium chloride + water; phases: Liquid mixture 2, Liquid mixture 1, Crystal
Fixed: Pressure, kPa = 101
Property: Refractive index (Na D-line) (Liquid mixture 2); method: Standard Abbe refractometry
Temperature, K	Refractive index (Na D-line)	uncertainty
311.054	1.3935	0.0004
311.11	1.3932	0.0004
311.165	1.3929	0.0004
311.235	1.3926	0.0004
311.319	1.3923	0.0004
311.409	1.392	0.0004
311.547	1.3917	0.0004
311.671	1.3914	0.0004
311.842	1.3911	0.0004
312.023	1.3908	0.0004
312.208	1.3905	0.0004
312.392	1.3903	0.0004
312.598	1.3901	0.0004
312.848	1.3898	0.0004
312.99	1.3896	0.0004
313.091	1.3896	0.0004
313.165	1.3895	0.0004
313.24	1.3894	0.0004
313.421	1.3893	0.0004
313.52	1.3892	0.0004
313.601	1.3891	0.0004
313.733	1.389	0.0004
313.862	1.3889	0.0004
313.973	1.3888	0.0004
314.138	1.3887	0.0004
314.201	1.3887	0.0004
314.26	1.3886	0.0004
314.37	1.3886	0.0004
314.511	1.3885	0.0004
314.614	1.3884	0.0004
314.728	1.3883	0.0004
314.76	1.3883	0.0004
314.874	1.3882	0.0004
315.028	1.3881	0.0004
315.134	1.388	0.0004
315.284	1.3879	0.0004
315.334	1.3879	0.0004
315.474	1.3878	0.0004
315.587	1.3878	0.0004
315.695	1.3877	0.0004
315.819	1.3876	0.0004
315.948	1.3875	0.0004
316.085	1.3875	0.0004
316.267	1.3873	0.0004
316.348	1.3873	0.0004
316.463	1.3873	0.0004
316.71	1.3871	0.0004
316.984	1.387	0.0004
317.23	1.3869	0.0004
317.407	1.3868	0.0004
317.65	1.3866	0.0004
317.843	1.3865	0.0004
318.021	1.3864	0.0004
318.153	1.3864	0.0004
318.268	1.3863	0.0004
318.5	1.3862	0.0004
318.579	1.3862	0.0004
318.799	1.386	0.0004
319.028	1.3859	0.0004
319.285	1.3858	0.0004
319.463	1.3858	0.0004
319.63	1.3857	0.0004
319.893	1.3855	0.0004
320.095	1.3855	0.0004
320.229	1.3854	0.0004
320.526	1.3853	0.0004
320.739	1.3852	0.0004
320.915	1.3851	0.0004
321.041	1.385	0.0004
321.281	1.3849	0.0004
321.63	1.3848	0.0004
321.838	1.3847	0.0004
321.936	1.3846	0.0004
322.243	1.3845	0.0004
322.56	1.3844	0.0004
322.935	1.3842	0.0004
323.38	1.384	0.0004
323.664	1.3839	0.0004
323.815	1.3838	0.0004
324.13	1.3837	0.0004
324.392	1.3836	0.0004
324.641	1.3835	0.0004
324.768	1.3835	0.0004
325.006	1.3834	0.0004
325.249	1.3833	0.0004
325.476	1.3832	0.0004
