Measured thermophysical data. Measurements and Correlation of High-Pressure Densities of Imidazolium-Based Ionic Liquids
Source: J. Chem. Eng. Data, 2008, 10.1021/je800316b
Compound 1: 1-ethyl-3-methylimidazolium methylsulfate, C7H14N2O4S, InChI=1S/C6H11N2.CH4O4S/c1-3-8-5-4-7(2)6-8;1-5-6(2,3)4/h4-6H,3H2,1-2H3;1H3,(H,2,3,4)/q+1;/p-1, purity 99%
Compound 2: 1-ethyl-3-methylimidazolium ethyl sulfate, C8H16N2O4S, InChI=1S/C6H11N2.C2H6O4S/c1-3-8-5-4-7(2)6-8;1-2-6-7(3,4)5/h4-6H,3H2,1-2H3;2H2,1H3,(H,3,4,5)/q+1;/p-1, purity 99%
Compound 3: 1,3-diethylimidazolium bis[(trifluoromethyl)sulfonyl]imide, C9H13F6N3O4S2, InChI=1S/C7H13N2.C2F6NO4S2/c1-3-8-5-6-9(4-2)7-8;3-1(4,5)14(10,11)9-15(12,13)2(6,7)8/h5-7H,3-4H2,1-2H3;/q+1;-1, purity 99%
Compound 4: 1-decyl-3-methylimidazolium bis(trifluoromethylsulfonyl)amide, C16H27F6N3O4S2, InChI=1S/C14H27N2.C2F6NO4S2/c1-3-4-5-6-7-8-9-10-11-16-13-12-15(2)14-16;3-1(4,5)14(10,11)9-15(12,13)2(6,7)8/h12-14H,3-11H2,1-2H3;/q+1;-1, purity 99%

System: 1-ethyl-3-methylimidazolium methylsulfate; phases: Liquid
Property: Mass density, kg/m3 (Liquid); method: VIBTUB:UFactor:8
Temperature, K	Pressure, kPa	Mass density, kg/m3	uncertainty
293.15	100	1292.1	2.4
293.15	2500	1293	2.5
293.15	5000	1294	2.7
293.15	7500	1295	2.8
293.15	10000	1296	3
293.15	15000	1298	3.3
293.15	20000	1299.9	3.7
293.15	25000	1301.8	4
293.15	30000	1303.7	4.4
293.15	35000	1305.6	4.9
298.15	100	1288	2.4
298.15	2500	1289.1	2.5
298.15	5000	1290.1	2.7
298.15	7500	1291.1	2.8
298.15	10000	1292.1	3
298.15	15000	1294.1	3.3
298.15	20000	1296.1	3.6
298.15	25000	1298	4
298.15	30000	1300	4.4
298.15	35000	1301.9	4.8
303.15	100	1283.3	2.4
303.15	2500	1284.3	2.5
303.15	5000	1285.4	2.6
303.15	7500	1286.4	2.8
303.15	10000	1287.4	2.9
303.15	15000	1289.5	3.3
303.15	20000	1291.4	3.6
303.15	25000	1293.4	4
303.15	30000	1295.3	4.4
303.15	35000	1297.3	4.8
313.15	100	1276.6	2.4
313.15	2500	1277.8	2.5
313.15	5000	1278.9	2.6
313.15	7500	1279.9	2.8
313.15	10000	1281	2.9
313.15	15000	1283	3.2
313.15	20000	1285.1	3.6
313.15	25000	1287.1	3.9
313.15	30000	1289.1	4.3
313.15	35000	1291.1	4.7
333.15	100	1260.9	2.4
333.15	2500	1262.3	2.5
333.15	5000	1263.4	2.6
333.15	7500	1264.5	2.7
333.15	10000	1265.6	2.8
333.15	15000	1267.8	3.1
333.15	20000	1269.9	3.4
333.15	25000	1272	3.8
333.15	30000	1274	4.1
333.15	35000	1276.1	4.5
353.15	100	1245.5	2.3
353.15	2500	1247.5	2.4
353.15	5000	1248.7	2.5
353.15	7500	1249.9	2.7
353.15	10000	1251.1	2.8
353.15	15000	1253.4	3.1
353.15	20000	1255.6	3.3
353.15	25000	1257.8	3.7
353.15	30000	1260	4
353.15	35000	1262.2	4.3
373.15	100	1231.4	2.3
373.15	2500	1232.8	2.4
373.15	5000	1234	2.5
373.15	7500	1235.2	2.6
373.15	10000	1236.4	2.7
373.15	15000	1238.8	3
373.15	20000	1241.2	3.2
373.15	25000	1243.5	3.5
373.15	30000	1245.7	3.9
373.15	35000	1248	4.2
393.15	100	1218.1	2.3
393.15	2500	1219.2	2.4
393.15	5000	1220.5	2.5
393.15	7500	1221.8	2.6
393.15	10000	1223.1	2.7
393.15	15000	1225.5	2.9
393.15	20000	1227.9	3.2
393.15	25000	1230.3	3.4
393.15	30000	1232.6	3.7
393.15	35000	1234.9	4

System: 1-ethyl-3-methylimidazolium ethyl sulfate; phases: Liquid
Property: Mass density, kg/m3 (Liquid); method: VIBTUB:UFactor:8
Temperature, K	Pressure, kPa	Mass density, kg/m3	uncertainty
293.15	100	1246.9	2.3
293.15	2500	1249	2.4
293.15	5000	1250.2	2.5
293.15	7500	1251.3	2.7
293.15	10000	1252.3	2.8
293.15	15000	1254.3	3.1
293.15	20000	1256.5	3.4
293.15	25000	1258.5	3.7
293.15	30000	1260.5	4
293.15	35000	1262.4	4.3
298.15	100	1244.3	2.3
298.15	2500	1245.2	2.4
298.15	5000	1246.3	2.5
298.15	7500	1247.4	2.6
298.15	10000	1248.4	2.8
298.15	15000	1250.6	3
298.15	20000	1252.7	3.3
298.15	25000	1254.8	3.6
298.15	30000	1256.6	4
298.15	35000	1258.7	4.3
303.15	100	1240.8	2.3
303.15	2500	1241.6	2.4
303.15	5000	1242.7	2.5
303.15	7500	1243.8	2.6
303.15	10000	1244.9	2.8
303.15	15000	1247	3
303.15	20000	1249.1	3.3
303.15	25000	1251.1	3.6
303.15	30000	1253.2	3.9
303.15	35000	1255.2	4.3
313.15	100	1233.1	2.3
313.15	2500	1234	2.4
313.15	5000	1235.1	2.5
313.15	7500	1236.2	2.6
313.15	10000	1237.3	2.7
313.15	15000	1239.5	3
313.15	20000	1241.6	3.2
313.15	25000	1243.7	3.5
313.15	30000	1245.8	3.8
313.15	35000	1247.9	4.2
333.15	100	1218.3	2.3
333.15	2500	1219.2	2.4
333.15	5000	1220.4	2.5
333.15	7500	1221.6	2.6
333.15	10000	1222.7	2.7
333.15	15000	1225	2.9
333.15	20000	1227.2	3.1
333.15	25000	1229.3	3.4
333.15	30000	1231.5	3.7
333.15	35000	1233.6	4
353.15	100	1204.2	2.3
353.15	2500	1205.3	2.3
353.15	5000	1206.6	2.4
353.15	7500	1207.8	2.5
353.15	10000	1209	2.6
353.15	15000	1211.4	2.8
353.15	20000	1213.8	3.1
353.15	25000	1216.1	3.3
353.15	30000	1218.4	3.6
353.15	35000	1220.6	3.9
373.15	100	1190.1	2.3
373.15	2500	1191.3	2.3
373.15	5000	1192.6	2.4
373.15	7500	1193.9	2.5
373.15	10000	1195.2	2.6
373.15	15000	1197.7	2.8
373.15	20000	1200.2	3
373.15	25000	1202.6	3.2
373.15	30000	1204.9	3.5
373.15	35000	1207.3	3.7
393.15	100	1176.6	2.2
393.15	2500	1178	2.3
393.15	5000	1179.3	2.4
393.15	7500	1180.7	2.4
393.15	10000	1182	2.5
393.15	15000	1184.6	2.7
393.15	20000	1187.2	2.9
393.15	25000	1189.7	3.1
393.15	30000	1192.2	3.3
393.15	35000	1194.6	3.6

System: 1,3-diethylimidazolium bis[(trifluoromethyl)sulfonyl]imide; phases: Liquid
Property: Mass density, kg/m3 (Liquid); method: VIBTUB:UFactor:8
Temperature, K	Pressure, kPa	Mass density, kg/m3	uncertainty
293.15	100	1469.2	2.8
293.15	2500	1471.1	3
293.15	5000	1473.1	3.3
293.15	7500	1475	3.6
293.15	10000	1476.9	3.9
293.15	15000	1480.8	4.5
293.15	20000	1484.2	5.2
293.15	25000	1487.9	6
293.15	30000	1491.5	6.8
293.15	35000	1495.2	7.6
298.15	100	1463.2	2.8
298.15	2500	1465.5	3
298.15	5000	1467.6	3.3
298.15	7500	1469.5	3.6
298.15	10000	1471.4	3.8
298.15	15000	1475.3	4.5
298.15	20000	1479	5.1
298.15	25000	1482.5	5.9
298.15	30000	1486.1	6.7
298.15	35000	1489.5	7.5
303.15	100	1457.7	2.8
303.15	2500	1460.1	3
303.15	5000	1462.1	3.3
303.15	7500	1463.9	3.5
303.15	10000	1466.1	3.8
303.15	15000	1469.8	4.4
303.15	20000	1473.6	5.1
303.15	25000	1477.1	5.9
303.15	30000	1480.9	6.6
303.15	35000	1484.3	7.4
313.15	100	1447.3	2.7
313.15	2500	1449.6	3
313.15	5000	1451.6	3.2
313.15	7500	1453.7	3.5
313.15	10000	1455.8	3.8
313.15	15000	1459.7	4.3
313.15	20000	1463.5	5
313.15	25000	1467.2	5.7
313.15	30000	1470.9	6.5
313.15	35000	1474.6	7.3
333.15	100	1425.7	2.7
333.15	2500	1428.2	2.9
333.15	5000	1430.4	3.1
333.15	7500	1432.6	3.4
333.15	10000	1434.8	3.7
333.15	15000	1439.1	4.2
333.15	20000	1443.2	4.8
333.15	25000	1447.2	5.5
333.15	30000	1450.9	6.3
333.15	35000	1454.8	7
353.15	100	1404.5	2.7
353.15	2500	1407.5	2.8
353.15	5000	1409.9	3.1
353.15	7500	1412.2	3.3
353.15	10000	1414.5	3.6
353.15	15000	1419	4.1
353.15	20000	1423.4	4.6
353.15	25000	1427.5	5.3
353.15	30000	1431.6	6
353.15	35000	1435.6	6.7
373.15	100	1384.1	2.6
373.15	2500	1386.9	2.8
373.15	5000	1389.5	3
373.15	7500	1391.9	3.2
373.15	10000	1394.4	3.5
373.15	15000	1399.1	4
373.15	20000	1403.7	4.5
373.15	25000	1408.1	5.1
373.15	30000	1412.4	5.8
373.15	35000	1416.7	6.5
393.15	100	1364.2	2.6
393.15	2500	1367.2	2.7
393.15	5000	1369.9	2.9
393.15	7500	1372.5	3.1
393.15	10000	1375.1	3.4
393.15	15000	1380.2	3.8
393.15	20000	1384.9	4.3
393.15	25000	1389.6	4.9
393.15	30000	1394.3	5.5
393.15	35000	1398.6	6.2

System: 1-decyl-3-methylimidazolium bis(trifluoromethylsulfonyl)amide; phases: Liquid
Property: Mass density, kg/m3 (Liquid); method: VIBTUB:UFactor:8
Temperature, K	Pressure, kPa	Mass density, kg/m3	uncertainty
293.15	100	1282.4	2.4
293.15	2500	1285.6	2.5
293.15	5000	1287.4	2.7
293.15	7500	1289.3	2.8
293.15	10000	1291.1	3
293.15	15000	1294.6	3.3
293.15	20000	1298.1	3.7
293.15	25000	1301.4	4
293.15	30000	1304.7	4.5
293.15	35000	1308	4.9
298.15	100	1278	2.4
298.15	2500	1280.8	2.5
298.15	5000	1282.7	2.6
298.15	7500	1284.6	2.8
298.15	10000	1286.4	2.9
298.15	15000	1290	3.3
298.15	20000	1293.5	3.6
298.15	25000	1297	4
298.15	30000	1300.3	4.4
298.15	35000	1303.6	4.8
303.15	100	1273.6	2.4
303.15	2500	1276.4	2.5
303.15	5000	1278.3	2.6
303.15	7500	1280.3	2.8
303.15	10000	1282.1	2.9
303.15	15000	1285.8	3.2
303.15	20000	1289.4	3.6
303.15	25000	1292.9	4
303.15	30000	1296.3	4.4
303.15	35000	1299.6	4.8
313.15	100	1265.3	2.4
313.15	2500	1267.3	2.5
313.15	5000	1269.3	2.6
313.15	7500	1271.3	2.7
313.15	10000	1273.2	2.9
313.15	15000	1277	3.2
313.15	20000	1280.7	3.5
313.15	25000	1284.2	3.9
313.15	30000	1287.7	4.3
313.15	35000	1291.1	4.7
333.15	100	1245.5	2.3
333.15	2500	1247.7	2.4
333.15	5000	1249.8	2.5
333.15	7500	1251.9	2.7
333.15	10000	1254	2.8
333.15	15000	1258	3.1
333.15	20000	1261.9	3.4
333.15	25000	1265.7	3.7
333.15	30000	1269.4	4.1
333.15	35000	1273	4.5
353.15	100	1228.6	2.3
353.15	2500	1230.9	2.4
353.15	5000	1233.2	2.5
353.15	7500	1235.5	2.6
353.15	10000	1237.6	2.7
353.15	15000	1242	3
353.15	20000	1246.2	3.3
353.15	25000	1250.2	3.6
353.15	30000	1254.1	3.9
353.15	35000	1257.9	4.3
373.15	100	1209.6	2.3
373.15	2500	1212.4	2.4
373.15	5000	1214.8	2.4
373.15	7500	1217.3	2.5
373.15	10000	1219.6	2.7
373.15	15000	1224.2	2.9
373.15	20000	1228.6	3.2
373.15	25000	1232.9	3.5
373.15	30000	1237	3.8
373.15	35000	1241.1	4.1
393.15	100	1191.8	2.3
393.15	2500	1195.8	2.3
393.15	5000	1198.3	2.4
393.15	7500	1200.9	2.5
393.15	10000	1203.4	2.6
393.15	15000	1208.2	2.8
393.15	20000	1212.8	3.1
393.15	25000	1217.3	3.3
393.15	30000	1221.7	3.6
393.15	35000	1225.9	3.9
