Measured thermophysical data. Vapor-Liquid Equilibria of the 1,1,1,2,3,3,3-Heptafluoropropane + Isobutene System
Source: J. Chem. Eng. Data, 2008, 10.1021/je800591u
Compound 1: 1,1,1,2,3,3,3-heptafluoropropane, C3HF7, InChI=1S/C3HF7/c4-1(2(5,6)7)3(8,9)10/h1H
Compound 2: 2-methylpropene, C4H8, InChI=1S/C4H8/c1-4(2)3/h1H2,2-3H3

System: 1,1,1,2,3,3,3-heptafluoropropane; phases: Liquid, Gas
Property: Vapor or sublimation pressure, kPa (Liquid); method: Ebulliometric method (Recirculating still)
Temperature, K	Vapor or sublimation pressure, kPa	uncertainty
288.15	335	14
303.15	529	14
318.15	804	14
333.15	1176	15
348.15	1664	16
363.15	2294	17

System: 2-methylpropene; phases: Liquid, Gas
Property: Vapor or sublimation pressure, kPa (Liquid); method: Ebulliometric method (Recirculating still)
Temperature, K	Vapor or sublimation pressure, kPa	uncertainty
288.15	223	14
303.15	352	14
318.15	536	14
333.15	785	14
348.15	1107	15
363.15	1515	15

System: 2-methylpropene + 1,1,1,2,3,3,3-heptafluoropropane; phases: Liquid, Gas
Property: Azeotropic pressure, kPa (Liquid); method: By X=Y
Temperature, K	Azeotropic pressure, kPa	uncertainty
288.15	369	2
303.15	575	4
318.15	866	5
333.15	1251	8
348.15	1753	11
363.15	2402	15

System: 2-methylpropene + 1,1,1,2,3,3,3-heptafluoropropane; phases: Liquid, Gas
Property: Azeotropic composition: mole fraction of 1,1,1,2,3,3,3-heptafluoropropane (Liquid); method: By X=Y
Temperature, K	Azeotropic composition: mole fraction of 1,1,1,2,3,3,3-heptafluoropropane	uncertainty
288.15	0.689	0.005
303.15	0.697	0.005
318.15	0.708	0.005
333.15	0.722	0.004
348.15	0.741	0.004
363.15	0.757	0.004

System: 2-methylpropene + 1,1,1,2,3,3,3-heptafluoropropane; phases: Liquid, Gas
Property: Vapor or sublimation pressure, kPa (Liquid); method: Ebulliometric method (Recirculating still)
Mole fraction of 1,1,1,2,3,3,3-heptafluoropropane	Temperature, K	Vapor or sublimation pressure, kPa	uncertainty
0	288.15	223	14
0	303.15	352	14
0	318.15	536	14
0	333.15	785	14
0	348.15	1107	15
0	363.15	1515	15
0.0205	303.15	383	15
0.0315	363.15	1619	26
0.0354	333.15	857	21
0.0433	348.15	1215	22
0.0544	288.15	264	15
0.06	318.15	622	19
0.0611	303.15	418	15
0.0764	288.15	276	14
0.0787	333.15	923	19
0.0941	348.15	1310	19
0.0948	318.15	660	16
0.1069	363.15	1799	24
0.1282	303.15	461	15
0.131	333.15	989	16
0.1343	288.15	298	14
0.15	318.15	705	15
0.1712	363.15	1925	20
0.1785	348.15	1432	18
0.2121	288.15	321	14
0.257	303.15	512	14
0.2666	333.15	1105	16
0.2776	318.15	776	15
0.3119	363.15	2123	19
0.3436	348.15	1596	17
0.3714	288.15	349	14
0.3939	318.15	817	15
0.4046	333.15	1178	16
0.4375	303.15	552	14
0.4496	348.15	1667	16
0.4591	363.15	2276	18
0.4949	318.15	841	15
0.4995	333.15	1212	15
0.5154	288.15	363	14
0.5637	363.15	2348	17
0.5707	348.15	1720	16
0.5793	333.15	1233	15
0.5832	303.15	569	14
0.592	318.15	856	15
0.65	318.15	862	15
0.6552	348.15	1744	16
0.6661	303.15	573	14
0.6702	363.15	2389	17
0.6747	333.15	1248	15
0.6823	288.15	369	14
0.709	348.15	1750	16
0.7142	318.15	864	15
0.7354	333.15	1250	15
0.738	303.15	574	14
0.7503	288.15	369	14
0.7639	363.15	2401	17
0.7642	348.15	1751	16
0.7809	333.15	1248	15
0.8086	318.15	861	15
0.8203	348.15	1747	16
0.8234	288.15	363	14
0.8265	303.15	570	14
0.8278	363.15	2395	17
0.8749	348.15	1735	16
0.8792	363.15	2378	18
0.8961	333.15	1232	15
0.899	318.15	848	15
0.9035	303.15	560	14
0.9192	348.15	1721	16
1	288.15	335	14
1	303.15	529	14
1	318.15	804	14
1	333.15	1176	15
1	348.15	1664	16
1	363.15	2294	17

System: 2-methylpropene + 1,1,1,2,3,3,3-heptafluoropropane; phases: Gas, Liquid
Property: Mole fraction of 1,1,1,2,3,3,3-heptafluoropropane (Gas); method: Chromatography
Mole fraction of 1,1,1,2,3,3,3-heptafluoropropane	Temperature, K	Mole fraction of 1,1,1,2,3,3,3-heptafluoropropane	uncertainty
0.0205	303.15	0.068	0.022
0.0315	363.15	0.0773	0.0152
0.0354	333.15	0.0742	0.0178
0.0433	348.15	0.1057	0.0171
0.0544	288.15	0.1727	0.0204
0.06	318.15	0.1548	0.0159
0.0611	303.15	0.1714	0.017
0.0764	288.15	0.2242	0.0161
0.0787	333.15	0.1656	0.0177
0.0941	348.15	0.192	0.0138
0.0948	318.15	0.2131	0.0139
0.1069	363.15	0.1991	0.0141
0.1282	303.15	0.2772	0.0124
0.131	333.15	0.259	0.0124
0.1343	288.15	0.3146	0.0128
0.15	318.15	0.2829	0.0112
0.1712	363.15	0.2761	0.0114
0.1785	348.15	0.2965	0.0115
0.2121	288.15	0.3895	0.0109
0.257	303.15	0.4038	0.0108
0.2666	333.15	0.3932	0.0111
0.2776	318.15	0.3939	0.011
0.3119	363.15	0.4001	0.011
0.3436	348.15	0.4391	0.011
0.3714	288.15	0.5117	0.0106
0.3939	318.15	0.4926	0.0107
0.4046	333.15	0.4972	0.0108
0.4375	303.15	0.526	0.0104
0.4496	348.15	0.5167	0.0107
0.4591	363.15	0.5146	0.011
0.4949	318.15	0.5479	0.0099
0.4995	333.15	0.5597	0.0104
0.5154	288.15	0.5971	0.0098
0.5637	363.15	0.5942	0.0107
0.5707	348.15	0.601	0.0105
0.5793	333.15	0.6148	0.0103
0.5832	303.15	0.6154	0.0101
0.592	318.15	0.6009	0.0104
0.65	318.15	0.6607	0.0111
0.6552	348.15	0.6661	0.0105
0.6661	303.15	0.6736	0.0103
0.6702	363.15	0.6764	0.0106
0.6747	333.15	0.6822	0.0102
0.6823	288.15	0.6839	0.0097
0.709	348.15	0.7053	0.0105
0.7142	318.15	0.7078	0.0108
0.7354	333.15	0.7267	0.0105
0.738	303.15	0.7277	0.0106
0.7503	288.15	0.7371	0.0105
0.7639	363.15	0.7549	0.0107
0.7642	348.15	0.7512	0.0107
0.7809	333.15	0.7663	0.0113
0.8086	318.15	0.796	0.0111
0.8203	348.15	0.7983	0.0108
0.8234	288.15	0.7975	0.0105
0.8265	303.15	0.8032	0.011
0.8278	363.15	0.8094	0.0107
0.8749	348.15	0.8492	0.0112
0.8792	363.15	0.8551	0.0108
0.8961	333.15	0.8795	0.0111
0.899	318.15	0.8798	0.0109
0.9035	303.15	0.8791	0.0113
0.9192	348.15	0.8923	0.0112
