Measured thermophysical data. Study of Interactions between Amino Acids and Zinc Chloride in Aqueous Solutions through Volumetric Measurements at T ) (288.15 to 318.15) K
Source: J. Chem. Eng. Data, 2008, 10.1021/je8001464
Compound 1: 2-aminoacetic acid, C2H5NO2, InChI=1S/C2H5NO2/c3-1-2(4)5/h1,3H2,(H,4,5)
Compound 2: DL-2-aminopropanoic acid, C3H7NO2, InChI=1S/C3H7NO2/c1-2(4)3(5)6/h2H,4H2,1H3,(H,5,6)
Compound 3: (.+-.)-.alpha.-aminobutyric acid, C4H9NO2, InChI=1S/C4H9NO2/c1-2-3(5)4(6)7/h3H,2,5H2,1H3,(H,6,7)
Compound 4: L-valine, C5H11NO2, InChI=1S/C5H11NO2/c1-3(2)4(6)5(7)8/h3-4H,6H2,1-2H3,(H,7,8)/t4-/m0/s1
Compound 5: L-leucine, C6H13NO2, InChI=1S/C6H13NO2/c1-4(2)3-5(7)6(8)9/h4-5H,3,7H2,1-2H3,(H,8,9)/t5-/m0/s1
Compound 6: water, H2O, InChI=1S/H2O/h1H2
Compound 7: zinc chloride, Cl2Zn, InChI=1S/2ClH.Zn/h2*1H;/q;;+2/p-2

System: 2-aminoacetic acid + water; phases: Liquid
Fixed: Pressure, kPa = 101
Property: Mass density, kg/m3 (Liquid); method: VIBTUB:UFactor:4
Temperature, K	Molality, mol/kg of 2-aminoacetic acid	Mass density, kg/m3	uncertainty
288.15	0.07326	1001.512	0.169
288.15	0.14584	1003.852	0.174
288.15	0.23257	1006.629	0.18
288.15	0.28243	1008.213	0.183
288.15	0.32774	1009.639	0.186
288.15	0.43706	1013.065	0.194
298.15	0.07547	999.434	0.172
298.15	0.15357	1001.881	0.171
298.15	0.25279	1004.96	0.177
298.15	0.30202	1006.469	0.181
298.15	0.34694	1007.838	0.184
298.15	0.45933	1011.252	0.189
308.15	0.07746	993.053	0.177
308.15	0.15072	995.322	0.176
308.15	0.25338	998.473	0.171
308.15	0.30173	999.939	0.168
308.15	0.34658	1001.291	0.169
308.15	0.45862	1004.653	0.181
318.15	0.0783	992.665	0.18
318.15	0.15253	994.942	0.176
318.15	0.2564	998.093	0.17
318.15	0.30906	999.679	0.167
318.15	0.36556	1001.362	0.169
318.15	0.4809	1004.79	0.177

System: zinc chloride + water; phases: Liquid
Fixed: Pressure, kPa = 101
Property: Mass density, kg/m3 (Liquid); method: VIBTUB:UFactor:12
Temperature, K	Molality, mol/kg of zinc chloride	Mass density, kg/m3	uncertainty
288.15	0.1	1011.641	0.567
288.15	0.5	1058.861	0.858
288.15	1	1113.881	1.208
288.15	1.5	1160.53	1.517
298.15	0.1	1009.376	0.553
298.15	0.5	1055.445	0.837
298.15	1	1106.551	1.164
298.15	1.5	1152.82	1.469
308.15	0.1	1005.927	0.531
308.15	0.5	1047.95	0.791
308.15	1	1097.59	1.109
308.15	1.5	1142.537	1.406
318.15	0.1	1002.031	0.507
318.15	0.5	1043.286	0.763
318.15	1	1090.831	1.067
318.15	1.5	1135.272	1.361

System: 2-aminoacetic acid + zinc chloride + water; phases: Liquid
Fixed: Pressure, kPa = 101
Property: Mass density, kg/m3 (Liquid); method: VIBTUB:UFactor:12
Temperature, K	Molality, mol/kg of 2-aminoacetic acid	Solvent: Molality, mol/kg of zinc chloride	Mass density, kg/m3	uncertainty
288.15	0.05547	1.5	1161.833	1.829
288.15	0.06663	0.1	1013.656	0.843
288.15	0.11002	0.5	1061.984	1.164
288.15	0.12123	1	1117.02	1.53
288.15	0.1304	0.1	1015.57	0.856
288.15	0.18534	1	1118.66	1.541
288.15	0.18617	1.5	1164.862	1.849
288.15	0.22574	0.5	1065.224	1.185
288.15	0.24609	0.1	1019.008	0.879
288.15	0.31256	0.5	1067.624	1.201
288.15	0.3126	1	1121.875	1.562
288.15	0.33435	1.5	1168.237	1.872
288.15	0.36244	0.1	1022.423	0.901
288.15	0.39769	0.1	1023.439	0.908
288.15	0.4181	0.5	1070.508	1.22
288.15	0.43625	1.5	1170.513	1.887
288.15	0.44819	1	1125.235	1.585
288.15	0.4826	0.1	1025.895	0.924
288.15	0.50466	0.5	1072.842	1.235
288.15	0.54264	1.5	1172.846	1.903
288.15	0.55541	0.5	1074.202	1.245
288.15	0.57973	1	1128.444	1.606
288.15	0.59038	1.5	1173.874	1.91
288.15	0.62616	1	1129.55	1.613
298.15	0.08772	1.5	1154.756	1.782
298.15	0.10403	0.5	1058.242	1.139
298.15	0.11677	0.1	1012.715	0.837
298.15	0.13249	1	1109.796	1.482
298.15	0.18543	1	1111.085	1.49
298.15	0.19879	0.1	1015.033	0.852
298.15	0.22742	1.5	1157.793	1.802
298.15	0.29186	0.1	1017.652	0.87
298.15	0.3126	1	1114.128	1.511
298.15	0.33435	1.5	1160.074	1.818
298.15	0.36099	0.5	1065.01	1.184
298.15	0.39549	0.5	1065.916	1.19
298.15	0.43625	1.5	1162.245	1.832
298.15	0.44819	1	1117.311	1.532
298.15	0.45605	0.5	1067.467	1.2
298.15	0.46809	0.1	1022.506	0.902
298.15	0.56213	0.5	1070.148	1.218
298.15	0.57973	1	1120.329	1.552
298.15	0.61351	1.5	1165.859	1.856
298.15	0.64058	1	1121.716	1.561
298.15	0.64155	1.5	1166.416	1.86
298.15	0.663	0.1	1027.786	0.937
298.15	0.67266	0.5	1072.919	1.245
298.15	0.67684	0.5	1073.019	1.246
298.15	0.78829	0.1	1031.105	0.959
308.15	0.05053	1.5	1143.564	1.73
308.15	0.0506	1	1098.768	1.408
308.15	0.05247	0.5	1049.303	1.08
308.15	0.06666	0.1	1007.761	0.804
308.15	0.10056	0.5	1050.534	1.088
308.15	0.10486	1.5	1144.655	1.714
308.15	0.1304	0.1	1009.5	0.816
308.15	0.13249	1	1100.651	1.421
308.15	0.18412	0.5	1052.652	1.102
308.15	0.18533	1	1101.842	1.429
308.15	0.21551	1.5	1146.849	1.729
308.15	0.24609	0.1	1012.627	0.837
308.15	0.27804	0.5	1054.988	1.118
308.15	0.3005	1.5	1148.495	1.74
308.15	0.3126	1	1104.697	1.448
308.15	0.36244	0.1	1015.727	0.857
308.15	0.39769	0.1	1016.651	0.863
308.15	0.39769	0.5	1057.929	1.137
308.15	0.40299	1.5	1150.464	1.753
308.15	0.43611	0.1	1017.652	0.87
308.15	0.43611	0.5	1058.847	1.143
308.15	0.44819	1	1107.681	1.468
308.15	0.50561	1.5	1152.404	1.766
308.15	0.57973	1	1110.495	1.487
318.15	0.05313	0.5	1044.603	1.049
318.15	0.06448	1	1092.258	1.365
318.15	0.06666	0.1	1003.811	0.778
318.15	0.08772	1.5	1136.963	1.663
318.15	0.10403	0.5	1045.854	1.056
318.15	0.1304	0.1	1005.497	0.79
318.15	0.13249	1	1093.747	1.375
318.15	0.18533	1	1094.891	1.382
318.15	0.22743	1.5	1139.613	1.681
318.15	0.24609	0.1	1008.52	0.81
318.15	0.3126	1	1097.616	1.401
318.15	0.33435	1.5	1141.597	1.694
318.15	0.36099	0.5	1052.06	1.101
318.15	0.36244	0.1	1011.514	0.829
318.15	0.39549	0.5	1052.867	1.104
318.15	0.43625	1.5	1143.463	1.706
318.15	0.44819	1	1100.475	1.42
318.15	0.45384	0.1	1013.83	0.845
318.15	0.45605	0.5	1054.282	1.113
318.15	0.52003	0.1	1015.501	0.856
318.15	0.54311	1	1102.439	1.433
318.15	0.54445	0.1	1016.113	0.86
318.15	0.56213	0.5	1056.755	1.129
318.15	0.61351	1.5	1146.649	1.728
318.15	0.64741	1.5	1147.237	1.732

System: DL-2-aminopropanoic acid + zinc chloride + water; phases: Liquid
Fixed: Pressure, kPa = 101
Property: Mass density, kg/m3 (Liquid); method: VIBTUB:UFactor:12
Temperature, K	Molality, mol/kg of DL-2-aminopropanoic acid	Solvent: Molality, mol/kg of zinc chloride	Mass density, kg/m3	uncertainty
288.15	0.04682	1.5	1161.328	1.826
288.15	0.05102	0.5	1060.093	1.151
288.15	0.05398	1	1115.007	1.518
288.15	0.05564	0	1000.747	0.758
288.15	0.06032	0.1	1013.282	0.841
288.15	0.10087	0	1002.052	0.767
288.15	0.10237	1	1116.005	1.523
288.15	0.10343	0.1	1014.444	0.849
288.15	0.10376	0.5	1061.353	1.159
288.15	0.15673	1.5	1163.173	1.838
288.15	0.16819	0	1003.978	0.779
288.15	0.17327	0.1	1016.31	0.861
288.15	0.19284	1	1117.851	1.535
288.15	0.1979	0.5	1063.578	1.174
288.15	0.22567	0	1005.607	0.79
288.15	0.26621	1.5	1164.976	1.85
288.15	0.29035	1	1119.809	1.548
288.15	0.29557	0.1	1019.537	0.882
288.15	0.29729	0.5	1065.89	1.189
288.15	0.31414	0	1008.092	0.807
288.15	0.36431	0	1009.483	0.816
288.15	0.36449	1.5	1166.555	1.861
288.15	0.37792	1	1121.536	1.56
288.15	0.40428	0.1	1022.362	0.901
288.15	0.41255	0.5	1068.525	1.207
288.15	0.44515	0.5	1069.257	1.211
288.15	0.45462	1.5	1167.964	1.87
288.15	0.46157	0.1	1023.817	0.91
288.15	0.46615	1	1123.253	1.571
288.15	0.528	1.5	1169.106	1.878
298.15	0.05593	0	998.652	0.763
298.15	0.05684	0.1	1010.868	0.825
298.15	0.09382	1	1108.392	1.473
298.15	0.09583	1.5	1154.34	1.779
298.15	0.09675	0.5	1057.696	1.136
298.15	0.09966	0.1	1011.982	0.832
298.15	0.10173	0	999.953	0.754
298.15	0.15553	1	1109.584	1.48
298.15	0.17053	0	1001.892	0.766
298.15	0.17965	1.5	1155.646	1.788
298.15	0.21691	0.5	1060.444	1.153
298.15	0.21969	0.1	1015.07	0.853
298.15	0.22628	0	1003.443	0.776
298.15	0.23392	1.5	1156.494	1.794
298.15	0.25937	0.5	1061.408	1.16
298.15	0.29949	1	1112.338	1.499
298.15	0.31414	0	1005.855	0.792
298.15	0.36909	0	1007.348	0.802
298.15	0.37919	1.5	1158.66	1.808
298.15	0.38125	0.5	1064.123	1.178
298.15	0.40998	1	1114.391	1.512
298.15	0.42365	0.1	1020.2	0.887
298.15	0.43456	1.5	1159.497	1.814
298.15	0.44962	0	1009.523	0.816
298.15	0.45968	0.5	1065.836	1.189
298.15	0.47064	1	1115.487	1.52
298.15	0.53484	0.1	1022.967	0.905
298.15	0.55102	1	1116.923	1.529
298.15	0.60593	0.5	1068.975	1.21
298.15	0.63443	1.5	1162.346	1.833
298.15	0.63752	0.1	1025.425	0.921
298.15	0.72149	1	1119.939	1.549
308.15	0.05038	1	1098.559	1.407
308.15	0.05271	1.5	1143.352	1.705
308.15	0.05401	0.5	1049.18	1.079
308.15	0.05765	0	992.26	0.796
308.15	0.06032	0.1	1007.469	0.804
308.15	0.10343	0.1	1008.558	0.81
308.15	0.10376	0.5	1050.299	1.086
308.15	0.1061	0	993.618	0.788
308.15	0.10863	1.5	1144.203	1.711
308.15	0.14848	1	1100.414	1.419
308.15	0.17327	0.1	1010.308	0.821
308.15	0.18686	0	995.856	0.776
308.15	0.1979	0.5	1052.389	1.1
308.15	0.2026	1.5	1145.598	1.721
308.15	0.20811	1	1101.522	1.427
308.15	0.24133	0	997.342	0.768
308.15	0.26529	1	1102.554	1.433
308.15	0.29557	0.1	1013.323	0.841
308.15	0.29729	0.5	1054.562	1.114
308.15	0.29917	1.5	1147.01	1.73
308.15	0.32885	1	1103.699	1.441
308.15	0.3337	0	999.847	0.754
308.15	0.36909	0	1000.796	0.758
308.15	0.39023	1	1104.786	1.448
308.15	0.40428	0.1	1015.958	0.859
308.15	0.40663	1.5	1148.549	1.74
308.15	0.41255	0.5	1057.037	1.131
308.15	0.44616	0.5	1057.744	1.136
308.15	0.46157	0.1	1017.323	0.867
308.15	0.4875	0	1003.946	0.779
308.15	0.49406	1.5	1149.776	1.748
318.15	0.05406	1.5	1136.065	1.657
318.15	0.06032	0.1	1003.526	0.776
318.15	0.0606	0	991.936	0.798
318.15	0.06305	0.5	1044.676	1.049
318.15	0.07966	1	1092.307	1.366
318.15	0.10343	0.1	1004.584	0.783
318.15	0.10686	0	993.217	0.791
318.15	0.12439	0.5	1046.01	1.058
318.15	0.14831	1.5	1137.425	1.666
318.15	0.15553	1	1093.691	1.374
318.15	0.17327	0.1	1006.279	0.795
318.15	0.18752	0	995.427	0.778
318.15	0.20495	0.5	1047.742	1.069
318.15	0.24197	0	996.902	0.77
318.15	0.27375	1.5	1139.194	1.678
318.15	0.29557	0.1	1009.212	0.814
318.15	0.29949	1	1096.262	1.392
318.15	0.30372	0.5	1049.837	1.083
318.15	0.33495	0	999.401	0.756
318.15	0.37153	0	1000.364	0.755
318.15	0.38919	1.5	1140.768	1.688
318.15	0.3926	1	1097.89	1.402
318.15	0.40135	0.5	1051.86	1.096
318.15	0.40428	0.1	1011.766	0.831
318.15	0.44654	1	1098.808	1.408
318.15	0.49036	0	1003.484	0.776
318.15	0.50055	0.5	1053.889	1.11
318.15	0.50356	1.5	1142.309	1.699
318.15	0.51845	0.1	1014.408	0.848
318.15	0.52068	0.5	1054.305	1.113
318.15	0.54526	1	1100.489	1.42
318.15	0.56692	1.5	1143.118	1.704

System: (.+-.)-.alpha.-aminobutyric acid + zinc chloride + water; phases: Liquid
Fixed: Pressure, kPa = 101
Property: Mass density, kg/m3 (Liquid); method: VIBTUB:UFactor:12
Temperature, K	Molality, mol/kg of (.+-.)-.alpha.-aminobutyric acid	Solvent: Molality, mol/kg of zinc chloride	Mass density, kg/m3	uncertainty
288.15	0.04687	1.5	1161.201	2.104
288.15	0.04917	0	1000.525	0.964
288.15	0.04984	0.1	1012.973	1.052
288.15	0.05367	1	1114.899	1.774
288.15	0.0545	0.5	1060.121	1.385
288.15	0.10145	0.1	1014.34	1.061
288.15	0.10848	0.5	1061.354	1.393
288.15	0.11187	1.5	1162.117	2.111
288.15	0.11882	0	1002.478	0.978
288.15	0.12957	1	1116.319	1.783
288.15	0.14625	0.5	1062.207	1.399
288.15	0.18582	0.1	1016.544	1.077
288.15	0.19554	0.5	1063.313	1.407
288.15	0.20732	0	1004.927	0.995
288.15	0.21503	1.5	1163.544	2.121
288.15	0.24081	1	1118.358	1.798
288.15	0.26342	0.1	1018.544	1.091
288.15	0.26862	0	1006.597	1.007
288.15	0.28784	0.5	1065.354	1.421
288.15	0.30925	1.5	1164.81	2.13
288.15	0.32206	0.1	1020.03	1.101
288.15	0.34119	1	1120.16	1.811
288.15	0.34792	0	1008.736	1.022
288.15	0.37856	0.5	1067.325	1.435
288.15	0.39579	1.5	1165.953	2.139
288.15	0.41816	0.1	1022.443	1.118
288.15	0.45036	0	1011.457	1.041
288.15	0.45087	1	1122.083	1.825
288.15	0.47731	1.5	1167.005	2.146
288.15	0.50249	1	1122.963	1.831
288.15	0.50298	0	1012.829	1.051
298.15	0.05001	0	998.427	0.969
298.15	0.05326	0.1	1010.73	1.036
298.15	0.0553	1.5	1153.518	2.05
298.15	0.05786	0.5	1056.705	1.361
298.15	0.0579	1	1107.549	1.721
298.15	0.07459	1.5	1153.759	2.051
298.15	0.08257	0.1	1011.469	1.041
298.15	0.1044	0.5	1057.707	1.367
298.15	0.10801	0.1	1012.111	1.046
298.15	0.11766	1	1108.564	1.728
298.15	0.1209	0	1000.359	0.963
298.15	0.12394	1.5	1154.367	2.056
298.15	0.14952	0.5	1058.677	1.374
298.15	0.16203	1	1109.315	1.734
298.15	0.16918	0.5	1059.094	1.377
298.15	0.17983	1.5	1155.046	2.061
298.15	0.20617	0.1	1014.544	1.063
298.15	0.20922	0	1002.733	0.98
298.15	0.23103	1.5	1155.66	2.065
298.15	0.23294	1	1110.493	1.742
298.15	0.23719	0.5	1060.516	1.387
298.15	0.27551	0	1004.485	0.992
298.15	0.27931	1	1111.252	1.748
298.15	0.29239	0.1	1016.652	1.077
298.15	0.31198	1.5	1156.62	2.072
298.15	0.33368	0.5	1062.511	1.401
298.15	0.3503	1.5	1157.083	2.075
298.15	0.35993	0	1006.688	1.008
298.15	0.39199	1	1113.071	1.76
298.15	0.46996	0	1009.506	1.027
298.15	0.48025	1	1114.472	1.77
298.15	0.48026	0.1	1021.135	1.109
298.15	0.48931	0.5	1065.633	1.423
298.15	0.52034	1	1115.082	1.775
298.15	0.5231	0	1010.84	1.036
308.15	0.05028	1.5	1143.105	1.975
308.15	0.05186	0	992.026	1.001
308.15	0.05192	0.1	1007.179	1.011
308.15	0.05554	1	1098.485	1.657
308.15	0.05867	0.5	1049.158	1.307
308.15	0.09378	0.1	1008.178	1.018
308.15	0.10051	1.5	1143.664	1.979
308.15	0.10359	1	1099.25	1.662
308.15	0.10374	0.5	1050.075	1.313
308.15	0.12644	0	994.002	0.991
308.15	0.15155	1	1100.001	1.667
308.15	0.15804	1.5	1144.293	1.984
308.15	0.16712	0.1	1009.909	1.03
308.15	0.20922	0	996.164	0.98
308.15	0.20946	1.5	1144.845	1.988
308.15	0.20951	0.5	1052.195	1.328
308.15	0.21145	1	1100.929	1.674
308.15	0.25717	0.1	1012.005	1.045
308.15	0.27302	0	997.812	0.972
308.15	0.28828	1	1102.1	1.682
308.15	0.30471	1.5	1145.856	1.995
308.15	0.31476	0.1	1013.323	1.054
308.15	0.34496	1	1102.946	1.688
308.15	0.35685	0	999.947	0.961
308.15	0.38127	0.5	1055.556	1.352
308.15	0.41629	1.5	1147.007	2.003
308.15	0.4189	0.1	1015.681	1.071
308.15	0.45036	0	1002.299	0.977
308.15	0.4619	0.5	1057.088	1.363
308.15	0.50954	0	1003.754	0.988
308.15	0.554	0.5	1058.809	1.375
318.15	0.05106	1	1091.647	1.608
318.15	0.05185	0.5	1044.34	1.273
318.15	0.05192	0.1	1003.27	0.984
318.15	0.05233	0	991.639	1.003
318.15	0.08836	1.5	1136.262	1.926
318.15	0.10688	0.5	1045.446	1.28
318.15	0.10738	0.1	1004.578	0.993
318.15	0.12584	1.5	1136.672	1.929
318.15	0.12654	0	993.596	0.993
318.15	0.1344	1	1092.956	1.617
318.15	0.15247	0.5	1046.35	1.287
318.15	0.16712	0.1	1005.968	1.002
318.15	0.21116	0	995.796	0.982
318.15	0.22242	0.5	1047.719	1.296
318.15	0.25717	0.1	1008.03	1.017
318.15	0.25879	1	1094.866	1.631
318.15	0.27302	0	997.382	0.974
318.15	0.28901	1.5	1138.43	1.941
318.15	0.31476	0.1	1009.329	1.026
318.15	0.33925	1	1096.064	1.639
318.15	0.34147	0.5	1050.012	1.313
318.15	0.34535	1.5	1139.014	1.946
318.15	0.35685	0	999.509	0.963
318.15	0.38586	1	1096.742	1.644
318.15	0.40389	0.5	1051.188	1.321
318.15	0.4189	0.1	1011.649	1.042
318.15	0.42192	1.5	1139.784	1.951
318.15	0.45112	0	1001.86	0.973
318.15	0.51084	0	1003.326	0.984
318.15	0.51902	1.5	1140.757	1.958

System: L-valine + zinc chloride + water; phases: Liquid
Fixed: Pressure, kPa = 101
Property: Mass density, kg/m3 (Liquid); method: VIBTUB:UFactor:12
Temperature, K	Molality, mol/kg of L-valine	Solvent: Molality, mol/kg of zinc chloride	Mass density, kg/m3	uncertainty
288.15	0.01202	0.1	1011.946	0.832
288.15	0.01369	0.5	1059.15	1.163
288.15	0.01413	1	1114.109	1.554
288.15	0.01605	0	999.563	0.755
288.15	0.01692	1.5	1160.708	1.822
288.15	0.0204	0.5	1059.291	1.145
288.15	0.02045	1	1114.211	1.516
288.15	0.02234	0.1	1012.207	0.834
288.15	0.0261	0	999.833	0.754
288.15	0.02832	1	1114.336	1.512
288.15	0.02888	1.5	1160.833	1.822
288.15	0.03039	0.5	1059.5	1.147
288.15	0.03382	0.1	1012.495	0.836
288.15	0.03552	0	1000.085	0.754
288.15	0.03601	1	1114.458	1.513
288.15	0.03813	1.5	1160.928	1.823
288.15	0.04154	0	1000.246	0.755
288.15	0.04359	0.1	1012.739	0.837
288.15	0.0442	1	1114.586	1.513
288.15	0.04612	1.5	1161.008	1.824
288.15	0.04841	0	1000.429	0.756
288.15	0.05055	1	1114.685	1.514
288.15	0.05399	0.5	1059.991	1.15
288.15	0.05747	0.1	1013.084	0.839
288.15	0.05751	0	1000.658	0.757
288.15	0.05953	1.5	1161.144	1.824
288.15	0.06473	1.5	1161.194	1.825
288.15	0.06512	0.5	1060.22	1.156
288.15	0.06618	0.1	1013.3	0.841
288.15	0.06876	0.5	1060.294	1.327
298.15	0.01627	0	997.478	0.787
298.15	0.02615	0	997.738	0.766
298.15	0.02725	1	1106.952	1.464
298.15	0.02873	0.1	1010.082	0.822
298.15	0.03	0.5	1056.049	1.153
298.15	0.03458	1.5	1153.14	1.775
298.15	0.03535	1	1107.069	1.463
298.15	0.03594	0	997.995	0.764
298.15	0.03869	0.5	1056.223	1.127
298.15	0.03927	0.1	1010.338	0.821
298.15	0.04191	1.5	1153.204	1.772
298.15	0.04207	0	998.155	0.765
298.15	0.04573	0.1	1010.494	0.823
298.15	0.04759	1	1107.249	1.465
298.15	0.04979	0.5	1056.442	1.127
298.15	0.05451	1.5	1153.321	1.772
298.15	0.05513	0	998.496	0.761
298.15	0.05513	0.1	1010.724	0.824
298.15	0.05741	1	1107.391	1.466
298.15	0.06104	0.5	1056.668	1.129
298.15	0.06184	1.5	1153.385	1.773
298.15	0.06596	0	998.777	0.76
298.15	0.06596	0.1	1010.986	0.826
298.15	0.06928	0.5	1056.83	1.131
298.15	0.07067	1	1107.577	1.467
298.15	0.07399	1.5	1153.486	1.773
298.15	0.07704	0.1	1011.251	0.827
298.15	0.07731	1	1107.669	1.487
298.15	0.07837	1.5	1153.527	1.773
298.15	0.08109	0.5	1057.061	1.132
298.15	0.08741	0.5	1057.183	1.132
308.15	0.01158	1.5	1142.641	1.701
308.15	0.01337	1	1097.78	1.42
308.15	0.01369	0.5	1048.217	1.182
308.15	0.01502	0	991.047	0.814
308.15	0.02039	0.5	1048.345	1.073
308.15	0.02073	1.5	1142.721	1.701
308.15	0.02093	1	1097.886	1.403
308.15	0.02637	0	991.317	0.801
308.15	0.02847	0.1	1006.607	0.826
308.15	0.03039	0.5	1048.537	1.074
308.15	0.03056	1	1098.021	1.403
308.15	0.03072	1.5	1142.808	1.702
308.15	0.03597	0	991.564	0.801
308.15	0.03793	0.1	1006.831	0.798
308.15	0.04036	1.5	1142.891	1.703
308.15	0.04346	0	991.755	0.798
308.15	0.04495	0.1	1006.995	0.799
308.15	0.04821	0.1	1007.07	0.821
308.15	0.04875	1	1098.273	1.405
308.15	0.05079	1.5	1142.981	1.704
308.15	0.05081	0	991.925	0.798
308.15	0.05365	0.1	1007.196	0.818
308.15	0.05399	0.5	1048.988	1.077
308.15	0.05769	0	992.118	0.85
308.15	0.05828	1.5	1143.042	1.71
308.15	0.05995	0.1	1007.341	0.822
308.15	0.06153	1	1098.448	1.406
308.15	0.06512	0.5	1049.197	1.079
308.15	0.06967	1	1098.557	1.407
308.15	0.07106	0.5	1049.307	1.085
318.15	0.01602	0	990.656	0.805
318.15	0.01745	1.5	1135.425	1.653
318.15	0.01983	0.5	1043.668	1.095
318.15	0.02188	1.5	1135.462	1.653
318.15	0.02637	0	990.922	0.803
318.15	0.02725	1	1091.216	1.358
318.15	0.02847	0.1	1002.695	0.777
318.15	0.03	0.5	1043.861	1.044
318.15	0.03319	1.5	1135.558	1.653
318.15	0.03535	1	1091.329	1.359
318.15	0.03619	0	991.171	0.802
318.15	0.03793	0.1	1002.913	0.773
318.15	0.03869	0.5	1044.025	1.045
318.15	0.04382	1.5	1135.648	1.654
318.15	0.04383	0	991.365	0.801
318.15	0.04491	0.1	1003.074	0.773
318.15	0.04759	1	1091.497	1.36
318.15	0.04821	0.1	1003.147	0.774
318.15	0.04979	0.5	1044.234	1.046
318.15	0.05048	0	991.533	0.8
318.15	0.05108	1.5	1135.708	1.654
318.15	0.05361	0.1	1003.27	0.775
318.15	0.05741	1	1091.631	1.361
318.15	0.05783	1.5	1135.763	1.655
318.15	0.05901	0	991.749	0.799
318.15	0.06104	0.5	1044.444	1.047
318.15	0.06391	1	1091.719	1.361
318.15	0.06928	0.5	1044.595	1.048
318.15	0.07399	1	1091.856	1.362

System: L-leucine + zinc chloride + water; phases: Liquid
Fixed: Pressure, kPa = 101
Property: Mass density, kg/m3 (Liquid); method: VIBTUB:UFactor:12
Temperature, K	Molality, mol/kg of L-leucine	Solvent: Molality, mol/kg of zinc chloride	Mass density, kg/m3	uncertainty
288.15	0.0103	0	999.379	0.963
288.15	0.0113	0.1	1011.897	1.045
288.15	0.01144	0.5	1059.062	1.376
288.15	0.01763	0	999.557	0.963
288.15	0.01979	0.5	1059.208	1.377
288.15	0.02029	0.1	1012.099	1.045
288.15	0.02334	0	999.694	0.962
288.15	0.02413	1.5	1160.656	2.101
288.15	0.02434	1	1114.155	1.816
288.15	0.02875	0	999.824	0.961
288.15	0.03022	0.5	1059.389	1.379
288.15	0.03089	1.5	1160.689	2.101
288.15	0.03158	1	1114.234	1.77
288.15	0.03259	0.1	1012.375	1.047
288.15	0.03379	0	999.945	0.961
288.15	0.03743	1.5	1160.721	2.101
288.15	0.04119	0.1	1012.567	1.048
288.15	0.04163	0.5	1059.585	1.38
288.15	0.04222	0	1000.146	0.961
288.15	0.04251	1	1114.355	1.769
288.15	0.04786	0	1000.279	0.962
288.15	0.04869	1.5	1160.776	2.101
288.15	0.04897	0.1	1012.739	1.05
288.15	0.0498	0.5	1059.724	1.381
288.15	0.05128	1	1114.449	1.772
288.15	0.05524	1.5	1160.806	2.102
288.15	0.05745	0.1	1012.926	1.051
288.15	0.06312	1	1114.577	1.773
288.15	0.06315	0.5	1059.95	1.383
288.15	0.06609	1.5	1160.857	2.102
288.15	0.06919	1	1114.643	1.771
298.15	0.00924	1.5	1152.863	2.045
298.15	0.01051	0	997.295	0.998
298.15	0.01123	0.1	1009.623	1.029
298.15	0.01799	0	997.469	0.973
298.15	0.022	0.1	1009.859	1.029
298.15	0.02249	1.5	1152.924	2.045
298.15	0.02418	0	997.614	0.973
298.15	0.02464	0.5	1055.858	1.359
298.15	0.02931	0	997.733	0.972
298.15	0.02931	0.1	1010.018	1.031
298.15	0.031	1	1106.874	1.718
298.15	0.03248	0.1	1010.087	1.034
298.15	0.03474	0	997.858	0.972
298.15	0.03845	1	1106.951	1.717
298.15	0.04016	1.5	1153.003	2.053
298.15	0.043	1.5	1153.011	2.046
298.15	0.04395	0	998.071	0.97
298.15	0.04875	0	998.181	0.97
298.15	0.0491	1	1107.058	1.717
298.15	0.04929	0.5	1056.266	1.423
298.15	0.0553	0.5	1056.363	1.363
298.15	0.05861	1	1107.152	1.718
298.15	0.05886	0.5	1056.424	1.385
298.15	0.06193	1	1107.188	1.719
298.15	0.06599	0.1	1010.813	1.036
298.15	0.06687	1.5	1153.116	2.047
298.15	0.07001	0.1	1010.899	1.037
298.15	0.07191	1	1107.288	1.719
298.15	0.07775	1.5	1153.157	2.047
298.15	0.07975	0.5	1056.761	1.36
298.15	0.08481	0.5	1056.846	1.361
298.15	0.08923	1	1107.458	1.72
298.15	0.09804	0.5	1057.053	1.362
298.15	0.0992	0.1	1011.523	1.041
308.15	0.01051	0	990.878	1.032
308.15	0.01126	0.1	1006.166	1.015
308.15	0.01141	0.5	1048.137	1.321
308.15	0.01235	1.5	1142.583	1.971
308.15	0.01847	0	991.063	1.007
308.15	0.01859	1.5	1142.605	1.971
308.15	0.01979	0.5	1048.273	1.3
308.15	0.02274	0.1	1006.408	1.005
308.15	0.02431	1	1097.836	1.668
308.15	0.02445	0	991.201	1.005
308.15	0.02835	1.5	1142.639	1.971
308.15	0.03033	0.5	1048.443	1.301
308.15	0.03091	0	991.351	1.005
308.15	0.03141	0.1	1006.589	1.008
308.15	0.03158	1	1097.908	1.652
308.15	0.03427	1.5	1142.66	1.972
308.15	0.03753	0	991.503	1.004
308.15	0.04163	0.5	1048.624	1.303
308.15	0.04191	0.1	1006.807	1.008
308.15	0.04251	1	1098.014	1.654
308.15	0.04534	0	991.682	1.003
308.15	0.04537	1.5	1142.697	1.972
308.15	0.0498	0.5	1048.752	1.304
308.15	0.05128	1	1098.097	1.654
308.15	0.05226	0	991.839	1.021
308.15	0.05294	0.1	1007.035	1.01
308.15	0.05946	1.5	1142.745	1.972
308.15	0.06244	0.1	1007.229	1.011
308.15	0.06312	0.5	1048.957	1.305
308.15	0.06312	1	1098.209	1.655
308.15	0.06919	1	1098.267	1.66
318.15	0.01048	0	990.48	1.009
318.15	0.01126	0.1	1002.261	0.976
318.15	0.01766	0.5	1043.56	1.27
318.15	0.01881	0	990.667	1.008
318.15	0.02274	0.1	1002.494	0.978
318.15	0.02434	1	1091.054	1.607
318.15	0.02437	0	990.791	1.007
318.15	0.02589	1.5	1135.341	1.919
318.15	0.0268	0.5	1043.699	1.269
318.15	0.0301	0	990.918	1.007
318.15	0.03056	1.5	1135.352	1.919
318.15	0.03141	0.1	1002.669	0.979
318.15	0.03158	1	1091.118	1.604
318.15	0.03455	0.5	1043.816	1.27
318.15	0.03752	0	991.082	1.006
318.15	0.04191	0.1	1002.879	0.981
318.15	0.04226	1.5	1135.382	1.92
318.15	0.04251	1	1091.216	1.605
318.15	0.04447	0.5	1043.966	1.27
318.15	0.04561	0	991.262	1.005
318.15	0.05028	1.5	1135.401	1.92
318.15	0.05128	1	1091.293	1.605
318.15	0.05191	0	991.401	1.004
318.15	0.05294	0.1	1003.098	0.982
318.15	0.05452	0.5	1044.118	1.271
318.15	0.06035	1.5	1135.423	1.92
318.15	0.06188	0.5	1044.226	1.281
318.15	0.06244	0.1	1003.287	0.983
318.15	0.06312	1	1091.396	1.606
318.15	0.06905	1	1091.446	1.606
