Measured thermophysical data. Experimental Determination and Modeling of Bubble and Dew Points in the System CO2 + CHF3
Source: J. Chem. Eng. Data, 2008, 10.1021/je800184c
Compound 1: trifluoromethane, CHF3, InChI=1S/CHF3/c2-1(3)4/h1H
Compound 2: carbon dioxide, CO2, InChI=1S/CO2/c2-1-3

System: trifluoromethane + carbon dioxide; phases: Gas, Liquid
Property: Vapor or sublimation pressure, kPa (Gas); method: CCELL:UFactor:2
Temperature, K	Mole fraction of trifluoromethane	Vapor or sublimation pressure, kPa	uncertainty
263.13	0.105	2592	18
263.13	0.5	2282	17
263.14	0.655	2154	16
263.15	0.353	2393	17
263.15	0.752	2066	16
263.17	0.895	1969	15
263.18	1	1878	15
265.12	1	1988	15
265.17	0.5	2417	17
265.19	0.105	2746	19
265.19	0.353	2527	18
265.2	0.752	2201	16
265.21	0.655	2284	17
265.22	0.895	2084	16
267.1	0.655	2413	17
267.11	0.752	2320	17
267.12	0.105	2901	20
267.12	0.895	2198	16
267.14	0.353	2672	18
267.16	1	2108	16
267.17	0.5	2552	18
269.08	0.105	3061	20
269.12	0.752	2454	17
269.13	0.353	2822	19
269.14	1	2228	16
269.16	0.895	2328	17
269.17	0.655	2552	18
269.21	0.5	2697	19
271.1	0.752	2593	18
271.12	0.353	2982	20
271.15	0.895	2463	18
271.17	0.5	2841	19
271.18	1	2358	17
271.19	0.105	3241	21
271.2	0.655	2702	19
273.19	1	2488	18
273.22	0.895	2607	18
273.23	0.353	3156	21
273.24	0.752	2752	19
273.27	0.105	3426	22
273.27	0.655	2862	19
273.28	0.5	2990	20
275.18	1	2623	18
275.21	0.5	3155	21
275.21	0.895	2747	19
275.22	0.353	3331	22
275.25	0.655	3012	20
275.27	0.105	3615	23
275.41	0.752	2896	20
277.21	0.5	3350	22
277.22	0.655	3172	21
277.23	0.353	3511	23
277.25	0.752	3050	20
277.26	0.105	3805	24
277.26	1	2773	19
277.27	0.895	2902	20
279.19	0.752	3220	21
279.2	0.655	3342	22
279.23	0.105	4000	25
279.25	1	2923	20
279.26	0.353	3700	24
279.26	0.5	3544	23
279.28	0.895	3056	20
281.18	0.655	3516	23
281.19	0.752	3399	22
281.22	0.353	3895	25
281.24	0.105	4210	26
281.24	0.5	3729	24
281.24	1	3078	21
281.26	0.895	3221	21
283.2	0.752	3579	23
283.21	0.655	3706	24
283.21	0.895	3386	22
283.23	0.353	4100	26
283.23	1	3233	21
283.29	0.105	4430	28
283.31	0.5	3929	25
285.16	1	3398	22
285.18	0.353	4310	27
285.21	0.752	3763	24
285.22	0.895	3556	23
285.24	0.105	4650	29
285.24	0.655	3901	25
285.25	0.5	4124	26
287.19	1	3573	23
287.2	0.105	4873	31
287.21	0.752	3953	25
287.24	0.353	4529	28
287.26	0.895	3746	24
287.27	0.655	4106	26
287.28	0.5	4339	27
289.22	0.655	4315	27
289.22	0.752	4157	26
289.22	1	3763	24
289.23	0.5	4554	29
289.25	0.105	5124	32
289.26	0.353	4754	30
289.26	0.895	3941	25
291.17	0.105	5364	34
291.19	0.752	4362	28
291.19	1	3943	25
291.24	0.353	4994	31
291.26	0.5	4779	30
291.28	0.655	4535	29
291.28	0.895	4139	26
293.22	0.655	4755	30
293.22	0.752	4582	29
293.24	0.353	5249	33
293.24	0.895	4343	28
293.24	1	4148	26
293.25	0.5	5019	32
293.28	0.105	5639	35
295.19	0.5	5269	33
295.2	1	4353	28
295.22	0.353	5514	35
295.23	0.655	4994	32
295.23	0.752	4821	31
295.26	0.895	4563	29
295.29	0.105	5909	37
297.18	0.655	5239	33
297.19	0.353	5784	36
297.23	1	4573	29
297.25	0.895	4793	30
297.26	0.5	5534	35
297.27	0.105	6189	39
297.27	0.752	5071	32
298.28	0.752	5195	33
298.29	0.895	4918	31
298.29	1	4693	30
298.61	0.752	5234	33
298.86	0.895	4987	32
298.95	0.752	5279	33
298.99	1	4788	31
299.02	0.895	5007	32
299.1	0.752	5294	34
299.16	0.895	5027	32
299.18	0.353	6068	38
299.25	0.5	5814	37
299.25	0.655	5514	35
299.26	0.752	5314	34
299.3	0.105	6479	41
299.44	0.752	5349	34
299.62	0.655	5568	35
299.75	0.655	5588	35
299.83	0.655	5598	35
300.2	0.353	6218	39
300.26	0.5	5964	38
300.38	0.5	5984	38
300.96	0.353	6343	40
301.06	0.353	6368	41
301.21	0.105	6784	43
302.27	0.105	6953	44
302.57	0.105	7008	44

System: trifluoromethane + carbon dioxide; phases: Liquid, Gas
Property: Vapor or sublimation pressure, kPa (Liquid); method: CCELL:UFactor:2
Temperature, K	Mole fraction of trifluoromethane	Vapor or sublimation pressure, kPa	uncertainty
263.15	0.105	2608	18
263.15	0.895	1992	15
263.16	0.752	2129	16
263.18	0.353	2463	17
263.19	0.25	2533	18
263.19	0.655	2214	16
263.21	0.5	2342	17
265.09	0.5	2477	18
265.12	0.25	2668	18
265.15	0.105	2763	19
265.15	0.655	2339	17
265.16	0.353	2603	18
265.18	0.895	2112	16
265.2	0.752	2259	17
267.09	0.752	2389	17
267.11	0.895	2232	16
267.13	0.5	2617	18
267.14	0.25	2828	19
267.17	0.353	2753	19
267.17	0.655	2474	18
267.19	0.105	2923	20
269.11	0.25	2983	20
269.12	0.752	2519	18
269.16	0.353	2908	20
269.16	0.5	2767	19
269.17	0.655	2614	18
269.19	0.895	2362	17
269.23	0.105	3088	20
271.1	0.752	2659	18
271.13	0.895	2492	18
271.14	0.105	3258	21
271.14	0.5	2917	20
271.16	0.353	3068	20
271.18	0.655	2764	19
271.21	0.25	3153	21
273.2	0.25	3328	22
273.2	0.752	2814	19
273.21	0.353	3238	21
273.21	0.5	3082	20
273.21	0.655	2914	20
273.26	0.105	3448	22
273.38	0.895	2647	18
275.18	0.752	2964	20
275.2	0.105	3623	23
275.2	0.25	3503	23
275.21	0.353	3413	22
275.25	0.5	3257	21
275.25	0.895	2787	19
275.26	0.655	3079	20
277.23	0.105	3818	24
277.23	0.353	3598	23
277.23	0.655	3239	21
277.25	0.752	3124	21
277.26	0.25	3698	24
277.28	0.5	3432	22
277.28	0.895	2937	20
279.2	0.353	3778	24
279.21	0.25	3883	25
279.23	0.655	3413	22
279.24	0.752	3289	22
279.25	0.105	4013	25
279.27	0.5	3607	23
279.29	0.895	3092	21
281.19	0.655	3583	23
281.21	0.353	3978	25
281.21	0.752	3459	22
281.22	0.25	4093	26
281.23	0.895	3252	21
281.27	0.5	3795	24
281.28	0.105	4233	27
283.2	0.752	3634	23
283.21	0.105	4451	28
283.22	0.25	4298	27
283.23	0.655	3768	24
283.26	0.353	4183	26
283.26	0.5	3990	25
283.26	0.895	3427	22
285.21	0.895	3592	23
285.22	0.5	4190	26
285.23	0.655	3963	25
285.24	0.105	4676	29
285.24	0.25	4518	28
285.26	0.353	4393	28
285.27	0.752	3829	24
287.19	0.655	4163	26
287.2	0.25	4738	30
287.2	0.353	4608	29
287.21	0.5	4400	28
287.23	0.895	3777	24
287.26	0.752	4019	25
287.28	0.105	4906	31
289.15	0.25	4973	31
289.19	0.895	3962	25
289.21	0.353	4838	30
289.21	0.752	4214	27
289.22	0.105	5141	32
289.23	0.5	4615	29
289.25	0.655	4373	28
291.18	0.752	4419	28
291.19	0.655	4583	29
291.2	0.25	5218	33
291.21	0.353	5078	32
291.25	0.105	5391	34
291.25	0.5	4850	31
291.28	0.895	4167	27
292.94	0.895	4377	28
293.17	0.25	5468	34
293.18	0.353	5318	33
293.22	0.752	4639	29
293.24	0.105	5651	35
293.25	0.5	5085	32
293.27	0.655	4813	30
295.15	0.25	5728	36
295.19	0.353	5573	35
295.22	0.752	4869	31
295.23	0.655	5043	32
295.25	0.105	5921	37
295.25	0.5	5327	34
295.27	0.895	4587	29
297.21	0.752	5104	32
297.23	0.25	6008	38
297.23	0.353	5843	37
297.23	0.5	5577	35
297.24	0.105	6206	39
297.24	0.895	4812	31
297.28	0.655	5293	33
298.22	0.5	5707	36
298.26	0.105	6351	40
298.26	0.655	5413	34
298.28	0.752	5234	33
298.28	0.895	4932	31
298.43	0.895	4947	31
298.61	0.895	4967	32
298.8	0.895	4992	32
298.96	0.895	5012	32
299.06	0.895	5022	32
299.17	0.895	5037	32
299.2	0.353	6113	38
299.21	0.655	5533	35
299.21	0.752	5339	34
299.22	0.25	6288	39
299.23	0.5	5847	37
299.28	0.105	6501	41
299.33	0.752	5354	34
299.43	0.655	5558	35
299.5	0.752	5374	34
299.57	0.655	5578	35
299.73	0.655	5599	35
299.84	0.655	5614	35
300.18	0.25	6433	40
300.18	0.353	6253	39
300.21	0.5	5972	38
300.29	0.105	6651	42
300.43	0.5	5992	38
300.74	0.353	6328	40
300.93	0.353	6358	40
301.11	0.353	6378	40
301.19	0.353	6388	40
301.25	0.105	6801	43
301.59	0.25	6638	42
302.26	0.105	6961	44
302.41	0.105	6991	44
302.61	0.105	7021	44
302.67	0.105	7021	44
