Measured thermophysical data. Density and Excess Properties of Aqueous N-Methyldiethanolamine Solutions from (298.15 to 338.15) K
Source: J. Chem. Eng. Data, 2008, 10.1021/je800416y
Compound 1: N-methyldiethanolamine, C5H13NO2, InChI=1S/C5H13NO2/c1-6(2-4-7)3-5-8/h7-8H,2-5H2,1H3
Compound 2: water, H2O, InChI=1S/H2O/h1H2

System: N-methyldiethanolamine; phases: Liquid
Fixed: Pressure, kPa = 101.325
Property: Mass density, kg/m3 (Liquid); method: VIBTUB:UFactor:24
Temperature, K	Mass density, kg/m3	uncertainty
298.15	1038.224	1.162
303.15	1034.493	1.126
308.15	1030.749	1.09
313.15	1026.993	1.054
318.15	1023.255	1.018
323.15	1019.469	0.982
328.15	1015.645	0.945
333.15	1011.796	0.908
338.15	1007.921	0.871

System: N-methyldiethanolamine + water; phases: Liquid
Fixed: Pressure, kPa = 101
Property: Mass density, kg/m3 (Liquid); method: VIBTUB:UFactor:24
Temperature, K	Mass fraction of N-methyldiethanolamine	Mass density, kg/m3	uncertainty
298.15	0.3228	1027.273	1.146
298.15	0.488	1041.371	1.255
303.15	0.3228	1024.819	1.122
303.15	0.488	1038.162	1.224
308.15	0.3228	1022.162	1.097
308.15	0.488	1034.938	1.193
313.15	0.3228	1019.437	1.07
313.15	0.488	1031.741	1.162
318.15	0.3228	1016.541	1.042
318.15	0.488	1028.354	1.129
323.15	0.3228	1013.629	1.014
323.15	0.488	1024.827	1.096
328.15	0.3228	1010.471	0.984
328.15	0.488	1021.382	1.063
333.15	0.3228	1007.394	0.955
333.15	0.488	1017.754	1.028
338.15	0.3228	1003.915	0.921
338.15	0.488	1014.175	0.994

System: N-methyldiethanolamine + water; phases: Liquid
Fixed: Pressure, kPa = 101
Property: Mass density, kg/m3 (Liquid); method: VIBTUB:UFactor:24
Temperature, K	Mole fraction of N-methyldiethanolamine	Mass density, kg/m3	uncertainty
298.15	0.0128	1004.057	0.984
298.15	0.0212	1008.406	1.023
298.15	0.0498	1020.08	1.131
298.15	0.0645	1026.392	1.188
298.15	0.0799	1030.846	1.228
298.15	0.1332	1042.798	1.333
298.15	0.1557	1045.445	1.354
298.15	0.1944	1049.907	1.389
298.15	0.2407	1050.842	1.389
298.15	0.2725	1052.408	1.399
298.15	0.366	1052.539	1.383
298.15	0.4302	1050.974	1.356
298.15	0.5642	1046.854	1.295
298.15	0.6687	1041.445	1.227
298.15	0.7531	1039.267	1.195
303.15	0.0128	1002.479	0.968
303.15	0.0212	1006.702	1.006
303.15	0.0498	1017.933	1.109
303.15	0.0645	1023.98	1.165
303.15	0.0799	1028.249	1.202
303.15	0.1332	1039.647	1.302
303.15	0.1557	1042.174	1.322
303.15	0.1944	1046.417	1.356
303.15	0.2407	1048.106	1.363
303.15	0.2725	1048.8	1.364
303.15	0.366	1048.778	1.346
303.15	0.4302	1047.201	1.32
303.15	0.5642	1043.076	1.258
303.15	0.6687	1037.681	1.191
303.15	0.7531	1035.872	1.162
308.15	0.0128	1000.698	0.951
308.15	0.0212	1004.804	0.987
308.15	0.0498	1015.632	1.087
308.15	0.0645	1021.433	1.14
308.15	0.0799	1025.53	1.176
308.15	0.1332	1036.417	1.271
308.15	0.1557	1038.83	1.289
308.15	0.1944	1042.857	1.321
308.15	0.2407	1044.446	1.327
308.15	0.2725	1045.139	1.328
308.15	0.366	1044.967	1.309
308.15	0.4302	1043.379	1.283
308.15	0.5642	1039.276	1.222
308.15	0.6687	1033.894	1.155
308.15	0.7531	1031.924	1.125
313.15	0.0128	998.731	0.955
313.15	0.0212	1002.724	0.967
313.15	0.0498	1013.185	1.063
313.15	0.0645	1018.768	1.114
313.15	0.0799	1022.694	1.148
313.15	0.1332	1033.102	1.238
313.15	0.1557	1035.413	1.256
313.15	0.1944	1039.229	1.286
313.15	0.2407	1040.729	1.291
313.15	0.2725	1041.409	1.292
313.15	0.366	1041.104	1.272
313.15	0.4302	1039.509	1.246
313.15	0.5642	1035.454	1.185
313.15	0.6687	1030.084	1.118
313.15	0.7531	1028.732	1.094
318.15	0.0128	996.584	0.974
318.15	0.0212	1000.48	0.945
318.15	0.0498	1010.589	1.037
318.15	0.0645	1015.978	1.086
318.15	0.0799	1019.743	1.119
318.15	0.1332	1029.709	1.205
318.15	0.1557	1031.918	1.222
318.15	0.1944	1035.539	1.25
318.15	0.2407	1036.948	1.255
318.15	0.2725	1037.63	1.255
318.15	0.366	1037.198	1.234
318.15	0.4302	1035.603	1.208
318.15	0.5642	1031.608	1.148
318.15	0.6687	1026.252	1.082
318.15	0.7531	1025.017	1.059
323.15	0.0128	994.273	0.995
323.15	0.0212	998.073	0.957
323.15	0.0498	1007.874	1.011
323.15	0.0645	1013.062	1.058
323.15	0.0799	1016.683	1.089
323.15	0.1332	1026.226	1.172
323.15	0.1557	1028.343	1.188
323.15	0.1944	1031.783	1.213
323.15	0.2407	1033.108	1.218
323.15	0.2725	1033.742	1.218
323.15	0.366	1033.245	1.196
323.15	0.4302	1031.659	1.17
323.15	0.5642	1027.753	1.111
323.15	0.6687	1022.397	1.045
323.15	0.7531	1020.863	1.019
328.15	0.0128	991.808	1.017
328.15	0.0212	995.518	0.98
328.15	0.0498	1005.02	0.983
328.15	0.0645	1010.027	1.028
328.15	0.0799	1013.511	1.058
328.15	0.1332	1022.667	1.137
328.15	0.1557	1024.692	1.152
328.15	0.1944	1027.966	1.177
328.15	0.2407	1029.246	1.18
328.15	0.2725	1029.769	1.179
328.15	0.366	1029.243	1.158
328.15	0.4302	1027.676	1.132
328.15	0.5642	1023.83	1.074
328.15	0.6687	1018.519	1.008
328.15	0.7531	1016.835	0.981
333.15	0.0128	989.191	1.04
333.15	0.0212	992.82	1.005
333.15	0.0498	1002.039	0.954
333.15	0.0645	1006.729	0.996
333.15	0.0799	1010.236	1.027
333.15	0.1332	1019.024	1.102
333.15	0.1557	1020.961	1.116
333.15	0.1944	1024.082	1.139
333.15	0.2407	1025.291	1.142
333.15	0.2725	1025.947	1.143
333.15	0.366	1025.197	1.119
333.15	0.4302	1023.664	1.094
333.15	0.5642	1019.875	1.036
333.15	0.6687	1014.618	0.971
333.15	0.7531	1012.829	0.943
338.15	0.0128	986.433	1.065
338.15	0.0212	989.984	1.031
338.15	0.0498	998.939	0.944
338.15	0.0645	1003.614	0.967
338.15	0.0799	1006.853	0.994
338.15	0.1332	1015.295	1.066
338.15	0.1557	1017.154	1.08
338.15	0.1944	1020.126	1.101
338.15	0.2407	1021.295	1.104
338.15	0.2725	1021.898	1.104
338.15	0.366	1021.103	1.08
338.15	0.4302	1019.603	1.055
338.15	0.5642	1015.875	0.999
338.15	0.6687	1010.695	0.934
338.15	0.7531	1008.962	0.907
