Measured thermophysical data. Electrical Conductivity of Concentrated Aqueous Solutions of Divalent Metal Sulfates
Source: J. Chem. Eng. Data, 2008, 10.1021/je8001255
Compound 1: water, H2O, InChI=1S/H2O/h1H2
Compound 2: cadmium sulfate, CdO4S, InChI=1S/Cd.H2O4S/c;1-5(2,3)4/h;(H2,1,2,3,4)/q+2;/p-2
Compound 3: cobalt(II) sulfate, CoO4S, InChI=1S/Co.H2O4S/c;1-5(2,3)4/h;(H2,1,2,3,4)/q+2;/p-2
Compound 4: copper sulfate, CuO4S, InChI=1S/Cu.H2O4S/c;1-5(2,3)4/h;(H2,1,2,3,4)/q+2;/p-2
Compound 5: manganese(II) sulfate, MnO4S, InChI=1S/Mn.H2O4S/c;1-5(2,3)4/h;(H2,1,2,3,4)/q+2;/p-2
Compound 6: nickel monosulfate, NiO4S, InChI=1S/Ni.H2O4S/c;1-5(2,3)4/h;(H2,1,2,3,4)/q+2;/p-2
Compound 7: zinc sulfate, O4SZn, InChI=1S/H2O4S.Zn/c1-5(2,3)4;/h(H2,1,2,3,4);/q;+2/p-2

System: water + cadmium sulfate; phases: Liquid
Fixed: Pressure, kPa = 100
Fixed: Temperature, K = 298.15
Property: Mass density, kg/m3 (Liquid); method: VIBTUB:UFactor:4
Ratio of amount of solute to mass of solution, mol/kg of cadmium sulfate	Mass density, kg/m3	uncertainty
0.00493	998.06	2.16
0.01043	999.18	2.16
0.0299	1003.14	2.18
0.0514	1007.53	2.21
0.10013	1017.5	2.3
0.20169	1038.74	2.4
0.40918	1084.21	2.68
0.60136	1129.51	2.97
0.82023	1185.1	3.3
1.0006	1234.43	3.68
1.20878	1295.86	4.12
1.3783	1349.9	4.51
1.4855	1385.75	4.78
1.60935	1429.78	5.12
1.7981	1500.75	5.67
1.9388	1556.84	6.13

System: water + cadmium sulfate; phases: Liquid
Fixed: Pressure, kPa = 100
Property: Electrical conductivity, S/m (Liquid); method: Alternating current cell with electrodes
Temperature, K	Ratio of amount of solute to mass of solution, mol/kg of cadmium sulfate	Electrical conductivity, S/m	uncertainty
278.15	0.00493	0.05072	0.00507
278.15	0.01043	0.09195	0.0092
278.15	0.0299	0.20908	0.02091
278.15	0.0514	0.31909	0.03191
278.15	0.10013	0.53651	0.05365
278.15	0.20169	0.92976	0.09298
278.15	0.40918	1.60627	0.16063
278.15	0.60136	2.12855	0.21286
278.15	0.82023	2.60339	0.26034
278.15	1.0006	2.96058	0.29606
278.15	1.20878	3.10465	0.31047
278.15	1.3783	3.15617	0.31562
278.15	1.4855	3.13191	0.31319
278.15	1.60935	3.04406	0.30441
278.15	1.7981	2.80426	0.28043
278.15	1.9388	2.53395	0.2534
283.15	0.00493	0.05826	0.00583
283.15	0.01043	0.10539	0.01054
283.15	0.0299	0.23916	0.02392
283.15	0.0514	0.36443	0.03644
283.15	0.10013	0.61221	0.06122
283.15	0.20169	1.05985	0.10599
283.15	0.40918	1.82891	0.18289
283.15	0.60136	2.42493	0.24249
283.15	0.82023	2.96916	0.29692
283.15	1.0006	3.37925	0.33793
283.15	1.20878	3.56071	0.35607
283.15	1.3783	3.6343	0.36343
283.15	1.4855	3.61839	0.36184
283.15	1.60935	3.53203	0.3532
283.15	1.7981	3.28202	0.3282
283.15	1.9388	2.99113	0.29911
288.15	0.00493	0.06577	0.00658
288.15	0.01043	0.1188	0.01188
288.15	0.0299	0.26872	0.02687
288.15	0.0514	0.40933	0.04093
288.15	0.10013	0.68685	0.06869
288.15	0.20169	1.18803	0.1188
288.15	0.40918	2.04939	0.20494
288.15	0.60136	2.71761	0.27176
288.15	0.82023	3.33131	0.33313
288.15	1.0006	3.79118	0.37912
288.15	1.20878	4.01361	0.40136
288.15	1.3783	4.11176	0.41118
288.15	1.4855	4.10649	0.41065
288.15	1.60935	4.02498	0.4025
288.15	1.7981	3.77071	0.37707
288.15	1.9388	3.45812	0.34581
293.15	0.00493	0.0734	0.00734
293.15	0.01043	0.13234	0.01323
293.15	0.0299	0.29831	0.02983
293.15	0.0514	0.45414	0.04541
293.15	0.10013	0.76119	0.07612
293.15	0.20169	1.3154	0.13154
293.15	0.40918	2.26934	0.22693
293.15	0.60136	3.01043	0.30104
293.15	0.82023	3.69545	0.36955
293.15	1.0006	4.2062	0.42062
293.15	1.20878	4.47348	0.44735
293.15	1.3783	4.5995	0.45995
293.15	1.4855	4.60583	0.46058
293.15	1.60935	4.53222	0.45322
293.15	1.7981	4.27688	0.42769
293.15	1.9388	3.9475	0.39475
298.15	0.00493	0.08128	0.00813
298.15	0.01043	0.14614	0.01461
298.15	0.0299	0.32839	0.03284
298.15	0.0514	0.49927	0.04993
298.15	0.10013	0.83587	0.08359
298.15	0.20169	1.44349	0.14435
298.15	0.40918	2.49076	0.24908
298.15	0.60136	3.30678	0.33068
298.15	0.82023	4.06528	0.40653
298.15	1.0006	4.62843	0.46284
298.15	1.20878	4.94614	0.49461
298.15	1.3783	5.10238	0.51024
298.15	1.4855	5.1248	0.51248
298.15	1.60935	5.0616	0.50616
298.15	1.7981	4.80963	0.48096
298.15	1.9388	4.46617	0.44662
303.15	0.00493	0.08925	0.00893
303.15	0.01043	0.15998	0.016
303.15	0.0299	0.35831	0.03583
303.15	0.0514	0.54391	0.05439
303.15	0.10013	0.9096	0.09096
303.15	0.20169	1.57009	0.15701
303.15	0.40918	2.70987	0.27099
303.15	0.60136	3.60101	0.3601
303.15	0.82023	4.43489	0.44349
303.15	1.0006	5.05358	0.50536
303.15	1.20878	5.42304	0.5423
303.15	1.3783	5.61215	0.56122
303.15	1.4855	5.65213	0.56521
303.15	1.60935	5.60142	0.56014
303.15	1.7981	5.35704	0.5357
303.15	1.9388	5.00353	0.50035
308.15	0.00493	0.09718	0.00972
308.15	0.01043	0.17365	0.01737
308.15	0.0299	0.38742	0.03874
308.15	0.0514	0.58737	0.05874
308.15	0.10013	0.98117	0.09812
308.15	0.20169	1.69259	0.16926
308.15	0.40918	2.9231	0.29231
308.15	0.60136	3.88826	0.38883
308.15	0.82023	4.79741	0.47974
308.15	1.0006	5.46837	0.54684
308.15	1.20878	5.89609	0.58961
308.15	1.3783	6.12166	0.61217
308.15	1.4855	6.17945	0.61795
308.15	1.60935	6.14476	0.61448
308.15	1.7981	5.91188	0.59119
308.15	1.9388	5.55159	0.55516

System: water + cobalt(II) sulfate; phases: Liquid
Fixed: Pressure, kPa = 100
Fixed: Temperature, K = 298.15
Property: Mass density, kg/m3 (Liquid); method: VIBTUB:UFactor:4
Ratio of amount of solute to mass of solution, mol/kg of cobalt(II) sulfate	Mass density, kg/m3	uncertainty
0.00551	997.94	2.16
0.02535	1001.16	2.17
0.05135	1005.36	2.19
0.10139	1013.44	2.24
0.25225	1038.18	2.39
0.49488	1079.59	2.65
0.77057	1129.58	2.97
0.98266	1170.36	3.24
1.15112	1204.34	3.47
1.25691	1227.86	3.63
1.51929	1286.2	4.05
1.71911	1331.86	4.38

System: water + cobalt(II) sulfate; phases: Liquid
Fixed: Pressure, kPa = 100
Property: Electrical conductivity, S/m (Liquid); method: Alternating current cell with electrodes
Temperature, K	Ratio of amount of solute to mass of solution, mol/kg of cobalt(II) sulfate	Electrical conductivity, S/m	uncertainty
278.15	0.00551	0.05743	0.00574
278.15	0.02535	0.19985	0.01999
278.15	0.05135	0.33846	0.03385
278.15	0.10139	0.57972	0.05797
278.15	0.25225	1.18567	0.11857
278.15	0.49488	1.96576	0.19658
278.15	0.77057	2.63363	0.26336
278.15	0.98266	2.98817	0.29882
278.15	1.15112	3.16664	0.31666
278.15	1.25691	3.22711	0.32271
278.15	1.51929	3.18593	0.31859
278.15	1.71911	3.03433	0.30343
283.15	0.00551	0.06599	0.0066
283.15	0.02535	0.2293	0.02293
283.15	0.05135	0.38817	0.03882
283.15	0.10139	0.66452	0.06645
283.15	0.25225	1.35907	0.13591
283.15	0.49488	2.25438	0.22544
283.15	0.77057	3.02518	0.30252
283.15	0.98266	3.44021	0.34402
283.15	1.15112	3.65552	0.36555
283.15	1.25691	3.72802	0.3728
283.15	1.51929	3.70856	0.37086
283.15	1.71911	3.58548	0.35855
288.15	0.00551	0.07486	0.00749
288.15	0.02535	0.25964	0.02596
288.15	0.05135	0.43926	0.04393
288.15	0.10139	0.7519	0.07519
288.15	0.25225	1.53747	0.15375
288.15	0.49488	2.55154	0.25515
288.15	0.77057	3.43012	0.34301
288.15	0.98266	3.91021	0.39102
288.15	1.15112	4.16719	0.41672
288.15	1.25691	4.26146	0.42615
288.15	1.51929	4.26214	0.42621
288.15	1.71911	4.1699	0.41699
293.15	0.00551	0.08401	0.0084
293.15	0.02535	0.29064	0.02906
293.15	0.05135	0.49141	0.04914
293.15	0.10139	0.84078	0.08408
293.15	0.25225	1.71918	0.17192
293.15	0.49488	2.85655	0.28566
293.15	0.77057	3.84641	0.38464
293.15	0.98266	4.39459	0.43946
293.15	1.15112	4.69545	0.46955
293.15	1.25691	4.80987	0.48099
293.15	1.51929	4.83871	0.48387
293.15	1.71911	4.76311	0.47631
298.15	0.00551	0.09334	0.00933
298.15	0.02535	0.32196	0.0322
298.15	0.05135	0.54391	0.05439
298.15	0.10139	0.93031	0.09303
298.15	0.25225	1.90234	0.19023
298.15	0.49488	3.16352	0.31635
298.15	0.77057	4.26959	0.42696
298.15	0.98266	4.88849	0.48885
298.15	1.15112	5.23458	0.52346
298.15	1.25691	5.37181	0.53718
298.15	1.51929	5.43299	0.5433
298.15	1.71911	5.37382	0.53738
303.15	0.00551	0.10282	0.01028
303.15	0.02535	0.35361	0.03536
303.15	0.05135	0.59667	0.05967
303.15	0.10139	1.01994	0.10199
303.15	0.25225	2.08584	0.20858
303.15	0.49488	3.47325	0.34733
303.15	0.77057	4.69551	0.46955
303.15	0.98266	5.38871	0.53887
303.15	1.15112	5.7829	0.57829
303.15	1.25691	5.94442	0.59444
303.15	1.51929	6.04195	0.6042
303.15	1.71911	6.0049	0.60049
308.15	0.00551	0.11237	0.01124
308.15	0.02535	0.38508	0.03851
308.15	0.05135	0.6491	0.06491
308.15	0.10139	1.10875	0.11088
308.15	0.25225	2.26781	0.22678
308.15	0.49488	3.77999	0.378
308.15	0.77057	5.12075	0.51208
308.15	0.98266	5.88922	0.58892
308.15	1.15112	6.33447	0.63345
308.15	1.25691	6.51947	0.65195
308.15	1.51929	6.65797	0.6658
308.15	1.71911	6.6468	0.66468

System: water + copper sulfate; phases: Liquid
Fixed: Pressure, kPa = 100
Fixed: Temperature, K = 298.15
Property: Mass density, kg/m3 (Liquid); method: VIBTUB:UFactor:4
Ratio of amount of solute to mass of solution, mol/kg of copper sulfate	Mass density, kg/m3	uncertainty
0.00666	998.16	2.16
0.02534	1001.26	2.17
0.04942	1005.23	2.19
0.09691	1013.09	2.24
0.25349	1039.39	2.4
0.3778	1060.88	2.53
0.4881	1080.51	2.66
0.68062	1115.98	2.88
0.79347	1137.68	3.03
0.91975	1162.72	3.19
1.03712	1186.79	3.35
1.13837	1208.14	3.5
1.1981	1220.58	3.58

System: water + copper sulfate; phases: Liquid
Fixed: Pressure, kPa = 100
Property: Electrical conductivity, S/m (Liquid); method: Alternating current cell with electrodes
Temperature, K	Ratio of amount of solute to mass of solution, mol/kg of copper sulfate	Electrical conductivity, S/m	uncertainty
278.15	0.00666	0.06658	0.00666
278.15	0.02534	0.19599	0.0196
278.15	0.04942	0.31936	0.03194
278.15	0.09691	0.54319	0.05432
278.15	0.25349	1.16909	0.11691
278.15	0.3778	1.60674	0.16067
278.15	0.4881	1.94801	0.1948
278.15	0.68062	2.49395	0.2494
278.15	0.79347	2.75214	0.27521
278.15	0.91975	3.00347	0.30035
278.15	1.03712	3.22053	0.32205
278.15	1.13837	3.33657	0.33366
278.15	1.1981	3.40149	0.34015
283.15	0.00666	0.07627	0.00763
283.15	0.02534	0.22421	0.02242
283.15	0.04942	0.36528	0.03653
283.15	0.09691	0.62108	0.06211
283.15	0.25349	1.33669	0.13367
283.15	0.3778	1.83512	0.18351
283.15	0.4881	2.2289	0.22289
283.15	0.68062	2.85367	0.28537
283.15	0.79347	3.15377	0.31538
283.15	0.91975	3.45278	0.34528
283.15	1.03712	3.70303	0.3703
283.15	1.13837	3.85155	0.38516
283.15	1.1981	3.92907	0.39291
288.15	0.00666	0.08628	0.00863
288.15	0.02534	0.25305	0.02531
288.15	0.04942	0.412	0.0412
288.15	0.09691	0.70039	0.07004
288.15	0.25349	1.50758	0.15076
288.15	0.3778	2.069	0.2069
288.15	0.4881	2.5174	0.25174
288.15	0.68062	3.22569	0.32257
288.15	0.79347	3.57232	0.35723
288.15	0.91975	3.91843	0.39184
288.15	1.03712	4.20763	0.42076
288.15	1.13837	4.38816	0.43882
288.15	1.1981	4.48291	0.44829
293.15	0.00666	0.09649	0.00965
293.15	0.02534	0.2822	0.02822
293.15	0.04942	0.45918	0.04592
293.15	0.09691	0.78017	0.07802
293.15	0.25349	1.67969	0.16797
293.15	0.3778	2.30527	0.23053
293.15	0.4881	2.80951	0.28095
293.15	0.68062	3.60393	0.36039
293.15	0.79347	4.00015	0.40002
293.15	0.91975	4.39618	0.43962
293.15	1.03712	4.7258	0.47258
293.15	1.13837	4.94351	0.49435
293.15	1.1981	5.05533	0.50553
298.15	0.00666	0.10688	0.01069
298.15	0.02534	0.31147	0.03115
298.15	0.04942	0.5063	0.05063
298.15	0.09691	0.85965	0.08597
298.15	0.25349	1.85183	0.18518
298.15	0.3778	2.54124	0.25412
298.15	0.4881	3.10251	0.31025
298.15	0.68062	3.98522	0.39852
298.15	0.79347	4.4331	0.44331
298.15	0.91975	4.88061	0.48806
298.15	1.03712	5.25388	0.52539
298.15	1.13837	5.51046	0.55105
298.15	1.1981	5.64149	0.56415
303.15	0.00666	0.11723	0.01172
303.15	0.02534	0.34029	0.03403
303.15	0.04942	0.55273	0.05527
303.15	0.09691	0.93772	0.09377
303.15	0.25349	2.02082	0.20208
303.15	0.3778	2.77512	0.27751
303.15	0.4881	3.39262	0.33926
303.15	0.68062	4.3662	0.43662
303.15	0.79347	4.86534	0.48653
303.15	0.91975	5.36684	0.53668
303.15	1.03712	5.78696	0.5787
303.15	1.13837	6.08324	0.60832
303.15	1.1981	6.23693	0.62369
308.15	0.00666	0.12752	0.01275
308.15	0.02534	0.36859	0.03686
308.15	0.04942	0.59786	0.05979
308.15	0.09691	1.01366	0.10137
308.15	0.25349	2.18569	0.21857
308.15	0.3778	3.00356	0.30036
308.15	0.4881	3.67729	0.36773
308.15	0.68062	4.74156	0.47416
308.15	0.79347	5.29362	0.52936
308.15	0.91975	5.85037	0.58504
308.15	1.03712	6.31785	0.63179
308.15	1.13837	6.65776	0.66578
308.15	1.1981	6.83381	0.68338

System: water + manganese(II) sulfate; phases: Liquid
Fixed: Pressure, kPa = 100
Fixed: Temperature, K = 298.15
Property: Mass density, kg/m3 (Liquid); method: VIBTUB:UFactor:4
Ratio of amount of solute to mass of solution, mol/kg of manganese(II) sulfate	Mass density, kg/m3	uncertainty
0.00499	997.79	2.16
0.00999	998.55	2.16
0.01997	1000.02	2.16
0.05028	1004.5	2.2
0.10046	1011.91	2.23
0.19907	1026.55	2.32
0.31592	1044.23	2.43
0.49631	1072.29	2.61
0.74417	1112.53	2.86
0.9865	1153.87	3.13
1.20804	1194.32	3.4
1.3844	1227.02	3.63
1.65345	1280.18	4
1.82625	1318.47	4.28
2.08227	1371.35	4.67
2.18923	1398.09	4.87
2.43423	1452.93	5.3

System: water + manganese(II) sulfate; phases: Liquid
Fixed: Pressure, kPa = 100
Property: Electrical conductivity, S/m (Liquid); method: Alternating current cell with electrodes
Temperature, K	Ratio of amount of solute to mass of solution, mol/kg of manganese(II) sulfate	Electrical conductivity, S/m	uncertainty
278.15	0.00499	0.05236	0.00524
278.15	0.00999	0.09222	0.00922
278.15	0.01997	0.16031	0.01603
278.15	0.05028	0.33305	0.03331
278.15	0.10046	0.57539	0.05754
278.15	0.19907	1.0098	0.10098
278.15	0.31592	1.39247	0.13925
278.15	0.49631	1.93302	0.1933
278.15	0.74417	2.50265	0.25027
278.15	0.9865	2.94844	0.29484
278.15	1.20804	3.0678	0.30678
278.15	1.3844	3.10369	0.31037
278.15	1.65345	2.97707	0.29771
278.15	1.82625	2.77937	0.27794
278.15	2.08227	2.41317	0.24132
278.15	2.18923	2.18669	0.21867
278.15	2.43423	1.598	0.1598
283.15	0.00499	0.06	0.006
283.15	0.00999	0.10559	0.01056
283.15	0.01997	0.18326	0.01833
283.15	0.05028	0.3802	0.03802
283.15	0.10046	0.65623	0.06562
283.15	0.19907	1.15014	0.11501
283.15	0.31592	1.5856	0.15856
283.15	0.49631	2.20109	0.22011
283.15	0.74417	2.85161	0.28516
283.15	0.9865	3.36235	0.33624
283.15	1.20804	3.51271	0.35127
283.15	1.3844	3.56515	0.35652
283.15	1.65345	3.44409	0.34441
283.15	1.82625	3.24756	0.32476
283.15	2.08227	2.83936	0.28394
283.15	2.18923	2.59961	0.25996
283.15	2.43423	1.92591	0.19259
288.15	0.00499	0.06796	0.0068
288.15	0.00999	0.11941	0.01194
288.15	0.01997	0.20689	0.02069
288.15	0.05028	0.4285	0.04285
288.15	0.10046	0.73881	0.07388
288.15	0.19907	1.29321	0.12932
288.15	0.31592	1.78214	0.17821
288.15	0.49631	2.47473	0.24747
288.15	0.74417	3.20936	0.32094
288.15	0.9865	3.78663	0.37866
288.15	1.20804	3.9716	0.39716
288.15	1.3844	4.04307	0.40431
288.15	1.65345	3.93226	0.39323
288.15	1.82625	3.7228	0.37228
288.15	2.08227	3.29089	0.32909
288.15	2.18923	3.02394	0.30239
288.15	2.43423	2.28173	0.22817
293.15	0.00499	0.07611	0.00761
293.15	0.00999	0.13354	0.01335
293.15	0.01997	0.23091	0.02309
293.15	0.05028	0.47724	0.04772
293.15	0.10046	0.82192	0.08219
293.15	0.19907	1.43702	0.1437
293.15	0.31592	1.98028	0.19803
293.15	0.49631	2.75094	0.27509
293.15	0.74417	3.57116	0.35712
293.15	0.9865	4.21694	0.42169
293.15	1.20804	4.43973	0.44397
293.15	1.3844	4.53241	0.45324
293.15	1.65345	4.43451	0.44345
293.15	1.82625	4.21098	0.4211
293.15	2.08227	3.76172	0.37617
293.15	2.18923	3.46536	0.34654
293.15	2.43423	2.66092	0.26609
298.15	0.00499	0.08441	0.00844
298.15	0.00999	0.14783	0.01478
298.15	0.01997	0.25508	0.02551
298.15	0.05028	0.52607	0.05261
298.15	0.10046	0.9049	0.09049
298.15	0.19907	1.58024	0.15802
298.15	0.31592	2.17715	0.21772
298.15	0.49631	3.02621	0.30262
298.15	0.74417	3.93241	0.39324
298.15	0.9865	4.64679	0.46468
298.15	1.20804	4.9109	0.49109
298.15	1.3844	5.02635	0.50264
298.15	1.65345	4.94545	0.49455
298.15	1.82625	4.7182	0.47182
298.15	2.08227	4.24649	0.42465
298.15	2.18923	3.92965	0.39297
298.15	2.43423	3.05978	0.30598
303.15	0.00499	0.09283	0.00928
303.15	0.00999	0.16225	0.01623
303.15	0.01997	0.27926	0.02793
303.15	0.05028	0.57459	0.05746
303.15	0.10046	0.98715	0.09872
303.15	0.19907	1.72187	0.17219
303.15	0.31592	2.37246	0.23725
303.15	0.49631	3.29981	0.32998
303.15	0.74417	4.29285	0.42929
303.15	0.9865	5.07637	0.50764
303.15	1.20804	5.38271	0.53827
303.15	1.3844	5.52395	0.5524
303.15	1.65345	5.46256	0.54626
303.15	1.82625	5.23425	0.52343
303.15	2.08227	4.74222	0.47422
303.15	2.18923	4.40655	0.44066
303.15	2.43423	3.47561	0.34756
308.15	0.00499	0.10127	0.01013
308.15	0.00999	0.17659	0.01766
308.15	0.01997	0.30317	0.03032
308.15	0.05028	0.62218	0.06222
308.15	0.10046	1.06749	0.10675
308.15	0.19907	1.85991	0.18599
308.15	0.31592	2.56305	0.25631
308.15	0.49631	3.56722	0.35672
308.15	0.74417	4.64611	0.46461
308.15	0.9865	5.49735	0.54974
308.15	1.20804	5.84947	0.58495
308.15	1.3844	6.01635	0.60164
308.15	1.65345	5.97759	0.59776
308.15	1.82625	5.75034	0.57503
308.15	2.08227	5.24275	0.52428
308.15	2.18923	4.88859	0.48886
308.15	2.43423	3.90332	0.39033

System: water + nickel monosulfate; phases: Liquid
Fixed: Pressure, kPa = 100
Fixed: Temperature, K = 298.15
Property: Mass density, kg/m3 (Liquid); method: VIBTUB:UFactor:4
Ratio of amount of solute to mass of solution, mol/kg of nickel monosulfate	Mass density, kg/m3	uncertainty
0.006	998.02	2.16
0.02566	1001.23	2.17
0.04922	1005.09	2.19
0.12204	1017.09	2.26
0.25002	1038.54	2.39
0.36742	1058.67	2.52
0.49875	1081.77	2.67
0.67996	1114.8	2.88
0.7969	1136.9	3.02
1.02243	1181.4	3.32
1.15568	1208.94	3.5
1.39353	1260.5	3.86
1.6005	1308	4.2
1.7834	1351.92	4.53

System: water + nickel monosulfate; phases: Liquid
Fixed: Pressure, kPa = 100
Property: Electrical conductivity, S/m (Liquid); method: Alternating current cell with electrodes
Temperature, K	Ratio of amount of solute to mass of solution, mol/kg of nickel monosulfate	Electrical conductivity, S/m	uncertainty
278.15	0.006	0.0606	0.00606
278.15	0.02566	0.19237	0.01924
278.15	0.04922	0.32058	0.03206
278.15	0.12204	0.65574	0.06557
278.15	0.25002	1.18426	0.11843
278.15	0.36742	1.54703	0.1547
278.15	0.49875	1.9365	0.19365
278.15	0.67996	2.39448	0.23945
278.15	0.7969	2.63944	0.26394
278.15	1.02243	2.9948	0.29948
278.15	1.15568	3.12638	0.31264
278.15	1.39353	3.20673	0.32067
278.15	1.6005	3.10568	0.31057
278.15	1.7834	2.89419	0.28942
283.15	0.006	0.06959	0.00696
283.15	0.02566	0.22073	0.02207
283.15	0.04922	0.36813	0.03681
283.15	0.12204	0.75273	0.07527
283.15	0.25002	1.35918	0.13592
283.15	0.36742	1.77608	0.17761
283.15	0.49875	2.22574	0.22257
283.15	0.67996	2.75403	0.2754
283.15	0.7969	3.0382	0.30382
283.15	1.02243	3.45597	0.3456
283.15	1.15568	3.61905	0.36191
283.15	1.39353	3.7338	0.37338
283.15	1.6005	3.63856	0.36386
283.15	1.7834	3.42387	0.34239
288.15	0.006	0.07895	0.0079
288.15	0.02566	0.2501	0.02501
288.15	0.04922	0.41676	0.04168
288.15	0.12204	0.85223	0.08522
288.15	0.25002	1.53827	0.15383
288.15	0.36742	2.01217	0.20122
288.15	0.49875	2.52106	0.25211
288.15	0.67996	3.12481	0.31248
288.15	0.7969	3.45193	0.34519
288.15	1.02243	3.93902	0.3939
288.15	1.15568	4.1323	0.41323
288.15	1.39353	4.28784	0.42878
288.15	1.6005	4.2024	0.42024
288.15	1.7834	3.99009	0.39901
288.15	0.006	0.07895	0.0079
288.15	0.02566	0.2501	0.02501
288.15	0.04922	0.41676	0.04168
288.15	0.12204	0.85223	0.08522
288.15	0.25002	1.53827	0.15383
288.15	0.36742	2.01217	0.20122
288.15	0.49875	2.52106	0.25211
288.15	0.67996	3.12481	0.31248
288.15	0.7969	3.45193	0.34519
288.15	1.02243	3.93902	0.3939
288.15	1.15568	4.1323	0.41323
288.15	1.39353	4.28784	0.42878
288.15	1.6005	4.2024	0.42024
288.15	1.7834	3.99009	0.39901
293.15	0.006	0.08859	0.00886
293.15	0.02566	0.28004	0.028
293.15	0.04922	0.46675	0.04668
293.15	0.12204	0.95356	0.09536
293.15	0.25002	1.72117	0.17212
293.15	0.36742	2.25423	0.22542
293.15	0.49875	2.82596	0.2826
293.15	0.67996	3.50595	0.3506
293.15	0.7969	3.87749	0.38775
293.15	1.02243	4.43774	0.44377
293.15	1.15568	4.66637	0.46664
293.15	1.39353	4.86672	0.48667
293.15	1.6005	4.8004	0.48004
293.15	1.7834	4.58807	0.45881
298.15	0.006	0.09844	0.00984
298.15	0.02566	0.31049	0.03105
298.15	0.04922	0.5171	0.05171
298.15	0.12204	1.05647	0.10565
298.15	0.25002	1.90744	0.19074
298.15	0.36742	2.49921	0.24992
298.15	0.49875	3.13645	0.31365
298.15	0.67996	3.89628	0.38963
298.15	0.7969	4.31308	0.43131
298.15	1.02243	4.94935	0.49494
298.15	1.15568	5.21517	0.52152
298.15	1.39353	5.46561	0.54656
298.15	1.6005	5.41711	0.54171
298.15	1.7834	5.2156	0.52156
303.15	0.006	0.10847	0.01085
303.15	0.02566	0.3412	0.03412
303.15	0.04922	0.56788	0.05679
303.15	0.12204	1.15907	0.11591
303.15	0.25002	2.09251	0.20925
303.15	0.36742	2.74632	0.27463
303.15	0.49875	3.44689	0.34469
303.15	0.67996	4.28656	0.42866
303.15	0.7969	4.75175	0.47518
303.15	1.02243	5.46992	0.54699
303.15	1.15568	5.77151	0.57715
303.15	1.39353	6.07843	0.60784
303.15	1.6005	6.05528	0.60553
303.15	1.7834	5.86395	0.5864
308.15	0.006	0.11859	0.01186
308.15	0.02566	0.37174	0.03717
308.15	0.04922	0.6183	0.06183
308.15	0.12204	1.26139	0.12614
308.15	0.25002	2.27711	0.22771
308.15	0.36742	2.99148	0.29915
308.15	0.49875	3.75846	0.37585
308.15	0.67996	4.626	0.4626
308.15	0.7969	5.19355	0.51936
308.15	1.02243	5.99304	0.5993
308.15	1.15568	6.3369	0.63369
308.15	1.39353	6.69858	0.66986
308.15	1.6005	6.7028	0.67028
308.15	1.7834	6.53159	0.65316

System: water + zinc sulfate; phases: Liquid
Fixed: Pressure, kPa = 100
Fixed: Temperature, K = 298.15
Property: Mass density, kg/m3 (Liquid); method: VIBTUB:UFactor:4
Ratio of amount of solute to mass of solution, mol/kg of zinc sulfate	Mass density, kg/m3	uncertainty
0.00628	998.09	2.16
0.02608	1001.41	2.17
0.05064	1005.55	2.19
0.10228	1014.14	2.25
0.20773	1031.96	2.35
0.4748	1078.96	2.65
0.74527	1129.79	2.97
0.95627	1171.99	3.25
1.19075	1221.75	3.59
1.29799	1250.72	3.79
1.48915	1293.66	4.1
1.62268	1326.7	4.3
1.82583	1377.89	4.72

System: water + zinc sulfate; phases: Liquid
Fixed: Pressure, kPa = 100
Property: Electrical conductivity, S/m (Liquid); method: Alternating current cell with electrodes
Temperature, K	Ratio of amount of solute to mass of solution, mol/kg of zinc sulfate	Electrical conductivity, S/m	uncertainty
278.15	0.00628	0.0627	0.00627
278.15	0.02608	0.20358	0.02036
278.15	0.05064	0.33305	0.03331
278.15	0.10228	0.58112	0.05811
278.15	0.20773	1.01872	0.10187
278.15	0.4748	1.92158	0.19216
278.15	0.74527	2.61715	0.26172
278.15	0.95627	3.00782	0.30078
278.15	1.19075	3.27371	0.32737
278.15	1.29799	3.33836	0.33384
278.15	1.48915	3.32307	0.33231
278.15	1.62268	3.21829	0.32183
278.15	1.82583	2.95697	0.2957
283.15	0.00628	0.07199	0.0072
283.15	0.02608	0.23341	0.02334
283.15	0.05064	0.38173	0.03817
283.15	0.10228	0.66588	0.06659
283.15	0.20773	1.16851	0.11685
283.15	0.4748	2.20214	0.22021
283.15	0.74527	3.00362	0.30036
283.15	0.95627	3.46034	0.34603
283.15	1.19075	3.78095	0.3781
283.15	1.29799	3.86526	0.38653
283.15	1.48915	3.86975	0.38698
283.15	1.62268	3.76644	0.37664
283.15	1.82583	3.49425	0.34943
288.15	0.00628	0.08164	0.00816
288.15	0.02608	0.26413	0.02641
288.15	0.05064	0.43179	0.04318
288.15	0.10228	0.75295	0.0753
288.15	0.20773	1.31995	0.132
288.15	0.4748	2.49175	0.24918
288.15	0.74527	3.40435	0.34044
288.15	0.95627	3.84753	0.38475
288.15	1.19075	4.31113	0.43111
288.15	1.29799	4.42032	0.44203
288.15	1.48915	4.44884	0.44488
288.15	1.62268	4.34889	0.43489
288.15	1.82583	4.07217	0.40722
293.15	0.00628	0.09155	0.00916
293.15	0.02608	0.29548	0.02955
293.15	0.05064	0.48272	0.04827
293.15	0.10228	0.8414	0.08414
293.15	0.20773	1.47503	0.1475
293.15	0.4748	2.78667	0.27867
293.15	0.74527	3.81485	0.38149
293.15	0.95627	4.41459	0.44146
293.15	1.19075	4.86172	0.48617
293.15	1.29799	4.99669	0.49967
293.15	1.48915	5.0534	0.50534
293.15	1.62268	4.96089	0.49609
293.15	1.82583	4.68329	0.46833
298.15	0.00628	0.1017	0.01017
298.15	0.02608	0.32731	0.03273
298.15	0.05064	0.5342	0.05342
298.15	0.10228	0.93057	0.09306
298.15	0.20773	1.63123	0.16312
298.15	0.4748	3.08529	0.30853
298.15	0.74527	4.23141	0.42314
298.15	0.95627	4.90795	0.4908
298.15	1.19075	5.4248	0.54248
298.15	1.29799	5.58874	0.55887
298.15	1.48915	5.67813	0.56781
298.15	1.62268	5.59633	0.55963
298.15	1.82583	5.32355	0.53236
303.15	0.00628	0.11192	0.01119
303.15	0.02608	0.35903	0.0359
303.15	0.05064	0.58547	0.05855
303.15	0.10228	1.01935	0.10194
303.15	0.20773	1.78664	0.17866
303.15	0.4748	3.38386	0.33839
303.15	0.74527	4.65057	0.46506
303.15	0.95627	5.40674	0.54067
303.15	1.19075	5.99613	0.59961
303.15	1.29799	6.19422	0.61942
303.15	1.48915	6.32038	0.63204
303.15	1.62268	6.25217	0.62522
303.15	1.82583	5.98961	0.59896
308.15	0.00628	0.12223	0.01222
308.15	0.02608	0.39067	0.03907
308.15	0.05064	0.6376	0.06376
308.15	0.10228	1.10723	0.11072
308.15	0.20773	1.94072	0.19407
308.15	0.4748	3.67951	0.36795
308.15	0.74527	5.06831	0.50683
308.15	0.95627	5.90596	0.5906
308.15	1.19075	6.57311	0.65731
308.15	1.29799	6.80446	0.68045
308.15	1.48915	6.97251	0.69725
308.15	1.62268	6.91539	0.69154
308.15	1.82583	6.67451	0.66745
