Measured thermophysical data. Vapor Pressures and Liquid Densities of Ammonium Chloride + Ammonia Mixtures
Source: J. Chem. Eng. Data, 2008, 10.1021/je8001267
Compound 1: ammonium chloride (NH4Cl), ClH4N, InChI=1S/ClH.H3N/h1H;1H3
Compound 2: ammonia, H3N, InChI=1S/H3N/h1H3

System: ammonia; phases: Liquid, Gas
Property: Vapor or sublimation pressure, kPa (Liquid); method: Closed cell (Static) method
Temperature, K	Vapor or sublimation pressure, kPa	uncertainty
303.12	1166	12
313.14	1553	16
323.16	2030	21
333.13	2609	26
343.13	3305	34
353.13	4132	42
363.12	5105	52
373.16	6243	63

System: ammonia + ammonium chloride (NH4Cl); phases: Liquid, Gas
Property: Vapor or sublimation pressure, kPa (Liquid); method: Closed cell (Static) method
Temperature, K	Mass fraction of ammonium chloride (NH4Cl)	Vapor or sublimation pressure, kPa	uncertainty
303.12	0.1091	1155	12
303.12	0.2363	1140	12
303.12	0.3328	1043	11
303.12	0.4232	932	10
303.12	0.4923	764	8
313.14	0.1098	1538	16
313.14	0.2369	1500	16
313.14	0.3341	1400	15
313.14	0.4246	1222	13
313.14	0.4936	1017	11
323.16	0.1105	2002	21
323.16	0.2376	1959	20
323.16	0.3356	1843	19
323.16	0.4262	1598	17
323.16	0.4954	1350	14
333.13	0.1114	2573	27
333.13	0.2384	2524	26
333.13	0.3374	2399	25
333.13	0.4282	2084	22
333.13	0.4973	1756	19
343.13	0.1124	3261	34
343.13	0.2392	3203	33
343.13	0.3394	3063	32
343.13	0.4305	2674	28
343.13	0.4995	2250	24
353.13	0.1136	4088	43
353.13	0.2401	4032	42
353.13	0.3416	3858	40
353.13	0.433	3380	35
353.13	0.502	2839	30
363.12	0.115	5065	53
363.12	0.2413	5022	52
363.12	0.3445	4815	50
363.12	0.4361	4208	44
363.12	0.5046	3525	37
373.16	0.1166	6212	65
373.16	0.2424	6176	64
373.16	0.3475	5941	62
373.16	0.4393	5177	54
373.16	0.5074	4317	46

System: ammonia + ammonium chloride (NH4Cl); phases: Liquid
Property: Mass density, kg/m3 (Liquid); method: VIBTUB:UFactor:16
Temperature, K	Mass fraction of ammonium chloride (NH4Cl)	Pressure, kPa	Mass density, kg/m3	uncertainty
303.15	0.1133	10000	668.2	5
303.15	0.1133	15000	673.3	5.7
303.15	0.1133	20000	677.8	6.5
303.15	0.1133	25000	682.2	7.4
303.15	0.1133	30000	686.7	8.3
303.15	0.2224	10000	729.3	4.6
303.15	0.2224	15000	733.1	5.2
303.15	0.2224	20000	736.6	5.7
303.15	0.2224	25000	740.1	6.3
303.15	0.2224	30000	743.8	6.9
303.15	0.3134	10000	787.8	4.3
303.15	0.3134	15000	791.5	4.7
303.15	0.3134	20000	795.8	5.1
303.15	0.3134	25000	798.5	5.5
303.15	0.3134	30000	801.6	5.9
303.15	0.4285	10000	833	4.1
303.15	0.4285	15000	836.1	4.4
303.15	0.4285	20000	838.2	4.7
303.15	0.4285	25000	840.8	5
303.15	0.4285	30000	842.9	5.3
303.15	0.5068	10000	873.3	4
303.15	0.5068	15000	877.7	4.2
303.15	0.5068	20000	880.4	4.3
303.15	0.5068	25000	883.2	4.5
303.15	0.5068	30000	885.4	4.7
313.15	0.1133	10000	655.5	5.1
313.15	0.1133	15000	660.5	5.9
313.15	0.1133	20000	665.3	6.7
313.15	0.1133	25000	670.1	7.7
313.15	0.1133	30000	674.6	8.6
313.15	0.2224	10000	716	4.7
313.15	0.2224	15000	720.5	5.3
313.15	0.2224	20000	725.1	5.9
313.15	0.2224	25000	729.5	6.5
313.15	0.2224	30000	734.2	7.1
313.15	0.3134	10000	778.1	4.3
313.15	0.3134	15000	783.6	4.7
313.15	0.3134	20000	786.8	5.2
313.15	0.3134	25000	789.7	5.6
313.15	0.3134	30000	792.5	6.1
313.15	0.4285	10000	825.9	4.1
313.15	0.4285	15000	828.4	4.4
313.15	0.4285	20000	831	4.7
313.15	0.4285	25000	833.5	5
313.15	0.4285	30000	835.6	5.4
313.15	0.5068	10000	867.9	4
313.15	0.5068	15000	871.7	4.2
313.15	0.5068	20000	874.4	4.4
313.15	0.5068	25000	876.6	4.6
313.15	0.5068	30000	878.8	4.8
323.15	0.1133	10000	642.7	5.2
323.15	0.1133	15000	648.4	6
323.15	0.1133	20000	654.2	6.9
323.15	0.1133	25000	658.7	7.9
323.15	0.1133	30000	663.4	8.8
323.15	0.2224	10000	707.1	4.7
323.15	0.2224	15000	711.9	5.4
323.15	0.2224	20000	715.8	6
323.15	0.2224	25000	719.7	6.7
323.15	0.2224	30000	723.4	7.4
323.15	0.3134	10000	767.7	4.4
323.15	0.3134	15000	772.6	4.8
323.15	0.3134	20000	776.3	5.3
323.15	0.3134	25000	779.4	5.8
323.15	0.3134	30000	782.4	6.2
323.15	0.4285	10000	817.4	4.1
323.15	0.4285	15000	820.9	4.5
323.15	0.4285	20000	823.4	4.8
323.15	0.4285	25000	825.9	5.1
323.15	0.4285	30000	827.4	5.5
323.15	0.5068	10000	860	4
323.15	0.5068	15000	864.7	4.2
323.15	0.5068	20000	867.9	4.4
323.15	0.5068	25000	870.6	4.6
323.15	0.5068	30000	872.8	4.9
333.15	0.1133	10000	628.8	5.3
333.15	0.1133	15000	634.7	6.2
333.15	0.1133	20000	640.8	7.2
333.15	0.1133	25000	646.7	8.2
333.15	0.1133	30000	652.3	9.1
333.15	0.2224	10000	694.9	4.8
333.15	0.2224	15000	699.8	5.5
333.15	0.2224	20000	704.3	6.2
333.15	0.2224	25000	708.7	6.8
333.15	0.2224	30000	712.9	7.6
333.15	0.3134	10000	756.3	4.4
333.15	0.3134	15000	761.1	4.9
333.15	0.3134	20000	765.1	5.4
333.15	0.3134	25000	768.2	5.9
333.15	0.3134	30000	770.8	6.4
333.15	0.4285	10000	809.5	4.2
333.15	0.4285	15000	812.4	4.5
333.15	0.4285	20000	814.4	4.9
333.15	0.4285	25000	817.9	5.2
333.15	0.4285	30000	820.4	5.6
333.15	0.5068	10000	853.2	4
333.15	0.5068	15000	857.9	4.3
333.15	0.5068	20000	860.5	4.5
333.15	0.5068	25000	863.1	4.7
333.15	0.5068	30000	865.3	5
343.15	0.1133	10000	613.4	5.4
343.15	0.1133	15000	620.3	6.4
343.15	0.1133	20000	627.1	7.4
343.15	0.1133	25000	633.1	8.5
343.15	0.1133	30000	638.6	9.5
343.15	0.2224	10000	682.5	4.9
343.15	0.2224	15000	688.1	5.6
343.15	0.2224	20000	692.5	6.3
343.15	0.2224	25000	696.9	7.1
343.15	0.2224	30000	701.2	7.9
343.15	0.3134	10000	745.7	4.5
343.15	0.3134	15000	751.6	5
343.15	0.3134	20000	755	5.5
343.15	0.3134	25000	758.3	6.1
343.15	0.3134	30000	761.1	6.6
343.15	0.4285	10000	801.9	4.2
343.15	0.4285	15000	805.2	4.6
343.15	0.4285	20000	807.6	4.9
343.15	0.4285	25000	810	5.3
343.15	0.4285	30000	812	5.7
343.15	0.5068	10000	846	4.1
343.15	0.5068	15000	850.6	4.3
343.15	0.5068	20000	854.2	4.5
343.15	0.5068	25000	857.4	4.8
343.15	0.5068	30000	859.7	5
353.15	0.1133	10000	597.6	5.6
353.15	0.1133	15000	605.7	6.6
353.15	0.1133	20000	612.9	7.7
353.15	0.1133	25000	619.7	8.8
353.15	0.1133	30000	626.1	9.8
353.15	0.2224	10000	669.2	5
353.15	0.2224	15000	675.5	5.7
353.15	0.2224	20000	680.2	6.5
353.15	0.2224	25000	684.7	7.3
353.15	0.2224	30000	689.2	8.2
353.15	0.3134	10000	735.4	4.5
353.15	0.3134	15000	741.5	5.1
353.15	0.3134	20000	746.5	5.6
353.15	0.3134	25000	750.3	6.2
353.15	0.3134	30000	754	6.7
353.15	0.4285	10000	793.4	4.2
353.15	0.4285	15000	796.6	4.6
353.15	0.4285	20000	799.5	5
353.15	0.4285	25000	801.9	5.4
353.15	0.4285	30000	804.2	5.9
353.15	0.5068	10000	838	4.1
353.15	0.5068	15000	844	4.3
353.15	0.5068	20000	847.5	4.6
353.15	0.5068	25000	850.1	4.9
353.15	0.5068	30000	852.7	5.1
363.15	0.1133	10000	581.2	5.7
363.15	0.1133	15000	588.8	6.9
363.15	0.1133	20000	596.4	8
363.15	0.1133	25000	603.4	9.1
363.15	0.1133	30000	610.6	10.2
363.15	0.2224	10000	654.5	5.1
363.15	0.2224	15000	661.6	5.9
363.15	0.2224	20000	667.3	6.7
363.15	0.2224	25000	672.2	7.6
363.15	0.2224	30000	677.3	8.5
363.15	0.3134	10000	724.1	4.6
363.15	0.3134	15000	731.7	5.2
363.15	0.3134	20000	736.8	5.8
363.15	0.3134	25000	741.5	6.3
363.15	0.3134	30000	745.7	6.9
363.15	0.4285	10000	784.2	4.3
363.15	0.4285	15000	789.2	4.7
363.15	0.4285	20000	792	5.1
363.15	0.4285	25000	794.3	5.6
363.15	0.4285	30000	796.4	6
363.15	0.5068	10000	830.5	4.1
363.15	0.5068	15000	837	4.4
363.15	0.5068	20000	840.5	4.7
363.15	0.5068	25000	843.5	4.9
363.15	0.5068	30000	846	5.2
373.15	0.1133	10000	568.8	5.9
373.15	0.1133	15000	577.2	7.1
373.15	0.1133	20000	585.5	8.2
373.15	0.1133	25000	593	9.3
373.15	0.1133	30000	600.3	10.4
373.15	0.2224	10000	644.4	5.2
373.15	0.2224	15000	651.7	6
373.15	0.2224	20000	657.3	6.9
373.15	0.2224	25000	662.3	7.8
373.15	0.2224	30000	667.2	8.8
373.15	0.3134	10000	713.8	4.7
373.15	0.3134	15000	721.3	5.3
373.15	0.3134	20000	726.2	5.9
373.15	0.3134	25000	730.7	6.5
373.15	0.3134	30000	734.6	7.1
373.15	0.4285	10000	776.9	4.3
373.15	0.4285	15000	781.3	4.8
373.15	0.4285	20000	784.1	5.2
373.15	0.4285	25000	786.5	5.7
373.15	0.4285	30000	788.7	6.2
373.15	0.5068	10000	823.8	4.1
373.15	0.5068	15000	830.3	4.4
373.15	0.5068	20000	834	4.7
373.15	0.5068	25000	837	5
373.15	0.5068	30000	839.6	5.3
