Measured thermophysical data. Excess Molar Volumes and Surface Tensions of 1,2,4-Trimethylbenzene and 1,3,5-Trimethylbenzene with Isopropyl Acetate and Isobutyl Acetate at (298.15, 308.15, and 313.15) K
Source: J. Chem. Eng. Data, 2008, 10.1021/je800046k
Compound 1: 1,2,4-trimethylbenzene, C9H12, InChI=1S/C9H12/c1-7-4-5-8(2)9(3)6-7/h4-6H,1-3H3
Compound 2: 1,3,5-trimethylbenzene, C9H12, InChI=1S/C9H12/c1-7-4-8(2)6-9(3)5-7/h4-6H,1-3H3
Compound 3: 1-methylethyl ethanoate, C5H10O2, InChI=1S/C5H10O2/c1-4(2)7-5(3)6/h4H,1-3H3
Compound 4: 2-methylpropyl ethanoate, C6H12O2, InChI=1S/C6H12O2/c1-5(2)4-8-6(3)7/h5H,4H2,1-3H3

System: 1,2,4-trimethylbenzene; phases: Liquid, Air at 1 atmosphere
Property: Surface tension liquid-gas, N/m (Liquid); method: Pendant drop shape
Temperature, K	Surface tension liquid-gas, N/m	uncertainty
298.15	0.0293	0.00033
308.15	0.02824	0.00032
313.15	0.02771	0.00031

System: 1,2,4-trimethylbenzene; phases: Liquid
Fixed: Pressure, kPa = 101
Property: Mass density, kg/m3 (Liquid); method: VIBTUB:UFactor:4
Temperature, K	Mass density, kg/m3	uncertainty
298.15	871.71	0.54
308.15	863.68	0.56
313.15	859.58	0.56

System: 1,3,5-trimethylbenzene; phases: Liquid, Air at 1 atmosphere
Property: Surface tension liquid-gas, N/m (Liquid); method: Pendant drop shape
Temperature, K	Surface tension liquid-gas, N/m	uncertainty
298.15	0.02805	0.00031
308.15	0.02721	0.0003
313.15	0.02678	0.0003

System: 1,3,5-trimethylbenzene; phases: Liquid
Fixed: Pressure, kPa = 101
Property: Mass density, kg/m3 (Liquid); method: VIBTUB::UFactor:4
Temperature, K	Mass density, kg/m3	uncertainty
298.15	861.12	0.41
308.15	852.94	0.42
313.15	848.82	0.43

System: 1-methylethyl ethanoate; phases: Liquid, Air at 1 atmosphere
Property: Surface tension liquid-gas, N/m (Liquid); method: Pendant drop shape
Temperature, K	Surface tension liquid-gas, N/m	uncertainty
298.15	0.02189	0.00025
308.15	0.02081	0.00024
313.15	0.02029	0.00024

System: 1-methylethyl ethanoate; phases: Liquid
Fixed: Pressure, kPa = 101
Property: Mass density, kg/m3 (Liquid); method: VIBTUB:UFactor:4
Temperature, K	Mass density, kg/m3	uncertainty
298.15	866.25	0.44
308.15	854.54	0.46
313.15	848.61	0.47

System: 2-methylpropyl ethanoate; phases: Liquid, Air at 1 atmosphere
Property: Surface tension liquid-gas, N/m (Liquid); method: Pendant drop shape
Temperature, K	Surface tension liquid-gas, N/m	uncertainty
298.15	0.02315	0.00035
308.15	0.02216	0.00033
313.15	0.02164	0.00033

System: 2-methylpropyl ethanoate; phases: Liquid
Fixed: Pressure, kPa = 101
Property: Mass density, kg/m3 (Liquid); method: VIBTUB:UFactor:4
Temperature, K	Mass density, kg/m3	uncertainty
298.15	866.06	1.21
308.15	855.51	1.21
313.15	850.16	1.22

System: 1,2,4-trimethylbenzene + 1-methylethyl ethanoate; phases: Liquid, Air at 1 atmosphere
Property: Surface tension liquid-gas, N/m (Liquid); method: Pendant drop shape
Temperature, K	Mole fraction of 1-methylethyl ethanoate	Surface tension liquid-gas, N/m	uncertainty
298.15	0	0.0293	0.00033
298.15	0.0492	0.0288	0.00032
298.15	0.101	0.02825	0.00031
298.15	0.1507	0.02769	0.00031
298.15	0.1995	0.02713	0.0003
298.15	0.251	0.0266	0.0003
298.15	0.3006	0.02609	0.00029
298.15	0.3513	0.0256	0.00029
298.15	0.4008	0.02515	0.00028
298.15	0.45	0.02475	0.00028
298.15	0.4998	0.02434	0.00027
298.15	0.5498	0.02399	0.00027
298.15	0.6007	0.02364	0.00027
298.15	0.6492	0.02333	0.00026
298.15	0.7004	0.02305	0.00026
298.15	0.7501	0.02278	0.00026
298.15	0.7968	0.02256	0.00025
298.15	0.8495	0.02234	0.00025
298.15	0.8995	0.02215	0.00025
298.15	0.9492	0.02199	0.00025
298.15	1	0.02189	0.00025
308.15	0	0.02824	0.00032
308.15	0.0488	0.02769	0.00031
308.15	0.0999	0.02712	0.0003
308.15	0.1499	0.02656	0.0003
308.15	0.2002	0.026	0.00029
308.15	0.2504	0.02548	0.00029
308.15	0.3001	0.02496	0.00028
308.15	0.3519	0.02447	0.00028
308.15	0.4	0.02404	0.00027
308.15	0.45	0.02362	0.00027
308.15	0.4964	0.02324	0.00026
308.15	0.5495	0.02286	0.00026
308.15	0.6008	0.02251	0.00026
308.15	0.6499	0.02221	0.00025
308.15	0.7004	0.02188	0.00025
308.15	0.7494	0.02167	0.00025
308.15	0.7986	0.02143	0.00025
308.15	0.85	0.0212	0.00024
308.15	0.8997	0.02105	0.00024
308.15	0.9498	0.02089	0.00024
308.15	1	0.02081	0.00024
313.15	0	0.02771	0.00031
313.15	0.0494	0.02714	0.00031
313.15	0.0983	0.02656	0.0003
313.15	0.1504	0.026	0.00029
313.15	0.1999	0.02544	0.00029
313.15	0.2506	0.02493	0.00028
313.15	0.3004	0.02441	0.00028
313.15	0.3508	0.02392	0.00027
313.15	0.3995	0.02351	0.00027
313.15	0.4493	0.02308	0.00026
313.15	0.4992	0.02265	0.00026
313.15	0.5492	0.02229	0.00026
313.15	0.6	0.02194	0.00025
313.15	0.6493	0.02165	0.00025
313.15	0.6995	0.02133	0.00025
313.15	0.7501	0.02109	0.00024
313.15	0.8	0.02088	0.00024
313.15	0.8504	0.02065	0.00024
313.15	0.9004	0.02052	0.00024
313.15	0.9478	0.02037	0.00024
313.15	1	0.02029	0.00024

System: 1,2,4-trimethylbenzene + 1-methylethyl ethanoate; phases: Liquid
Fixed: Pressure, kPa = 101
Property: Mass density, kg/m3 (Liquid); method: VIBTUB:UFactor:4
Temperature, K	Mole fraction of 1-methylethyl ethanoate	Mass density, kg/m3	uncertainty
298.15	0	871.71	0.54
298.15	0.0492	871.44	0.53
298.15	0.101	871.17	0.53
298.15	0.1507	870.9	0.52
298.15	0.1995	870.64	0.51
298.15	0.251	870.36	0.5
298.15	0.3006	870.1	0.5
298.15	0.3513	869.83	0.49
298.15	0.4008	869.56	0.48
298.15	0.45	869.3	0.48
298.15	0.4998	869.03	0.47
298.15	0.5498	868.76	0.47
298.15	0.6007	868.49	0.46
298.15	0.6492	868.23	0.46
298.15	0.7004	867.95	0.45
298.15	0.7501	867.68	0.45
298.15	0.7968	867.42	0.45
298.15	0.8495	867.12	0.44
298.15	0.8995	866.84	0.44
298.15	0.9492	866.55	0.44
298.15	1	866.25	0.44
308.15	0	863.68	0.56
308.15	0.0488	863.27	0.55
308.15	0.0999	862.84	0.54
308.15	0.1499	862.42	0.53
308.15	0.2002	861.99	0.53
308.15	0.2504	861.56	0.52
308.15	0.3001	861.13	0.51
308.15	0.3519	860.67	0.51
308.15	0.4	860.24	0.5
308.15	0.45	859.79	0.5
308.15	0.4964	859.37	0.49
308.15	0.5495	858.89	0.49
308.15	0.6008	858.42	0.48
308.15	0.6499	857.96	0.48
308.15	0.7004	857.49	0.48
308.15	0.7494	857.03	0.47
308.15	0.7986	856.55	0.47
308.15	0.85	856.05	0.47
308.15	0.8997	855.56	0.46
308.15	0.9498	855.05	0.46
308.15	1	854.54	0.46
313.15	0	859.58	0.56
313.15	0.0494	859.1	0.56
313.15	0.0983	858.61	0.55
313.15	0.1504	858.09	0.54
313.15	0.1999	857.59	0.53
313.15	0.2506	857.07	0.53
313.15	0.3004	856.55	0.52
313.15	0.3508	856.02	0.52
313.15	0.3995	855.5	0.51
313.15	0.4493	854.97	0.51
313.15	0.4992	854.43	0.5
313.15	0.5492	853.88	0.5
313.15	0.6	853.32	0.49
313.15	0.6493	852.77	0.49
313.15	0.6995	852.2	0.49
313.15	0.7501	851.62	0.48
313.15	0.8	851.04	0.48
313.15	0.8504	850.44	0.48
313.15	0.9004	849.84	0.48
313.15	0.9478	849.26	0.47
313.15	1	848.61	0.47

System: 1,2,4-trimethylbenzene + 2-methylpropyl ethanoate; phases: Liquid, Air at 1 atmosphere
Property: Surface tension liquid-gas, N/m (Liquid); method: Pendant drop shape
Temperature, K	Mole fraction of 2-methylpropyl ethanoate	Surface tension liquid-gas, N/m	uncertainty
298.15	0	0.0293	0.00033
298.15	0.0494	0.02885	0.00033
298.15	0.0992	0.02838	0.00032
298.15	0.1493	0.02789	0.00032
298.15	0.2002	0.0274	0.00032
298.15	0.2498	0.02698	0.00032
298.15	0.2989	0.02661	0.00032
298.15	0.3495	0.02625	0.00032
298.15	0.3997	0.02592	0.00032
298.15	0.4505	0.02559	0.00032
298.15	0.4991	0.0253	0.00033
298.15	0.5504	0.02503	0.00033
298.15	0.6	0.02478	0.00033
298.15	0.6496	0.02454	0.00033
298.15	0.7006	0.02432	0.00033
298.15	0.75	0.02413	0.00033
298.15	0.8002	0.02391	0.00034
298.15	0.8499	0.02374	0.00034
298.15	0.9006	0.02355	0.00034
298.15	0.9477	0.02336	0.00034
298.15	1	0.02315	0.00035
308.15	0	0.02824	0.00032
308.15	0.0495	0.02775	0.00032
308.15	0.0992	0.02726	0.00031
308.15	0.149	0.02678	0.00031
308.15	0.1998	0.02631	0.00031
308.15	0.25	0.02589	0.00031
308.15	0.2995	0.02552	0.00031
308.15	0.3497	0.02517	0.00031
308.15	0.4004	0.02483	0.00031
308.15	0.4501	0.02452	0.00031
308.15	0.4995	0.02421	0.00031
308.15	0.5505	0.02394	0.00032
308.15	0.5994	0.02369	0.00032
308.15	0.65	0.02348	0.00032
308.15	0.6987	0.02325	0.00032
308.15	0.7505	0.02304	0.00032
308.15	0.7986	0.02282	0.00032
308.15	0.8497	0.02267	0.00033
308.15	0.8999	0.02248	0.00033
308.15	0.9491	0.02232	0.00033
308.15	1	0.02216	0.00033
313.15	0	0.02771	0.00031
313.15	0.0506	0.02718	0.00031
313.15	0.1002	0.02667	0.00031
313.15	0.1499	0.02615	0.00031
313.15	0.2001	0.0257	0.00031
313.15	0.2505	0.02528	0.00031
313.15	0.3001	0.02491	0.00031
313.15	0.3502	0.02459	0.00031
313.15	0.3995	0.02426	0.00031
313.15	0.4501	0.02395	0.00031
313.15	0.5001	0.02362	0.00031
313.15	0.5503	0.02336	0.00031
313.15	0.6007	0.02308	0.00031
313.15	0.6492	0.0229	0.00031
313.15	0.6997	0.02265	0.00031
313.15	0.75	0.02246	0.00032
313.15	0.801	0.0222	0.00032
313.15	0.848	0.02209	0.00032
313.15	0.8998	0.02189	0.00032
313.15	0.9498	0.02177	0.00032
313.15	1	0.02164	0.00033

System: 1,2,4-trimethylbenzene + 2-methylpropyl ethanoate; phases: Liquid
Fixed: Pressure, kPa = 101
Property: Mass density, kg/m3 (Liquid); method: VIBTUB:UFactor:4
Temperature, K	Mole fraction of 2-methylpropyl ethanoate	Mass density, kg/m3	uncertainty
298.15	0	871.71	0.54
298.15	0.0494	871.36	0.56
298.15	0.0992	871.02	0.58
298.15	0.1493	870.68	0.61
298.15	0.2002	870.35	0.63
298.15	0.2498	870.03	0.66
298.15	0.2989	869.71	0.68
298.15	0.3495	869.39	0.71
298.15	0.3997	869.08	0.74
298.15	0.4505	868.77	0.77
298.15	0.4991	868.48	0.81
298.15	0.5504	868.19	0.84
298.15	0.6	867.92	0.88
298.15	0.6496	867.65	0.91
298.15	0.7006	867.37	0.95
298.15	0.75	867.13	0.99
298.15	0.8002	866.88	1.03
298.15	0.8499	866.67	1.07
298.15	0.9006	866.45	1.12
298.15	0.9477	866.27	1.16
298.15	1	866.06	1.21
308.15	0	863.68	0.56
308.15	0.0495	863.22	0.58
308.15	0.0992	862.76	0.6
308.15	0.149	862.3	0.62
308.15	0.1998	861.84	0.64
308.15	0.25	861.39	0.67
308.15	0.2995	860.95	0.7
308.15	0.3497	860.51	0.72
308.15	0.4004	860.07	0.75
308.15	0.4501	859.64	0.78
308.15	0.4995	859.23	0.82
308.15	0.5505	858.81	0.85
308.15	0.5994	858.42	0.88
308.15	0.65	858.02	0.92
308.15	0.6987	857.63	0.96
308.15	0.7505	857.25	1
308.15	0.7986	856.89	1.04
308.15	0.8497	856.54	1.08
308.15	0.8999	856.19	1.12
308.15	0.9491	855.87	1.17
308.15	1	855.51	1.21
313.15	0	859.58	0.56
313.15	0.0506	859.06	0.58
313.15	0.1002	858.55	0.6
313.15	0.1499	858.03	0.63
313.15	0.2001	857.52	0.65
313.15	0.2505	857	0.68
313.15	0.3001	856.51	0.7
313.15	0.3502	856.01	0.73
313.15	0.3995	855.53	0.76
313.15	0.4501	855.03	0.79
313.15	0.5001	854.56	0.82
313.15	0.5503	854.08	0.86
313.15	0.6007	853.61	0.89
313.15	0.6492	853.16	0.93
313.15	0.6997	852.71	0.96
313.15	0.75	852.27	1
313.15	0.801	851.82	1.04
313.15	0.848	851.43	1.08
313.15	0.8998	851.01	1.13
313.15	0.9498	850.6	1.17
313.15	1	850.16	1.22

System: 1-methylethyl ethanoate + 1,3,5-trimethylbenzene; phases: Liquid, Air at 1 atmosphere
Property: Surface tension liquid-gas, N/m (Liquid); method: Pendant drop shape
Temperature, K	Mole fraction of 1-methylethyl ethanoate	Surface tension liquid-gas, N/m	uncertainty
298.15	0	0.02805	0.00031
298.15	0.0495	0.02768	0.00031
298.15	0.1008	0.02728	0.0003
298.15	0.1504	0.02692	0.0003
298.15	0.199	0.02652	0.00029
298.15	0.2514	0.02615	0.00029
298.15	0.2996	0.02579	0.00029
298.15	0.351	0.02542	0.00028
298.15	0.4009	0.02507	0.00028
298.15	0.4502	0.02471	0.00028
298.15	0.5002	0.02437	0.00027
298.15	0.5497	0.02405	0.00027
298.15	0.6001	0.02372	0.00027
298.15	0.6502	0.02342	0.00026
298.15	0.7003	0.02314	0.00026
298.15	0.7496	0.02288	0.00026
298.15	0.7987	0.02265	0.00026
298.15	0.8498	0.02246	0.00025
298.15	0.8998	0.02228	0.00025
298.15	0.9505	0.02206	0.00025
298.15	1	0.02189	0.00025
308.15	0	0.02721	0.0003
308.15	0.0501	0.02678	0.0003
308.15	0.0993	0.02637	0.00029
308.15	0.1514	0.02594	0.00029
308.15	0.2	0.02555	0.00029
308.15	0.2514	0.02516	0.00028
308.15	0.3018	0.0248	0.00028
308.15	0.353	0.02442	0.00027
308.15	0.3991	0.02406	0.00027
308.15	0.4503	0.02369	0.00027
308.15	0.4993	0.02335	0.00026
308.15	0.5492	0.02301	0.00026
308.15	0.6	0.02267	0.00026
308.15	0.65	0.02236	0.00025
308.15	0.7003	0.02205	0.00025
308.15	0.7499	0.02179	0.00025
308.15	0.7993	0.02152	0.00025
308.15	0.8488	0.02131	0.00024
308.15	0.9004	0.02114	0.00024
308.15	0.9506	0.02092	0.00024
308.15	1	0.02081	0.00024
313.15	0	0.02678	0.0003
313.15	0.0498	0.02633	0.0003
313.15	0.1001	0.0259	0.00029
313.15	0.1495	0.02545	0.00029
313.15	0.2006	0.02506	0.00028
313.15	0.25	0.02467	0.00028
313.15	0.3005	0.02428	0.00027
313.15	0.3497	0.0239	0.00027
313.15	0.3998	0.02354	0.00027
313.15	0.4508	0.02318	0.00026
313.15	0.4998	0.02282	0.00026
313.15	0.5496	0.02249	0.00026
313.15	0.6007	0.02213	0.00025
313.15	0.6504	0.02183	0.00025
313.15	0.7	0.0215	0.00025
313.15	0.7495	0.02122	0.00024
313.15	0.7993	0.02096	0.00024
313.15	0.8507	0.02073	0.00024
313.15	0.9008	0.02052	0.00024
313.15	0.9504	0.02036	0.00024
313.15	1	0.02029	0.00024

System: 1-methylethyl ethanoate + 1,3,5-trimethylbenzene; phases: Liquid
Fixed: Pressure, kPa = 101
Property: Mass density, kg/m3 (Liquid); method: VIBTUB:UFactor:4
Temperature, K	Mole fraction of 1-methylethyl ethanoate	Mass density, kg/m3	uncertainty
298.15	0	861.12	0.41
298.15	0.0495	861.03	0.41
298.15	0.1008	861.01	0.4
298.15	0.1504	860.99	0.4
298.15	0.199	861.02	0.39
298.15	0.2514	861.07	0.39
298.15	0.2996	861.13	0.39
298.15	0.351	861.25	0.38
298.15	0.4009	861.36	0.38
298.15	0.4502	861.53	0.37
298.15	0.5002	861.71	0.37
298.15	0.5497	861.96	0.37
298.15	0.6001	862.22	0.36
298.15	0.6502	862.53	0.36
298.15	0.7003	862.88	0.36
298.15	0.7496	863.29	0.35
298.15	0.7987	863.73	0.35
298.15	0.8498	864.28	0.35
298.15	0.8998	864.85	0.35
298.15	0.9505	865.52	0.34
298.15	1	866.25	0.34
308.15	0	852.94	0.42
308.15	0.0501	852.69	0.42
308.15	0.0993	852.53	0.42
308.15	0.1514	852.38	0.41
308.15	0.2	852.27	0.41
308.15	0.2514	852.16	0.4
308.15	0.3018	852.09	0.4
308.15	0.353	852.03	0.39
308.15	0.3991	852.01	0.39
308.15	0.4503	852	0.39
308.15	0.4993	852.03	0.38
308.15	0.5492	852.08	0.38
308.15	0.6	852.18	0.38
308.15	0.65	852.3	0.38
308.15	0.7003	852.47	0.37
308.15	0.7499	852.68	0.37
308.15	0.7993	852.92	0.37
308.15	0.8488	853.23	0.37
308.15	0.9004	853.61	0.36
308.15	0.9506	854.03	0.36
308.15	1	854.54	0.36
313.15	0	848.82	0.43
313.15	0.0498	848.53	0.43
313.15	0.1001	848.29	0.42
313.15	0.1495	848.08	0.42
313.15	0.2006	847.88	0.41
313.15	0.25	847.71	0.41
313.15	0.3005	847.55	0.41
313.15	0.3497	847.43	0.4
313.15	0.3998	847.3	0.4
313.15	0.4508	847.22	0.4
313.15	0.4998	847.16	0.39
313.15	0.5496	847.13	0.39
313.15	0.6007	847.12	0.39
313.15	0.6504	847.16	0.38
313.15	0.7	847.23	0.38
313.15	0.7495	847.33	0.38
313.15	0.7993	847.48	0.38
313.15	0.8507	847.68	0.37
313.15	0.9008	847.93	0.37
313.15	0.9504	848.25	0.37
313.15	1	848.61	0.37

System: 1,3,5-trimethylbenzene + 2-methylpropyl ethanoate; phases: Liquid, Air at 1 atmosphere
Property: Surface tension liquid-gas, N/m (Liquid); method: Pendant drop shape
Temperature, K	Mole fraction of 2-methylpropyl ethanoate	Surface tension liquid-gas, N/m	uncertainty
298.15	0	0.02805	0.00031
298.15	0.051	0.02776	0.00031
298.15	0.1006	0.02749	0.00031
298.15	0.1506	0.0272	0.00031
298.15	0.2004	0.02691	0.00031
298.15	0.2498	0.02662	0.00031
298.15	0.3003	0.02631	0.00032
298.15	0.35	0.02604	0.00032
298.15	0.4004	0.02577	0.00032
298.15	0.4502	0.02549	0.00032
298.15	0.5004	0.02523	0.00032
298.15	0.5499	0.02499	0.00032
298.15	0.5996	0.02475	0.00033
298.15	0.6494	0.02452	0.00033
298.15	0.6998	0.02431	0.00033
298.15	0.7498	0.0241	0.00033
298.15	0.8007	0.02391	0.00034
298.15	0.8502	0.0237	0.00034
298.15	0.8998	0.02355	0.00034
298.15	0.9491	0.02337	0.00034
298.15	1	0.02315	0.00035
308.15	0	0.02721	0.0003
308.15	0.0513	0.02689	0.0003
308.15	0.0999	0.02661	0.0003
308.15	0.1503	0.0263	0.0003
308.15	0.2007	0.026	0.00031
308.15	0.2505	0.0257	0.00031
308.15	0.3013	0.02539	0.00031
308.15	0.35	0.0251	0.00031
308.15	0.4002	0.02482	0.00031
308.15	0.4506	0.02455	0.00031
308.15	0.5	0.02429	0.00031
308.15	0.5505	0.02403	0.00031
308.15	0.5997	0.02377	0.00032
308.15	0.6503	0.02353	0.00032
308.15	0.6995	0.02332	0.00032
308.15	0.75	0.02309	0.00032
308.15	0.8002	0.02289	0.00032
308.15	0.8502	0.0227	0.00033
308.15	0.8997	0.02252	0.00033
308.15	0.9498	0.02235	0.00033
308.15	1	0.02216	0.00033
313.15	0	0.02678	0.0003
313.15	0.0494	0.02645	0.0003
313.15	0.1	0.02614	0.0003
313.15	0.1493	0.02581	0.0003
313.15	0.2002	0.02552	0.0003
313.15	0.2499	0.0252	0.0003
313.15	0.299	0.02492	0.0003
313.15	0.3492	0.02462	0.0003
313.15	0.3988	0.02433	0.0003
313.15	0.4492	0.02406	0.00031
313.15	0.5003	0.02378	0.00031
313.15	0.5518	0.02351	0.00031
313.15	0.5992	0.02328	0.00031
313.15	0.6503	0.02302	0.00031
313.15	0.6995	0.02278	0.00031
313.15	0.7512	0.02256	0.00032
313.15	0.8005	0.02235	0.00032
313.15	0.8499	0.02214	0.00032
313.15	0.9002	0.02198	0.00032
313.15	0.9504	0.02181	0.00032
313.15	1	0.02164	0.00033

System: 1,3,5-trimethylbenzene + 2-methylpropyl ethanoate; phases: Liquid
Fixed: Pressure, kPa = 101
Property: Mass density, kg/m3 (Liquid); method: VIBTUB:UFactor:4
Temperature, K	Mole fraction of 2-methylpropyl ethanoate	Mass density, kg/m3	uncertainty
298.15	0	861.12	0.53
298.15	0.051	861.07	0.55
298.15	0.1006	861.07	0.57
298.15	0.1506	861.09	0.59
298.15	0.2004	861.14	0.62
298.15	0.2498	861.2	0.64
298.15	0.3003	861.29	0.67
298.15	0.35	861.41	0.69
298.15	0.4004	861.56	0.72
298.15	0.4502	861.74	0.75
298.15	0.5004	861.94	0.79
298.15	0.5499	862.17	0.82
298.15	0.5996	862.44	0.86
298.15	0.6494	862.74	0.9
298.15	0.6998	863.09	0.94
298.15	0.7498	863.46	0.98
298.15	0.8007	863.89	1.02
298.15	0.8502	864.36	1.07
298.15	0.8998	864.88	1.11
298.15	0.9491	865.43	1.16
298.15	1	866.06	1.21
308.15	0	852.94	0.55
308.15	0.0513	852.75	0.57
308.15	0.0999	852.66	0.59
308.15	0.1503	852.57	0.61
308.15	0.2007	852.51	0.63
308.15	0.2505	852.48	0.65
308.15	0.3013	852.45	0.68
308.15	0.35	852.46	0.71
308.15	0.4002	852.49	0.74
308.15	0.4506	852.56	0.77
308.15	0.5	852.64	0.8
308.15	0.5505	852.78	0.83
308.15	0.5997	852.91	0.87
308.15	0.6503	853.09	0.91
308.15	0.6995	853.32	0.94
308.15	0.75	853.57	0.98
308.15	0.8002	853.86	1.03
308.15	0.8502	854.21	1.07
308.15	0.8997	854.61	1.12
308.15	0.9498	855.03	1.16
308.15	1	855.51	1.21
313.15	0	848.82	0.56
313.15	0.0494	848.6	0.57
313.15	0.1	848.45	0.59
313.15	0.1493	848.33	0.61
313.15	0.2002	848.2	0.64
313.15	0.2499	848.1	0.66
313.15	0.299	848.03	0.69
313.15	0.3492	847.98	0.71
313.15	0.3988	847.95	0.74
313.15	0.4492	847.96	0.77
313.15	0.5003	847.98	0.8
313.15	0.5518	848.05	0.84
313.15	0.5992	848.13	0.87
313.15	0.6503	848.26	0.91
313.15	0.6995	848.41	0.95
313.15	0.7512	848.61	0.99
313.15	0.8005	848.85	1.03
313.15	0.8499	849.13	1.07
313.15	0.9002	849.43	1.12
313.15	0.9504	849.8	1.17
313.15	1	850.16	1.22
