Measured thermophysical data. Density, Viscosity, and Vapor Pressure of Phenyl Dichlorophosphite
Source: J. Chem. Eng. Data, 2008, 10.1021/je8000427
Compound 1: phenyl phosphorodichloridite, C6H5Cl2OP, InChI=1S/C6H5Cl2OP/c7-10(8)9-6-4-2-1-3-5-6/h1-5H

System: phenyl phosphorodichloridite; phases: Liquid
Fixed: Pressure, kPa = 101.325
Property: Viscosity, Pa*s (Liquid); method: Capillary tube (Ostwald; Ubbelohde) method
Temperature, K	Viscosity, Pa*s	uncertainty
293.27	0.002206	2.8e-05
303.25	0.001835	2.4e-05
313.2	0.001554	2e-05
323.18	0.001338	1.7e-05
333.06	0.001155	1.5e-05
343.2	0.001016	1.3e-05
353.2	0.0009	1.2e-05
363.18	0.0008	1e-05
373.06	0.000721	9e-06
383.26	0.000655	8e-06
393.26	0.000599	8e-06
403.66	0.000542	7e-06
413.47	0.000501	7e-06
423.25	0.000467	6e-06

System: phenyl phosphorodichloridite; phases: Liquid, Gas
Property: Vapor or sublimation pressure, kPa (Liquid); method: CCELL:UFactor:8
Temperature, K	Vapor or sublimation pressure, kPa	uncertainty
363.25	1.47	0.08
368.85	1.93	0.09
373.36	2.39	0.09
377.56	2.89	0.1
381.85	3.49	0.11
386.24	4.22	0.12
390.85	5.11	0.13
395.53	6.19	0.15
398.76	7.04	0.16
403.6	8.5	0.18
408.48	10.23	0.2
412.85	12.02	0.23
417.95	14.44	0.26
422.05	16.67	0.29
427.13	19.74	0.33
431.14	22.69	0.38
434.75	25.54	0.42
439.67	29.9	0.47
443.56	33.78	0.53
448.54	39.36	0.6
453.36	45.46	0.68
458.47	52.77	0.78
461.57	57.67	0.85
466.53	66.28	0.96
471.06	75.05	1.1
475.71	88.11	1.28
480.79	101.33	1.42

System: phenyl phosphorodichloridite; phases: Liquid
Fixed: Pressure, kPa = 101.325
Property: Mass density, kg/m3 (Liquid); method: PYCNOM:UFactor:16
Temperature, K	Mass density, kg/m3	uncertainty
293.27	1353.1	5.8
303.25	1344.2	6.2
313.2	1333	6.5
323.18	1320.4	6.8
333.06	1293.4	7
343.2	1279.7	7.3
353.2	1262.2	7.6
363.18	1247	7.9
373.06	1229.8	8.1
383.26	1214.1	8.4
393.26	1196.5	8.7
403.66	1177.7	9
413.47	1161.2	9.3
423.25	1143.1	9.5
