Measured thermophysical data. Measurements and Correlation of Liquid Liquid Equilibria of (Water + Ethanol + Dimethyl Carbonate + 2,2,4-Trimethylpentane or n-Heptane) and (Water + Dimethyl Carbonate + n-Heptane + Toluene)
Source: J. Chem. Eng. Data, 2008, 10.1021/je800004y
Compound 1: dimethyl carbonate, C3H6O3, InChI=1S/C3H6O3/c1-5-3(4)6-2/h1-2H3, purity 99.2%
Compound 2: 2,2,4-trimethylpentane, C8H18, InChI=1S/C8H18/c1-7(2)6-8(3,4)5/h7H,6H2,1-5H3, purity 99%
Compound 3: ethanol, C2H6O, InChI=1S/C2H6O/c1-2-3/h3H,2H2,1H3, purity 99.7%
Compound 4: toluene, C7H8, InChI=1S/C7H8/c1-7-5-3-2-4-6-7/h2-6H,1H3, purity 99.5%
Compound 5: heptane, C7H16, InChI=1S/C7H16/c1-3-5-7-6-4-2/h3-7H2,1-2H3, purity 99.7%
Compound 6: water, H2O, InChI=1S/H2O/h1H2

System: ethanol + dimethyl carbonate + water; phases: Liquid mixture 1, Liquid mixture 2
Fixed: Temperature, K = 298.15
Fixed: Pressure, kPa = 101.3
Property: Mole fraction of ethanol (Liquid mixture 1); method: CHROM:UFactor:4
Property: Mole fraction of ethanol (Liquid mixture 2); method: CHROM:UFactor:4
Property: Mole fraction of water (Liquid mixture 2); method: CHROM:UFactor:4
Mole fraction of water	Mole fraction of ethanol	uncertainty	Mole fraction of ethanol	uncertainty	Mole fraction of water	uncertainty
0.1326	0.0127	0.0127	0.0104	0.0025	0.9641	
0.1562	0.0428	0.0101	0.0298	0.0027	0.9413	
0.1998	0.0493	0.0101	0.0344	0.0027	0.9348	
0.2204	0.0736	0.0103	0.0497	0.0029	0.9142	
0.2697	0.0885	0.0103	0.0574	0.0029	0.9044	
0.2999	0.1021	0.0104	0.0675	0.003	0.8873	
0.36	0.1161	0.0105	0.0769	0.0031	0.87	
0.4285	0.1295	0.0107	0.0868	0.0033	0.8492	
0.13	0	0.0001	0	0.0001	0.9834	

System: heptane + dimethyl carbonate + water; phases: Liquid mixture 1, Liquid mixture 2
Fixed: Temperature, K = 298.15
Fixed: Pressure, kPa = 101.3
Property: Mole fraction of water (Liquid mixture 1); method: Chromatography
Property: Mole fraction of water (Liquid mixture 2); method: Chromatography
Property: Mole fraction of dimethyl carbonate (Liquid mixture 2); method: Chromatography
Mole fraction of dimethyl carbonate	Mole fraction of water	uncertainty	Mole fraction of water	uncertainty	Mole fraction of dimethyl carbonate	uncertainty
0	0.0007	0.0007	1	0.0001	0	
0.8083	0.0732	0.0101	0.9781	0.0028	0.0219	
0.7265	0.0644	0.01	0.9792	0.0028	0.0208	
0.6812	0.0668	0.01	0.9794	0.0028	0.0206	
0.6165	0.0621	0.01	0.9798	0.0028	0.0202	
0.5449	0.0503	0.01	0.9844	0.0028	0.0156	
0.4798	0.0427	0.01	0.9803	0.0028	0.0197	
0.4444	0.0462	0.01	0.9819	0.0028	0.0181	
0.2789	0.0287	0.01	0.984	0.0028	0.016	
0.3015	0.0314	0.01	0.9993	0.0007	0.0007	
0.87	0.13	0.0102	0.9834	0.0028	0.0166	

System: 2,2,4-trimethylpentane + dimethyl carbonate + water; phases: Liquid mixture 1, Liquid mixture 2
Fixed: Temperature, K = 298.15
Fixed: Pressure, kPa = 101.3
Property: Mole fraction of water (Liquid mixture 1); method: Chromatography
Property: Mole fraction of water (Liquid mixture 2); method: Chromatography
Property: Mole fraction of dimethyl carbonate (Liquid mixture 2); method: Chromatography
Mole fraction of dimethyl carbonate	Mole fraction of water	uncertainty	Mole fraction of water	uncertainty	Mole fraction of dimethyl carbonate	uncertainty
0	0.0036	0.0036	1	0.0001	0	
0.7421	0.1484	0.0101	0.9796	0.0028	0.0204	
0.6907	0.1344	0.01	0.9802	0.0028	0.0198	
0.6387	0.1361	0.0101	0.9788	0.0028	0.0212	
0.5995	0.1192	0.0101	0.9802	0.0028	0.0198	
0.5478	0.1004	0.01	0.9797	0.0028	0.0203	
0.4539	0.0966	0.01	0.9802	0.0028	0.0198	
0.4356	0.092	0.01	0.9846	0.0028	0.0154	
0.3819	0.0855	0.01	0.9943	0.0028	0.0057	
0.2854	0.0602	0.01	0.9986	0.0014	0.0014	
0.87	0.13	0.01	0.9834	0.0028	0.0166	

System: toluene + heptane + water; phases: Liquid mixture 1, Liquid mixture 2
Fixed: Temperature, K = 298.15
Fixed: Pressure, kPa = 101.3
Property: Mole fraction of water (Liquid mixture 1); method: Chromatography
Property: Mole fraction of water (Liquid mixture 2); method: Chromatography
Property: Mole fraction of heptane (Liquid mixture 2); method: Chromatography
Mole fraction of heptane	Mole fraction of water	uncertainty	Mole fraction of water	uncertainty	Mole fraction of heptane	uncertainty
0.9993	0.0007	0.0007	1	0.0001	0	
0.7911	0	0.0001	1	0.0001	0	
0.6591	0	0.0001	1	0.0001	0	
0.4874	0	0.0001	1	0.0001	0	
0.568	0	0.0001	1	0.0001	0	
0.4306	0	0.0001	1	0.0001	0	
0.3825	0	0.0001	1	0.0001	0	
0.3624	0	0.0001	1	0.0001	0	
0.3329	0	0.0001	1	0.0001	0	
0.2657	0	0.0001	1	0.0001	0	
0.2065	0	0.0001	1	0.0001	0	
0	0.0023	0.002	1	0.0001	0	

System: toluene + dimethyl carbonate + water; phases: Liquid mixture 1, Liquid mixture 2
Fixed: Temperature, K = 298.15
Fixed: Pressure, kPa = 101.3
Property: Mole fraction of water (Liquid mixture 1); method: Chromatography
Property: Mole fraction of water (Liquid mixture 2); method: Chromatography
Property: Mole fraction of dimethyl carbonate (Liquid mixture 2); method: Chromatography
Mole fraction of dimethyl carbonate	Mole fraction of water	uncertainty	Mole fraction of water	uncertainty	Mole fraction of dimethyl carbonate	uncertainty
0.756	0.0607	0.01	0.9805	0.0028	0.0195	
0.6572	0.053	0.01	0.9833	0.0028	0.0167	
0.5787	0.0381	0.01	0.9854	0.0028	0.0146	
0.5142	0.0388	0.01	0.9867	0.0028	0.0133	
0.4711	0.021	0.01	0.9878	0.0028	0.0122	
0.4294	0.0192	0.01	0.9885	0.0028	0.0115	
0.3982	0.0184	0.01	0.9896	0.0028	0.0104	
0.816	0.078	0.0101	0.9784	0.0028	0.0216	
0.6896	0.0539	0.01	0.9825	0.0028	0.0175	
0.6176	0.0525	0.01	0.9841	0.0028	0.0159	
0.87	0.13	0.0102	0.9834	0.0028	0.0166	
