Measured thermophysical data. Liquid-Liquid Equilibria in Binary Mixtures Containing Chlorobenzene, Bromobenzene, and Iodobenzene with Ionic Liquid 1-Ethyl-3-methylimidazolim Bis(trifluoromethylsulfonyl)imide
Source: J. Chem. Eng. Data, 2009, 10.1021/je801005y
Compound 1: chlorobenzene, C6H5Cl, InChI=1S/C6H5Cl/c7-6-4-2-1-3-5-6/h1-5H, purity 99.9%
Compound 2: bromobenzene, C6H5Br, InChI=1S/C6H5Br/c7-6-4-2-1-3-5-6/h1-5H, purity 99.5%
Compound 3: iodobenzene, C6H5I, InChI=1S/C6H5I/c7-6-4-2-1-3-5-6/h1-5H, purity 98%
Compound 4: 1-ethyl-3-methylimidazolium bis((trifluoromethyl)sulfonyl)imide, C8H11F6N3O4S2, InChI=1S/C6H11N2.C2F6NO4S2/c1-3-8-5-4-7(2)6-8;3-1(4,5)14(10,11)9-15(12,13)2(6,7)8/h4-6H,3H2,1-2H3;/q+1;-1

System: chlorobenzene + 1-ethyl-3-methylimidazolium bis((trifluoromethyl)sulfonyl)imide; phases: Liquid mixture 1, Liquid mixture 2
Fixed: Pressure, kPa = 101
Property: Molar volume, m3/mol (Liquid mixture 1); method: volumetric method
Temperature, K	Molar volume, m3/mol	uncertainty
293.3	0.0001456	2.8e-06
313.2	0.0001473	3.4e-06
332.7	0.0001483	3.8e-06
353.1	0.0001469	3.6e-06
372.9	0.0001475	4.4e-06

System: chlorobenzene + 1-ethyl-3-methylimidazolium bis((trifluoromethyl)sulfonyl)imide; phases: Liquid mixture 2, Liquid mixture 1
Fixed: Pressure, kPa = 101
Property: Molar volume, m3/mol (Liquid mixture 2); method: volumetric method
Temperature, K	Molar volume, m3/mol	uncertainty
293.3	0.0001021	6e-07
313.2	0.0001037	8e-07
332.7	0.0001059	8e-07
353.1	0.0001089	1.2e-06
372.9	0.0001114	1.8e-06

System: chlorobenzene + 1-ethyl-3-methylimidazolium bis((trifluoromethyl)sulfonyl)imide; phases: Liquid mixture 1, Liquid mixture 2
Fixed: Pressure, kPa = 101
Property: Mole fraction of chlorobenzene (Liquid mixture 1); method: volumetric method
Temperature, K	Mole fraction of chlorobenzene	uncertainty
293.3	0.706	0.006
313.2	0.711	0.006
332.7	0.718	0.008
353.1	0.729	0.008
372.9	0.736	0.012

System: chlorobenzene + 1-ethyl-3-methylimidazolium bis((trifluoromethyl)sulfonyl)imide; phases: Liquid mixture 2, Liquid mixture 1
Fixed: Pressure, kPa = 101
Property: Mole fraction of 1-ethyl-3-methylimidazolium bis((trifluoromethyl)sulfonyl)imide (Liquid mixture 2); method: volumetric method
Temperature, K	Mole fraction of 1-ethyl-3-methylimidazolium bis((trifluoromethyl)sulfonyl)imide	uncertainty
293.3	0.997	0.003
313.2	0.997	0.003
332.7	0.997	0.003
353.1	0.997	0.003
372.9	0.996	0.004

System: bromobenzene + 1-ethyl-3-methylimidazolium bis((trifluoromethyl)sulfonyl)imide; phases: Liquid mixture 1, Liquid mixture 2
Fixed: Pressure, kPa = 101
Property: Molar volume, m3/mol (Liquid mixture 1); method: volumetric method
Temperature, K	Molar volume, m3/mol	uncertainty
293	0.0001645	1.4e-06
313.2	0.0001649	1.4e-06
332.3	0.0001654	1.8e-06
353.1	0.000166	1.6e-06
372.9	0.0001664	2e-06

System: bromobenzene + 1-ethyl-3-methylimidazolium bis((trifluoromethyl)sulfonyl)imide; phases: Liquid mixture 2, Liquid mixture 1
Fixed: Pressure, kPa = 101
Property: Molar volume, m3/mol (Liquid mixture 2); method: volumetric method
Temperature, K	Molar volume, m3/mol	uncertainty
293	0.0001047	8e-07
313.2	0.0001067	8e-07
332.3	0.0001086	6e-07
353.1	0.0001105	1.2e-06
372.9	0.0001123	1.2e-06

System: bromobenzene + 1-ethyl-3-methylimidazolium bis((trifluoromethyl)sulfonyl)imide; phases: Liquid mixture 1, Liquid mixture 2
Fixed: Pressure, kPa = 101
Property: Mole fraction of bromobenzene (Liquid mixture 1); method: volumetric method
Temperature, K	Mole fraction of bromobenzene	uncertainty
293	0.594	0.012
313.2	0.607	0.008
332.3	0.621	0.012
353.1	0.634	0.012
372.9	0.647	0.006

System: bromobenzene + 1-ethyl-3-methylimidazolium bis((trifluoromethyl)sulfonyl)imide; phases: Liquid mixture 2, Liquid mixture 1
Fixed: Pressure, kPa = 101
Property: Mole fraction of 1-ethyl-3-methylimidazolium bis((trifluoromethyl)sulfonyl)imide (Liquid mixture 2); method: volumetric method
Temperature, K	Mole fraction of 1-ethyl-3-methylimidazolium bis((trifluoromethyl)sulfonyl)imide	uncertainty
293	1	0.001
313.2	1	0.001
332.3	1	0.001
353.1	1	0.001
372.9	1	0.001

System: iodobenzene + 1-ethyl-3-methylimidazolium bis((trifluoromethyl)sulfonyl)imide; phases: Liquid mixture 1, Liquid mixture 2
Fixed: Pressure, kPa = 101
Property: Molar volume, m3/mol (Liquid mixture 1); method: volumetric method
Temperature, K	Molar volume, m3/mol	uncertainty
293	0.0001112	6e-07
313.2	0.0001131	6e-07
332.3	0.0001151	6e-07
353.1	0.0001161	1e-06
372.9	0.0001182	6e-07

System: iodobenzene + 1-ethyl-3-methylimidazolium bis((trifluoromethyl)sulfonyl)imide; phases: Liquid mixture 2, Liquid mixture 1
Fixed: Pressure, kPa = 101
Property: Molar volume, m3/mol (Liquid mixture 2); method: volumetric method
Temperature, K	Molar volume, m3/mol	uncertainty
293	0.0002069	2e-06
313.2	0.0002056	2e-06
332.3	0.0002038	2e-06
353.1	0.0002028	4e-06
372.9	0.0001999	2e-06

System: iodobenzene + 1-ethyl-3-methylimidazolium bis((trifluoromethyl)sulfonyl)imide; phases: Liquid mixture 1, Liquid mixture 2
Fixed: Pressure, kPa = 101
Property: Mole fraction of iodobenzene (Liquid mixture 1); method: volumetric method
Temperature, K	Mole fraction of iodobenzene	uncertainty
293	0.998	0.002
313.2	0.999	0.001
332.3	1	0.001
353.1	0.998	0.002
372.9	0.999	0.001

System: iodobenzene + 1-ethyl-3-methylimidazolium bis((trifluoromethyl)sulfonyl)imide; phases: Liquid mixture 2, Liquid mixture 1
Fixed: Pressure, kPa = 101
Property: Mole fraction of 1-ethyl-3-methylimidazolium bis((trifluoromethyl)sulfonyl)imide (Liquid mixture 2); method: volumetric method
Temperature, K	Mole fraction of 1-ethyl-3-methylimidazolium bis((trifluoromethyl)sulfonyl)imide	uncertainty
293	0.338	0.008
313.2	0.361	0.008
332.3	0.387	0.008
353.1	0.415	0.006
372.9	0.443	0.008
