Measured thermophysical data. Synthesis, Characterization, and Thermodynamic Study of the Coordination Compound Cd(HNic)2Cl2(s)
Source: J. Chem. Eng. Data, 2008, 10.1021/je800141t
Compound 1: Cadmate(2-), dichlorobis(3-pyridinecarboxylato-N1)-, dihydrogen, (T-4)-, C12H10CdCl2N2O4, InChI=1S/2C6H5NO2.Cd.2ClH/c2*8-6(9)5-1-3-7-4-2-5;;;/h2*1-4H,(H,8,9);;2*1H/q;;+2;;/p-2
Compound 2: 3-carboxylpyridine, C6H5NO2, InChI=1S/C6H5NO2/c8-6(9)5-2-1-3-7-4-5/h1-4H,(H,8,9)
Compound 3: hydrogen chloride, ClH, InChI=1S/ClH/h1H
Compound 4: water, H2O, InChI=1S/H2O/h1H2

System: Cadmate(2-), dichlorobis(3-pyridinecarboxylato-N1)-, dihydrogen, (T-4)-; phases: Crystal
Fixed: Pressure, kPa = 101.325
Property: Molar heat capacity at constant pressure, J/K/mol (Crystal); method: Small (less than 1 g) adiabatic calorimetry
Temperature, K	Molar heat capacity at constant pressure, J/K/mol	uncertainty
78.67	48.53	0.65
80.83	50.38	0.65
83.17	52.52	0.65
86.17	54.68	0.66
89	56.71	0.66
91.83	58.78	0.67
94.83	60.78	0.68
97.83	62.92	0.68
100.67	65.21	0.68
104.71	67.44	0.69
108.85	69.6	0.69
111.78	71.37	0.69
114.82	72.95	0.69
118.01	74.78	0.7
121.05	76.5	0.7
123.94	78.34	0.7
127	80.49	0.7
130.17	82.33	0.71
133.21	84.29	0.71
136.4	86.33	0.71
139.29	88.41	0.72
142.48	90.76	0.72
145.5	93.19	0.72
148.72	95.02	0.73
152.67	98.31	0.73
156.69	100.4	0.7
159.83	103.6	0.7
163	106.3	0.7
166.17	108.3	0.8
169.33	111.6	0.8
172.5	114.3	0.8
175.67	116.5	0.8
178.83	118.6	0.8
182	121.2	0.8
185.34	123.6	0.8
188.54	126	0.8
191.88	128.6	0.8
195	131.7	0.8
198.17	135	0.8
201.51	137.6	0.8
205.33	140.7	0.8
209.33	144	0.8
212.5	147.5	0.8
215.83	150.6	0.8
219.17	153.5	0.8
222.33	156.7	0.8
225.5	159.4	0.8
228.67	162.2	0.9
232.17	165.4	0.9
235.5	168.6	0.9
238.83	171.7	0.9
242.67	174.8	0.9
246.55	178.3	0.9
249.61	180.8	0.9
252.83	183.5	0.9
255.9	187.1	0.9
258.97	190.4	0.9
262.01	193.8	0.9
265.33	197.4	0.9
268.67	200.3	0.9
271.83	203.8	0.9
275.17	207.3	0.9
278.44	209.6	1
281.81	213.4	1
285.03	216.3	1
288.41	220.1	1
291.47	222.6	1
294.67	226.7	1
298.01	230.3	1
301.17	234	1
304.17	237.6	1
307.33	241.2	1
310.5	244.1	1
313.67	247.4	1
317	251.1	1
320.17	256	1.1
323.37	259.2	1.1
326.5	263.6	1.1
329.67	267.1	1.1
332.67	271.2	1.1
336	274.7	1.1
339.17	278.3	1.1
342.5	282.8	1.1
345.83	286.7	1.1
349.17	291.4	1.1
352.67	295.3	1.1
356	299.2	1.2
359.33	303.3	1.2
362.67	307	1.2
366.07	310.7	1.2
369.26	314.5	1.2
372.46	318.4	1.2
375.8	322.2	1.2
379.14	326.3	1.2
382.34	330.4	1.2
385.53	334.1	1.2
388.87	338.4	1.3
391.76	341.6	1.3
394.95	345.5	1.3
398.14	349.2	1.3

System: 3-carboxylpyridine + hydrogen chloride + water; phases: Liquid
Property: Molar enthalpy of solution, kJ/mol (Liquid); method: ISOPERIBOL
Mole fraction of 3-carboxylpyridine	Temperature, K	Pressure, kPa	Solvent: Amount concentration (molarity), mol/dm3 of hydrogen chloride	Molar enthalpy of solution, kJ/mol	uncertainty
0	298.15	101	0.1	16.28	0.3

System: hydrogen chloride + water + Cadmate(2-), dichlorobis(3-pyridinecarboxylato-N1)-, dihydrogen, (T-4)-; phases: Liquid
Property: Molar enthalpy of solution, kJ/mol (Liquid); method: ISOPERIBOL
Mole fraction of Cadmate(2-), dichlorobis(3-pyridinecarboxylato-N1)-, dihydrogen, (T-4)-	Temperature, K	Pressure, kPa	Solvent: Amount concentration (molarity), mol/dm3 of hydrogen chloride	Molar enthalpy of solution, kJ/mol	uncertainty
0	298.15	101	0.1	21.43	0.25
