Measured thermophysical data. Phase Behavior, Densities, and Isothermal Compressibility of CO2 + a-Valerolactone Systems in Various Phase Regions
Source: J. Chem. Eng. Data, 2009, 10.1021/je8007759
Compound 1: .gamma.-valerolactone, C5H8O2, InChI=1S/C5H8O2/c1-4-2-3-5(6)7-4/h4H,2-3H2,1H3
Compound 2: carbon dioxide, CO2, InChI=1S/CO2/c2-1-3

System: .gamma.-valerolactone + carbon dioxide; phases: Liquid, Gas
Property: Critical pressure, kPa (Liquid); method: Direct measurement
Mole fraction of .gamma.-valerolactone	Critical pressure, kPa	uncertainty
0.025	8730	50
0.05	9250	50
0.1	14230	50

System: .gamma.-valerolactone + carbon dioxide; phases: Liquid, Gas
Property: Critical temperature, K (Liquid); method: Visual observation in an unstirred cell
Mole fraction of .gamma.-valerolactone	Critical temperature, K	uncertainty
0.025	316.2	0.2
0.05	318	0.2
0.1	337.9	0.2

System: .gamma.-valerolactone + carbon dioxide; phases: Liquid, Gas
Property: Critical density, kg/m3 (Liquid); method: high pressure variable cell
Mole fraction of .gamma.-valerolactone	Critical density, kg/m3	uncertainty
0.025	679	16
0.05	774	18
0.1	837	19

System: .gamma.-valerolactone + carbon dioxide; phases: Gas, Liquid
Property: Vapor or sublimation pressure, kPa (Gas); method: Closed cell (Static) method
Mole fraction of .gamma.-valerolactone	Temperature, K	Vapor or sublimation pressure, kPa	uncertainty
0.01	318	9040	60
0.01	322.9	9830	60
0.01	327.9	10550	60
0.01	332.9	11310	60
0.025	318	9180	60
0.025	322.9	10220	60
0.025	327.9	11270	60
0.025	332.8	12260	60
0.05	322.9	10460	60
0.05	327.9	11620	60
0.05	332.9	12810	70

System: .gamma.-valerolactone + carbon dioxide; phases: Liquid, Gas
Property: Vapor or sublimation pressure, kPa (Liquid); method: Closed cell (Static) method
Mole fraction of .gamma.-valerolactone	Temperature, K	Vapor or sublimation pressure, kPa	uncertainty
0.01	308.2	7620	110
0.01	313.2	8290	110
0.025	308.2	7580	110
0.025	313.2	8340	110
0.05	308.2	7500	110
0.05	313.2	8300	110
0.1	308.2	7430	110
0.1	313.2	8270	110
0.1	318	9280	110
0.1	322.9	10520	120
0.1	327.9	11730	120
0.1	332.9	13010	120
0.15	308.2	7250	110
0.15	313.2	8120	110
0.15	318	9040	110
0.15	322.9	10100	110
0.15	327.9	11330	120
0.15	332.9	12560	120

System: .gamma.-valerolactone + carbon dioxide; phases: Gas, Liquid
Property: Vapor or sublimation pressure, kPa (Gas); method: Closed cell (Static) method
Mole fraction of .gamma.-valerolactone	Temperature, K	Vapor or sublimation pressure, kPa	uncertainty
0.01	318	9040	110
0.01	322.9	9830	110
0.01	327.9	10550	110
0.01	332.9	11310	110
0.025	318	9180	110
0.025	322.9	10220	110
0.025	327.9	11270	110
0.025	332.8	12260	110
0.05	322.9	10460	110
0.05	327.9	11620	120
0.05	332.9	12810	120

System: .gamma.-valerolactone + carbon dioxide; phases: Gas, Liquid
Property: Vapor or sublimation pressure, kPa (Gas); method: Closed cell (Static) method
Mole fraction of .gamma.-valerolactone	Temperature, K	Vapor or sublimation pressure, kPa	uncertainty
0.01	323.2	9830	60
0.01	333.2	10940	60
0.01	353.2	13570	60
0.01	373.2	14860	70
0.01	393.2	13940	60
0.01	403.2	12580	70
0.01	413.2	11030	60
0.01	423.2	9520	60
0.01	430.2	6480	70
0.025	323.2	10620	60
0.025	333.2	12750	60
0.025	343.2	13690	60
0.025	353.2	15100	70
0.025	373.2	16780	70
0.025	393.2	18600	100
0.025	423.2	19690	80
0.025	433.2	19230	70
0.025	443.2	18180	80
0.025	453.2	16660	70
0.025	460.4	14480	430
0.025	462.1	7210	140
0.025	463	12440	580
0.025	468.7	10400	100
0.05	323.2	10780	60
0.05	333.2	12980	70
0.05	343.2	15080	70
0.05	353.2	16680	70
0.05	373.2	19540	80
0.05	393.2	21910	80
0.05	413.2	23330	80
0.05	433.2	24250	90
0.05	453.2	23700	80
0.05	463.2	22750	80
0.05	473.2	21370	80
0.05	483.2	19950	80
0.05	493.2	17910	80
0.05	498.2	15340	100
0.05	500.2	12880	210
0.05	501.2	9020	80
0.05	503.2	10580	100
0.05	500.2	7180	240
0.1	343.2	15650	70
0.1	353.2	17800	70
0.1	363.2	19660	80
0.1	373.2	21290	80
0.1	383.2	22820	80
0.1	393.2	24120	90
0.1	413.2	25910	90
0.1	433.2	27210	90
0.1	453.2	27850	90
0.1	473.2	27730	90
0.1	493.2	26490	90
0.1	513.2	24100	90
0.1	530.2	20680	80
0.1	543.2	17240	420
0.1	545.2	9000	60
0.1	549.2	13790	90
0.1	550.2	11000	290
0.1	543.2	7210	100
0.15	413.2	26620	90
0.15	433.2	28240	90
0.15	453.2	29000	100
0.15	473.2	29280	100
0.15	493.2	28810	100
0.15	513.2	27690	90
0.15	533.2	25830	90

System: .gamma.-valerolactone + carbon dioxide; phases: Liquid, Gas
Property: Boiling temperature at pressure P, K (Liquid); method: Closed cell (Static) method
Mole fraction of .gamma.-valerolactone	Pressure, kPa	Boiling temperature at pressure P, K	uncertainty
0.01	7620	308.2	0.6
0.01	8290	313.2	0.6
0.025	7580	308.2	0.5
0.025	8340	313.2	0.5
0.05	7500	308.2	0.5
0.05	8300	313.2	0.5
0.1	7430	308.2	0.4
0.1	8270	313.2	0.4
0.1	9280	318	0.3
0.1	10520	322.9	0.3
0.1	11730	327.9	0.3
0.1	13010	332.9	0.3
0.15	7250	308.2	0.4
0.15	8120	313.2	0.4
0.15	9040	318	0.4
0.15	10100	322.9	0.3
0.15	11330	327.8	0.3
0.15	12560	332.9	0.3

System: .gamma.-valerolactone + carbon dioxide; phases: Liquid, Gas
Property: Mass density, kg/m3 (Liquid); method: high pressure variable cell
Mole fraction of .gamma.-valerolactone	Temperature, K	Mass density, kg/m3	uncertainty
0.01	308.2	663	6
0.01	313.2	539	6
0.025	308.2	777	4
0.025	313.2	723	6
0.05	308.2	834	4
0.05	313.2	803	4
0.1	308.2	920	4
0.1	313.2	910	4
0.1	318	891	4
0.1	322.9	877	4
0.1	327.9	863	4
0.1	332.9	851	4
0.15	308.2	972	4
0.15	313.2	961	4
0.15	318	948	4
0.15	322.9	936	4
0.15	327.9	925	4
0.15	332.9	913	4

System: .gamma.-valerolactone + carbon dioxide; phases: Gas, Liquid
Property: Mass density, kg/m3 (Gas); method: high pressure variable cell
Mole fraction of .gamma.-valerolactone	Temperature, K	Mass density, kg/m3	uncertainty
0.01	318	516	4
0.01	322.9	514	4
0.01	327.9	496	4
0.01	332.9	486	4
0.025	318	677	4
0.025	322.9	672	4
0.025	327.9	660	4
0.025	332.8	649	5
0.05	322.9	763	4
0.05	327.9	753	4
0.05	332.9	742	4

System: .gamma.-valerolactone + carbon dioxide; phases: Liquid, Gas
Property: Boiling temperature at pressure P, K (Liquid); method: fiber optic reflectometer
Mole fraction of .gamma.-valerolactone	Pressure, kPa	Boiling temperature at pressure P, K	uncertainty
0.1	13450	333.2	0.3
0.15	10640	323.2	0.3
0.15	13220	333.2	0.3
0.15	15620	343.2	0.3
0.15	17750	353.2	0.4
0.15	21510	373.2	0.4
0.15	24410	393.2	0.5

System: .gamma.-valerolactone + carbon dioxide; phases: Fluid (supercritical or subcritical phases)
Property: Mass density, kg/m3 (Fluid (supercritical or subcritical phases)); method: Pycnometric method
Mole fraction of .gamma.-valerolactone	Temperature, K	Pressure, kPa	Mass density, kg/m3	uncertainty
0.01	308.2	7630	665	22
0.01	308.2	7650	669	20
0.01	308.2	7670	673	19
0.01	308.2	7690	677	17
0.01	308.2	7720	681	17
0.01	308.2	7750	685	21
0.01	308.2	7790	690	23
0.01	308.2	7830	694	17
0.01	308.2	7870	698	16
0.01	308.2	7910	703	16
0.01	308.2	7970	710	15
0.01	308.2	8050	717	14
0.01	308.2	8150	724	13
0.01	308.2	8300	734	13
0.01	308.2	8460	744	14
0.01	308.2	8670	754	9
0.01	308.2	8910	765	8
0.01	308.2	9180	775	7
0.01	308.2	9500	787	6
0.01	308.2	9890	798	6
0.01	308.2	10350	810	6
0.01	313.2	8300	547	42
0.01	313.2	8310	557	37
0.01	313.2	8320	561	39
0.01	313.2	8330	565	39
0.01	313.2	8340	568	36
0.01	313.2	8350	572	35
0.01	313.2	8370	576	38
0.01	313.2	8380	581	33
0.01	313.2	8390	589	29
0.01	313.2	8410	592	55
0.01	313.2	8420	596	48
0.01	313.2	8430	602	30
0.01	313.2	8440	606	29
0.01	313.2	8460	609	28
0.01	313.2	8470	612	28
0.01	313.2	8480	616	28
0.01	313.2	8500	619	23
0.01	313.2	8520	623	4
0.01	313.2	8530	627	23
0.01	313.2	8560	630	10
0.01	313.2	8580	634	18
0.01	313.2	8600	638	33
0.01	313.2	8630	641	16
0.01	313.2	8650	645	15
0.01	313.2	8680	649	19
0.01	313.2	8720	653	14
0.01	313.2	8750	657	14
0.01	313.2	8780	661	14
0.01	313.2	8810	665	8
0.01	313.2	8850	669	8
0.01	313.2	8890	673	8
0.01	313.2	8940	677	9
0.01	313.2	8990	681	11
0.01	313.2	9040	686	16
0.01	313.2	9100	690	12
0.01	313.2	9150	694	12
0.01	313.2	9200	698	12
0.01	313.2	9280	703	15
0.01	313.2	9340	708	16
0.01	313.2	9430	712	9
0.01	313.2	9500	717	7
0.01	313.2	9590	721	11
0.01	313.2	9680	727	10
0.01	313.2	9880	736	7
0.01	313.2	10120	746	8
0.01	313.2	10390	755	7
0.01	313.2	10680	767	7
0.01	313.2	11030	778	6
0.01	313.2	11440	789	6
0.01	313.2	11950	802	6
0.01	318	9060	519	22
0.01	318	9080	522	22
0.01	318	9090	525	21
0.01	318	9110	529	21
0.01	318	9120	532	21
0.01	318	9140	535	22
0.01	318	9180	542	22
0.01	318	9220	549	10
0.01	318	9250	556	20
0.01	318	9290	563	20
0.01	318	9330	570	19
0.01	318	9380	578	18
0.01	318	9430	586	18
0.01	318	9480	593	17
0.01	318	9540	602	10
0.01	318	9610	611	14
0.01	318	9690	619	13
0.01	318	9800	631	11
0.01	318	9930	642	13
0.01	318	10020	652	10
0.01	318	10080	657	9
0.01	318	10750	695	8
0.01	318	11040	711	8
0.01	322.9	9850	518	17
0.01	322.9	9870	521	18
0.01	322.9	9890	526	15
0.01	322.9	9920	529	16
0.01	322.9	9940	532	16
0.01	322.9	9960	535	16
0.01	322.9	9980	539	16
0.01	322.9	10000	540	21
0.01	322.9	10020	542	15
0.01	322.9	10050	547	15
0.01	322.9	10080	550	39
0.01	322.9	10100	554	17
0.01	322.9	10110	556	17
0.01	322.9	10140	559	4
0.01	322.9	10170	563	9
0.01	322.9	10200	566	15
0.01	322.9	10230	576	13
0.01	322.9	10260	574	14
0.01	322.9	10290	578	13
0.01	322.9	10330	582	10
0.01	322.9	10370	586	13
0.01	322.9	10400	590	13
0.01	322.9	10430	594	12
0.01	322.9	10470	598	12
0.01	322.9	10520	602	8
0.01	322.9	10570	606	8
0.01	322.9	10620	610	10
0.01	322.9	10680	615	11
0.01	322.9	10720	619	10
0.01	322.9	10780	624	11
0.01	322.9	10840	629	12
0.01	322.9	10900	633	8
0.01	322.9	10980	638	9
0.01	322.9	11040	641	9
0.01	322.9	11160	650	11
0.01	322.9	11290	657	9
0.01	322.9	11510	667	8
0.01	322.9	11800	681	7
0.01	322.9	12030	691	6
0.01	327.9	10570	497	12
0.01	327.9	10600	500	12
0.01	327.9	10630	502	13
0.01	327.9	10660	505	13
0.01	327.9	10690	509	25
0.01	327.9	10720	511	25
0.01	327.9	10740	514	13
0.01	327.9	10770	517	6
0.01	327.9	10820	522	13
0.01	327.9	10880	529	13
0.01	327.9	10930	535	13
0.01	327.9	11010	542	12
0.01	327.9	11080	549	13
0.01	327.9	11130	554	12
0.01	327.9	11190	559	11
0.01	327.9	11280	567	11
0.01	327.9	11420	578	10
0.01	327.9	11510	586	10
0.01	327.9	11630	594	9
0.01	327.9	11790	606	9
0.01	327.9	11920	615	9
0.01	327.9	11980	621	9
0.01	327.9	12070	628	9
0.01	327.9	12300	639	8
0.01	327.9	12630	657	8
0.01	332.9	11320	487	13
0.01	332.9	11330	488	13
0.01	332.9	11340	490	12
0.01	332.9	11350	491	12
0.01	332.9	11370	493	12
0.01	332.9	11380	494	12
0.01	332.9	11400	496	12
0.01	332.9	11410	497	12
0.01	332.9	11420	498	11
0.01	332.9	11440	500	12
0.01	332.9	11450	501	5
0.01	332.9	11470	503	11
0.01	332.9	11490	506	15
0.01	332.9	11520	509	8
0.01	332.9	11560	511	11
0.01	332.9	11600	515	11
0.01	332.9	11630	518	11
0.01	332.9	11660	521	11
0.01	332.9	11700	524	11
0.01	332.9	11730	527	11
0.01	332.9	11770	531	10
0.01	332.9	11810	534	24
0.01	332.9	11850	537	10
0.01	332.9	11890	540	9
0.01	332.9	11940	543	25
0.01	332.9	11990	547	25
0.01	332.9	12040	551	11
0.01	332.9	12090	554	6
0.01	332.9	12140	558	4
0.01	332.9	12190	561	18
0.01	332.9	12240	565	14
0.01	332.9	12290	569	9
0.01	332.9	12340	573	9
0.01	332.9	12390	576	9
0.01	332.9	12460	580	8
0.01	332.9	12530	584	8
0.01	332.9	12590	588	8
0.01	332.9	12670	592	8
0.01	332.9	12800	600	8
0.01	332.9	12950	608	8
0.01	332.9	13110	617	8
0.01	332.9	13330	628	7
0.025	308.2	7640	781	27
0.025	308.2	7720	786	24
0.025	308.2	7820	792	7
0.025	308.2	7930	798	14
0.025	308.2	8060	804	6
0.025	308.2	8170	809	11
0.025	308.2	8350	815	7
0.025	308.2	8530	822	10
0.025	308.2	8700	827	6
0.025	308.2	8940	833	7
0.025	308.2	9180	840	6
0.025	308.2	9410	845	5
0.025	308.2	9700	852	6
0.025	313.2	8370	726	44
0.025	313.2	8410	730	29
0.025	313.2	8450	736	22
0.025	313.2	8510	740	14
0.025	313.2	8550	745	15
0.025	313.2	8620	750	11
0.025	313.2	8700	755	12
0.025	313.2	8780	760	9
0.025	313.2	8880	765	9
0.025	313.2	8960	771	10
0.025	313.2	9060	775	6
0.025	313.2	9180	781	9
0.025	313.2	9310	786	11
0.025	313.2	9450	792	7
0.025	313.2	9590	798	6
0.025	313.2	9780	803	9
0.025	313.2	9970	810	6
0.025	313.2	10180	815	7
0.025	313.2	10400	821	5
0.025	313.2	10630	827	4
0.025	313.2	10880	833	5
0.025	313.2	11160	840	6
0.025	313.2	11450	846	4
0.025	313.2	11770	852	5
0.025	316.2	8740	683	17
0.025	316.2	8760	687	16
0.025	316.2	8790	692	16
0.025	316.2	8810	696	14
0.025	316.2	8830	700	12
0.025	316.2	8880	704	15
0.025	316.2	8910	709	24
0.025	316.2	8960	713	12
0.025	316.2	8990	718	9
0.025	316.2	9060	723	9
0.025	316.2	9110	728	9
0.025	316.2	9180	732	10
0.025	316.2	9250	737	9
0.025	316.2	9320	742	6
0.025	316.2	9410	747	9
0.025	316.2	9500	752	9
0.025	316.2	9590	758	8
0.025	316.2	9700	762	8
0.025	316.2	9800	768	7
0.025	316.2	9930	772	6
0.025	316.2	10060	778	7
0.025	316.2	10210	783	6
0.025	316.2	10360	788	6
0.025	316.2	10520	794	6
0.025	316.2	10720	800	6
0.025	316.2	10910	806	6
0.025	316.2	11110	812	6
0.025	316.2	11350	818	5
0.025	316.2	11610	824	5
0.025	316.2	11880	830	5
0.025	316.2	12200	836	5
0.025	316.2	12480	842	5
0.025	318	9190	680	38
0.025	318	9230	683	47
0.025	318	9260	688	42
0.025	318	9290	692	37
0.025	318	9340	696	21
0.025	318	9380	700	20
0.025	318	9430	705	17
0.025	318	9480	709	16
0.025	318	9530	714	17
0.025	318	9590	718	16
0.025	318	9660	723	16
0.025	318	9730	728	12
0.025	318	9800	732	12
0.025	318	9860	737	12
0.025	318	9950	742	11
0.025	318	10050	747	8
0.025	318	10150	752	10
0.025	318	10260	757	15
0.025	318	10380	762	17
0.025	318	10500	768	8
0.025	318	10640	773	6
0.025	318	10800	779	6
0.025	318	10960	784	5
0.025	318	11120	789	7
0.025	318	11320	795	10
0.025	318	11520	801	6
0.025	318	11740	806	6
0.025	318	11950	813	5
0.025	318	12210	818	5
0.025	318	12490	824	5
0.025	318	12770	830	5
0.025	318	13080	836	5
0.025	318	13490	843	5
0.025	318	13740	849	5
0.025	322.9	10230	673	8
0.025	322.9	10240	675	8
0.025	322.9	10270	679	14
0.025	322.9	10310	683	18
0.025	322.9	10370	687	10
0.025	322.9	10440	692	11
0.025	322.9	10470	696	10
0.025	322.9	10540	701	11
0.025	322.9	10610	705	11
0.025	322.9	10670	710	10
0.025	322.9	10750	714	11
0.025	322.9	10820	718	9
0.025	322.9	10910	723	8
0.025	322.9	11020	727	11
0.025	322.9	11090	732	9
0.025	322.9	11190	737	8
0.025	322.9	11310	742	6
0.025	322.9	11450	747	7
0.025	322.9	11540	751	6
0.025	322.9	11700	757	7
0.025	322.9	11820	763	8
0.025	322.9	11970	768	6
0.025	322.9	12130	773	9
0.025	322.9	12330	778	10
0.025	322.9	12520	784	6
0.025	322.9	12710	790	5
0.025	322.9	12920	795	6
0.025	322.9	13150	801	6
0.025	322.9	13390	806	5
0.025	322.9	13640	812	5
0.025	322.9	14100	821	5
0.025	327.9	11300	661	9
0.025	327.9	11360	665	9
0.025	327.9	11420	669	6
0.025	327.9	11480	673	7
0.025	327.9	11520	677	7
0.025	327.9	11590	682	6
0.025	327.9	11660	686	8
0.025	327.9	11730	690	7
0.025	327.9	11800	694	8
0.025	327.9	11890	698	8
0.025	327.9	11990	703	7
0.025	327.9	12110	709	10
0.025	327.9	12280	716	7
0.025	327.9	12510	726	6
0.025	327.9	12720	735	8
0.025	327.9	13010	745	8
0.025	327.9	13320	755	6
0.025	327.9	13660	765	6
0.025	327.9	14060	776	5
0.025	332.8	12270	651	9
0.025	332.8	12280	652	8
0.025	332.8	12340	655	9
0.025	332.8	12390	659	8
0.025	332.8	12460	663	8
0.025	332.8	12530	667	6
0.025	332.8	12600	671	7
0.025	332.8	12680	675	6
0.025	332.8	12840	683	9
0.025	332.8	12980	690	9
0.025	332.8	13130	696	9
0.025	332.8	13420	710	8
0.025	332.8	13670	718	9
0.025	332.8	13940	728	6
0.025	332.8	14270	738	5
0.025	332.8	14540	744	5
0.025	332.8	14820	752	5
0.025	332.8	15190	761	5
0.05	308.2	7560	838	9
0.05	308.2	7630	842	9
0.05	308.2	7710	845	7
0.05	308.2	7850	850	6
0.05	308.2	8110	855	5
0.05	308.2	8400	862	5
0.05	308.2	8750	869	5
0.05	308.2	9140	875	5
0.05	308.2	9510	881	5
0.05	313.2	8340	809	12
0.05	313.2	8460	814	7
0.05	313.2	8670	820	6
0.05	313.2	8880	826	6
0.05	313.2	9180	835	6
0.05	313.2	9440	841	5
0.05	313.2	9710	847	5
0.05	313.2	10030	852	5
0.05	313.2	10390	859	5
0.05	313.2	10750	865	5
0.05	313.2	11200	872	5
0.05	313.2	11660	878	5
0.05	318	9270	776	19
0.05	318	9330	782	17
0.05	318	9410	787	9
0.05	318	9480	792	8
0.05	318	9600	797	8
0.05	318	9760	803	7
0.05	318	9940	809	6
0.05	318	10130	814	5
0.05	318	10340	820	5
0.05	318	10600	825	5
0.05	318	10870	832	6
0.05	318	11160	838	5
0.05	318	11470	843	5
0.05	318	11860	850	5
0.05	318	12240	857	5
0.05	318	12670	862	5
0.05	318	13150	869	5
0.05	318	13850	878	5
0.05	322.9	10510	766	9
0.05	322.9	10550	769	9
0.05	322.9	10600	771	9
0.05	322.9	10720	776	7
0.05	322.9	10860	781	7
0.05	322.9	11010	787	6
0.05	322.9	11180	792	6
0.05	322.9	11380	797	6
0.05	322.9	11580	803	6
0.05	322.9	11800	808	5
0.05	322.9	12080	814	5
0.05	322.9	12320	820	5
0.05	322.9	12620	826	5
0.05	322.9	12960	832	5
0.05	322.9	13320	838	5
0.05	322.9	13570	843	5
0.05	322.9	14000	850	5
0.05	322.9	14430	856	5
0.05	322.9	14840	862	5
0.05	322.9	15620	872	5
0.05	327.9	11720	759	10
0.05	327.9	11840	763	7
0.05	327.9	11970	768	6
0.05	327.9	12130	774	6
0.05	327.9	12310	779	6
0.05	327.9	12500	784	6
0.05	327.9	12700	790	5
0.05	327.9	12920	795	5
0.05	327.9	13160	800	5
0.05	327.9	13410	805	5
0.05	327.9	13700	811	5
0.05	327.9	14010	817	5
0.05	327.9	14330	823	5
0.05	327.9	14700	829	5
0.05	327.9	15080	835	5
0.05	332.9	12820	743	6
0.05	332.9	12860	743	7
0.05	332.9	12920	746	6
0.05	332.9	13060	751	6
0.05	332.9	13220	755	6
0.05	332.9	13380	760	6
0.05	332.9	13550	766	5
0.05	332.9	13760	770	5
0.05	332.9	13960	776	5
0.05	332.9	14160	781	5
0.05	332.9	14400	786	5
0.05	332.9	14680	792	5
0.05	332.9	14960	798	5
0.05	332.9	15260	803	5
0.05	332.9	15550	809	5
0.1	308.2	7520	928	6
0.1	308.2	7670	932	5
0.1	308.2	7810	935	5
0.1	308.2	8340	942	4
0.1	308.2	8680	946	4
0.1	308.2	9380	953	4
0.1	308.2	10000	958	4
0.1	308.2	11040	967	4
0.1	308.2	11550	970	4
0.1	308.2	12070	974	4
0.1	308.2	12550	978	4
0.1	308.2	13110	981	4
0.1	308.2	13640	984	4
0.1	308.2	14250	989	4
0.1	308.2	14770	992	4
0.1	313.2	8380	913	14
0.1	313.2	8520	916	6
0.1	313.2	8760	920	6
0.1	313.2	9000	923	5
0.1	313.2	9280	926	6
0.1	313.2	9550	929	4
0.1	313.2	9880	932	5
0.1	313.2	10180	936	4
0.1	313.2	10370	938	4
0.1	313.2	10540	939	5
0.1	313.2	10860	942	5
0.1	313.2	11640	949	4
0.1	313.2	12490	956	4
0.1	313.2	13510	964	4
0.1	318	9410	894	10
0.1	318	9540	896	7
0.1	318	9730	900	5
0.1	318	9880	903	5
0.1	318	10140	906	5
0.1	318	10340	909	5
0.1	318	10610	912	6
0.1	318	10850	916	4
0.1	318	11140	919	5
0.1	318	11440	922	4
0.1	318	11750	925	4
0.1	318	12090	928	4
0.1	318	12780	935	4
0.1	318	13580	943	4
0.1	318	13990	945	5
0.1	318	14380	949	5
0.1	322.9	10630	881	12
0.1	322.9	10700	882	7
0.1	322.9	10770	884	5
0.1	322.9	10840	885	5
0.1	322.9	11000	888	6
0.1	322.9	11230	892	9
0.1	322.9	11540	897	4
0.1	322.9	12010	903	4
0.1	322.9	12540	910	4
0.1	322.9	13080	915	4
0.1	322.9	13790	923	4
0.1	322.9	14490	929	4
0.1	322.9	14880	932	5
0.1	327.9	11740	864	12
0.1	327.9	11770	865	6
0.1	327.9	11880	867	6
0.1	327.9	12050	871	6
0.1	327.9	12360	876	5
0.1	327.9	12740	882	5
0.1	327.9	13130	888	4
0.1	327.9	13370	891	4
0.1	327.9	13640	894	5
0.1	327.9	14180	900	4
0.1	327.9	14780	907	4
0.1	327.9	15410	913	4
0.1	327.9	16050	919	4
0.1	332.9	13070	854	9
0.1	332.9	13170	856	9
0.1	332.9	13270	858	5
0.1	332.9	13420	861	5
0.1	332.9	13550	863	6
0.1	332.9	13730	865	5
0.1	332.9	13890	867	6
0.1	332.9	14060	870	5
0.1	332.9	14260	873	5
0.1	332.9	14470	876	4
0.1	332.9	14680	878	5
0.1	332.9	15140	884	5
0.1	332.9	15420	888	4
0.1	332.9	15660	891	4
0.1	332.9	15950	894	5
0.1	332.9	16260	897	4
0.1	332.9	16560	900	4
0.1	332.9	16870	904	4
0.1	332.9	17190	907	4
0.1	337.9	14310	841	5
0.1	337.9	14470	844	5
0.1	337.9	14580	846	5
0.1	337.9	14740	848	4
0.1	337.9	14900	851	5
0.1	337.9	15020	852	5
0.1	337.9	15200	855	5
0.1	337.9	15360	857	5
0.1	337.9	15580	859	5
0.1	337.9	15740	862	5
0.1	337.9	15940	864	5
0.1	337.9	16190	868	5
0.1	337.9	16420	871	5
0.1	337.9	16660	874	4
0.1	337.9	16920	877	5
0.1	337.9	17400	883	4
0.15	308.2	7710	979	4
0.15	308.2	8230	982	4
0.15	308.2	8830	985	4
0.15	308.2	9400	988	4
0.15	308.2	9980	991	4
0.15	308.2	10720	995	4
0.15	308.2	11360	999	4
0.15	308.2	11980	1002	4
0.15	308.2	12950	1006	4
0.15	308.2	13620	1009	4
0.15	308.2	14410	1013	4
0.15	308.2	15180	1016	4
0.15	308.2	16060	1020	4
0.15	308.2	16850	1023	4
0.15	313.2	8200	962	4
0.15	313.2	8580	965	4
0.15	313.2	9070	969	4
0.15	313.2	9670	972	4
0.15	313.2	10310	976	4
0.15	313.2	10620	978	4
0.15	313.2	11230	981	4
0.15	313.2	11850	985	4
0.15	313.2	12460	987	4
0.15	313.2	13220	992	4
0.15	313.2	13960	995	4
0.15	313.2	14650	999	4
0.15	313.2	15420	1002	4
0.15	313.2	16160	1006	4
0.15	313.2	16920	1009	4
0.15	318	9180	949	4
0.15	318	9490	952	4
0.15	318	9940	956	4
0.15	318	10320	959	4
0.15	318	10920	962	4
0.15	318	11480	966	4
0.15	318	11960	969	4
0.15	318	12600	972	4
0.15	318	13090	975	4
0.15	318	13710	978	4
0.15	318	14310	982	4
0.15	318	15060	986	4
0.15	318	15680	989	4
0.15	318	16350	992	4
0.15	318	16950	995	4
0.15	322.9	10380	939	4
0.15	322.9	10880	943	4
0.15	322.9	11200	945	4
0.15	322.9	11760	950	4
0.15	322.9	12140	952	4
0.15	322.9	12660	956	4
0.15	322.9	13170	959	4
0.15	322.9	13720	962	4
0.15	322.9	14230	965	4
0.15	322.9	14860	969	4
0.15	322.9	15440	972	4
0.15	322.9	15960	975	4
0.15	322.9	16660	979	4
0.15	322.9	17270	982	4
0.15	327.9	11600	928	4
0.15	327.9	11920	931	4
0.15	327.9	12250	934	4
0.15	327.9	12640	937	4
0.15	327.9	13120	941	4
0.15	327.9	13520	943	4
0.15	327.9	13980	947	4
0.15	327.9	14440	949	4
0.15	327.9	14900	952	4
0.15	327.9	15460	956	4
0.15	327.9	15940	959	4
0.15	327.9	16480	962	4
0.15	327.9	17080	965	4
0.15	332.9	12600	914	4
0.15	332.9	12750	916	4
0.15	332.9	13090	919	4
0.15	332.9	13440	922	4
0.15	332.9	13730	925	4
0.15	332.9	14250	928	4
0.15	332.9	14620	931	4
0.15	332.9	15000	933	4
0.15	332.9	15420	937	4
0.15	332.9	15840	940	4
0.15	332.9	16380	943	4
