Measured thermophysical data. Hypothetical Thermodynamic Properties. Subcooled Vaporization Enthalpies and Vapor Pressures of Polyaromatic Hydrocarbons
Source: J. Chem. Eng. Data, 2008, 10.1021/je800300x
Compound 1: biphenylene, C12H8, InChI=1S/C12H8/c1-2-6-10-9(5-1)11-7-3-4-8-12(10)11/h1-8H, purity 99%
Compound 2: diphenylmethane, C13H12, InChI=1S/C13H12/c1-3-7-12(8-4-1)11-13-9-5-2-6-10-13/h1-10H,11H2, purity 99%
Compound 3: fluorene, C13H10, InChI=1S/C13H10/c1-3-7-12-10(5-1)9-11-6-2-4-8-13(11)12/h1-8H,9H2, purity 99%
Compound 4: 1-methyl-9H-fluorene, C14H12, InChI=1S/C14H12/c1-10-5-4-8-13-12-7-3-2-6-11(12)9-14(10)13/h2-8H,9H2,1H3, purity 99%
Compound 5: benzo[def]fluorene, C15H10, InChI=1S/C15H10/c1-3-10-7-8-11-4-2-6-13-9-12(5-1)14(10)15(11)13/h1-8H,9H2, purity 99%
Compound 6: 2-phenyl-1H-indene, C15H12, InChI=1S/C15H12/c1-2-6-12(7-3-1)15-10-13-8-4-5-9-14(13)11-15/h1-10H,11H2, purity 99%
Compound 7: 1-methylanthracene, C15H12, InChI=1S/C15H12/c1-11-5-4-8-14-9-12-6-2-3-7-13(12)10-15(11)14/h2-10H,1H3, purity 99%
Compound 8: 2-methylanthracene, C15H12, InChI=1S/C15H12/c1-11-6-7-14-9-12-4-2-3-5-13(12)10-15(14)8-11/h2-10H,1H3, purity 99%
Compound 9: 9-methylanthracene, C15H12, InChI=1S/C15H12/c1-11-14-8-4-2-6-12(14)10-13-7-3-5-9-15(11)13/h2-10H,1H3, purity 99%
Compound 10: 1-methylphenanthrene, C15H12, InChI=1S/C15H12/c1-11-5-4-8-15-13(11)10-9-12-6-2-3-7-14(12)15/h2-10H,1H3, purity 99%
Compound 11: pyrene, C16H10, InChI=1S/C16H10/c1-3-11-7-9-13-5-2-6-14-10-8-12(4-1)15(11)16(13)14/h1-10H, purity 99%
Compound 12: 9,10-dimethylanthracene, C16H14, InChI=1S/C16H14/c1-11-13-7-3-5-9-15(13)12(2)16-10-6-4-8-14(11)16/h3-10H,1-2H3, purity 99%
Compound 13: 2-ethylanthracene, C16H14, InChI=1S/C16H14/c1-2-12-7-8-15-10-13-5-3-4-6-14(13)11-16(15)9-12/h3-11H,2H2,1H3, purity 99%
Compound 14: benzo[b]fluorene, C17H12, InChI=1S/C17H12/c1-2-6-13-11-17-15(9-12(13)5-1)10-14-7-3-4-8-16(14)17/h1-9,11H,10H2, purity 99%
Compound 15: benz[a]anthracene, C18H12, InChI=1S/C18H12/c1-2-7-15-12-18-16(11-14(15)6-1)10-9-13-5-3-4-8-17(13)18/h1-12H, purity 99%
Compound 16: 2,3-benzanthracene, C18H12, InChI=1S/C18H12/c1-2-6-14-10-18-12-16-8-4-3-7-15(16)11-17(18)9-13(14)5-1/h1-12H, purity 99%
Compound 17: triphenylene, C18H12, InChI=1S/C18H12/c1-2-8-14-13(7-1)15-9-3-4-11-17(15)18-12-6-5-10-16(14)18/h1-12H, purity 99%
Compound 18: 1,1':4',1''-terphenyl-d14, C18D14, InChI=1S/C18H14/c1-3-7-15(8-4-1)17-11-13-18(14-12-17)16-9-5-2-6-10-16/h1-14H/i1D,2D,3D,4D,5D,6D,7D,8D,9D,10D,11D,12D,13D,14D, purity 99%
Compound 19: triphenylmethane, C19H16, InChI=1S/C19H16/c1-4-10-16(11-5-1)19(17-12-6-2-7-13-17)18-14-8-3-9-15-18/h1-15,19H, purity 99%
Compound 20: benzo[a]pyrene, C20H12, InChI=1S/C20H12/c1-2-7-17-15(4-1)12-16-9-8-13-5-3-6-14-10-11-18(17)20(16)19(13)14/h1-12H, purity 99%
Compound 21: benzo[e]pyrene, C20H12, InChI=1S/C20H12/c1-2-8-16-15(7-1)17-9-3-5-13-11-12-14-6-4-10-18(16)20(14)19(13)17/h1-12H, purity 99%
Compound 22: benzo[k]fluoranthene, C20H12, InChI=1S/C20H12/c1-2-6-15-12-19-17-10-4-8-13-7-3-9-16(20(13)17)18(19)11-14(15)5-1/h1-12H, purity 99%
Compound 23: benz[e]acephenanthrylene, C20H12, InChI=1S/C20H12/c1-2-7-14-13(6-1)12-19-16-9-4-3-8-15(16)18-11-5-10-17(14)20(18)19/h1-12H, purity 99%
Compound 24: benzo[ghi]perylene, C22H12, InChI=1S/C22H12/c1-3-13-7-9-15-11-12-16-10-8-14-4-2-6-18-17(5-1)19(13)21(15)22(16)20(14)18/h1-12H, purity 99%
Compound 25: dibenz[a,c]anthracene, C22H14, InChI=1S/C22H14/c1-2-8-16-14-22-20-12-6-4-10-18(20)17-9-3-5-11-19(17)21(22)13-15(16)7-1/h1-14H, purity 99%
Compound 26: dibenz[a,h]anthracene, C22H14, InChI=1S/C22H14/c1-3-7-19-15(5-1)9-11-17-14-22-18(13-21(17)19)12-10-16-6-2-4-8-20(16)22/h1-14H, purity 99%
Compound 27: 1,1':4',1'':4'',1'''-quaterphenyl, C24H18, InChI=1S/C24H18/c1-3-7-19(8-4-1)21-11-15-23(16-12-21)24-17-13-22(14-18-24)20-9-5-2-6-10-20/h1-18H, purity 99%
Compound 28: 1,3,5-triphenylbenzene, C24H18, InChI=1S/C24H18/c1-4-10-19(11-5-1)22-16-23(20-12-6-2-7-13-20)18-24(17-22)21-14-8-3-9-15-21/h1-18H, purity 99%

System: biphenylene; phases: Crystal, Liquid, Air at 1 atmosphere
Property: Molar enthalpy of transition or fusion, kJ/mol (Crystal); method: DSC
Molar enthalpy of transition or fusion, kJ/mol	uncertainty
22.6	1.5

System: biphenylene; phases: Crystal, Liquid, Air at 1 atmosphere
Property: Normal melting temperature, K (Crystal); method: DTA
Normal melting temperature, K	uncertainty
385.4	1.1

System: biphenylene; phases: Liquid, Gas
Property: Vapor or sublimation pressure, kPa (Liquid); method: Correlation gas chromatography
Temperature, K	Vapor or sublimation pressure, kPa	uncertainty
298.15	0.001916	0.000323
300	0.002259	0.000363
310	0.005286	0.000866
320	0.01161	0.00186
330	0.02408	0.00377
340	0.0474	0.0073
350	0.08895	0.0135
360	0.1598	0.024
370	0.2761	0.041
380	0.4599	0.0676
390	0.7412	0.1081
400	1.159	0.168
410	1.761	0.254
420	2.609	0.374
430	3.775	0.539
440	5.345	0.76
450	7.415	1.051
460	10.1	1.43
470	13.51	1.9
480	17.8	2.5
490	23.09	3.24
500	29.55	4.14
510	37.33	5.21

System: diphenylmethane; phases: Liquid, Gas
Property: Vapor or sublimation pressure, kPa (Liquid); method: Correlation gas chromatography
Temperature, K	Vapor or sublimation pressure, kPa	uncertainty
298.15	0.002021	0.000342
300	0.002387	0.000384
310	0.005642	0.000929
320	0.01251	0.00201
330	0.0262	0.00412
340	0.05207	0.00805
350	0.09866	0.01502
360	0.179	0.0269
370	0.3123	0.0465
380	0.5255	0.0774
390	0.8555	0.1251
400	1.351	0.196
410	2.076	0.3
420	3.108	0.446
430	4.546	0.65
440	6.505	0.926
450	9.124	1.295
460	12.56	1.78
470	17	2.4
480	22.63	3.19
490	29.69	4.17
500	38.42	5.39
510	49.08	6.86

System: fluorene; phases: Liquid, Gas
Property: Vapor or sublimation pressure, kPa (Liquid); method: Correlation gas chromatography
Temperature, K	Vapor or sublimation pressure, kPa	uncertainty
298.15	0.0004628	8e-05
300	0.0005519	9.01e-05
310	0.001374	0.000232
320	0.003209	0.000526
330	0.007067	0.001133
340	0.01475	0.00232
350	0.02926	0.00452
360	0.05545	0.00844
370	0.1007	0.0151
380	0.1759	0.0262
390	0.2962	0.0437
400	0.4825	0.0705
410	0.762	0.1106
420	1.17	0.169
430	1.749	0.251
440	2.551	0.365
450	3.639	0.518
460	5.083	0.721
470	6.963	0.985
480	9.367	1.321
490	12.39	1.74
500	16.14	2.27
510	20.71	2.89

System: 1-methyl-9H-fluorene; phases: Liquid, Gas
Property: Vapor or sublimation pressure, kPa (Liquid); method: Correlation gas chromatography
Temperature, K	Vapor or sublimation pressure, kPa	uncertainty
298.15	0.0001396	2.51e-05
300	0.0001694	2.84e-05
310	0.0004602	8.05e-05
320	0.001159	0.000196
330	0.002723	0.000447
340	0.006013	0.000964
350	0.01254	0.00197
360	0.02484	0.00384
370	0.04693	0.00714
380	0.0849	0.01275
390	0.1477	0.0219
400	0.2477	0.0365
410	0.4019	0.0587
420	0.6325	0.0918
430	0.9678	0.1396
440	1.443	0.207
450	2.101	0.3
460	2.992	0.426
470	4.175	0.592
480	5.717	0.808
490	7.691	1.085
500	10.18	1.43
510	13.27	1.86

System: benzo[def]fluorene; phases: Liquid, Gas
Property: Vapor or sublimation pressure, kPa (Liquid); method: Correlation gas chromatography
Temperature, K	Vapor or sublimation pressure, kPa	uncertainty
298.15	2.63e-05	4.9e-06
300	3.24e-05	5.56e-06
310	9.496e-05	1.725e-05
320	0.0002567	4.48e-05
330	0.0006445	0.0001089
340	0.001512	0.000248
350	0.003337	0.000535
360	0.006958	0.001093
370	0.01378	0.00213
380	0.02602	0.00396
390	0.04705	0.00707
400	0.08176	0.01215
410	0.137	0.0202
420	0.2219	0.0324
430	0.3484	0.0505
440	0.5316	0.0766
450	0.7901	0.1133
460	1.146	0.164
470	1.625	0.231
480	2.257	0.32
490	3.074	0.434
500	4.112	0.579
510	5.41	0.758

System: 2-phenyl-1H-indene; phases: Liquid, Gas
Property: Vapor or sublimation pressure, kPa (Liquid); method: Correlation gas chromatography
Temperature, K	Vapor or sublimation pressure, kPa	uncertainty
298.15	3.065e-05	5.74e-06
300	3.783e-05	6.51e-06
310	0.000112	2.04e-05
320	0.0003054	5.36e-05
330	0.0007727	0.000131
340	0.001826	0.000301
350	0.004055	0.000652
360	0.008509	0.00134
370	0.01695	0.00262
380	0.0322	0.00491
390	0.05856	0.00881
400	0.1023	0.0152
410	0.1724	0.0254
420	0.2809	0.0411
430	0.4437	0.0644
440	0.681	0.0983
450	1.018	0.146
460	1.485	0.212
470	2.119	0.302
480	2.96	0.42
490	4.057	0.574
500	5.46	0.77
510	7.227	1.013

System: 1-methylanthracene; phases: Liquid, Gas
Property: Vapor or sublimation pressure, kPa (Liquid); method: Correlation gas chromatography
Temperature, K	Vapor or sublimation pressure, kPa	uncertainty
298.15	1.487e-05	2.83e-06
300	1.848e-05	3.21e-06
310	5.679e-05	1.057e-05
320	0.0001604	2.86e-05
330	0.0004194	7.22e-05
340	0.001023	0.000171
350	0.002339	0.00038
360	0.005047	0.000803
370	0.01033	0.00161
380	0.02012	0.00309
390	0.03748	0.00568
400	0.06703	0.01004
410	0.1154	0.0171
420	0.192	0.0282
430	0.3093	0.0451
440	0.4839	0.0701
450	0.7368	0.1062
460	1.094	0.157
470	1.587	0.227
480	2.252	0.32
490	3.134	0.444
500	4.281	0.605
510	5.747	0.807

System: 2-methylanthracene; phases: Liquid, Gas
Property: Vapor or sublimation pressure, kPa (Liquid); method: Correlation gas chromatography
Temperature, K	Vapor or sublimation pressure, kPa	uncertainty
298.15	2.05e-05	3.84e-06
300	2.529e-05	4.35e-06
310	7.484e-05	1.367e-05
320	0.0002043	3.59e-05
330	0.0005184	8.8e-05
340	0.00123	0.000203
350	0.002748	0.000443
360	0.005808	0.000917
370	0.01167	0.00181
380	0.02238	0.00342
390	0.04115	0.00621
400	0.07276	0.01086
410	0.1241	0.0184
420	0.205	0.0301
430	0.3283	0.0478
440	0.5114	0.074
450	0.7762	0.1118
460	1.15	0.165
470	1.668	0.238
480	2.368	0.337
490	3.3	0.468
500	4.517	0.639
510	6.082	0.854

System: 9-methylanthracene; phases: Liquid, Gas
Property: Vapor or sublimation pressure, kPa (Liquid); method: Correlation gas chromatography
Temperature, K	Vapor or sublimation pressure, kPa	uncertainty
298.15	1.078e-05	2.07e-06
300	1.344e-05	2.35e-06
310	4.194e-05	7.87e-06
320	0.0001202	2.16e-05
330	0.0003185	5.52e-05
340	0.0007864	0.000132
350	0.00182	0.000297
360	0.003969	0.000634
370	0.0082	0.001284
380	0.01612	0.00248
390	0.0303	0.0046
400	0.05462	0.0082
410	0.09476	0.01407
420	0.1587	0.0234
430	0.2574	0.0376
440	0.4051	0.0588
450	0.6202	0.0895
460	0.9257	0.1328
470	1.349	0.193
480	1.925	0.274
490	2.69	0.382
500	3.689	0.522
510	4.972	0.698

System: 1-methylphenanthrene; phases: Liquid, Gas
Property: Vapor or sublimation pressure, kPa (Liquid); method: Correlation gas chromatography
Temperature, K	Vapor or sublimation pressure, kPa	uncertainty
298.15	1.848e-05	3.44e-06
300	2.275e-05	3.9e-06
310	6.665e-05	1.212e-05
320	0.0001805	3.16e-05
330	0.0004556	7.72e-05
340	0.001077	0.000178
350	0.002402	0.000387
360	0.005074	0.000801
370	0.0102	0.00158
380	0.01961	0.003
390	0.03616	0.00547
400	0.0642	0.0096
410	0.1101	0.0163
420	0.1827	0.0268
430	0.2943	0.0429
440	0.4614	0.0669
450	0.7051	0.1017
460	1.052	0.151
470	1.537	0.22
480	2.2	0.313
490	3.089	0.439
500	4.263	0.604
510	5.788	0.813

System: pyrene; phases: Liquid, Gas
Property: Vapor or sublimation pressure, kPa (Liquid); method: Correlation gas chromatography
Temperature, K	Vapor or sublimation pressure, kPa	uncertainty
298.15	3.224e-06	6.36e-07
300	4.065e-06	7.22e-07
310	1.344e-05	2.6e-06
320	4.063e-05	7.5e-06
330	0.0001131	2e-05
340	0.0002923	5e-05
350	0.0007056	0.0001173
360	0.0016	0.000259
370	0.003428	0.000544
380	0.006972	0.001086
390	0.01352	0.00207
400	0.02508	0.0038
410	0.04471	0.00669
420	0.07681	0.01138
430	0.1275	0.0187
440	0.2052	0.0299
450	0.3207	0.0465
460	0.488	0.0703
470	0.7243	0.1038
480	1.051	0.15
490	1.492	0.212
500	2.077	0.294
510	2.839	0.399

System: 9,10-dimethylanthracene; phases: Liquid, Gas
Property: Vapor or sublimation pressure, kPa (Liquid); method: Correlation gas chromatography
Temperature, K	Vapor or sublimation pressure, kPa	uncertainty
298.15	2.457e-06	4.9e-07
300	3.112e-06	5.57e-07
310	1.053e-05	2.07e-06
320	3.248e-05	6.06e-06
330	9.213e-05	1.647e-05
340	0.000242	4.17e-05
350	0.0005928	9.91e-05
360	0.001362	0.000222
370	0.002953	0.000471
380	0.00607	0.000949
390	0.01188	0.00183
400	0.02223	0.00337
410	0.03993	0.00599
420	0.06904	0.01025
430	0.1153	0.017
440	0.1865	0.0272
450	0.2928	0.0425
460	0.4472	0.0645
470	0.6662	0.0956
480	0.9692	0.1384
490	1.38	0.196
500	1.925	0.273
510	2.636	0.371

System: 2-ethylanthracene; phases: Liquid, Gas
Property: Vapor or sublimation pressure, kPa (Liquid); method: Correlation gas chromatography
Temperature, K	Vapor or sublimation pressure, kPa	uncertainty
298.15	5.766e-06	1.129e-06
300	7.247e-06	1.281e-06
310	2.356e-05	4.52e-06
320	7.007e-05	1.283e-05
330	0.0001922	3.38e-05
340	0.0004898	8.33e-05
350	0.001167	0.000193
360	0.002616	0.000422
370	0.005544	0.000876
380	0.01116	0.00173
390	0.02144	0.00328
400	0.03945	0.00596
410	0.06977	0.01042
420	0.119	0.0176
430	0.1963	0.0288
440	0.3139	0.0457
450	0.4879	0.0706
460	0.7387	0.1063
470	1.091	0.156
480	1.577	0.225
490	2.23	0.317
500	3.094	0.438
510	4.216	0.593

System: benzo[b]fluorene; phases: Liquid, Gas
Property: Vapor or sublimation pressure, kPa (Liquid); method: Correlation gas chromatography
Temperature, K	Vapor or sublimation pressure, kPa	uncertainty
298.15	1.03e-06	2.09e-07
300	1.313e-06	2.37e-07
310	4.599e-06	9.21e-07
320	1.467e-05	2.79e-06
330	4.299e-05	7.82e-06
340	0.0001165	2.04e-05
350	0.0002943	4.99e-05
360	0.0006969	0.000115
370	0.001556	0.000251
380	0.003291	0.00052
390	0.006627	0.00103
400	0.01275	0.00195
410	0.02354	0.00356
420	0.04182	0.00625
430	0.07174	0.01063
440	0.1191	0.0175
450	0.1919	0.028
460	0.3007	0.0436
470	0.4594	0.0662
480	0.6851	0.0983
490	0.9994	0.1428
500	1.428	0.203
510	2.002	0.282

System: benz[a]anthracene; phases: Liquid, Gas
Property: Vapor or sublimation pressure, kPa (Liquid); method: Correlation gas chromatography
Temperature, K	Vapor or sublimation pressure, kPa	uncertainty
298.15	1.555e-07	3.33e-08
300	2.027e-07	3.79e-08
310	7.973e-07	1.712e-07
320	2.825e-06	5.7e-07
330	9.102e-06	1.74e-06
340	2.691e-05	4.92e-06
350	7.354e-05	1.293e-05
360	0.0001871	3.18e-05
370	0.0004461	7.38e-05
380	0.001002	0.000162
390	0.002131	0.000337
400	0.00431	0.000671
410	0.008328	0.001277
420	0.01543	0.00234
430	0.02749	0.00411
440	0.04726	0.00701
450	0.07863	0.01156
460	0.1269	0.0185
470	0.1991	0.0289
480	0.3043	0.0439
490	0.4539	0.0651
500	0.6622	0.0946
510	0.946	0.1336

System: 2,3-benzanthracene; phases: Liquid, Gas
Property: Vapor or sublimation pressure, kPa (Liquid); method: Correlation gas chromatography
Temperature, K	Vapor or sublimation pressure, kPa	uncertainty
298.15	1.238e-07	2.66e-08
300	1.616e-07	3.02e-08
310	6.393e-07	1.378e-07
320	2.279e-06	4.61e-07
330	7.391e-06	1.418e-06
340	2.199e-05	4.03e-06
350	6.05e-05	1.067e-05
360	0.0001549	2.64e-05
370	0.0003717	6.17e-05
380	0.00084	0.0001361
390	0.001797	0.000285
400	0.003657	0.00057
410	0.007107	0.001092
420	0.01324	0.00201
430	0.02372	0.00356
440	0.04099	0.00608
450	0.06853	0.01009
460	0.1111	0.0162
470	0.1752	0.0254
480	0.2689	0.0388
490	0.403	0.0579
500	0.5903	0.0844
510	0.8467	0.1196

System: triphenylene; phases: Liquid, Gas
Property: Vapor or sublimation pressure, kPa (Liquid); method: Correlation gas chromatography
Temperature, K	Vapor or sublimation pressure, kPa	uncertainty
298.15	1.296e-07	2.79e-08
300	1.693e-07	3.17e-08
310	6.704e-07	1.446e-07
320	2.391e-06	4.84e-07
330	7.76e-06	1.49e-06
340	2.31e-05	4.24e-06
350	6.36e-05	1.122e-05
360	0.000163	2.78e-05
370	0.0003914	6.5e-05
380	0.0008854	0.0001435
390	0.001897	0.000301
400	0.003866	0.000603
410	0.007525	0.001156
420	0.01404	0.00213
430	0.02521	0.00378
440	0.04368	0.00649
450	0.07321	0.01078
460	0.119	0.0174
470	0.1881	0.0273
480	0.2896	0.0418
490	0.4353	0.0626
500	0.6396	0.0915
510	0.9204	0.1301

System: 1,1':4',1''-terphenyl-d14; phases: Liquid, Gas
Property: Vapor or sublimation pressure, kPa (Liquid); method: Correlation gas chromatography
Temperature, K	Vapor or sublimation pressure, kPa	uncertainty
298.15	1.036e-06	2.13e-07
300	1.329e-06	2.42e-07
310	4.806e-06	9.8e-07
320	1.575e-05	3.04e-06
330	4.725e-05	8.69e-06
340	0.0001307	2.31e-05
350	0.0003359	5.74e-05
360	0.0008074	0.000134
370	0.001826	0.000296
380	0.003904	0.000619
390	0.007932	0.001236
400	0.01538	0.00236
410	0.02857	0.00433
420	0.05103	0.00764
430	0.08788	0.01303
440	0.1464	0.0215
450	0.2364	0.0345
460	0.3711	0.0538
470	0.5674	0.0818
480	0.8467	0.1215
490	1.235	0.176
500	1.764	0.251
510	2.471	0.348

System: triphenylmethane; phases: Liquid, Gas
Property: Vapor or sublimation pressure, kPa (Liquid); method: Correlation gas chromatography
Temperature, K	Vapor or sublimation pressure, kPa	uncertainty
298.15	1.296e-07	2.79e-08
300	1.693e-07	3.17e-08
310	6.704e-07	1.446e-07
320	2.391e-06	4.84e-07
330	7.76e-06	1.49e-06
340	2.31e-05	4.24e-06
350	6.36e-05	1.122e-05
360	0.000163	2.78e-05
370	0.0003914	6.5e-05
380	0.0008854	0.0001435
390	0.001897	0.000301
400	0.003866	0.000603
410	0.007525	0.001156
420	0.01404	0.00213
430	0.02521	0.00378
440	0.04368	0.00649
450	0.07321	0.01078
460	0.119	0.0174
470	0.1881	0.0273
480	0.2896	0.0418
490	0.4353	0.0626
500	0.6396	0.0915
510	0.9204	0.1301

System: benzo[a]pyrene; phases: Liquid, Gas
Property: Vapor or sublimation pressure, kPa (Liquid); method: Correlation gas chromatography
Temperature, K	Vapor or sublimation pressure, kPa	uncertainty
298.15	6.953e-09	1.613e-09
300	9.352e-09	1.83e-09
310	4.315e-08	1.029e-08
320	1.773e-07	3.92e-08
330	6.56e-07	1.359e-07
340	2.204e-06	4.32e-07
350	6.784e-06	1.267e-06
360	1.928e-05	3.46e-06
370	5.09e-05	8.81e-06
380	0.0001257	2.11e-05
390	0.000292	4.78e-05
400	0.0006411	0.0001028
410	0.001337	0.00021
420	0.002658	0.000411
430	0.005058	0.000772
440	0.009247	0.001394
450	0.01629	0.00243
460	0.02771	0.0041
470	0.04568	0.0067
480	0.07312	0.01065
490	0.1139	0.0165
500	0.1729	0.0249
510	0.2564	0.0364

System: benzo[e]pyrene; phases: Liquid, Gas
Property: Vapor or sublimation pressure, kPa (Liquid); method: Correlation gas chromatography
Temperature, K	Vapor or sublimation pressure, kPa	uncertainty
298.15	6.944e-09	1.615e-09
300	9.349e-09	1.832e-09
310	4.336e-08	1.038e-08
320	1.79e-07	3.97e-08
330	6.65e-07	1.381e-07
340	2.243e-06	4.4e-07
350	6.928e-06	1.296e-06
360	1.975e-05	3.55e-06
370	5.23e-05	9.07e-06
380	0.0001295	2.18e-05
390	0.0003016	4.95e-05
400	0.0006637	0.0001065
410	0.001387	0.000218
420	0.002763	0.000428
430	0.005268	0.000804
440	0.009646	0.001455
450	0.01702	0.00254
460	0.029	0.00429
470	0.04787	0.00702
480	0.07672	0.01118
490	0.1196	0.0173
500	0.1819	0.0262
510	0.27	0.0383

System: benzo[k]fluoranthene; phases: Liquid, Gas
Property: Vapor or sublimation pressure, kPa (Liquid); method: Correlation gas chromatography
Temperature, K	Vapor or sublimation pressure, kPa	uncertainty
298.15	9.263e-09	2.141e-09
300	1.244e-08	2.43e-09
310	5.705e-08	1.355e-08
320	2.331e-07	5.13e-08
330	8.574e-07	1.77e-07
340	2.867e-06	5.6e-07
350	8.785e-06	1.637e-06
360	2.487e-05	4.45e-06
370	6.545e-05	1.132e-05
380	0.0001612	2.71e-05
390	0.0003736	6.12e-05
400	0.000819	0.0001312
410	0.001705	0.000268
420	0.003388	0.000524
430	0.006446	0.000984
440	0.01178	0.00178
450	0.02076	0.0031
460	0.03534	0.00523
470	0.05831	0.00856
480	0.09344	0.01362
490	0.1457	0.0211
500	0.2216	0.0319
510	0.3293	0.0467

System: benz[e]acephenanthrylene; phases: Liquid, Gas
Property: Vapor or sublimation pressure, kPa (Liquid); method: Correlation Gas Chromatography
Temperature, K	Vapor or sublimation pressure, kPa	uncertainty
298.15	1.046e-08	2.41e-09
300	1.404e-08	2.74e-09
310	6.399e-08	1.514e-08
320	2.6e-07	5.71e-08
330	9.516e-07	1.959e-07
340	3.166e-06	6.17e-07
350	9.658e-06	1.795e-06
360	2.722e-05	4.86e-06
370	7.135e-05	1.231e-05
380	0.0001751	2.93e-05
390	0.0004044	6.61e-05
400	0.0008837	0.0001414
410	0.001835	0.000288
420	0.003637	0.000562
430	0.006903	0.001053
440	0.01259	0.0019
450	0.02215	0.0033
460	0.03765	0.00557
470	0.06204	0.0091
480	0.09929	0.01446
490	0.1547	0.0224
500	0.2351	0.0339
510	0.3491	0.0495

System: benzo[ghi]perylene; phases: Liquid, Gas
Property: Vapor or sublimation pressure, kPa (Liquid); method: Correlation gas chromatography
Temperature, K	Vapor or sublimation pressure, kPa	uncertainty
298.15	4.308e-10	1.072e-10
300	5.959e-10	1.214e-10
310	3.18e-09	8.41e-10
320	1.495e-08	3.62e-09
330	6.263e-08	1.404e-08
340	2.362e-07	4.96e-08
350	8.092e-07	1.604e-07
360	2.539e-06	4.79e-07
370	7.355e-06	1.332e-06
380	1.98e-05	3.46e-06
390	4.981e-05	8.44e-06
400	0.0001178	1.95e-05
410	0.0002634	4.25e-05
420	0.000559	8.85e-05
430	0.001131	0.000176
440	0.002188	0.000336
450	0.004065	0.000616
460	0.007272	0.00109
470	0.01256	0.00186
480	0.02101	0.00309
490	0.03411	0.00499
500	0.05385	0.00782
510	0.08286	0.0118

System: dibenz[a,c]anthracene; phases: Liquid, Gas
Property: Vapor or sublimation pressure, kPa (Liquid); method: Correlation gas chromatography
Temperature, K	Vapor or sublimation pressure, kPa	uncertainty
298.15	2.814e-10	7.19e-11
300	3.933e-10	8.13e-11
310	2.214e-09	6.09e-10
320	1.093e-08	2.74e-09
330	4.79e-08	1.106e-08
340	1.882e-07	4.05e-08
350	6.695e-07	1.357e-07
360	2.175e-06	4.18e-07
370	6.501e-06	1.197e-06
380	1.801e-05	3.19e-06
390	4.655e-05	7.99e-06
400	0.0001129	1.88e-05
410	0.0002581	4.2e-05
420	0.0005592	8.92e-05
430	0.001153	0.000181
440	0.002271	0.00035
450	0.004288	0.000653
460	0.007788	0.001172
470	0.01364	0.00203
480	0.02312	0.00341
490	0.03797	0.00557
500	0.06062	0.00883
510	0.09421	0.01343

System: dibenz[a,h]anthracene; phases: Liquid, Gas
Property: Vapor or sublimation pressure, kPa (Liquid); method: Correlation gas chromatography
Temperature, K	Vapor or sublimation pressure, kPa	uncertainty
298.15	3.351e-10	8.51e-11
300	4.672e-10	9.62e-11
310	2.594e-09	7.06e-10
320	1.264e-08	3.14e-09
330	5.474e-08	1.254e-08
340	2.127e-07	4.55e-08
350	7.491e-07	1.509e-07
360	2.41e-06	4.61e-07
370	7.143e-06	1.309e-06
380	1.963e-05	3.46e-06
390	5.034e-05	8.61e-06
400	0.0001212	2.02e-05
410	0.0002752	4.47e-05
420	0.0005925	9.43e-05
430	0.001214	0.00019
440	0.002378	0.000366
450	0.004467	0.000679
460	0.008071	0.001213
470	0.01407	0.00209
480	0.02373	0.0035
490	0.03882	0.00568
500	0.0617	0.00897
510	0.09552	0.01361

System: 1,1':4',1'':4'',1'''-quaterphenyl; phases: Liquid, Gas
Property: Vapor or sublimation pressure, kPa (Liquid); method: Correlation gas chromatography
Temperature, K	Vapor or sublimation pressure, kPa	uncertainty
298.15	2.383e-10	6.18e-11
300	3.351e-10	6.98e-11
310	1.941e-09	5.45e-10
320	9.837e-09	2.509e-09
330	4.414e-08	1.035e-08
340	1.773e-07	3.87e-08
350	6.436e-07	1.321e-07
360	2.132e-06	4.15e-07
370	6.491e-06	1.207e-06
380	1.831e-05	3.27e-06
390	4.814e-05	8.33e-06
400	0.0001187	1.99e-05
410	0.0002758	4.52e-05
420	0.0006071	9.74e-05
430	0.001271	0.0002
440	0.002543	0.000395
450	0.004875	0.000746
460	0.008986	0.001359
470	0.01597	0.00239
480	0.02746	0.00407
490	0.04575	0.00673
500	0.07407	0.01082
510	0.1167	0.0167

System: 1,3,5-triphenylbenzene; phases: Liquid, Gas
Property: Vapor or sublimation pressure, kPa (Liquid); method: Correlation gas chromatography
Temperature, K	Vapor or sublimation pressure, kPa	uncertainty
298.15	5.473e-10	1.398e-10
300	7.65e-10	1.581e-10
310	4.299e-09	1.18e-09
320	2.117e-08	5.29e-09
330	9.246e-08	2.13e-08
340	3.622e-07	7.78e-08
350	1.285e-06	2.6e-07
360	4.165e-06	8.01e-07
370	1.243e-05	2.29e-06
380	3.442e-05	6.1e-06
390	8.894e-05	1.526e-05
400	0.0002158	3.6e-05
410	0.0004941	8.05e-05
420	0.001073	0.000171
430	0.002218	0.000348
440	0.004385	0.000678
450	0.008314	0.001268
460	0.01517	0.00229
470	0.02672	0.00399
480	0.04553	0.00674
490	0.07526	0.01105
500	0.1209	0.0176
510	0.1893	0.027
