Measured thermophysical data. Isobaric Vapor-Liquid Equilibria for the Binary Systems Benzene + Methyl Ethanoate, Benzene + Butyl Ethanoate, and Benzene + Methyl Heptanoate at 101.31kPa
Source: J. Chem. Eng. Data, 2009, 10.1021/je800915d
Compound 1: benzene, C6H6, InChI=1S/C6H6/c1-2-4-6-5-3-1/h1-6H
Compound 2: methyl ethanoate, C3H6O2, InChI=1S/C3H6O2/c1-3(4)5-2/h1-2H3
Compound 3: butyl ethanoate, C6H12O2, InChI=1S/C6H12O2/c1-3-4-5-8-6(2)7/h3-5H2,1-2H3
Compound 4: methyl heptanoate, C8H16O2, InChI=1S/C8H16O2/c1-3-4-5-6-7-8(9)10-2/h3-7H2,1-2H3

System: benzene; phases: Liquid
Property: Refractive index (Na D-line) (Liquid); method: Standard Abbe refractometry
Temperature, K	Pressure, kPa	Refractive index (Na D-line)	uncertainty
298.15	101.325	1.49765	0.00041

System: benzene; phases: Liquid, Gas
Property: Boiling temperature at pressure P, K (Liquid); method: Ebulliometric method (Recirculating still)
Pressure, kPa	Boiling temperature at pressure P, K	uncertainty
101.31	352.97	0.04

System: benzene; phases: Liquid
Property: Mass density, kg/m3 (Liquid); method: VIBTUB:UFactor:4
Temperature, K	Pressure, kPa	Mass density, kg/m3	uncertainty
298.15	101.325	873.67	0.34

System: methyl ethanoate; phases: Liquid
Property: Refractive index (Na D-line) (Liquid); method: Standard Abbe refractometry
Temperature, K	Pressure, kPa	Refractive index (Na D-line)	uncertainty
298.15	101.325	1.35893	0.00045

System: methyl ethanoate; phases: Liquid, Gas
Property: Boiling temperature at pressure P, K (Liquid); method: Ebulliometric method (Recirculating still)
Pressure, kPa	Boiling temperature at pressure P, K	uncertainty
101.31	330.03	0.6

System: methyl ethanoate; phases: Liquid
Property: Mass density, kg/m3 (Liquid); method: VIBTUB:UFactor:6
Temperature, K	Pressure, kPa	Mass density, kg/m3	uncertainty
298.15	101.325	927.36	0.53

System: butyl ethanoate; phases: Liquid
Property: Refractive index (Na D-line) (Liquid); method: Standard Abbe refractometry
Temperature, K	Pressure, kPa	Refractive index (Na D-line)	uncertainty
298.15	101.325	1.39191	0.00057

System: butyl ethanoate; phases: Liquid, Gas
Property: Boiling temperature at pressure P, K (Liquid); method: Ebulliometric method (Recirculating still)
Pressure, kPa	Boiling temperature at pressure P, K	uncertainty
101.31	398.1	0.06

System: butyl ethanoate; phases: Liquid
Property: Mass density, kg/m3 (Liquid); method: VIBTUB:UFactor:12
Temperature, K	Pressure, kPa	Mass density, kg/m3	uncertainty
298.15	101.325	876.35	1.58

System: methyl heptanoate; phases: Liquid
Property: Refractive index (Na D-line) (Liquid); method: Standard Abbe refractometry
Temperature, K	Pressure, kPa	Refractive index (Na D-line)	uncertainty
298.15	101.325	1.40945	0.00045

System: methyl heptanoate; phases: Liquid, Gas
Property: Boiling temperature at pressure P, K (Liquid); method: Ebulliometric method (Recirculating still)
Pressure, kPa	Boiling temperature at pressure P, K	uncertainty
101.31	443.63	0.05

System: methyl heptanoate; phases: Liquid
Property: Mass density, kg/m3 (Liquid); method: VIBTUB:UFactor:6
Temperature, K	Pressure, kPa	Mass density, kg/m3	uncertainty
298.15	101.325	875.88	0.64

System: methyl heptanoate; phases: Liquid, Gas
Property: Vapor or sublimation pressure, kPa (Liquid); method: Ebulliometric method (Recirculating still)
Temperature, K	Vapor or sublimation pressure, kPa	uncertainty
421.35	53.32	0.12
421.92	54.65	0.1
422.77	55.99	0.1
424.1	58.65	0.1
425.03	59.99	0.1
425.5	61.32	0.11
426.33	62.65	0.1
427.31	63.99	0.1
427.75	65.32	0.13
428.38	66.65	0.12
428.92	67.98	0.13
436.39	86.65	0.13
436.99	87.98	0.13
437.59	89.31	0.13
438.29	90.65	0.14
438.73	91.98	0.14
439.35	93.31	0.14
439.95	94.72	0.14
440.47	95.87	0.13
441.35	97.31	0.13
442.13	98.64	0.14
442.46	99.98	0.11
442.72	98.55	0.15
442.96	101.31	0.47
443.94	101.31	0.23

System: benzene + methyl ethanoate; phases: Liquid, Gas
Fixed: Pressure, kPa = 101.31
Property: Boiling temperature at pressure P, K (Liquid); method: EBULLIO:UFactor:4
Mole fraction of benzene	Boiling temperature at pressure P, K	uncertainty
0.0261	330.22	0.44
0.0498	330.48	0.44
0.0785	330.84	0.44
0.1202	331.44	0.44
0.1598	331.98	0.44
0.2059	332.45	0.44
0.254	333.07	0.44
0.3057	333.9	0.44
0.4357	336.03	0.44
0.507	337.38	0.44
0.6275	339.76	0.44
0.731	342.56	0.44
0.7971	344.46	0.44
0.8196	345.23	0.44
0.8702	347.18	0.44
0.9471	350.35	0.44
0.9769	351.75	0.44

System: benzene + methyl ethanoate; phases: Liquid
Fixed: Temperature, K = 298.15
Fixed: Pressure, kPa = 101.31
Property: Mass density, kg/m3 (Liquid); method: VIBTUB:UFactor:4
Mole fraction of benzene	Mass density, kg/m3	uncertainty
0	927	0.41
0.064	922.32	0.4
0.2087	912.23	0.38
0.2996	906.44	0.37
0.3801	901.64	0.37
0.4889	895.57	0.36
0.5983	889.89	0.35
0.6507	887.73	0.35
0.7641	882.67	0.34
0.8438	879.36	0.34
1	873.52	0.34

System: benzene + methyl ethanoate; phases: Gas, Liquid
Fixed: Pressure, kPa = 101.31
Property: Mole fraction of benzene (Gas); method: Density calibration data
Mole fraction of benzene	Mole fraction of benzene	uncertainty
0.0261	0.0154	0.0001
0.0498	0.0305	0.0001
0.0785	0.0496	0.0001
0.1202	0.0771	0.0001
0.1598	0.1017	0.0002
0.2059	0.1272	0.0003
0.254	0.1596	0.0005
0.3057	0.1961	0.0007
0.4357	0.2853	0.0013
0.507	0.3402	0.0018
0.6275	0.4362	0.0026
0.731	0.55	0.003
0.7971	0.6272	0.0026
0.8196	0.656	0.0024
0.8702	0.7396	0.0019
0.9471	0.8839	0.0008
0.9769	0.9495	0.0003

System: benzene + butyl ethanoate; phases: Liquid, Gas
Fixed: Pressure, kPa = 101.31
Property: Boiling temperature at pressure P, K (Liquid); method: EBULLIO:UFactor:4
Mole fraction of benzene	Boiling temperature at pressure P, K	uncertainty
0.0189	397.19	0.35
0.0437	395.18	0.35
0.0884	391.75	0.35
0.1168	389.71	0.35
0.1979	384.15	0.35
0.2712	379.77	0.35
0.36	375.27	0.34
0.4351	372.14	0.34
0.4894	369.75	0.34
0.5565	367.22	0.34
0.6005	365.52	0.34
0.6821	362.54	0.34
0.7651	359.71	0.34
0.7999	358.58	0.34
0.8599	356.81	0.34
0.9077	355.47	0.34
0.9501	354.25	0.34

System: benzene + butyl ethanoate; phases: Liquid
Fixed: Temperature, K = 298.15
Fixed: Pressure, kPa = 101.31
Property: Mass density, kg/m3 (Liquid); method: VIBTUB:UFactor:4
Mole fraction of benzene	Mass density, kg/m3	uncertainty
0	876.12	0.94
0.1024	875.81	0.83
0.1831	875.49	0.76
0.2895	875.15	0.67
0.4054	874.78	0.58
0.4956	874.43	0.53
0.5951	874.03	0.47
0.7066	873.66	0.42
0.794	873.49	0.39
0.9113	873.38	0.36

System: benzene + butyl ethanoate; phases: Gas, Liquid
Fixed: Pressure, kPa = 101.31
Property: Mole fraction of benzene (Gas); method: Density calibration data
Mole fraction of benzene	Mole fraction of benzene	uncertainty
0.0189	0.0617	0.0002
0.0437	0.1361	0.0007
0.0884	0.2533	0.002
0.1168	0.3181	0.003
0.1979	0.4765	0.0054
0.2712	0.5846	0.0049
0.36	0.6814	0.0037
0.4351	0.741	0.0028
0.4894	0.783	0.0023
0.5565	0.8238	0.0017
0.6005	0.8495	0.0014
0.6821	0.8914	0.0009
0.7651	0.9276	0.0006
0.7999	0.941	0.0004
0.8599	0.9608	0.0003
0.9077	0.9751	0.0002
0.9501	0.9875	0.0001

System: benzene + methyl heptanoate; phases: Liquid, Gas
Fixed: Pressure, kPa = 101.31
Property: Boiling temperature at pressure P, K (Liquid); method: EBULLIO:UFactor:4
Mole fraction of benzene	Boiling temperature at pressure P, K	uncertainty
0.0094	439.48	0.34
0.0194	436.46	0.34
0.0434	429.68	0.34
0.0768	421.19	0.34
0.123	411.67	0.34
0.187	402.14	0.34
0.2935	391.25	0.34
0.345	386.83	0.34
0.4065	381.65	0.34
0.4788	377.14	0.34
0.5483	372.88	0.34
0.6478	367.54	0.34
0.6998	364.95	0.34
0.7479	362.74	0.34
0.8222	359.6	0.34
0.8837	357.16	0.34
0.9467	355.02	0.34

System: benzene + methyl heptanoate; phases: Liquid
Fixed: Temperature, K = 293.15
Fixed: Pressure, kPa = 101.31
Property: Mass density, kg/m3 (Liquid); method: VIBTUB:UFactor:4
Mole fraction of benzene	Mass density, kg/m3	uncertainty
0	875.7	0.47
0.0291	875.62	0.47
0.0747	875.48	0.46
0.2028	875.06	0.43
0.3024	874.71	0.42
0.4047	874.34	0.4
0.466	874.13	0.39
0.493	874.01	0.39
0.6012	873.62	0.37
0.6901	873.34	0.36

System: benzene + methyl heptanoate; phases: Gas, Liquid
Fixed: Pressure, kPa = 101.31
Property: Mole fraction of benzene (Gas); method: Density calibration data
Mole fraction of benzene	Mole fraction of benzene	uncertainty
0.0094	0.0841	0.0001
0.0194	0.165	0.0005
0.0434	0.3299	0.0017
0.0768	0.5011	0.0032
0.123	0.6516	0.0025
0.187	0.7661	0.0017
0.2935	0.8601	0.001
0.345	0.8894	0.0007
0.4065	0.9177	0.0005
0.4788	0.9381	0.0004
0.5483	0.9542	0.0003
0.6478	0.9708	0.0002
0.6998	0.9775	0.0001
0.7479	0.9826	0.0001
0.8222	0.9892	0.0001
0.8837	0.9935	0.0001
0.9467	0.9969	0.0001
