Measured thermophysical data. Solubility of Hydrogen in the Cyclic Alkylene Ester 1,2-Butylene Carbonate
Source: J. Chem. Eng. Data, 2008, 10.1021/je800583r
Compound 1: hydrogen, H2, InChI=1S/H2/h1H, purity 99.999%
Compound 2: 1,2-butylene carbonate, C5H8O3, InChI=1S/C5H8O3/c1-2-4-3-7-5(6)8-4/h4H,2-3H2,1H3, purity 99.99%

System: 1,2-butylene carbonate; phases: Liquid
Fixed: Pressure, kPa = 101.325
Property: Mass density, kg/m3 (Liquid); method: VIBTUB:UFactor:4
Temperature, K	Mass density, kg/m3	uncertainty
283	1155.2	0.4
293.1	1146.6	0.4
295.1	1144.9	0.4
297.1	1143.3	0.4
299.1	1141.7	0.4
301.1	1140.1	0.4
303.1	1138.6	0.4

System: hydrogen + 1,2-butylene carbonate; phases: Liquid, Gas
Property: Vapor or sublimation pressure, kPa (Liquid); method: Closed cell (Static) method
Temperature, K	Molality, mol/kg of hydrogen	Vapor or sublimation pressure, kPa	uncertainty
283.3	0.01765	1472	65
283.3	0.02997	2509	85
283.3	0.04624	3921	93
283.3	0.05951	4993	102
283.3	0.0735	6219	113
283.3	0.08998	7637	124
283.3	0.10677	9120	189
298.2	0.02995	2235	67
298.2	0.04416	3299	89
298.2	0.06023	4524	99
298.2	0.07141	5379	104
298.2	0.08962	6784	116
298.2	0.10654	8061	137
298.2	0.12101	9179	144
323.1	0.02521	1582	62
323.1	0.04691	2955	85
323.1	0.06665	4228	94
323.1	0.08557	5440	112
323.1	0.10562	6716	121
323.1	0.12554	8008	132
323.1	0.14535	9269	141
