Measured thermophysical data. Solid-Liquid Equilibria of Nonanedioic Acid in Binary Ethanol + Water Solvent Mixtures from (292.35 to 345.52) K
Source: J. Chem. Eng. Data, 2009, 10.1021/je800921n
Compound 1: ethanol, C2H6O, InChI=1S/C2H6O/c1-2-3/h3H,2H2,1H3
Compound 2: 1,9-nonanedioic acid, C9H16O4, InChI=1S/C9H16O4/c10-8(11)6-4-2-1-3-5-7-9(12)13/h1-7H2,(H,10,11)(H,12,13)
Compound 3: water, H2O, InChI=1S/H2O/h1H2

System: 1,9-nonanedioic acid; phases: Crystal, Liquid, Air at 1 atmosphere
Property: Normal melting temperature, K (Crystal); method: Differential scanning calorimeter
Normal melting temperature, K	uncertainty
375.6	

System: 1,9-nonanedioic acid; phases: Crystal, Liquid, Gas
Property: Molar enthalpy of transition or fusion, kJ/mol (Crystal); method: Differential scanning calorimeter
Molar enthalpy of transition or fusion, kJ/mol	uncertainty
35.3	

System: ethanol + 1,9-nonanedioic acid + water; phases: Liquid, Crystal
Fixed: Pressure, kPa = 101
Property: Solid-liquid equilibrium temperature, K (Liquid); method: laser monitoring
Solvent: Mole fraction of ethanol	Mole fraction of 1,9-nonanedioic acid	Solid-liquid equilibrium temperature, K	uncertainty
0	1.055e-05	299.19	0.2
0	3.736e-05	302.49	0.2
0	7.823e-05	308.49	0.2
0	0.0001385	311.71	0.2
0	0.0002244	313.13	0.2
0	0.0003226	316.74	0.2
0	0.0004252	318	0.2
0	0.0006204	322.02	0.2
0	0.0008923	325.14	0.2
0	0.00122	328.91	0.2
0	0.00152	331.93	0.2
0	0.00186	334.26	0.2
0	0.00228	336.89	0.2
0	0.00291	338.65	0.2
0	0.00381	340.96	0.2
0	0.00508	342.77	0.2
0	0.00645	343.79	0.2
0	0.00796	344.48	0.2
0	0.00988	344.92	0.2
0	0.01219	345.22	0.2
0	0.01503	345.52	0.2
0.0891	2.594e-05	295.65	0.2
0.0891	7.709e-05	296.85	0.2
0.0891	0.0001646	297.94	0.2
0.0891	0.0002844	298.73	0.2
0.0891	0.000451	299.54	0.2
0.0891	0.0006774	300.8	0.2
0.0891	0.00114	302.97	0.2
0.0891	0.00182	306.03	0.2
0.0891	0.00255	308.92	0.2
0.0891	0.00336	311.38	0.2
0.0891	0.00427	313.7	0.2
0.0891	0.00532	315.97	0.2
0.0891	0.00652	317.79	0.2
0.0891	0.008	320.19	0.2
0.0891	0.00978	321.52	0.2
0.0891	0.01227	323.18	0.2
0.0891	0.01529	324.7	0.2
0.0891	0.01918	325.49	0.2
0.0891	0.02416	327.2	0.2
0.0891	0.03057	328.98	0.2
0.0891	0.04005	330.94	0.2
0.0891	0.05514	334.16	0.2
0.0891	0.07592	337.62	0.2
0.2811	0.01466	296.4	0.2
0.2811	0.01693	298.46	0.2
0.2811	0.02083	301.95	0.2
0.2811	0.02536	303.96	0.2
0.2811	0.03222	307.25	0.2
0.2811	0.0402	310.45	0.2
0.2811	0.05009	314.02	0.2
0.2811	0.05555	315.49	0.2
0.2811	0.06086	316.89	0.2
0.2811	0.06767	318.6	0.2
0.2811	0.0751	320.4	0.2
0.2811	0.08442	322.38	0.2
0.2811	0.09608	325.19	0.2
0.2811	0.1101	327.7	0.2
0.2811	0.1261	330.3	0.2
0.2811	0.1447	333.49	0.2
0.2811	0.1708	337.51	0.2
0.6101	0.04201	293.09	0.2
0.6101	0.05174	297.6	0.2
0.6101	0.05852	299.99	0.2
0.6101	0.06849	303.8	0.2
0.6101	0.08003	307.6	0.2
0.6101	0.09303	311.18	0.2
0.6101	0.1056	314.85	0.2
0.6101	0.1164	317.36	0.2
0.6101	0.1281	320.1	0.2
0.6101	0.1424	323.28	0.2
0.6101	0.1678	327.84	0.2
0.6101	0.1858	330.77	0.2
0.6101	0.2053	333.2	0.2
0.6101	0.2279	336.45	0.2
0.8016	0.05312	293.85	0.2
0.8016	0.05965	296.85	0.2
0.8016	0.06672	300.26	0.2
0.8016	0.07489	302.86	0.2
0.8016	0.0774	303.86	0.2
0.8016	0.08948	307.76	0.2
0.8016	0.103	311.61	0.2
0.8016	0.1179	315.41	0.2
0.8016	0.135	319.2	0.2
0.8016	0.1567	323.43	0.2
0.8016	0.1806	327.85	0.2
0.8016	0.1921	329.47	0.2
0.8016	0.2071	331.83	0.2
0.8016	0.216	333.11	0.2
0.8016	0.23	334.53	0.2
0.8016	0.2345	335.38	0.2
1	0.04591	292.35	0.2
1	0.05416	296.26	0.2
1	0.06417	300.24	0.2
1	0.07538	304.2	0.2
1	0.08646	308	0.2
1	0.09788	311.41	0.2
1	0.1083	314.31	0.2
1	0.1186	316.76	0.2
1	0.1326	319.67	0.2
1	0.1459	322.36	0.2
1	0.1603	324.94	0.2
1	0.1758	327.64	0.2
1	0.192	330.05	0.2
1	0.2097	332.15	0.2
1	0.2281	334.35	0.2
1	0.2473	336.76	0.2
