Measured thermophysical data. Low Pressure Solubilities of Vinyl Chloride in Ionic Liquids
Source: J. Chem. Eng. Data, 2008, 10.1021/je8005166
Compound 1: chloroethene, C2H3Cl, InChI=1S/C2H3Cl/c1-2-3/h2H,1H2
Compound 2: 1-butyl-3-methylimidazolium hexafluorophosphate, C8H15F6N2P, InChI=1S/C8H15N2.F6P/c1-3-4-5-10-7-6-9(2)8-10;1-7(2,3,4,5)6/h6-8H,3-5H2,1-2H3;/q+1;-1, purity 99%
Compound 3: 1-butyl-3-methylimidazolium tetrafluoroborate, C8H15BF4N2, InChI=1S/C8H15N2.BF4/c1-3-4-5-10-7-6-9(2)8-10;2-1(3,4)5/h6-8H,3-5H2,1-2H3;/q+1;-1, purity 99%
Compound 4: 1,1,3,3-tetramethylguanidinium lactate, C8H19N3O3, InChI=1S/C5H13N3.C3H6O3/c1-7(2)5(6)8(3)4;1-2(4)3(5)6/h6H,1-4H3;2,4H,1H3,(H,5,6)
Compound 5: N-(bis(dimethylamino)methylene)-2-hydroxy-N-(2-hydroxypropyl)propan-1-aminium tetrafluoroborate, C11H26BF4N3O2, InChI=1S/C11H26N3O2.BF4/c1-9(15)7-14(8-10(2)16)11(12(3)4)13(5)6;2-1(3,4)5/h9-10,15-16H,7-8H2,1-6H3;/q+1;-1

System: chloroethene + 1-butyl-3-methylimidazolium hexafluorophosphate; phases: Liquid, Gas
Property: Mole fraction of chloroethene (Liquid); method: gravimetric method
Temperature, K	Pressure, kPa	Mole fraction of chloroethene	uncertainty
293.15	28	0.052	0.02
293.15	69	0.136	0.02
293.15	114	0.224	0.02
293.15	126	0.255	0.02
293.15	146	0.283	0.02
293.15	159	0.317	0.02
293.15	173	0.331	0.02
293.15	188	0.359	0.02
293.15	198	0.386	0.02
313.15	30	0.017	0.017
313.15	76	0.047	0.02
313.15	115	0.076	0.02
313.15	136	0.089	0.02
313.15	153	0.106	0.02
313.15	172	0.123	0.02
313.15	192	0.149	0.02
313.15	200	0.157	0.02
333.15	43	0.003	0.003
333.15	85	0.009	0.009
333.15	110	0.016	0.016
333.15	150	0.037	0.02
333.15	185	0.064	0.02

System: chloroethene + 1-butyl-3-methylimidazolium tetrafluoroborate; phases: Liquid, Gas
Property: Mole fraction of chloroethene (Liquid); method: gravimetric
Temperature, K	Pressure, kPa	Mole fraction of chloroethene	uncertainty
293.15	30	0.037	0.02
293.15	72	0.088	0.02
293.15	110	0.139	0.02
293.15	122	0.152	0.02
293.15	134	0.176	0.02
293.15	151	0.203	0.02
293.15	167	0.244	0.02
293.15	174	0.262	0.02
293.15	191	0.298	0.02
293.15	200	0.339	0.02
313.15	24	0.016	0.016
313.15	68	0.049	0.02
313.15	111	0.081	0.02
313.15	132	0.098	0.02
313.15	154	0.114	0.02
313.15	183	0.134	0.02
313.15	200	0.159	0.02
333.15	49	0.01	0.01
333.15	92	0.026	0.02
333.15	119	0.037	0.02
333.15	143	0.051	0.02
333.15	167	0.071	0.02

System: chloroethene + 1,1,3,3-tetramethylguanidinium lactate; phases: Liquid, Gas
Property: Mole fraction of chloroethene (Liquid); method: gravimetric
Temperature, K	Pressure, kPa	Mole fraction of chloroethene	uncertainty
293.15	25	0.032	0.02
293.15	67	0.085	0.02
293.15	105	0.132	0.02
293.15	121	0.164	0.02
293.15	134	0.196	0.02
293.15	148	0.219	0.02
293.15	159	0.238	0.02
293.15	175	0.279	0.02
293.15	193	0.33	0.02
313.15	104	0.077	0.02
313.15	116	0.085	0.02
313.15	138	0.118	0.02
313.15	160	0.151	0.02
313.15	183	0.181	0.02
313.15	200	0.212	0.02
333.15	58	0.007	0.007
333.15	93	0.017	0.017
333.15	143	0.043	0.02
333.15	180	0.064	0.02

System: chloroethene + N-(bis(dimethylamino)methylene)-2-hydroxy-N-(2-hydroxypropyl)propan-1-aminium tetrafluoroborate; phases: Liquid, Gas
Property: Mole fraction of chloroethene (Liquid); method: gravimetric
Temperature, K	Pressure, kPa	Mole fraction of chloroethene	uncertainty
293.15	50	0.109	0.04
293.15	88	0.19	0.04
293.15	119	0.282	0.04
293.15	137	0.371	0.04
293.15	150	0.474	0.04
293.15	162	0.534	0.04
293.15	170	0.578	0.04
293.15	183	0.637	0.04
293.15	195	0.741	0.04
293.15	200	0.796	0.04
313.15	48	0.041	0.04
313.15	103	0.086	0.04
313.15	132	0.127	0.04
313.15	168	0.174	0.04
313.15	194	0.224	0.04
333.15	55	0.02	0.02
333.15	93	0.043	0.04
333.15	141	0.089	0.04
333.15	180	0.129	0.04
