Measured thermophysical data. Vapor Pressure of Solid 1,4-Dithiane
Source: J. Chem. Eng. Data, 2009, 10.1021/je800586u
Compound 1: 1,4-dithiacyclohexane, C4H8S2, InChI=1S/C4H8S2/c1-2-6-4-3-5-1/h1-4H2

System: 1,4-dithiacyclohexane; phases: Crystal, Gas
Property: Vapor or sublimation pressure, kPa (Crystal); method: Rate of evaporation
Temperature, K	Vapor or sublimation pressure, kPa	uncertainty
355.75	1.067	0.512
359.45	1.333	0.682
362.35	1.893	0.576
367.35	2.653	0.714
370.65	3.246	0.812
374.05	3.826	0.798
374.25	3.906	0.825
376.95	4.626	0.991

System: 1,4-dithiacyclohexane; phases: Crystal, Gas
Property: Vapor or sublimation pressure, kPa (Crystal); method: Transpiration method
Temperature, K	Vapor or sublimation pressure, kPa	uncertainty
296.65	0.00918	0.00046
