Measured thermophysical data. Viscosities, Refractive Indexes, and Conductivities of Phosphoric Acid in N,N-Dimethylformamide + Water Mixtures
Source: J. Chem. Eng. Data, 2008, 10.1021/je8001046
Compound 1: phosphoric acid, H3O4P, InChI=1S/H3O4P/c1-5(2,3)4/h(H3,1,2,3,4), purity 100%
Compound 2: dimethylformamide, C3H7NO, InChI=1S/C3H7NO/c1-4(2)3-5/h3H,1-2H3
Compound 3: water, H2O, InChI=1S/H2O/h1H2

System: dimethylformamide + phosphoric acid + water; phases: Liquid
Fixed: Pressure, kPa = 101
Fixed: Temperature, K = 298.15
Property: Electrical conductivity, S/m (Liquid); method: Alternating current cell with electrodes
Solvent: Mole fraction of dimethylformamide	Mole fraction of phosphoric acid	Electrical conductivity, S/m	uncertainty
0.07	0.0465	4.568	0.025
0.07	0.0935	8.456	0.035
0.07	0.1886	10.52	0.04
0.07	0.2839	8.671	0.035
0.07	0.3824	6.794	0.028
0.07	0.4811	5.623	0.023
0.07	0.5832	4.835	0.02
0.07	0.6847	4.573	0.018
0.07	0.7869	4.37	0.018
0.07	0.8902	4.212	0.017
0.3	0.0501	0.4037	0.0041
0.3	0.1	0.7978	0.0035
0.3	0.1996	1.42	0.0059
0.3	0.2995	1.511	0.0063
0.3	0.3996	1.404	0.0058
0.3	0.5001	1.374	0.0057
0.3	0.5495	1.41	0.0064
0.3	0.5997	1.538	0.0062
0.3	0.649	1.696	0.007
0.3	0.7001	1.95	0.008
0.3	0.7351	2.006	0.0085
0.3	0.7827	2.423	0.01
0.3	0.8989	3.247	0.0131
1	0.1033	0.02391	0.0001
1	0.1181	0.02504	0.0001
1	0.1422	0.02403	0.0001
1	0.1793	0.02221	0.00011
1	0.186	0.02011	0.0001
1	0.2652	0.01504	6e-05
1	0.3591	0.01612	8e-05
1	0.6001	0.07703	0.00073
1	0.9143	1.78	0.007

System: dimethylformamide + phosphoric acid + water; phases: Liquid
Fixed: Pressure, kPa = 101
Fixed: Temperature, K = 298.15
Property: Refractive index (Na D-line) (Liquid); method: Standard Abbe refractometry
Solvent: Mole fraction of dimethylformamide	Mole fraction of phosphoric acid	Refractive index (Na D-line)	uncertainty
0	0	1.354	0.002
0	0.1	1.376	0.002
0	0.2	1.396	0.002
0	0.3	1.413	0.002
0	0.4	1.427	0.002
0	0.5	1.438	0.002
0	0.6	1.448	0.002
0	0.7	1.454	0.002
0	0.8	1.458	0.002
0	0.9	1.459	0.002
0.1	0	1.371	0.002
0.1	0.1	1.39	0.002
0.1	0.2	1.407	0.002
0.1	0.3	1.421	0.002
0.1	0.4	1.433	0.002
0.1	0.5	1.443	0.002
0.1	0.6	1.451	0.002
0.1	0.7	1.456	0.002
0.1	0.8	1.459	0.002
0.1	0.9	1.459	0.002
0.2	0	1.386	0.002
0.2	0.1	1.403	0.002
0.2	0.2	1.418	0.002
0.2	0.3	1.429	0.002
0.2	0.4	1.439	0.002
0.2	0.5	1.448	0.002
0.2	0.6	1.454	0.002
0.2	0.7	1.458	0.002
0.2	0.8	1.46	0.002
0.2	0.9	1.46	0.002
0.4	0	1.412	0.002
0.4	0.1	1.423	0.002
0.4	0.2	1.433	0.002
0.4	0.3	1.442	0.002
0.4	0.4	1.449	0.002
0.4	0.5	1.455	0.002
0.4	0.6	1.459	0.002
0.4	0.7	1.461	0.002
0.4	0.8	1.462	0.002
0.4	0.9	1.46	0.002
0.6	0	1.426	0.002
0.6	0.1	1.435	0.002
0.6	0.2	1.443	0.002
0.6	0.3	1.45	0.002
0.6	0.4	1.455	0.002
0.6	0.5	1.46	0.002
0.6	0.6	1.462	0.002
0.6	0.7	1.464	0.002
0.6	0.8	1.463	0.002
0.6	0.9	1.461	0.002
0.8	0	1.428	0.002
0.8	0.1	1.438	0.002
0.8	0.2	1.446	0.002
0.8	0.3	1.453	0.002
0.8	0.4	1.459	0.002
0.8	0.5	1.462	0.002
0.8	0.6	1.465	0.002
0.8	0.7	1.465	0.002
0.8	0.8	1.464	0.002
0.8	0.9	1.462	0.002
1	0	1.424	0.002
1	0.1	1.436	0.002
1	0.2	1.445	0.002
1	0.3	1.453	0.002
1	0.4	1.459	0.002
1	0.5	1.464	0.002
1	0.6	1.466	0.002
1	0.7	1.467	0.002
1	0.8	1.465	0.002
1	0.9	1.462	0.002

System: dimethylformamide + phosphoric acid + water; phases: Liquid, Crystal
Property: Viscosity, Pa*s (Liquid); method: Capillary tube (Ostwald; Ubbelohde) method
Temperature, K	Solvent: Mole fraction of dimethylformamide	Mole fraction of phosphoric acid	Viscosity, Pa*s	uncertainty
298.15	0	0	0.00089	6e-06
298.15	0	0.1004	0.00323	2e-05
298.15	0	0.1992	0.00747	4e-05
298.15	0	0.3002	0.0145	7e-05
298.15	0	0.4001	0.0255	0.0001
298.15	0	0.498	0.039	0.0002
298.15	0	0.6003	0.0585	0.0002
298.15	0	0.6982	0.0777	0.0006
298.15	0	0.8051	0.116	0.002
298.15	0	0.8966	0.1465	0.0027
298.15	0	1	0.1896	0.0043
298.15	0.1	0	0.00174	1e-05
298.15	0.1	0.0953	0.00506	3e-05
298.15	0.1	0.1919	0.0117	0.0001
298.15	0.1	0.2883	0.0223	0.0001
298.15	0.1	0.3874	0.0388	0.0002
298.15	0.1	0.4864	0.0603	0.0002
298.15	0.1	0.5884	0.0845	0.0008
298.15	0.1	0.6893	0.11	0.002
298.15	0.1	0.7904	0.129	0.002
298.15	0.1	0.8922	0.16	0.003
298.15	0.2	0	0.00235	1e-05
298.15	0.2	0.1001	0.0078	4e-05
298.15	0.2	0.2012	0.0209	0.0001
298.15	0.2	0.2993	0.0438	0.0002
298.15	0.2	0.3963	0.0783	0.0006
298.15	0.2	0.4996	0.119	0.002
298.15	0.2	0.5345	0.132	0.002
298.15	0.2	0.6007	0.151	0.003
298.15	0.2	0.6947	0.169	0.004
298.15	0.2	0.7814	0.179	0.004
298.15	0.2	0.901	0.186	0.004
298.15	0.3	0	0.00248	2e-05
298.15	0.3	0.1006	0.00915	5e-05
298.15	0.3	0.1866	0.0277	0.0001
298.15	0.3	0.3125	0.0714	0.0005
298.15	0.3	0.4031	0.128	0.002
298.15	0.3	0.4996	0.209	0.005
298.15	0.3	0.5473	0.228	0.006
298.15	0.3	0.5942	0.24	0.006
298.15	0.3	0.6256	0.249	0.007
298.15	0.3	0.7033	0.241	0.006
298.15	0.3	0.7601	0.234	0.006
298.15	0.3	0.7948	0.227	0.006
298.15	0.3	0.8978	0.203	0.005
298.15	0.4	0	0.00222	1e-05
298.15	0.4	0.1041	0.00967	6e-05
298.15	0.4	0.1999	0.0326	0.0002
298.15	0.4	0.3003	0.0895	0.0009
298.15	0.4	0.4013	0.1515	0.0029
298.15	0.4	0.4999	0.322	0.01
298.15	0.4	0.5343	0.35	0.012
298.15	0.4	0.5811	0.384	0.013
298.15	0.4	0.6503	0.385	0.013
298.15	0.4	0.7001	0.361	0.012
298.15	0.4	0.7988	0.275	0.008
298.15	0.4	0.8978	0.208	0.005
298.15	0.5	0	0.00183	1e-05
298.15	0.5	0.1001	0.00792	5e-05
298.15	0.5	0.2001	0.0334	0.0002
298.15	0.5	0.2994	0.115	0.002
298.15	0.5	0.4002	0.242	0.007
298.15	0.5	0.4972	0.454	0.017
298.15	0.5	0.5496	0.559	0.023
298.15	0.5	0.5963	0.609	0.026
298.15	0.5	0.6345	0.604	0.025
298.15	0.5	0.6849	0.5579	0.0227
298.15	0.5	0.7499	0.4319	0.0158
298.15	0.5	0.8002	0.3611	0.0121
298.15	0.5	0.9014	0.2357	0.0062
298.15	0.6	0	0.00151	1e-05
298.15	0.6	0.1035	0.00642	5e-05
298.15	0.6	0.1991	0.0302	0.0002
298.15	0.6	0.2997	0.115	0.002
298.15	0.6	0.3994	0.307	0.009
298.15	0.6	0.4983	0.651	0.028
298.15	0.6	0.5535	0.812	0.038
298.15	0.6	0.5818	0.885	0.043
298.15	0.6	0.6474	0.917	0.045
298.15	0.6	0.704	0.701	0.031
298.15	0.6	0.7493	0.606	0.026
298.15	0.6	0.7999	0.474	0.018
298.15	0.6	0.8998	0.268	0.008
298.15	0.7	0	0.00124	1e-05
298.15	0.7	0.0997	0.00469	4e-05
298.15	0.7	0.2004	0.0246	0.0002
298.15	0.7	0.2835	0.0912	0.001
298.15	0.7	0.4008	0.337	0.011
298.15	0.7	0.4999	0.753	0.034
298.15	0.7	0.5475	0.952	0.047
298.15	0.7	0.5974	1.125	0.059
298.15	0.7	0.6492	1.17	0.062
298.15	0.7	0.7004	1.11	0.058
298.15	0.7	0.7294	0.992	0.05
298.15	0.7	0.7997	0.543	0.022
298.15	0.7	0.8978	0.319	0.01
298.15	0.8	0	0.00103	1e-05
298.15	0.8	0.1044	0.00378	3e-05
298.15	0.8	0.2022	0.0193	0.0002
298.15	0.8	0.301	0.107	0.002
298.15	0.8	0.4003	0.287	0.009
298.15	0.8	0.4974	0.918	0.045
298.15	0.8	0.5487	1.272	0.069
298.15	0.8	0.5972	1.578	0.092
298.15	0.8	0.6505	1.638	0.096
298.15	0.8	0.7004	1.461	0.083
298.15	0.8	0.748	1.093	0.057
298.15	0.8	0.8014	0.715	0.032
298.15	0.8	0.9006	0.32	0.01
298.15	0.9	0	0.00089	1e-05
298.15	0.9	0.1004	0.00249	2e-05
298.15	0.9	0.1994	0.0127	0.0001
298.15	0.9	0.2999	0.0909	0.0011
298.15	0.9	0.4009	0.4133	0.0148
298.15	0.9	0.5007	1.123	0.059
298.15	0.9	0.5487	1.62	0.095
298.15	0.9	0.5979	2.016	0.126
298.15	0.9	0.6498	2.465	0.162
298.15	0.9	0.6996	2.274	0.146
298.15	0.9	0.7783	1.509	0.087
298.15	0.9	0.7988	1.353	0.075
298.15	0.9	0.9119	0.371	0.013
308.15	0	0	0.00073	5e-06
308.15	0	0.1004	0.00258	2e-05
308.15	0	0.1992	0.00585	3e-05
308.15	0	0.3002	0.0109	0.0001
308.15	0	0.4001	0.019	0.0001
308.15	0	0.498	0.0274	0.0001
308.15	0	0.6003	0.0378	0.0002
308.15	0	0.6982	0.0516	0.0001
308.15	0	0.8051	0.0756	0.0006
308.15	0	0.8966	0.0942	0.001
308.15	0	1	0.12	0.002
308.15	0.1	0	0.00133	1e-05
308.15	0.1	0.0953	0.00397	2e-05
308.15	0.1	0.1919	0.00878	5e-05
308.15	0.1	0.2883	0.0161	0.0001
308.15	0.1	0.3874	0.0275	0.0001
308.15	0.1	0.4864	0.0406	0.0002
308.15	0.1	0.5884	0.0561	0.0002
308.15	0.1	0.6893	0.0718	0.0005
308.15	0.1	0.7904	0.084	0.0008
308.15	0.1	0.8922	0.1	0.001
308.15	0.2	0	0.00176	1e-05
308.15	0.2	0.1001	0.00583	3e-05
308.15	0.2	0.2012	0.0153	0.0001
308.15	0.2	0.2993	0.0306	0.0001
308.15	0.2	0.3963	0.0514	0.0001
308.15	0.2	0.4996	0.0765	0.0006
308.15	0.2	0.5345	0.0822	0.0007
308.15	0.2	0.6007	0.0928	0.001
308.15	0.2	0.6947	0.105	0.001
308.15	0.2	0.7814	0.112	0.002
308.15	0.2	0.901	0.117	0.002
308.15	0.3	0	0.00186	1e-05
308.15	0.3	0.1006	0.00666	4e-05
308.15	0.3	0.1866	0.0194	0.0001
308.15	0.3	0.3125	0.0474	0.0002
308.15	0.3	0.4031	0.0807	0.0007
308.15	0.3	0.4996	0.119	0.002
308.15	0.3	0.5473	0.136	0.002
308.15	0.3	0.5942	0.143	0.003
308.15	0.3	0.6256	0.149	0.003
308.15	0.3	0.7033	0.144	0.003
308.15	0.3	0.7601	0.138	0.002
308.15	0.3	0.7948	0.137	0.002
308.15	0.3	0.8978	0.124	0.002
308.15	0.4	0	0.00171	1e-05
308.15	0.4	0.1041	0.00708	4e-05
308.15	0.4	0.1999	0.0222	0.0001
308.15	0.4	0.3003	0.0555	0.0002
308.15	0.4	0.4013	0.0912	0.001
308.15	0.4	0.4999	0.18	0.004
308.15	0.4	0.5343	0.197	0.005
308.15	0.4	0.5811	0.218	0.005
308.15	0.4	0.6503	0.218	0.005
308.15	0.4	0.7001	0.202	0.005
308.15	0.4	0.7988	0.164	0.003
308.15	0.4	0.8978	0.127	0.002
308.15	0.5	0	0.00145	1e-05
308.15	0.5	0.1001	0.00583	4e-05
308.15	0.5	0.2001	0.023	0.0001
308.15	0.5	0.2994	0.0689	0.0004
308.15	0.5	0.4002	0.143	0.003
308.15	0.5	0.4972	0.251	0.007
308.15	0.5	0.5496	0.312	0.01
308.15	0.5	0.5963	0.334	0.011
308.15	0.5	0.6345	0.329	0.011
308.15	0.5	0.6849	0.305	0.009
308.15	0.5	0.7499	0.247	0.007
308.15	0.5	0.8002	0.207	0.005
308.15	0.5	0.9014	0.145	0.003
308.15	0.6	0	0.00123	1e-05
308.15	0.6	0.1035	0.00494	3e-05
308.15	0.6	0.1991	0.0212	0.0001
308.15	0.6	0.2997	0.072	0.0005
308.15	0.6	0.3994	0.172	0.004
308.15	0.6	0.4983	0.343	0.011
308.15	0.6	0.5535	0.413	0.015
308.15	0.6	0.5818	0.456	0.017
308.15	0.6	0.6474	0.466	0.018
308.15	0.6	0.704	0.39	0.014
308.15	0.6	0.7493	0.334	0.011
308.15	0.6	0.7999	0.266	0.008
308.15	0.6	0.8998	0.162	0.003
308.15	0.7	0	0.00104	1e-05
308.15	0.7	0.0997	0.00373	3e-05
308.15	0.7	0.2004	0.0175	0.0001
308.15	0.7	0.2835	0.0583	0.0003
308.15	0.7	0.4008	0.193	0.004
308.15	0.7	0.4999	0.387	0.013
308.15	0.7	0.5475	0.488	0.019
308.15	0.7	0.5974	0.563	0.023
308.15	0.7	0.6492	0.588	0.024
308.15	0.7	0.7004	0.585	0.024
308.15	0.7	0.7294	0.511	0.02
308.15	0.7	0.7997	0.312	0.01
308.15	0.7	0.8978	0.185	0.004
308.15	0.8	0	0.00089	1e-05
308.15	0.8	0.1044	0.0031	2e-05
308.15	0.8	0.2022	0.0142	0.0001
308.15	0.8	0.301	0.0672	0.0004
308.15	0.8	0.4003	0.167	0.004
308.15	0.8	0.4974	0.449	0.017
308.15	0.8	0.5487	0.633	0.027
308.15	0.8	0.5972	0.751	0.034
308.15	0.8	0.6505	0.815	0.038
308.15	0.8	0.7004	0.72	0.032
308.15	0.8	0.748	0.567	0.023
308.15	0.8	0.8014	0.396	0.014
308.15	0.8	0.9006	0.188	0.004
308.15	0.9	0	0.00078	1e-05
308.15	0.9	0.1004	0.00211	2e-05
308.15	0.9	0.1994	0.00984	7e-05
308.15	0.9	0.2999	0.0587	0.0003
308.15	0.9	0.4009	0.235	0.006
308.15	0.9	0.5007	0.562	0.023
308.15	0.9	0.5487	0.762	0.035
308.15	0.9	0.5979	0.936	0.046
308.15	0.9	0.6498	1.038	0.053
308.15	0.9	0.6996	1.059	0.055
308.15	0.9	0.7783	0.735	0.033
308.15	0.9	0.7988	0.595	0.025
308.15	0.9	0.9119	0.215	0.005
318.15	0	0	0.00061	4e-06
318.15	0	0.1004	0.00214	1e-05
318.15	0	0.1992	0.00465	3e-05
318.15	0	0.3002	0.00855	4e-05
318.15	0	0.4001	0.0138	0.0001
318.15	0	0.498	0.0193	0.0001
318.15	0	0.6003	0.027	0.0001
318.15	0	0.6982	0.0357	0.0002
318.15	0	0.8051	0.0516	0.0001
318.15	0	0.8966	0.0633	0.0003
318.15	0	1	0.0792	0.0006
318.15	0.1	0	0.00106	1e-05
318.15	0.1	0.0953	0.00324	2e-05
318.15	0.1	0.1919	0.00677	4e-05
318.15	0.1	0.2883	0.012	0.0001
318.15	0.1	0.3874	0.0199	0.0001
318.15	0.1	0.4864	0.0283	0.0001
318.15	0.1	0.5884	0.0378	0.0002
318.15	0.1	0.6893	0.0476	0.0002
318.15	0.1	0.7904	0.0564	0.0002
318.15	0.1	0.8922	0.068	0.0004
318.15	0.2	0	0.00137	1e-05
318.15	0.2	0.1001	0.0045	3e-05
318.15	0.2	0.2012	0.0115	0.0001
318.15	0.2	0.2993	0.0214	0.0001
318.15	0.2	0.3963	0.0353	0.0002
318.15	0.2	0.4996	0.0508	0.0001
318.15	0.2	0.5345	0.0546	0.0001
318.15	0.2	0.6007	0.0633	0.0003
318.15	0.2	0.6947	0.0693	0.0004
318.15	0.2	0.7814	0.0726	0.0005
318.15	0.2	0.901	0.0768	0.0006
318.15	0.3	0	0.00144	1e-05
318.15	0.3	0.1006	0.00507	3e-05
318.15	0.3	0.1866	0.0141	0.0001
318.15	0.3	0.3125	0.0329	0.0002
318.15	0.3	0.4031	0.0526	0.0001
318.15	0.3	0.4996	0.0765	0.0006
318.15	0.3	0.5473	0.0861	0.0008
318.15	0.3	0.5942	0.0918	0.001
318.15	0.3	0.6256	0.0936	0.001
318.15	0.3	0.7033	0.0906	0.0009
318.15	0.3	0.7601	0.0894	0.0009
318.15	0.3	0.7948	0.0882	0.0009
318.15	0.3	0.8978	0.0822	0.0007
318.15	0.4	0	0.00135	1e-05
318.15	0.4	0.1041	0.00531	3e-05
318.15	0.4	0.1999	0.0158	0.0001
318.15	0.4	0.3003	0.0372	0.0002
318.15	0.4	0.4013	0.0588	0.0002
318.15	0.4	0.4999	0.113	0.002
318.15	0.4	0.5343	0.12	0.002
318.15	0.4	0.5811	0.131	0.002
318.15	0.4	0.6503	0.133	0.002
318.15	0.4	0.7001	0.125	0.002
318.15	0.4	0.7988	0.104	0.001
318.15	0.4	0.8978	0.0846	0.0008
318.15	0.5	0	0.0013	1e-05
318.15	0.5	0.1001	0.00418	3e-05
318.15	0.5	0.2001	0.0164	0.0001
318.15	0.5	0.2994	0.0466	0.0002
318.15	0.5	0.4002	0.0888	0.0009
318.15	0.5	0.4972	0.149	0.003
318.15	0.5	0.5496	0.178	0.004
318.15	0.5	0.5963	0.188	0.004
318.15	0.5	0.6345	0.1902	0.0043
318.15	0.5	0.6849	0.181	0.004
318.15	0.5	0.7499	0.149	0.003
318.15	0.5	0.8002	0.13	0.002
318.15	0.5	0.9014	0.0954	0.0011
318.15	0.6	0	0.00103	1e-05
318.15	0.6	0.1035	0.00386	3e-05
318.15	0.6	0.1991	0.0149	0.0001
318.15	0.6	0.2997	0.0472	0.0002
318.15	0.6	0.3994	0.106	0.001
318.15	0.6	0.4983	0.197	0.005
318.15	0.6	0.5535	0.231	0.006
318.15	0.6	0.5818	0.256	0.007
318.15	0.6	0.6474	0.259	0.007
318.15	0.6	0.704	0.215	0.005
318.15	0.6	0.7493	0.198	0.005
318.15	0.6	0.7999	0.164	0.003
318.15	0.6	0.8998	0.104	0.001
318.15	0.7	0	0.00089	6e-06
318.15	0.7	0.0997	0.00299	2e-05
318.15	0.7	0.2004	0.0126	0.0001
318.15	0.7	0.2835	0.0388	0.0002
318.15	0.7	0.4008	0.117	0.002
318.15	0.7	0.4999	0.221	0.006
318.15	0.7	0.5475	0.269	0.008
318.15	0.7	0.5974	0.31	0.01
318.15	0.7	0.6492	0.33	0.011
318.15	0.7	0.7004	0.316	0.01
318.15	0.7	0.7294	0.288	0.009
318.15	0.7	0.7997	0.181	0.004
318.15	0.7	0.8978	0.118	0.002
318.15	0.8	0	0.00078	1e-05
318.15	0.8	0.1044	0.00261	2e-05
318.15	0.8	0.2022	0.0105	0.0001
318.15	0.8	0.301	0.0442	0.0002
318.15	0.8	0.4003	0.102	0.001
318.15	0.8	0.4974	0.253	0.007
318.15	0.8	0.5487	0.337	0.011
318.15	0.8	0.5972	0.397	0.014
318.15	0.8	0.6505	0.415	0.015
318.15	0.8	0.7004	0.384	0.013
318.15	0.8	0.748	0.318	0.01
318.15	0.8	0.8014	0.234	0.006
318.15	0.8	0.9006	0.119	0.002
318.15	0.9	0	0.0007	5e-06
318.15	0.9	0.1004	0.00183	1e-05
318.15	0.9	0.1994	0.00756	5e-05
318.15	0.9	0.2999	0.0397	0.0002
318.15	0.9	0.4009	0.14	0.003
318.15	0.9	0.5007	0.303	0.009
318.15	0.9	0.5487	0.397	0.014
318.15	0.9	0.5979	0.501	0.02
318.15	0.9	0.6498	0.535	0.021
318.15	0.9	0.6996	0.522	0.021
318.15	0.9	0.7783	0.4	0.014
318.15	0.9	0.7988	0.346	0.011
318.15	0.9	0.9119	0.134	0.002
328.15	0	0	0.00052	1e-05
328.15	0	0.1004	0.00178	1e-05
328.15	0	0.1992	0.0039	2e-05
328.15	0	0.3002	0.00684	4e-05
328.15	0	0.4001	0.0107	0.0001
328.15	0	0.498	0.0146	0.0001
328.15	0	0.6003	0.0197	0.0001
328.15	0	0.6982	0.0258	0.0001
328.15	0	0.8051	0.036	0.0002
328.15	0	0.8966	0.044	0.0002
328.15	0	1	0.0555	0.0001
328.15	0.1	0	0.00087	1e-05
328.15	0.1	0.0953	0.00244	2e-05
328.15	0.1	0.1919	0.00537	3e-05
328.15	0.1	0.2883	0.0094	5e-05
328.15	0.1	0.3874	0.0151	0.0001
328.15	0.1	0.4864	0.0208	0.0001
328.15	0.1	0.5884	0.0275	0.0001
328.15	0.1	0.6893	0.0341	0.0002
328.15	0.1	0.7904	0.0398	0.0002
328.15	0.1	0.8922	0.0473	0.0002
328.15	0.2	0	0.00109	1e-05
328.15	0.2	0.1001	0.00357	2e-05
328.15	0.2	0.2012	0.00912	5e-05
328.15	0.2	0.2993	0.0158	0.0001
328.15	0.2	0.3963	0.0253	0.0001
328.15	0.2	0.4996	0.0355	0.0002
328.15	0.2	0.5345	0.0384	0.0002
328.15	0.2	0.6007	0.0426	0.0002
328.15	0.2	0.6947	0.0473	0.0002
328.15	0.2	0.7814	0.0496	0.0002
328.15	0.2	0.901	0.0526	0.0001
328.15	0.3	0	0.00115	1e-05
328.15	0.3	0.1006	0.00402	3e-05
328.15	0.3	0.1866	0.0108	0.0001
328.15	0.3	0.3125	0.0235	0.0001
328.15	0.3	0.4031	0.0366	0.0002
328.15	0.3	0.4996	0.0522	0.0001
328.15	0.3	0.5473	0.0582	0.0002
328.15	0.3	0.5942	0.0627	0.0003
328.15	0.3	0.6256	0.0636	0.0003
328.15	0.3	0.7033	0.0628	0.0003
328.15	0.3	0.7601	0.0621	0.0003
328.15	0.3	0.7948	0.0609	0.0002
328.15	0.3	0.8978	0.0567	0.0002
328.15	0.4	0	0.00109	1e-05
328.15	0.4	0.1041	0.00413	3e-05
328.15	0.4	0.1999	0.0119	0.0001
328.15	0.4	0.3003	0.0268	0.0001
328.15	0.4	0.4013	0.0405	0.0002
328.15	0.4	0.4999	0.0732	0.0005
328.15	0.4	0.5343	0.0787	0.0006
328.15	0.4	0.5811	0.085	0.0008
328.15	0.4	0.6503	0.0876	0.0009
328.15	0.4	0.7001	0.0825	0.0007
328.15	0.4	0.7988	0.0708	0.0004
328.15	0.4	0.8978	0.0588	0.0002
328.15	0.5	0	0.00097	1e-05
328.15	0.5	0.1001	0.00354	2e-05
328.15	0.5	0.2001	0.0123	0.0001
328.15	0.5	0.2994	0.0328	0.0002
328.15	0.5	0.4002	0.0591	0.0002
328.15	0.5	0.4972	0.0936	0.001
328.15	0.5	0.5496	0.11	0.002
328.15	0.5	0.5963	0.118	0.002
328.15	0.5	0.6345	0.119	0.002
328.15	0.5	0.6849	0.115	0.002
328.15	0.5	0.7499	0.0984	0.0012
328.15	0.5	0.8002	0.087	0.0008
328.15	0.5	0.9014	0.0651	0.0003
328.15	0.6	0	0.00087	6e-06
328.15	0.6	0.1035	0.0031	2e-05
328.15	0.6	0.1991	0.0112	0.0001
328.15	0.6	0.2997	0.0331	0.0002
328.15	0.6	0.3994	0.0702	0.0004
328.15	0.6	0.4983	0.12	0.002
328.15	0.6	0.5535	0.141	0.003
328.15	0.6	0.5818	0.157	0.003
328.15	0.6	0.6474	0.158	0.003
328.15	0.6	0.704	0.137	0.002
328.15	0.6	0.7493	0.126	0.002
328.15	0.6	0.7999	0.104	0.001
328.15	0.6	0.8998	0.0705	0.0004
328.15	0.7	0	0.00077	5e-06
328.15	0.7	0.0997	0.00247	2e-05
328.15	0.7	0.2004	0.00972	5e-05
328.15	0.7	0.2835	0.0277	0.0001
328.15	0.7	0.4008	0.0759	0.0006
328.15	0.7	0.4999	0.134	0.002
328.15	0.7	0.5475	0.161	0.003
328.15	0.7	0.5974	0.181	0.004
328.15	0.7	0.6492	0.192	0.004
328.15	0.7	0.7004	0.184	0.004
328.15	0.7	0.7294	0.172	0.004
328.15	0.7	0.7997	0.116	0.002
328.15	0.7	0.8978	0.0795	0.0007
328.15	0.8	0	0.00068	1e-05
328.15	0.8	0.1044	0.00222	2e-05
328.15	0.8	0.2022	0.00818	5e-05
328.15	0.8	0.301	0.031	0.0002
328.15	0.8	0.4003	0.0675	0.0004
328.15	0.8	0.4974	0.151	0.003
328.15	0.8	0.5487	0.195	0.005
328.15	0.8	0.5972	0.227	0.006
328.15	0.8	0.6505	0.239	0.006
328.15	0.8	0.7004	0.222	0.006
328.15	0.8	0.748	0.188	0.004
328.15	0.8	0.8014	0.144	0.003
328.15	0.8	0.9006	0.081	0.0007
328.15	0.9	0	0.00062	1e-05
328.15	0.9	0.1004	0.00158	1e-05
328.15	0.9	0.1994	0.00611	4e-05
328.15	0.9	0.2999	0.0281	0.0002
328.15	0.9	0.4009	0.0876	0.0009
328.15	0.9	0.5007	0.175	0.004
328.15	0.9	0.5487	0.227	0.006
328.15	0.9	0.5979	0.27	0.008
328.15	0.9	0.6498	0.303	0.009
328.15	0.9	0.6996	0.286	0.008
328.15	0.9	0.7783	0.227	0.006
328.15	0.9	0.7988	0.197	0.005
328.15	0.9	0.9119	0.0888	0.0009
338.15	0	0	0.00045	4e-06
338.15	0	0.1004	0.00154	1e-05
338.15	0	0.1992	0.00324	2e-05
338.15	0	0.3002	0.00567	3e-05
338.15	0	0.4001	0.00858	4e-05
338.15	0	0.498	0.0113	0.0001
338.15	0	0.6003	0.0154	0.0001
338.15	0	0.6982	0.0193	0.0001
338.15	0	0.8051	0.0265	0.0001
338.15	0	0.8966	0.0325	0.0002
338.15	0	1	0.0405	0.0002
338.15	0.1	0	0.00073	5e-06
338.15	0.1	0.0953	0.00245	2e-05
338.15	0.1	0.1919	0.00443	3e-05
338.15	0.1	0.2883	0.00751	4e-05
338.15	0.1	0.3874	0.0117	0.0001
338.15	0.1	0.4864	0.0159	0.0001
338.15	0.1	0.5884	0.0205	0.0001
338.15	0.1	0.6893	0.0252	0.0001
338.15	0.1	0.7904	0.0295	0.0001
338.15	0.1	0.8922	0.0348	0.0002
338.15	0.2	0	0.00089	1e-05
338.15	0.2	0.1001	0.003	2e-05
338.15	0.2	0.2012	0.00741	4e-05
338.15	0.2	0.2993	0.0122	0.0001
338.15	0.2	0.3963	0.019	0.0001
338.15	0.2	0.4996	0.026	0.0001
338.15	0.2	0.5345	0.0281	0.0001
338.15	0.2	0.6007	0.0316	0.0001
338.15	0.2	0.6947	0.0342	0.0002
338.15	0.2	0.7814	0.0358	0.0002
338.15	0.2	0.901	0.0383	0.0002
338.15	0.3	0	0.00095	1e-05
338.15	0.3	0.1006	0.00324	2e-05
338.15	0.3	0.1866	0.00846	4e-05
338.15	0.3	0.3125	0.0179	0.0001
338.15	0.3	0.4031	0.0264	0.0001
338.15	0.3	0.4996	0.0369	0.0002
338.15	0.3	0.5473	0.0406	0.0002
338.15	0.3	0.5942	0.0429	0.0002
338.15	0.3	0.6256	0.0437	0.0002
338.15	0.3	0.7033	0.0435	0.0002
338.15	0.3	0.7601	0.0432	0.0002
338.15	0.3	0.7948	0.0424	0.0002
338.15	0.3	0.8978	0.0406	0.0002
338.15	0.4	0	0.00095	1e-05
338.15	0.4	0.1041	0.00346	2e-05
338.15	0.4	0.1999	0.00918	5e-05
338.15	0.4	0.3003	0.02	0.0001
338.15	0.4	0.4013	0.0287	0.0001
338.15	0.4	0.4999	0.0496	0.0002
338.15	0.4	0.5343	0.0536	0.0001
338.15	0.4	0.5811	0.0582	0.0002
338.15	0.4	0.6503	0.0609	0.0002
338.15	0.4	0.7001	0.0565	0.0002
338.15	0.4	0.7988	0.0489	0.0002
338.15	0.4	0.8978	0.0412	0.0002
338.15	0.5	0	0.00082	1e-05
338.15	0.5	0.1001	0.00296	2e-05
338.15	0.5	0.2001	0.00957	5e-05
338.15	0.5	0.2994	0.025	0.0001
338.15	0.5	0.4002	0.0417	0.0002
338.15	0.5	0.4972	0.0633	0.0003
338.15	0.5	0.5496	0.0744	0.0005
338.15	0.5	0.5963	0.0783	0.0006
338.15	0.5	0.6345	0.0786	0.0006
338.15	0.5	0.6849	0.0774	0.0006
338.15	0.5	0.7499	0.0672	0.0004
338.15	0.5	0.8002	0.0594	0.0002
338.15	0.5	0.9014	0.0456	0.0002
338.15	0.6	0	0.00075	5e-06
338.15	0.6	0.1035	0.00254	2e-05
338.15	0.6	0.1991	0.00868	5e-05
338.15	0.6	0.2997	0.0245	0.0001
338.15	0.6	0.3994	0.0486	0.0002
338.15	0.6	0.4983	0.0795	0.0007
338.15	0.6	0.5535	0.0907	0.0009
338.15	0.6	0.5818	0.0972	0.0011
338.15	0.6	0.6474	0.103	0.001
338.15	0.6	0.704	0.0873	0.0009
338.15	0.6	0.7493	0.0828	0.0007
338.15	0.6	0.7999	0.0714	0.0005
338.15	0.6	0.8998	0.0501	0.0001
338.15	0.7	0	0.00066	1e-05
338.15	0.7	0.0997	0.00214	2e-05
338.15	0.7	0.2004	0.0078	4e-05
338.15	0.7	0.2835	0.0208	0.0001
338.15	0.7	0.4008	0.0511	0.0001
338.15	0.7	0.4999	0.0855	0.0008
338.15	0.7	0.5475	0.102	0.001
338.15	0.7	0.5974	0.115	0.002
338.15	0.7	0.6492	0.127	0.002
338.15	0.7	0.7004	0.119	0.002
338.15	0.7	0.7294	0.111	0.002
338.15	0.7	0.7997	0.0789	0.0006
338.15	0.7	0.8978	0.0552	0.0001
338.15	0.8	0	0.00061	1e-05
338.15	0.8	0.1044	0.00187	1e-05
338.15	0.8	0.2022	0.00657	4e-05
338.15	0.8	0.301	0.0223	0.0001
338.15	0.8	0.4003	0.0459	0.0002
338.15	0.8	0.4974	0.0965	0.0011
338.15	0.8	0.5487	0.12	0.002
338.15	0.8	0.5972	0.144	0.003
338.15	0.8	0.6505	0.147	0.003
338.15	0.8	0.7004	0.138	0.002
338.15	0.8	0.748	0.121	0.002
338.15	0.8	0.8014	0.0945	0.001
338.15	0.8	0.9006	0.0561	0.0002
338.15	0.9	0	0.00056	1e-05
338.15	0.9	0.1004	0.0014	1e-05
338.15	0.9	0.1994	0.00503	4e-05
338.15	0.9	0.2999	0.0208	0.0001
338.15	0.9	0.4009	0.0586	0.0002
338.15	0.9	0.5007	0.115	0.002
338.15	0.9	0.5487	0.137	0.002
338.15	0.9	0.5979	0.166	0.003
338.15	0.9	0.6498	0.176	0.004
338.15	0.9	0.6996	0.172	0.004
338.15	0.9	0.7783	0.141	0.003
338.15	0.9	0.7988	0.123	0.002
338.15	0.9	0.9119	0.0622	0.0003
