Measured thermophysical data. Solubility of Gallic Acid, Vanillin, Syringic Acid, and Protocatechuic Acid in Aqueous Sulfate Solutions from (293.15 to 318.15) K
Source: J. Chem. Eng. Data, 2008, 10.1021/je800205e
Compound 1: 3,4,5-trihydroxybenzoic acid, C7H6O5, InChI=1S/C7H6O5/c8-4-1-3(7(11)12)2-5(9)6(4)10/h1-2,8-10H,(H,11,12)
Compound 2: vanillin, C8H8O3, InChI=1S/C8H8O3/c1-11-8-4-6(5-9)2-3-7(8)10/h2-5,10H,1H3
Compound 3: 4-hydroxy-3,5-dimethoxybenzoic acid, C9H10O5, InChI=1S/C9H10O5/c1-13-6-3-5(9(11)12)4-7(14-2)8(6)10/h3-4,10H,1-2H3,(H,11,12)
Compound 4: 3,4-dihydroxybenzoic acid, C7H6O4, InChI=1S/C7H6O4/c8-5-2-1-4(7(10)11)3-6(5)9/h1-3,8-9H,(H,10,11)
Compound 5: sodium sulfate, Na2O4S, InChI=1S/2Na.H2O4S/c;;1-5(2,3)4/h;;(H2,1,2,3,4)/q2*+1;/p-2
Compound 6: water, H2O, InChI=1S/H2O/h1H2

System: 3,4,5-trihydroxybenzoic acid + water; phases: Liquid, Crystal
Fixed: Pressure, kPa = 101
Property: Mole fraction of 3,4,5-trihydroxybenzoic acid (Liquid); method: Chromatography
Temperature, K	Mole fraction of 3,4,5-trihydroxybenzoic acid	uncertainty
293.15	0.0011668	4.69e-05
298.15	0.0012225	4.91e-05
303.15	0.0012835	5.15e-05
308.15	0.0013087	5.26e-05
313.15	0.0013805	5.54e-05
318.15	0.0014307	5.75e-05

System: vanillin + water; phases: Liquid, Crystal
Fixed: Pressure, kPa = 101
Property: Mole fraction of vanillin (Liquid); method: Chromatography
Temperature, K	Mole fraction of vanillin	uncertainty
293.15	0.000989	8.1e-05
298.15	0.0011722	8.18e-05
303.15	0.0015097	8.35e-05
308.15	0.0018182	8.55e-05
313.15	0.0020962	9.19e-05
318.15	0.0023901	0.0001048

System: 4-hydroxy-3,5-dimethoxybenzoic acid + water; phases: Liquid, Crystal
Fixed: Pressure, kPa = 101
Property: Mole fraction of 4-hydroxy-3,5-dimethoxybenzoic acid (Liquid); method: Chromatography
Temperature, K	Mole fraction of 4-hydroxy-3,5-dimethoxybenzoic acid	uncertainty
293.15	0.00037606	3.013e-05
298.15	0.00052155	4.178e-05
303.15	0.00064596	5.175e-05
308.15	0.00079358	6.357e-05
313.15	0.00091536	7.333e-05
318.15	0.0010501	8.412e-05

System: 3,4-dihydroxybenzoic acid + water; phases: Liquid, Crystal
Fixed: Pressure, kPa = 101
Property: Mole fraction of 3,4-dihydroxybenzoic acid (Liquid); method: Chromatography
Temperature, K	Mole fraction of 3,4-dihydroxybenzoic acid	uncertainty
293.15	0.002123	8.51e-05
298.15	0.002227	8.93e-05
303.15	0.0022861	9.16e-05
308.15	0.0023829	9.55e-05
313.15	0.002442	9.79e-05
318.15	0.0025566	0.0001025

System: 3,4,5-trihydroxybenzoic acid + water + sodium sulfate; phases: Liquid, Crystal
Fixed: Pressure, kPa = 101
Property: Mole fraction of 3,4,5-trihydroxybenzoic acid (Liquid); method: Chromatography
Molality, mol/kg of sodium sulfate	Temperature, K	Mole fraction of 3,4,5-trihydroxybenzoic acid	uncertainty
0	293.15	0.0011668	4.69e-05
0	298.15	0.0012225	4.91e-05
0	303.15	0.0012835	5.15e-05
0	308.15	0.0013087	5.26e-05
0	313.15	0.0013805	5.54e-05
0	318.15	0.0014307	5.75e-05
0.5	293.15	0.0009602	3.86e-05
0.5	298.15	0.001017	4.08e-05
0.5	303.15	0.0010818	4.34e-05
0.5	308.15	0.0011457	4.6e-05
0.5	313.15	0.0012067	4.85e-05
0.5	318.15	0.0012747	5.12e-05
1	293.15	0.0007807	3.14e-05
1	298.15	0.0008504	3.42e-05
1	303.15	0.0009175	3.68e-05
1	308.15	0.0009753	3.92e-05
1	313.15	0.001031	4.14e-05
1	318.15	0.0010996	4.42e-05
1.5	293.15	0.0007072	3.55e-05
1.5	298.15	0.0007664	3.55e-05
1.5	303.15	0.0008274	3.55e-05
1.5	308.15	0.0008956	3.6e-05
1.5	313.15	0.0009586	3.85e-05
1.5	318.15	0.0010235	4.11e-05

System: vanillin + water + sodium sulfate; phases: Liquid, Crystal
Fixed: Pressure, kPa = 101
Property: Mole fraction of vanillin (Liquid); method: Chromatography
Temperature, K	Molality, mol/kg of sodium sulfate	Mole fraction of vanillin	uncertainty
293.15	0	0.000989	7.91e-05
293.15	0.5	0.00068375	0.00018921
293.15	1	0.0004643	0.000175
293.15	1.5	0.0003839	0.000129
298.15	0	0.0011722	7.91e-05
298.15	0.5	0.00093467	0.00018922
298.15	1	0.000744	0.000175
298.15	1.5	0.0006515	0.000129
303.15	0	0.0015097	7.92e-05
303.15	0.5	0.00126416	0.00018924
303.15	1	0.00092087	0.00017503
303.15	1.5	0.0008968	0.000129
308.15	0	0.0018182	7.92e-05
308.15	0.5	0.00155458	0.00018927
308.15	1	0.00124323	0.00017505
308.15	1.5	0.0012189	0.0001291
313.15	0	0.0020962	8.41e-05
313.15	0.5	0.00179497	0.00018929
313.15	1	0.00157252	0.00017507
313.15	1.5	0.001461	0.0001291
318.15	0	0.0023901	9.59e-05
318.15	0.5	0.00210516	0.00018932
318.15	1	0.00195401	0.00017511
318.15	1.5	0.0017895	0.0001291

System: 4-hydroxy-3,5-dimethoxybenzoic acid + water + sodium sulfate; phases: Liquid, Crystal
Fixed: Pressure, kPa = 101
Property: Mole fraction of 4-hydroxy-3,5-dimethoxybenzoic acid (Liquid); method: Chromatography
Temperature, K	Molality, mol/kg of sodium sulfate	Mole fraction of 4-hydroxy-3,5-dimethoxybenzoic acid	uncertainty
293.15	0	0.00037606	3.013e-05
293.15	0.5	0.0003149	2.523e-05
293.15	1	0.00021657	1.752e-05
293.15	1.5	0.00018357	1.471e-05
298.15	0	0.00052155	4.178e-05
298.15	0.5	0.00044563	3.57e-05
298.15	1	0.00034473	2.762e-05
298.15	1.5	0.00031132	2.494e-05
303.15	0	0.00064596	5.175e-05
303.15	0.5	0.0005834	4.674e-05
303.15	1	0.00046553	3.729e-05
303.15	1.5	0.0004516	3.618e-05
308.15	0	0.00079358	6.357e-05
308.15	0.5	0.00072164	5.781e-05
308.15	1	0.00060615	4.856e-05
308.15	1.5	0.00057588	4.613e-05
313.15	0	0.00091536	7.333e-05
313.15	0.5	0.00085768	6.871e-05
313.15	1	0.00075759	6.069e-05
313.15	1.5	0.00071844	5.755e-05
318.15	0	0.0010501	8.412e-05
318.15	0.5	0.00098812	7.916e-05
318.15	1	0.00098961	7.928e-05
318.15	1.5	0.00086218	6.907e-05

System: 3,4-dihydroxybenzoic acid + water + sodium sulfate; phases: Liquid, Crystal
Fixed: Pressure, kPa = 101
Property: Mole fraction of 3,4-dihydroxybenzoic acid (Liquid); method: Chromatography
Temperature, K	Molality, mol/kg of sodium sulfate	Mole fraction of 3,4-dihydroxybenzoic acid	uncertainty
293.15	0	0.002123	8.51e-05
293.15	0.5	0.0017806	7.14e-05
293.15	1	0.0013322	5.34e-05
293.15	1.5	0.0011237	0.0001254
298.15	0	0.002227	8.93e-05
298.15	0.5	0.0018571	7.44e-05
298.15	1	0.001393	5.58e-05
298.15	1.5	0.0012133	0.0001254
303.15	0	0.0022861	9.16e-05
303.15	0.5	0.0019778	7.93e-05
303.15	1	0.0014792	5.93e-05
303.15	1.5	0.0012997	0.0001254
308.15	0	0.0023829	9.55e-05
308.15	0.5	0.0020567	8.24e-05
308.15	1	0.0015725	6.3e-05
308.15	1.5	0.001368	0.0001255
313.15	0	0.002442	9.79e-05
313.15	0.5	0.0021123	8.47e-05
313.15	1	0.0016408	6.58e-05
313.15	1.5	0.0014594	0.0001255
318.15	0	0.0025566	0.0001025
318.15	0.5	0.0022092	8.86e-05
318.15	1	0.0017549	7.03e-05
318.15	1.5	0.0015545	0.0001255
