Measured thermophysical data. Solubilities of 1,1-Di(2-carboxyethyl)-2,2'-biimidazole in Water + Acetic Acid  from (292.3 to 355.1) K
Source: J. Chem. Eng. Data, 2008, 10.1021/je8004535
Compound 1: 1,1'-di(2-carboxyethyl)-2,2'-biimidazole, C12H14N4O4, InChI=1S/C12H14N4O4/c17-9(18)1-5-15-7-3-13-11(15)12-14-4-8-16(12)6-2-10(19)20/h3-4,7-8H,1-2,5-6H2,(H,17,18)(H,19,20)
Compound 2: water, H2O, InChI=1S/H2O/h1H2, purity 99%
Compound 3: acetic acid, C2H4O2, InChI=1S/C2H4O2/c1-2(3)4/h1H3,(H,3,4), purity 99%

System: acetic acid + water + 1,1'-di(2-carboxyethyl)-2,2'-biimidazole; phases: Liquid, Crystal
Fixed: Pressure, kPa = 101
Property: Amount concentration (molarity), mol/dm3 of 1,1'-di(2-carboxyethyl)-2,2'-biimidazole (Liquid); method: static analytical method
Temperature, K	Solvent: Mass fraction of acetic acid	Amount concentration (molarity), mol/dm3 of 1,1'-di(2-carboxyethyl)-2,2'-biimidazole	uncertainty
295.2	0.8	0.0704	0.016
302.5	0.8	0.0868	0.016
310.2	0.8	0.0993	0.016
317.3	0.8	0.1145	0.016
324.6	0.8	0.1381	0.016
333.5	0.8	0.1773	0.016
340.7	0.8	0.2665	0.016
347.3	0.8	0.3418	0.016
355.1	0.8	0.5182	0.016
296.2	0.9	0.0516	0.016
302.9	0.9	0.0596	0.016
310	0.9	0.0708	0.016
317.7	0.9	0.0857	0.016
324.7	0.9	0.1085	0.016
333.2	0.9	0.138	0.016
341.4	0.9	0.206	0.016
350.2	0.9	0.27	0.016
354.7	0.9	0.3542	0.016
293.3	1	0.0307	0.016
303.5	1	0.0396	0.016
310.2	1	0.0493	0.016
317.5	1	0.0634	0.016
323.2	1	0.0835	0.016
330.6	1	0.0981	0.016
338	1	0.1323	0.016
345.5	1	0.1568	0.016
353.6	1	0.1929	0.016

System: acetic acid + 1,1'-di(2-carboxyethyl)-2,2'-biimidazole; phases: Liquid, Crystal
Fixed: Pressure, kPa = 101
Property: Amount concentration (molarity), mol/dm3 of 1,1'-di(2-carboxyethyl)-2,2'-biimidazole (Liquid); method: static analytical method
Temperature, K	Amount concentration (molarity), mol/dm3 of 1,1'-di(2-carboxyethyl)-2,2'-biimidazole	uncertainty
293.3	0.0307	0.016
303.5	0.0396	0.016
310.2	0.0493	0.016
317.5	0.0634	0.016
323.2	0.0835	0.016
330.6	0.0981	0.016
338	0.1323	0.016
345.5	0.1568	0.016
353.6	0.1929	0.016
