Measured thermophysical data. Liquid-Liquid Equilibrium of (Cyclohexane + 2,2,2-Trifluoroethanol) and (Cyclohexane + Methanol) from (278.15 to 318.15) K
Source: J. Chem. Eng. Data, 2008, 10.1021/je8001688
Compound 1: methanol, CH4O, InChI=1S/CH4O/c1-2/h2H,1H3
Compound 2: propan-2-ol, C3H8O, InChI=1S/C3H8O/c1-3(2)4/h3-4H,1-2H3
Compound 3: cyclohexane, C6H12, InChI=1S/C6H12/c1-2-4-6-5-3-1/h1-6H2
Compound 4: 2,2,2-trifluoroethanol, C2H3F3O, InChI=1S/C2H3F3O/c3-2(4,5)1-6/h6H,1H2
Compound 5: heptane, C7H16, InChI=1S/C7H16/c1-3-5-7-6-4-2/h3-7H2,1-2H3

System: methanol; phases: Liquid
Property: Mass density, kg/m3 (Liquid); method: Vibrating tube method
Temperature, K	Pressure, kPa	Mass density, kg/m3	uncertainty
298.15	101.325	787	0.5

System: propan-2-ol; phases: Liquid
Property: Mass density, kg/m3 (Liquid); method: Vibrating tube method
Temperature, K	Pressure, kPa	Mass density, kg/m3	uncertainty
298.15	101.325	781.4	0.5

System: cyclohexane; phases: Liquid
Property: Mass density, kg/m3 (Liquid); method: Vibrating tube method
Temperature, K	Pressure, kPa	Mass density, kg/m3	uncertainty
298.15	101.325	774	0.5

System: 2,2,2-trifluoroethanol; phases: Liquid
Property: Mass density, kg/m3 (Liquid); method: Vibrating tube method
Temperature, K	Pressure, kPa	Mass density, kg/m3	uncertainty
298.15	101.325	1382.4	0.6

System: heptane; phases: Liquid
Property: Mass density, kg/m3 (Liquid); method: Vibrating tube method
Temperature, K	Pressure, kPa	Mass density, kg/m3	uncertainty
298.15	101.325	680	0.5

System: methanol + cyclohexane; phases: Liquid mixture 2, Liquid mixture 1
Fixed: Pressure, kPa = 100
Property: Mole fraction of cyclohexane (Liquid mixture 2); method: CHROM:UFactor:8
Temperature, K	Mole fraction of cyclohexane	uncertainty
278.15	0.104	0.008
283.15	0.125	0.009
288.15	0.135	0.01
293.15	0.158	0.011
298.15	0.177	0.012
303.15	0.19	0.012
308.15	0.218	0.014
313.15	0.261	0.016
316.15	0.301	0.019

System: methanol + cyclohexane; phases: Liquid mixture 1, Liquid mixture 2
Fixed: Pressure, kPa = 100
Property: Mole fraction of cyclohexane (Liquid mixture 1); method: CHROM:UFactor:8
Temperature, K	Mole fraction of cyclohexane	uncertainty
278.15	0.942	0.007
283.15	0.939	0.007
288.15	0.922	0.007
293.15	0.892	0.009
298.15	0.876	0.009
303.15	0.841	0.011
308.15	0.812	0.012
313.15	0.758	0.015
316.15	0.702	0.019

System: 2,2,2-trifluoroethanol + cyclohexane; phases: Liquid mixture 1, Liquid mixture 2
Fixed: Pressure, kPa = 100
Property: Mole fraction of cyclohexane (Liquid mixture 1); method: CHROM:UFactor:8
Temperature, K	Mole fraction of cyclohexane	uncertainty
283.15	0.925	0.007
288.15	0.899	0.008
293.15	0.88	0.009
298.15	0.865	0.01
303.15	0.85	0.01
308.15	0.837	0.011
313.15	0.812	0.012
316.15	0.786	0.014
318.15	0.767	0.015

System: 2,2,2-trifluoroethanol + cyclohexane; phases: Liquid mixture 2, Liquid mixture 1
Fixed: Pressure, kPa = 100
Property: Mole fraction of cyclohexane (Liquid mixture 2); method: CHROM:UFactor:8
Temperature, K	Mole fraction of cyclohexane	uncertainty
283.15	0.045	0.007
288.15	0.054	0.007
293.15	0.069	0.007
298.15	0.088	0.008
303.15	0.106	0.009
308.15	0.111	0.009
313.15	0.119	0.009
316.15	0.144	0.01
318.15	0.167	0.011
