Measured thermophysical data. Phase Equilibria of Binary Systems Comprising Formic Acid, N,N-Dimethylformamide, 1-Chloro-2-ethylhexane, and 2-Ethyl-1-hexanol
Source: J. Chem. Eng. Data, 2008, 10.1021/je800123c
Compound 1: formic acid, CH2O2, InChI=1S/CH2O2/c2-1-3/h1H,(H,2,3)
Compound 2: 2-ethyl-1-hexanol, C8H18O, InChI=1S/C8H18O/c1-3-5-6-8(4-2)7-9/h8-9H,3-7H2,1-2H3
Compound 3: 1-chloro-2-ethylhexane, C8H17Cl, InChI=1S/C8H17Cl/c1-3-5-6-8(4-2)7-9/h8H,3-7H2,1-2H3
Compound 4: dimethylformamide, C3H7NO, InChI=1S/C3H7NO/c1-4(2)3-5/h3H,1-2H3

System: formic acid; phases: Liquid
Property: Refractive index (Na D-line) (Liquid); method: Standard Abbe refractometry
Temperature, K	Pressure, kPa	Refractive index (Na D-line)	uncertainty
293.1	101.325	1.372	0.0011

System: 2-ethyl-1-hexanol; phases: Liquid
Property: Refractive index (Na D-line) (Liquid); method: Standard Abbe refractometry
Temperature, K	Pressure, kPa	Refractive index (Na D-line)	uncertainty
293.1	101.325	1.431	0.0004

System: 1-chloro-2-ethylhexane; phases: Liquid
Property: Refractive index (Na D-line) (Liquid); method: Standard Abbe refractometry
Temperature, K	Pressure, kPa	Refractive index (Na D-line)	uncertainty
293.1	101.325	1.4326	0.0008

System: dimethylformamide; phases: Liquid
Property: Refractive index (Na D-line) (Liquid); method: Standard Abbe refractometry
Temperature, K	Pressure, kPa	Refractive index (Na D-line)	uncertainty
293.1	101.325	1.4307	0.0004

System: formic acid + dimethylformamide; phases: Liquid, Gas
Fixed: Pressure, kPa = 10
Property: Boiling temperature at pressure P, K (Liquid); method: CCELL:UFactor:64
Mole fraction of formic acid	Boiling temperature at pressure P, K	uncertainty
0.1136	356.5	5.95
0.2005	357.9	5.95
0.3028	356.8	5.95
0.4069	351	5.95
0.4973	343.55	5.95
0.6022	338.5	5.95
0.7038	333.35	5.95
0.8071	325.55	5.95
0.9001	316.95	5.95

System: formic acid + 2-ethyl-1-hexanol; phases: Liquid, Gas
Fixed: Pressure, kPa = 10
Property: Boiling temperature at pressure P, K (Liquid); method: CCELL:UFactor:64
Mole fraction of formic acid	Boiling temperature at pressure P, K	uncertainty
0.0514	354.45	5.95
0.1122	338.2	5.95
0.2038	332.3	5.95
0.2603	326.25	5.95
0.3322	322.5	5.95
0.3846	320.65	5.95
0.5093	321.75	5.95
0.8097	319.85	5.95
0.9046	313.4	5.95
0.9512	313.15	5.95

System: dimethylformamide + 1-chloro-2-ethylhexane; phases: Liquid, Gas
Fixed: Pressure, kPa = 10
Property: Boiling temperature at pressure P, K (Liquid); method: CCELL:UFactor:64
Mole fraction of dimethylformamide	Boiling temperature at pressure P, K	uncertainty
0.3297	365.15	5.95
0.4878	361.1	5.95
0.5966	358.5	5.95
0.6445	356.45	5.95
0.7694	353.95	5.95
0.8485	354.65	5.95
0.8968	355.6	5.95

System: dimethylformamide + 1-chloro-2-ethylhexane; phases: Liquid, Gas
Fixed: Pressure, kPa = 10
Property: Mole fraction of dimethylformamide (Liquid); method: CHROM:UFactor:16
Mole fraction of dimethylformamide	Mole fraction of dimethylformamide	uncertainty
0.3297	0.0914	0.0113
0.4878	0.1686	0.0209
0.5966	0.2721	0.0338
0.6445	0.3813	0.0473
0.7694	0.7758	0.0278
0.8485	0.9039	0.0119
0.8968	0.9445	0.0069

System: formic acid + 1-chloro-2-ethylhexane; phases: Liquid mixture 1, Liquid mixture 2
Fixed: Pressure, kPa = 10
Property: Mole fraction of formic acid (Liquid mixture 1); method: CHROM:UFactor:32
Temperature, K	Mole fraction of formic acid	uncertainty
312.8	0.0184	0.0046
328.2	0.0251	0.0062
337.85	0.0388	0.0096
341.35	0.0622	0.0154
350.25	0.0557	0.0138

System: formic acid + 1-chloro-2-ethylhexane; phases: Liquid mixture 2, Liquid mixture 1
Fixed: Pressure, kPa = 10
Property: Mole fraction of formic acid (Liquid mixture 2); method: CHROM:UFactor:32
Temperature, K	Mole fraction of formic acid	uncertainty
292.95	0.997	0.0008
313.45	0.9956	0.0011
333.35	0.9937	0.0016
342.45	0.9928	0.0018
346.75	0.9922	0.0019
351.7	0.9915	0.0021
