Measured thermophysical data. Vapor-Liquid Equilibria for the Ternary System Ethanol + Water + 1-Butyl-3-methylimidazolium Methylsulfate and the Corresponding Binary Systems at 101.3 kPa
Source: J. Chem. Eng. Data, 2009, 10.1021/je800828y
Compound 1: 1-butyl-3-methylimidazolium methyl sulfate, C9H18N2O4S, InChI=1S/C8H15N2.CH4O4S/c1-3-4-5-10-7-6-9(2)8-10;1-5-6(2,3)4/h6-8H,3-5H2,1-2H3;1H3,(H,2,3,4)/q+1;/p-1
Compound 2: ethanol, C2H6O, InChI=1S/C2H6O/c1-2-3/h3H,2H2,1H3
Compound 3: water, H2O, InChI=1S/H2O/h1H2

System: ethanol; phases: Liquid, Gas
Property: Vapor or sublimation pressure, kPa (Liquid); method: Ebulliometric method (Recirculating still)
Temperature, K	Vapor or sublimation pressure, kPa	uncertainty
351.44	101.3	0.1

System: ethanol + 1-butyl-3-methylimidazolium methyl sulfate; phases: Liquid, Gas
Fixed: Pressure, kPa = 101.3
Property: Mole fraction of ethanol (Liquid); method: Density calibration data
Temperature, K	Mole fraction of ethanol	uncertainty
351.44	1	0.001
351.67	0.98	0.01
351.88	0.966	0.01
352.14	0.943	0.01
352.56	0.923	0.01
352.97	0.904	0.01
353.66	0.884	0.01
354.43	0.862	0.01
355.37	0.835	0.01
356.85	0.804	0.01
360.43	0.735	0.01
362.98	0.693	0.01
368.33	0.629	0.011
373.7	0.565	0.011

System: water + 1-butyl-3-methylimidazolium methyl sulfate; phases: Liquid, Gas
Fixed: Pressure, kPa = 101.3
Property: Mole fraction of water (Liquid); method: Density calibration data
Temperature, K	Mole fraction of water	uncertainty
373.15	1	0.001
373.48	0.931	0.02
373.59	0.901	0.021
373.74	0.848	0.021
373.83	0.817	0.024
373.84	0.758	0.025
373.89	0.74	0.029
373.9	0.704	0.029
373.93	0.664	0.034
373.94	0.65	0.022
374.09	0.605	0.102
374.09	0.55	0.067
374.1	0.507	0.056
374.12	0.455	0.056

System: ethanol + water + 1-butyl-3-methylimidazolium methyl sulfate; phases: Liquid, Gas
Fixed: Pressure, kPa = 101.3
Property: Boiling temperature at pressure P, K (Liquid); method: Ebulliometric method (Recirculating still)
Mole fraction of ethanol	Mole fraction of water	Boiling temperature at pressure P, K	uncertainty
0.051	0.934	364.84	1.21
0.07	0.811	365.2	0.62
0.07	0.911	362.88	1.16
0.09	0.888	361.61	1.22
0.097	0.888	360.35	1.49
0.106	0.811	363.16	0.78
0.118	0.855	360.21	1.02
0.119	0.811	362.24	0.81
0.122	0.759	361.67	0.51
0.128	0.817	361.25	0.32
0.141	0.817	360.19	0.86
0.15	0.817	359.28	0.98
0.153	0.814	359.12	1.05
0.167	0.818	357.56	1.08
0.174	0.818	357	1
0.175	0.553	365.97	0.66
0.183	0.707	359.3	0.49
0.197	0.585	363.24	0.63
0.209	0.601	362.19	0.65
0.227	0.729	357.45	0.4
0.237	0.611	360.3	0.93
0.239	0.748	355.85	0.62
0.256	0.619	358.39	0.53
0.261	0.487	362.42	0.53
0.27	0.629	356.79	0.48
0.275	0.684	356.45	0.72
0.293	0.695	355.16	0.72
0.33	0.63	355.41	0.3
0.369	0.563	355.63	0.45
0.375	0.403	359.82	0.57
0.391	0.573	354.6	0.45
0.423	0.511	354.98	0.51
0.47	0.466	354.27	0.44
0.47	0.498	353.78	0.35
0.492	0.334	358.07	0.67
0.515	0.428	352.38	0.59
0.563	0.411	353	0.21
0.589	0.263	355.84	0.37
0.605	0.308	354.4	0.4
0.63	0.32	353.31	0.41
0.643	0.335	352.47	0.42
0.678	0.201	354.62	0.4

System: ethanol + water + 1-butyl-3-methylimidazolium methyl sulfate; phases: Gas, Liquid
Fixed: Pressure, kPa = 101.3
Property: Mole fraction of ethanol (Gas); method: Density calibration data
Mole fraction of ethanol	Mole fraction of water	Mole fraction of ethanol	uncertainty
0.051	0.934	0.325	0.011
0.07	0.811	0.459	0.012
0.07	0.911	0.393	0.012
0.09	0.888	0.43	0.013
0.097	0.888	0.455	0.014
0.106	0.811	0.461	0.012
0.118	0.855	0.482	0.012
0.119	0.811	0.496	0.013
0.122	0.759	0.545	0.013
0.128	0.817	0.501	0.012
0.141	0.817	0.509	0.013
0.15	0.817	0.508	0.013
0.153	0.814	0.525	0.013
0.167	0.818	0.536	0.013
0.174	0.818	0.567	0.015
0.175	0.553	0.694	0.012
0.183	0.707	0.6	0.012
0.197	0.585	0.682	0.012
0.209	0.601	0.661	0.012
0.227	0.729	0.586	0.012
0.237	0.611	0.655	0.012
0.239	0.748	0.574	0.012
0.256	0.619	0.656	0.012
0.261	0.487	0.741	0.012
0.27	0.629	0.655	0.012
0.275	0.684	0.596	0.012
0.293	0.695	0.591	0.012
0.33	0.63	0.625	0.012
0.369	0.563	0.666	0.012
0.375	0.403	0.787	0.011
0.391	0.573	0.653	0.012
0.423	0.511	0.691	0.012
0.47	0.466	0.711	0.012
0.47	0.498	0.684	0.012
0.492	0.334	0.808	0.011
0.515	0.428	0.74	0.012
0.563	0.411	0.724	0.012
0.589	0.263	0.842	0.011
0.605	0.308	0.801	0.011
0.63	0.32	0.782	0.011
0.643	0.335	0.762	0.011
0.678	0.201	0.864	0.011
