Measured thermophysical data. Solubility of Difloxacin in Acetone, Methanol, and Ethanol from (293.15 to 313.15) K
Source: J. Chem. Eng. Data, 2009, 10.1021/je800742d
Compound 1: difloxacin, C21H19F2N3O3, InChI=1S/C21H19F2N3O3/c1-24-6-8-25(9-7-24)19-11-18-15(10-17(19)23)20(27)16(21(28)29)12-26(18)14-4-2-13(22)3-5-14/h2-5,10-12H,6-9H2,1H3,(H,28,29), purity 99.6%
Compound 2: methanol, CH4O, InChI=1S/CH4O/c1-2/h2H,1H3
Compound 3: acetone, C3H6O, InChI=1S/C3H6O/c1-3(2)4/h1-2H3
Compound 4: ethanol, C2H6O, InChI=1S/C2H6O/c1-2-3/h3H,2H2,1H3

System: difloxacin; phases: Crystal, Liquid, Air at 1 atmosphere
Property: Normal melting temperature, K (Crystal); method: VISOBS
Normal melting temperature, K	uncertainty
551.15	0.5

System: methanol + difloxacin; phases: Liquid, Crystal
Fixed: Pressure, kPa = 101
Property: Mole fraction of difloxacin (Liquid); method: Gravimetric method
Temperature, K	Mole fraction of difloxacin	uncertainty
293.15	0.0064	0.001
295.15	0.0068	0.001
298.15	0.0073	0.0012
300.15	0.0077	0.0009
303.15	0.0084	0.0007
305.15	0.0088	0.0008
308.15	0.0095	0.0009
310.15	0.0099	0.0007
313.15	0.0104	0.0004

System: acetone + difloxacin; phases: Liquid, Crystal
Fixed: Pressure, kPa = 101
Property: Mole fraction of difloxacin (Liquid); method: Gravimetric method
Temperature, K	Mole fraction of difloxacin	uncertainty
293.15	0.0052	0.0004
295.15	0.0058	0.0006
298.15	0.0067	0.0005
300.15	0.0073	0.0007
303.15	0.0081	0.0012
305.15	0.0087	0.0006
308.15	0.0096	0.0009
310.15	0.0104	0.0005
313.15	0.011	0.0005

System: ethanol + difloxacin; phases: Liquid, Crystal
Fixed: Pressure, kPa = 101
Property: Mole fraction of difloxacin (Liquid); method: Gravimetric method
Temperature, K	Mole fraction of difloxacin	uncertainty
293.15	0.0387	0.0013
295.15	0.0435	0.001
298.15	0.0507	0.0014
300.15	0.0559	0.0013
303.15	0.0636	0.0014
305.15	0.0683	0.0016
308.15	0.0754	0.0017
310.15	0.0795	0.0017
313.15	0.0856	0.0022
