Measured thermophysical data. Solubility of 2-Aminopyridine in Ethanol + n-Butyl Acetate from (288.15 to 318.15) K
Source: J. Chem. Eng. Data, 2009, 10.1021/je800841v
Compound 1: 2-pyridinamine, C5H6N2, InChI=1S/C5H6N2/c6-5-3-1-2-4-7-5/h1-4H,(H2,6,7)
Compound 2: ethanol, C2H6O, InChI=1S/C2H6O/c1-2-3/h3H,2H2,1H3
Compound 3: butyl ethanoate, C6H12O2, InChI=1S/C6H12O2/c1-3-4-5-8-6(2)7/h3-5H2,1-2H3

System: 2-pyridinamine; phases: Crystal, Liquid, Air at 1 atmosphere
Property: Normal melting temperature, K (Crystal); method: VISOBS
Normal melting temperature, K	uncertainty
330.95	0.5

System: butyl ethanoate + 2-pyridinamine; phases: Liquid, Crystal
Fixed: Pressure, kPa = 101
Property: Mole fraction of 2-pyridinamine (Liquid); method: static analytic method
Temperature, K	Mole fraction of 2-pyridinamine	uncertainty
288.15	0.1979	0.014
293.15	0.249	0.0176
298.15	0.3088	0.0219
303.15	0.3775	0.0267
308.15	0.4575	0.0325
313.15	0.5483	0.0392
318.15	0.6545	0.0625

System: ethanol + 2-pyridinamine; phases: Liquid, Crystal
Fixed: Pressure, kPa = 101
Property: Mole fraction of 2-pyridinamine (Liquid); method: static analytic method
Temperature, K	Mole fraction of 2-pyridinamine	uncertainty
288.15	0.4955	0.0352
293.15	0.541	0.0386
298.15	0.5929	0.043
303.15	0.6506	0.0579
308.15	0.7133	0.0564
313.15	0.7783	0.0559
318.15	0.8445	0.06

System: ethanol + butyl ethanoate + 2-pyridinamine; phases: Liquid, Crystal
Fixed: Pressure, kPa = 101
Property: Mole fraction of 2-pyridinamine (Liquid); method: static analytic method
Temperature, K	Solvent: Mass fraction of ethanol	Mole fraction of 2-pyridinamine	uncertainty
288.15	0	0.1979	0.014
288.15	0.2	0.3097	0.0219
288.15	0.4	0.3757	0.0266
288.15	0.6	0.4125	0.0292
288.15	0.8	0.4492	0.0318
288.15	1	0.4955	0.0352
293.15	0	0.249	0.0176
293.15	0.2	0.3562	0.0252
293.15	0.4	0.4235	0.03
293.15	0.6	0.4575	0.0324
293.15	0.8	0.4978	0.0354
293.15	1	0.541	0.0386
298.15	0	0.3088	0.0219
298.15	0.2	0.4095	0.029
298.15	0.4	0.4745	0.0337
298.15	0.6	0.5056	0.0359
298.15	0.8	0.5458	0.039
298.15	1	0.5929	0.043
303.15	0	0.3775	0.0267
303.15	0.2	0.4699	0.0333
303.15	0.4	0.5313	0.0379
303.15	0.6	0.5613	0.0402
303.15	0.8	0.6023	0.044
303.15	1	0.6506	0.0579
308.15	0	0.4575	0.0325
308.15	0.2	0.5394	0.0385
308.15	0.4	0.5932	0.043
308.15	0.6	0.625	0.0472
308.15	0.8	0.6645	0.0942
308.15	1	0.7133	0.0564
313.15	0	0.5483	0.0392
313.15	0.2	0.619	0.0462
313.15	0.4	0.6611	0.0777
313.15	0.6	0.6964	0.0666
313.15	0.8	0.7319	0.0546
313.15	1	0.7783	0.0559
318.15	0	0.6545	0.0625
318.15	0.2	0.7095	0.0575
318.15	0.4	0.742	0.0545
318.15	0.6	0.7649	0.0552
318.15	0.8	0.8042	0.0574
318.15	1	0.8445	0.06
