Measured thermophysical data. Liquid-Liquid Phase Equilibria of the System Ethanol (1) + Water (2) + Tripotassium Citrate (3)
Source: J. Chem. Eng. Data, 2008, 10.1021/je800092p
Compound 1: ethanol, C2H6O, InChI=1S/C2H6O/c1-2-3/h3H,2H2,1H3, purity 99.5%
Compound 2: water, H2O, InChI=1S/H2O/h1H2
Compound 3: tripotassium citrate monohydrate, C6H7K3O8, InChI=1S/C6H8O7.3K.H2O/c7-3(8)1-6(13,5(11)12)2-4(9)10;;;;/h13H,1-2H2,(H,7,8)(H,9,10)(H,11,12);;;;1H2/q;3*+1;/p-3, purity 99%

System: ethanol + tripotassium citrate monohydrate + water; phases: Liquid mixture 1, Liquid mixture 2
Fixed: Pressure, kPa = 101.3
Property: Mole fraction of water (Liquid mixture 1); method: CHROM:UFactor:2
Property: Mole fraction of water (Liquid mixture 2); method: CHROM:UFactor:2
Property: Mole fraction of ethanol (Liquid mixture 2); method: CHROM:UFactor:2
Temperature, K	Mole fraction of ethanol	Mole fraction of water	uncertainty	Mole fraction of water	uncertainty	Mole fraction of ethanol	uncertainty
288.15	0.7845	0.2141	0.0034	0.433	0.0077	0.0241	
288.15	0.768	0.2301	0.0036	0.4441	0.0129	0.0315	
288.15	0.7435	0.2538	0.004	0.4618	0.013	0.0302	
288.15	0.7166	0.278	0.0044	0.4749	0.0092	0.037	
288.15	0.6778	0.3146	0.0049	0.5054	0.008	0.0402	
288.15	0.6405	0.3513	0.0055	0.5141	0.0076	0.0494	
288.15	0.5709	0.4042	0.0063	0.5421	0.0071	0.0757	
288.15	0.4986	0.4555	0.0071	0.555	0.0069	0.0992	
288.15	0.4847	0.4664	0.0072	0.558	0.007	0.103	
288.15	0.4485	0.4845	0.0075	0.563	0.007	0.121	
288.15	0.377	0.518	0.007	0.567	0.007	0.162	
298.15	0.7998	0.1992	0.0032	0.4173	0.0077	0.0215	
298.15	0.7792	0.2199	0.0035	0.4387	0.008	0.0224	
298.15	0.7641	0.234	0.0037	0.4487	0.0073	0.0267	
298.15	0.7514	0.246	0.0039	0.4581	0.0076	0.0301	
298.15	0.7211	0.2747	0.0043	0.4769	0.0079	0.0347	
298.15	0.6768	0.3158	0.0049	0.5067	0.0078	0.0445	
298.15	0.6454	0.3454	0.0054	0.5134	0.0076	0.054	
298.15	0.6147	0.3711	0.0058	0.5214	0.0074	0.0593	
298.15	0.6048	0.3805	0.0059	0.5248	0.0074	0.0622	
298.15	0.5602	0.4161	0.0065	0.5386	0.0072	0.0759	
298.15	0.5015	0.4541	0.0071	0.554	0.007	0.1	
298.15	0.437	0.4998	0.0078	0.569	0.007	0.124	
298.15	0.3914	0.5169	0.0075	0.576	0.007	0.147	
308.15	0.8074	0.1909	0.0031	0.451	0.0075	0.0261	
308.15	0.7803	0.2173	0.0035	0.46	0.0076	0.0287	
308.15	0.7505	0.2454	0.0039	0.4859	0.0079	0.0364	
308.15	0.7099	0.283	0.0044	0.5077	0.0079	0.0444	
308.15	0.6798	0.3113	0.0049	0.5182	0.0076	0.0499	
308.15	0.6537	0.3344	0.0052	0.5295	0.0074	0.0573	
308.15	0.6147	0.3663	0.0057	0.5475	0.0071	0.0702	
308.15	0.5867	0.3879	0.006	0.555	0.0069	0.079	
308.15	0.5371	0.4239	0.0066	0.5687	0.0067	0.0975	
308.15	0.4967	0.4493	0.007	0.573	0.007	0.117	
308.15	0.4579	0.4809	0.0075	0.576	0.007	0.125	
308.15	0.4214	0.5018	0.0077	0.578	0.007	0.143	
