Measured thermophysical data. Solubility of Canthaxanthin in Pure Solvents from (293.15 to 343.15) K
Source: J. Chem. Eng. Data, 2009, 10.1021/je800801x
Compound 1: .beta.,.beta.-carotene-4,4'-dione, C40H52O2, InChI=1S/C40H52O2/c1-29(17-13-19-31(3)21-23-35-33(5)37(41)25-27-39(35,7)8)15-11-12-16-30(2)18-14-20-32(4)22-24-36-34(6)38(42)26-28-40(36,9)10/h11-24H,25-28H2,1-10H3/b12-11+,17-13+,18-14+,23-21+,24-22+,29-15+,30-16+,31-19+,32-20+, purity 98.3%
Compound 2: methanol, CH4O, InChI=1S/CH4O/c1-2/h2H,1H3
Compound 3: ethanol, C2H6O, InChI=1S/C2H6O/c1-2-3/h3H,2H2,1H3
Compound 4: acetone, C3H6O, InChI=1S/C3H6O/c1-3(2)4/h1-2H3
Compound 5: ethyl acetate, C4H8O2, InChI=1S/C4H8O2/c1-3-6-4(2)5/h3H2,1-2H3
Compound 6: toluene, C7H8, InChI=1S/C7H8/c1-7-5-3-2-4-6-7/h2-6H,1H3
Compound 7: cyclohexane, C6H12, InChI=1S/C6H12/c1-2-4-6-5-3-1/h1-6H2
Compound 8: 1,2-dichloroethane, C2H4Cl2, InChI=1S/C2H4Cl2/c3-1-2-4/h1-2H2
Compound 9: trichloromethane, CHCl3, InChI=1S/CHCl3/c2-1(3)4/h1H

System: methanol + .beta.,.beta.-carotene-4,4'-dione; phases: Liquid, Crystal
Fixed: Pressure, kPa = 101
Property: Mole fraction of .beta.,.beta.-carotene-4,4'-dione (Liquid); method: laser intensity
Temperature, K	Mole fraction of .beta.,.beta.-carotene-4,4'-dione	uncertainty
293.15	2.61e-06	1.07e-07
303.15	2.93e-06	1.2e-07
313.15	3.27e-06	1.34e-07
323.15	3.77e-06	1.55e-07
333.15	4.53e-06	1.86e-07

System: ethanol + .beta.,.beta.-carotene-4,4'-dione; phases: Liquid, Crystal
Fixed: Pressure, kPa = 101
Property: Mole fraction of .beta.,.beta.-carotene-4,4'-dione (Liquid); method: laser intensity
Temperature, K	Mole fraction of .beta.,.beta.-carotene-4,4'-dione	uncertainty
293.15	4.5e-06	1.29e-07
303.15	5.6e-06	1.6e-07
313.15	6.35e-06	1.81e-07
323.15	7.48e-06	2.13e-07
333.15	8.72e-06	2.49e-07
343.15	9.9e-06	2.82e-07

System: acetone + .beta.,.beta.-carotene-4,4'-dione; phases: Liquid, Crystal
Fixed: Pressure, kPa = 101
Property: Mole fraction of .beta.,.beta.-carotene-4,4'-dione (Liquid); method: laser intensity
Temperature, K	Mole fraction of .beta.,.beta.-carotene-4,4'-dione	uncertainty
293.15	1.95e-05	4.6e-07
298.15	2.451e-05	5.7e-07
303.15	3.1e-05	7.2e-07
308.15	3.72e-05	8.6e-07
313.15	4.22e-05	9.8e-07
318.15	4.942e-05	1.14e-06

System: ethyl acetate + .beta.,.beta.-carotene-4,4'-dione; phases: Liquid, Crystal
Fixed: Pressure, kPa = 101
Property: Mole fraction of .beta.,.beta.-carotene-4,4'-dione (Liquid); method: laser intensity
Temperature, K	Mole fraction of .beta.,.beta.-carotene-4,4'-dione	uncertainty
293.15	2.71e-05	4.7e-07
303.15	3.674e-05	6.3e-07
313.15	5.43e-05	9.5e-07
323.15	8.581e-05	1.52e-06
333.15	0.000144	2.6e-06
343.15	0.000256	4.5e-06

System: 1,2-dichloroethane + .beta.,.beta.-carotene-4,4'-dione; phases: Liquid, Crystal
Fixed: Pressure, kPa = 101
Property: Mole fraction of .beta.,.beta.-carotene-4,4'-dione (Liquid); method: laser intensity
Temperature, K	Mole fraction of .beta.,.beta.-carotene-4,4'-dione	uncertainty
293.15	0.0182	0.00029
303.15	0.0224	0.00036
313.15	0.0258	0.00041
323.15	0.0281	0.00045
333.15	0.0288	0.00046
343.15	0.029	0.00046

System: trichloromethane + .beta.,.beta.-carotene-4,4'-dione; phases: Liquid, Crystal
Fixed: Pressure, kPa = 101
Property: Mole fraction of .beta.,.beta.-carotene-4,4'-dione (Liquid); method: laser intensity
Temperature, K	Mole fraction of .beta.,.beta.-carotene-4,4'-dione	uncertainty
293.15	0.0181	0.00027
303.15	0.0264	0.00039
313.15	0.0342	0.0005
323.15	0.0392	0.00057
333.15	0.0409	0.00059

System: toluene + .beta.,.beta.-carotene-4,4'-dione; phases: Liquid, Crystal
Fixed: Pressure, kPa = 101
Property: Mole fraction of .beta.,.beta.-carotene-4,4'-dione (Liquid); method: laser intensity
Temperature, K	Mole fraction of .beta.,.beta.-carotene-4,4'-dione	uncertainty
293.15	0.000118	2e-06
303.15	0.000146	2.4e-06
313.15	0.0001711	2.8e-06
323.15	0.0001905	3.1e-06
333.15	0.0002023	3.3e-06
343.15	0.0002075	3.4e-06

System: cyclohexane + .beta.,.beta.-carotene-4,4'-dione; phases: Liquid, Crystal
Fixed: Pressure, kPa = 101
Property: Mole fraction of .beta.,.beta.-carotene-4,4'-dione (Liquid); method: laser intensity
Temperature, K	Mole fraction of .beta.,.beta.-carotene-4,4'-dione	uncertainty
293.15	1.268e-05	2.2e-07
303.15	1.331e-05	2.3e-07
313.15	1.377e-05	2.4e-07
323.15	1.482e-05	2.6e-07
333.15	1.711e-05	3e-07
343.15	2.055e-05	3.6e-07
