Measured thermophysical data. Vapor-Liquid Equilibrium Data for N-Methylacetamide and N,N-Dimethylacetamide with Cumene at 97.3 kPa
Source: J. Chem. Eng. Data, 2009, 10.1021/je800481n
Compound 1: N-methylacetamide, C3H7NO, InChI=1S/C3H7NO/c1-3(5)4-2/h1-2H3,(H,4,5)
Compound 2: N,N-dimethylethanamide, C4H9NO, InChI=1S/C4H9NO/c1-4(6)5(2)3/h1-3H3
Compound 3: isopropylbenzene, C9H12, InChI=1S/C9H12/c1-8(2)9-6-4-3-5-7-9/h3-8H,1-2H3

System: N-methylacetamide; phases: Liquid, Gas
Property: Boiling temperature at pressure P, K (Liquid); method: Ebulliometric method (Recirculating still)
Pressure, kPa	Boiling temperature at pressure P, K	uncertainty
101.3	479.15	0.12

System: N-methylacetamide; phases: Liquid
Property: Refractive index (Na D-line) (Liquid); method: Standard Abbe refractometry
Pressure, kPa	Temperature, K	Refractive index (Na D-line)	uncertainty
101.3	301.15	1.428542	0.00037

System: N,N-dimethylethanamide; phases: Liquid, Gas
Property: Boiling temperature at pressure P, K (Liquid); method: Ebulliometric method (Recirculating still)
Pressure, kPa	Boiling temperature at pressure P, K	uncertainty
101.3	438.77	0.12

System: N,N-dimethylethanamide; phases: Liquid
Property: Refractive index (Na D-line) (Liquid); method: Standard Abbe refractometry
Pressure, kPa	Temperature, K	Refractive index (Na D-line)	uncertainty
101.3	298.15	1.43507	0.000507

System: isopropylbenzene; phases: Liquid, Gas
Property: Boiling temperature at pressure P, K (Liquid); method: Ebulliometric method (Recirculating still)
Pressure, kPa	Boiling temperature at pressure P, K	uncertainty
101.3	425.44	0.12

System: isopropylbenzene; phases: Liquid
Property: Refractive index (Na D-line) (Liquid); method: Standard Abbe refractometry
Pressure, kPa	Temperature, K	Refractive index (Na D-line)	uncertainty
101.3	298.15	1.488292	0.00037

System: N-methylacetamide + isopropylbenzene; phases: Liquid, Gas
Fixed: Pressure, kPa = 97.3
Property: Boiling temperature at pressure P, K (Liquid); method: EBULLIO:UFactor:16
Mole fraction of isopropylbenzene	Boiling temperature at pressure P, K	uncertainty
0.0067	473.36	1.39
0.0207	465	1.38
0.048	453.15	1.37
0.1036	444.15	1.37
0.1911	434.44	1.37
0.274	432.15	1.37
0.3198	429.22	1.37
0.37	429.04	1.37
0.451	428.27	1.37
0.489	427.83	1.37
0.55	427.09	1.37
0.622	425.53	1.37
0.711	425.15	1.37
0.767	424.15	1.37
0.819	421.5	1.37
0.8965	422.48	1.37
0.95	423.15	1.37
0.982	423.62	1.37

System: N-methylacetamide + isopropylbenzene; phases: Gas, Liquid
Fixed: Pressure, kPa = 97.3
Property: Mole fraction of isopropylbenzene (Gas); method: Index of refraction calibration data
Mole fraction of isopropylbenzene	Mole fraction of isopropylbenzene	uncertainty
0.0067	0.1156	0.0838
0.0207	0.2894	0.093
0.048	0.5061	0.0437
0.1036	0.6614	0.0201
0.1911	0.7598	0.0127
0.274	0.7858	0.011
0.3198	0.811	0.0107
0.37	0.8151	0.0103
0.451	0.8293	0.0103
0.489	0.831	0.0102
0.55	0.836	0.0102
0.622	0.8457	0.0102
0.711	0.8391	0.0102
0.767	0.8539	0.0106
0.819	0.8719	0.0105
0.8965	0.8906	0.0109
0.95	0.9289	0.0136
0.982	0.9708	0.0165

System: isopropylbenzene + N,N-dimethylethanamide; phases: Liquid, Gas
Fixed: Pressure, kPa = 97.3
Property: Boiling temperature at pressure P, K (Liquid); method: EBULLIO:UFactor:8
Mole fraction of isopropylbenzene	Boiling temperature at pressure P, K	uncertainty
0.0122	434.42	0.69
0.0349	430.55	0.69
0.074	427.55	0.69
0.113	424.71	0.69
0.18	422.28	0.69
0.234	420.94	0.69
0.324	419.85	0.69
0.4	419.27	0.69
0.506	419.1	0.69
0.552	418.76	0.69
0.642	418.43	0.69
0.7221	418.25	0.69
0.8287	418.33	0.68
0.88	419.35	0.68
0.938	420.02	0.68
0.973	421.45	0.68
0.988	422.62	0.69
0.9964	423.46	0.69

System: isopropylbenzene + N,N-dimethylethanamide; phases: Gas, Liquid
Fixed: Pressure, kPa = 97.3
Property: Mole fraction of isopropylbenzene (Gas); method: Index of refraction calibration data
Mole fraction of isopropylbenzene	Mole fraction of isopropylbenzene	uncertainty
0.0122	0.0977	0.0397
0.0349	0.185	0.0295
0.074	0.2732	0.0217
0.113	0.3349	0.0165
0.18	0.4118	0.0147
0.234	0.4562	0.0138
0.324	0.5313	0.0135
0.4	0.5789	0.0129
0.506	0.6502	0.0127
0.552	0.6762	0.0115
0.642	0.7034	0.0111
0.7221	0.7243	0.0111
0.8287	0.7644	0.011
0.88	0.7728	0.0115
0.938	0.8157	0.0165
0.973	0.8982	0.027
0.988	0.9426	0.0345
0.9964	0.9764	0.0176
