Measured thermophysical data. Densities and Viscosities of Binary Mixtures of Acetic Acid with Acetic Anhydride and Methenamine at Different Temperatures
Source: J. Chem. Eng. Data, 2008, 10.1021/je8003782
Compound 1: ethanoic anhydride, C4H6O3, InChI=1S/C4H6O3/c1-3(5)7-4(2)6/h1-2H3
Compound 2: 1,3,5,7-tetraazaadamantane, C6H12N4, InChI=1S/C6H12N4/c1-7-2-9-4-8(1)5-10(3-7)6-9/h1-6H2, purity 99.5%
Compound 3: acetic acid, C2H4O2, InChI=1S/C2H4O2/c1-2(3)4/h1H3,(H,3,4)

System: ethanoic anhydride; phases: Liquid
Fixed: Pressure, kPa = 101.3
Property: Viscosity, Pa*s (Liquid); method: CAPTUB:UFactor:2
Temperature, K	Viscosity, Pa*s	uncertainty
293.15	0.000888	1.6e-05
298.15	0.000829	1.5e-05
303.15	0.000778	1.5e-05
308.15	0.000729	1.4e-05
313.15	0.000688	1.4e-05
318.15	0.000648	1.4e-05
323.15	0.00061	1.3e-05
328.15	0.00058	1.3e-05
333.15	0.000548	1.3e-05
338.15	0.000521	1.3e-05

System: ethanoic anhydride; phases: Liquid
Fixed: Pressure, kPa = 101.3
Property: Mass density, kg/m3 (Liquid); method: VIBTUB:UFactor:16
Temperature, K	Mass density, kg/m3	uncertainty
293.15	1080.89	1.53
298.15	1074.8	1.48
303.15	1068.7	1.44
308.15	1062.61	1.39
313.15	1056.49	1.35
318.15	1050.38	1.31
323.15	1044.24	1.26
328.15	1038.07	1.22
333.15	1031.9	1.17
338.15	1025.7	1.13

System: acetic acid; phases: Liquid
Fixed: Pressure, kPa = 101.3
Property: Viscosity, Pa*s (Liquid); method: CAPTUB:UFactor:2
Temperature, K	Viscosity, Pa*s	uncertainty
293.15	0.001204	1.7e-05
293.15	0.001204	2.9e-05
298.15	0.001114	1.6e-05
298.15	0.001114	2.7e-05
303.15	0.001037	1.6e-05
303.15	0.001037	2.6e-05
308.15	0.000964	1.5e-05
308.15	0.000964	2.4e-05
313.15	0.000902	1.5e-05
313.15	0.000902	2.3e-05
318.15	0.000841	1.4e-05
318.15	0.000841	2.2e-05
323.15	0.000787	1.4e-05
323.15	0.000787	2.1e-05
328.15	0.000741	1.3e-05
328.15	0.000741	2e-05
333.15	0.000697	1.3e-05
333.15	0.000697	1.9e-05
338.15	0.000657	1.3e-05

System: acetic acid; phases: Liquid
Fixed: Pressure, kPa = 101.3
Property: Mass density, kg/m3 (Liquid); method: VIBTUB:UFactor:16
Temperature, K	Mass density, kg/m3	uncertainty
293.15	1049.42	0.86
293.15	1049.42	1.66
298.15	1043.76	0.82
298.15	1043.76	1.59
303.15	1038.1	0.79
303.15	1038.1	1.52
308.15	1032.44	0.75
308.15	1032.44	1.45
313.15	1026.77	0.72
313.15	1026.77	1.38
318.15	1021.11	0.68
318.15	1021.11	1.31
323.15	1015.44	0.64
323.15	1015.44	1.24
328.15	1009.77	0.61
328.15	1009.77	1.16
333.15	1004.09	0.57
333.15	1004.09	1.09
338.15	998.38	0.56

System: acetic acid + ethanoic anhydride; phases: Liquid
Fixed: Pressure, kPa = 101
Property: Viscosity, Pa*s (Liquid); method: CAPTUB:UFactor:2
Temperature, K	Mole fraction of acetic acid	Viscosity, Pa*s	uncertainty
293.15	0	0.000888	1.6e-05
293.15	0.1	0.000905	1.6e-05
293.15	0.2	0.00092	1.6e-05
293.15	0.2999	0.000934	1.6e-05
293.15	0.3996	0.000954	1.6e-05
293.15	0.4999	0.000975	1.6e-05
293.15	0.5965	0.001004	1.6e-05
293.15	0.6992	0.001041	1.6e-05
293.15	0.8004	0.001084	1.6e-05
293.15	0.8976	0.001145	1.7e-05
293.15	1	0.001204	1.7e-05
298.15	0	0.000829	1.5e-05
298.15	0.1	0.000844	1.5e-05
298.15	0.2	0.000859	1.5e-05
298.15	0.2999	0.000872	1.5e-05
298.15	0.3996	0.000887	1.5e-05
298.15	0.4999	0.000908	1.5e-05
298.15	0.5965	0.000933	1.5e-05
298.15	0.6992	0.000966	1.5e-05
298.15	0.8004	0.001008	1.6e-05
298.15	0.8976	0.001057	1.6e-05
298.15	1	0.001114	1.6e-05
303.15	0	0.000778	1.5e-05
303.15	0.1	0.000793	1.5e-05
303.15	0.2	0.000805	1.5e-05
303.15	0.2999	0.000819	1.5e-05
303.15	0.3996	0.000831	1.5e-05
303.15	0.4999	0.000849	1.5e-05
303.15	0.5965	0.000874	1.5e-05
303.15	0.6992	0.000903	1.5e-05
303.15	0.8004	0.000936	1.5e-05
303.15	0.8976	0.000985	1.5e-05
303.15	1	0.001037	1.6e-05
308.15	0	0.000729	1.4e-05
308.15	0.1	0.000742	1.4e-05
308.15	0.2	0.000754	1.4e-05
308.15	0.2999	0.000768	1.4e-05
308.15	0.3996	0.000777	1.4e-05
308.15	0.4999	0.000793	1.4e-05
308.15	0.5965	0.000814	1.4e-05
308.15	0.6992	0.000842	1.4e-05
308.15	0.8004	0.000873	1.4e-05
308.15	0.8976	0.000919	1.5e-05
308.15	1	0.000964	1.5e-05
313.15	0	0.000688	1.4e-05
313.15	0.1	0.000699	1.4e-05
313.15	0.2	0.00071	1.4e-05
313.15	0.2999	0.000721	1.4e-05
313.15	0.3996	0.000734	1.4e-05
313.15	0.4999	0.000748	1.4e-05
313.15	0.5965	0.000766	1.4e-05
313.15	0.6992	0.000791	1.4e-05
313.15	0.8004	0.00082	1.4e-05
313.15	0.8976	0.00086	1.4e-05
313.15	1	0.000902	1.5e-05
318.15	0	0.000648	1.4e-05
318.15	0.1	0.000659	1.4e-05
318.15	0.2	0.000666	1.4e-05
318.15	0.2999	0.000678	1.4e-05
318.15	0.3996	0.000688	1.3e-05
318.15	0.4999	0.000703	1.4e-05
318.15	0.5965	0.000721	1.4e-05
318.15	0.6992	0.000743	1.4e-05
318.15	0.8004	0.00077	1.4e-05
318.15	0.8976	0.0008	1.4e-05
318.15	1	0.000841	1.4e-05
323.15	0	0.00061	1.3e-05
323.15	0.1	0.000621	1.3e-05
323.15	0.2	0.000627	1.3e-05
323.15	0.2999	0.000638	1.3e-05
323.15	0.3996	0.000649	1.3e-05
323.15	0.4999	0.000661	1.3e-05
323.15	0.5965	0.000676	1.3e-05
323.15	0.6992	0.000699	1.3e-05
323.15	0.8004	0.000723	1.3e-05
323.15	0.8976	0.000751	1.4e-05
323.15	1	0.000787	1.4e-05
328.15	0	0.00058	1.3e-05
328.15	0.1	0.000587	1.3e-05
328.15	0.2	0.000595	1.3e-05
328.15	0.2999	0.000603	1.3e-05
328.15	0.3996	0.000614	1.3e-05
328.15	0.4999	0.000625	1.3e-05
328.15	0.5965	0.000639	1.3e-05
328.15	0.6992	0.00066	1.3e-05
328.15	0.8004	0.00068	1.3e-05
328.15	0.8976	0.000708	1.3e-05
328.15	1	0.000741	1.3e-05
333.15	0	0.000548	1.3e-05
333.15	0.1	0.000556	1.3e-05
333.15	0.2	0.000562	1.3e-05
333.15	0.2999	0.00057	1.3e-05
333.15	0.3996	0.00058	1.3e-05
333.15	0.4999	0.00059	1.3e-05
333.15	0.5965	0.000605	1.3e-05
333.15	0.6992	0.000622	1.3e-05
333.15	0.8004	0.00064	1.3e-05
333.15	0.8976	0.000665	1.3e-05
333.15	1	0.000697	1.3e-05
338.15	0	0.000521	1.3e-05
338.15	0.1	0.00053	1.3e-05
338.15	0.2	0.000533	1.3e-05
338.15	0.2999	0.000542	1.3e-05
338.15	0.3996	0.000551	1.3e-05
338.15	0.4999	0.000558	1.2e-05
338.15	0.5965	0.000575	1.3e-05
338.15	0.6992	0.00059	1.3e-05
338.15	0.8004	0.000605	1.3e-05
338.15	0.8976	0.000629	1.3e-05
338.15	1	0.000657	1.3e-05

System: acetic acid + ethanoic anhydride; phases: Liquid
Fixed: Pressure, kPa = 101
Property: Mass density, kg/m3 (Liquid); method: VIBTUB:UFactor:16
Temperature, K	Mole fraction of acetic acid	Mass density, kg/m3	uncertainty
293.15	0	1080.89	1.53
293.15	0.1	1079.28	1.45
293.15	0.2	1077.19	1.37
293.15	0.2999	1074.93	1.3
293.15	0.3996	1072.42	1.23
293.15	0.4999	1069.56	1.16
293.15	0.5965	1066.68	1.1
293.15	0.6992	1063.1	1.03
293.15	0.8004	1059.19	0.97
293.15	0.8976	1054.94	0.92
293.15	1	1049.42	0.86
298.15	0	1074.8	1.48
298.15	0.1	1073.24	1.4
298.15	0.2	1071.18	1.33
298.15	0.2999	1068.96	1.25
298.15	0.3996	1066.47	1.18
298.15	0.4999	1063.66	1.12
298.15	0.5965	1060.8	1.06
298.15	0.6992	1057.27	1
298.15	0.8004	1053.41	0.94
298.15	0.8976	1049.21	0.88
298.15	1	1043.76	0.82
303.15	0	1068.7	1.44
303.15	0.1	1067.18	1.36
303.15	0.2	1065.17	1.29
303.15	0.2999	1062.98	1.21
303.15	0.3996	1060.53	1.14
303.15	0.4999	1057.75	1.08
303.15	0.5965	1054.93	1.02
303.15	0.6992	1051.45	0.96
303.15	0.8004	1047.64	0.9
303.15	0.8976	1043.48	0.85
303.15	1	1038.1	0.79
308.15	0	1062.61	1.39
308.15	0.1	1061.12	1.32
308.15	0.2	1059.15	1.24
308.15	0.2999	1057	1.17
308.15	0.3996	1054.57	1.1
308.15	0.4999	1051.83	1.04
308.15	0.5965	1049.05	0.98
308.15	0.6992	1045.62	0.92
308.15	0.8004	1041.85	0.86
308.15	0.8976	1037.75	0.81
308.15	1	1032.44	0.75
313.15	0	1056.49	1.35
313.15	0.1	1055.06	1.28
313.15	0.2	1053.12	1.2
313.15	0.2999	1051	1.13
313.15	0.3996	1048.6	1.06
313.15	0.4999	1045.9	1
313.15	0.5965	1043.16	0.94
313.15	0.6992	1039.78	0.88
313.15	0.8004	1036.06	0.83
313.15	0.8976	1032.01	0.77
313.15	1	1026.77	0.72
318.15	0	1050.38	1.31
318.15	0.1	1048.96	1.23
318.15	0.2	1047.07	1.16
318.15	0.2999	1044.99	1.09
318.15	0.3996	1042.62	1.02
318.15	0.4999	1039.96	0.96
318.15	0.5965	1037.26	0.9
318.15	0.6992	1033.93	0.84
318.15	0.8004	1030.27	0.79
318.15	0.8976	1026.28	0.74
318.15	1	1021.11	0.68
323.15	0	1044.24	1.26
323.15	0.1	1042.87	1.19
323.15	0.2	1041.01	1.12
323.15	0.2999	1038.96	1.05
323.15	0.3996	1036.63	0.98
323.15	0.4999	1034.01	0.92
323.15	0.5965	1031.34	0.86
323.15	0.6992	1028.06	0.81
323.15	0.8004	1024.46	0.75
323.15	0.8976	1020.54	0.7
323.15	1	1015.44	0.64
328.15	0	1038.07	1.22
328.15	0.1	1036.74	1.15
328.15	0.2	1034.94	1.07
328.15	0.2999	1032.91	1.01
328.15	0.3996	1030.61	0.94
328.15	0.4999	1028.04	0.88
328.15	0.5965	1025.39	0.82
328.15	0.6992	1022.18	0.77
328.15	0.8004	1018.64	0.71
328.15	0.8976	1014.79	0.66
328.15	1	1009.77	0.61
333.15	0	1031.9	1.17
333.15	0.1	1030.63	1.1
333.15	0.2	1028.83	1.03
333.15	0.2999	1026.84	0.97
333.15	0.3996	1024.57	0.9
333.15	0.4999	1022.05	0.84
333.15	0.5965	1019.44	0.79
333.15	0.6992	1016.3	0.73
333.15	0.8004	1012.82	0.68
333.15	0.8976	1009.03	0.63
333.15	1	1004.09	0.57
338.15	0	1025.7	1.13
338.15	0.1	1024.48	1.06
338.15	0.2	1022.71	0.99
338.15	0.2999	1020.75	0.92
338.15	0.3996	1018.52	0.86
338.15	0.4999	1016.04	0.8
338.15	0.5965	1013.48	0.75
338.15	0.6992	1010.39	0.69
338.15	0.8004	1006.97	0.64
338.15	0.8976	1003.24	0.59
338.15	1	998.38	0.56

System: acetic acid + 1,3,5,7-tetraazaadamantane; phases: Liquid
Fixed: Pressure, kPa = 101
Property: Viscosity, Pa*s (Liquid); method: CAPTUB:UFactor:4
Temperature, K	Mole fraction of 1,3,5,7-tetraazaadamantane	Viscosity, Pa*s	uncertainty
293.15	0	0.001204	2.9e-05
293.15	0.0201	0.001497	3.7e-05
293.15	0.0401	0.001865	4.5e-05
293.15	0.06	0.002363	5.7e-05
293.15	0.0801	0.003021	7.1e-05
293.15	0.1	0.003841	9e-05
293.15	0.1201	0.004951	0.000115
293.15	0.15	0.007154	0.00015
298.15	0	0.001114	2.7e-05
298.15	0.0201	0.001367	3.4e-05
298.15	0.0401	0.001682	4.1e-05
298.15	0.06	0.002106	5.1e-05
298.15	0.0801	0.002655	6.3e-05
298.15	0.1	0.003333	7.8e-05
298.15	0.1201	0.004254	9.9e-05
298.15	0.15	0.005988	0.00013
303.15	0	0.001037	2.6e-05
303.15	0.0201	0.001248	3.1e-05
303.15	0.0401	0.001523	3.7e-05
303.15	0.06	0.001893	4.6e-05
303.15	0.0801	0.002355	5.6e-05
303.15	0.1	0.002919	6.9e-05
303.15	0.1201	0.003657	8.5e-05
303.15	0.15	0.005085	0.000115
308.15	0	0.000964	2.4e-05
308.15	0.0201	0.001148	2.9e-05
308.15	0.0401	0.001383	3.4e-05
308.15	0.06	0.001703	4.1e-05
308.15	0.0801	0.002091	5e-05
308.15	0.1	0.002565	6.1e-05
308.15	0.1201	0.003179	7.5e-05
308.15	0.15	0.004368	9.9e-05
313.15	0	0.000902	2.3e-05
313.15	0.0201	0.001059	2.7e-05
313.15	0.0401	0.001268	3.1e-05
313.15	0.06	0.001549	3.8e-05
313.15	0.0801	0.001879	4.5e-05
313.15	0.1	0.002296	5.4e-05
313.15	0.1201	0.002806	6.6e-05
313.15	0.15	0.003821	8.7e-05
318.15	0	0.000841	2.2e-05
318.15	0.0201	0.000992	2.5e-05
318.15	0.0401	0.001179	2.9e-05
318.15	0.06	0.001435	3.5e-05
318.15	0.0801	0.001719	4.1e-05
318.15	0.1	0.002073	4.9e-05
318.15	0.1201	0.002512	5.9e-05
318.15	0.15	0.003352	7.7e-05
323.15	0	0.000787	2.1e-05
323.15	0.0201	0.000909	2.4e-05
323.15	0.0401	0.001072	2.7e-05
323.15	0.06	0.001296	3.2e-05
323.15	0.0801	0.001541	3.7e-05
323.15	0.1	0.001842	4.4e-05
323.15	0.1201	0.002203	5.2e-05
323.15	0.15	0.002893	6.7e-05
328.15	0	0.000741	2e-05
328.15	0.0201	0.000845	2.2e-05
328.15	0.0401	0.000988	2.5e-05
328.15	0.06	0.001185	2.9e-05
328.15	0.0801	0.001395	3.4e-05
328.15	0.1	0.001657	4e-05
328.15	0.1201	0.00197	4.7e-05
328.15	0.15	0.002545	5.9e-05
333.15	0	0.000697	1.9e-05
333.15	0.0201	0.00079	2.1e-05
333.15	0.0401	0.000919	2.4e-05
333.15	0.06	0.001096	2.7e-05
333.15	0.0801	0.001279	3.1e-05
333.15	0.1	0.001515	3.7e-05
333.15	0.1201	0.001776	4.3e-05
333.15	0.15	0.002285	5.3e-05

System: acetic acid + 1,3,5,7-tetraazaadamantane; phases: Liquid
Fixed: Pressure, kPa = 101
Property: Mass density, kg/m3 (Liquid); method: VIBTUB:UFactor:32
Temperature, K	Mole fraction of 1,3,5,7-tetraazaadamantane	Mass density, kg/m3	uncertainty
293.15	0	1049.42	1.66
293.15	0.0201	1058.6	1.78
293.15	0.0401	1066.7	1.88
293.15	0.06	1075.67	2
293.15	0.0801	1085.77	2.12
293.15	0.1	1091.87	2.2
293.15	0.1201	1100.76	2.31
293.15	0.15	1111.19	2.44
298.15	0	1043.76	1.59
298.15	0.0201	1052.66	1.71
298.15	0.0401	1061.41	1.82
298.15	0.06	1070.38	1.93
298.15	0.0801	1080.66	2.06
298.15	0.1	1086.54	2.13
298.15	0.1201	1095.79	2.25
298.15	0.15	1106.18	2.38
303.15	0	1038.1	1.52
303.15	0.0201	1046.65	1.63
303.15	0.0401	1055.87	1.75
303.15	0.06	1065.17	1.86
303.15	0.0801	1075.44	1.99
303.15	0.1	1081.61	2.07
303.15	0.1201	1090.8	2.19
303.15	0.15	1101.14	2.32
308.15	0	1032.44	1.45
308.15	0.0201	1042.8	1.58
308.15	0.0401	1050.6	1.68
308.15	0.06	1059.92	1.8
308.15	0.0801	1068.93	1.91
308.15	0.1	1076.58	2.01
308.15	0.1201	1086.04	2.13
308.15	0.15	1096.34	2.26
313.15	0	1026.77	1.38
313.15	0.0201	1036.2	1.5
313.15	0.0401	1045.66	1.62
313.15	0.06	1055.02	1.74
313.15	0.0801	1063.52	1.84
313.15	0.1	1071.68	1.95
313.15	0.1201	1081.27	2.07
313.15	0.15	1091.63	2.2
318.15	0	1021.11	1.31
318.15	0.0201	1030.1	1.42
318.15	0.0401	1039.61	1.54
318.15	0.06	1049.52	1.67
318.15	0.0801	1057.74	1.77
318.15	0.1	1065.6	1.87
318.15	0.1201	1076.49	2.01
318.15	0.15	1086	2.13
323.15	0	1015.44	1.24
323.15	0.0201	1024.35	1.35
323.15	0.0401	1034.21	1.47
323.15	0.06	1044.05	1.6
323.15	0.0801	1052.4	1.7
323.15	0.1	1060.71	1.81
323.15	0.1201	1069.06	1.91
323.15	0.15	1080.9	2.06
328.15	0	1009.77	1.16
328.15	0.0201	1019.23	1.28
328.15	0.0401	1028.98	1.41
328.15	0.06	1039.22	1.54
328.15	0.0801	1047.33	1.64
328.15	0.1	1055.72	1.74
328.15	0.1201	1064	1.85
328.15	0.15	1075.88	2
333.15	0	1004.09	1.09
333.15	0.0201	1014.76	1.23
333.15	0.0401	1024.69	1.35
333.15	0.06	1034.16	1.47
333.15	0.0801	1043.04	1.58
333.15	0.1	1051.63	1.69
333.15	0.1201	1059.77	1.8
333.15	0.15	1071.94	1.95
