Measured thermophysical data. Solubility of Lovastatin in Ethyl Acetate, Propyl Acetate, Isopropyl Acetate, Butyl Acetate, sec-Butyl Acetate, Isobutyl Acetate, tert-Butyl Acetate, and 2-Butanone, between (285 and 313) K
Source: J. Chem. Eng. Data, 2008, 10.1021/je800120p
Compound 1: lovastatin, C24H36O5, InChI=1S/C24H36O5/c1-5-15(3)24(27)29-21-11-14(2)10-17-7-6-16(4)20(23(17)21)9-8-19-12-18(25)13-22(26)28-19/h6-7,10,14-16,18-21,23,25H,5,8-9,11-13H2,1-4H3/t14-,15-,16-,18+,19+,20-,21-,23-/m0/s1, purity 99.8%
Compound 2: methyl ethanoate, C3H6O2, InChI=1S/C3H6O2/c1-3(4)5-2/h1-2H3
Compound 3: ethyl acetate, C4H8O2, InChI=1S/C4H8O2/c1-3-6-4(2)5/h3H2,1-2H3
Compound 4: propyl ethanoate, C5H10O2, InChI=1S/C5H10O2/c1-3-4-7-5(2)6/h3-4H2,1-2H3
Compound 5: 1-methylethyl ethanoate, C5H10O2, InChI=1S/C5H10O2/c1-4(2)7-5(3)6/h4H,1-3H3
Compound 6: butyl ethanoate, C6H12O2, InChI=1S/C6H12O2/c1-3-4-5-8-6(2)7/h3-5H2,1-2H3
Compound 7: 2-methylpropyl ethanoate, C6H12O2, InChI=1S/C6H12O2/c1-5(2)4-8-6(3)7/h5H,4H2,1-3H3
Compound 8: 1-methylpropyl ethanoate, C6H12O2, InChI=1S/C6H12O2/c1-4-5(2)8-6(3)7/h5H,4H2,1-3H3
Compound 9: 1,1-dimethylethyl ethanoate, C6H12O2, InChI=1S/C6H12O2/c1-5(7)8-6(2,3)4/h1-4H3
Compound 10: acetone, C3H6O, InChI=1S/C3H6O/c1-3(2)4/h1-2H3
Compound 11: butanone, C4H8O, InChI=1S/C4H8O/c1-3-4(2)5/h3H2,1-2H3

System: methyl ethanoate + lovastatin; phases: Liquid, Crystal
Fixed: Pressure, kPa = 101
Property: Mole fraction of lovastatin (Liquid); method: Chromatography
Temperature, K	Mole fraction of lovastatin	uncertainty
285.1	0.00309	0.00037
288.3	0.0034	0.0004
291.2	0.00376	0.00044
294.6	0.00417	0.00049
297.2	0.00447	0.00053
300.3	0.00515	0.00061
303.1	0.00543	0.00064
306.3	0.00619	0.00073
309.4	0.00674	0.0008
312.2	0.00746	0.00088

System: ethyl acetate + lovastatin; phases: Liquid, Crystal
Fixed: Pressure, kPa = 101
Property: Mole fraction of lovastatin (Liquid); method: Chromatography
Temperature, K	Mole fraction of lovastatin	uncertainty
285.1	0.00417	0.00049
288.3	0.0047	0.00055
291.2	0.00517	0.00061
294.6	0.00586	0.00069
297.2	0.00656	0.00077
300.3	0.00706	0.00083
303.1	0.00778	0.00092
306.3	0.0087	0.00103
309.4	0.00967	0.00114
312.2	0.01078	0.00127

System: propyl ethanoate + lovastatin; phases: Liquid, Crystal
Fixed: Pressure, kPa = 101
Property: Mole fraction of lovastatin (Liquid); method: Chromatography
Temperature, K	Mole fraction of lovastatin	uncertainty
285.1	0.00395	0.00047
288.3	0.00438	0.00052
291.2	0.00481	0.00057
294.6	0.00544	0.00064
297.2	0.00587	0.00069
300.3	0.00658	0.00078
303.1	0.00724	0.00085
306.3	0.00803	0.00095
309.4	0.00901	0.00106
312.2	0.00997	0.00118

System: 1-methylethyl ethanoate + lovastatin; phases: Liquid, Crystal
Fixed: Pressure, kPa = 101
Property: Mole fraction of lovastatin (Liquid); method: Chromatography
Temperature, K	Mole fraction of lovastatin	uncertainty
285.1	0.00335	0.0004
288.3	0.00372	0.00044
291.2	0.00412	0.00049
294.6	0.00459	0.00054
297.2	0.00497	0.00059
300.3	0.00553	0.00065
303.1	0.00606	0.00071
306.3	0.00677	0.0008
309.4	0.00756	0.00089
312.2	0.00832	0.00098

System: butyl ethanoate + lovastatin; phases: Liquid, Crystal
Fixed: Pressure, kPa = 101
Property: Mole fraction of lovastatin (Liquid); method: Chromatography
Temperature, K	Mole fraction of lovastatin	uncertainty
285.1	0.00407	0.00048
288.3	0.00452	0.00053
291.2	0.00494	0.00058
294.6	0.00557	0.00066
297.2	0.00611	0.00072
300.3	0.00679	0.0008
303.1	0.00748	0.00088
306.3	0.00836	0.00099
309.4	0.00931	0.0011
312.2	0.01032	0.00122

System: 2-methylpropyl ethanoate + lovastatin; phases: Liquid, Crystal
Fixed: Pressure, kPa = 101
Property: Mole fraction of lovastatin (Liquid); method: Chromatography
Temperature, K	Mole fraction of lovastatin	uncertainty
285.1	0.00345	0.00041
288.3	0.00383	0.00045
291.2	0.00422	0.0005
294.6	0.0047	0.00055
297.2	0.00504	0.00059
300.3	0.0057	0.00067
303.1	0.00627	0.00074
306.3	0.00702	0.00083
309.4	0.00777	0.00092
312.2	0.00864	0.00102

System: 1-methylpropyl ethanoate + lovastatin; phases: Liquid, Crystal
Fixed: Pressure, kPa = 101
Property: Mole fraction of lovastatin (Liquid); method: Chromatography
Temperature, K	Mole fraction of lovastatin	uncertainty
285.1	0.00365	0.00043
288.3	0.00401	0.00047
291.2	0.00446	0.00053
294.6	0.005	0.00059
297.2	0.00545	0.00064
300.3	0.00606	0.00071
303.1	0.00666	0.00079
306.3	0.00745	0.00088
309.4	0.0083	0.00098
312.2	0.00915	0.00108

System: 1,1-dimethylethyl ethanoate + lovastatin; phases: Liquid, Crystal
Fixed: Pressure, kPa = 101
Property: Mole fraction of lovastatin (Liquid); method: Chromatography
Temperature, K	Mole fraction of lovastatin	uncertainty
285.1	0.00275	0.00032
288.3	0.00314	0.00037
291.2	0.00346	0.00041
294.6	0.00386	0.00046
297.2	0.0042	0.0005
300.3	0.00479	0.00056
303.1	0.0051	0.0006
306.3	0.00569	0.00067
309.4	0.00638	0.00075
312.2	0.00693	0.00082

System: acetone + lovastatin; phases: Liquid, Crystal
Fixed: Pressure, kPa = 101
Property: Mole fraction of lovastatin (Liquid); method: Chromatography
Temperature, K	Mole fraction of lovastatin	uncertainty
285.1	0.00831	0.00099
288.3	0.00936	0.00111
291.2	0.01043	0.00124
294.6	0.01184	0.0014
297.2	0.01304	0.00155
300.3	0.01464	0.00174
303.1	0.01626	0.00193
306.3	0.01832	0.00217
309.4	0.02056	0.00244
312.2	0.02283	0.00271

System: butanone + lovastatin; phases: Liquid, Crystal
Fixed: Pressure, kPa = 101
Property: Mole fraction of lovastatin (Liquid); method: Chromatography
Temperature, K	Mole fraction of lovastatin	uncertainty
285.1	0.00752	0.00089
288.3	0.00878	0.00104
291.2	0.00918	0.00109
294.6	0.01105	0.00131
297.2	0.01151	0.00136
300.3	0.01324	0.00157
303.1	0.0147	0.00174
306.3	0.01751	0.00207
309.4	0.01972	0.00233
312.2	0.02186	0.00259
