Measured thermophysical data. Measurement and Correlation of Liquid-Liquid Equilibrium Data for Water + Acetic Acid + Methyl tert-Butyl Ether + NaCl
Source: J. Chem. Eng. Data, 2009, 10.1021/je800724g
Compound 1: water, H2O, InChI=1S/H2O/h1H2
Compound 2: acetic acid, C2H4O2, InChI=1S/C2H4O2/c1-2(3)4/h1H3,(H,3,4), purity 99.5%
Compound 3: 2-methoxy-2-methylpropane, C5H12O, InChI=1S/C5H12O/c1-5(2,3)6-4/h1-4H3, purity 99.9%

System: acetic acid + 2-methoxy-2-methylpropane + water; phases: Liquid mixture 2, Liquid mixture 1
Fixed: Pressure, kPa = 101
Fixed: Temperature, K = 298.15
Property: Mass fraction of acetic acid (Liquid mixture 2); method: Chromatography
Property: Mass fraction of acetic acid (Liquid mixture 1); method: Chromatography
Property: Mass fraction of water (Liquid mixture 1); method: Chromatography
Mass fraction of water	Mass fraction of acetic acid	uncertainty	Mass fraction of acetic acid	uncertainty	Mass fraction of water	uncertainty
0.9548	0	0.0001	0	0.0001	0.0116	
0.9062	0.0476	0.0136	0.0464	0.0416	0.0259	
0.8384	0.1071	0.0135	0.1122	0.029	0.0393	
0.7899	0.1525	0.0129	0.1793	0.0235	0.0721	
0.695	0.2251	0.0124	0.2554	0.0159	0.1068	
0.6253	0.2686	0.0116	0.2937	0.0117	0.162	
0.5302	0.3175	0.0108	0.33	0.0107	0.2357	
0.4505	0.3248	0.0103	0.3343	0.0103	0.3065	
0.4247	0.3281	0.0103	0.3372	0.0103	0.3341	
