Measured thermophysical data. Mutual and Intradiffusion Coefficients for the Binary System n-Decyl Dimethyl Phosphine Oxide + Water at 25 deg C
Source: J. Chem. Eng. Data, 2008, 10.1021/je800085u
Compound 1: decyldimethylphosphine oxide, C12H27OP, InChI=1S/C12H27OP/c1-4-5-6-7-8-9-10-11-12-14(2,3)13/h4-12H2,1-3H3
Compound 2: water, H2O, InChI=1S/H2O/h1H2

System: decyldimethylphosphine oxide + water; phases: Liquid
Fixed: Pressure, kPa = 101
Fixed: Temperature, K = 298.15
Property: Binary diffusion coefficient, m2/s (Liquid); method: Taylor dispersion method
Molality, mol/kg of decyldimethylphosphine oxide	Binary diffusion coefficient, m2/s	uncertainty
0	5.9e-08	2.5
0.002	5.8e-08	2.5
0.003	5.28e-08	2.2
0.004	2.07e-08	0.9
0.0077	1.75e-08	0.7
0.0111	1.56e-08	0.7
0.0176	1.69e-08	0.7
0.0215	1.63e-08	0.7
0.0296	1.55e-08	0.7
0.04	1.58e-08	0.7

System: decyldimethylphosphine oxide + water; phases: Liquid
Fixed: Temperature, K = 298.15
Fixed: Pressure, kPa = 101
Property: Tracer diffusion coefficient, m2/s of decyldimethylphosphine oxide (Liquid); method: spin-echo
Molality, mol/kg of decyldimethylphosphine oxide	Tracer diffusion coefficient, m2/s of decyldimethylphosphine oxide	uncertainty
0.0012	58.1	3.5
0.0022	57.6	3.5
0.003	56.8	3.4
0.004	47.2	2.8
0.006	37.1	2.2
0.008	32.6	2
0.01	25.9	1.6
0.015	23.8	1.4
0.02	19.4	1.2
0.025	17.7	1.1
0.03	16.5	1
0.035	16.6	1
0.04	14.2	0.9
0.05	12.2	0.7
0.06	12.9	0.8

System: decyldimethylphosphine oxide + water; phases: Liquid
Fixed: Temperature, K = 298.15
Fixed: Pressure, kPa = 101
Property: Tracer diffusion coefficient, m2/s of water (Liquid); method: spin-echo
Molality, mol/kg of decyldimethylphosphine oxide	Tracer diffusion coefficient, m2/s of water	uncertainty
0.0012	229.5	13.8
0.0022	229	13.7
0.003	229	13.7
0.004	229	13.7
0.006	228.5	13.7
0.008	228.5	13.7
0.01	228.5	13.7
0.015	228.5	13.7
0.02	228	13.7
0.025	228	13.7
0.03	227.5	13.7
0.035	227.5	13.7
0.04	227	13.6
0.05	226.5	13.6
0.06	226	13.6
