Measured thermophysical data. Ion Pair Formation of Alkylimidazolium Ionic Liquids in Dichloromethane
Source: J. Chem. Eng. Data, 2008, 10.1021/je800152d
Compound 1: 1-butyl-3-methylimidazolium tetrafluoroborate, C8H15BF4N2, InChI=1S/C8H15N2.BF4/c1-3-4-5-10-7-6-9(2)8-10;2-1(3,4)5/h6-8H,3-5H2,1-2H3;/q+1;-1
Compound 2: 1-butyl-3-methylimidazolium hexafluorophosphate, C8H15F6N2P, InChI=1S/C8H15N2.F6P/c1-3-4-5-10-7-6-9(2)8-10;1-7(2,3,4,5)6/h6-8H,3-5H2,1-2H3;/q+1;-1
Compound 3: 1-hexyl-3-methylimidazolium bis[(trifluoromethyl)sulfonyl]imide, C12H19F6N3O4S2, InChI=1S/C10H19N2.C2F6NO4S2/c1-3-4-5-6-7-12-9-8-11(2)10-12;3-1(4,5)14(10,11)9-15(12,13)2(6,7)8/h8-10H,3-7H2,1-2H3;/q+1;-1
Compound 4: 1-octyl-3-methylimidazolium bis[(trifluoromethyl)sulfonyl]imide, C14H23F6N3O4S2, InChI=1S/C12H23N2.C2F6NO4S2/c1-3-4-5-6-7-8-9-14-11-10-13(2)12-14;3-1(4,5)14(10,11)9-15(12,13)2(6,7)8/h10-12H,3-9H2,1-2H3;/q+1;-1
Compound 5: 1-butyl-3-methylimidazolium bis(trifluoromethylsulfonyl)imide, C10H15F6N3O4S2, InChI=1S/C8H15N2.C2F6NO4S2/c1-3-4-5-10-7-6-9(2)8-10;3-1(4,5)14(10,11)9-15(12,13)2(6,7)8/h6-8H,3-5H2,1-2H3;/q+1;-1
Compound 6: 1-hexyl-3-methylimidazolium tetrafluoroborate, C10H19BF4N2, InChI=1S/C10H19N2.BF4/c1-3-4-5-6-7-12-9-8-11(2)10-12;2-1(3,4)5/h8-10H,3-7H2,1-2H3;/q+1;-1
Compound 7: 1-hexyl-3-methylimidazolium hexafluorophosphate, C10H19F6N2P, InChI=1S/C10H19N2.F6P/c1-3-4-5-6-7-12-9-8-11(2)10-12;1-7(2,3,4,5)6/h8-10H,3-7H2,1-2H3;/q+1;-1
Compound 8: 1-methyl-3-octylimidazolium tetrafluoroborate, C12H23BF4N2, InChI=1S/C12H23N2.BF4/c1-3-4-5-6-7-8-9-14-11-10-13(2)12-14;2-1(3,4)5/h10-12H,3-9H2,1-2H3;/q+1;-1
Compound 9: 1-octyl-3-methylimidazolium hexafluorophosphate, C12H23F6N2P, InChI=1S/C12H23N2.F6P/c1-3-4-5-6-7-8-9-14-11-10-13(2)12-14;1-7(2,3,4,5)6/h10-12H,3-9H2,1-2H3;/q+1;-1
Compound 10: 1-butyl-2,3-dimethylimidazolium tetrafluoroborate, C9H17BF4N2, InChI=1S/C9H17N2.BF4/c1-4-5-6-11-8-7-10(3)9(11)2;2-1(3,4)5/h7-8H,4-6H2,1-3H3;/q+1;-1
Compound 11: 1-butyl-2,3-dimethylimidazolium hexafluorophosphate, C9H17F6N2P, InChI=1S/C9H17N2.F6P/c1-4-5-6-11-8-7-10(3)9(11)2;1-7(2,3,4,5)6/h7-8H,4-6H2,1-3H3;/q+1;-1
Compound 12: dichloromethane, CH2Cl2, InChI=1S/CH2Cl2/c2-1-3/h1H2
Compound 13: tetraethylammonium tetrafluoroborate, C8H20BF4N, InChI=1S/C8H20N.BF4/c1-5-9(6-2,7-3)8-4;2-1(3,4)5/h5-8H2,1-4H3;/q+1;-1
Compound 14: tetraethylammonium hexafluorophosphate, C8H20F6NP, InChI=1S/C8H20N.F6P/c1-5-9(6-2,7-3)8-4;1-7(2,3,4,5)6/h5-8H2,1-4H3;/q+1;-1
Compound 15: tetraethylammonium bis[(trifluoromethyl)sulfonyl]imide, C10H20F6N2O4S2, InChI=1S/C8H20N.C2F6NO4S2/c1-5-9(6-2,7-3)8-4;3-1(4,5)14(10,11)9-15(12,13)2(6,7)8/h5-8H2,1-4H3;/q+1;-1
Compound 16: tetramethylammonium bis[(trifluoromethyl)sulfonyl]imide, C6H12F6N2O4S2, InChI=1S/C4H12N.C2F6NO4S2/c1-5(2,3)4;3-1(4,5)14(10,11)9-15(12,13)2(6,7)8/h1-4H3;/q+1;-1
Compound 17: tetrapropylammonium bis[(trifluoromethyl)sulfonyl]imide, C14H28F6N2O4S2, InChI=1S/C12H28N.C2F6NO4S2/c1-5-9-13(10-6-2,11-7-3)12-8-4;3-1(4,5)14(10,11)9-15(12,13)2(6,7)8/h5-12H2,1-4H3;/q+1;-1
Compound 18: tetrabutylammonium bis[(trifluoromethyl)sulfonyl]imide, C18H36F6N2O4S2, InChI=1S/C16H36N.C2F6NO4S2/c1-5-9-13-17(14-10-6-2,15-11-7-3)16-12-8-4;3-1(4,5)14(10,11)9-15(12,13)2(6,7)8/h5-16H2,1-4H3;/q+1;-1
Compound 19: 1-butyl-2,3-dimethyl-1H-imidazolium bis(trifluoromethylsulfonyl)amide, C11H17F6N3O4S2, InChI=1S/C9H17N2.C2F6NO4S2/c1-4-5-6-11-8-7-10(3)9(11)2;3-1(4,5)14(10,11)9-15(12,13)2(6,7)8/h7-8H,4-6H2,1-3H3;/q+1;-1
Compound 20: 1-butyl-2,3-dimethylimidazolium picrate, C15H19N5O7, InChI=1S/C9H17N2.C6H3N3O7/c1-4-5-6-11-8-7-10(3)9(11)2;10-6-4(8(13)14)1-3(7(11)12)2-5(6)9(15)16/h7-8H,4-6H2,1-3H3;1-2,10H/q+1;/p-1
Compound 21: 1-butyl-3-methylimidazolium picrate, C14H17N5O7, InChI=1S/C8H15N2.C6H3N3O7/c1-3-4-5-10-7-6-9(2)8-10;10-6-4(8(13)14)1-3(7(11)12)2-5(6)9(15)16/h6-8H,3-5H2,1-2H3;1-2,10H/q+1;/p-1
Compound 22: 1-hexyl-3-methylimidazolium picrate, C16H21N5O7, InChI=1S/C10H19N2.C6H3N3O7/c1-3-4-5-6-7-12-9-8-11(2)10-12;10-6-4(8(13)14)1-3(7(11)12)2-5(6)9(15)16/h8-10H,3-7H2,1-2H3;1-2,10H/q+1;/p-1
Compound 23: 1-octyl-3-methylimidazolium picrate, C18H25N5O7, InChI=1S/C12H23N2.C6H3N3O7/c1-3-4-5-6-7-8-9-14-11-10-13(2)12-14;10-6-4(8(13)14)1-3(7(11)12)2-5(6)9(15)16/h10-12H,3-9H2,1-2H3;1-2,10H/q+1;/p-1

System: dichloromethane + 1-butyl-3-methylimidazolium tetrafluoroborate; phases: Liquid
Fixed: Pressure, kPa = 101
Fixed: Temperature, K = 298.15
Property: Molar conductivity, S*m2/mol (Liquid); method: Direct current cell with electrodes
Amount concentration (molarity), mol/dm3 of 1-butyl-3-methylimidazolium tetrafluoroborate	Molar conductivity, S*m2/mol	uncertainty
4.455e-05	0.0037008	1.48e-05
0.00013041	0.002353	9.4e-06
0.00020718	0.0019267	7.7e-06
0.00028051	0.0016892	6.8e-06
0.00035916	0.0015197	6.1e-06
0.00042625	0.001412	5.7e-06
0.00051827	0.0012988	5.2e-06
0.00062499	0.0012	4.8e-06
0.00072682	0.0011267	4.5e-06
0.00084577	0.0010584	4.2e-06

System: dichloromethane + 1-butyl-3-methylimidazolium hexafluorophosphate; phases: Liquid
Fixed: Pressure, kPa = 101
Fixed: Temperature, K = 298.15
Property: Molar conductivity, S*m2/mol (Liquid); method: Direct current cell with electrodes
Amount concentration (molarity), mol/dm3 of 1-butyl-3-methylimidazolium hexafluorophosphate	Molar conductivity, S*m2/mol	uncertainty
6.999e-05	0.0038069	1.52e-05
0.00013293	0.0029484	1.18e-05
0.00017431	0.0026366	1.06e-05
0.00021329	0.0024249	9.7e-06
0.00025432	0.0022591	9e-06
0.00031233	0.0020733	8.3e-06
0.00036651	0.0019409	7.8e-06
0.00043789	0.0018037	7.2e-06
0.00054474	0.001647	6.6e-06
0.00063927	0.0015412	6.2e-06

System: dichloromethane + 1-butyl-3-methylimidazolium bis(trifluoromethylsulfonyl)imide; phases: Liquid
Fixed: Pressure, kPa = 101
Fixed: Temperature, K = 298.15
Property: Molar conductivity, S*m2/mol (Liquid); method: Direct current cell with electrodes
Amount concentration (molarity), mol/dm3 of 1-butyl-3-methylimidazolium bis(trifluoromethylsulfonyl)imide	Molar conductivity, S*m2/mol	uncertainty
3.993e-05	0.0050313	2.01e-05
7.416e-05	0.0039997	1.6e-05
0.00010938	0.0034398	1.38e-05
0.00014393	0.0030851	1.24e-05
0.00018193	0.0028067	1.12e-05
0.00020957	0.0026512	1.06e-05
0.00023775	0.0025192	1.01e-05
0.00026859	0.0023942	9.6e-06
0.000298	0.0022963	9.2e-06
0.00032728	0.0022113	8.9e-06

System: dichloromethane + 1-butyl-2,3-dimethylimidazolium picrate; phases: Liquid
Fixed: Pressure, kPa = 101
Fixed: Temperature, K = 298.15
Property: Molar conductivity, S*m2/mol (Liquid); method: Direct current cell with electrodes
Amount concentration (molarity), mol/dm3 of 1-butyl-2,3-dimethylimidazolium picrate	Molar conductivity, S*m2/mol	uncertainty
3.305e-05	0.0075484	3.02e-05
7.029e-05	0.006484	2.59e-05
0.00010588	0.0057991	2.32e-05
0.00014275	0.005322	2.13e-05
0.00018053	0.0049512	1.98e-05
0.00021577	0.0046782	1.87e-05
0.00026213	0.0043887	1.76e-05
0.00031487	0.004129	1.65e-05
0.00036269	0.0039363	1.58e-05
0.00041282	0.0037663	1.51e-05

System: dichloromethane + 1-hexyl-3-methylimidazolium tetrafluoroborate; phases: Liquid
Fixed: Pressure, kPa = 101
Fixed: Temperature, K = 298.15
Property: Molar conductivity, S*m2/mol (Liquid); method: Direct current cell with electrodes
Amount concentration (molarity), mol/dm3 of 1-hexyl-3-methylimidazolium tetrafluoroborate	Molar conductivity, S*m2/mol	uncertainty
5.56e-05	0.0031764	1.27e-05
0.000168	0.0019931	8e-06
0.000301	0.0015507	6.2e-06
0.00044161	0.001315	5.3e-06
0.00052883	0.0012177	4.9e-06
0.00066266	0.0011069	4.4e-06
0.00075659	0.0010476	4.2e-06
0.00091892	0.0009669	3.9e-06
0.0010935	0.0009009	3.9e-06
0.0012434	0.000856	3.6e-06

System: dichloromethane + 1-hexyl-3-methylimidazolium hexafluorophosphate; phases: Liquid
Fixed: Pressure, kPa = 101
Fixed: Temperature, K = 298.15
Property: Molar conductivity, S*m2/mol (Liquid); method: Direct current cell with electrodes
Amount concentration (molarity), mol/dm3 of 1-hexyl-3-methylimidazolium hexafluorophosphate	Molar conductivity, S*m2/mol	uncertainty
2.071e-05	0.0057488	2.3e-05
5.447e-05	0.0040579	1.63e-05
8.254e-05	0.0034479	1.38e-05
0.0001144	0.0030249	1.21e-05
0.00015503	0.0026726	1.07e-05
0.00020893	0.0023626	9.5e-06
0.00026266	0.0021482	8.6e-06
0.00031226	0.001996	8e-06
0.00039028	0.0018214	7.3e-06
0.00045508	0.0017096	6.8e-06

System: dichloromethane + 1-hexyl-3-methylimidazolium bis[(trifluoromethyl)sulfonyl]imide; phases: Liquid
Fixed: Pressure, kPa = 101
Fixed: Temperature, K = 298.15
Property: Molar conductivity, S*m2/mol (Liquid); method: Direct current cell with electrodes
Amount concentration (molarity), mol/dm3 of 1-hexyl-3-methylimidazolium bis[(trifluoromethyl)sulfonyl]imide	Molar conductivity, S*m2/mol	uncertainty
3.872e-05	0.0048263	1.93e-05
7.796e-05	0.0037269	1.49e-05
0.00011336	0.0032242	1.29e-05
0.0001471	0.0029067	1.16e-05
0.00018115	0.0026741	1.07e-05
0.00021203	0.0025096	1e-05
0.0002454	0.0023655	9.5e-06
0.00027457	0.0022606	9e-06
0.00030458	0.0021687	8.7e-06
0.0003313	0.0020971	8.4e-06

System: dichloromethane + 1-hexyl-3-methylimidazolium picrate; phases: Liquid
Fixed: Pressure, kPa = 101
Fixed: Temperature, K = 298.15
Property: Molar conductivity, S*m2/mol (Liquid); method: Direct current cell with electrodes
Amount concentration (molarity), mol/dm3 of 1-hexyl-3-methylimidazolium picrate	Molar conductivity, S*m2/mol	uncertainty
4.125e-05	0.0030802	1.23e-05
8.131e-05	0.0023749	9.5e-06
0.00012123	0.0020183	8.1e-06
0.00015753	0.0018091	7.2e-06
0.00019103	0.0016685	6.7e-06
0.00022895	0.0015458	6.2e-06
0.00026426	0.0014546	5.8e-06
0.00031633	0.0013473	5.4e-06
0.00036675	0.0012653	5.1e-06
0.00041092	0.0012055	4.8e-06

System: dichloromethane + 1-methyl-3-octylimidazolium tetrafluoroborate; phases: Liquid
Fixed: Pressure, kPa = 101
Fixed: Temperature, K = 298.15
Property: Molar conductivity, S*m2/mol (Liquid); method: Direct current cell with electrodes
Amount concentration (molarity), mol/dm3 of 1-methyl-3-octylimidazolium tetrafluoroborate	Molar conductivity, S*m2/mol	uncertainty
7.212e-05	0.0027808	1.11e-05
0.00012989	0.0021709	8.7e-06
0.00021903	0.0017353	6.9e-06
0.0002957	0.0015238	6.1e-06
0.0003827	0.0013636	5.5e-06
0.00046652	0.0012528	5e-06
0.00057195	0.0011487	4.6e-06
0.00069006	0.0010611	4.2e-06
0.00082228	0.000986	3.9e-06
0.00095843	0.0009257	3.7e-06

System: dichloromethane + 1-octyl-3-methylimidazolium hexafluorophosphate; phases: Liquid
Fixed: Pressure, kPa = 101
Fixed: Temperature, K = 298.15
Property: Molar conductivity, S*m2/mol (Liquid); method: Direct current cell with electrodes
Amount concentration (molarity), mol/dm3 of 1-octyl-3-methylimidazolium hexafluorophosphate	Molar conductivity, S*m2/mol	uncertainty
2.186e-05	0.0053491	2.14e-05
5.202e-05	0.0039252	1.57e-05
8.128e-05	0.0032979	1.32e-05
0.00013119	0.0027173	1.09e-05
0.00017405	0.0024197	9.7e-06
0.00022796	0.0021638	8.7e-06
0.00028467	0.0019728	7.9e-06
0.00035001	0.0018103	7.2e-06
0.00041116	0.0016931	6.8e-06
0.00046799	0.0016051	6.4e-06

System: dichloromethane + 1-octyl-3-methylimidazolium bis[(trifluoromethyl)sulfonyl]imide; phases: Liquid
Fixed: Pressure, kPa = 101
Fixed: Temperature, K = 298.15
Property: Molar conductivity, S*m2/mol (Liquid); method: Direct current cell with electrodes
Amount concentration (molarity), mol/dm3 of 1-octyl-3-methylimidazolium bis[(trifluoromethyl)sulfonyl]imide	Molar conductivity, S*m2/mol	uncertainty
1.807e-05	0.0059189	2.37e-05
4.306e-05	0.0044258	1.77e-05
7.895e-05	0.0035358	1.42e-05
0.00011555	0.0030476	1.22e-05
0.0001516	0.0027377	1.1e-05
0.00019339	0.0024823	9.9e-06
0.00023608	0.0022912	9.2e-06
0.00027578	0.0021529	8.6e-06
0.00032203	0.0020217	8.1e-06
0.00036896	0.001913	7.7e-06

System: dichloromethane + 1-octyl-3-methylimidazolium picrate; phases: Liquid
Fixed: Pressure, kPa = 101
Fixed: Temperature, K = 298.15
Property: Molar conductivity, S*m2/mol (Liquid); method: Direct current cell with electrodes
Amount concentration (molarity), mol/dm3 of 1-octyl-3-methylimidazolium picrate	Molar conductivity, S*m2/mol	uncertainty
3.786e-05	0.0032891	1.32e-05
8.574e-05	0.0024069	9.6e-06
0.00013044	0.0020247	8.1e-06
0.00017225	0.0018028	7.2e-06
0.00021318	0.0016466	6.6e-06
0.00026849	0.0014927	6e-06
0.00032049	0.0013839	5.5e-06
0.00036926	0.0013027	5.2e-06
0.00041906	0.0012298	4.9e-06
0.0004727	0.0011686	4.7e-06

System: dichloromethane + 1-butyl-2,3-dimethylimidazolium tetrafluoroborate; phases: Liquid
Fixed: Pressure, kPa = 101
Fixed: Temperature, K = 298.15
Property: Molar conductivity, S*m2/mol (Liquid); method: Direct current cell with electrodes
Amount concentration (molarity), mol/dm3 of 1-butyl-2,3-dimethylimidazolium tetrafluoroborate	Molar conductivity, S*m2/mol	uncertainty
4.614e-05	0.0060487	2.42e-05
9.614e-05	0.0047002	1.88e-05
0.00015517	0.0039417	1.58e-05
0.00021855	0.0034586	1.38e-05
0.00027631	0.0031607	1.27e-05
0.0003472	0.0028911	1.16e-05
0.00041961	0.0026841	1.07e-05
0.0005021	0.0025025	1e-05
0.00059847	0.0023364	9.4e-06
0.00068272	0.0022201	8.9e-06

System: dichloromethane + 1-butyl-2,3-dimethylimidazolium hexafluorophosphate; phases: Liquid
Fixed: Pressure, kPa = 101
Fixed: Temperature, K = 298.15
Property: Molar conductivity, S*m2/mol (Liquid); method: Direct current cell with electrodes
Amount concentration (molarity), mol/dm3 of 1-butyl-2,3-dimethylimidazolium hexafluorophosphate	Molar conductivity, S*m2/mol	uncertainty
4.824e-05	0.0068154	2.73e-05
9.247e-05	0.0055296	2.21e-05
0.00016939	0.0044681	1.79e-05
0.0002351	0.0039658	1.59e-05
0.00031472	0.0035568	1.42e-05
0.00039844	0.0032544	1.3e-05
0.00048256	0.0030282	1.21e-05
0.00058638	0.0028095	1.12e-05
0.00070387	0.0026233	1.05e-05
0.00080919	0.0024813	9.9e-06

System: dichloromethane + 1-butyl-2,3-dimethyl-1H-imidazolium bis(trifluoromethylsulfonyl)amide; phases: Liquid
Fixed: Pressure, kPa = 101
Fixed: Temperature, K = 298.15
Property: Molar conductivity, S*m2/mol (Liquid); method: Direct current cell with electrodes
Amount concentration (molarity), mol/dm3 of 1-butyl-2,3-dimethyl-1H-imidazolium bis(trifluoromethylsulfonyl)amide	Molar conductivity, S*m2/mol	uncertainty
1.989e-05	0.0088337	3.53e-05
6.027e-05	0.0066836	2.68e-05
9.148e-05	0.005885	2.36e-05
0.00012396	0.0053357	2.14e-05
0.00015639	0.0049349	1.98e-05
0.00018882	0.0046276	1.85e-05
0.00023657	0.004278	1.71e-05
0.00028594	0.004001	1.6e-05
0.0003299	0.0038017	1.52e-05
0.0003742	0.0036342	1.45e-05

System: dichloromethane + 1-butyl-3-methylimidazolium picrate; phases: Liquid
Fixed: Pressure, kPa = 101
Fixed: Temperature, K = 298.15
Property: Molar conductivity, S*m2/mol (Liquid); method: Direct current cell with electrodes
Amount concentration (molarity), mol/dm3 of 1-butyl-3-methylimidazolium picrate	Molar conductivity, S*m2/mol	uncertainty
4.17e-05	0.0035231	1.41e-05
8.709e-05	0.0026534	1.06e-05
0.00012266	0.0023134	9.3e-06
0.00016401	0.0020499	8.2e-06
0.00020311	0.0018761	7.5e-06
0.00024317	0.0017386	7e-06
0.00029128	0.0016122	6.5e-06
0.00035452	0.0014807	5.9e-06
0.00040737	0.0013962	5.6e-06

System: dichloromethane + tetraethylammonium tetrafluoroborate; phases: Liquid
Fixed: Pressure, kPa = 101
Fixed: Temperature, K = 298.15
Property: Molar conductivity, S*m2/mol (Liquid); method: Direct current cell with electrodes
Amount concentration (molarity), mol/dm3 of tetraethylammonium tetrafluoroborate	Molar conductivity, S*m2/mol	uncertainty
5.65e-05	0.0060936	2.44e-05
0.00012503	0.0046455	1.86e-05
0.00020546	0.0038877	1.56e-05
0.00028191	0.0034591	1.38e-05
0.00037659	0.0031009	1.24e-05
0.00047133	0.0028473	1.14e-05
0.00057362	0.0026426	1.06e-05
0.00069912	0.0024502	9.8e-06
0.00079808	0.0023301	9.3e-06
0.00089752	0.0022271	8.9e-06

System: dichloromethane + tetraethylammonium hexafluorophosphate; phases: Liquid
Fixed: Pressure, kPa = 101
Fixed: Temperature, K = 298.15
Property: Molar conductivity, S*m2/mol (Liquid); method: Direct current cell with electrodes
Amount concentration (molarity), mol/dm3 of tetraethylammonium hexafluorophosphate	Molar conductivity, S*m2/mol	uncertainty
2.991e-05	0.0086811	3.47e-05
7.038e-05	0.0067796	2.71e-05
0.00012886	0.0055422	2.22e-05
0.00018123	0.0049107	1.97e-05
0.0002384	0.0044476	1.78e-05
0.00029935	0.0040898	1.64e-05
0.00036688	0.0037942	1.52e-05
0.00042305	0.0035995	1.44e-05
0.00050803	0.0033653	1.35e-05
0.00060567	0.003153	1.26e-05

System: dichloromethane + tetraethylammonium bis[(trifluoromethyl)sulfonyl]imide; phases: Liquid
Fixed: Pressure, kPa = 101
Fixed: Temperature, K = 298.15
Property: Molar conductivity, S*m2/mol (Liquid); method: Direct current cell with electrodes
Amount concentration (molarity), mol/dm3 of tetraethylammonium bis[(trifluoromethyl)sulfonyl]imide	Molar conductivity, S*m2/mol	uncertainty
2.423e-05	0.0091048	3.64e-05
5.571e-05	0.0074267	2.97e-05
9.604e-05	0.0063109	2.53e-05
0.00014846	0.0054309	2.17e-05
0.00018893	0.005043	2.02e-05
0.00024188	0.0046288	1.85e-05
0.00028766	0.0043389	1.74e-05
0.00040282	0.0038822	1.55e-05
0.00046318	0.0037156	1.49e-05

System: dichloromethane + tetramethylammonium bis[(trifluoromethyl)sulfonyl]imide; phases: Liquid
Fixed: Pressure, kPa = 101
Fixed: Temperature, K = 298.15
Property: Molar conductivity, S*m2/mol (Liquid); method: Direct current cell with electrodes
Amount concentration (molarity), mol/dm3 of tetramethylammonium bis[(trifluoromethyl)sulfonyl]imide	Molar conductivity, S*m2/mol	uncertainty
1.807e-05	0.0069036	2.76e-05
4.669e-05	0.005019	2.01e-05
8.293e-05	0.0040433	1.62e-05
0.00012252	0.0034647	1.39e-05
0.00016693	0.0030574	1.22e-05
0.00020899	0.0027915	1.12e-05
0.00026765	0.0025214	1.01e-05
0.00033294	0.0023053	9.2e-06
0.00040617	0.0021233	8.5e-06
0.00049623	0.0019571	7.8e-06

System: dichloromethane + tetrapropylammonium bis[(trifluoromethyl)sulfonyl]imide; phases: Liquid
Fixed: Pressure, kPa = 101
Fixed: Temperature, K = 298.15
Property: Molar conductivity, S*m2/mol (Liquid); method: Direct current cell with electrodes
Amount concentration (molarity), mol/dm3 of tetrapropylammonium bis[(trifluoromethyl)sulfonyl]imide	Molar conductivity, S*m2/mol	uncertainty
2.208e-05	0.0085421	3.42e-05
4.726e-05	0.0074771	2.99e-05
8.42e-05	0.0064755	2.59e-05
0.00011828	0.0058623	2.35e-05
0.0001551	0.0054147	2.17e-05
0.0002027	0.0049804	1.99e-05
0.00024095	0.0047131	1.89e-05
0.0002936	0.0044138	1.77e-05
0.00035241	0.0041436	1.66e-05
0.00040385	0.0039706	1.59e-05

System: dichloromethane + tetrabutylammonium bis[(trifluoromethyl)sulfonyl]imide; phases: Liquid
Fixed: Pressure, kPa = 101
Fixed: Temperature, K = 298.15
Property: Molar conductivity, S*m2/mol (Liquid); method: Direct current cell with electrodes
Amount concentration (molarity), mol/dm3 of tetrabutylammonium bis[(trifluoromethyl)sulfonyl]imide	Molar conductivity, S*m2/mol	uncertainty
3.138e-05	0.0078923	3.16e-05
6.11e-05	0.006903	2.76e-05
0.00013735	0.0056028	2.24e-05
0.00017247	0.00525	2.1e-05
0.0002161	0.0048902	1.96e-05
0.00026319	0.0046034	1.84e-05
0.00031611	0.0043421	1.74e-05
0.00036719	0.0041333	1.65e-05
0.00041413	0.0039878	1.6e-05
