Measured thermophysical data. Densities and Viscosities of 1-Propyl-2,3-dimethylimidazolium Tetrafluoroborate + H2O at T ) (298.15 to 343.15) K
Source: J. Chem. Eng. Data, 2009, 10.1021/je800965t
Compound 1: water, H2O, InChI=1S/H2O/h1H2
Compound 2: 1,2-dimethyl-3-propylimidazolium tetrafluoroborate, C8H15BF4N2, InChI=1S/C8H15N2.BF4/c1-4-5-10-7-6-9(3)8(10)2;2-1(3,4)5/h6-7H,4-5H2,1-3H3;/q+1;-1

System: 1,2-dimethyl-3-propylimidazolium tetrafluoroborate; phases: Liquid
Fixed: Pressure, kPa = 101
Property: Viscosity, Pa*s (Liquid); method: CAPTUB::UFactor:4
Temperature, K	Viscosity, Pa*s	uncertainty
298.15	0.37728	0.05178
303.15	0.2719	0.03143
308.15	0.20199	0.01934
313.15	0.1522	0.0117
318.15	0.11744	0.00699
323.15	0.09229	0.0041
333.15	0.06045	0.00153
343.15	0.04074	0.00111

System: 1,2-dimethyl-3-propylimidazolium tetrafluoroborate; phases: Liquid
Fixed: Pressure, kPa = 101
Property: Mass density, kg/m3 (Liquid); method: Pycnometric method
Temperature, K	Mass density, kg/m3	uncertainty
298.15	1225.1	12.3
303.15	1221.8	12.2
308.15	1218.8	12.2
313.15	1217.4	12.2
318.15	1216.2	12.2
323.15	1215.4	12.2
333.15	1213.4	12.2
343.15	1211.9	12.1

System: water + 1,2-dimethyl-3-propylimidazolium tetrafluoroborate; phases: Liquid
Fixed: Pressure, kPa = 101
Property: Viscosity, Pa*s (Liquid); method: CAPTUB:UFactor:4
Temperature, K	Mole fraction of water	Viscosity, Pa*s	uncertainty
298.15	0	0.37728	0.05178
298.15	0.0939	0.22497	0.02322
298.15	0.1932	0.13495	0.00933
298.15	0.2833	0.08525	0.00351
298.15	0.3944	0.05058	0.00119
298.15	0.4987	0.03129	0.00086
298.15	0.5995	0.01971	0.00054
298.15	0.6985	0.01203	0.00033
298.15	0.8009	0.00669	0.00019
298.15	0.8988	0.00323	0.0001
298.15	1	0.00089	3e-05
303.15	0	0.2719	0.03143
303.15	0.0939	0.16761	0.01396
303.15	0.1932	0.10329	0.00527
303.15	0.2833	0.06681	0.00194
303.15	0.3944	0.04044	0.00108
303.15	0.4987	0.0255	0.00068
303.15	0.5995	0.01621	0.00044
303.15	0.6985	0.01004	0.00027
303.15	0.8009	0.00567	0.00016
303.15	0.8988	0.00278	8e-05
303.15	1	0.0008	3e-05
308.15	0	0.20199	0.01934
308.15	0.0939	0.12789	0.00834
308.15	0.1932	0.08112	0.00308
308.15	0.2833	0.05323	0.00121
308.15	0.3944	0.03295	0.00088
308.15	0.4987	0.02107	0.00056
308.15	0.5995	0.01358	0.00037
308.15	0.6985	0.00853	0.00023
308.15	0.8009	0.0049	0.00014
308.15	0.8988	0.00242	7e-05
308.15	1	0.00072	2e-05
313.15	0	0.1522	0.0117
313.15	0.0939	0.09934	0.00484
313.15	0.1932	0.06454	0.00178
313.15	0.2833	0.0432	0.00115
313.15	0.3944	0.02718	0.00072
313.15	0.4987	0.01763	0.00047
313.15	0.5995	0.01152	0.00031
313.15	0.6985	0.00731	0.0002
313.15	0.8009	0.00423	0.00012
313.15	0.8988	0.00214	6e-05
313.15	1	0.00065	2e-05
318.15	0	0.11744	0.00699
318.15	0.0939	0.07856	0.00285
318.15	0.1932	0.05207	0.00116
318.15	0.2833	0.03571	0.00094
318.15	0.3944	0.02279	0.0006
318.15	0.4987	0.01497	0.0004
318.15	0.5995	0.00988	0.00027
318.15	0.6985	0.00634	0.00018
318.15	0.8009	0.00371	0.00011
318.15	0.8988	0.00189	6e-05
318.15	1	0.0006	2e-05
323.15	0	0.09229	0.0041
323.15	0.0939	0.0633	0.00168
323.15	0.1932	0.0428	0.00111
323.15	0.2833	0.02965	0.00078
323.15	0.3944	0.01932	0.00051
323.15	0.4987	0.01287	0.00034
323.15	0.5995	0.00858	0.00023
323.15	0.6985	0.00555	0.00016
323.15	0.8009	0.00329	0.0001
323.15	0.8988	0.00169	5e-05
323.15	1	0.00055	2e-05
333.15	0	0.06045	0.00153
333.15	0.0939	0.04252	0.00113
333.15	0.1932	0.03462	0.005
333.15	0.2833	0.02137	0.00057
333.15	0.3944	0.01438	0.00038
333.15	0.4987	0.00978	0.00026
333.15	0.5995	0.00665	0.00019
333.15	0.6985	0.00437	0.00013
333.15	0.8009	0.00262	8e-05
333.15	0.8988	0.00139	4e-05
333.15	1	0.00047	2e-05
343.15	0	0.04074	0.00111
343.15	0.0939	0.02996	0.0008
343.15	0.1932	0.02184	0.00061
343.15	0.2833	0.01602	0.00043
343.15	0.3944	0.01104	0.0003
343.15	0.4987	0.00766	0.00021
343.15	0.5995	0.0053	0.00015
343.15	0.6985	0.00353	0.0001
343.15	0.8009	0.00215	6e-05
343.15	0.8988	0.00116	4e-05
343.15	1	0.0004	1e-05

System: water + 1,2-dimethyl-3-propylimidazolium tetrafluoroborate; phases: Liquid
Fixed: Pressure, kPa = 101
Property: Mass density, kg/m3 (Liquid); method: Pycnometric method
Temperature, K	Mole fraction of water	Mass density, kg/m3	uncertainty
298.15	0	1225.1	12.3
298.15	0.0939	1221.9	12.2
298.15	0.1932	1218	12.2
298.15	0.2833	1213.6	12.1
298.15	0.3944	1207.4	12.1
298.15	0.4987	1199.8	12
298.15	0.5995	1189.6	11.9
298.15	0.6985	1175.7	11.8
298.15	0.8009	1153.5	11.5
298.15	0.8988	1113	11.2
298.15	1	997	10
303.15	0	1221.8	12.2
303.15	0.0939	1217.9	12.2
303.15	0.1932	1214	12.2
303.15	0.2833	1209.7	12.1
303.15	0.3944	1203.7	12
303.15	0.4987	1196	12
303.15	0.5995	1186.1	11.9
303.15	0.6985	1171.7	11.7
303.15	0.8009	1149.9	11.5
303.15	0.8988	1109.8	11.1
303.15	1	995.7	10
308.15	0	1218.8	12.2
308.15	0.0939	1214.8	12.2
308.15	0.1932	1210.8	12.1
308.15	0.2833	1206.5	12.1
308.15	0.3944	1200.2	12
308.15	0.4987	1192.6	11.9
308.15	0.5995	1182.5	11.8
308.15	0.6985	1168.3	11.7
308.15	0.8009	1146.9	11.5
308.15	0.8988	1107.4	11.1
308.15	1	994	9.9
313.15	0	1217.4	12.2
313.15	0.0939	1213.2	12.1
313.15	0.1932	1209.3	12.1
313.15	0.2833	1204.8	12.1
313.15	0.3944	1198.2	12
313.15	0.4987	1190.6	11.9
313.15	0.5995	1180.5	11.8
313.15	0.6985	1166.5	11.7
313.15	0.8009	1144.7	11.5
313.15	0.8988	1105.3	11.1
313.15	1	992.2	9.9
318.15	0	1216.2	12.2
318.15	0.0939	1211.9	12.1
318.15	0.1932	1207.9	12.1
318.15	0.2833	1203.2	12
318.15	0.3944	1196.8	12
318.15	0.4987	1189	11.9
318.15	0.5995	1178.9	11.8
318.15	0.6985	1165	11.7
318.15	0.8009	1143.1	11.4
318.15	0.8988	1103.3	11
318.15	1	990.2	9.9
323.15	0	1215.4	12.2
323.15	0.0939	1211	12.1
323.15	0.1932	1206.8	12.1
323.15	0.2833	1202.1	12
323.15	0.3944	1195.6	12
323.15	0.4987	1187.8	11.9
323.15	0.5995	1177.6	11.8
323.15	0.6985	1163.7	11.6
323.15	0.8009	1141.7	11.4
323.15	0.8988	1101.6	11
323.15	1	988.1	9.9
333.15	0	1213.4	12.2
333.15	0.0939	1208.9	12.1
333.15	0.1932	1204.4	12.1
333.15	0.2833	1199.7	12
333.15	0.3944	1193.2	11.9
333.15	0.4987	1185.3	11.9
333.15	0.5995	1174.7	11.8
333.15	0.6985	1160.7	11.6
333.15	0.8009	1138.4	11.4
333.15	0.8988	1097.8	11
333.15	1	983.2	9.8
343.15	0	1211.9	12.1
343.15	0.0939	1207.1	12.1
343.15	0.1932	1202.6	12
343.15	0.2833	1197.8	12
343.15	0.3944	1191.2	11.9
343.15	0.4987	1183.1	11.8
343.15	0.5995	1172.3	11.7
343.15	0.6985	1157.9	11.6
343.15	0.8009	1134.3	11.4
343.15	0.8988	1094.2	11
343.15	1	977.8	9.8
