Measured thermophysical data. Solubility of 11 -Hydroxypregna-1,4,16-triene-3,20-dione in Different Solvents
Source: J. Chem. Eng. Data, 2008, 10.1021/je800174u
Compound 1: 11-beta-Hydroxypregna-1,4,16-triene-3,20-dione, C21H26O3, InChI=1S/C21H26O3/c1-12(22)16-6-7-17-15-5-4-13-10-14(23)8-9-20(13,2)19(15)18(24)11-21(16,17)3/h6,8-10,15,17-19,24H,4-5,7,11H2,1-3H3/t15-,17-,18-,19+,20-,21+/m0/s1
Compound 2: ethanol, C2H6O, InChI=1S/C2H6O/c1-2-3/h3H,2H2,1H3
Compound 3: acetone, C3H6O, InChI=1S/C3H6O/c1-3(2)4/h1-2H3
Compound 4: water, H2O, InChI=1S/H2O/h1H2

System: ethanol + 11-beta-Hydroxypregna-1,4,16-triene-3,20-dione; phases: Liquid, Crystal
Fixed: Pressure, kPa = 101
Property: Mole fraction of 11-beta-Hydroxypregna-1,4,16-triene-3,20-dione (Liquid); method: laser monitoring system
Temperature, K	Mole fraction of 11-beta-Hydroxypregna-1,4,16-triene-3,20-dione	uncertainty
298.15	0.002131	5.4e-05
298.15	0.0021308	0.000132
303.15	0.002525	6.4e-05
308.15	0.002907	7.3e-05
308.15	0.0029068	0.0001801
313.15	0.003352	8.5e-05
318.15	0.003952	0.0001
318.15	0.0039519	0.0002448
323.15	0.00461	0.000116
328.15	0.005409	0.000137
328.15	0.0054093	0.0003351
333.15	0.006251	0.000158
338.15	0.007225	0.000183
338.15	0.0072253	0.0004476
343.15	0.008436	0.000213
348.15	0.009701	0.000245
348.15	0.0097011	0.0006009

System: acetone + 11-beta-Hydroxypregna-1,4,16-triene-3,20-dione; phases: Liquid, Crystal
Fixed: Pressure, kPa = 101
Property: Mole fraction of 11-beta-Hydroxypregna-1,4,16-triene-3,20-dione (Liquid); method: laser monitoring system
Temperature, K	Mole fraction of 11-beta-Hydroxypregna-1,4,16-triene-3,20-dione	uncertainty
298.15	0.001924	4.5e-05
303.15	0.002153	5e-05
308.15	0.002431	5.7e-05
313.15	0.002745	6.4e-05
318.15	0.00303	7.1e-05
323.15	0.003507	8.2e-05
328.15	0.003801	8.9e-05

System: ethanol + water + 11-beta-Hydroxypregna-1,4,16-triene-3,20-dione; phases: Liquid, Crystal
Fixed: Pressure, kPa = 101
Property: Mole fraction of 11-beta-Hydroxypregna-1,4,16-triene-3,20-dione (Liquid); method: laser monitoring system
Temperature, K	Solvent: Mole fraction of ethanol	Mole fraction of 11-beta-Hydroxypregna-1,4,16-triene-3,20-dione	uncertainty
298.15	0.0509	6.9e-06	5e-07
298.15	0.0726	2.15e-05	1.5e-06
298.15	0.0986	3.12e-05	2.2e-06
298.15	0.1444	5.67e-05	3.9e-06
298.15	0.2313	0.00014	9.3e-06
298.15	0.2812	0.0002282	1.51e-05
298.15	0.3698	0.0004905	3.19e-05
298.15	0.4772	0.0012005	7.7e-05
298.15	0.61	0.0020514	0.0001303
298.15	0.7325	0.0032614	0.0002047
298.15	0.7787	0.0030929	0.0001936
298.15	0.8283	0.003089	0.0001928
298.15	0.8814	0.0027648	0.0001721
298.15	1	0.0021308	0.000132
308.15	0.0509	1.65e-05	1.2e-06
308.15	0.0726	3.65e-05	2.5e-06
308.15	0.0986	6.49e-05	4.5e-06
308.15	0.1444	0.0001208	8.2e-06
308.15	0.2313	0.0002348	1.56e-05
308.15	0.2812	0.0003962	2.61e-05
308.15	0.3698	0.000902	5.86e-05
308.15	0.4772	0.0018513	0.0001186
308.15	0.61	0.00355	0.0002247
308.15	0.7325	0.0042192	0.0002646
308.15	0.7787	0.0042865	0.0002681
308.15	0.8283	0.0039683	0.0002476
308.15	0.8814	0.0036797	0.000229
308.15	1	0.0029068	0.0001801
318.15	0.0509	2.24e-05	1.6e-06
318.15	0.0726	4.52e-05	3.1e-06
318.15	0.0986	8.35e-05	5.7e-06
318.15	0.1444	0.0001764	1.2e-05
318.15	0.2313	0.0003389	2.25e-05
318.15	0.2812	0.0007307	4.81e-05
318.15	0.3698	0.0012816	8.31e-05
318.15	0.4772	0.0027996	0.0001794
318.15	0.61	0.0048168	0.0003047
318.15	0.7325	0.0055561	0.0003484
318.15	0.7787	0.0056398	0.0003528
318.15	0.8283	0.0052973	0.0003305
318.15	0.8814	0.0048443	0.0003015
318.15	1	0.0039519	0.0002448
328.15	0.0509	4.17e-05	2.9e-06
328.15	0.0726	8.52e-05	5.9e-06
328.15	0.0987	0.0001366	9.4e-06
328.15	0.1453	0.0002798	1.9e-05
328.15	0.2315	0.0005753	3.83e-05
328.15	0.2812	0.001032	6.79e-05
328.15	0.3698	0.0017909	0.0001162
328.15	0.4772	0.0041486	0.0002657
328.15	0.61	0.0064483	0.0004078
328.15	0.7325	0.0071607	0.0004491
328.15	0.7787	0.0074219	0.0004643
328.15	0.8283	0.0069151	0.0004315
328.15	0.8814	0.0065097	0.0004052
328.15	1	0.0054093	0.0003351
338.15	0.0509	5.01e-05	3.5e-06
338.15	0.0726	9.87e-05	6.8e-06
338.15	0.0986	0.0001858	1.28e-05
338.15	0.1444	0.0003423	2.32e-05
338.15	0.2313	0.001081	7.2e-05
338.15	0.2812	0.0013752	9.05e-05
338.15	0.3698	0.0024733	0.0001605
338.15	0.4772	0.0055265	0.0003539
338.15	0.61	0.0081368	0.0005147
338.15	0.7325	0.0093294	0.0005853
338.15	0.7787	0.0097274	0.0006086
338.15	0.8283	0.0090485	0.0005647
338.15	0.8814	0.0085608	0.0005329
338.15	1	0.0072253	0.0004476
348.15	0.0508	5.73e-05	4e-06
348.15	0.0726	0.0001237	8.6e-06
348.15	0.0986	0.0002098	1.44e-05
348.15	0.1444	0.0004056	2.76e-05
348.15	0.2313	0.0017916	0.000119
348.15	0.2812	0.0020927	0.0001378
348.15	0.3698	0.0034483	0.000224
348.15	0.4772	0.0072753	0.0004656
348.15	0.61	0.0103105	0.0006521
348.15	0.7325	0.0120692	0.0007571
348.15	0.7787	0.0126637	0.0007922
348.15	0.8283	0.0117505	0.0007333
348.15	0.8814	0.0112087	0.0006976
348.15	1	0.0097011	0.0006009
