Measured thermophysical data. Density, Viscosity, and Vapor Pressure for Binary Mixtures of Tricyclo [5.2.1.02.6] Decane and Diethyl Carbonate
Source: J. Chem. Eng. Data, 2009, 10.1021/je800984q
Compound 1: tricyclo[5.2.1.0(2,6)]decane, C10H16, InChI=1S/C10H16/c1-2-9-7-4-5-8(6-7)10(9)3-1/h7-10H,1-6H2
Compound 2: diethyl carbonate, C5H10O3, InChI=1S/C5H10O3/c1-3-7-5(6)8-4-2/h3-4H2,1-2H3, purity 98.5%

System: tricyclo[5.2.1.0(2,6)]decane; phases: Liquid, Gas
Property: Vapor or sublimation pressure, kPa (Liquid); method: EBULLIO:UFactor:8
Temperature, K	Vapor or sublimation pressure, kPa	uncertainty
393.98	15	0.8
396.02	16.6	0.8
401.42	20.6	1
413.88	30.3	1.3
418.34	34.8	1.4
426.86	44.9	1.8
431.22	50.7	1.9
434.56	55.8	2.1
436.68	59.2	2.2
439.31	63.2	2.4
441.13	66.6	2.5
442.7	69.5	2.6
442.81	69.8	2.6
444.37	72.9	2.7
445.73	75.1	2.7
446.13	75.9	2.8
450.08	83.9	3
457.66	101.1	3.6

System: tricyclo[5.2.1.0(2,6)]decane; phases: Liquid
Property: Viscosity, Pa*s (Liquid); method: Capillary tube (Ostwald; Ubbelohde) method
Temperature, K	Pressure, kPa	Viscosity, Pa*s	uncertainty
298.15	101	0.002739	7e-05

System: tricyclo[5.2.1.0(2,6)]decane; phases: Liquid
Property: Mass density, kg/m3 (Liquid); method: Vibrating tube method
Temperature, K	Pressure, kPa	Mass density, kg/m3	uncertainty
298.15	101	931.4	4.7

System: diethyl carbonate; phases: Liquid, Gas
Property: Vapor or sublimation pressure, kPa (Liquid); method: EBULLIO:UFactor:8
Temperature, K	Vapor or sublimation pressure, kPa	uncertainty
343.77	13.8	0.7
351.67	19.3	0.9
355.63	22.7	1
358.29	26	1.1
363.84	31.3	1.3
366.98	35.2	1.4
369.75	39.1	1.5
372.28	42.8	1.6
374.61	46.5	1.8
377.05	50.5	1.9
379.59	55	2
381.49	58.8	2.1
383.37	63.1	2.3
383.57	63.5	2.3
386.18	68.5	2.4
387.61	72.8	2.6
390.35	78.5	2.8
392.39	84	2.9
393.93	88.2	3.1
395.72	93.4	3.2
398.28	101.5	3.5

System: diethyl carbonate; phases: Liquid
Property: Viscosity, Pa*s (Liquid); method: Capillary tube (Ostwald; Ubbelohde) method
Temperature, K	Pressure, kPa	Viscosity, Pa*s	uncertainty
298.15	101	0.000764	8e-06

System: diethyl carbonate; phases: Liquid
Property: Mass density, kg/m3 (Liquid); method: Vibrating tube method
Temperature, K	Pressure, kPa	Mass density, kg/m3	uncertainty
298.15	101	969	0.5

System: diethyl carbonate + tricyclo[5.2.1.0(2,6)]decane; phases: Liquid
Fixed: Temperature, K = 298.15
Fixed: Pressure, kPa = 101
Property: Viscosity, Pa*s (Liquid); method: Capillary tube (Ostwald; Ubbelohde) method
Mole fraction of diethyl carbonate	Viscosity, Pa*s	uncertainty
0	0.002739	7e-05
0.1141	0.00214	5.1e-05
0.2235	0.001757	3.8e-05
0.3303	0.001496	3e-05
0.4355	0.001292	2.4e-05
0.536	0.001149	1.9e-05
0.6336	0.001026	1.6e-05
0.7288	0.000938	1.3e-05
0.8207	0.000861	1.1e-05
0.9109	0.000814	1e-05
1	0.000764	8e-06

System: diethyl carbonate + tricyclo[5.2.1.0(2,6)]decane; phases: Liquid
Fixed: Temperature, K = 298.15
Fixed: Pressure, kPa = 101
Property: Mass density, kg/m3 (Liquid); method: Vibrating tube method
Mole fraction of diethyl carbonate	Mass density, kg/m3	uncertainty
0	931.4	4.7
0.1141	933.1	4
0.2235	935.3	3.3
0.3303	938.1	2.8
0.4355	941.3	2.3
0.536	944.8	1.9
0.6336	948.8	1.5
0.7288	953.4	1.2
0.8207	958.2	0.9
0.9109	963.5	0.7
1	969	0.5

System: diethyl carbonate + tricyclo[5.2.1.0(2,6)]decane; phases: Liquid, Gas
Property: Vapor or sublimation pressure, kPa (Liquid); method: EBULLIO:UFactor:8
Mole fraction of diethyl carbonate	Temperature, K	Vapor or sublimation pressure, kPa	uncertainty
0	393.98	15	0.8
0	396.02	16.6	0.8
0	401.42	20.6	1
0	413.88	30.3	1.3
0	418.34	34.8	1.4
0	426.86	44.9	1.8
0	431.22	50.7	1.9
0	434.56	55.8	2.1
0	436.68	59.2	2.2
0	439.31	63.2	2.4
0	441.13	66.6	2.5
0	442.7	69.5	2.6
0	442.81	69.8	2.6
0	444.37	72.9	2.7
0	445.73	75.1	2.7
0	446.13	75.9	2.8
0	450.08	83.9	3
0	457.66	101.1	3.6
0.0457	378.76	14.4	0.8
0.0457	384.65	20.9	1
0.0457	387.71	24.9	1.1
0.0457	391.46	29.6	1.3
0.0457	399.61	41.1	1.6
0.0457	400.38	42.4	1.7
0.0457	404.13	47.8	1.9
0.0457	409.71	56.4	2.1
0.0457	411.23	58.6	2.2
0.0457	415.41	65.2	2.4
0.0457	420.84	73.5	2.7
0.0457	423.96	78.3	2.8
0.0457	427.54	83.8	3
0.0457	430.18	87.9	3.2
0.0457	438.75	100.6	3.6
0.0689	371.4	12.8	0.7
0.0689	378.9	19.5	0.9
0.0689	384.34	25.2	1.1
0.0689	390.61	32.6	1.4
0.0689	396.9	41	1.6
0.0689	400.47	46.1	1.8
0.0689	405.34	53.5	2
0.0689	408.76	58.9	2.2
0.0689	412.74	65.3	2.4
0.0689	415.92	70.8	2.6
0.0689	420.01	77.6	2.8
0.0689	423.57	84.1	3
0.0689	432.47	100.5	3.6
0.0909	365.94	9.9	0.6
0.0909	373.86	17.8	0.9
0.0909	383.76	29.8	1.3
0.0909	390.73	39.5	1.6
0.0909	393.96	44.1	1.7
0.0909	394.52	44.9	1.8
0.0909	399.29	51.8	2
0.0909	402.95	57.1	2.1
0.0909	409.47	67.3	2.5
0.0909	410.78	69	2.5
0.0909	415.3	75.8	2.8
0.0909	418.93	81.4	2.9
0.0909	423.77	88.5	3.2
0.0909	428.27	95	3.4
0.0909	431.99	100.3	3.5
0.1141	358.34	8.4	0.6
0.1141	368.84	16.2	0.8
0.1141	376.94	24.2	1.1
0.1141	382.16	30.3	1.3
0.1141	386.59	36.1	1.5
0.1141	389.4	40	1.6
0.1141	392.75	44.8	1.7
0.1141	395.17	48.6	1.9
0.1141	401.89	59.5	2.2
0.1141	405.64	65.8	2.4
0.1141	407.19	68.8	2.5
0.1141	410.99	75.4	2.7
0.1141	413.96	81	2.9
0.1141	414.64	82.4	3
0.1141	423.25	99.2	3.5
0.1141	423.62	100	3.5
0.3328	350.65	10.7	0.6
0.3328	360.88	18.6	0.9
0.3328	368.81	26.7	1.2
0.3328	374.42	33.3	1.4
0.3328	377.91	37.9	1.5
0.3328	384.37	46.9	1.8
0.3328	390.08	55.4	2.1
0.3328	397.38	66.9	2.4
0.3328	401.12	73.4	2.6
0.3328	402.31	75.3	2.7
0.3328	406.92	83.6	3
0.3328	409.39	88	3.1
0.3328	411.79	92.2	3.2
0.3328	416.32	100.8	3.5
0.5348	348.88	12.6	0.7
0.5348	356.93	17.9	0.9
0.5348	365.68	25.7	1.1
0.5348	372.71	33.6	1.4
0.5348	377.66	40.1	1.6
0.5348	382.91	48	1.8
0.5348	387.33	55.3	2.1
0.5348	390.58	61.3	2.2
0.5348	394.19	68.4	2.5
0.5348	396.87	74.8	2.7
0.5348	396.9	74	2.6
0.5348	402.35	86.4	3
0.5348	405.65	94.5	3.3
0.5348	407.86	100.3	3.5
0.7291	345.94	12.8	0.7
0.7291	355.51	19.3	0.9
0.7291	364.08	27	1.2
0.7291	369.84	33.5	1.4
0.7291	374	38.9	1.5
0.7291	378.62	45.7	1.7
0.7291	382.1	51.4	1.9
0.7291	385.33	57.1	2.1
0.7291	388.67	63.6	2.3
0.7291	391.94	70.5	2.5
0.7291	394.78	77	2.7
0.7291	398.14	85.3	3
0.7291	401.01	92.7	3.2
0.7291	403.98	101	3.5
0.9564	340.58	11.4	0.7
0.9564	349.18	16.8	0.8
0.9564	349.36	17	0.8
0.9564	357.63	24	1.1
0.9564	364.56	31.5	1.3
0.9564	369.56	37.9	1.5
0.9564	374.22	44.7	1.7
0.9564	378.43	51.7	1.9
0.9564	380.84	56.3	2.1
0.9564	383.2	60.9	2.2
0.9564	385.7	66	2.4
0.9564	391.24	78.7	2.8
0.9564	393.15	83.6	2.9
0.9564	395.91	90.9	3.1
0.9564	398.3	98	3.4
0.9564	399.63	101	3.5
1	343.77	13.8	0.7
1	351.67	19.3	0.9
1	355.63	22.7	1
1	358.29	26	1.1
1	363.84	31.3	1.3
1	366.98	35.2	1.4
1	369.75	39.1	1.5
1	372.28	42.8	1.6
1	374.61	46.5	1.8
1	377.05	50.5	1.9
1	379.59	55	2
1	381.49	58.8	2.1
1	383.37	63.1	2.3
1	383.57	63.5	2.3
1	386.18	68.5	2.4
1	387.61	72.8	2.6
1	390.35	78.5	2.8
1	392.39	84	2.9
1	393.93	88.2	3.1
1	395.72	93.4	3.2
1	398.28	101.5	3.5
