Measured thermophysical data. Solubility of Rifapentine in the Binary System of Acetic Acid and n-Octanol Solvent Mixtures
Source: J. Chem. Eng. Data, 2008, 10.1021/je8002578
Compound 1: rifapentine, C47H64N4O12, InChI=1S/C47H64N4O12/c1-24-13-12-14-25(2)46(59)49-37-32(23-48-51-20-18-50(19-21-51)31-15-10-11-16-31)41(56)34-35(42(37)57)40(55)29(6)44-36(34)45(58)47(8,63-44)61-22-17-33(60-9)26(3)43(62-30(7)52)28(5)39(54)27(4)38(24)53/h12-14,17,22-24,26-28,31,33,38-39,43,53-57H,10-11,15-16,18-21H2,1-9H3,(H,49,59)/b13-12+,22-17+,25-14-,48-23+/t24-,26+,27+,28+,33-,38-,39+,43+,47-/m0/s1
Compound 2: acetic acid, C2H4O2, InChI=1S/C2H4O2/c1-2(3)4/h1H3,(H,3,4), purity 99.5%
Compound 3: octan-1-ol, C8H18O, InChI=1S/C8H18O/c1-2-3-4-5-6-7-8-9/h9H,2-8H2,1H3, purity 99.5%

System: acetic acid + octan-1-ol + rifapentine; phases: Liquid, Crystal
Fixed: Pressure, kPa = 101
Property: Mole fraction of rifapentine (Liquid); method: UV-visible spectophotometry
Temperature, K	Mole fraction of octan-1-ol	Mole fraction of rifapentine	uncertainty
278.15	0	0.0523	0.002
278.15	0.1001	0.0467	0.0016
278.15	0.2008	0.0414	0.0014
278.15	0.2998	0.0353	0.0011
278.15	0.4005	0.0276	0.0008
278.15	0.5011	0.0203	0.0006
278.15	0.5993	0.014	0.0004
283.15	0	0.0558	0.0021
283.15	0.1001	0.0494	0.0017
283.15	0.2008	0.0427	0.0014
283.15	0.2998	0.036	0.0011
283.15	0.4005	0.0281	0.0008
283.15	0.5011	0.021	0.0006
283.15	0.5993	0.0145	0.0004
288.15	0	0.0595	0.0023
288.15	0.1001	0.0524	0.0019
288.15	0.2008	0.044	0.0014
288.15	0.2998	0.0367	0.0011
288.15	0.4005	0.0287	0.0008
288.15	0.5011	0.0217	0.0006
288.15	0.5993	0.0151	0.0004
293.15	0	0.0632	0.0024
293.15	0.1001	0.0556	0.002
293.15	0.2008	0.0455	0.0015
293.15	0.2998	0.0374	0.0012
293.15	0.4005	0.0293	0.0009
293.15	0.5011	0.0224	0.0006
293.15	0.5993	0.0157	0.0004
297.15	0	0.067	0.0026
297.15	0.1001	0.0589	0.0021
297.15	0.2008	0.0471	0.0015
297.15	0.2998	0.0381	0.0012
297.15	0.4005	0.03	0.0009
297.15	0.5011	0.0231	0.0007
297.15	0.5993	0.0164	0.0004
303.15	0	0.0707	0.0028
303.15	0.1001	0.0623	0.0022
303.15	0.2008	0.0487	0.0016
303.15	0.2998	0.0389	0.0012
303.15	0.4005	0.0307	0.0009
303.15	0.5011	0.0236	0.0007
303.15	0.5993	0.0171	0.0005
308.15	0	0.0755	0.0029
308.15	0.1001	0.0656	0.0023
308.15	0.2008	0.0503	0.0017
308.15	0.2998	0.0396	0.0012
308.15	0.4005	0.0315	0.0009
308.15	0.5011	0.0244	0.0007
308.15	0.5993	0.0178	0.0005
313.15	0	0.0805	0.0032
313.15	0.1001	0.0691	0.0025
313.15	0.2008	0.052	0.0017
313.15	0.2998	0.0404	0.0013
313.15	0.4005	0.0323	0.001
313.15	0.5011	0.0252	0.0007
313.15	0.5993	0.0187	0.0005
318.15	0	0.0858	0.0034
318.15	0.1001	0.0727	0.0026
318.15	0.2008	0.0538	0.0018
318.15	0.2998	0.0412	0.0013
318.15	0.4005	0.0331	0.001
318.15	0.5011	0.0261	0.0007
318.15	0.5993	0.0195	0.0005
323.15	0	0.0913	0.0036
323.15	0.1001	0.0762	0.0027
323.15	0.2008	0.0557	0.0018
323.15	0.2998	0.0421	0.0013
323.15	0.4005	0.034	0.001
323.15	0.5011	0.027	0.0008
323.15	0.5993	0.0204	0.0006
