Measured thermophysical data. Solubilities of Sulfamethazine, Sulfadimethoxine, Sulfamethoxydiazine, Sulfamonomethoxine, Sulfamethoxazole, and Sulfaquinoxaline in 1-Octanol from (298.15 to 333.15) K
Source: J. Chem. Eng. Data, 2009, 10.1021/je800867a
Compound 1: octan-1-ol, C8H18O, InChI=1S/C8H18O/c1-2-3-4-5-6-7-8-9/h9H,2-8H2,1H3
Compound 2: N1-(5-methoxy-2-pyrimidinyl)sulfanilamide, C11H12N4O3S, InChI=1S/C11H12N4O3S/c1-18-9-6-13-11(14-7-9)15-19(16,17)10-4-2-8(12)3-5-10/h2-7H,12H2,1H3,(H,13,14,15)
Compound 3: sulfamonomethoxine, C11H12N4O3S, InChI=1S/C11H12N4O3S/c1-18-11-6-10(13-7-14-11)15-19(16,17)9-4-2-8(12)3-5-9/h2-7H,12H2,1H3,(H,13,14,15)
Compound 4: N1-(5-methyl-3-isoxazolyl)sulfanilamide, C10H11N3O3S, InChI=1S/C10H11N3O3S/c1-7-6-10(12-16-7)13-17(14,15)9-4-2-8(11)3-5-9/h2-6H,11H2,1H3,(H,12,13)
Compound 5: sulfaquinoxaline, C14H12N4O2S, InChI=1S/C14H12N4O2S/c15-10-5-7-11(8-6-10)21(19,20)18-14-9-16-12-3-1-2-4-13(12)17-14/h1-9H,15H2,(H,17,18)
Compound 6: 4-amino-N-(4,6-dimethyl-2-pyrimidinyl)benzenesulfonamide, C12H14N4O2S, InChI=1S/C12H14N4O2S/c1-8-7-9(2)15-12(14-8)16-19(17,18)11-5-3-10(13)4-6-11/h3-7H,13H2,1-2H3,(H,14,15,16)
Compound 7: benzenesulfonamide, 4-amino-N-(2,6-dimethoxy-4-pyrimidinyl)-, C12H14N4O4S, InChI=1S/C12H14N4O4S/c1-19-11-7-10(14-12(15-11)20-2)16-21(17,18)9-5-3-8(13)4-6-9/h3-7H,13H2,1-2H3,(H,14,15,16)

System: octan-1-ol + N1-(5-methoxy-2-pyrimidinyl)sulfanilamide; phases: Liquid, Crystal
Fixed: Pressure, kPa = 101
Property: Mole fraction of N1-(5-methoxy-2-pyrimidinyl)sulfanilamide (Liquid); method: Static Method
Temperature, K	Mole fraction of N1-(5-methoxy-2-pyrimidinyl)sulfanilamide	uncertainty
298.15	8.803e-05	2.09e-06
303.15	9.418e-05	2.23e-06
308.15	0.0001007	2.4e-06
313.15	0.0001076	2.6e-06
318.15	0.0001152	2.7e-06
323.15	0.0001231	2.9e-06
328.15	0.0001319	3.1e-06
333.15	0.0001413	3.3e-06

System: octan-1-ol + sulfamonomethoxine; phases: Liquid, Crystal
Fixed: Pressure, kPa = 101
Property: Mole fraction of sulfamonomethoxine (Liquid); method: Static Method
Temperature, K	Mole fraction of sulfamonomethoxine	uncertainty
298.15	7.923e-05	1.89e-06
303.15	8.677e-05	2.07e-06
308.15	9.525e-05	2.27e-06
313.15	0.0001044	2.5e-06
318.15	0.0001126	2.7e-06
323.15	0.0001202	2.9e-06
328.15	0.0001291	3.1e-06
333.15	0.0001363	3.2e-06

System: octan-1-ol + N1-(5-methyl-3-isoxazolyl)sulfanilamide; phases: Liquid, Crystal
Fixed: Pressure, kPa = 101
Property: Mole fraction of N1-(5-methyl-3-isoxazolyl)sulfanilamide (Liquid); method: Static Method
Temperature, K	Mole fraction of N1-(5-methyl-3-isoxazolyl)sulfanilamide	uncertainty
298.15	0.0009645	2.37e-05
303.15	0.001129	2.7e-05
308.15	0.001286	3.1e-05
313.15	0.001435	3.4e-05
318.15	0.001564	3.7e-05
323.15	0.0016706	3.95e-05
328.15	0.001746	4.1e-05
333.15	0.001795	4.2e-05

System: sulfaquinoxaline + octan-1-ol; phases: Liquid, Crystal
Fixed: Pressure, kPa = 101
Property: Mole fraction of sulfaquinoxaline (Liquid); method: Static Method
Temperature, K	Mole fraction of sulfaquinoxaline	uncertainty
298.15	9.116e-05	2.24e-06
303.15	0.0001068	2.6e-06
308.15	0.0001229	3e-06
313.15	0.0001386	3.3e-06
318.15	0.0001538	3.7e-06
323.15	0.0001678	4e-06
328.15	0.0001804	4.3e-06
333.15	0.000191	4.5e-06

System: 4-amino-N-(4,6-dimethyl-2-pyrimidinyl)benzenesulfonamide + octan-1-ol; phases: Liquid, Crystal
Fixed: Pressure, kPa = 101
Property: Mole fraction of 4-amino-N-(4,6-dimethyl-2-pyrimidinyl)benzenesulfonamide (Liquid); method: Static Method
Temperature, K	Mole fraction of 4-amino-N-(4,6-dimethyl-2-pyrimidinyl)benzenesulfonamide	uncertainty
298.15	0.000253	6.3e-06
303.15	0.000296	7.3e-06
308.15	0.0003376	8.3e-06
313.15	0.0003796	9.3e-06
318.15	0.0004273	1.04e-05
323.15	0.0004783	1.17e-05
328.15	0.0005387	1.31e-05
333.15	0.0005866	1.42e-05

System: octan-1-ol + benzenesulfonamide, 4-amino-N-(2,6-dimethoxy-4-pyrimidinyl)-; phases: Liquid, Crystal
Fixed: Pressure, kPa = 101
Property: Mole fraction of benzenesulfonamide, 4-amino-N-(2,6-dimethoxy-4-pyrimidinyl)- (Liquid); method: Static Method
Temperature, K	Mole fraction of benzenesulfonamide, 4-amino-N-(2,6-dimethoxy-4-pyrimidinyl)-	uncertainty
298.15	0.0001672	4e-06
303.15	0.0001796	4.3e-06
308.15	0.0001941	4.6e-06
313.15	0.0002132	5.1e-06
318.15	0.0002348	5.6e-06
323.15	0.0002612	6.3e-06
328.15	0.0002936	7.1e-06
333.15	0.0003324	8e-06
