Measured thermophysical data. Densities and Kinematic Viscosities of Ten Binary 1-Alkanol Liquid Systems at Temperatures of (293.15 and 298.15) K
Source: J. Chem. Eng. Data, 2009, 10.1021/je800497u
Compound 1: propan-1-ol, C3H8O, InChI=1S/C3H8O/c1-2-3-4/h4H,2-3H2,1H3, purity 99.5%
Compound 2: pentan-1-ol, C5H12O, InChI=1S/C5H12O/c1-2-3-4-5-6/h6H,2-5H2,1H3, purity 99%
Compound 3: heptan-1-ol, C7H16O, InChI=1S/C7H16O/c1-2-3-4-5-6-7-8/h8H,2-7H2,1H3, purity 99%
Compound 4: nonan-1-ol, C9H20O, InChI=1S/C9H20O/c1-2-3-4-5-6-7-8-9-10/h10H,2-9H2,1H3, purity 98%
Compound 5: 1-undecanol, C11H24O, InChI=1S/C11H24O/c1-2-3-4-5-6-7-8-9-10-11-12/h12H,2-11H2,1H3, purity 99%

System: propan-1-ol; phases: Liquid
Fixed: Pressure, kPa = 101
Property: Viscosity, Pa*s (Liquid); method: CAPTUB:UFactor:4
Temperature, K	Viscosity, Pa*s	uncertainty
293.15	0.002272	5.2e-05
298.15	0.001966	4.5e-05

System: propan-1-ol; phases: Liquid
Fixed: Pressure, kPa = 101
Property: Mass density, kg/m3 (Liquid); method: VIBTUB:UFactor:6
Temperature, K	Mass density, kg/m3	uncertainty
293.15	803.5	0.7
298.15	799.6	0.7

System: pentan-1-ol; phases: Liquid
Fixed: Pressure, kPa = 101
Property: Viscosity, Pa*s (Liquid); method: CAPTUB:UFactor:4
Temperature, K	Viscosity, Pa*s	uncertainty
293.15	0.004029	8.9e-05
298.15	0.003494	7.7e-05

System: pentan-1-ol; phases: Liquid
Fixed: Pressure, kPa = 101
Property: Mass density, kg/m3 (Liquid); method: VIBTUB:UFactor:6
Temperature, K	Mass density, kg/m3	uncertainty
293.15	814.6	0.6
298.15	811	0.6

System: heptan-1-ol; phases: Liquid
Fixed: Pressure, kPa = 101
Property: Viscosity, Pa*s (Liquid); method: CAPTUB:UFactor:4
Temperature, K	Viscosity, Pa*s	uncertainty
293.15	0.007104	0.000142
298.15	0.005993	0.000124

System: heptan-1-ol; phases: Liquid
Fixed: Pressure, kPa = 101
Property: Mass density, kg/m3 (Liquid); method: VIBTUB:UFactor:6
Temperature, K	Mass density, kg/m3	uncertainty
293.15	822.2	0.6
298.15	818.7	0.6

System: nonan-1-ol; phases: Liquid
Fixed: Pressure, kPa = 101
Property: Viscosity, Pa*s (Liquid); method: CAPTUB:UFactor:4
Temperature, K	Viscosity, Pa*s	uncertainty
293.15	0.011683	0.000217
298.15	0.009671	0.000185

System: nonan-1-ol; phases: Liquid
Fixed: Pressure, kPa = 101
Property: Mass density, kg/m3 (Liquid); method: VIBTUB:UFactor:6
Temperature, K	Mass density, kg/m3	uncertainty
293.15	827.9	0.7
298.15	824.4	0.7

System: 1-undecanol; phases: Liquid
Fixed: Pressure, kPa = 101
Property: Viscosity, Pa*s (Liquid); method: CAPTUB:UFactor:4
Temperature, K	Viscosity, Pa*s	uncertainty
293.15	0.017182	0.000299
298.15	0.014025	0.00025

System: 1-undecanol; phases: Liquid
Fixed: Pressure, kPa = 101
Property: Mass density, kg/m3 (Liquid); method: VIBTUB:UFactor:6
Temperature, K	Mass density, kg/m3	uncertainty
293.15	832.5	0.6
298.15	829	0.6

System: propan-1-ol + pentan-1-ol; phases: Liquid
Fixed: Pressure, kPa = 101
Property: Viscosity, Pa*s (Liquid); method: CAPTUB:UFactor:4
Mole fraction of propan-1-ol	Temperature, K	Viscosity, Pa*s	uncertainty
0	293.15	0.004029	8.9e-05
0	298.15	0.003494	7.7e-05
0.0959	293.15	0.003825	8.4e-05
0.0959	298.15	0.003325	7.4e-05
0.2143	293.15	0.003584	7.9e-05
0.2143	298.15	0.003126	7e-05
0.2969	293.15	0.003446	7.6e-05
0.2969	298.15	0.003008	6.7e-05
0.4097	293.15	0.003214	7.2e-05
0.4097	298.15	0.002828	6.4e-05
0.5053	293.15	0.003072	6.9e-05
0.5053	298.15	0.002695	6.1e-05
0.5963	293.15	0.002908	6.5e-05
0.5963	298.15	0.002537	5.7e-05
0.6924	293.15	0.002758	6.2e-05
0.6924	298.15	0.002402	5.5e-05
0.7892	293.15	0.002582	5.8e-05
0.7892	298.15	0.002283	5.2e-05
0.8797	293.15	0.002442	5.5e-05
0.8797	298.15	0.002126	4.9e-05
1	293.15	0.002272	5.2e-05
1	298.15	0.001966	4.5e-05

System: propan-1-ol + pentan-1-ol; phases: Liquid
Fixed: Pressure, kPa = 101
Property: Mass density, kg/m3 (Liquid); method: VIBTUB:UFactor:6
Mole fraction of propan-1-ol	Temperature, K	Mass density, kg/m3	uncertainty
0	293.15	814.6	0.6
0	298.15	811	0.6
0.0959	293.15	813.7	0.6
0.0959	298.15	810.1	0.6
0.2143	293.15	812.8	0.6
0.2143	298.15	809.1	0.6
0.2969	293.15	812	0.6
0.2969	298.15	808.4	0.6
0.4097	293.15	810.9	0.6
0.4097	298.15	807.2	0.6
0.5053	293.15	809.9	0.6
0.5053	298.15	806.2	0.6
0.5963	293.15	809	0.6
0.5963	298.15	805.2	0.6
0.6924	293.15	807.8	0.6
0.6924	298.15	804	0.7
0.7892	293.15	806.6	0.6
0.7892	298.15	802.8	0.7
0.8797	293.15	805.4	0.6
0.8797	298.15	801.5	0.7
1	293.15	803.5	0.7
1	298.15	799.6	0.7

System: pentan-1-ol + nonan-1-ol; phases: Liquid
Fixed: Pressure, kPa = 101
Property: Viscosity, Pa*s (Liquid); method: CAPTUB:UFactor:4
Mole fraction of pentan-1-ol	Temperature, K	Viscosity, Pa*s	uncertainty
0	293.15	0.011683	0.000217
0	298.15	0.009671	0.000185
0.1155	293.15	0.010725	0.000201
0.1155	298.15	0.008891	0.000172
0.2155	293.15	0.00971	0.000184
0.2155	298.15	0.008083	0.000159
0.3161	293.15	0.008734	0.000169
0.3161	298.15	0.007313	0.000146
0.4052	293.15	0.008071	0.000158
0.4052	298.15	0.006815	0.000138
0.5066	293.15	0.00727	0.000145
0.5066	298.15	0.006128	0.000127
0.6079	293.15	0.006582	0.000134
0.6079	298.15	0.00555	0.000118
0.7036	293.15	0.005898	0.000123
0.7036	298.15	0.005017	0.000109
0.7935	293.15	0.005192	0.000112
0.7935	298.15	0.004473	9.8e-05
0.8913	293.15	0.004631	0.000101
0.8913	298.15	0.003976	8.8e-05
1	293.15	0.004029	8.9e-05
1	298.15	0.003494	7.7e-05

System: pentan-1-ol + nonan-1-ol; phases: Liquid
Fixed: Pressure, kPa = 101
Property: Mass density, kg/m3 (Liquid); method: VIBTUB:UFactor:6
Mole fraction of pentan-1-ol	Temperature, K	Mass density, kg/m3	uncertainty
0	293.15	827.9	0.7
0	298.15	824.4	0.7
0.1155	293.15	826.6	0.7
0.1155	298.15	823.1	0.7
0.2155	293.15	825.6	0.7
0.2155	298.15	822.2	0.7
0.3161	293.15	824.5	0.6
0.3161	298.15	821.1	0.7
0.4052	293.15	823.6	0.6
0.4052	298.15	820.1	0.7
0.5066	293.15	822.4	0.6
0.5066	298.15	818.9	0.6
0.6079	293.15	821	0.6
0.6079	298.15	817.5	0.6
0.7036	293.15	819.6	0.6
0.7036	298.15	816.1	0.6
0.7935	293.15	818.2	0.6
0.7935	298.15	814.7	0.6
0.8913	293.15	816.6	0.6
0.8913	298.15	813	0.6
1	293.15	814.6	0.6
1	298.15	811	0.6

System: propan-1-ol + heptan-1-ol; phases: Liquid
Fixed: Pressure, kPa = 101
Property: Viscosity, Pa*s (Liquid); method: CAPTUB:UFactor:4
Mole fraction of propan-1-ol	Temperature, K	Viscosity, Pa*s	uncertainty
0	293.15	0.007104	0.000142
0	298.15	0.005993	0.000124
0.09	293.15	0.006596	0.000134
0.09	298.15	0.005614	0.000118
0.1795	293.15	0.00608	0.000125
0.1795	298.15	0.005158	0.000111
0.3279	293.15	0.005288	0.000113
0.3279	298.15	0.004519	9.9e-05
0.4103	293.15	0.004862	0.000106
0.4103	298.15	0.004174	9.2e-05
0.5058	293.15	0.004282	9.4e-05
0.5058	298.15	0.003714	8.2e-05
0.6106	293.15	0.003825	8.4e-05
0.6106	298.15	0.003342	7.4e-05
0.6991	293.15	0.003443	7.6e-05
0.6991	298.15	0.003009	6.7e-05
0.7989	293.15	0.003011	6.7e-05
0.7989	298.15	0.002634	5.9e-05
0.8882	293.15	0.002643	6e-05
0.8882	298.15	0.00234	5.3e-05
1	293.15	0.002272	5.2e-05
1	298.15	0.001966	4.5e-05

System: propan-1-ol + heptan-1-ol; phases: Liquid
Fixed: Pressure, kPa = 101
Property: Mass density, kg/m3 (Liquid); method: VIBTUB:UFactor:6
Mole fraction of propan-1-ol	Temperature, K	Mass density, kg/m3	uncertainty
0	293.15	822.2	0.6
0	298.15	818.7	0.6
0.09	293.15	821.2	0.6
0.09	298.15	817.7	0.6
0.1795	293.15	820.2	0.6
0.1795	298.15	816.7	0.6
0.3279	293.15	818.2	0.6
0.3279	298.15	814.6	0.6
0.4103	293.15	816.9	0.6
0.4103	298.15	813.3	0.6
0.5058	293.15	815.3	0.6
0.5058	298.15	811.7	0.6
0.6106	293.15	813.5	0.6
0.6106	298.15	809.8	0.6
0.6991	293.15	811.6	0.6
0.6991	298.15	807.9	0.6
0.7989	293.15	809.3	0.6
0.7989	298.15	805.6	0.6
0.8882	293.15	807	0.6
0.8882	298.15	803.2	0.7
1	293.15	803.5	0.7
1	298.15	799.6	0.7

System: pentan-1-ol + 1-undecanol; phases: Liquid
Fixed: Pressure, kPa = 101
Property: Viscosity, Pa*s (Liquid); method: CAPTUB:UFactor:4
Mole fraction of pentan-1-ol	Temperature, K	Viscosity, Pa*s	uncertainty
0	293.15	0.017182	0.000299
0	298.15	0.014025	0.00025
0.1218	293.15	0.015921	0.000279
0.1218	298.15	0.013036	0.000235
0.2312	293.15	0.013844	0.000247
0.2312	298.15	0.011404	0.000209
0.3167	293.15	0.012281	0.000222
0.3167	298.15	0.010139	0.000189
0.4002	293.15	0.011174	0.000205
0.4002	298.15	0.009277	0.000176
0.5076	293.15	0.009516	0.000179
0.5076	298.15	0.007956	0.000155
0.6003	293.15	0.008205	0.000159
0.6003	298.15	0.006902	0.000138
0.6977	293.15	0.006943	0.000139
0.6977	298.15	0.005846	0.000122
0.7982	293.15	0.005804	0.000121
0.7982	298.15	0.004908	0.000107
0.8954	293.15	0.00487	0.000106
0.8954	298.15	0.00416	9.1e-05
1	293.15	0.004029	8.9e-05
1	298.15	0.003494	7.7e-05

System: pentan-1-ol + 1-undecanol; phases: Liquid
Fixed: Pressure, kPa = 101
Property: Mass density, kg/m3 (Liquid); method: VIBTUB:UFactor:6
Mole fraction of pentan-1-ol	Temperature, K	Mass density, kg/m3	uncertainty
0	293.15	832.5	0.6
0	298.15	829	0.6
0.1218	293.15	830.3	0.6
0.1218	298.15	826.9	0.6
0.2312	293.15	829.1	0.6
0.2312	298.15	825.7	0.6
0.3167	293.15	828	0.6
0.3167	298.15	824.6	0.6
0.4002	293.15	826.9	0.6
0.4002	298.15	823.5	0.6
0.5076	293.15	825.2	0.6
0.5076	298.15	821.8	0.6
0.6003	293.15	823.7	0.6
0.6003	298.15	820.3	0.6
0.6977	293.15	822	0.6
0.6977	298.15	818.5	0.6
0.7982	293.15	819.8	0.6
0.7982	298.15	816.3	0.6
0.8954	293.15	817.5	0.6
0.8954	298.15	813.9	0.6
1	293.15	814.6	0.6
1	298.15	811	0.6

System: propan-1-ol + nonan-1-ol; phases: Liquid
Fixed: Pressure, kPa = 101
Property: Viscosity, Pa*s (Liquid); method: CAPTUB:UFactor:4
Mole fraction of propan-1-ol	Temperature, K	Viscosity, Pa*s	uncertainty
0	293.15	0.011683	0.000217
0	298.15	0.009671	0.000185
0.0808	293.15	0.010861	0.000203
0.0808	298.15	0.009007	0.000174
0.2286	293.15	0.009037	0.000174
0.2286	298.15	0.00755	0.00015
0.3296	293.15	0.007921	0.000155
0.3296	298.15	0.006701	0.000136
0.4104	293.15	0.007097	0.000142
0.4104	298.15	0.006002	0.000125
0.5176	293.15	0.006051	0.000125
0.5176	298.15	0.005147	0.000111
0.6051	293.15	0.005268	0.000113
0.6051	298.15	0.004513	9.9e-05
0.6801	293.15	0.004501	9.9e-05
0.6801	298.15	0.003904	8.6e-05
0.7961	293.15	0.003583	7.9e-05
0.7961	298.15	0.003129	7e-05
0.8945	293.15	0.0029	6.5e-05
0.8945	298.15	0.002554	5.8e-05
1	293.15	0.002272	5.2e-05
1	298.15	0.001966	4.5e-05

System: propan-1-ol + nonan-1-ol; phases: Liquid
Fixed: Pressure, kPa = 101
Property: Mass density, kg/m3 (Liquid); method: VIBTUB:UFactor:6
Mole fraction of propan-1-ol	Temperature, K	Mass density, kg/m3	uncertainty
0	293.15	827.9	0.7
0	298.15	824.4	0.7
0.0808	293.15	826.5	0.7
0.0808	298.15	823.1	0.7
0.2286	293.15	824.6	0.7
0.2286	298.15	821.2	0.7
0.3296	293.15	823.1	0.6
0.3296	298.15	819.6	0.7
0.4104	293.15	821.7	0.6
0.4104	298.15	818.2	0.6
0.5176	293.15	819.5	0.6
0.5176	298.15	816	0.6
0.6051	293.15	817.6	0.6
0.6051	298.15	814	0.6
0.6801	293.15	815.5	0.6
0.6801	298.15	811.9	0.6
0.7961	293.15	811.9	0.6
0.7961	298.15	808.3	0.6
0.8945	293.15	808.3	0.6
0.8945	298.15	804.5	0.7
1	293.15	803.5	0.7
1	298.15	799.6	0.7

System: heptan-1-ol + nonan-1-ol; phases: Liquid
Fixed: Pressure, kPa = 101
Property: Viscosity, Pa*s (Liquid); method: CAPTUB:UFactor:4
Mole fraction of heptan-1-ol	Temperature, K	Viscosity, Pa*s	uncertainty
0	293.15	0.011683	0.000217
0	298.15	0.009671	0.000185
0.1181	293.15	0.011157	0.000208
0.1181	298.15	0.009249	0.000178
0.2245	293.15	0.010561	0.000198
0.2245	298.15	0.008777	0.00017
0.307	293.15	0.010023	0.000189
0.307	298.15	0.008328	0.000162
0.4093	293.15	0.009551	0.000181
0.4093	298.15	0.007951	0.000156
0.5045	293.15	0.009146	0.000175
0.5045	298.15	0.007628	0.000151
0.5969	293.15	0.00861	0.000166
0.5969	298.15	0.007211	0.000144
0.6924	293.15	0.008347	0.000161
0.6924	298.15	0.006976	0.00014
0.7866	293.15	0.007968	0.000155
0.7866	298.15	0.006662	0.000135
0.8883	293.15	0.007439	0.000147
0.8883	298.15	0.006266	0.000129
1	293.15	0.007104	0.000142
1	298.15	0.005993	0.000124

System: heptan-1-ol + nonan-1-ol; phases: Liquid
Fixed: Pressure, kPa = 101
Property: Mass density, kg/m3 (Liquid); method: VIBTUB:UFactor:6
Mole fraction of heptan-1-ol	Temperature, K	Mass density, kg/m3	uncertainty
0	293.15	827.9	0.7
0	298.15	824.4	0.7
0.1181	293.15	827	0.7
0.1181	298.15	823.6	0.7
0.2245	293.15	826.6	0.7
0.2245	298.15	823.2	0.7
0.307	293.15	826.2	0.7
0.307	298.15	822.8	0.7
0.4093	293.15	825.7	0.6
0.4093	298.15	822.3	0.7
0.5045	293.15	825.1	0.6
0.5045	298.15	821.7	0.6
0.5969	293.15	824.7	0.6
0.5969	298.15	821.2	0.6
0.6924	293.15	824.2	0.6
0.6924	298.15	820.7	0.6
0.7866	293.15	823.6	0.6
0.7866	298.15	820.2	0.6
0.8883	293.15	823	0.6
0.8883	298.15	819.5	0.6
1	293.15	822.2	0.6
1	298.15	818.7	0.6

System: propan-1-ol + 1-undecanol; phases: Liquid
Fixed: Pressure, kPa = 101
Property: Viscosity, Pa*s (Liquid); method: CAPTUB:UFactor:4
Mole fraction of propan-1-ol	Temperature, K	Viscosity, Pa*s	uncertainty
0	293.15	0.017182	0.000299
0	298.15	0.014025	0.00025
0.1283	293.15	0.015076	0.000266
0.1283	298.15	0.01237	0.00022
0.2079	293.15	0.01344	0.00024
0.2079	298.15	0.011112	0.000204
0.3145	293.15	0.01156	0.00021
0.3145	298.15	0.009558	0.00018
0.4057	293.15	0.010057	0.000187
0.4057	298.15	0.008394	0.000162
0.5075	293.15	0.008321	0.00016
0.5075	298.15	0.006998	0.00014
0.6096	293.15	0.006814	0.000137
0.6096	298.15	0.005804	0.000121
0.6937	293.15	0.005634	0.000118
0.6937	298.15	0.004823	0.000105
0.7922	293.15	0.004399	9.6e-05
0.7922	298.15	0.003808	8.4e-05
0.8907	293.15	0.003274	7.3e-05
0.8907	298.15	0.002857	6.4e-05
1	293.15	0.002272	5.2e-05
1	298.15	0.001966	4.5e-05

System: propan-1-ol + 1-undecanol; phases: Liquid
Fixed: Pressure, kPa = 101
Property: Mass density, kg/m3 (Liquid); method: VIBTUB:UFactor:6
Mole fraction of propan-1-ol	Temperature, K	Mass density, kg/m3	uncertainty
0	293.15	832.5	0.6
0	298.15	829	0.6
0.1283	293.15	830.7	0.6
0.1283	298.15	827.3	0.6
0.2079	293.15	829.6	0.6
0.2079	298.15	826.2	0.6
0.3145	293.15	827.9	0.6
0.3145	298.15	824.4	0.6
0.4057	293.15	826.1	0.6
0.4057	298.15	822.6	0.6
0.5075	293.15	824	0.6
0.5075	298.15	820.5	0.6
0.6096	293.15	821.3	0.6
0.6096	298.15	817.7	0.6
0.6937	293.15	818.7	0.6
0.6937	298.15	815.1	0.6
0.7922	293.15	815	0.6
0.7922	298.15	811.4	0.6
0.8907	293.15	810.3	0.6
0.8907	298.15	806.5	0.6
1	293.15	803.5	0.7
1	298.15	799.6	0.7

System: heptan-1-ol + 1-undecanol; phases: Liquid
Fixed: Pressure, kPa = 101
Property: Viscosity, Pa*s (Liquid); method: CAPTUB:UFactor:8
Mole fraction of heptan-1-ol	Temperature, K	Viscosity, Pa*s	uncertainty
0	293.15	0.017182	0.000595
0	298.15	0.014025	0.000497
0.1245	293.15	0.01637	0.00057
0.1245	298.15	0.013357	0.000477
0.2254	293.15	0.014955	0.000526
0.2254	298.15	0.012258	0.000443
0.2988	293.15	0.01379	0.00049
0.2988	298.15	0.011297	0.000413
0.4142	293.15	0.012925	0.000463
0.4142	298.15	0.010658	0.000393
0.5086	293.15	0.011827	0.000429
0.5086	298.15	0.00979	0.000366
0.5895	293.15	0.010825	0.000398
0.5895	298.15	0.008971	0.00034
0.6993	293.15	0.009924	0.00037
0.6993	298.15	0.008253	0.000318
0.7866	293.15	0.008997	0.000341
0.7866	298.15	0.007511	0.000295
0.8888	293.15	0.008005	0.00031
0.8888	298.15	0.006711	0.00027
1	293.15	0.007104	0.000282
1	298.15	0.005993	0.000248

System: heptan-1-ol + 1-undecanol; phases: Liquid
Fixed: Pressure, kPa = 101
Property: Mass density, kg/m3 (Liquid); method: VIBTUB:UFactor:6
Mole fraction of heptan-1-ol	Temperature, K	Mass density, kg/m3	uncertainty
0	293.15	832.5	0.6
0	298.15	829	0.6
0.1245	293.15	830.7	0.6
0.1245	298.15	827.3	0.6
0.2254	293.15	830	0.6
0.2254	298.15	826.6	0.6
0.2988	293.15	829.4	0.6
0.2988	298.15	826	0.6
0.4142	293.15	828.4	0.6
0.4142	298.15	825	0.6
0.5086	293.15	827.6	0.6
0.5086	298.15	824.2	0.6
0.5895	293.15	826.8	0.6
0.5895	298.15	823.4	0.6
0.6993	293.15	825.7	0.6
0.6993	298.15	822.3	0.6
0.7866	293.15	824.8	0.6
0.7866	298.15	821.3	0.6
0.8888	293.15	823.6	0.6
0.8888	298.15	820.2	0.6
1	293.15	822.2	0.6
1	298.15	818.7	0.6

System: pentan-1-ol + heptan-1-ol; phases: Liquid
Fixed: Pressure, kPa = 101
Property: Viscosity, Pa*s (Liquid); method: CAPTUB:UFactor:4
Mole fraction of pentan-1-ol	Temperature, K	Viscosity, Pa*s	uncertainty
0	293.15	0.007104	0.000142
0	298.15	0.005993	0.000124
0.123	293.15	0.006696	0.000135
0.123	298.15	0.005692	0.00012
0.2117	293.15	0.006374	0.00013
0.2117	298.15	0.005408	0.000115
0.3131	293.15	0.006079	0.000125
0.3131	298.15	0.005158	0.000111
0.4177	293.15	0.005758	0.00012
0.4177	298.15	0.004899	0.000107
0.5088	293.15	0.005421	0.000115
0.5088	298.15	0.004652	0.000102
0.5897	293.15	0.005177	0.000111
0.5897	298.15	0.004431	9.7e-05
0.6996	293.15	0.004887	0.000106
0.6996	298.15	0.004189	9.2e-05
0.7885	293.15	0.004651	0.000101
0.7885	298.15	0.003997	8.8e-05
0.8909	293.15	0.004287	9.4e-05
0.8909	298.15	0.003717	8.2e-05
1	293.15	0.004029	8.9e-05
1	298.15	0.003494	7.7e-05

System: pentan-1-ol + heptan-1-ol; phases: Liquid
Fixed: Pressure, kPa = 101
Property: Mass density, kg/m3 (Liquid); method: VIBTUB:UFactor:6
Mole fraction of pentan-1-ol	Temperature, K	Mass density, kg/m3	uncertainty
0	293.15	822.2	0.6
0	298.15	818.7	0.6
0.123	293.15	821.4	0.6
0.123	298.15	818	0.6
0.2117	293.15	820.8	0.6
0.2117	298.15	817.4	0.6
0.3131	293.15	820.2	0.6
0.3131	298.15	816.7	0.6
0.4177	293.15	819.4	0.6
0.4177	298.15	815.9	0.6
0.5088	293.15	818.8	0.6
0.5088	298.15	815.3	0.6
0.5897	293.15	818.2	0.6
0.5897	298.15	814.7	0.6
0.6996	293.15	817.3	0.6
0.6996	298.15	813.8	0.6
0.7885	293.15	816.5	0.6
0.7885	298.15	812.9	0.6
0.8909	293.15	815.6	0.6
0.8909	298.15	812	0.6
1	293.15	814.6	0.6
1	298.15	811	0.6

System: 1-undecanol + nonan-1-ol; phases: Liquid
Fixed: Pressure, kPa = 101
Property: Viscosity, Pa*s (Liquid); method: CAPTUB:UFactor:4
Mole fraction of nonan-1-ol	Temperature, K	Viscosity, Pa*s	uncertainty
0	293.15	0.017182	0.000299
0	298.15	0.014025	0.00025
0.1177	293.15	0.016862	0.000295
0.1177	298.15	0.013844	0.000248
0.248	293.15	0.016214	0.000285
0.248	298.15	0.013303	0.00024
0.3116	293.15	0.015565	0.000275
0.3116	298.15	0.01272	0.000231
0.4007	293.15	0.015495	0.000275
0.4007	298.15	0.012679	0.00023
0.5017	293.15	0.014663	0.000262
0.5017	298.15	0.012031	0.000221
0.6004	293.15	0.013829	0.000249
0.6004	298.15	0.011327	0.00021
0.6921	293.15	0.0135	0.000245
0.6921	298.15	0.011116	0.000207
0.7943	293.15	0.012789	0.000234
0.7943	298.15	0.010552	0.000198
0.8915	293.15	0.01206	0.000223
0.8915	298.15	0.009982	0.00019
1	293.15	0.011683	0.000217
1	298.15	0.009671	0.000185

System: 1-undecanol + nonan-1-ol; phases: Liquid
Fixed: Pressure, kPa = 101
Property: Mass density, kg/m3 (Liquid); method: VIBTUB:UFactor:6
Mole fraction of nonan-1-ol	Temperature, K	Mass density, kg/m3	uncertainty
0	293.15	832.5	0.6
0	298.15	829	0.6
0.1177	293.15	831.4	0.6
0.1177	298.15	827.9	0.6
0.248	293.15	830.8	0.6
0.248	298.15	827.4	0.6
0.3116	293.15	830.5	0.6
0.3116	298.15	827.1	0.6
0.4007	293.15	830.2	0.6
0.4007	298.15	826.8	0.6
0.5017	293.15	829.8	0.6
0.5017	298.15	826.4	0.6
0.6004	293.15	829.4	0.6
0.6004	298.15	826	0.7
0.6921	293.15	829	0.7
0.6921	298.15	825.6	0.7
0.7943	293.15	828.6	0.7
0.7943	298.15	825.2	0.7
0.8915	293.15	828.1	0.7
0.8915	298.15	824.7	0.7
1	293.15	827.9	0.7
1	298.15	824.4	0.7
