Measured thermophysical data. Densities, Viscosities, and Heat Capacities of Ammonia + Lithium Nitrate and Ammonia + Lithium Nitrate + Water Solutions between (293.15 and 353.15) K
Source: J. Chem. Eng. Data, 2008, 10.1021/je8003035
Compound 1: ammonia, H3N, InChI=1S/H3N/h1H3
Compound 2: water, H2O, InChI=1S/H2O/h1H2
Compound 3: lithium nitrate, LiNO3, InChI=1S/Li.NO3/c;2-1(3)4/q+1;-1

System: ammonia + lithium nitrate; phases: Liquid
Fixed: Pressure, kPa = 1800
Property: Molar heat capacity at constant pressure, J/K/mol (Liquid); method: Small sample (50 mg) DSC
Temperature, K	Mass fraction of ammonia	Molar heat capacity at constant pressure, J/K/mol	uncertainty
312.65	0.5	85.8757	1.338
312.67	0.3501	84.4801	1.301
312.67	0.4003	84.6507	1.304
312.67	0.4499	85.2136	1.308
312.67	0.5497	84.7495	1.314
322.56	0.5	86.6678	1.338
322.57	0.3501	85.6141	1.334
322.58	0.4003	85.7997	1.335
322.58	0.4499	86.2021	1.337
322.58	0.5497	85.5483	1.314
332.46	0.5	87.5419	1.366
332.48	0.3501	86.648	1.334
332.48	0.4499	87.2196	1.337
332.48	0.5497	86.0894	1.34
332.49	0.4003	86.7002	1.335
342.37	0.5	88.334	1.366
342.38	0.3501	87.5151	1.367
342.38	0.5497	86.9655	1.34
342.39	0.4003	87.5076	1.366
342.39	0.4499	88.0918	1.366
352.29	0.3501	88.2155	1.367
352.29	0.4003	88.0665	1.366
352.31	0.4499	88.5861	1.366

System: ammonia + lithium nitrate; phases: Liquid
Fixed: Pressure, kPa = 1800
Property: Viscosity, Pa*s (Liquid); method: Falling or rolling sphere viscometry
Temperature, K	Mass fraction of ammonia	Viscosity, Pa*s	uncertainty
293.2	0.4	0.0227	0.0005
293.2	0.4997	0.0071	0.0004
298.2	0.4	0.0187	0.0005
298.2	0.4997	0.0061	0.0004
303.2	0.4	0.0155	0.0004
303.2	0.4997	0.0053	0.0004
308.2	0.4	0.013	0.0004
308.2	0.4997	0.0047	0.0004
313.2	0.4	0.011	0.0004
313.2	0.4997	0.0041	0.0004
318.2	0.4	0.0093	0.0004
318.2	0.4997	0.0036	0.0004
323.2	0.3	0.0186	0.0004
323.2	0.4	0.008	0.0004
323.2	0.4997	0.0033	0.0004
328.1	0.4997	0.0029	0.0004
328.2	0.3	0.0159	0.0004
328.2	0.4	0.0069	0.0004
333.1	0.4997	0.0026	0.0004
333.2	0.3	0.0138	0.0004
333.2	0.4	0.0061	0.0004
338	0.4997	0.0024	0.0004
338.1	0.3	0.0119	0.0004
338.1	0.4	0.0054	0.0004
343	0.4997	0.0022	0.0004
343.1	0.3	0.0109	0.0004
343.1	0.4	0.0048	0.0004
348.1	0.3	0.009	0.0004
348.2	0.4	0.0043	0.0004
353.1	0.4	0.0038	0.0004
353.2	0.3	0.0079	0.0004

System: ammonia + lithium nitrate; phases: Liquid
Fixed: Pressure, kPa = 1800
Property: Mass density, kg/m3 (Liquid); method: Vibrating tube method
Temperature, K	Mole fraction of ammonia	Mass density, kg/m3	uncertainty
293.15	0.3501	1188.8	0.8
293.15	0.3988	1134.2	0.8
293.15	0.4499	1078.1	0.8
293.15	0.5	1030	0.8
293.15	0.55	983.8	0.7
293.15	0.5999	939	0.7
293.15	0.6505	896.8	0.7
303.15	0.3501	1181.2	0.8
303.15	0.3988	1126.6	0.8
303.15	0.4499	1070.3	0.8
303.15	0.5	1022.1	0.8
303.15	0.55	975.4	0.7
303.15	0.5999	929.8	0.7
303.15	0.6505	886.9	0.7
313.15	0.3501	1173.8	0.8
313.15	0.3988	1119	0.8
313.15	0.4499	1062.6	0.8
313.15	0.5	1014.1	0.8
313.15	0.55	966.8	0.7
313.15	0.5999	920.6	0.7
313.15	0.6505	876.7	0.7
323.15	0.3501	1166.6	0.8
323.15	0.3988	1111.5	0.8
323.15	0.4499	1055.1	0.8
323.15	0.5	1006.1	0.8
323.15	0.55	958.1	0.7
323.15	0.5999	911.2	0.7
323.15	0.6505	866.6	0.7
333.15	0.3501	1159.7	0.8
333.15	0.3988	1104.1	0.8
333.15	0.4499	1047.5	0.8
333.15	0.5	998	0.8
333.15	0.55	949.4	0.7
333.15	0.5999	901.6	0.7
343.15	0.3501	1153.1	0.8
343.15	0.3988	1096.9	0.8
343.15	0.4499	1040	0.8
343.15	0.5	990.1	0.8
343.15	0.55	940.4	0.8
353.15	0.3501	1146.9	0.8
353.15	0.3988	1090.2	0.8
353.15	0.4499	1032.8	0.8
353.15	0.5	982.1	0.8

System: ammonia + water + lithium nitrate; phases: Liquid
Fixed: Pressure, kPa = 1800
Property: Molar heat capacity at constant pressure, J/K/mol (Liquid); method: Small sample (50 mg) DSC
Temperature, K	Mass fraction of ammonia	Mass fraction of lithium nitrate	Molar heat capacity at constant pressure, J/K/mol	uncertainty
312.67	0.2947	0.564	80.0532	1.23
312.67	0.2993	0.5254	78.9684	1.231
312.67	0.3003	0.4901	78.1558	1.21
312.67	0.3999	0.4799	80.8591	1.239
312.67	0.4	0.45	80.0463	1.252
312.67	0.4001	0.42	78.9725	1.213
312.67	0.4999	0.3498	80.2206	1.239
312.67	0.4999	0.4001	82.0251	1.277
312.67	0.5	0.3749	81.048	1.246
322.57	0.2947	0.564	81.1633	1.26
322.57	0.2993	0.5254	79.9705	1.231
322.57	0.3003	0.4901	79.118	1.237
322.57	0.3999	0.4799	81.8291	1.266
322.57	0.4001	0.42	79.9833	1.238
322.57	0.4999	0.3498	81.0389	1.263
322.57	0.4999	0.4001	82.7866	1.277
322.58	0.5	0.3749	81.8865	1.27
322.59	0.4	0.45	81.0896	1.252
332.48	0.2947	0.564	81.8235	1.26
332.48	0.2993	0.5254	80.7149	1.26
332.48	0.3003	0.4901	79.8328	1.237
332.48	0.3999	0.4799	82.6913	1.293
332.48	0.4001	0.42	80.7162	1.238
332.48	0.4999	0.4001	83.4499	1.302
332.48	0.5	0.3749	82.5334	1.27
332.49	0.4	0.45	81.7938	1.278
332.49	0.4999	0.3498	81.6468	1.263
342.38	0.2947	0.564	82.4236	1.29
342.38	0.2993	0.5254	81.5166	1.26
342.38	0.3003	0.4901	80.6025	1.237
342.38	0.3999	0.4799	83.6074	1.293
342.38	0.4001	0.42	81.4743	1.264
342.38	0.4999	0.3498	82.3716	1.286
342.38	0.4999	0.4001	84.1869	1.302
342.38	0.5	0.3749	83.2281	1.294
342.39	0.4	0.45	82.472	1.278
352.29	0.2947	0.564	83.1737	1.29
352.29	0.2993	0.5254	82.2038	1.26
352.29	0.3003	0.4901	81.3997	1.265
352.29	0.3999	0.4799	84.3618	1.32
352.29	0.4	0.45	83.2805	1.278
352.29	0.4001	0.42	82.1819	1.264

System: ammonia + water + lithium nitrate; phases: Liquid
Fixed: Pressure, kPa = 1800
Property: Viscosity, Pa*s (Liquid); method: Falling or rolling sphere viscometry
Temperature, K	Mass fraction of ammonia	Mass fraction of lithium nitrate	Viscosity, Pa*s	uncertainty
293.1	0.2961	0.4926	0.0106	0.0004
293.1	0.2971	0.5294	0.014	0.0004
293.2	0.2999	0.56	0.0189	0.0005
293.2	0.3997	0.4803	0.0093	0.0004
293.2	0.4	0.45	0.0076	0.0004
293.2	0.4996	0.3502	0.0029	0.0004
293.2	0.4998	0.4	0.0037	0.0004
293.2	0.5	0.3749	0.0033	0.0004
298.1	0.2961	0.4926	0.0089	0.0004
298.1	0.2971	0.5294	0.0118	0.0004
298.2	0.2999	0.56	0.0157	0.0004
298.2	0.3995	0.4205	0.0053	0.0004
298.2	0.3997	0.4803	0.0078	0.0004
298.2	0.4	0.45	0.0064	0.0004
298.2	0.4996	0.3502	0.0026	0.0004
298.2	0.4998	0.4	0.0032	0.0004
298.2	0.5	0.3749	0.0029	0.0004
303.1	0.2961	0.4926	0.0075	0.0004
303.1	0.2971	0.5294	0.0098	0.0004
303.1	0.4998	0.4	0.0029	0.0004
303.2	0.2999	0.56	0.0131	0.0004
303.2	0.3995	0.4205	0.0046	0.0004
303.2	0.3997	0.4803	0.0066	0.0004
303.2	0.4	0.45	0.0055	0.0004
303.2	0.4996	0.3502	0.0023	0.0004
303.2	0.5	0.3749	0.0026	0.0004
303.6	0.1999	0.6006	0.0153	0.0004
308.1	0.2961	0.4926	0.0065	0.0004
308.1	0.2971	0.5294	0.0084	0.0004
308.1	0.4996	0.3502	0.002	0.0004
308.1	0.4998	0.4	0.0026	0.0004
308.1	0.5	0.3749	0.0023	0.0004
308.2	0.2999	0.56	0.0111	0.0004
308.2	0.3995	0.4205	0.004	0.0004
308.2	0.3997	0.4803	0.0057	0.0004
308.2	0.4	0.45	0.0048	0.0004
313.1	0.2961	0.4926	0.0057	0.0004
313.1	0.4996	0.3502	0.0018	0.0004
313.1	0.4998	0.4	0.0023	0.0004
313.1	0.5	0.3749	0.0021	0.0004
313.2	0.2971	0.5294	0.0072	0.0004
313.2	0.2999	0.56	0.0095	0.0004
313.2	0.3995	0.4205	0.0035	0.0004
313.2	0.3997	0.4803	0.005	0.0004
313.2	0.4	0.45	0.0043	0.0004
313.6	0.1999	0.6006	0.0111	0.0004
318.1	0.2961	0.4926	0.005	0.0004
318.1	0.2971	0.5294	0.0063	0.0004
318.1	0.4996	0.3502	0.0017	0.0004
318.1	0.4998	0.4	0.0021	0.0004
318.1	0.5	0.3749	0.0019	0.0004
318.2	0.2999	0.56	0.0081	0.0004
318.2	0.3995	0.4205	0.0031	0.0004
318.2	0.3997	0.4803	0.0044	0.0004
318.2	0.4	0.45	0.0037	0.0004
323	0.4996	0.3502	0.0015	0.0004
323.1	0.2961	0.4926	0.0045	0.0004
323.1	0.2971	0.5294	0.0056	0.0004
323.1	0.3995	0.4205	0.0028	0.0004
323.1	0.4998	0.4	0.0019	0.0004
323.1	0.5	0.3749	0.0017	0.0004
323.2	0.2999	0.56	0.007	0.0004
323.2	0.3997	0.4803	0.0039	0.0004
323.2	0.4	0.45	0.0033	0.0004
323.6	0.1999	0.6006	0.0083	0.0004
328	0.4996	0.3502	0.0014	0.0004
328	0.4998	0.4	0.0017	0.0004
328	0.5	0.3749	0.0016	0.0004
328.1	0.2961	0.4926	0.004	0.0004
328.1	0.2971	0.5294	0.0049	0.0004
328.1	0.3995	0.4205	0.0025	0.0004
328.1	0.3997	0.4803	0.0035	0.0004
328.1	0.4	0.45	0.003	0.0004
328.2	0.2999	0.56	0.0062	0.0004
332.9	0.4996	0.3502	0.0013	0.0004
332.9	0.4998	0.4	0.0016	0.0004
332.9	0.5	0.3749	0.0014	0.0004
333	0.3995	0.4205	0.0023	0.0004
333.1	0.2961	0.4926	0.0036	0.0004
333.1	0.2971	0.5294	0.0044	0.0004
333.1	0.2999	0.56	0.0055	0.0004
333.1	0.3997	0.4803	0.0031	0.0004
333.1	0.4	0.45	0.0027	0.0004
333.6	0.1999	0.6006	0.0065	0.0004
337.9	0.4998	0.4	0.0015	0.0004
337.9	0.5	0.3749	0.0013	0.0004
338	0.2961	0.4926	0.0032	0.0004
338	0.3995	0.4205	0.0021	0.0004
338.1	0.2971	0.5294	0.004	0.0004
338.1	0.2999	0.56	0.0049	0.0004
338.1	0.3997	0.4803	0.0028	0.0004
338.1	0.4	0.45	0.0024	0.0004
343	0.2961	0.4926	0.0029	0.0004
343	0.3995	0.4205	0.0019	0.0004
343.1	0.2971	0.5294	0.0036	0.0004
343.1	0.2999	0.56	0.0044	0.0004
343.1	0.3997	0.4803	0.0025	0.0004
343.1	0.4	0.45	0.0022	0.0004
343.7	0.1999	0.6006	0.0052	0.0004
347.9	0.3995	0.4205	0.0017	0.0004
348	0.3997	0.4803	0.0023	0.0004
348.1	0.2961	0.4926	0.0026	0.0004
348.1	0.2971	0.5294	0.0032	0.0004
348.1	0.2999	0.56	0.004	0.0004
348.1	0.4	0.45	0.002	0.0004
352.9	0.3995	0.4205	0.0016	0.0004
353	0.2961	0.4926	0.0024	0.0004
353	0.3997	0.4803	0.0021	0.0004
353	0.4	0.45	0.0018	0.0004
353.1	0.2971	0.5294	0.0029	0.0004
353.2	0.2999	0.56	0.0035	0.0004
353.7	0.1999	0.6006	0.0042	0.0004

System: ammonia + water + lithium nitrate; phases: Liquid
Fixed: Pressure, kPa = 1800
Property: Mass density, kg/m3 (Liquid); method: Vibrating tube method
Temperature, K	Mass fraction of ammonia	Mass fraction of lithium nitrate	Mass density, kg/m3	uncertainty
293.15	0.1996	0.5603	1234.5	0.7
293.15	0.1998	0.6002	1263.9	0.7
293.15	0.2003	0.6393	1292.3	0.7
293.15	0.2999	0.5249	1148.8	0.7
293.15	0.3001	0.5599	1169.2	0.7
293.15	0.3002	0.4893	1127.4	0.7
293.15	0.3998	0.4496	1054.7	0.7
293.15	0.3999	0.4201	1040.4	0.7
293.15	0.4001	0.4793	1070.2	0.7
293.15	0.4999	0.4001	987.1	0.7
293.15	0.5001	0.35	966.5	0.7
293.15	0.5008	0.3744	975.1	0.7
293.15	0.6	0.2795	891.5	0.6
293.15	0.6	0.3	899.5	0.6
293.15	0.6	0.3198	907.9	0.7
303.15	0.1996	0.5603	1227	0.7
303.15	0.1998	0.6002	1256.2	0.7
303.15	0.2003	0.6393	1284.4	0.7
303.15	0.2999	0.5249	1141.5	0.7
303.15	0.3001	0.5599	1161.5	0.7
303.15	0.3002	0.4893	1120	0.7
303.15	0.3998	0.4496	1047.1	0.7
303.15	0.3999	0.4201	1032.6	0.7
303.15	0.4001	0.4793	1062.4	0.7
303.15	0.4999	0.4001	978.1	0.7
303.15	0.5001	0.35	957.6	0.7
303.15	0.5008	0.3744	966.4	0.7
303.15	0.6	0.2795	881.5	0.7
303.15	0.6	0.3	889.5	0.7
303.15	0.6	0.3198	898	0.7
313.15	0.1996	0.5603	1219.7	0.7
313.15	0.1998	0.6002	1249.4	0.7
313.15	0.2003	0.6393	1277.1	0.7
313.15	0.2999	0.5249	1134.4	0.7
313.15	0.3001	0.5599	1154	0.7
313.15	0.3002	0.4893	1112.8	0.7
313.15	0.3998	0.4496	1039.6	0.7
313.15	0.3999	0.4201	1024.8	0.7
313.15	0.4001	0.4793	1054.7	0.7
313.15	0.4999	0.4001	969.4	0.7
313.15	0.5001	0.35	948.8	0.7
313.15	0.5008	0.3744	957.9	0.7
313.15	0.6	0.2795	871.3	0.7
313.15	0.6	0.3	879.4	0.7
313.15	0.6	0.3198	888.1	0.7
323.15	0.1996	0.5603	1212.9	0.7
323.15	0.1998	0.6002	1242.7	0.7
323.15	0.2003	0.6393	1270.1	0.7
323.15	0.2999	0.5249	1127.6	0.7
323.15	0.3001	0.5599	1147	0.7
323.15	0.3002	0.4893	1105.8	0.7
323.15	0.3998	0.4496	1032.3	0.7
323.15	0.3999	0.4201	1017.1	0.7
323.15	0.4001	0.4793	1047.2	0.7
323.15	0.4999	0.4001	960.7	0.7
323.15	0.5001	0.35	939.9	0.7
323.15	0.5008	0.3744	949.3	0.7
323.15	0.6	0.2795	861	0.7
323.15	0.6	0.3	869.2	0.7
323.15	0.6	0.3198	878.1	0.7
333.15	0.1996	0.5603	1206.4	0.7
333.15	0.1998	0.6002	1236.6	0.7
333.15	0.2003	0.6393	1263.6	0.7
333.15	0.2999	0.5249	1121	0.7
333.15	0.3001	0.5599	1140.1	0.7
333.15	0.3002	0.4893	1098.9	0.7
333.15	0.3998	0.4496	1024.8	0.7
333.15	0.3999	0.4201	1009.3	0.7
333.15	0.4001	0.4793	1039.7	0.7
333.15	0.4999	0.4001	952	0.7
333.15	0.5001	0.35	930.9	0.7
333.15	0.5008	0.3744	940.7	0.7
333.15	0.6	0.2795	850.4	0.7
333.15	0.6	0.3	858.8	0.7
333.15	0.6	0.3198	867.8	0.7
343.15	0.1996	0.5603	1200	0.7
343.15	0.1998	0.6002	1230.7	0.7
343.15	0.2003	0.6393	1257.4	0.7
343.15	0.2999	0.5249	1115.4	0.7
343.15	0.3001	0.5599	1133.4	0.7
343.15	0.3002	0.4893	1092.2	0.7
343.15	0.3998	0.4496	1017.6	0.7
343.15	0.3999	0.4201	1001.7	0.7
343.15	0.4001	0.4793	1032.2	0.7
343.15	0.4999	0.4001	943.3	0.7
343.15	0.5001	0.35	922	0.7
343.15	0.5008	0.3744	931.7	0.7
353.15	0.1996	0.5603	1194.4	0.7
353.15	0.1998	0.6002	1225.2	0.7
353.15	0.2003	0.6393	1251.8	0.7
353.15	0.2999	0.5249	1108.4	0.7
353.15	0.3001	0.5599	1127.1	0.7
353.15	0.3002	0.4893	1085.8	0.7
353.15	0.3998	0.4496	1010.5	0.7
353.15	0.3999	0.4201	994.2	0.7
353.15	0.4001	0.4793	1024.9	0.7
