Measured thermophysical data. Activity Coefficients at Infinite Dilution of Alkanes, Alkenes, and Alkyl Benzenes in 1-Hexyl-3-methylimidazolium Trifluoromethanesulfonate Using Gas-Liquid Chromatography
Source: J. Chem. Eng. Data, 2008, 10.1021/je800043a
Compound 1: pentane, C5H12, InChI=1S/C5H12/c1-3-5-4-2/h3-5H2,1-2H3
Compound 2: 1-hexyl-3-methylimidazolium trifluoromethanesulfonate, C11H19F3N2O3S, InChI=1S/C10H19N2.CHF3O3S/c1-3-4-5-6-7-12-9-8-11(2)10-12;2-1(3,4)8(5,6)7/h8-10H,3-7H2,1-2H3;(H,5,6,7)/q+1;/p-1, purity 97%
Compound 3: hexane, C6H14, InChI=1S/C6H14/c1-3-5-6-4-2/h3-6H2,1-2H3
Compound 4: heptane, C7H16, InChI=1S/C7H16/c1-3-5-7-6-4-2/h3-7H2,1-2H3
Compound 5: octane, C8H18, InChI=1S/C8H18/c1-3-5-7-8-6-4-2/h3-8H2,1-2H3
Compound 6: nonane, C9H20, InChI=1S/C9H20/c1-3-5-7-9-8-6-4-2/h3-9H2,1-2H3
Compound 7: decane, C10H22, InChI=1S/C10H22/c1-3-5-7-9-10-8-6-4-2/h3-10H2,1-2H3
Compound 8: cyclohexane, C6H12, InChI=1S/C6H12/c1-2-4-6-5-3-1/h1-6H2
Compound 9: methylcyclohexane, C7H14, InChI=1S/C7H14/c1-7-5-3-2-4-6-7/h7H,2-6H2,1H3
Compound 10: 2,2,4-trimethylpentane, C8H18, InChI=1S/C8H18/c1-7(2)6-8(3,4)5/h7H,6H2,1-5H3
Compound 11: cyclohexene, C6H10, InChI=1S/C6H10/c1-2-4-6-5-3-1/h1-2H,3-6H2
Compound 12: styrene, C8H8, InChI=1S/C8H8/c1-2-8-6-4-3-5-7-8/h2-7H,1H2
Compound 13: benzene, C6H6, InChI=1S/C6H6/c1-2-4-6-5-3-1/h1-6H
Compound 14: toluene, C7H8, InChI=1S/C7H8/c1-7-5-3-2-4-6-7/h2-6H,1H3
Compound 15: ethylbenzene, C8H10, InChI=1S/C8H10/c1-2-8-6-4-3-5-7-8/h3-7H,2H2,1H3
Compound 16: 1,2-dimethylbenzene, C8H10, InChI=1S/C8H10/c1-7-5-3-4-6-8(7)2/h3-6H,1-2H3
Compound 17: 1,3-dimethylbenzene, C8H10, InChI=1S/C8H10/c1-7-4-3-5-8(2)6-7/h3-6H,1-2H3
Compound 18: 1,4-dimethylbenzene, C8H10, InChI=1S/C8H10/c1-7-3-5-8(2)6-4-7/h3-6H,1-2H3

System: pentane + 1-hexyl-3-methylimidazolium trifluoromethanesulfonate; phases: Liquid, Gas
Fixed: Mole fraction of pentane = 0
Property: Activity coefficient of pentane (Liquid); method: Chromatography
Temperature, K	Activity coefficient of pentane	uncertainty
303.15	14.79	1.56
313.15	14.63	1.54
323.15	14.46	1.52
333.15	14.32	1.51
343.15	14.11	1.48
353.15	14.01	1.47
363.15	13.9	1.5

System: hexane + 1-hexyl-3-methylimidazolium trifluoromethanesulfonate; phases: Liquid, Gas
Fixed: Mole fraction of hexane = 0
Property: Activity coefficient of hexane (Liquid); method: Chromatography
Temperature, K	Activity coefficient of hexane	uncertainty
303.15	21.33	2.24
313.15	21.24	2.23
323.15	21.08	2.22
333.15	20.89	2.2
343.15	20.76	2.18
353.15	20.69	2.18
363.15	20.53	2.16

System: heptane + 1-hexyl-3-methylimidazolium trifluoromethanesulfonate; phases: Liquid, Gas
Fixed: Mole fraction of heptane = 0
Property: Activity coefficient of heptane (Liquid); method: Chromatography
Temperature, K	Activity coefficient of heptane	uncertainty
303.15	26.91	2.83
313.15	26.73	2.81
323.15	26.61	2.8
333.15	26.47	2.79
343.15	26.37	2.78
353.15	26.27	2.76
363.15	26.1	2.7

System: octane + 1-hexyl-3-methylimidazolium trifluoromethanesulfonate; phases: Liquid, Gas
Fixed: Mole fraction of octane = 0
Property: Activity coefficient of octane (Liquid); method: Chromatography
Temperature, K	Activity coefficient of octane	uncertainty
303.15	35.02	3.69
313.15	34.48	3.63
323.15	33.94	3.57
333.15	33.42	3.52
343.15	33.15	3.49
353.15	32.73	3.44
363.15	32.03	3.37

System: nonane + 1-hexyl-3-methylimidazolium trifluoromethanesulfonate; phases: Liquid, Gas
Fixed: Mole fraction of nonane = 0
Property: Activity coefficient of nonane (Liquid); method: Chromatography
Temperature, K	Activity coefficient of nonane	uncertainty
303.15	45.43	4.78
313.15	44.61	4.7
323.15	43.71	4.6
333.15	42.29	4.45
343.15	41.75	4.4
353.15	40.32	4.24
363.15	39.89	4.2

System: decane + 1-hexyl-3-methylimidazolium trifluoromethanesulfonate; phases: Liquid, Gas
Fixed: Mole fraction of decane = 0
Property: Activity coefficient of decane (Liquid); method: Chromatography
Temperature, K	Activity coefficient of decane	uncertainty
303.15	456.8	48.2
313.15	356.7	37.6
323.15	279.2	29.4
333.15	227.3	24
343.15	183.9	19.4
353.15	147.9	15.6
363.15	112.5	11.9

System: cyclohexane + 1-hexyl-3-methylimidazolium trifluoromethanesulfonate; phases: Liquid, Gas
Fixed: Mole fraction of cyclohexane = 0
Property: Activity coefficient of cyclohexane (Liquid); method: Chromatography
Temperature, K	Activity coefficient of cyclohexane	uncertainty
303.15	10.98	1.15
313.15	10.9	1.1
323.15	10.77	1.13
333.15	10.71	1.13
343.15	10.6	1.1
353.15	10.53	1.11
363.15	10.48	1.1

System: methylcyclohexane + 1-hexyl-3-methylimidazolium trifluoromethanesulfonate; phases: Liquid, Gas
Fixed: Mole fraction of methylcyclohexane = 0
Property: Activity coefficient of methylcyclohexane (Liquid); method: Chromatography
Temperature, K	Activity coefficient of methylcyclohexane	uncertainty
303.15	14.12	1.49
313.15	14	2
323.15	13.88	1.46
333.15	13.77	1.45
343.15	13.67	1.44
353.15	13.56	1.43
363.15	13.48	1.42

System: 2,2,4-trimethylpentane + 1-hexyl-3-methylimidazolium trifluoromethanesulfonate; phases: Liquid, Gas
Fixed: Mole fraction of 2,2,4-trimethylpentane = 0
Property: Activity coefficient of 2,2,4-trimethylpentane (Liquid); method: Chromatography
Temperature, K	Activity coefficient of 2,2,4-trimethylpentane	uncertainty
303.15	27.47	2.89
313.15	26.91	2.83
323.15	26.71	2.81
333.15	26.28	2.77
343.15	25.9	2.7
353.15	25.7	2.7
363.15	25.35	2.67

System: cyclohexene + 1-hexyl-3-methylimidazolium trifluoromethanesulfonate; phases: Liquid, Gas
Fixed: Mole fraction of cyclohexene = 0
Property: Activity coefficient of cyclohexene (Liquid); method: Chromatography
Temperature, K	Activity coefficient of cyclohexene	uncertainty
303.15	6.124	0.644
313.15	6.197	0.651
323.15	6.264	0.658
333.15	6.365	0.669
343.15	6.432	0.676
353.15	6.498	0.683
363.15	6.552	0.689

System: styrene + 1-hexyl-3-methylimidazolium trifluoromethanesulfonate; phases: Liquid, Gas
Fixed: Mole fraction of styrene = 0
Property: Activity coefficient of styrene (Liquid); method: Chromatography
Temperature, K	Activity coefficient of styrene	uncertainty
303.15	1.7	0.2
313.15	1.728	0.18
323.15	1.763	0.184
333.15	1.807	0.189
343.15	1.839	0.192
353.15	1.849	0.193
363.15	1.883	0.197

System: benzene + 1-hexyl-3-methylimidazolium trifluoromethanesulfonate; phases: Liquid, Gas
Fixed: Mole fraction of benzene = 0
Property: Activity coefficient of benzene (Liquid); method: Chromatography
Temperature, K	Activity coefficient of benzene	uncertainty
303.15	1.433	0.148
313.15	1.478	0.153
323.15	1.501	0.156
333.15	1.55	0.16
343.15	1.6	0.2
353.15	1.637	0.17
363.15	1.645	0.171

System: toluene + 1-hexyl-3-methylimidazolium trifluoromethanesulfonate; phases: Liquid, Gas
Fixed: Mole fraction of toluene = 0
Property: Activity coefficient of toluene (Liquid); method: Chromatography
Temperature, K	Activity coefficient of toluene	uncertainty
303.15	1.981	0.208
313.15	2.029	0.213
323.15	2.065	0.217
333.15	2.141	0.225
343.15	2.198	0.231
353.15	2.249	0.236
363.15	2.266	0.238

System: ethylbenzene + 1-hexyl-3-methylimidazolium trifluoromethanesulfonate; phases: Liquid, Gas
Fixed: Mole fraction of ethylbenzene = 0
Property: Activity coefficient of ethylbenzene (Liquid); method: Chromatography
Temperature, K	Activity coefficient of ethylbenzene	uncertainty
303.15	2.875	0.302
313.15	2.945	0.309
323.15	2.994	0.314
333.15	3.043	0.32
343.15	3.121	0.328
353.15	3.207	0.337
363.15	3.266	0.343

System: 1,2-dimethylbenzene + 1-hexyl-3-methylimidazolium trifluoromethanesulfonate; phases: Liquid, Gas
Fixed: Mole fraction of 1,2-dimethylbenzene = 0
Property: Activity coefficient of 1,2-dimethylbenzene (Liquid); method: Chromatography
Temperature, K	Activity coefficient of 1,2-dimethylbenzene	uncertainty
303.15	2.387	0.251
313.15	2.469	0.259
323.15	2.558	0.269
333.15	2.644	0.278
343.15	2.674	0.281
353.15	2.716	0.285
363.15	2.799	0.294

System: 1,3-dimethylbenzene + 1-hexyl-3-methylimidazolium trifluoromethanesulfonate; phases: Liquid, Gas
Fixed: Mole fraction of 1,3-dimethylbenzene = 0
Property: Activity coefficient of 1,3-dimethylbenzene (Liquid); method: Chromatography
Temperature, K	Activity coefficient of 1,3-dimethylbenzene	uncertainty
303.15	2.816	0.296
313.15	2.879	0.302
323.15	2.974	0.312
333.15	3.028	0.318
343.15	3.12	0.33
353.15	3.19	0.34
363.15	3.252	0.342

System: 1,4-dimethylbenzene + 1-hexyl-3-methylimidazolium trifluoromethanesulfonate; phases: Liquid, Gas
Fixed: Mole fraction of 1,4-dimethylbenzene = 0
Property: Activity coefficient of 1,4-dimethylbenzene (Liquid); method: Chromatography
Temperature, K	Activity coefficient of 1,4-dimethylbenzene	uncertainty
303.15	2.757	0.29
313.15	2.837	0.298
323.15	2.907	0.305
333.15	2.966	0.312
343.15	3.078	0.323
353.15	3.16	0.33
363.15	3.223	0.339
