Measured thermophysical data. Experimental and Theoretical Investigation of the Phase Behavior of Naproxen in Supercritical CO2
Source: J. Chem. Eng. Data, 2009, 10.1021/je800920d
Compound 1: (S)-(+)-naproxen, C14H14O3, InChI=1S/C14H14O3/c1-9(14(15)16)10-3-4-12-8-13(17-2)6-5-11(12)7-10/h3-9H,1-2H3,(H,15,16)/t9-/m0/s1
Compound 2: carbon dioxide, CO2, InChI=1S/CO2/c2-1-3, purity 99.99%

System: (S)-(+)-naproxen; phases: Crystal, Liquid, Air at 1 atmosphere
Property: Molar enthalpy of transition or fusion, kJ/mol (Crystal); method: DSC
Molar enthalpy of transition or fusion, kJ/mol	uncertainty
31.4	0.9

System: (S)-(+)-naproxen; phases: Crystal, Liquid, Air at 1 atmosphere
Property: Normal melting temperature, K (Crystal); method: DTA
Normal melting temperature, K	uncertainty
427.7	0.5

System: carbon dioxide + (S)-(+)-naproxen; phases: Liquid, Gas, Crystal
Property: Vapor or sublimation pressure, kPa (Liquid); method: CCELL:UFactor:16
Temperature, K	Vapor or sublimation pressure, kPa	uncertainty
413.6	30000	3200
414.3	25000	2200
414.5	22500	2200
415.7	20000	1400
417.8	15000	1100
419.7	11400	900
420.7	10000	700
422.9	7510	680
424.1	5040	780
424.4	4970	780
425.6	2480	590
427.7	100	460

System: carbon dioxide + (S)-(+)-naproxen; phases: Fluid (supercritical or subcritical phases), Crystal
Property: Mole fraction of (S)-(+)-naproxen (Fluid (supercritical or subcritical phases)); method: gravimetric analysis
Temperature, K	Pressure, kPa	Mole fraction of (S)-(+)-naproxen	uncertainty
313	15140	1.54e-05	2.5e-06
313	19970	2.07e-05	3.3e-06
313	25140	2.51e-05	4e-06
313	29860	3.12e-05	5e-06
323	15110	1.73e-05	2.8e-06
323	20130	2.9e-05	5e-06
323	25410	3.59e-05	5.8e-06
323	30010	4.13e-05	6.6e-06
323	34950	3.95e-05	6.4e-06
323	39600	4.54e-05	7.3e-06
333	15050	1.88e-05	3e-06
333	20040	2.89e-05	4.6e-06
333	25000	4.84e-05	7.8e-06
333	30110	5.13e-05	8.3e-06
333	35010	5.82e-05	9.4e-06
333	39720	6.92e-05	1.12e-05
343	15070	1.62e-05	2.6e-06
343	20080	3.6e-05	6e-06
343	24990	5.76e-05	9.3e-06
343	29940	7.26e-05	1.17e-05
343	34990	8.85e-05	1.43e-05
343	39910	9.92e-05	1.61e-05
353	15160	1.5e-05	3e-06
353	20040	4.84e-05	7.8e-06
353	25030	9.9e-05	1.6e-05
353	28820	0.000116	1.9e-05
353	34610	0.000143	2.3e-05
353	39620	0.000184	3e-05
