Measured thermophysical data. Binary and Ternary Vapor-Liquid Equilibrium at 323.15 K and Excess Molar Volumes at 298.15 K for the Mixtures of Propyl Vinyl Ether + 1-Propanol + Toluene
Source: J. Chem. Eng. Data, 2009, 10.1021/je800972b
Compound 1: propyl vinyl ether, C5H10O, InChI=1S/C5H10O/c1-3-5-6-4-2/h4H,2-3,5H2,1H3
Compound 2: propan-1-ol, C3H8O, InChI=1S/C3H8O/c1-2-3-4/h4H,2-3H2,1H3
Compound 3: toluene, C7H8, InChI=1S/C7H8/c1-7-5-3-2-4-6-7/h2-6H,1H3

System: propyl vinyl ether; phases: Liquid
Property: Mass density, kg/m3 (Liquid); method: VIBTUB:UFactor:2
Temperature, K	Pressure, kPa	Mass density, kg/m3	uncertainty
298.15	101.325	762.69	0.26

System: propan-1-ol; phases: Liquid
Property: Mass density, kg/m3 (Liquid); method: VIBTUB:UFactor:2
Temperature, K	Pressure, kPa	Mass density, kg/m3	uncertainty
298.15	101.325	800.61	0.23

System: toluene; phases: Liquid
Property: Mass density, kg/m3 (Liquid); method: VIBTUB:UFactor:2
Temperature, K	Pressure, kPa	Mass density, kg/m3	uncertainty
298.15	101.325	862.23	0.18

System: toluene + propyl vinyl ether; phases: Liquid
Fixed: Pressure, kPa = 101
Fixed: Temperature, K = 298.15
Property: Mass density, kg/m3 (Liquid); method: Vibrating tube method
Mole fraction of propyl vinyl ether	Mass density, kg/m3	uncertainty
0.0494	857.3	0.22
0.1002	852.46	0.22
0.1995	843.05	0.22
0.2999	833.4	0.22
0.3993	823.66	0.22
0.5002	813.73	0.22
0.5999	803.77	0.22
0.6998	793.65	0.22
0.7999	783.69	0.22
0.8993	773.56	0.22
0.95	768.31	0.22

System: toluene + propyl vinyl ether; phases: Gas, Liquid
Fixed: Temperature, K = 323.15
Property: Mole fraction of propyl vinyl ether (Gas); method: Chromatography
Mole fraction of propyl vinyl ether	Mole fraction of propyl vinyl ether	uncertainty
0.0201	0.1079	0.0101
0.0395	0.1959	0.0102
0.0598	0.2698	0.0103
0.0793	0.3341	0.0104
0.1195	0.4377	0.0107
0.1694	0.5272	0.0108
0.2293	0.6251	0.0105
0.289	0.6813	0.0104
0.3489	0.734	0.0103
0.409	0.7795	0.0102
0.4693	0.8178	0.0101
0.5292	0.857	0.0101
0.5896	0.8733	0.0101
0.6495	0.8944	0.01
0.7096	0.909	0.01
0.7688	0.939	0.01
0.8296	0.9488	0.01
0.8793	0.9707	0.01
0.9195	0.9817	0.01
0.9401	0.9848	0.01
0.9601	0.9914	0.0086
0.9797	0.9953	0.0047

System: propan-1-ol + toluene; phases: Gas, Liquid
Fixed: Temperature, K = 323.15
Property: Mole fraction of propan-1-ol (Gas); method: Chromatography
Mole fraction of propan-1-ol	Mole fraction of propan-1-ol	uncertainty
0.0196	0.1226	0.0101
0.0409	0.1996	0.0102
0.0606	0.2443	0.0102
0.0804	0.2731	0.0103
0.1199	0.3183	0.0104
0.1703	0.3526	0.0104
0.2294	0.3718	0.0105
0.2898	0.3978	0.0106
0.3496	0.4189	0.0106
0.41	0.4414	0.0107
0.4696	0.4566	0.0107
0.5295	0.4766	0.0108
0.5902	0.4998	0.0109
0.6503	0.5257	0.0108
0.7102	0.5575	0.0107
0.7702	0.5947	0.0106
0.8304	0.6485	0.0104
0.8798	0.7111	0.0103
0.9203	0.7762	0.0102
0.94	0.8175	0.0101
0.9604	0.8684	0.0101

System: propan-1-ol + toluene + propyl vinyl ether; phases: Liquid
Fixed: Pressure, kPa = 101
Fixed: Temperature, K = 298.15
Property: Mass density, kg/m3 (Liquid); method: Vibrating tube method
Mole fraction of propyl vinyl ether	Mole fraction of propan-1-ol	Mass density, kg/m3	uncertainty
0.0203	0.7994	814.65	0.22
0.0295	0.0698	855.36	0.22
0.0295	0.2713	845.31	0.22
0.0295	0.9007	805.33	0.22
0.0302	0.6999	820.5	0.22
0.0395	0.3601	839.69	0.22
0.0404	0.6001	825.72	0.22
0.0498	0.4502	833.57	0.22
0.0595	0.5401	827.26	0.22
0.0699	0.0291	853.51	0.22
0.0899	0.6997	813.2	0.22
0.09	0.2099	842.33	0.22
0.1006	0.0995	847	0.22
0.101	0.7995	803.88	0.22
0.1199	0.2796	835.63	0.22
0.1208	0.5992	816.46	0.22
0.1495	0.1511	839.46	0.22
0.1496	0.3499	828.56	0.22
0.1504	0.6996	805.79	0.22
0.1505	0.4996	819.51	0.22
0.1796	0.4194	821.21	0.22
0.18	0.0195	843.69	0.22
0.1994	0.5999	807.1	0.22
0.1996	0.1996	831.8	0.22
0.2098	0.7001	797.93	0.22
0.2099	0.0902	836.84	0.22
0.2493	0.2507	823.84	0.22
0.2505	0.4993	808.1	0.22
0.2702	0.0294	834.39	0.22
0.2702	0.6996	790.37	0.22
0.2795	0.12	828.28	0.22
0.28	0.5999	797.1	0.22
0.2998	0.4002	809.14	0.22
0.3003	0.2994	815.44	0.22
0.3496	0.1509	819.35	0.22
0.3499	0.5002	796.4	0.22
0.3593	0.0401	824.98	0.22
0.3599	0.6001	787.41	0.22
0.4	0.0595	819.9	0.22
0.4001	0.1801	812.47	0.22
0.4003	0.3	804.65	0.22
0.4201	0.4	795.77	0.22
0.4495	0.4999	784.74	0.22
0.4985	0.2514	797.4	0.22
0.5002	0.0498	810.6	0.22
0.5003	0.3499	790.23	0.22
0.5402	0.4	781.97	0.22
0.5995	0.1203	795.79	0.22
0.5999	0.0404	801.13	0.22
0.5999	0.2	790.26	0.22
0.6002	0.2803	784.27	0.22
0.6996	0.0304	791.64	0.22
0.6999	0.0906	787.5	0.22
0.7	0.2698	774.32	0.22
0.7005	0.1497	783.11	0.22
0.7006	0.2096	778.78	0.22
0.8005	0.1801	770.11	0.22
0.8006	0.0192	782.2	0.22
0.8006	0.1	776.4	0.22

System: propan-1-ol + toluene + propyl vinyl ether; phases: Gas, Liquid
Fixed: Temperature, K = 323.15
Property: Mole fraction of propan-1-ol (Gas); method: Chromatography
Mole fraction of propyl vinyl ether	Mole fraction of propan-1-ol	Mole fraction of propan-1-ol	uncertainty
0.02	0.1804	0.3809	0.0105
0.0297	0.2697	0.4115	0.0106
0.0305	0.0702	0.273	0.0103
0.0399	0.6	0.4633	0.0108
0.0404	0.359	0.4164	0.0106
0.0493	0.4503	0.4219	0.0106
0.0597	0.5413	0.4174	0.0106
0.0698	0.8996	0.4898	0.0108
0.0699	0.031	0.1546	0.0101
0.0896	0.7001	0.4036	0.0106
0.0898	0.2095	0.3273	0.0104
0.0992	0.1001	0.2524	0.0102
0.1	0.8005	0.415	0.0106
0.1202	0.6	0.3615	0.0105
0.1212	0.2796	0.3213	0.0104
0.1497	0.1494	0.2587	0.0102
0.1499	0.5003	0.3308	0.0104
0.1499	0.7004	0.349	0.0104
0.1795	0.4205	0.2979	0.0103
0.2001	0.5995	0.3015	0.0103
0.2002	0.1993	0.2514	0.0102
0.2091	0.0899	0.189	0.0101
0.2101	0.6999	0.3007	0.0103
0.2497	0.4999	0.2724	0.0103
0.2506	0.249	0.2421	0.0102
0.2696	0.0297	0.0901	0.01
0.2798	0.6	0.2552	0.0102
0.2801	0.1192	0.1852	0.0101
0.3	0.4003	0.2466	0.0102
0.3502	0.1489	0.1783	0.0101
0.3503	0.5002	0.2244	0.0102
0.3603	0.0396	0.0922	0.01
0.3994	0.1803	0.1772	0.0101
0.4	0.2991	0.1955	0.0101
0.4004	0.0591	0.1126	0.01
0.4203	0.4004	0.207	0.0102
0.4506	0.4996	0.1949	0.0101
0.4996	0.3505	0.1784	0.0101
0.4999	0.05	0.0932	0.01
0.5001	0.1494	0.1456	0.0101
0.5001	0.2498	0.1696	0.0101
0.5391	0.4005	0.1754	0.0101
0.5985	0.0422	0.068	0.01
0.5993	0.1996	0.1438	0.0101
0.5995	0.3602	0.1649	0.0101
0.6	0.2806	0.1575	0.0101
0.6005	0.119	0.12	0.0101
0.6995	0.211	0.1202	0.0101
0.7005	0.0301	0.0498	0.01
0.7006	0.0889	0.0955	0.01
0.7006	0.1492	0.1194	0.0101
0.7007	0.2694	0.1472	0.0101
0.8009	0.1791	0.1173	0.01
0.801	0.0191	0.0328	0.01
0.8021	0.0986	0.0918	0.01
0.8263	0.156	0.12	0.0101
0.9004	0.0289	0.0397	0.01
0.9006	0.0695	0.0701	0.01

System: propan-1-ol + toluene + propyl vinyl ether; phases: Gas, Liquid
Fixed: Temperature, K = 323.15
Property: Mole fraction of propyl vinyl ether (Gas); method: Chromatography
Mole fraction of propyl vinyl ether	Mole fraction of propan-1-ol	Mole fraction of propyl vinyl ether	uncertainty
0.02	0.1804	0.0738	0.01
0.0297	0.2697	0.1082	0.0101
0.0305	0.0702	0.1142	0.0101
0.0399	0.6	0.1931	0.0101
0.0404	0.359	0.151	0.0101
0.0493	0.4503	0.1929	0.0101
0.0597	0.5413	0.2549	0.0102
0.0698	0.8996	0.4677	0.0108
0.0699	0.031	0.2541	0.0102
0.0896	0.7001	0.4047	0.0106
0.0898	0.2095	0.268	0.0103
0.0992	0.1001	0.2928	0.0103
0.1	0.8005	0.481	0.0108
0.1202	0.6	0.4293	0.0107
0.1212	0.2796	0.3444	0.0104
0.1497	0.1494	0.3902	0.0105
0.1499	0.5003	0.446	0.0107
0.1499	0.7004	0.5348	0.0108
0.1795	0.4205	0.4834	0.0108
0.2001	0.5995	0.5714	0.0107
0.2002	0.1993	0.4682	0.0108
0.2091	0.0899	0.487	0.0108
0.2101	0.6999	0.6391	0.0105
0.2497	0.4999	0.5957	0.0106
0.2506	0.249	0.536	0.0108
0.2696	0.0297	0.599	0.0106
0.2798	0.6	0.6786	0.0104
0.2801	0.1192	0.569	0.0107
0.3	0.4003	0.6114	0.0105
0.3502	0.1489	0.6326	0.0105
0.3503	0.5002	0.7068	0.0103
0.3603	0.0396	0.6689	0.0104
0.3994	0.1803	0.6744	0.0104
0.4	0.2991	0.6917	0.0103
0.4004	0.0591	0.7044	0.0103
0.4203	0.4004	0.7186	0.0103
0.4506	0.4996	0.7852	0.0102
0.4996	0.3505	0.7665	0.0102
0.4999	0.05	0.7569	0.0102
0.5001	0.1494	0.7423	0.0102
0.5001	0.2498	0.7428	0.0102
0.5391	0.4005	0.8031	0.0101
0.5985	0.0422	0.8252	0.0101
0.5993	0.1996	0.791	0.0102
0.5995	0.3602	0.8202	0.0101
0.6	0.2806	0.8009	0.0101
0.6005	0.119	0.7917	0.0102
0.6995	0.211	0.8576	0.0101
0.7005	0.0301	0.8711	0.0101
0.7006	0.0889	0.8401	0.0101
0.7006	0.1492	0.8328	0.0101
0.7007	0.2694	0.8426	0.0101
0.8009	0.1791	0.8767	0.0101
0.801	0.0191	0.9151	0.01
0.8021	0.0986	0.8736	0.0101
0.8263	0.156	0.8717	0.0101
0.9004	0.0289	0.9389	0.01
0.9006	0.0695	0.9204	0.01
