Measured thermophysical data. Vapor-Liquid Equilibria of Water + Triethylene Glycol (TEG) and Water + TEG + Toluene at 85 kPa
Source: J. Chem. Eng. Data, 2009, 10.1021/je800675u
Compound 1: triethylene glycol, C6H14O4, InChI=1S/C6H14O4/c7-1-3-9-5-6-10-4-2-8/h7-8H,1-6H2
Compound 2: water, H2O, InChI=1S/H2O/h1H2
Compound 3: toluene, C7H8, InChI=1S/C7H8/c1-7-5-3-2-4-6-7/h2-6H,1H3

System: triethylene glycol + water; phases: Liquid, Gas
Fixed: Pressure, kPa = 85
Property: Boiling temperature at pressure P, K (Liquid); method: EBULLIO:UFactor:32
Mole fraction of water	Boiling temperature at pressure P, K	uncertainty
0.117	421.25	2.7
0.14	417.15	2.7
0.161	416.25	2.7
0.176	414.75	2.7
0.182	413.65	2.7
0.242	413.25	2.7
0.251	412.55	2.7
0.325	403.95	2.7
0.373	400.85	2.7
0.41	397.95	2.7
0.543	390.45	2.7
0.704	380.15	2.7
0.781	376.65	2.7
0.826	374.95	2.7
0.856	373.95	2.7
0.877	372.95	2.7
0.893	372.35	2.7
0.915	371.55	2.7

System: triethylene glycol + water; phases: Gas, Liquid
Fixed: Pressure, kPa = 85
Property: Mole fraction of water (Gas); method: Chromatography
Mole fraction of water	Mole fraction of water	uncertainty
0.117	0.9829	0.0041
0.14	0.978	0.004
0.161	0.9833	0.0042
0.176	0.9908	0.0041
0.182	0.9872	0.0047
0.242	0.993	0.0041
0.251	0.9945	0.0041
0.325	0.9965	0.0035
0.373	0.9978	0.0022
0.41	0.998	0.002
0.543	0.9992	0.0008
0.704	0.9997	0.0003
0.781	0.9998	0.0002
0.826	0.9998	0.0002
0.856	0.9999	0.0001
0.877	0.9999	0.0001
0.893	0.9999	0.0001
0.915	0.9999	0.0001

System: toluene + triethylene glycol + water; phases: Gas, Liquid
Fixed: Pressure, kPa = 85
Property: Mole fraction of triethylene glycol (Gas); method: Chromatography
Property: Mole fraction of water (Liquid); method: Chromatography
Property: Mole fraction of triethylene glycol (Liquid); method: Chromatography
Temperature, K	Mole fraction of water	Mole fraction of triethylene glycol	uncertainty	Mole fraction of water	uncertainty	Mole fraction of triethylene glycol	uncertainty
400.85	0.9978	0.0022	0.0001	0.373	0.0048	0.627	
394.95	0.8222	0.0015	0.0001	0.3679	0.0048	0.6197	
390.45	0.6564	0.0011	0.0001	0.359	0.0048	0.6046	
385.55	0.5707	0.0008	0.0001	0.3496	0.0047	0.5889	
383.05	0.5482	0.0007	0.0001	0.3463	0.0047	0.5834	
380.05	0.518	0.0006	0.0001	0.3403	0.0047	0.5733	
377.15	0.4952	0.0005	0.0001	0.3346	0.0047	0.5634	
373.45	0.468	0.0004	0.0001	0.3254	0.0046	0.5479	
370.85	0.4396	0.0003	0.0001	0.3084	0.0046	0.5193	
368.85	0.4104	0.0002	0.0001	0.2666	0.0044	0.449	
368.75	0.4026	0.0002	0.0001	0.2348	0.0043	0.3954	
412.55	0.9945	0.0055	0.0001	0.251	0.0044	0.749	
393.05	0.4821	0.0014	0.0001	0.229	0.0043	0.681	
381.15	0.4008	0.0008	0.0001	0.2108	0.0043	0.6308	
373.25	0.3673	0.0005	0.0001	0.199	0.0042	0.551	
371.55	0.3427	0.0004	0.0001	0.1703	0.0042	0.5095	
371.25	0.3352	0.0003	0.0001	0.1536	0.0041	0.4595	
