Measured thermophysical data. Vapor-Liquid Phase Boundaries of Binary Mixtures of Carbon Dioxide with Ethanol and Acetone
Source: J. Chem. Eng. Data, 2008, 10.1021/je800371a
Compound 1: carbon dioxide, CO2, InChI=1S/CO2/c2-1-3
Compound 2: acetone, C3H6O, InChI=1S/C3H6O/c1-3(2)4/h1-2H3
Compound 3: ethanol, C2H6O, InChI=1S/C2H6O/c1-2-3/h3H,2H2,1H3

System: ethanol + carbon dioxide; phases: Gas, Liquid
Property: Vapor or sublimation pressure, kPa (Gas); method: CCELL:UFactor:8
Temperature, K	Mole fraction of carbon dioxide	Vapor or sublimation pressure, kPa	uncertainty
313.15	0.985	7800	210

System: ethanol + carbon dioxide; phases: Liquid, Gas
Property: Vapor or sublimation pressure, kPa (Liquid); method: CCELL:UFactor:8
Temperature, K	Mole fraction of carbon dioxide	Vapor or sublimation pressure, kPa	uncertainty
291.15	0.192	2450	80
291.15	0.289	3140	100
291.15	0.364	3810	110
291.15	0.488	4590	120
291.15	0.587	5020	130
291.15	0.706	5180	130
291.15	0.8	5300	130
291.15	0.834	5350	130
291.15	0.86	5400	140
291.15	0.893	5430	140
291.15	0.924	5450	140
291.15	0.954	5490	140
291.15	0.985	5530	140
298.17	0.192	2790	100
298.17	0.289	3820	110
298.17	0.364	4370	120
298.17	0.488	5050	130
298.17	0.587	5490	140
298.17	0.706	5750	140
298.17	0.8	5900	150
298.17	0.834	5950	150
298.17	0.86	5970	150
298.17	0.893	5980	150
298.17	0.924	6080	150
298.17	0.954	6220	160
298.17	0.985	6370	160
303.12	0.192	2990	100
303.12	0.289	4080	120
303.12	0.364	4770	130
303.12	0.488	5630	150
303.12	0.587	6010	150
303.12	0.706	6330	160
303.12	0.8	6480	160
303.12	0.834	6530	160
303.12	0.86	6570	170
303.12	0.893	6620	170
303.12	0.924	6670	170
303.12	0.954	6810	170
303.12	0.985	7040	180
308.11	0.192	3270	120
308.11	0.289	4520	130
308.11	0.364	5170	140
308.11	0.488	6160	160
308.11	0.587	6620	170
308.11	0.706	6900	200
308.11	0.8	7080	180
308.11	0.834	7130	180
308.11	0.86	7180	180
308.11	0.893	7190	180
308.11	0.924	7300	190
308.11	0.954	7440	190
308.11	0.985	7690	200
313.14	0.192	3510	120
313.14	0.289	4860	140
313.14	0.364	5610	150
313.14	0.488	6680	170
313.14	0.587	7180	180
313.14	0.706	7580	190
313.14	0.8	7780	200
313.14	0.834	7830	200
313.14	0.86	7880	200
313.14	0.893	7960	200
313.14	0.924	8050	200
313.14	0.954	8180	210

System: acetone + carbon dioxide; phases: Gas, Liquid
Property: Vapor or sublimation pressure, kPa (Gas); method: CCELL:UFactor:8
Temperature, K	Mole fraction of carbon dioxide	Vapor or sublimation pressure, kPa	uncertainty
313.15	0.984	7950	210

System: acetone + carbon dioxide; phases: Liquid, Gas
Property: Vapor or sublimation pressure, kPa (Liquid); method: CCELL:UFactor:8
Temperature, K	Mole fraction of carbon dioxide	Vapor or sublimation pressure, kPa	uncertainty
291.15	0.198	720	50
291.15	0.297	1210	60
291.15	0.396	1780	70
291.15	0.498	2390	80
291.15	0.597	3020	90
291.15	0.699	3590	100
291.15	0.802	4260	110
291.15	0.831	4400	120
291.15	0.862	4610	120
291.15	0.892	4850	130
291.15	0.922	5060	140
291.15	0.953	5340	140
291.15	0.984	5520	140
298.16	0.198	830	60
298.16	0.297	1460	60
298.16	0.396	2020	70
298.16	0.498	2710	90
298.16	0.597	3440	100
298.16	0.699	4050	110
298.16	0.802	4800	130
298.16	0.831	4940	130
298.16	0.862	5160	140
298.16	0.892	5450	150
298.16	0.922	5700	150
298.16	0.953	6020	170
298.16	0.984	6430	180
303.13	0.198	950	60
303.13	0.297	1590	70
303.13	0.396	2220	80
303.13	0.498	2980	90
303.13	0.597	3750	100
303.13	0.699	4430	120
303.13	0.802	5210	140
303.13	0.831	5460	140
303.13	0.862	5680	150
303.13	0.892	5990	160
303.13	0.922	6280	170
303.13	0.953	6570	180
303.13	0.984	7050	200
308.15	0.198	1090	60
308.15	0.297	1760	70
308.15	0.396	2470	80
308.15	0.498	3300	100
308.15	0.597	4140	110
308.15	0.699	4880	130
308.15	0.802	5580	150
308.15	0.831	5920	160
308.15	0.862	6250	170
308.15	0.892	6480	170
308.15	0.922	6850	190
308.15	0.953	7230	200
308.15	0.984	7730	220
313.15	0.198	1220	70
313.15	0.297	1970	80
313.15	0.396	2750	90
313.15	0.498	3530	100
313.15	0.597	4470	120
313.15	0.699	5340	140
313.15	0.802	6180	160
313.15	0.831	6510	170
313.15	0.862	6800	180
313.15	0.892	7180	190
313.15	0.922	7430	200
313.15	0.953	7880	220
