Measured thermophysical data. Densities, Viscosities, and Excess Molar Enthalpies of 2-Pyrrolidone + Butanol Isomers at T ) (293.15, 298.15, and 303.15) K
Source: J. Chem. Eng. Data, 2009, 10.1021/je801006q
Compound 1: 2-pyrrolidinone, C4H7NO, InChI=1S/C4H7NO/c6-4-2-1-3-5-4/h1-3H2,(H,5,6), purity 99%
Compound 2: butan-1-ol, C4H10O, InChI=1S/C4H10O/c1-2-3-4-5/h5H,2-4H2,1H3, purity 99.8%
Compound 3: butan-2-ol, C4H10O, InChI=1S/C4H10O/c1-3-4(2)5/h4-5H,3H2,1-2H3, purity 99.5%
Compound 4: 2-methyl-1-propanol, C4H10O, InChI=1S/C4H10O/c1-4(2)3-5/h4-5H,3H2,1-2H3, purity 99.5%
Compound 5: 2-methylpropan-2-ol, C4H10O, InChI=1S/C4H10O/c1-4(2,3)5/h5H,1-3H3, purity 99.5%

System: 2-pyrrolidinone; phases: Liquid
Fixed: Pressure, kPa = 101.325
Property: Viscosity, Pa*s (Liquid); method: CAPTUB:UFactor:16
Temperature, K	Viscosity, Pa*s	uncertainty
293.15	0.015842	0.001109
298.15	0.013068	0.000936
303.15	0.010687	0.000788

System: 2-pyrrolidinone; phases: Liquid
Fixed: Pressure, kPa = 101.325
Property: Mass density, kg/m3 (Liquid); method: VIBTUB:UFactor:6
Temperature, K	Mass density, kg/m3	uncertainty
293.15	1109.84	0.69
298.15	1106.98	0.68
303.15	1103.38	0.67

System: butan-1-ol; phases: Liquid
Fixed: Pressure, kPa = 101.325
Property: Viscosity, Pa*s (Liquid); method: CAPTUB:UFactor:16
Temperature, K	Viscosity, Pa*s	uncertainty
293.15	0.002941	0.000263
298.15	0.002572	0.000232
303.15	0.002275	0.000207

System: butan-1-ol; phases: Liquid
Fixed: Pressure, kPa = 101.325
Property: Mass density, kg/m3 (Liquid); method: VIBTUB:UFactor:2
Temperature, K	Mass density, kg/m3	uncertainty
293.15	809.52	0.22
298.15	805.54	0.22
303.15	801.92	0.23

System: butan-2-ol; phases: Liquid
Fixed: Pressure, kPa = 101.325
Property: Viscosity, Pa*s (Liquid); method: CAPTUB:UFactor:16
Temperature, K	Viscosity, Pa*s	uncertainty
293.15	0.003625	0.000321
298.15	0.002998	0.000268
303.15	0.002489	0.000225

System: butan-2-ol; phases: Liquid
Fixed: Pressure, kPa = 101.325
Property: Mass density, kg/m3 (Liquid); method: VIBTUB:UFactor:4
Temperature, K	Mass density, kg/m3	uncertainty
293.15	805.54	0.47
298.15	802.06	0.47
303.15	798.45	0.48

System: 2-methyl-1-propanol; phases: Liquid
Fixed: Pressure, kPa = 101.325
Property: Viscosity, Pa*s (Liquid); method: CAPTUB:UFactor:16
Temperature, K	Viscosity, Pa*s	uncertainty
293.15	0.003943	0.000347
298.15	0.003332	0.000296
303.15	0.002884	0.000259

System: 2-methyl-1-propanol; phases: Liquid
Fixed: Pressure, kPa = 101.325
Property: Mass density, kg/m3 (Liquid); method: VIBTUB:UFactor:4
Temperature, K	Mass density, kg/m3	uncertainty
293.15	801.28	0.47
298.15	797.74	0.48
303.15	794.32	0.48

System: 2-methylpropan-2-ol; phases: Liquid
Fixed: Pressure, kPa = 101.325
Property: Viscosity, Pa*s (Liquid); method: CAPTUB:UFactor:16
Temperature, K	Viscosity, Pa*s	uncertainty
293.15	0.005486	0.000464
298.15	0.004436	0.000388
303.15	0.003378	0.0003

System: 2-methylpropan-2-ol; phases: Liquid
Fixed: Pressure, kPa = 101.325
Property: Mass density, kg/m3 (Liquid); method: VIBTUB:UFactor:4
Temperature, K	Mass density, kg/m3	uncertainty
293.15	795.68	0.48
298.15	780.65	0.51
303.15	775.76	0.51

System: butan-1-ol + 2-pyrrolidinone; phases: Liquid
Fixed: Temperature, K = 298.15
Fixed: Pressure, kPa = 101
Property: Excess molar enthalpy (molar enthalpy of mixing), kJ/mol (Liquid); method: Calvet calorimetry
Mole fraction of 2-pyrrolidinone	Excess molar enthalpy (molar enthalpy of mixing), kJ/mol	uncertainty
0.0564	0.0977	0.0024
0.1225	0.1633	0.0038
0.1877	0.2075	0.0047
0.2452	0.2356	0.0053
0.3266	0.2502	0.0056
0.3884	0.2523	0.0056
0.4453	0.2431	0.0054
0.5022	0.2326	0.0052
0.5963	0.2062	0.0047
0.6844	0.1724	0.004
0.7452	0.1448	0.0034
0.8553	0.0949	0.0024
0.9278	0.0527	0.0015

System: butan-1-ol + 2-pyrrolidinone; phases: Liquid
Fixed: Pressure, kPa = 101
Property: Viscosity, Pa*s (Liquid); method: CAPTUB:UFactor:16
Temperature, K	Mole fraction of 2-pyrrolidinone	Viscosity, Pa*s	uncertainty
293.15	0.0956	0.0033	0.000293
293.15	0.1784	0.003346	0.000297
293.15	0.2445	0.003373	0.000299
293.15	0.3055	0.003548	0.000314
293.15	0.3874	0.003595	0.000318
293.15	0.4434	0.003893	0.000343
293.15	0.4996	0.004198	0.000368
293.15	0.5944	0.005167	0.000444
293.15	0.6573	0.006087	0.000502
293.15	0.7236	0.007353	0.00058
293.15	0.7983	0.009017	0.000684
293.15	0.8554	0.010754	0.000792
293.15	0.9121	0.012573	0.000905
293.15	0.9778	0.014883	0.001049
298.15	0.0956	0.002884	0.000259
298.15	0.1784	0.00305	0.000272
298.15	0.2445	0.003071	0.000274
298.15	0.3055	0.003028	0.000271
298.15	0.3874	0.003119	0.000278
298.15	0.4434	0.003426	0.000304
298.15	0.4996	0.00374	0.00033
298.15	0.5944	0.004682	0.000408
298.15	0.6573	0.005497	0.000465
298.15	0.7236	0.006572	0.000532
298.15	0.7983	0.008117	0.000628
298.15	0.8554	0.00956	0.000718
298.15	0.9121	0.011006	0.000808
298.15	0.9778	0.012699	0.000913
303.15	0.0956	0.002456	0.000223
303.15	0.1784	0.002431	0.00022
303.15	0.2445	0.002433	0.000221
303.15	0.3055	0.002504	0.000227
303.15	0.3874	0.002638	0.000238
303.15	0.4434	0.002899	0.00026
303.15	0.4996	0.003211	0.000286
303.15	0.5944	0.003921	0.000345
303.15	0.6573	0.004578	0.0004
303.15	0.7236	0.005384	0.000458
303.15	0.7983	0.006428	0.000523
303.15	0.8554	0.007469	0.000588
303.15	0.9121	0.008726	0.000666
303.15	0.9778	0.010305	0.000764

System: butan-1-ol + 2-pyrrolidinone; phases: Liquid
Fixed: Pressure, kPa = 101
Property: Mass density, kg/m3 (Liquid); method: VIBTUB:UFactor:4
Temperature, K	Mole fraction of 2-pyrrolidinone	Mass density, kg/m3	uncertainty
293.15	0.0956	834.48	0.41
293.15	0.1784	856.72	0.38
293.15	0.2445	874.89	0.36
293.15	0.3055	892	0.34
293.15	0.3874	915.45	0.32
293.15	0.4434	931.79	0.31
293.15	0.4996	948.45	0.29
293.15	0.5944	977.19	0.27
293.15	0.6573	996.67	0.26
293.15	0.7236	1017.57	0.3
293.15	0.7983	1041.7	0.36
293.15	0.8554	1060.58	0.41
293.15	0.9121	1079.61	0.47
293.15	0.9778	1102.22	0.53
298.15	0.0956	830.55	0.41
298.15	0.1784	852.86	0.39
298.15	0.2445	871.15	0.37
298.15	0.3055	888.27	0.35
298.15	0.3874	911.87	0.33
298.15	0.4434	928.29	0.31
298.15	0.4996	945.03	0.3
298.15	0.5944	973.95	0.28
298.15	0.6573	993.5	0.27
298.15	0.7236	1014.53	0.3
298.15	0.7983	1038.72	0.36
298.15	0.8554	1057.59	0.41
298.15	0.9121	1076.71	0.46
298.15	0.9778	1099.35	0.53
303.15	0.0956	826.97	0.42
303.15	0.1784	849.3	0.39
303.15	0.2445	867.57	0.37
303.15	0.3055	884.73	0.35
303.15	0.3874	908.31	0.33
303.15	0.4434	924.72	0.32
303.15	0.4996	941.5	0.3
303.15	0.5944	970.39	0.28
303.15	0.6573	990.11	0.27
303.15	0.7236	1011.05	0.29
303.15	0.7983	1035.32	0.35
303.15	0.8554	1054.15	0.4
303.15	0.9121	1073.26	0.46
303.15	0.9778	1095.78	0.52

System: butan-2-ol + 2-pyrrolidinone; phases: Liquid
Fixed: Temperature, K = 298.15
Fixed: Pressure, kPa = 101
Property: Excess molar enthalpy (molar enthalpy of mixing), kJ/mol (Liquid); method: Calvet calorimetry
Mole fraction of 2-pyrrolidinone	Excess molar enthalpy (molar enthalpy of mixing), kJ/mol	uncertainty
0.0555	0.1692	0.0039
0.1212	0.2775	0.0062
0.1842	0.3444	0.0076
0.2443	0.3885	0.0085
0.3301	0.4134	0.009
0.3903	0.4167	0.0091
0.4444	0.4043	0.0088
0.4998	0.3849	0.0084
0.5887	0.3372	0.0074
0.6799	0.2784	0.0062
0.7389	0.2364	0.0053
0.8478	0.1546	0.0036
0.9309	0.0899	0.0023

System: butan-2-ol + 2-pyrrolidinone; phases: Liquid
Fixed: Pressure, kPa = 101
Property: Viscosity, Pa*s (Liquid); method: CAPTUB:UFactor:16
Temperature, K	Mole fraction of 2-pyrrolidinone	Viscosity, Pa*s	uncertainty
293.15	0.0995	0.003409	0.000303
293.15	0.1675	0.003108	0.000277
293.15	0.2444	0.003034	0.000271
293.15	0.2996	0.00284	0.000255
293.15	0.3945	0.002982	0.000267
293.15	0.4531	0.003084	0.000275
293.15	0.4967	0.003237	0.000288
293.15	0.5546	0.003668	0.000324
293.15	0.6402	0.004673	0.000407
293.15	0.7126	0.005995	0.000496
293.15	0.7895	0.007928	0.000616
293.15	0.8438	0.009691	0.000726
293.15	0.9096	0.011741	0.000854
293.15	0.9767	0.014726	0.001039
298.15	0.0995	0.002829	0.000254
298.15	0.1675	0.002409	0.000219
298.15	0.2444	0.002443	0.000222
298.15	0.2996	0.002461	0.000223
298.15	0.3945	0.002561	0.000232
298.15	0.4531	0.002698	0.000243
298.15	0.4967	0.002856	0.000256
298.15	0.5546	0.003241	0.000289
298.15	0.6402	0.004125	0.000362
298.15	0.7126	0.005238	0.000449
298.15	0.7895	0.006821	0.000548
298.15	0.8438	0.008277	0.000638
298.15	0.9096	0.010096	0.000751
298.15	0.9767	0.012474	0.000899
303.15	0.0995	0.0023	0.000209
303.15	0.1675	0.001896	0.000175
303.15	0.2444	0.001707	0.000159
303.15	0.2996	0.001724	0.000161
303.15	0.3945	0.001834	0.00017
303.15	0.4531	0.002068	0.00019
303.15	0.4967	0.002348	0.000214
303.15	0.5546	0.002702	0.000243
303.15	0.6402	0.003405	0.000302
303.15	0.7126	0.004304	0.000377
303.15	0.7895	0.005519	0.000467
303.15	0.8438	0.006842	0.000549
303.15	0.9096	0.008162	0.000631
303.15	0.9767	0.010148	0.000755

System: butan-2-ol + 2-pyrrolidinone; phases: Liquid
Fixed: Pressure, kPa = 101
Property: Mass density, kg/m3 (Liquid); method: VIBTUB:UFactor:4
Temperature, K	Mole fraction of 2-pyrrolidinone	Mass density, kg/m3	uncertainty
293.15	0.0995	831.58	0.44
293.15	0.1675	849.93	0.42
293.15	0.2444	871.14	0.4
293.15	0.2996	886.73	0.38
293.15	0.3945	914.18	0.36
293.15	0.4531	931.54	0.34
293.15	0.4967	944.64	0.33
293.15	0.5546	962.32	0.32
293.15	0.6402	989.06	0.3
293.15	0.7126	1012.23	0.32
293.15	0.7895	1037.38	0.38
293.15	0.8438	1055.57	0.42
293.15	0.9096	1078.09	0.48
293.15	0.9767	1101.54	0.54
298.15	0.0995	828.13	0.45
298.15	0.1675	846.53	0.43
298.15	0.2444	867.8	0.4
298.15	0.2996	883.42	0.39
298.15	0.3945	910.92	0.36
298.15	0.4531	928.3	0.35
298.15	0.4967	941.43	0.34
298.15	0.5546	959.15	0.32
298.15	0.6402	985.96	0.3
298.15	0.7126	1009.19	0.31
298.15	0.7895	1034.41	0.37
298.15	0.8438	1052.66	0.42
298.15	0.9096	1075.19	0.47
298.15	0.9767	1098.73	0.53
303.15	0.0995	824.55	0.45
303.15	0.1675	842.94	0.43
303.15	0.2444	864.23	0.41
303.15	0.2996	879.83	0.39
303.15	0.3945	907.3	0.37
303.15	0.4531	924.68	0.35
303.15	0.4967	937.81	0.34
303.15	0.5546	955.53	0.33
303.15	0.6402	982.36	0.31
303.15	0.7126	1005.62	0.31
303.15	0.7895	1030.84	0.37
303.15	0.8438	1049.12	0.41
303.15	0.9096	1071.64	0.46
303.15	0.9767	1095.14	0.52

System: 2-methyl-1-propanol + 2-pyrrolidinone; phases: Liquid
Fixed: Temperature, K = 298.15
Fixed: Pressure, kPa = 101
Property: Excess molar enthalpy (molar enthalpy of mixing), kJ/mol (Liquid); method: Calvet calorimetry
Mole fraction of 2-pyrrolidinone	Excess molar enthalpy (molar enthalpy of mixing), kJ/mol	uncertainty
0.0522	0.1212	0.0029
0.1222	0.2143	0.0049
0.1812	0.2721	0.0061
0.2451	0.2989	0.0066
0.3296	0.3128	0.0069
0.4043	0.3097	0.0068
0.4535	0.2974	0.0066
0.5022	0.2775	0.0062
0.5912	0.2436	0.0054
0.6807	0.2044	0.0046
0.7402	0.1798	0.0041
0.8466	0.1198	0.0029
0.9233	0.0714	0.0019

System: 2-methyl-1-propanol + 2-pyrrolidinone; phases: Liquid
Fixed: Pressure, kPa = 101
Property: Viscosity, Pa*s (Liquid); method: CAPTUB:UFactor:16
Temperature, K	Mole fraction of 2-pyrrolidinone	Viscosity, Pa*s	uncertainty
293.15	0.0889	0.003624	0.00032
293.15	0.1776	0.003381	0.0003
293.15	0.2378	0.002987	0.000267
293.15	0.3009	0.00287	0.000257
293.15	0.3978	0.002787	0.000251
293.15	0.4456	0.002833	0.000254
293.15	0.5106	0.003145	0.000281
293.15	0.5844	0.003686	0.000326
293.15	0.6489	0.004428	0.000387
293.15	0.7126	0.005569	0.00047
293.15	0.7943	0.00761	0.000597
293.15	0.8564	0.00946	0.000712
293.15	0.9126	0.011566	0.000843
293.15	0.9753	0.014552	0.001028
298.15	0.0889	0.003033	0.000271
298.15	0.1776	0.002802	0.000252
298.15	0.2378	0.00257	0.000232
298.15	0.3009	0.002483	0.000225
298.15	0.3978	0.002487	0.000225
298.15	0.4456	0.002483	0.000225
298.15	0.5106	0.002736	0.000246
298.15	0.5844	0.003262	0.00029
298.15	0.6489	0.003966	0.000349
298.15	0.7126	0.004938	0.000429
298.15	0.7943	0.006753	0.000543
298.15	0.8564	0.008552	0.000655
298.15	0.9126	0.010271	0.000762
298.15	0.9753	0.012909	0.000926
303.15	0.0889	0.002921	0.000262
303.15	0.1776	0.002596	0.000234
303.15	0.2378	0.002409	0.000219
303.15	0.3009	0.002167	0.000198
303.15	0.3978	0.001789	0.000166
303.15	0.4456	0.00175	0.000163
303.15	0.5106	0.001783	0.000166
303.15	0.5844	0.002118	0.000194
303.15	0.6489	0.002645	0.000239
303.15	0.7126	0.003369	0.0003
303.15	0.7943	0.004876	0.000424
303.15	0.8564	0.006388	0.000521
303.15	0.9126	0.008021	0.000622
303.15	0.9753	0.010152	0.000755

System: 2-methyl-1-propanol + 2-pyrrolidinone; phases: Liquid
Fixed: Pressure, kPa = 101
Property: Mass density, kg/m3 (Liquid); method: VIBTUB:UFactor:4
Temperature, K	Mole fraction of 2-pyrrolidinone	Mass density, kg/m3	uncertainty
293.15	0.0889	824.77	0.45
293.15	0.1776	848.94	0.42
293.15	0.2378	865.74	0.41
293.15	0.3009	883.75	0.39
293.15	0.3978	912.12	0.36
293.15	0.4456	926.49	0.35
293.15	0.5106	946.36	0.33
293.15	0.5844	969.46	0.31
293.15	0.6489	990.11	0.3
293.15	0.7126	1010.87	0.32
293.15	0.7943	1038.14	0.38
293.15	0.8564	1059.36	0.43
293.15	0.9126	1078.91	0.48
293.15	0.9753	1100.98	0.53
298.15	0.0889	821.28	0.46
298.15	0.1776	845.47	0.43
298.15	0.2378	862.31	0.41
298.15	0.3009	880.34	0.39
298.15	0.3978	908.8	0.37
298.15	0.4456	923.19	0.35
298.15	0.5106	943.11	0.34
298.15	0.5844	966.29	0.32
298.15	0.6489	987	0.3
298.15	0.7126	1007.83	0.31
298.15	0.7943	1035.18	0.37
298.15	0.8564	1056.43	0.43
298.15	0.9126	1075.98	0.47
298.15	0.9753	1098.14	0.53
303.15	0.0889	817.86	0.46
303.15	0.1776	842.04	0.43
303.15	0.2378	858.86	0.42
303.15	0.3009	876.86	0.4
303.15	0.3978	905.28	0.37
303.15	0.4456	919.66	0.36
303.15	0.5106	939.59	0.34
303.15	0.5844	962.76	0.32
303.15	0.6489	983.49	0.31
303.15	0.7126	1004.4	0.31
303.15	0.7943	1031.8	0.37
303.15	0.8564	1053.04	0.42
303.15	0.9126	1072.53	0.47
303.15	0.9753	1094.58	0.52

System: 2-methylpropan-2-ol + 2-pyrrolidinone; phases: Liquid
Fixed: Temperature, K = 298.15
Fixed: Pressure, kPa = 101
Property: Excess molar enthalpy (molar enthalpy of mixing), kJ/mol (Liquid); method: Calvet calorimetry
Mole fraction of 2-pyrrolidinone	Excess molar enthalpy (molar enthalpy of mixing), kJ/mol	uncertainty
0.0498	0.1445	0.0034
0.1189	0.2436	0.0055
0.1932	0.3222	0.0071
0.2551	0.3774	0.0083
0.3309	0.4248	0.0093
0.3946	0.4445	0.0097
0.4411	0.4444	0.0097
0.4943	0.4323	0.0094
0.5766	0.3961	0.0087
0.6806	0.3389	0.0075
0.7422	0.2874	0.0064
0.8435	0.1729	0.004
0.9312	0.1074	0.0026

System: 2-methylpropan-2-ol + 2-pyrrolidinone; phases: Liquid
Fixed: Pressure, kPa = 101
Property: Viscosity, Pa*s (Liquid); method: CAPTUB:UFactor:16
Temperature, K	Mole fraction of 2-pyrrolidinone	Viscosity, Pa*s	uncertainty
293.15	0.0786	0.004778	0.000416
293.15	0.1832	0.003931	0.000346
293.15	0.2489	0.003399	0.000302
293.15	0.3105	0.002824	0.000254
293.15	0.3875	0.002167	0.000198
293.15	0.4556	0.001857	0.000172
293.15	0.5003	0.001665	0.000156
293.15	0.5734	0.00187	0.000173
293.15	0.6544	0.002478	0.000225
293.15	0.7236	0.003648	0.000323
293.15	0.7995	0.005671	0.000476
293.15	0.8672	0.008035	0.000623
293.15	0.9237	0.010941	0.000804
293.15	0.9823	0.014335	0.001015
298.15	0.0786	0.003771	0.000333
298.15	0.1832	0.00323	0.000288
298.15	0.2489	0.002698	0.000243
298.15	0.3105	0.002109	0.000193
298.15	0.3875	0.001547	0.000146
298.15	0.4556	0.001333	0.000127
298.15	0.5003	0.001232	0.000119
298.15	0.5734	0.001496	0.000141
298.15	0.6544	0.002049	0.000188
298.15	0.7236	0.003252	0.00029
298.15	0.7995	0.005011	0.000435
298.15	0.8672	0.007463	0.000588
298.15	0.9237	0.009609	0.000721
298.15	0.9823	0.012116	0.000877
303.15	0.0786	0.003586	0.000317
303.15	0.1832	0.002732	0.000246
303.15	0.2489	0.002053	0.000189
303.15	0.3105	0.001481	0.00014
303.15	0.3875	0.000786	8e-05
303.15	0.4556	0.000464	5.3e-05
303.15	0.5003	0.000271	3.6e-05
303.15	0.5734	0.000414	4.8e-05
303.15	0.6544	0.001049	0.000103
303.15	0.7236	0.00212	0.000194
303.15	0.7995	0.003681	0.000326
303.15	0.8672	0.005849	0.000487
303.15	0.9237	0.008042	0.000624
303.15	0.9823	0.009894	0.000739

System: 2-methylpropan-2-ol + 2-pyrrolidinone; phases: Liquid
Fixed: Pressure, kPa = 101
Property: Mass density, kg/m3 (Liquid); method: VIBTUB:UFactor:4
Temperature, K	Mole fraction of 2-pyrrolidinone	Mass density, kg/m3	uncertainty
293.15	0.0786	806.96	0.48
293.15	0.1832	836.27	0.44
293.15	0.2489	855.32	0.42
293.15	0.3105	873.59	0.4
293.15	0.3875	897.03	0.38
293.15	0.4556	918.3	0.36
293.15	0.5003	932.55	0.35
293.15	0.5734	956.36	0.33
293.15	0.6544	983.51	0.31
293.15	0.7236	1007.36	0.32
293.15	0.7995	1034.28	0.38
293.15	0.8672	1059.06	0.44
293.15	0.9237	1080.26	0.49
293.15	0.9823	1102.87	0.54
298.15	0.0786	802	0.48
298.15	0.1832	831.45	0.45
298.15	0.2489	850.57	0.43
298.15	0.3105	868.94	0.41
298.15	0.3875	892.52	0.39
298.15	0.4556	913.93	0.37
298.15	0.5003	928.28	0.36
298.15	0.5734	952.27	0.34
298.15	0.6544	979.59	0.32
298.15	0.7236	1003.63	0.31
298.15	0.7995	1030.79	0.37
298.15	0.8672	1055.73	0.43
298.15	0.9237	1077.13	0.48
298.15	0.9823	1099.95	0.54
303.15	0.0786	797.13	0.49
303.15	0.1832	826.69	0.46
303.15	0.2489	845.86	0.44
303.15	0.3105	864.29	0.42
303.15	0.3875	887.93	0.39
303.15	0.4556	909.39	0.37
303.15	0.5003	923.8	0.36
303.15	0.5734	947.87	0.34
303.15	0.6544	975.32	0.32
303.15	0.7236	999.49	0.31
303.15	0.7995	1026.74	0.36
303.15	0.8672	1051.83	0.42
303.15	0.9237	1073.37	0.48
303.15	0.9823	1096.31	0.53
