Measured thermophysical data. Solubility of Deflazacort in Binary Solvent Mixtures
Source: J. Chem. Eng. Data, 2009, 10.1021/je800790g
Compound 1: deflazacort, C25H31NO6, InChI=1S/C25H31NO6/c1-13-26-25(20(30)12-31-14(2)27)21(32-13)10-18-17-6-5-15-9-16(28)7-8-23(15,3)22(17)19(29)11-24(18,25)4/h7-9,17-19,21-22,29H,5-6,10-12H2,1-4H3/t17-,18-,19-,21+,22+,23-,24-,25+/m0/s1
Compound 2: hexane, C6H14, InChI=1S/C6H14/c1-3-5-6-4-2/h3-6H2,1-2H3, purity 98%
Compound 3: acetone, C3H6O, InChI=1S/C3H6O/c1-3(2)4/h1-2H3, purity 99.5%
Compound 4: ethyl acetate, C4H8O2, InChI=1S/C4H8O2/c1-3-6-4(2)5/h3H2,1-2H3, purity 99.5%
Compound 5: ethanol, C2H6O, InChI=1S/C2H6O/c1-2-3/h3H,2H2,1H3, purity 99.7%
Compound 6: propan-2-ol, C3H8O, InChI=1S/C3H8O/c1-3(2)4/h3-4H,1-2H3, purity 99.7%

System: acetone + hexane + deflazacort; phases: Liquid, Crystal
Fixed: Pressure, kPa = 101
Fixed: Temperature, K = 303.15
Property: Mole fraction of deflazacort (Liquid); method: Laser intensity, when the intensity did not reach 90% of the maximum solute believed to not be completely dissolved
Solvent: Mole fraction of hexane	Mole fraction of deflazacort	uncertainty
0	0.00721402	0.0004484
0.0961	0.00639623	0.0003964
0.1721	0.0053099	0.0003284
0.2792	0.00381177	0.0002351
0.375	0.00272445	0.0001677
0.5019	0.00146141	8.972e-05
0.5622	0.00111608	6.845e-05
0.7081	0.00034338	2.101e-05
0.7537	0.00026777	1.638e-05
0.8916	6.351e-05	3.88e-06

System: hexane + ethyl acetate + deflazacort; phases: Liquid, Crystal
Fixed: Pressure, kPa = 101
Fixed: Temperature, K = 303.15
Property: Mole fraction of deflazacort (Liquid); method: Laser intensity, when the intensity did not reach 90% of the maximum solute believed to not be completely dissolved
Solvent: Mole fraction of hexane	Mole fraction of deflazacort	uncertainty
0	0.00399483	0.0004017
0.0931	0.00280728	0.0002823
0.1976	0.00226002	0.0002273
0.2968	0.00154265	0.0001552
0.3985	0.00100227	0.0001008
0.4995	0.00060541	6.089e-05
0.593	0.00035827	3.603e-05
0.6919	0.00019018	1.913e-05
0.7818	9.654e-05	9.71e-06
0.8958	2.796e-05	2.81e-06

System: ethanol + hexane + deflazacort; phases: Liquid, Crystal
Fixed: Pressure, kPa = 101
Fixed: Temperature, K = 303.15
Property: Mole fraction of deflazacort (Liquid); method: Laser intensity, when the intensity did not reach 90% of the maximum solute believed to not be completely dissolved
Solvent: Mole fraction of hexane	Mole fraction of deflazacort	uncertainty
0	0.00240159	0.0001522
0.0613	0.00260121	0.000164
0.0796	0.00261132	0.0001644
0.095	0.00261515	0.0001645
0.115	0.00260898	0.0001638
0.1528	0.00254337	0.0001593
0.1988	0.00239309	0.0001495
0.2417	0.00230074	0.0001434
0.2745	0.00215129	0.0001338
0.3934	0.00172123	0.0001065
0.5044	0.00127621	7.867e-05
0.6053	0.00091563	5.628e-05
0.7057	0.00060449	3.706e-05
0.8095	0.00032066	1.962e-05
0.9134	0.00012184	7.44e-06

System: propan-2-ol + hexane + deflazacort; phases: Liquid, Crystal
Fixed: Pressure, kPa = 101
Fixed: Temperature, K = 303.15
Property: Mole fraction of deflazacort (Liquid); method: Laser intensity, when the intensity did not reach 90% of the maximum solute believed to not be completely dissolved
Solvent: Mole fraction of hexane	Mole fraction of deflazacort	uncertainty
0	0.00203793	0.0001264
0.0483	0.00212905	0.0001318
0.0978	0.00217756	0.0001347
0.1302	0.00216659	0.0001339
0.1965	0.00210811	0.0001301
0.3027	0.00184991	0.0001139
0.4031	0.00153655	9.443e-05
0.5161	0.00112743	6.916e-05
0.606	0.0008274	5.068e-05
0.7055	0.00050741	3.104e-05
0.8052	0.00029537	1.805e-05
0.9056	0.00012433	7.59e-06
