Measured thermophysical data. Solubility of Diflunisal in Supercritical Carbon Dioxide
Source: J. Chem. Eng. Data, 2008, 10.1021/je800384h
Compound 1: carbon dioxide, CO2, InChI=1S/CO2/c2-1-3
Compound 2: 2',4'-difluoro-4-hydroxy-1,1'-biphenyl-3-carboxylic acid, C13H8F2O3, InChI=1S/C13H8F2O3/c14-8-2-3-9(11(15)6-8)7-1-4-12(16)10(5-7)13(17)18/h1-6,16H,(H,17,18)

System: carbon dioxide + 2',4'-difluoro-4-hydroxy-1,1'-biphenyl-3-carboxylic acid; phases: Fluid (supercritical or subcritical phases), Crystal
Property: Mole fraction of 2',4'-difluoro-4-hydroxy-1,1'-biphenyl-3-carboxylic acid (Fluid (supercritical or subcritical phases)); method: UV spectrophotometric analysis
Temperature, K	Pressure, kPa	Mole fraction of 2',4'-difluoro-4-hydroxy-1,1'-biphenyl-3-carboxylic acid	uncertainty
308.2	9400	1.845e-06	1.85e-07
308.2	11800	1.959e-06	6.66e-07
308.2	14200	2.06e-06	6.22e-07
308.2	16800	2.268e-06	5.7e-07
308.2	19500	2.675e-06	3.17e-07
308.2	21900	2.98e-06	4.53e-07
308.2	24600	3.892e-06	8.32e-07
318.2	9300	5.65e-07	1.06e-07
318.2	11600	1.212e-06	1.51e-07
318.2	14200	1.701e-06	4.38e-07
318.2	17000	3.143e-06	8.74e-07
318.2	19300	3.923e-06	7.55e-07
318.2	21900	4.497e-06	3.2e-07
318.2	24400	5.466e-06	6.15e-07
328.2	9100	5.44e-07	1.93e-07
328.2	11600	8.99e-07	2.05e-07
328.2	14200	1.73e-06	2.9e-07
328.2	16800	3.603e-06	1.08e-07
328.2	19300	4.593e-06	2.28e-07
328.2	21900	6.625e-06	4.24e-07
328.2	24400	8.072e-06	9.35e-07
