Measured thermophysical data. Solubility of Naphthalene in Isobutyl Acetate, n-Butyric Acid, Ethyl Acetate, N-Methyl Pyrrolidone, N,N-Dimethylformamide, and Tetrahydrofuran
Source: J. Chem. Eng. Data, 2008, 10.1021/je800428r
Compound 1: naphthalene, C10H8, InChI=1S/C10H8/c1-2-6-10-8-4-3-7-9(10)5-1/h1-8H
Compound 2: 2-methylpropyl ethanoate, C6H12O2, InChI=1S/C6H12O2/c1-5(2)4-8-6(3)7/h5H,4H2,1-3H3
Compound 3: butanoic acid, C4H8O2, InChI=1S/C4H8O2/c1-2-3-4(5)6/h2-3H2,1H3,(H,5,6)
Compound 4: ethyl acetate, C4H8O2, InChI=1S/C4H8O2/c1-3-6-4(2)5/h3H2,1-2H3
Compound 5: N-methylpyrrolidone, C5H9NO, InChI=1S/C5H9NO/c1-6-4-2-3-5(6)7/h2-4H2,1H3
Compound 6: dimethylformamide, C3H7NO, InChI=1S/C3H7NO/c1-4(2)3-5/h3H,1-2H3
Compound 7: tetrahydrofuran, C4H8O, InChI=1S/C4H8O/c1-2-4-5-3-1/h1-4H2
Compound 8: acetone, C3H6O, InChI=1S/C3H6O/c1-3(2)4/h1-2H3

System: naphthalene; phases: Crystal, Liquid, Air at 1 atmosphere
Property: Normal melting temperature, K (Crystal); method: DTA
Normal melting temperature, K	uncertainty
356.9	0.5

System: dimethylformamide + naphthalene; phases: Liquid, Crystal
Fixed: Pressure, kPa = 101
Property: Mole fraction of naphthalene (Liquid); method: laser monitoring observation technique
Temperature, K	Mole fraction of naphthalene	uncertainty
278.05	0.1615	0.0033
283.05	0.1852	0.0038
288.15	0.215	0.0045
292.75	0.2444	0.0051
298.05	0.2814	0.0058
303.25	0.3071	0.0064
307.95	0.3539	0.0074
313.15	0.4059	0.0086
318.15	0.4649	0.0099

System: acetone + naphthalene; phases: Liquid, Crystal
Fixed: Pressure, kPa = 101
Property: Mole fraction of naphthalene (Liquid); method: laser monitoring observation technique
Temperature, K	Mole fraction of naphthalene	uncertainty
278.15	0.1237	0.0026
283.15	0.1433	0.003
288.05	0.1707	0.0036
293.25	0.1941	0.0041
298.35	0.226	0.0048
303	0.2681	0.0057
308.1	0.3073	0.0066
313.05	0.3606	0.0078
318.15	0.4175	0.0091
323.05	0.4771	0.0105

System: naphthalene + N-methylpyrrolidone; phases: Liquid, Crystal
Fixed: Pressure, kPa = 101
Property: Mole fraction of naphthalene (Liquid); method: laser monitoring observation technique
Temperature, K	Mole fraction of naphthalene	uncertainty
278.18	0.2685	0.0055
283.25	0.2893	0.0059
288.17	0.3073	0.0063
293.2	0.3358	0.0069
298.16	0.3785	0.0078
303.21	0.4101	0.0084
308.17	0.4383	0.0091
313.16	0.4864	0.0101
318.21	0.5346	0.011
323.27	0.5767	0.0117

System: naphthalene + 2-methylpropyl ethanoate; phases: Liquid, Crystal
Fixed: Pressure, kPa = 101
Property: Mole fraction of naphthalene (Liquid); method: laser monitoring observation technique
Temperature, K	Mole fraction of naphthalene	uncertainty
278.18	0.1831	0.0037
283.2	0.2047	0.0042
288.22	0.2319	0.0047
293.23	0.2593	0.0053
298.19	0.2989	0.0061
303.23	0.3345	0.0068
308.45	0.3865	0.0079
313.2	0.4327	0.0089
318.17	0.4834	0.01
323.21	0.5393	0.011

System: naphthalene + butanoic acid; phases: Liquid, Crystal
Fixed: Pressure, kPa = 101
Property: Mole fraction of naphthalene (Liquid); method: laser monitoring observation technique
Temperature, K	Mole fraction of naphthalene	uncertainty
278.17	0.08337	0.00171
283.27	0.09521	0.00195
288.45	0.1127	0.0023
293.2	0.1285	0.0026
298.26	0.1541	0.0032
303.22	0.1791	0.0037
308.2	0.2153	0.0044
313.3	0.2525	0.0052
318.19	0.2921	0.006
323.28	0.34	0.007

System: naphthalene + ethyl acetate; phases: Liquid, Crystal
Fixed: Pressure, kPa = 101
Property: Mole fraction of naphthalene (Liquid); method: laser monitoring observation technique
Temperature, K	Mole fraction of naphthalene	uncertainty
278.2	0.1744	0.0036
283.17	0.191	0.0039
288.21	0.2174	0.0045
293.19	0.233	0.0048
298.25	0.2764	0.0057
303.2	0.3139	0.0065
308.21	0.3571	0.0074
313.23	0.406	0.0085
318.17	0.4651	0.0098
323.21	0.5257	0.0109

System: naphthalene + tetrahydrofuran; phases: Liquid, Crystal
Fixed: Pressure, kPa = 101
Property: Mole fraction of naphthalene (Liquid); method: laser monitoring observation technique
Temperature, K	Mole fraction of naphthalene	uncertainty
278.6	0.2412	0.005
284.35	0.2726	0.0057
288.25	0.2918	0.0061
293.25	0.3242	0.0068
298	0.3516	0.0073
303.2	0.3849	0.0081
308.19	0.4284	0.0091
313.25	0.4685	0.01
318.35	0.5102	0.0109
323.2	0.5657	0.0117
328.21	0.5999	0.0123
333.22	0.6292	0.0128
