Measured thermophysical data. Measurement and correlation of the thermal conductivity of methylcyclohexane and propylcyclohexane from 300 K to 600 K at pressures to 60 MPa
Source: J. Chem. Eng. Data, 2008, 10.1021/je800255r
Compound 1: methylcyclohexane, C7H14, InChI=1S/C7H14/c1-7-5-3-2-4-6-7/h7H,2-6H2,1H3
Compound 2: 1-cyclohexylpropane, C9H18, InChI=1S/C9H18/c1-2-6-9-7-4-3-5-8-9/h9H,2-8H2,1H3

System: methylcyclohexane; phases: Liquid
Property: Thermal conductivity, W/m/K (Liquid); method: Hot wire method
Pressure, kPa	Temperature, K	Thermal conductivity, W/m/K	uncertainty
96	302.004	0.10558	0.00226
96	302.484	0.10537	0.00226
96	303.02	0.10525	0.00226
97	301.165	0.10583	0.00227
97	301.562	0.10572	0.00227
125	321.592	0.1008	0.00216
128	321.98	0.10068	0.00216
129	322.416	0.10054	0.00216
132	322.898	0.10041	0.00215
134	323.427	0.10025	0.00215
140	381.252	0.08765	0.00188
144	381.656	0.08758	0.00188
148	382.094	0.0875	0.00188
151	382.578	0.08738	0.00188
157	383.107	0.08726	0.00188
159	340.09	0.09638	0.00207
179	340.502	0.09639	0.00207
199	340.967	0.09625	0.00207
213	360.162	0.09207	0.00198
216	341.467	0.09611	0.00206
229	342.017	0.096	0.00206
229	360.593	0.09195	0.00197
246	361.063	0.09182	0.00197
262	361.563	0.09175	0.00197
319	360.235	0.09208	0.00198
338	360.653	0.09201	0.00198
354	361.117	0.09189	0.00197
371	361.625	0.09177	0.00197
389	362.14	0.09168	0.00197
4974	301.546	0.10747	0.0023
4975	301.158	0.10757	0.00231
4981	301.984	0.10738	0.0023
4988	302.459	0.10713	0.0023
4995	302.987	0.1071	0.0023
5052	323.391	0.10227	0.00219
5053	322.874	0.10238	0.0022
5058	322.398	0.10255	0.0022
5065	321.59	0.10283	0.00221
5066	321.968	0.10273	0.0022
5170	340.291	0.09856	0.00211
5183	340.699	0.09855	0.00211
5196	341.148	0.09846	0.00211
5209	341.637	0.09828	0.00211
5221	342.173	0.09811	0.00211
5232	381.283	0.09032	0.00194
5239	381.668	0.09021	0.00194
5242	382.148	0.09006	0.00193
5246	382.607	0.08999	0.00193
5250	383.122	0.08988	0.00193
5318	360.518	0.09437	0.00203
5334	360.926	0.09435	0.00203
5344	361.378	0.0942	0.00202
5355	361.864	0.09411	0.00202
5370	362.401	0.09394	0.00202
10060	323.347	0.10426	0.00224
10073	322.841	0.10443	0.00224
10074	321.579	0.10481	0.00225
10075	321.96	0.1047	0.00224
10077	322.372	0.10458	0.00224
10174	381.413	0.09262	0.00199
10175	360.796	0.09659	0.00207
10177	381.794	0.09252	0.00199
10181	382.201	0.09252	0.00199
10185	382.651	0.09239	0.00198
10187	361.189	0.09646	0.00207
10191	383.158	0.09222	0.00198
10202	361.629	0.09628	0.00207
10214	362.052	0.09622	0.00207
10220	362.577	0.0961	0.00206
10264	301.146	0.10951	0.00235
10268	301.527	0.10942	0.00234
10276	301.958	0.10932	0.00234
10282	302.424	0.1091	0.00234
10285	302.945	0.10907	0.00234
10297	340.621	0.10074	0.00216
10311	341.019	0.1006	0.00216
10324	341.359	0.10053	0.00216
10336	341.884	0.1004	0.00215
10348	342.411	0.10022	0.00215
15046	322.355	0.10644	0.00228
15047	322.809	0.10627	0.00228
15051	321.938	0.10647	0.00228
15052	323.306	0.1062	0.00228
15067	321.565	0.10657	0.00228
15359	301.13	0.11122	0.00238
15364	301.51	0.11119	0.00238
15367	301.934	0.11108	0.00238
15369	302.393	0.11089	0.00238
15369	302.907	0.11081	0.00237
20077	381.471	0.09697	0.00208
20079	381.83	0.09685	0.00208
20080	382.229	0.09685	0.00208
20083	382.659	0.09674	0.00208
20089	383.142	0.09659	0.00207
20101	301.491	0.11277	0.00242
20103	301.913	0.11268	0.00241
20105	302.369	0.11257	0.00241
20106	301.123	0.11285	0.00242
20111	302.873	0.11239	0.00241
20118	323.271	0.10799	0.00231
20122	322.771	0.10808	0.00232
20134	322.331	0.10826	0.00232
20137	321.548	0.10841	0.00232
20140	321.918	0.10835	0.00232
20146	360.979	0.10066	0.00216
20163	361.358	0.10054	0.00216
20175	361.778	0.10042	0.00215
20185	362.234	0.10031	0.00215
20191	362.732	0.10019	0.00215
20284	340.694	0.10456	0.00224
20295	341.077	0.10448	0.00224
20305	341.496	0.10439	0.00224
20315	341.958	0.10429	0.00224
20326	342.455	0.10414	0.00223
20779	401.399	0.09393	0.00202
20781	402.976	0.09373	0.00201
20783	401.69	0.09405	0.00202
20786	402.084	0.09399	0.00202
20788	402.505	0.09388	0.00202
25201	321.532	0.11024	0.00236
25206	321.9	0.11014	0.00236
25213	322.298	0.11005	0.00236
25216	322.742	0.10989	0.00235
25218	323.228	0.10984	0.00235
25356	301.476	0.11456	0.00245
25356	301.888	0.11444	0.00245
25357	301.105	0.11458	0.00245
25365	302.338	0.11431	0.00245
25376	302.833	0.11406	0.00244
30060	401.623	0.09774	0.0021
30061	401.282	0.09782	0.0021
30061	401.995	0.09777	0.0021
30062	402.399	0.09764	0.0021
30065	402.855	0.09757	0.00209
30157	301.096	0.11609	0.00249
30163	301.452	0.11609	0.00249
30166	381.531	0.10095	0.00217
30168	381.879	0.10095	0.00217
30170	382.259	0.10083	0.00216
30172	382.675	0.10075	0.00216
30173	301.863	0.116	0.00248
30175	383.14	0.10063	0.00216
30178	302.309	0.11583	0.00248
30182	302.8	0.11567	0.00248
30197	361.126	0.10443	0.00224
30204	361.49	0.10462	0.00224
30214	361.936	0.10422	0.00223
30229	362.373	0.1041	0.00223
30238	321.515	0.11199	0.0024
30240	362.855	0.10402	0.00223
30245	321.867	0.11192	0.0024
30247	322.269	0.11177	0.00239
30248	322.701	0.11167	0.00239
30250	323.181	0.11152	0.00239
30916	340.82	0.10838	0.00232
30924	341.185	0.10831	0.00232
30924	342.034	0.10802	0.00232
30929	341.585	0.10822	0.00232
30930	342.516	0.10797	0.00231
35184	321.889	0.1136	0.00243
35184	322.279	0.11337	0.00243
35187	322.712	0.11324	0.00243
35189	321.538	0.11349	0.00243
35194	323.186	0.11313	0.00242
35410	302.805	0.11728	0.00251
35412	301.118	0.11775	0.00252
35412	302.321	0.11734	0.00251
35414	301.879	0.11762	0.00252
35415	301.477	0.11771	0.00252
39278	302.779	0.11842	0.00254
39375	302.297	0.11863	0.00254
39484	301.858	0.11879	0.00254
39611	301.454	0.1189	0.00255
39719	301.096	0.11903	0.00255
40156	361.306	0.10789	0.00231
40156	361.656	0.10783	0.00231
40164	362.048	0.10776	0.00231
40170	362.469	0.10757	0.00231
40176	362.934	0.10757	0.00231
40251	340.963	0.11136	0.00239
40255	382.265	0.1045	0.00224
40256	381.563	0.10467	0.00224
40257	382.671	0.10444	0.00224
40259	381.893	0.10462	0.00224
40259	383.119	0.10436	0.00224
40260	341.321	0.11145	0.00239
40269	341.719	0.11135	0.00239
40272	342.618	0.11108	0.00238
40276	342.139	0.11125	0.00238
40385	323.139	0.11482	0.00246
40395	321.51	0.11535	0.00247
40397	322.248	0.11499	0.00246
40398	321.863	0.11509	0.00246
40399	322.669	0.11489	0.00246
40492	401.209	0.10181	0.00218
40492	401.527	0.10169	0.00218
40496	401.886	0.10175	0.00218
40498	402.279	0.10165	0.00218
40498	402.715	0.10154	0.00218

System: methylcyclohexane; phases: Gas
Property: Thermal conductivity, W/m/K (Gas); method: Hot wire method
Pressure, kPa	Temperature, K	Thermal conductivity, W/m/K	uncertainty
79	410.081	0.02278	0.0014
79	410.556	0.02287	0.00141
80	409.661	0.02272	0.0014
81	409.296	0.02266	0.00139
81	543.329	0.03893	0.00371
81	543.522	0.03944	0.00339
81	543.732	0.03977	0.00348
81	543.971	0.04006	0.00356
81	544.214	0.04032	0.00318
82	408.985	0.02259	0.00139
87	440.775	0.0262	0.00161
88	440.385	0.02606	0.0016
88	523.756	0.03727	0.00228
89	440.038	0.02589	0.00159
89	523.464	0.03711	0.00227
89	594.997	0.04797	0.00294
90	522.973	0.03658	0.00224
90	523.21	0.03686	0.00226
91	460.607	0.02904	0.00178
91	460.945	0.02915	0.00179
91	594.787	0.04752	0.00291
92	460.041	0.02875	0.00177
92	460.297	0.02899	0.00178
92	594.591	0.04698	0.00288
93	459.823	0.02856	0.00175
93	594.413	0.0464	0.00284
105	563.212	0.04305	0.00264
106	562.651	0.04178	0.00256
106	562.815	0.04245	0.0026
106	562.998	0.04282	0.00262
106	563.437	0.04331	0.00265
109	480.766	0.03114	0.00191
109	480.951	0.03151	0.00193
109	481.756	0.0319	0.00196
110	481.182	0.03179	0.00195
110	481.449	0.03187	0.00196
126	426.718	0.02445	0.0015
127	427.043	0.02463	0.00151
127	502.468	0.0349	0.00214
129	427.416	0.02478	0.00152
130	427.842	0.02483	0.00153
130	502.736	0.03495	0.00214
132	503.023	0.03517	0.00216
133	503.339	0.03522	0.00216
179	503.383	0.03495	0.00214
180	503.044	0.03506	0.00215
181	502.74	0.03508	0.00215
182	502.234	0.03497	0.00214
182	502.47	0.03505	0.00215
185	440.365	0.02624	0.00162
185	440.761	0.0263	0.00162
186	440.032	0.026	0.0016
189	410.641	0.02287	0.00141
190	409.384	0.02273	0.0014
190	409.745	0.02282	0.00141
190	410.172	0.02284	0.00141
192	594.97	0.04821	0.00295
193	594.751	0.04789	0.00293
194	594.562	0.04751	0.00291
195	594.393	0.04692	0.00287
196	594.232	0.04621	0.00283
203	460.285	0.02858	0.00176
203	460.589	0.02878	0.00177
203	460.926	0.02894	0.00178
222	426.698	0.02467	0.00152
224	427.018	0.02482	0.00153
225	427.394	0.02484	0.00153
226	427.807	0.02492	0.00153
235	409.02	0.02315	0.00143
235	409.313	0.02321	0.00143
235	409.672	0.02313	0.00143
235	410.079	0.02312	0.00143
235	410.531	0.0233	0.00144
237	481.192	0.0317	0.00195
237	481.448	0.03196	0.00196
238	481.743	0.0321	0.00197
241	522.766	0.0366	0.00225
242	522.964	0.037	0.00227
244	523.185	0.03747	0.0023
245	523.443	0.03761	0.00231
246	523.712	0.03783	0.00232
263	594.98	0.04829	0.00296
264	594.762	0.04799	0.00294
265	594.572	0.04765	0.00292
266	594.23	0.04661	0.00285
266	594.394	0.04716	0.00289
280	460.006	0.02863	0.00176
280	460.268	0.02882	0.00177
280	460.569	0.02906	0.00179
281	460.903	0.02913	0.00179
299	439.675	0.02783	0.00171
299	439.967	0.02751	0.00169
299	440.299	0.02738	0.00168
300	440.674	0.02731	0.00168
350	426.379	0.0252	0.00155
350	426.651	0.02524	0.00155
350	426.959	0.02539	0.00156
350	427.31	0.02557	0.00158
350	427.692	0.02582	0.00159
357	562.865	0.04223	0.00259
358	563.046	0.04256	0.00261
359	563.248	0.04304	0.00264
360	563.463	0.0435	0.00266
426	481.136	0.03259	0.002
426	481.375	0.0328	0.00201
426	481.651	0.03296	0.00202
427	481.95	0.03306	0.00203
427	482.281	0.03316	0.00204
458	439.465	0.02728	0.00232
458	439.694	0.02754	0.002
459	439.962	0.02775	0.00188
459	440.27	0.02788	0.00183
459	440.61	0.028	0.00176
461	460.179	0.03074	0.00189
461	460.46	0.03067	0.00189
461	460.772	0.03082	0.0019
462	459.718	0.03105	0.00191
462	459.925	0.031	0.00191
465	522.686	0.03851	0.00236
466	522.885	0.0385	0.00236
466	523.371	0.03866	0.00237
467	523.121	0.03858	0.00236
467	523.65	0.03862	0.00237
492	594.15	0.04765	0.00292
493	594.315	0.04809	0.00294
493	594.489	0.0488	0.00299
494	594.68	0.04892	0.00299
495	594.896	0.04915	0.00301
504	502.218	0.0359	0.00229
504	502.441	0.03596	0.00221
504	502.702	0.03588	0.00221
504	502.979	0.03599	0.00224
504	503.288	0.03598	0.00221

System: methylcyclohexane; phases: Gas
Property: Thermal conductivity, W/m/K (Gas); method: Hot wire method
Pressure, kPa	Temperature, K	Thermal conductivity, W/m/K	uncertainty
79	412.375	0.02341	0.00144
80	411.511	0.02313	0.00142
81	410.754	0.02321	0.00143
82	410.089	0.02315	0.00142
83	409.529	0.02305	0.00142
87	442.263	0.02726	0.00167
88	441.563	0.02743	0.00169
89	440.397	0.02723	0.00167
89	440.939	0.0272	0.00167
90	439.946	0.0271	0.00167
123	426.908	0.02548	0.00157
125	427.386	0.02554	0.00157
127	427.946	0.02561	0.00157
128	428.601	0.02565	0.00158
129	429.341	0.02544	0.00156
185	442.065	0.02742	0.00168
186	440.824	0.02721	0.00167
186	441.41	0.02736	0.00168
187	440.316	0.02715	0.00167
188	439.887	0.02709	0.00166
189	409.538	0.02309	0.00142
190	410.057	0.02316	0.00143
190	410.669	0.02321	0.00143
190	411.368	0.02325	0.00143
190	412.176	0.02329	0.00143
203	460.17	0.03006	0.00185
203	460.544	0.02996	0.00184
203	460.984	0.03006	0.00185
203	461.49	0.0301	0.00185
203	462.07	0.03013	0.00185
221	426.834	0.02529	0.00156
222	427.292	0.02533	0.00156
223	427.829	0.0254	0.00156
226	429.149	0.02549	0.00157
235	481.41	0.03323	0.00204
236	481.787	0.03336	0.00205
237	482.23	0.0334	0.00205
238	482.737	0.03347	0.00205
280	460.115	0.02994	0.00184
280	460.478	0.03001	0.00184
280	460.913	0.02997	0.00184
280	461.412	0.03009	0.00185
281	461.974	0.03017	0.00185
299	439.768	0.02706	0.00166
299	440.179	0.02707	0.00166
299	441.221	0.02726	0.00168
299	441.845	0.02712	0.00167
426	481.674	0.03315	0.00203
426	482.075	0.03336	0.00205
426	482.533	0.03334	0.00205
427	483.051	0.03342	0.00205
427	483.61	0.03337	0.00205
461	461.218	0.03019	0.00185
461	461.749	0.03018	0.00185
462	459.991	0.02999	0.00184
462	460.34	0.02999	0.00184
462	460.747	0.0301	0.00185
464	523.109	0.03972	0.00243
466	523.827	0.03864	0.00237
466	524.255	0.03958	0.00243
466	524.719	0.03941	0.00241
486	543.616	0.04268	0.00261
487	543.889	0.0425	0.0026
503	502.674	0.03636	0.00223
504	503.044	0.03635	0.00223
504	503.46	0.03642	0.00223
504	503.933	0.03602	0.00221
504	504.444	0.03646	0.00224
621	481.49	0.03313	0.00203
622	481.89	0.03316	0.00203
622	482.353	0.03323	0.00204
622	482.863	0.03323	0.00204
623	483.414	0.03339	0.00205
670	562.893	0.04597	0.00281
672	563.453	0.04616	0.00283
673	563.775	0.04621	0.00283
674	564.15	0.04596	0.00281
703	523.092	0.03964	0.00243
703	523.398	0.03952	0.00242
704	523.769	0.03904	0.00239
704	524.18	0.03944	0.00242
824	481.408	0.03291	0.00202
824	481.79	0.03315	0.00203
825	482.225	0.0331	0.00203
825	482.706	0.03344	0.00205
826	483.221	0.03346	0.00205
837	502.581	0.03644	0.00223
837	504.258	0.03664	0.00225
838	502.933	0.03643	0.00223
838	503.77	0.03662	0.00225
862	543.539	0.04267	0.00261
862	543.821	0.04271	0.00262
863	544.145	0.04274	0.00262
863	544.5	0.0429	0.00263
863	544.878	0.04285	0.00262
920	562.962	0.04642	0.00284
921	563.216	0.04643	0.00284
921	563.507	0.04634	0.00284
922	563.847	0.04662	0.00285
1057	523.034	0.03984	0.00244
1057	523.328	0.03974	0.00244
1057	523.669	0.03987	0.00244
1057	524.044	0.03994	0.00245
1058	524.458	0.03985	0.00244
1135	502.56	0.03638	0.00223
1136	502.882	0.03672	0.00225
1136	503.246	0.03634	0.00223
1136	503.649	0.03674	0.00225
1136	504.091	0.03683	0.00226
1226	543.462	0.04262	0.00261
1226	543.732	0.04253	0.00261
1227	544.039	0.04295	0.00263
1227	544.38	0.04311	0.00264
1228	544.759	0.04298	0.00263
1228	562.983	0.04669	0.00286
1228	563.222	0.04671	0.00286
1228	563.822	0.04653	0.00285
1228	564.159	0.04634	0.00284
1296	503.211	0.03693	0.00226
1296	503.6	0.03712	0.00228
1297	502.537	0.03684	0.00226
1339	523.034	0.04012	0.00246
1339	523.323	0.04016	0.00246
1340	523.646	0.03956	0.00242
1340	524.026	0.04006	0.00246
1340	524.41	0.03964	0.00243
1518	562.939	0.04655	0.00285
1518	563.188	0.04657	0.00285
1518	563.461	0.04695	0.00287
1518	563.77	0.04629	0.00283
1518	564.107	0.04618	0.00283
1523	543.492	0.04336	0.00266
1524	544.045	0.04351	0.00267
1524	544.377	0.04354	0.00267
1524	544.724	0.04318	0.00265
1715	522.951	0.04117	0.00252
1715	523.222	0.04119	0.00252
1715	523.524	0.04125	0.00253
1715	523.861	0.04125	0.00253
1715	524.23	0.04133	0.00253
1720	543.53	0.04344	0.00266
1721	543.787	0.04361	0.00267
1721	544.079	0.04382	0.00268
1721	544.396	0.04378	0.00268
1721	544.748	0.04404	0.0027
1819	563.204	0.04741	0.0029
1819	563.471	0.04709	0.00288
1819	563.765	0.04731	0.0029
1819	564.078	0.04721	0.00289
2019	543.535	0.04514	0.00277
2019	543.777	0.04491	0.00275
2019	544.039	0.04487	0.00275
2019	544.346	0.04486	0.00275
2019	544.665	0.04497	0.00276
2113	563.174	0.0481	0.00295
2114	563.71	0.04747	0.00291
2114	564.017	0.04788	0.00293
2227	543.745	0.04591	0.00281
2227	544.002	0.04599	0.00282
2227	544.284	0.04603	0.00282
2228	544.59	0.04612	0.00283
2430	563.893	0.04924	0.00302
2431	563.1	0.04942	0.00303
2431	563.34	0.04943	0.00303
2431	563.607	0.04959	0.00304
2661	562.843	0.05128	0.00314
2661	563.256	0.05122	0.00314
2661	563.502	0.05101	0.00313
2661	563.773	0.0506	0.0031
2932	562.877	0.05464	0.00335
2933	563.301	0.05501	0.00337
2933	563.55	0.05472	0.00335

System: methylcyclohexane; phases: Fluid (supercritical or subcritical phases)
Property: Thermal conductivity, W/m/K (Fluid (supercritical or subcritical phases)); method: Hot wire method
Pressure, kPa	Temperature, K	Thermal conductivity, W/m/K	uncertainty
91	344.05	0.09625	0.00582
99	342.852	0.09671	0.00585
102	343.126	0.09652	0.00584
106	343.421	0.09638	0.00583
109	343.729	0.09636	0.00583
150	323.976	0.10102	0.00611
150	324.309	0.10092	0.00611
154	323.664	0.10112	0.00612
156	323.37	0.10123	0.00612
159	323.091	0.10139	0.00613
187	303.207	0.10626	0.00643
188	303.492	0.10621	0.00643
189	302.92	0.10635	0.00643
190	302.656	0.1064	0.00644
191	302.409	0.10648	0.00644
191	383.171	0.08787	0.00532
192	383.497	0.08773	0.00531
193	383.792	0.08769	0.00531
193	384.106	0.08762	0.0053
194	384.449	0.08753	0.0053
296	403.025	0.08378	0.00507
296	403.326	0.08373	0.00507
297	403.642	0.0837	0.00507
297	403.983	0.08367	0.00506
298	402.731	0.08388	0.00508
387	421.258	0.08077	0.00489
387	422.488	0.08052	0.00487
388	421.511	0.08066	0.00488
388	421.798	0.0806	0.00488
389	422.161	0.08055	0.00488
395	362.25	0.09233	0.00559
400	362.587	0.09221	0.00558
408	362.931	0.09212	0.00557
418	363.302	0.09207	0.00557
429	363.689	0.09197	0.00557
578	443.973	0.07665	0.00464
578	444.259	0.07662	0.00464
578	444.563	0.07659	0.00464
578	444.884	0.07653	0.00463
578	445.222	0.07653	0.00463
579	443.96	0.07698	0.00466
579	444.27	0.07697	0.00466
579	444.584	0.07694	0.00466
580	443.675	0.07702	0.00466
580	444.926	0.07691	0.00466
825	463.343	0.07424	0.00449
829	463.622	0.07417	0.00449
832	463.925	0.07415	0.00449
835	464.245	0.07414	0.00449
836	464.584	0.07411	0.00449
932	594.831	0.05081	0.00308
932	595.107	0.05132	0.00311
932	595.417	0.05114	0.0031
932	595.738	0.0514	0.00312
933	594.582	0.05086	0.00308
1092	482.722	0.07209	0.00155
1093	482.731	0.07206	0.00155
1093	482.732	0.07204	0.00155
1093	482.733	0.07201	0.00155
1093	482.739	0.07198	0.00155
1432	503.079	0.07012	0.00425
1434	502.758	0.07019	0.00425
1436	502.445	0.07011	0.00424
1440	502.152	0.07012	0.00425
1444	501.869	0.07014	0.00425
1699	594.463	0.05174	0.00314
1699	594.687	0.05173	0.00314
1699	594.949	0.05177	0.00314
1700	595.239	0.05166	0.00313
1700	595.554	0.05206	0.00316
1912	524.315	0.06866	0.00416
1912	524.592	0.06856	0.00415
1913	524.889	0.06863	0.00416
1913	525.18	0.06857	0.00415
1913	525.497	0.06861	0.00415
2315	595.708	0.05273	0.0032
2316	594.942	0.05268	0.00319
2316	595.176	0.05261	0.00319
2316	595.426	0.05264	0.00319
2317	594.715	0.05253	0.00318
2572	543.327	0.06809	0.00412
2573	543.595	0.06814	0.00413
2573	543.895	0.06813	0.00413
2574	544.199	0.06819	0.00413
2575	544.525	0.0682	0.00413
2813	594.64	0.054	0.00327
2813	594.844	0.05463	0.00331
2813	595.068	0.05389	0.00327
2813	595.304	0.05455	0.00331
2814	595.583	0.05393	0.00327
3106	560.1	0.06912	0.00419
3107	560.25	0.06939	0.0042
3108	560.394	0.06947	0.00421
3109	560.567	0.06946	0.00421
3110	560.743	0.06963	0.00422
3193	594.579	0.05582	0.00338
3193	594.77	0.05502	0.00333
3193	594.992	0.05559	0.00337
3193	595.493	0.05601	0.00339
3502	594.501	0.058	0.00352
3502	594.672	0.05765	0.00349
3502	594.876	0.0578	0.0035
3502	595.338	0.05761	0.00349
3614	560.239	0.06886	0.00417
3615	560.359	0.06901	0.00418
3615	560.502	0.06915	0.00419
3616	560.651	0.06911	0.00418
3617	560.818	0.06906	0.00418
3731	594.408	0.0599	0.00363
3731	594.582	0.06054	0.00367
3731	594.769	0.06071	0.00368
3731	594.985	0.06113	0.00371
3731	595.211	0.06092	0.0037
3907	594.728	0.06327	0.00384
3908	594.94	0.0636	0.00386
3908	595.158	0.06362	0.00386
4037	594.313	0.06601	0.00401
4037	594.482	0.06544	0.00397
4037	594.656	0.06568	0.00399
4037	594.847	0.06612	0.00402
4037	595.048	0.06609	0.00401
4143	594.317	0.06879	0.00418
4143	594.464	0.06823	0.00415
4143	594.987	0.06866	0.00417
4144	594.627	0.06752	0.0041
4144	594.801	0.0687	0.00417
4230	594.278	0.07249	0.0044
4230	594.429	0.07022	0.00427
4231	594.596	0.06989	0.00425
4231	594.772	0.07121	0.00432
4231	594.959	0.06947	0.00422
4309	594.28	0.07281	0.00442
4309	594.447	0.07251	0.0044
4309	594.613	0.07317	0.00444
4309	594.794	0.07348	0.00445
4384	595.219	0.07419	0.0045
4385	594.639	0.07464	0.00454
4385	594.904	0.07442	0.00451
4385	595.063	0.0737	0.00447
4425	560.323	0.06951	0.00421
4426	560.438	0.06974	0.00422
4427	560.568	0.06941	0.0042
4428	560.72	0.0695	0.00421
4429	560.888	0.06952	0.00421
4468	594.73	0.07525	0.00456
4468	594.873	0.07522	0.00455
4469	595.019	0.07541	0.00457
4469	595.394	0.07532	0.00456
4561	594.848	0.07304	0.00442
4561	595.005	0.07383	0.00447
4561	595.177	0.07396	0.00448
4562	595.364	0.07413	0.00449
4684	594.898	0.07239	0.00439
4684	595.062	0.07315	0.00443
4685	595.25	0.07342	0.00445
4685	595.445	0.07309	0.00443
4685	595.66	0.0738	0.00447
4830	303.474	0.10797	0.00231
4831	303.185	0.10803	0.00232
4835	302.65	0.10813	0.00232
4835	302.911	0.10808	0.00232
4837	302.41	0.10814	0.00232
4848	594.841	0.07077	0.00429
4848	595.012	0.07161	0.00434
4849	595.21	0.07106	0.0043
4849	595.406	0.07202	0.00436
4850	595.629	0.07169	0.00434
4988	502.97	0.07311	0.00443
4991	502.652	0.07306	0.00442
4995	502.362	0.07313	0.00443
4998	502.093	0.07318	0.00443
5002	501.823	0.07315	0.00443
5079	594.871	0.07063	0.00428
5079	595.04	0.07083	0.00429
5079	595.221	0.07063	0.00428
5079	595.429	0.07063	0.00428
5079	594.871	0.07014	0.00425
5080	595.048	0.0708	0.00429
5080	595.238	0.07119	0.00431
5080	595.657	0.07105	0.0043
5081	595.434	0.07067	0.00428
5081	595.654	0.07128	0.00432
5265	323.101	0.10343	0.00222
5265	323.373	0.10333	0.00222
5269	323.667	0.10321	0.00221
5270	323.975	0.10315	0.00221
5274	324.3	0.10306	0.00221
5329	384.439	0.09018	0.00194
5332	384.11	0.09026	0.00194
5334	383.788	0.09028	0.00194
5338	383.497	0.0903	0.00194
5344	383.22	0.09033	0.00194
5350	443.652	0.08007	0.00172
5350	443.922	0.08004	0.00172
5351	444.213	0.08004	0.00172
5352	444.521	0.08002	0.00172
5353	444.834	0.07999	0.00172
5415	594.88	0.07047	0.00427
5415	595.045	0.0702	0.00425
5415	595.236	0.07039	0.00426
5415	595.444	0.0711	0.0043
5416	595.66	0.07009	0.00424
5421	362.588	0.09461	0.00203
5426	362.897	0.09459	0.00203
5434	363.225	0.09454	0.00203
5441	363.562	0.09437	0.00203
5447	482.667	0.0755	0.00163
5450	363.918	0.09423	0.00202
5454	482.664	0.07543	0.00163
5459	482.659	0.07549	0.00163
5461	482.663	0.07545	0.00163
5462	482.655	0.07545	0.00163
5469	421.285	0.08348	0.0018
5472	421.568	0.08352	0.0018
5475	421.87	0.08351	0.0018
5479	422.186	0.08348	0.0018
5483	422.517	0.08352	0.0018
5504	403.893	0.08652	0.00186
5504	525.338	0.07209	0.00436
5505	524.744	0.07201	0.00436
5505	525.03	0.07201	0.00436
5506	524.47	0.07207	0.00436
5507	403.567	0.08649	0.00186
5508	524.209	0.07203	0.00436
5511	403.259	0.08657	0.00186
5515	402.968	0.0866	0.00186
5515	464.469	0.07739	0.00167
5519	402.692	0.08661	0.00186
5519	464.148	0.0774	0.00167
5524	463.844	0.07743	0.00167
5529	463.287	0.07748	0.00167
5529	463.554	0.07744	0.00167
5578	342.799	0.09905	0.00213
5579	343.987	0.0987	0.00212
5589	343.065	0.09897	0.00212
5597	343.362	0.09885	0.00212
5600	343.669	0.0988	0.00212
5632	560.655	0.07113	0.00431
5633	560.794	0.0705	0.00427
5634	560.948	0.07071	0.00428
5635	561.128	0.07066	0.00428
5636	561.312	0.07086	0.00429
5885	595.02	0.07151	0.00433
5885	595.202	0.07088	0.00429
5885	595.4	0.07101	0.0043
5886	594.852	0.07065	0.00428
6122	544.191	0.07169	0.00434
6123	543.387	0.0716	0.00433
6123	543.642	0.07159	0.00433
6123	543.906	0.07164	0.00434
6123	544.489	0.07167	0.00434
6603	594.394	0.07146	0.00433
6604	594.569	0.07128	0.00432
6605	594.766	0.07168	0.00434
6606	594.978	0.07165	0.00434
6607	595.196	0.07147	0.00433
7433	560.762	0.07195	0.00436
7434	560.914	0.07212	0.00437
7434	561.471	0.07219	0.00437
7435	561.082	0.07215	0.00437
7435	561.268	0.07231	0.00438
7589	594.316	0.07164	0.00434
7589	594.486	0.07233	0.00438
7589	594.671	0.07188	0.00435
7589	594.865	0.07234	0.00438
7589	595.078	0.07221	0.00437
8913	595.015	0.07283	0.00441
8914	594.806	0.07378	0.00447
8917	594.616	0.07364	0.00446
8919	594.446	0.07362	0.00446
8922	594.269	0.07359	0.00445
9846	560.858	0.07396	0.00448
9848	561.031	0.07395	0.00448
9850	561.215	0.07396	0.00448
9851	561.416	0.07405	0.00448
9852	561.637	0.07388	0.00447
10110	303.398	0.1099	0.00236
10112	303.119	0.11001	0.00236
10113	302.85	0.11005	0.00236
10115	302.598	0.1101	0.00236
10117	302.354	0.11009	0.00236
10125	342.799	0.10095	0.00217
10128	525.014	0.07536	0.00456
10128	525.306	0.07536	0.00456
10130	524.479	0.07534	0.00456
10130	524.742	0.07529	0.00456
10131	524.232	0.07526	0.00456
10137	343.067	0.10082	0.00216
10145	343.351	0.10077	0.00216
10154	343.656	0.10074	0.00216
10157	343.974	0.10063	0.00216
10202	384.074	0.09257	0.00199
10203	384.399	0.09251	0.00199
10205	383.771	0.09259	0.00199
10206	383.478	0.09263	0.00199
10210	383.208	0.09263	0.00199
10213	501.72	0.07675	0.00465
10214	501.972	0.07676	0.00465
10214	502.231	0.07672	0.00464
10214	502.514	0.07675	0.00465
10216	502.805	0.07675	0.00465
10236	443.597	0.08284	0.00178
10236	443.863	0.08279	0.00178
10238	444.166	0.0828	0.00178
10239	444.46	0.08281	0.00178
10239	444.77	0.0828	0.00178
10329	421.327	0.0861	0.00185
10330	421.597	0.08612	0.00185
10332	421.888	0.08608	0.00185
10335	422.185	0.08603	0.00185
10336	422.52	0.08603	0.00185
10388	483.703	0.0785	0.00169
10389	464.064	0.08035	0.00173
10390	463.77	0.08033	0.00173
10390	464.365	0.08036	0.00173
10392	323.093	0.10537	0.00226
10392	323.362	0.10532	0.00226
10392	463.227	0.08042	0.00173
10392	463.492	0.08037	0.00173
10393	482.606	0.07855	0.00169
10394	323.65	0.10522	0.00226
10396	323.947	0.10518	0.00226
10396	483.408	0.07847	0.00169
10397	324.269	0.10509	0.00225
10400	482.856	0.07843	0.00169
10400	483.125	0.0785	0.00169
10498	363.91	0.09667	0.00207
10499	364.244	0.09651	0.00207
10500	363.587	0.09673	0.00208
10508	363.282	0.09677	0.00208
10511	362.998	0.09679	0.00208
10540	402.904	0.08913	0.00192
10542	402.64	0.08915	0.00192
10569	403.186	0.0891	0.00191
10596	403.489	0.08909	0.00191
10617	403.807	0.08908	0.00191
10780	594.955	0.07503	0.00454
10782	594.759	0.07489	0.00453
10783	594.573	0.07508	0.00454
10785	594.405	0.07502	0.00454
10786	594.247	0.07471	0.00452
11141	543.301	0.07527	0.00456
11142	543.547	0.07528	0.00456
11144	543.799	0.07532	0.00456
11146	544.071	0.07535	0.00456
11148	544.358	0.07535	0.00456
13111	561.589	0.07615	0.00461
13118	561.417	0.07634	0.00462
13123	561.249	0.07629	0.00462
13127	561.098	0.07607	0.0046
13133	561.093	0.07612	0.00461
13293	594.232	0.07627	0.00462
13295	594.397	0.07641	0.00463
13297	594.572	0.07655	0.00463
13299	594.761	0.07661	0.00464
13300	594.955	0.07664	0.00464
16114	543.215	0.07824	0.00474
16118	543.451	0.07837	0.00474
16121	543.698	0.07836	0.00474
16126	543.971	0.07839	0.00474
16130	544.255	0.07836	0.00474
16484	594.457	0.07844	0.00475
16485	594.132	0.07823	0.00474
16485	594.641	0.07848	0.00475
16486	594.294	0.07838	0.00474
16486	594.825	0.0784	0.00475
17591	561.397	0.07883	0.00477
17596	561.193	0.07886	0.00477
17601	560.677	0.07873	0.00477
17601	560.831	0.07887	0.00477
17601	561.001	0.0789	0.00478
19846	303.3	0.11335	0.00243
19849	303.024	0.11341	0.00243
19852	302.764	0.11345	0.00243
19859	302.519	0.11345	0.00243
19861	302.287	0.11339	0.00243
20036	342.744	0.10483	0.00225
20043	501.609	0.08217	0.00497
20044	343.002	0.10477	0.00225
20049	343.273	0.10469	0.00224
20052	501.848	0.08224	0.00498
20053	343.568	0.1046	0.00224
20055	343.876	0.10456	0.00224
20058	502.092	0.08221	0.00498
20063	502.359	0.08225	0.00498
20063	502.641	0.08223	0.00498
20137	383.187	0.09696	0.00208
20138	524.072	0.08107	0.00491
20141	383.446	0.09699	0.00208
20141	524.295	0.08113	0.00491
20143	524.544	0.08109	0.00491
20143	525.081	0.08115	0.00491
20144	524.802	0.08114	0.00491
20154	383.714	0.09694	0.00208
20170	384.012	0.0969	0.00208
20181	384.32	0.09686	0.00208
20219	421.253	0.09085	0.00195
20222	421.505	0.09085	0.00195
20222	421.773	0.09081	0.00195
20224	422.061	0.09076	0.00195
20224	422.361	0.09074	0.00195
20237	402.587	0.09359	0.00201
20243	402.845	0.09359	0.00201
20247	403.121	0.09357	0.00201
20252	403.404	0.09352	0.00201
20257	403.711	0.09345	0.00201
20292	443.533	0.08793	0.00189
20292	443.779	0.08788	0.00189
20292	444.042	0.08791	0.00189
20292	444.609	0.08789	0.00189
20293	444.327	0.08789	0.00189
20368	464.197	0.0855	0.00184
20369	463.116	0.08559	0.00184
20369	463.901	0.08547	0.00184
20370	463.37	0.08556	0.00184
20370	463.625	0.08545	0.00184
20397	324.187	0.10882	0.00233
20398	323.054	0.1091	0.00234
20398	323.317	0.10906	0.00234
20398	323.883	0.10891	0.00233
20399	323.585	0.10898	0.00234
20535	594.151	0.08016	0.00485
20539	594.324	0.08046	0.00487
20543	594.5	0.08046	0.00487
20544	594.679	0.0806	0.00488
20544	594.863	0.08079	0.00489
20698	364.263	0.10081	0.00216
20701	363.945	0.10085	0.00216
20707	363.641	0.10088	0.00216
20724	363.354	0.10093	0.00217
20728	363.075	0.10096	0.00217
20793	482.719	0.08409	0.00181
20798	482.95	0.08399	0.00181
20800	483.762	0.08396	0.00181
20802	483.207	0.08394	0.00181
20803	483.475	0.08402	0.00181
21084	543.443	0.08097	0.0049
21088	543.674	0.08089	0.0049
21091	543.915	0.081	0.0049
21094	544.117	0.08103	0.0049
21096	544.388	0.081	0.0049
23417	560.842	0.08167	0.00494
23419	560.994	0.08178	0.00495
23420	561.152	0.08178	0.00495
23421	561.34	0.08184	0.00495
23423	561.519	0.08188	0.00496
26022	594.103	0.08267	0.005
26022	594.239	0.08298	0.00502
26027	594.382	0.08311	0.00503
26033	594.548	0.08323	0.00504
26038	594.735	0.08328	0.00504
30060	544.109	0.08532	0.00516
30063	543.873	0.08534	0.00516
30068	543.646	0.08535	0.00517
30071	543.436	0.08533	0.00516
30073	303.228	0.11661	0.0025
30074	324.125	0.11219	0.0024
30075	323.54	0.11237	0.00241
30075	323.821	0.1122	0.0024
30076	323.271	0.11241	0.00241
30077	543.24	0.08523	0.00516
30080	323.022	0.11247	0.00241
30082	302.955	0.11665	0.0025
30093	501.5	0.08693	0.00526
30096	302.7	0.11648	0.00249
30101	501.718	0.08703	0.00527
30101	502.47	0.08697	0.00526
30107	302.467	0.11674	0.0025
30107	501.953	0.08705	0.00527
30107	502.21	0.08699	0.00526
30119	302.237	0.11678	0.0025
30121	342.712	0.10851	0.00233
30121	342.959	0.10845	0.00232
30124	364.265	0.10437	0.00224
30127	343.226	0.10844	0.00232
30129	363.96	0.10444	0.00224
30136	363.666	0.10443	0.00224
30140	343.507	0.1083	0.00232
30145	363.397	0.10447	0.00224
30153	343.802	0.10825	0.00232
30164	363.137	0.10452	0.00224
30199	523.991	0.08586	0.0052
30204	524.211	0.08592	0.0052
30205	421.44	0.09501	0.00204
30206	421.194	0.09509	0.00204
30207	421.693	0.09504	0.00204
30208	524.429	0.08596	0.0052
30209	421.968	0.09504	0.00204
30209	422.26	0.095	0.00204
30210	524.938	0.08591	0.0052
30211	524.678	0.08589	0.0052
30281	444.513	0.09228	0.00198
30282	444.237	0.09228	0.00198
30284	443.482	0.0923	0.00198
30284	443.716	0.09231	0.00198
30284	443.967	0.09224	0.00198
30316	402.543	0.09775	0.0021
30318	402.78	0.09772	0.0021
30319	403.043	0.09772	0.0021
30321	403.313	0.09768	0.0021
30323	403.606	0.09761	0.00209
30336	463.069	0.0901	0.00194
30339	463.305	0.09005	0.00193
30339	463.561	0.09003	0.00193
30341	463.817	0.08992	0.00193
30342	383.142	0.10105	0.00217
30342	464.097	0.09001	0.00193
30352	383.387	0.10105	0.00217
30361	383.651	0.10103	0.00217
30361	384.222	0.10091	0.00216
30368	383.93	0.10096	0.00217
30727	560.842	0.08523	0.00516
30733	560.992	0.08511	0.00515
30742	561.184	0.08535	0.00517
30750	561.373	0.08539	0.00517
30760	561.594	0.08534	0.00516
30864	483.589	0.08862	0.0019
30866	482.606	0.08866	0.00191
30874	482.835	0.08862	0.0019
30875	483.327	0.08863	0.0019
30877	483.072	0.08862	0.0019
32793	594.151	0.08594	0.0052
32794	594.321	0.08618	0.00522
32795	593.984	0.08585	0.0052
32795	594.494	0.08626	0.00522
32795	594.684	0.08626	0.00522
38774	303.168	0.11925	0.00255
38964	302.906	0.11937	0.00256
39165	302.658	0.11948	0.00256
39384	302.422	0.11964	0.00256
39616	302.201	0.11964	0.00256
39985	561.237	0.08921	0.0054
39995	561.403	0.08939	0.00541
40004	324.057	0.1154	0.00247
40004	561.584	0.08924	0.0054
40014	561.772	0.08907	0.00539
40024	561.967	0.08903	0.00539
40040	323.764	0.11546	0.00247
40046	501.51	0.09119	0.00552
40049	502.437	0.09122	0.00552
40053	501.713	0.09106	0.00551
40055	501.939	0.09116	0.00552
40056	502.178	0.09118	0.00552
40073	403.485	0.10138	0.00217
40077	323.492	0.11556	0.00247
40082	403.208	0.10137	0.00217
40091	402.95	0.10139	0.00217
40099	523.996	0.09007	0.00545
40100	402.701	0.10142	0.00218
40106	524.197	0.08995	0.00544
40110	343.781	0.1116	0.00239
40110	402.466	0.10148	0.00218
40111	524.409	0.09006	0.00545
40115	323.231	0.11564	0.00248
40116	524.654	0.09011	0.00545
40120	524.891	0.09007	0.00545
40122	343.49	0.11167	0.00239
40131	343.22	0.11177	0.00239
40133	543.805	0.0897	0.00543
40138	342.967	0.11171	0.00239
40139	543.582	0.08971	0.00543
40143	342.715	0.11191	0.0024
40144	543.355	0.0896	0.00542
40148	543.156	0.0897	0.00543
40151	542.965	0.0896	0.00542
40156	322.985	0.11559	0.00248
40196	364.226	0.10798	0.00231
40197	464.017	0.09401	0.00202
40222	463.749	0.09402	0.00202
40226	363.931	0.108	0.00231
40250	463.496	0.09405	0.00202
40262	363.661	0.10804	0.00232
40277	463.257	0.0941	0.00202
40300	363.394	0.10806	0.00232
40300	422.174	0.09891	0.00212
40303	463.03	0.09415	0.00202
40305	421.896	0.09894	0.00212
40308	421.635	0.09892	0.00212
40311	421.387	0.09896	0.00212
40315	421.155	0.09899	0.00212
40340	363.147	0.10812	0.00232
40354	444.421	0.09627	0.00207
40357	444.152	0.09633	0.00207
40361	443.903	0.0963	0.00207
40364	443.665	0.09626	0.00207
40367	443.432	0.09632	0.00207
40401	384.152	0.10462	0.00224
40416	383.864	0.10464	0.00224
40432	383.596	0.10473	0.00225
40454	383.339	0.10475	0.00225
40480	383.101	0.10479	0.00225
40608	303.142	0.11979	0.00256
40683	302.873	0.11986	0.00257
40760	302.627	0.11993	0.00257
40839	302.389	0.11999	0.00257
40884	483.509	0.09275	0.00199
40908	483.25	0.09281	0.00199
40924	483.004	0.09279	0.00199
40926	302.167	0.12006	0.00257
40939	482.776	0.09286	0.00199
40946	482.559	0.09287	0.00199
41382	594.762	0.08963	0.00542
41390	594.584	0.08948	0.00541
41396	594.398	0.08941	0.00541
41406	594.226	0.08935	0.00541
41421	594.073	0.08911	0.00539
49157	463.88	0.09743	0.00209
49250	463.616	0.09738	0.00209
49348	463.374	0.09749	0.00209
49450	463.147	0.09762	0.00209
49560	462.928	0.09765	0.0021
49650	594.346	0.09285	0.00562
49668	303.089	0.12239	0.00262
49685	594.171	0.09283	0.00562
49692	502.287	0.09488	0.00574
49707	594.011	0.0927	0.00561
49710	524.76	0.09374	0.00567
49713	324.02	0.11839	0.00253
49716	343.706	0.11468	0.00246
49724	593.869	0.09265	0.00561
49732	502.049	0.09487	0.00574
49755	593.738	0.09262	0.0056
49765	524.521	0.09376	0.00567
49768	343.424	0.11473	0.00246
49769	501.818	0.09494	0.00574
49786	323.733	0.11849	0.00254
49794	302.828	0.12252	0.00262
49803	501.604	0.0949	0.00574
49816	524.301	0.09388	0.00568
49833	343.158	0.11488	0.00246
49841	501.398	0.09487	0.00574
49854	524.084	0.09377	0.00567
49859	323.458	0.11854	0.00254
49894	523.889	0.0936	0.00566
49909	342.907	0.11501	0.00246
49929	302.579	0.12258	0.00262
49936	323.211	0.11864	0.00254
49989	342.673	0.11503	0.00246
50017	322.971	0.11858	0.00254
50040	384.076	0.10796	0.00231
50070	302.346	0.12267	0.00263
50098	383.801	0.10801	0.00231
50113	543.774	0.09346	0.00565
50133	543.551	0.09349	0.00566
50151	543.335	0.09341	0.00565
50164	383.543	0.10807	0.00232
50168	543.131	0.09346	0.00565
50189	542.941	0.09336	0.00565
50226	302.13	0.12265	0.00263
50233	383.291	0.10812	0.00232
50305	383.06	0.10815	0.00232
50323	403.426	0.10498	0.00225
50377	403.158	0.105	0.00225
50431	402.904	0.10502	0.00225
50451	364.192	0.11134	0.00239
50487	402.665	0.10507	0.00225
50516	363.906	0.11138	0.00239
50546	402.441	0.10515	0.00225
50590	363.64	0.11147	0.00239
50641	363.387	0.1115	0.00239
50689	363.149	0.11158	0.00239
50920	483.425	0.09653	0.00207
50962	444.328	0.10021	0.00215
50971	483.181	0.09653	0.00207
50977	444.068	0.10026	0.00215
50989	443.822	0.10017	0.00215
51003	443.569	0.10028	0.00215
51015	482.942	0.09656	0.00207
51017	443.35	0.10021	0.00215
51037	422.111	0.10284	0.00221
51066	421.844	0.10281	0.0022
51089	482.715	0.09658	0.00207
51095	421.592	0.10286	0.00221
51120	561.855	0.09362	0.00566
51126	421.355	0.10284	0.00221
51159	421.135	0.10291	0.00221
51159	561.721	0.09327	0.00564
51165	482.508	0.09664	0.00207
51197	561.598	0.0934	0.00565
51238	561.472	0.09347	0.00566
51279	561.358	0.09333	0.00565
59160	303.105	0.12505	0.00268
59376	302.848	0.12515	0.00268
59609	302.6	0.12528	0.00268
59851	302.37	0.12542	0.00268
60099	302.154	0.12549	0.00269

System: 1-cyclohexylpropane; phases: Gas
Property: Thermal conductivity, W/m/K (Gas); method: Hot wire method
Pressure, kPa	Temperature, K	Thermal conductivity, W/m/K	uncertainty
83	481.247	0.02757	0.00169
83	481.938	0.02808	0.00173
83	482.218	0.02815	0.00173
84	481.451	0.02786	0.00171
84	481.676	0.02799	0.00172
88	453.613	0.0248	0.00153
89	453.376	0.02469	0.00152
89	453.873	0.02493	0.00153
89	454.157	0.02501	0.00154
90	454.483	0.02507	0.00154
91	543.046	0.03608	0.00221
91	543.178	0.0364	0.00223
91	543.33	0.03669	0.00225
91	543.508	0.03669	0.00225
91	543.712	0.03673	0.00225
120	510.629	0.03146	0.00193
121	510.812	0.03166	0.00194
121	511.022	0.03185	0.00195
121	511.265	0.03192	0.00196
124	603.125	0.04478	0.00282
124	603.249	0.04482	0.00283
125	603.398	0.04502	0.00282
125	603.555	0.04477	0.00281
125	603.729	0.04465	0.0028
131	481.928	0.0283	0.00174
131	482.209	0.02834	0.00174
131	573.954	0.04035	0.00247
132	481.234	0.02798	0.00173
132	481.434	0.0282	0.00174
132	481.664	0.02828	0.00174
132	573.618	0.04031	0.00247
132	573.776	0.0403	0.00247
150	453.324	0.02459	0.00151
150	453.554	0.02481	0.00153
151	453.823	0.02488	0.00153
151	603.102	0.04608	0.00287
151	603.156	0.04625	0.0029
151	603.221	0.04613	0.00289
151	603.29	0.04609	0.00288
151	603.364	0.04592	0.00287
152	603.427	0.04591	0.00286
152	603.49	0.04584	0.00288
153	454.109	0.02499	0.00154
153	603.564	0.04605	0.00289
154	454.427	0.02506	0.00154
154	603.628	0.0462	0.00291
154	603.707	0.04626	0.00294
162	453.232	0.02486	0.00153
163	453.471	0.02502	0.00154
163	453.734	0.02506	0.00154
164	454.034	0.02511	0.00156
164	454.352	0.02517	0.00157
191	481.24	0.02893	0.00178
192	481.435	0.02891	0.00178
193	481.651	0.02896	0.00178
193	481.894	0.029	0.00178
193	482.165	0.02902	0.00178
213	511.241	0.03227	0.00198
214	510.617	0.03179	0.00195
214	510.808	0.0319	0.00196
214	511.02	0.03214	0.00197
222	543.024	0.03653	0.00224
224	543.157	0.03704	0.00227
226	543.318	0.03708	0.00227
227	543.494	0.03712	0.00228
228	543.704	0.03693	0.00226
248	481.285	0.02875	0.00177
248	481.477	0.02882	0.00177
249	481.691	0.02897	0.00178
250	481.92	0.02904	0.00178
251	482.184	0.02914	0.00179
259	573.467	0.04051	0.00248
260	573.608	0.04062	0.00249
261	573.768	0.04084	0.0025
262	573.948	0.04077	0.0025
287	603.169	0.04674	0.00286
289	603.28	0.04701	0.00288
290	603.411	0.04728	0.00289
291	603.565	0.04718	0.00289
310	481.257	0.02904	0.00179
310	481.453	0.02916	0.00179
310	481.654	0.02931	0.0018
310	481.883	0.02946	0.00181
310	482.126	0.02964	0.00182
312	510.4	0.03295	0.00203
312	510.565	0.03309	0.00203
312	510.743	0.03318	0.00204
312	510.956	0.03318	0.00204
312	511.188	0.03313	0.00204
320	543.012	0.03718	0.00228
321	543.151	0.03757	0.0023
322	543.311	0.0376	0.00231
322	543.493	0.0374	0.00229
322	543.695	0.03721	0.00228
411	573.714	0.04201	0.00258
412	510.729	0.03373	0.00207
412	573.432	0.04167	0.00255
412	573.562	0.04201	0.00258
413	510.377	0.03398	0.00209
413	510.545	0.03392	0.00208
413	510.925	0.03382	0.00208
413	511.136	0.03385	0.00208
413	573.3	0.04164	0.00255
413	573.858	0.04203	0.00258
428	542.989	0.03803	0.00233
428	543.646	0.03802	0.00233
429	543.128	0.03827	0.00235
429	543.277	0.03846	0.00236
429	543.462	0.03801	0.00233
502	603.196	0.04568	0.0028
503	603.328	0.04602	0.00282
504	603.457	0.04639	0.00284
504	603.611	0.04663	0.00285
508	510.359	0.03487	0.00214
508	510.51	0.0348	0.00214
509	510.68	0.03477	0.00214
510	510.862	0.03472	0.00213
511	511.071	0.03467	0.00213
514	542.985	0.0387	0.00237
515	543.105	0.03895	0.00239
516	543.242	0.03908	0.00239
517	543.391	0.03898	0.00239
518	543.564	0.03908	0.00239
562	573.292	0.04265	0.00261
562	573.406	0.04263	0.00261
563	573.522	0.04292	0.00263
565	573.642	0.04334	0.00266
567	573.773	0.04368	0.00268
656	542.993	0.03796	0.00233
656	543.134	0.03802	0.00233
657	543.271	0.03825	0.00234
658	543.418	0.03849	0.00236
659	543.575	0.03882	0.00238

System: 1-cyclohexylpropane; phases: Gas
Property: Thermal conductivity, W/m/K (Gas); method: Hot wire method
Pressure, kPa	Temperature, K	Thermal conductivity, W/m/K	uncertainty
89	454.018	0.0255	0.00157
89	454.137	0.02554	0.00157
89	454.439	0.02563	0.00158
89	454.544	0.02562	0.00157
89	454.91	0.02561	0.00157
89	455.005	0.02562	0.00158
89	455.437	0.02567	0.00158
89	455.521	0.0257	0.00158
89	456.094	0.02578	0.00158
90	456.009	0.02574	0.00158
131	483.427	0.02945	0.00181
132	481.745	0.02918	0.00179
132	482.091	0.02932	0.0018
132	482.493	0.02939	0.0018
132	482.941	0.02939	0.0018
149	453.904	0.02547	0.00157
150	454.312	0.02549	0.00157
151	454.763	0.02545	0.00156
152	455.261	0.02558	0.00157
153	455.805	0.02565	0.00158
162	453.8	0.02537	0.00156
163	454.207	0.02545	0.00157
163	454.658	0.02536	0.00156
163	455.162	0.0255	0.00157
164	455.706	0.02559	0.00157
191	481.701	0.02917	0.00179
192	482.044	0.0293	0.0018
193	482.408	0.02944	0.00181
193	482.832	0.02945	0.00181
193	483.293	0.02939	0.0018
213	510.867	0.03354	0.00206
213	512.21	0.03366	0.00206
214	511.148	0.03348	0.00205
214	511.46	0.03359	0.00206
214	511.822	0.03357	0.00206
248	481.729	0.02916	0.00179
248	482.056	0.02914	0.00179
249	482.418	0.02927	0.0018
250	482.815	0.02935	0.0018
250	483.254	0.02945	0.00181
310	482.005	0.02878	0.00177
310	482.357	0.02896	0.00178
310	482.747	0.02915	0.00179
310	483.176	0.02922	0.00179
312	510.767	0.03357	0.00206
312	511.354	0.0335	0.00205
312	511.697	0.03348	0.00205
312	512.082	0.03357	0.00206
313	511.039	0.03352	0.00206
319	543.32	0.03871	0.00237
321	543.554	0.03853	0.00236
322	543.823	0.03854	0.00236
322	544.11	0.03855	0.00236
412	511.634	0.03352	0.00206
413	511.001	0.0335	0.00205
413	511.306	0.03345	0.00205
413	511.995	0.03353	0.00206
414	510.733	0.03355	0.00206
428	543.28	0.03854	0.00236
428	544.37	0.03844	0.00236
429	543.495	0.03848	0.00236
429	543.755	0.03847	0.00236
429	544.046	0.0385	0.00236
508	510.696	0.0335	0.00205
508	510.948	0.03345	0.00205
508	511.235	0.03346	0.00205
510	511.554	0.03354	0.00206
511	511.905	0.03353	0.00206
514	543.263	0.03856	0.00236
514	543.477	0.03855	0.00236
515	543.716	0.03849	0.00236
518	544.266	0.03844	0.00236
562	573.726	0.04326	0.00265
563	573.543	0.0434	0.00266
563	573.931	0.04349	0.00266
564	574.148	0.04344	0.00266
566	574.381	0.04334	0.00265
656	543.287	0.03858	0.00236
656	543.503	0.03858	0.00236
656	543.743	0.0381	0.00234
659	544.276	0.03851	0.00236
714	603.333	0.04894	0.003
716	603.494	0.04869	0.00298
717	603.683	0.04855	0.00297
719	603.891	0.04866	0.00298
720	604.134	0.04869	0.00298
778	573.64	0.04361	0.00267
779	573.819	0.04339	0.00266
780	574.047	0.04345	0.00266
780	574.299	0.04308	0.00264
780	574.569	0.04355	0.00267
806	543.206	0.03881	0.00238
807	543.39	0.03882	0.00238
808	543.598	0.03879	0.00238
809	543.843	0.03872	0.00237
810	544.119	0.0387	0.00237
969	573.696	0.04374	0.00268
970	573.88	0.04382	0.00268
970	574.089	0.04378	0.00268
971	574.322	0.04379	0.00268
971	574.59	0.0438	0.00268
986	603.318	0.04904	0.003
986	603.482	0.04883	0.00299
986	603.873	0.0488	0.00299
988	603.273	0.04909	0.003
988	603.456	0.04911	0.00301
989	603.657	0.04876	0.00298
989	603.872	0.04873	0.00298
989	604.103	0.04879	0.00299
1206	573.611	0.04446	0.00272
1206	573.795	0.04432	0.00271
1206	574.244	0.04437	0.00272
1206	574.498	0.04437	0.00272
1295	603.997	0.04929	0.00302
1296	603.278	0.04937	0.00302
1296	603.432	0.04954	0.00303
1296	603.599	0.04931	0.00302
1325	573.612	0.04489	0.00275
1325	573.783	0.0449	0.00275
1325	573.985	0.04477	0.00274
1325	574.204	0.04465	0.00273
1325	574.457	0.04476	0.00274
1589	603.497	0.05033	0.00308
1589	603.686	0.05021	0.00307
1590	603.113	0.05043	0.00309
1590	603.282	0.05031	0.00308
1848	603.115	0.05232	0.0032
1848	603.278	0.05204	0.00319
1848	603.643	0.05205	0.00319

System: 1-cyclohexylpropane; phases: Liquid
Property: Thermal conductivity, W/m/K (Liquid); method: Hot wire method
Pressure, kPa	Temperature, K	Thermal conductivity, W/m/K	uncertainty
46	362.494	0.09826	0.00215
52	362.222	0.09812	0.00215
60	362.747	0.09806	0.00214
76	363.059	0.09794	0.00214
78	393.291	0.09242	0.00202
83	392.972	0.09256	0.00203
86	363.39	0.09783	0.00214
91	392.666	0.09263	0.00203
104	392.375	0.09276	0.00203
105	302.523	0.1099	0.0024
107	302.168	0.11	0.0024
108	301.842	0.11008	0.0024
111	301.527	0.11017	0.00241
113	301.234	0.11027	0.00241
115	392.102	0.09283	0.00203
161	332.684	0.10398	0.00227
171	332.966	0.10387	0.00227
172	333.931	0.10357	0.00226
177	333.269	0.10376	0.00227
178	333.592	0.10367	0.00227
209	453.938	0.08289	0.00182
210	453.633	0.08298	0.00182
212	452.819	0.08315	0.00182
212	453.367	0.08308	0.00182
213	453.084	0.08314	0.00182
330	482.4	0.0787	0.00173
331	482.664	0.07897	0.00173
331	482.936	0.07922	0.00174
331	483.218	0.07923	0.00174
568	512.508	0.07479	0.00454
568	512.774	0.07539	0.00457
568	513.05	0.07519	0.00456
568	513.342	0.07586	0.0046
568	513.655	0.07606	0.00462
793	422.083	0.0879	0.00193
795	422.381	0.08757	0.00192
796	421.538	0.08814	0.00193
796	421.806	0.08802	0.00193
797	422.693	0.08739	0.00191
928	543.897	0.07267	0.00441
928	544.167	0.07237	0.00439
928	544.436	0.07205	0.00437
928	544.722	0.07361	0.00447
928	545.011	0.07292	0.00443
1542	574.608	0.07152	0.00434
1542	574.87	0.07158	0.00434
1544	575.132	0.07127	0.00433
1545	575.317	0.07134	0.00433
1547	575.604	0.07133	0.00433
2115	604.369	0.0711	0.00432
2117	604.698	0.07122	0.00432
2118	605.049	0.07136	0.00433
2120	605.405	0.07063	0.00429
2121	605.754	0.07118	0.00432
3669	604.72	0.07364	0.00447
3673	604.988	0.07355	0.00446
3676	605.276	0.07343	0.00446
3678	605.578	0.07333	0.00445
3681	605.901	0.07338	0.00445
5147	362.718	0.10017	0.00219
5150	362.425	0.10025	0.00219
5156	363.023	0.10011	0.00219
5158	362.16	0.10029	0.00219
5159	302.417	0.11153	0.00244
5175	302.071	0.11164	0.00244
5175	363.337	0.10004	0.00219
5178	422.298	0.08982	0.00197
5179	422.016	0.09023	0.00198
5179	422.603	0.08945	0.00196
5182	421.739	0.09027	0.00198
5185	421.487	0.09043	0.00198
5203	301.743	0.11174	0.00244
5217	301.435	0.11184	0.00244
5226	301.144	0.11191	0.00244
5256	332.664	0.1058	0.00231
5268	332.943	0.10575	0.00231
5280	333.239	0.10536	0.0023
5283	333.551	0.10574	0.00231
5284	333.876	0.10565	0.00231
5294	482.293	0.08277	0.00181
5301	482.53	0.08283	0.00182
5307	482.78	0.08275	0.00181
5311	483.052	0.08264	0.00181
5315	483.342	0.08254	0.00181
5356	452.764	0.08632	0.00189
5356	453.007	0.08621	0.00189
5356	453.275	0.08609	0.00189
5356	453.552	0.08608	0.00189
5356	453.853	0.08577	0.00188
5424	393.205	0.09494	0.00208
5430	392.897	0.09504	0.00208
5436	392.598	0.0951	0.00208
5445	392.322	0.09523	0.00208
5453	392.061	0.09534	0.00209
5615	544.539	0.07751	0.0047
5616	544.818	0.07748	0.0047
5617	544.275	0.07735	0.00469
5619	544.011	0.07761	0.00471
5623	543.777	0.07755	0.00471
5728	604.884	0.07533	0.00457
5731	605.115	0.07533	0.00457
5733	605.381	0.07517	0.00456
5733	605.658	0.07516	0.00456
5733	605.944	0.07505	0.00455
5769	513.51	0.07995	0.00485
5772	513.225	0.07997	0.00485
5777	512.946	0.08001	0.00485
5785	512.675	0.07994	0.00485
5795	512.438	0.07994	0.00485
5896	574.673	0.07613	0.00462
5898	574.913	0.07623	0.00463
5902	575.5	0.07587	0.0046
5905	575.431	0.07558	0.00459
5912	574.933	0.07593	0.00461
8833	604.874	0.07789	0.00473
8837	605.861	0.07757	0.00471
8840	605.331	0.07785	0.00472
8840	605.589	0.0776	0.00471
10040	301.411	0.11346	0.00248
10042	301.121	0.11357	0.00248
10059	301.715	0.11337	0.00248
10073	302.032	0.11332	0.00247
10084	302.372	0.11321	0.00247
10115	482.488	0.08549	0.00187
10118	482.248	0.08553	0.00187
10118	482.73	0.08535	0.00187
10128	482.99	0.08543	0.00187
10138	483.272	0.08537	0.00187
10258	392.033	0.09739	0.00213
10260	363.015	0.10218	0.00223
10265	362.713	0.10218	0.00223
10269	363.32	0.10202	0.00223
10275	362.435	0.10227	0.00224
10275	392.295	0.09732	0.00213
10287	453.22	0.08855	0.00194
10287	453.783	0.08852	0.00194
10288	392.557	0.09725	0.00213
10288	452.717	0.08892	0.00195
10288	452.962	0.08879	0.00194
10288	453.495	0.08856	0.00194
10289	362.134	0.10234	0.00224
10301	392.845	0.0972	0.00213
10308	393.151	0.09709	0.00212
10315	332.638	0.10769	0.00235
10330	332.91	0.10762	0.00235
10343	333.202	0.10753	0.00235
10346	333.841	0.10742	0.00235
10349	333.514	0.10742	0.00235
10420	422.53	0.09276	0.00203
10422	422.235	0.09227	0.00202
10423	421.954	0.09291	0.00203
10424	421.443	0.09294	0.00203
10424	421.686	0.09286	0.00203
10828	513.383	0.08292	0.00503
10836	513.097	0.083	0.00504
10847	512.825	0.08296	0.00503
10849	512.348	0.0829	0.00503
10851	512.582	0.083	0.00504
10963	543.715	0.08089	0.00491
10970	543.935	0.08099	0.00491
10975	544.184	0.08108	0.00492
10979	544.428	0.08093	0.00491
10981	544.694	0.08057	0.00489
11915	575.32	0.08019	0.00487
11927	574.779	0.07992	0.00485
11929	574.541	0.08024	0.00487
13215	605.096	0.08061	0.00489
13216	605.59	0.08044	0.00488
13217	605.843	0.08063	0.00489
13219	604.859	0.08058	0.00489
19235	605.379	0.08405	0.0051
19235	605.615	0.0836	0.00507
19236	605.162	0.08402	0.0051
19237	604.771	0.08417	0.00511
19237	604.957	0.08405	0.0051
20273	362.921	0.10602	0.00232
20276	332.591	0.11106	0.00243
20277	332.859	0.11077	0.00242
20280	333.138	0.11068	0.00242
20280	333.443	0.11078	0.00242
20282	362.63	0.10598	0.00232
20283	333.761	0.11094	0.00242
20289	302.272	0.11625	0.00254
20290	301.629	0.11641	0.00254
20291	362.351	0.10597	0.00232
20295	301.337	0.11656	0.00254
20295	301.943	0.11638	0.00254
20300	301.053	0.1166	0.00254
20304	362.097	0.10608	0.00232
20355	422.419	0.09711	0.00212
20357	422.143	0.09718	0.00213
20363	421.875	0.09724	0.00213
20371	421.623	0.09729	0.00213
20377	391.98	0.10155	0.00222
20380	421.381	0.09738	0.00213
20386	392.217	0.10148	0.00222
20396	392.477	0.10137	0.00222
20403	392.753	0.10132	0.00221
20410	393.096	0.10134	0.00222
20566	453.683	0.09365	0.00205
20568	453.417	0.09338	0.00204
20569	453.158	0.09342	0.00204
20570	452.916	0.09341	0.00204
20573	452.686	0.09351	0.00205
20585	543.595	0.08624	0.00523
20586	544.575	0.08557	0.00519
20589	543.8	0.08623	0.00523
20589	544.264	0.08621	0.00523
20590	544.025	0.08626	0.00523
20600	482.838	0.09064	0.00198
20602	483.091	0.09068	0.00199
20604	482.582	0.09068	0.00199
20608	482.356	0.09058	0.00198
20614	482.127	0.0907	0.00199
20925	512.265	0.08862	0.00538
20933	512.476	0.08845	0.00537
20933	513.273	0.08807	0.00534
20938	512.762	0.08828	0.00536
20941	513.007	0.08818	0.00535
21179	575.232	0.0851	0.00516
21187	574.969	0.08486	0.00515
21196	574.296	0.08538	0.00518
21201	574.499	0.08541	0.00518
27663	604.678	0.08819	0.00535
27664	604.928	0.08826	0.00535
27664	605.134	0.08829	0.00536
27665	605.343	0.08833	0.00536
30131	301.026	0.1193	0.0026
30131	301.298	0.11925	0.0026
30132	301.901	0.11906	0.0026
30133	301.594	0.11913	0.0026
30135	302.225	0.11893	0.0026
30309	363.163	0.10941	0.00239
30318	362.872	0.10963	0.00239
30332	362.603	0.10951	0.00239
30341	392.947	0.10499	0.00229
30343	391.909	0.10525	0.0023
30343	392.152	0.10522	0.0023
30343	392.669	0.10507	0.0023
30345	392.398	0.10511	0.0023
30347	362.287	0.10962	0.00239
30368	362.036	0.10968	0.0024
30429	482.977	0.09484	0.00208
30433	482.721	0.09488	0.00208
30439	482.478	0.09501	0.00208
30445	482.246	0.09494	0.00208
30452	482.04	0.09506	0.00208
30506	332.539	0.11428	0.00249
30509	333.076	0.114	0.00249
30510	332.799	0.11424	0.00249
30512	333.365	0.11394	0.00249
30514	333.673	0.11409	0.00249
30557	422.365	0.10121	0.00221
30559	512.208	0.09271	0.00562
30562	422.092	0.10128	0.00221
30566	421.792	0.10132	0.00221
30569	512.413	0.0922	0.00559
30572	421.551	0.10133	0.00222
30574	513.114	0.092	0.00558
30577	512.638	0.09273	0.00562
30583	512.862	0.09267	0.00562
30584	421.316	0.10142	0.00222
30661	453.508	0.09794	0.00214
30662	453.254	0.09801	0.00214
30667	453	0.09785	0.00214
30672	452.761	0.09787	0.00214
30680	452.537	0.09786	0.00214
30786	544.4	0.09095	0.00552
30787	543.511	0.09084	0.00551
30793	543.712	0.09093	0.00552
30796	544.153	0.091	0.00552
30797	543.925	0.09106	0.00552
31053	575.1	0.09013	0.00547
31060	574.158	0.09018	0.00547
31065	574.843	0.0902	0.00547
31066	574.396	0.09006	0.00546
31067	574.614	0.0902	0.00547
38514	605.203	0.09267	0.00562
38517	605	0.09286	0.00563
38520	604.808	0.09285	0.00563
38522	604.63	0.09268	0.00562
40019	302.143	0.1216	0.00265
40023	301.821	0.12167	0.00265
40026	301.524	0.12177	0.00266
40030	301.233	0.12184	0.00266
40038	300.966	0.12193	0.00266
40227	453.437	0.10138	0.00222
40234	453.189	0.10137	0.00222
40242	452.944	0.10142	0.00222
40244	452.726	0.10141	0.00222
40252	452.491	0.10141	0.00222
40268	482.48	0.09892	0.00216
40270	482.706	0.09884	0.00216
40272	482.944	0.09889	0.00216
40280	482.254	0.099	0.00216
40299	482.056	0.09901	0.00217
40319	363.067	0.11262	0.00246
40328	333.626	0.11678	0.00255
40333	333.322	0.11692	0.00255
40337	362.781	0.11267	0.00246
40340	333.038	0.11698	0.00255
40346	332.763	0.11715	0.00256
40353	332.515	0.11702	0.00255
40361	362.513	0.11277	0.00246
40380	362.253	0.11281	0.00246
40403	362.019	0.11288	0.00246
40438	512.166	0.0963	0.00584
40445	512.358	0.09647	0.00585
40447	512.561	0.09643	0.00585
40448	512.771	0.09649	0.00585
40448	513.008	0.09641	0.00585
40499	422.255	0.10493	0.00229
40512	421.983	0.10488	0.00229
40529	421.738	0.10491	0.00229
40543	421.505	0.10498	0.00229
40554	421.276	0.10509	0.0023
40568	392.91	0.10852	0.00237
40572	392.64	0.10854	0.00237
40576	392.388	0.10863	0.00237
40584	392.141	0.10868	0.00237
40592	391.87	0.10879	0.00238
40668	544.33	0.09504	0.00576
40678	544.107	0.09509	0.00577
40686	543.885	0.09524	0.00578
40696	543.677	0.09513	0.00577
40705	543.471	0.0951	0.00577
40726	574.365	0.09429	0.00572
40731	574.141	0.09434	0.00572
40734	574.537	0.0944	0.00573
40737	574.731	0.09425	0.00572
40740	574.942	0.09408	0.00571
48206	453.384	0.10439	0.00228
48372	453.132	0.10443	0.00228
48540	452.901	0.10451	0.00228
48712	452.676	0.10452	0.00228
48890	452.468	0.10465	0.00229
49391	363.016	0.11542	0.00252
49456	362.734	0.11559	0.00252
49464	302.115	0.12395	0.0027
49506	301.8	0.12404	0.00271
49523	362.469	0.1155	0.00252
49553	301.501	0.1241	0.00271
49595	362.222	0.11564	0.00252
49600	301.218	0.12419	0.00271
49648	300.953	0.12429	0.00271
49671	361.984	0.11568	0.00253
50012	333.583	0.11986	0.00262
50029	333.286	0.11999	0.00262
50046	333.005	0.11996	0.00262
50052	392.823	0.11161	0.00244
50062	332.74	0.11998	0.00262
50078	392.557	0.11168	0.00244
50082	332.497	0.12004	0.00262
50107	392.297	0.11182	0.00244
50136	392.059	0.11182	0.00244
50169	391.838	0.11192	0.00244
50301	422.162	0.10828	0.00237
50357	421.91	0.10835	0.00237
50392	482.854	0.10264	0.00224
50420	421.667	0.10842	0.00237
50479	482.608	0.10266	0.00224
50485	421.438	0.10846	0.00237
50554	421.221	0.10861	0.00237
50575	482.391	0.10266	0.00224
50672	482.176	0.10284	0.00225
50774	481.984	0.10286	0.00225
50919	544.269	0.09923	0.00602
50976	544.051	0.09919	0.00602
51031	543.828	0.09916	0.00601
51080	543.634	0.09896	0.006
51130	543.376	0.09907	0.00601
51185	574.826	0.09829	0.00596
51227	574.628	0.09837	0.00597
51271	574.437	0.09842	0.00597
51305	512.944	0.1007	0.00611
51315	574.255	0.09839	0.00597
51355	512.717	0.10076	0.00611
51361	574.09	0.09843	0.00597
51404	512.51	0.10076	0.00611
51451	512.312	0.10074	0.00611
51500	512.136	0.10089	0.00612
51525	605.337	0.09779	0.00593
51613	605.143	0.09816	0.00595
51711	604.955	0.09803	0.00595
51820	604.77	0.09796	0.00594
51938	604.545	0.09791	0.00594
57531	302.076	0.12591	0.00275
57801	301.765	0.12608	0.00275
58098	301.469	0.12621	0.00275
58421	301.189	0.12635	0.00276
58615	362.963	0.11806	0.00258
58737	300.93	0.12647	0.00276
58828	333.536	0.12223	0.00267
58857	362.69	0.11824	0.00258
58988	333.243	0.12227	0.00267
59111	362.433	0.11839	0.00258
59157	332.967	0.12241	0.00267
59336	332.713	0.12244	0.00267
59388	362.172	0.11845	0.00258
59523	332.471	0.12258	0.00267
59688	361.94	0.11861	0.00259
59836	422.122	0.11137	0.00243
59900	421.875	0.11147	0.00243
59976	421.638	0.11146	0.00243
60069	421.414	0.11161	0.00244
60168	421.205	0.11165	0.00244
