Measured thermophysical data. Volumetric and Transport Properties of Binary Liquid Mixtures of Aliphatic Ketones with Phenylacetonitrile at T = 308.15 K
Source: J. Chem. Eng. Data, 2008, 10.1021/je8003723
Compound 1: benzeneacetonitrile, C8H7N, InChI=1S/C8H7N/c9-7-6-8-4-2-1-3-5-8/h1-5H,6H2, purity 98%
Compound 2: butanone, C4H8O, InChI=1S/C4H8O/c1-3-4(2)5/h3H2,1-2H3, purity 99%
Compound 3: pentan-3-one, C5H10O, InChI=1S/C5H10O/c1-3-5(6)4-2/h3-4H2,1-2H3, purity 98%
Compound 4: pentan-2-one, C5H10O, InChI=1S/C5H10O/c1-3-4-5(2)6/h3-4H2,1-2H3, purity 99%
Compound 5: 4-methylpentan-2-one, C6H12O, InChI=1S/C6H12O/c1-5(2)4-6(3)7/h5H,4H2,1-3H3, purity 99%

System: benzeneacetonitrile; phases: Liquid
Property: Viscosity, Pa*s (Liquid); method: Capillary tube (Ostwald; Ubbelohde) method
Temperature, K	Pressure, kPa	Viscosity, Pa*s	uncertainty
308.15	101.3	0.001585	2.1e-05

System: benzeneacetonitrile; phases: Liquid
Property: Speed of sound, m/s (Liquid); method: Sing-around technique in a fixed-path interferometer
Temperature, K	Pressure, kPa	Speed of sound, m/s	uncertainty
308.15	101.3	1518	9

System: benzeneacetonitrile; phases: Liquid
Property: Mass density, kg/m3 (Liquid); method: Pycnometric method
Temperature, K	Pressure, kPa	Mass density, kg/m3	uncertainty
308.15	101.3	1003.2	1.1

System: butanone; phases: Liquid
Property: Viscosity, Pa*s (Liquid); method: Capillary tube (Ostwald; Ubbelohde) method
Temperature, K	Pressure, kPa	Viscosity, Pa*s	uncertainty
308.15	101.3	0.000316	1e-05

System: butanone; phases: Liquid
Property: Speed of sound, m/s (Liquid); method: Sing-around technique in a fixed-path interferometer
Temperature, K	Pressure, kPa	Speed of sound, m/s	uncertainty
308.15	101.3	1157	7

System: butanone; phases: Liquid
Property: Mass density, kg/m3 (Liquid); method: Pycnometric method
Temperature, K	Pressure, kPa	Mass density, kg/m3	uncertainty
308.15	101.3	789.2	0.3

System: pentan-3-one; phases: Liquid
Property: Viscosity, Pa*s (Liquid); method: Capillary tube (Ostwald; Ubbelohde) method
Temperature, K	Pressure, kPa	Viscosity, Pa*s	uncertainty
308.15	101.3	0.000371	1.1e-05

System: pentan-3-one; phases: Liquid
Property: Speed of sound, m/s (Liquid); method: Sing-around technique in a fixed-path interferometer
Temperature, K	Pressure, kPa	Speed of sound, m/s	uncertainty
308.15	101.3	1185	7

System: pentan-3-one; phases: Liquid
Property: Mass density, kg/m3 (Liquid); method: Pycnometric method
Temperature, K	Pressure, kPa	Mass density, kg/m3	uncertainty
308.15	101.3	800	0.7

System: pentan-2-one; phases: Liquid
Property: Viscosity, Pa*s (Liquid); method: Capillary tube (Ostwald; Ubbelohde) method
Temperature, K	Pressure, kPa	Viscosity, Pa*s	uncertainty
308.15	101.3	0.000394	1.1e-05

System: pentan-2-one; phases: Liquid
Property: Speed of sound, m/s (Liquid); method: Sing-around technique in a fixed-path interferometer
Temperature, K	Pressure, kPa	Speed of sound, m/s	uncertainty
308.15	101.3	1179	7

System: pentan-2-one; phases: Liquid
Property: Mass density, kg/m3 (Liquid); method: Pycnometric method
Temperature, K	Pressure, kPa	Mass density, kg/m3	uncertainty
308.15	101.3	790.8	0.3

System: 4-methylpentan-2-one; phases: Liquid
Property: Viscosity, Pa*s (Liquid); method: Capillary tube (Ostwald; Ubbelohde) method
Temperature, K	Pressure, kPa	Viscosity, Pa*s	uncertainty
308.15	101.3	0.000455	1.1e-05

System: 4-methylpentan-2-one; phases: Liquid
Property: Speed of sound, m/s (Liquid); method: Sing-around technique in a fixed-path interferometer
Temperature, K	Pressure, kPa	Speed of sound, m/s	uncertainty
308.15	101.3	1150	7

System: 4-methylpentan-2-one; phases: Liquid
Property: Mass density, kg/m3 (Liquid); method: Pycnometric method
Temperature, K	Pressure, kPa	Mass density, kg/m3	uncertainty
308.15	101.3	786.8	0.3

System: butanone + benzeneacetonitrile; phases: Liquid
Fixed: Temperature, K = 308.15
Fixed: Pressure, kPa = 101
Property: Viscosity, Pa*s (Liquid); method: Capillary tube (Ostwald; Ubbelohde) method
Mole fraction of benzeneacetonitrile	Viscosity, Pa*s	uncertainty
0	0.000316	1e-05
0.0205	0.000334	1e-05
0.1218	0.000412	1.1e-05
0.2283	0.000497	1.1e-05
0.3188	0.000583	1.1e-05
0.4403	0.00072	1.2e-05
0.5655	0.000868	1.3e-05
0.6706	0.001015	1.4e-05
0.8086	0.001228	1.6e-05
0.9657	0.001498	2e-05
1	0.001585	2.1e-05

System: butanone + benzeneacetonitrile; phases: Liquid
Fixed: Temperature, K = 308.15
Fixed: Pressure, kPa = 101
Property: Speed of sound, m/s (Liquid); method: Sing-around technique in a fixed-path interferometer
Mole fraction of benzeneacetonitrile	Speed of sound, m/s	uncertainty
0	1157	7
0.0205	1167	7
0.1218	1208	7
0.2283	1265	8
0.3188	1308	8
0.4403	1356	8
0.5655	1397	9
0.6706	1421	9
0.8086	1454	9
0.9657	1497	9
1	1518	9

System: butanone + benzeneacetonitrile; phases: Liquid
Fixed: Temperature, K = 308.15
Fixed: Pressure, kPa = 101
Property: Mass density, kg/m3 (Liquid); method: Pycnometric method
Mole fraction of benzeneacetonitrile	Mass density, kg/m3	uncertainty
0	789.2	0.3
0.0205	796.1	0.3
0.1218	825.9	0.4
0.2283	854	0.4
0.3188	876.8	0.5
0.4403	905.5	0.6
0.5655	931.3	0.7
0.6706	950.7	0.8
0.8086	974.1	0.9
0.9657	998.1	1
1	1003.2	1.1

System: pentan-3-one + benzeneacetonitrile; phases: Liquid
Fixed: Temperature, K = 308.15
Fixed: Pressure, kPa = 101
Property: Viscosity, Pa*s (Liquid); method: Capillary tube (Ostwald; Ubbelohde) method
Mole fraction of benzeneacetonitrile	Viscosity, Pa*s	uncertainty
0	0.000371	1.1e-05
0.0235	0.000388	1.1e-05
0.1407	0.000474	1.1e-05
0.2569	0.000567	1.2e-05
0.358	0.000665	1.3e-05
0.4803	0.00079	1.4e-05
0.6048	0.000936	1.5e-05
0.6943	0.001064	1.6e-05
0.8378	0.001281	1.8e-05
0.9722	0.001528	2e-05
1	0.001585	2.1e-05

System: pentan-3-one + benzeneacetonitrile; phases: Liquid
Fixed: Temperature, K = 308.15
Fixed: Pressure, kPa = 101
Property: Speed of sound, m/s (Liquid); method: Sing-around technique in a fixed-path interferometer
Mole fraction of benzeneacetonitrile	Speed of sound, m/s	uncertainty
0	1185	7
0.0235	1199	8
0.1407	1237	8
0.2569	1278	8
0.358	1314	8
0.4803	1354	8
0.6048	1397	9
0.6943	1421	9
0.8378	1471	9
0.9722	1496	9
1	1518	9

System: pentan-3-one + benzeneacetonitrile; phases: Liquid
Fixed: Temperature, K = 308.15
Fixed: Pressure, kPa = 101
Property: Mass density, kg/m3 (Liquid); method: Pycnometric method
Mole fraction of benzeneacetonitrile	Mass density, kg/m3	uncertainty
0	800	0.7
0.0235	806	0.7
0.1407	835.4	0.8
0.2569	861.5	0.8
0.358	883.3	0.9
0.4803	909	0.9
0.6048	933.7	1
0.6943	951.2	1
0.8378	976.7	1
0.9722	998.9	1.1
1	1003.2	1.1

System: pentan-2-one + benzeneacetonitrile; phases: Liquid
Fixed: Temperature, K = 308.15
Fixed: Pressure, kPa = 101
Property: Viscosity, Pa*s (Liquid); method: Capillary tube (Ostwald; Ubbelohde) method
Mole fraction of benzeneacetonitrile	Viscosity, Pa*s	uncertainty
0	0.000394	1.1e-05
0.0221	0.00041	1.1e-05
0.1416	0.000495	1.1e-05
0.2622	0.0006	1.1e-05
0.3564	0.000685	1.2e-05
0.4811	0.000819	1.3e-05
0.6125	0.000976	1.4e-05
0.7133	0.0011	1.5e-05
0.8389	0.00129	1.7e-05
0.9736	0.001509	2e-05
1	0.001585	2.1e-05

System: pentan-2-one + benzeneacetonitrile; phases: Liquid
Fixed: Temperature, K = 308.15
Fixed: Pressure, kPa = 101
Property: Speed of sound, m/s (Liquid); method: Sing-around technique in a fixed-path interferometer
Mole fraction of benzeneacetonitrile	Speed of sound, m/s	uncertainty
0	1179	7
0.0221	1189	7
0.1416	1228	7
0.2622	1271	8
0.3564	1313	8
0.4811	1363	8
0.6125	1394	9
0.7133	1418	9
0.8389	1456	9
0.9736	1499	9
1	1518	9

System: pentan-2-one + benzeneacetonitrile; phases: Liquid
Fixed: Temperature, K = 308.15
Fixed: Pressure, kPa = 101
Property: Mass density, kg/m3 (Liquid); method: Pycnometric method
Mole fraction of benzeneacetonitrile	Mass density, kg/m3	uncertainty
0	790.8	0.3
0.0221	797	0.3
0.1416	826.8	0.4
0.2622	856	0.5
0.3564	877.5	0.5
0.4811	904.2	0.6
0.6125	931.5	0.7
0.7133	950.9	0.8
0.8389	974.8	0.9
0.9736	998.6	1.1
1	1003.2	1.1

System: 4-methylpentan-2-one + benzeneacetonitrile; phases: Liquid
Fixed: Temperature, K = 308.15
Fixed: Pressure, kPa = 101
Property: Viscosity, Pa*s (Liquid); method: Capillary tube (Ostwald; Ubbelohde) method
Mole fraction of benzeneacetonitrile	Viscosity, Pa*s	uncertainty
0	0.000455	1.1e-05
0.0271	0.000475	1.1e-05
0.16	0.000573	1.1e-05
0.2926	0.000679	1.2e-05
0.3931	0.000775	1.2e-05
0.5217	0.00091	1.3e-05
0.6436	0.001049	1.4e-05
0.7407	0.001164	1.6e-05
0.8599	0.001338	1.8e-05
0.9758	0.001523	2e-05
1	0.001585	2.1e-05

System: 4-methylpentan-2-one + benzeneacetonitrile; phases: Liquid
Fixed: Temperature, K = 308.15
Fixed: Pressure, kPa = 101
Property: Speed of sound, m/s (Liquid); method: Sing-around technique in a fixed-path interferometer
Mole fraction of benzeneacetonitrile	Speed of sound, m/s	uncertainty
0	1150	7
0.0271	1166	7
0.16	1212	7
0.2926	1261	8
0.3931	1298	8
0.5217	1340	8
0.6436	1382	8
0.7407	1414	9
0.8599	1459	9
0.9758	1498	9
1	1518	9

System: 4-methylpentan-2-one + benzeneacetonitrile; phases: Liquid
Fixed: Temperature, K = 308.15
Fixed: Pressure, kPa = 101
Property: Mass density, kg/m3 (Liquid); method: Pycnometric method
Mole fraction of benzeneacetonitrile	Mass density, kg/m3	uncertainty
0	786.8	0.3
0.0271	792.5	0.3
0.16	823.3	0.4
0.2926	852.2	0.5
0.3931	874.6	0.5
0.5217	902.8	0.6
0.6436	928.9	0.7
0.7407	949.8	0.8
0.8599	976	0.9
0.9758	998.1	1.1
1	1003.2	1.1
