Measured thermophysical data. Molar Heat Capacities of Some Derivatives of Uridine and 2'-Deoxyuridine
Source: J. Chem. Eng. Data, 2008, 10.1021/je800243y
Compound 1: uridine, C9H12N2O6, InChI=1S/C9H12N2O6/c12-3-4-6(14)7(15)8(17-4)11-2-1-5(13)10-9(11)16/h1-2,4,6-8,12,14-15H,3H2,(H,10,13,16)/t4-,6?,7?,8-/m1/s1
Compound 2: 2'-deoxyuridine, C9H12N2O5, InChI=1S/C9H12N2O5/c12-4-6-5(13)3-8(16-6)11-2-1-7(14)10-9(11)15/h1-2,5-6,8,12-13H,3-4H2,(H,10,14,15)/t5-,6+,8+/m0/s1
Compound 3: 2,4-dihdroxy-5-iodo-1-.beta.-D-ribofurnosylpyrimidine, C9H11IN2O6, InChI=1S/C9H11IN2O6/c10-3-1-12(9(17)11-7(3)16)8-6(15)5(14)4(2-13)18-8/h1,4-6,8,13-15H,2H2,(H,11,16,17)/t4-,5-,6-,8-/m1/s1
Compound 4: 5-bromouridine, C9H11BrN2O6, InChI=1S/C9H11BrN2O6/c10-3-1-12(9(17)11-7(3)16)8-6(15)5(14)4(2-13)18-8/h1,4-6,8,13-15H,2H2,(H,11,16,17)/t4-,5-,6-,8-/m1/s1
Compound 5: 5-iodo-2'-deoxyuridine, C9H11IN2O5, InChI=1S/C9H11IN2O5/c10-4-2-12(9(16)11-8(4)15)7-1-5(14)6(3-13)17-7/h2,5-7,13-14H,1,3H2,(H,11,15,16)/t5-,6+,7+/m0/s1
Compound 6: 5-bromo-2'-deoxyuridine, C9H11BrN2O5, InChI=1S/C9H11BrN2O5/c10-4-2-12(9(16)11-8(4)15)7-1-5(14)6(3-13)17-7/h2,5-7,13-14H,1,3H2,(H,11,15,16)/t5-,6+,7+/m0/s1
Compound 7: thymidine, C10H14N2O5, InChI=1S/C10H14N2O5/c1-5-3-12(10(16)11-9(5)15)8-2-6(14)7(4-13)17-8/h3,6-8,13-14H,2,4H2,1H3,(H,11,15,16)/t6?,7-,8-/m1/s1

System: uridine; phases: Crystal
Fixed: Pressure, kPa = 101.325
Property: Molar heat capacity at constant pressure, J/K/mol (Crystal); method: Large sample (1 g) DSC
Temperature, K	Molar heat capacity at constant pressure, J/K/mol	uncertainty
298.15	292.34	5.85
303.15	294.26	5.89
308.15	296.18	5.92
313.15	298.1	5.96
318.15	300.02	6
323.15	301.93	6.04
328.15	303.86	6.08
333.15	305.77	6.12
338.15	307.69	6.15
343.15	309.61	6.19
348.15	311.53	6.23
353.15	313.45	6.27
358.15	315.37	6.31
363.15	317.29	6.35
368.15	319.21	6.38

System: 2'-deoxyuridine; phases: Crystal
Fixed: Pressure, kPa = 101.325
Property: Molar heat capacity at constant pressure, J/K/mol (Crystal); method: Large sample (1 g) DSC
Temperature, K	Molar heat capacity at constant pressure, J/K/mol	uncertainty
298.15	263.41	5.27
303.15	266.16	5.32
308.15	268.9	5.38
313.15	271.65	5.43
318.15	274.39	5.49
323.15	277.14	5.54
328.15	279.89	5.6
333.15	282.63	5.65
338.15	285.38	5.71
343.15	288.12	5.76
348.15	290.86	5.82
353.15	293.6	5.87
358.15	296.36	5.93
363.15	299.1	5.98
368.15	301.84	6.04

System: 2,4-dihdroxy-5-iodo-1-.beta.-D-ribofurnosylpyrimidine; phases: Crystal
Fixed: Pressure, kPa = 101.325
Property: Molar heat capacity at constant pressure, J/K/mol (Crystal); method: Large sample (1 g) DSC
Temperature, K	Molar heat capacity at constant pressure, J/K/mol	uncertainty
298.15	337.43	6.75
303.15	338.14	6.76
308.15	338.86	6.78
313.15	339.57	6.79
318.15	340.29	6.81
323.15	341	6.82
328.15	341.72	6.83
333.15	342.43	6.85
338.15	343.15	6.86
343.15	343.86	6.88
348.15	344.58	6.89
353.15	345.29	6.91
358.15	346.01	6.92
363.15	346.72	6.93
368.15	347.44	6.95

System: 5-bromouridine; phases: Crystal
Fixed: Pressure, kPa = 101.325
Property: Molar heat capacity at constant pressure, J/K/mol (Crystal); method: Large sample (1 g) DSC
Temperature, K	Molar heat capacity at constant pressure, J/K/mol	uncertainty
298.15	305.69	6.11
303.15	306.16	6.12
308.15	306.64	6.13
313.15	307.11	6.14
318.15	307.58	6.15
323.15	308.05	6.16
328.15	308.52	6.17
333.15	308.99	6.18
338.15	309.47	6.19
343.15	309.94	6.2
348.15	310.41	6.21
353.15	310.88	6.22
358.15	311.35	6.23
363.15	311.82	6.24
368.15	312.29	6.25

System: 5-iodo-2'-deoxyuridine; phases: Crystal
Fixed: Pressure, kPa = 101.325
Property: Molar heat capacity at constant pressure, J/K/mol (Crystal); method: Large sample (1 g) DSC
Temperature, K	Molar heat capacity at constant pressure, J/K/mol	uncertainty
298.15	285.34	5.71
303.15	287.61	5.75
308.15	289.88	5.8
313.15	292.15	5.84
318.15	294.43	5.89
323.15	296.69	5.93
328.15	298.96	5.98
333.15	301.22	6.03
338.15	303.48	6.07
343.15	305.76	6.12
348.15	308.02	6.16
353.15	310.3	6.21
358.15	312.55	6.25
363.15	314.82	6.3
368.15	317.09	6.34

System: 5-bromo-2'-deoxyuridine; phases: Crystal
Fixed: Pressure, kPa = 101.325
Property: Molar heat capacity at constant pressure, J/K/mol (Crystal); method: Large sample (1 g) DSC
Temperature, K	Molar heat capacity at constant pressure, J/K/mol	uncertainty
298.15	260.65	5.21
303.15	263.37	5.27
308.15	266.08	5.32
313.15	268.8	5.38
318.15	271.51	5.43
323.15	274.23	5.49
328.15	276.94	5.54
333.15	279.66	5.59
338.15	282.38	5.65
343.15	285.09	5.7
348.15	287.81	5.76
353.15	290.52	5.81
358.15	293.24	5.87
363.15	295.95	5.92
368.15	298.66	5.97

System: thymidine; phases: Crystal
Fixed: Pressure, kPa = 101.325
Property: Molar heat capacity at constant pressure, J/K/mol (Crystal); method: Large sample (1 g) DSC
Temperature, K	Molar heat capacity at constant pressure, J/K/mol	uncertainty
298.15	276.7	5.53
303.15	278.84	5.58
308.15	280.97	5.62
313.15	283.12	5.66
318.15	285.25	5.71
323.15	287.4	5.75
328.15	289.53	5.79
333.15	291.68	5.83
338.15	293.81	5.88
343.15	295.95	5.92
348.15	298.09	5.96
353.15	300.23	6.01
358.15	302.37	6.05
363.15	304.51	6.09
368.15	306.65	6.13
