Measured thermophysical data. Liquid Density and Bubble Pressure Measurements for the Propylene + 2-Propanol System
Source: J. Chem. Eng. Data, 2008, 10.1021/je800017j
Compound 1: propene, C3H6, InChI=1S/C3H6/c1-3-2/h3H,1H2,2H3
Compound 2: propan-2-ol, C3H8O, InChI=1S/C3H8O/c1-3(2)4/h3-4H,1-2H3

System: propan-2-ol + propene; phases: Liquid, Gas
Property: Vapor or sublimation pressure, kPa (Liquid); method: Closed cell (Static) method
Temperature, K	Mole fraction of propene	Vapor or sublimation pressure, kPa	uncertainty
300.11	0.5201	919.2	3.1
300.12	0.6478	1029.7	3.4
300.14	0.2011	522.4	1.8
325.05	0.5201	1558.3	5
325.09	0.2011	785	2.8
325.13	0.6478	1709.5	5.5
350.12	0.5201	2152.1	6.9
350.18	0.2011	1262	4.2
350.18	0.6478	2620	8.4

System: propan-2-ol + propene; phases: Liquid, Gas
Property: Mass density, kg/m3 (Liquid); method: Vibrating tube method
Temperature, K	Mole fraction of propene	Mass density, kg/m3	uncertainty
300.11	0.5201	644.42	0.67
300.12	0.6478	607.97	0.64
300.14	0.2011	731.63	0.75
325.05	0.5201	613.29	0.65
325.09	0.2011	703.01	0.73
325.13	0.6478	573.24	0.62
350.12	0.5201	575.99	0.62
350.18	0.2011	676.38	0.7
350.18	0.6478	530.66	0.59

System: propan-2-ol + propene; phases: Liquid
Property: Mass density, kg/m3 (Liquid); method: Vibrating tube method
Mole fraction of propene	Temperature, K	Pressure, kPa	Mass density, kg/m3	uncertainty
0.2011	300.14	529.4	731.63	0.75
0.2011	300.14	1051.3	732.17	0.75
0.2011	300.14	1483.6	732.72	0.76
0.2011	300.14	1954.4	733.24	0.76
0.2011	300.14	2384	733.72	0.76
0.2011	300.14	2798.6	734.18	0.76
0.2011	300.14	3273.1	734.68	0.76
0.2011	300.14	3740.2	735.18	0.76
0.2011	300.14	4186.3	735.68	0.76
0.2011	300.14	4728.6	736.23	0.76
0.2011	300.14	5235.6	736.78	0.77
0.2011	300.14	5767.3	737.3	0.77
0.2011	300.14	6274.7	737.83	0.77
0.2011	300.14	6832.5	738.41	0.77
0.2011	300.14	7291.5	738.89	0.77
0.2011	300.14	7811.8	739.42	0.77
0.2011	300.14	8296.6	739.9	0.77
0.2011	300.14	8810.3	740.41	0.78
0.2011	300.14	9337.7	740.91	0.78
0.2011	300.14	9886.4	741.45	0.78
0.2011	325.09	810.9	703.07	0.73
0.2011	325.09	1218.9	703.59	0.73
0.2011	325.09	1608.7	704.14	0.73
0.2011	325.09	2001.8	704.7	0.73
0.2011	325.09	2383.7	705.3	0.73
0.2011	325.09	2827.6	705.86	0.73
0.2011	325.09	3159.2	706.38	0.74
0.2011	325.09	3707.9	707.07	0.74
0.2011	325.09	4123.6	707.68	0.74
0.2011	325.09	4528.5	708.19	0.74
0.2011	325.09	4925.3	708.73	0.74
0.2011	325.09	5370.7	709.32	0.74
0.2011	325.09	5883.5	709.98	0.75
0.2011	325.09	6336.2	710.58	0.75
0.2011	325.09	6788.4	711.17	0.75
0.2011	325.09	7346.6	711.9	0.75
0.2011	325.09	7879.3	712.57	0.75
0.2011	325.09	8392.5	713.18	0.75
0.2011	325.09	8985.2	713.89	0.76
0.2011	325.09	9587.7	714.65	0.76
0.2011	350.18	1639.5	677.13	0.71
0.2011	350.18	2070	677.93	0.71
0.2011	350.18	2446.2	678.64	0.71
0.2011	350.18	2924.3	679.5	0.71
0.2011	350.18	3271.4	680.17	0.72
0.2011	350.18	3675.3	680.86	0.72
0.2011	350.18	4058.4	681.6	0.72
0.2011	350.18	4446.8	682.32	0.72
0.2011	350.18	4791.3	682.93	0.72
0.2011	350.18	5171.9	683.6	0.72
0.2011	350.18	5557.4	684.26	0.73
0.2011	350.18	6002	684.96	0.73
0.2011	350.18	6430.2	685.69	0.73
0.2011	350.18	7071.2	686.73	0.73
0.2011	350.18	7570.5	687.62	0.73
0.2011	350.18	7944.1	688.25	0.74
0.2011	350.18	8386.8	688.92	0.74
0.2011	350.18	8826.8	689.6	0.74
0.2011	350.18	9279	690.38	0.74
0.2011	350.18	9779.6	691.08	0.74
0.5201	300.11	966.7	644.49	0.68
0.5201	300.11	1373.3	645.21	0.68
0.5201	300.11	1835.6	645.98	0.68
0.5201	300.11	2340.9	646.83	0.68
0.5201	300.11	2812.4	647.62	0.69
0.5201	300.11	3330.1	648.49	0.69
0.5201	300.11	3817.5	649.27	0.69
0.5201	300.11	4386.1	650.18	0.69
0.5201	300.11	4873.7	650.95	0.69
0.5201	300.11	5375.2	651.72	0.7
0.5201	300.11	5888.8	652.52	0.7
0.5201	300.11	6442	653.35	0.7
0.5201	300.11	6942.8	654.09	0.71
0.5201	300.11	7498.2	654.9	0.71
0.5201	300.11	8104.7	655.77	0.71
0.5201	300.11	8671.8	656.58	0.71
0.5201	300.11	9226.7	657.35	0.72
0.5201	300.11	9787	658.16	0.72
0.5201	325.05	1613.1	613.41	0.65
0.5201	325.05	1977.7	614.26	0.66
0.5201	325.05	2359	615.15	0.66
0.5201	325.05	2717.2	615.98	0.66
0.5201	325.05	3167.8	616.93	0.66
0.5201	325.05	3506.1	617.74	0.67
0.5201	325.05	3888.8	618.59	0.67
0.5201	325.05	4321.6	619.52	0.67
0.5201	325.05	4676.7	620.29	0.67
0.5201	325.05	5061.4	621.12	0.67
0.5201	325.05	5471.8	621.94	0.68
0.5201	325.05	5880.1	622.78	0.68
0.5201	325.05	6293.6	623.65	0.68
0.5201	325.05	6704.3	624.42	0.68
0.5201	325.05	7171.7	625.34	0.69
0.5201	325.05	7597.4	626.18	0.69
0.5201	325.05	8037.5	627.02	0.69
0.5201	325.05	8556.5	628.02	0.7
0.5201	325.05	9078.1	628.97	0.7
0.5201	325.05	9631.3	629.98	0.7
0.5201	350.12	2332.3	576.59	0.63
0.5201	350.12	2731.4	577.92	0.63
0.5201	350.12	2992.4	578.85	0.64
0.5201	350.12	3218	579.68	0.64
0.5201	350.12	3506.1	580.58	0.64
0.5201	350.12	3765.6	581.46	0.64
0.5201	350.12	4225.5	582.95	0.65
0.5201	350.12	4550.6	583.87	0.65
0.5201	350.12	4824.4	584.73	0.65
0.5201	350.12	5103.7	585.64	0.65
0.5201	350.12	5399.3	586.54	0.65
0.5201	350.12	5715.5	587.44	0.66
0.5201	350.12	5999.5	588.29	0.66
0.5201	350.12	6303.9	589.18	0.66
0.5201	350.12	6632.8	590.1	0.66
0.5201	350.12	6975.5	591.05	0.67
0.5201	350.12	7280	591.94	0.67
0.5201	350.12	7641.3	592.87	0.67
0.5201	350.12	7963.5	593.76	0.67
0.5201	350.12	8312	594.68	0.68
0.5201	350.12	8762.4	595.82	0.68
0.5201	350.12	9211	596.88	0.68
0.5201	350.12	9622.9	597.92	0.69
0.6478	300.12	1068.5	608.06	0.65
0.6478	300.12	1486.5	608.93	0.65
0.6478	300.12	1740.6	609.48	0.65
0.6478	300.12	2123.8	610.19	0.65
0.6478	300.12	2620	611.17	0.66
0.6478	300.12	2986.8	611.92	0.66
0.6478	300.12	3495.3	612.85	0.66
0.6478	300.12	3829	613.59	0.66
0.6478	300.12	4193.5	614.26	0.66
0.6478	300.12	4542.8	614.93	0.67
0.6478	300.12	4905.4	615.61	0.67
0.6478	300.12	5263.7	616.27	0.67
0.6478	300.12	5634.1	616.94	0.67
0.6478	300.12	6011.3	617.61	0.68
0.6478	300.12	6395.3	618.28	0.68
0.6478	300.12	6788.6	618.96	0.68
0.6478	300.12	7165.4	619.61	0.68
0.6478	300.12	7558.1	620.28	0.68
0.6478	300.12	7960.1	620.96	0.69
0.6478	300.12	8377.2	621.66	0.69
0.6478	300.12	8785.5	622.34	0.69
0.6478	300.12	9234.2	623.05	0.7
0.6478	300.12	9682.1	623.79	0.7
0.6478	325.13	1747.5	573.29	0.62
0.6478	325.13	2151.8	574.52	0.63
0.6478	325.13	2607.5	575.84	0.63
0.6478	325.13	3022.1	577	0.64
0.6478	325.13	3422.7	578.16	0.64
0.6478	325.13	3826.3	579.23	0.64
0.6478	325.13	4289	580.41	0.64
0.6478	325.13	4682.5	581.48	0.65
0.6478	325.13	5094.6	582.53	0.65
0.6478	325.13	5524.8	583.59	0.65
0.6478	325.13	5972.2	584.68	0.66
0.6478	325.13	6431	585.75	0.66
0.6478	325.13	6923.3	586.94	0.66
0.6478	325.13	7433.5	588.03	0.67
0.6478	325.13	7935	589.22	0.67
0.6478	325.13	8459.9	590.39	0.67
0.6478	325.13	9024	591.62	0.68
0.6478	325.13	9558.5	592.78	0.68
0.6478	350.18	2689	531.01	0.6
0.6478	350.18	3126.3	533.02	0.61
0.6478	350.18	3686.2	535.68	0.61
0.6478	350.18	3914.3	536.74	0.62
0.6478	350.18	4203.2	537.97	0.62
0.6478	350.18	4484.6	539.15	0.62
0.6478	350.18	4738.5	540.5	0.62
0.6478	350.18	5023.4	541.63	0.62
0.6478	350.18	5321.2	542.86	0.63
0.6478	350.18	5614	543.95	0.63
0.6478	350.18	5938.9	545.1	0.63
0.6478	350.18	6268.4	546.35	0.64
0.6478	350.18	6622.1	547.76	0.64
0.6478	350.18	6978.6	548.98	0.64
0.6478	350.18	7362	550.27	0.65
0.6478	350.18	7736.5	551.56	0.65
0.6478	350.18	8126.2	552.91	0.65
0.6478	350.18	8525.5	554.11	0.66
0.6478	350.18	8979.8	555.58	0.66
0.6478	350.18	9488	557.04	0.66
0.6478	350.18	9989.8	558.59	0.67
