Measured thermophysical data. Studies on Volumetric Properties of Concentrated Aqueous Amino Acid Ionic  Liquid [C3mim][Glu]
Source: J. Chem. Eng. Data, 2009, 10.1021/je800783a
Compound 1: 3-methyl-1-propyl-1H-imidazolium (S)-2-amino-4-carboxybutanoate, C12H21N3O4, InChI=1S/C7H13N2.C5H9NO4/c1-3-4-9-6-5-8(2)7-9;6-3(5(9)10)1-2-4(7)8/h5-7H,3-4H2,1-2H3;3H,1-2,6H2,(H,7,8)(H,9,10)/q+1;/p-1/t;3-/m.0/s1
Compound 2: water, H2O, InChI=1S/H2O/h1H2

System: water + 3-methyl-1-propyl-1H-imidazolium (S)-2-amino-4-carboxybutanoate; phases: Liquid
Fixed: Pressure, kPa = 101
Property: Mass density, kg/m3 (Liquid); method: Vibrating tube method
Temperature, K	Mole fraction of 3-methyl-1-propyl-1H-imidazolium (S)-2-amino-4-carboxybutanoate	Mass density, kg/m3	uncertainty
283.15	0.039	1090.4	1
283.15	0.0455	1100.76	1
283.15	0.0497	1106.9	1
283.15	0.0683	1129.12	1.01
283.15	0.0783	1139.04	1.01
283.15	0.0894	1147.7	1.01
283.15	0.0975	1153.37	1.01
283.15	0.1235	1169.78	1.01
283.15	0.1451	1178.22	1.01
283.15	0.1925	1191.85	1.02
283.15	0.239	1201.76	1.02
283.15	0.2888	1208.1	1.03
283.15	0.3294	1211.85	1.04
283.15	0.3767	1215	1.05
283.15	0.4265	1218.6	1.06
283.15	0.4713	1220.69	1.08
283.15	0.5112	1221.72	1.1
283.15	0.5427	1223.07	1.11
288.15	0.039	1088.42	1
288.15	0.0455	1098.39	1
288.15	0.0497	1104.45	1
288.15	0.0683	1126.36	1.01
288.15	0.0783	1136.21	1.01
288.15	0.0894	1144.79	1.01
288.15	0.0975	1150.37	1.01
288.15	0.1235	1166.6	1.01
288.15	0.1451	1175.07	1.01
288.15	0.1925	1188.67	1.01
288.15	0.239	1198.15	1.02
288.15	0.2888	1204.86	1.03
288.15	0.3294	1208.49	1.04
288.15	0.3767	1211.68	1.05
288.15	0.4265	1214.72	1.06
288.15	0.4713	1217.33	1.08
288.15	0.5112	1218.47	1.09
288.15	0.5427	1220.26	1.11
293.15	0.039	1086.11	1
293.15	0.0455	1095.92	1
293.15	0.0497	1101.92	1
293.15	0.0683	1123.56	1.01
293.15	0.0783	1133.31	1.01
293.15	0.0894	1141.8	1.01
293.15	0.0975	1147.34	1.01
293.15	0.1235	1163.35	1.01
293.15	0.1451	1172.01	1.01
293.15	0.1925	1185.47	1.01
293.15	0.239	1194.83	1.02
293.15	0.2888	1201.46	1.03
293.15	0.3294	1205.08	1.03
293.15	0.3767	1208.49	1.05
293.15	0.4265	1211.93	1.06
293.15	0.4713	1213.9	1.08
293.15	0.5112	1215.18	1.09
293.15	0.5427	1216.93	1.11
298.15	0.039	1083.72	1
298.15	0.0455	1093.38	1
298.15	0.0497	1099.3	1
298.15	0.0683	1120.71	1.01
298.15	0.0783	1130.35	1.01
298.15	0.0894	1138.78	1.01
298.15	0.0975	1144.3	1.01
298.15	0.1235	1160.15	1.01
298.15	0.1451	1168.85	1.01
298.15	0.1925	1182.21	1.01
298.15	0.239	1191.61	1.02
298.15	0.2888	1197.83	1.03
298.15	0.3294	1201.85	1.03
298.15	0.3767	1205.25	1.05
298.15	0.4265	1209.67	1.06
298.15	0.4713	1210.64	1.08
298.15	0.5112	1211.78	1.09
298.15	0.5427	1213.92	1.11
303.15	0.039	1081.22	1
303.15	0.0455	1090.77	1
303.15	0.0497	1096.64	1
303.15	0.0683	1117.81	1
303.15	0.0783	1127.36	1.01
303.15	0.0894	1135.72	1.01
303.15	0.0975	1141.18	1.01
303.15	0.1235	1156.96	1.01
303.15	0.1451	1165.64	1.01
303.15	0.1925	1178.9	1.01
303.15	0.239	1188.36	1.02
303.15	0.2888	1194.59	1.03
303.15	0.3294	1198.55	1.03
303.15	0.3767	1201.91	1.04
303.15	0.4265	1206.45	1.06
303.15	0.4713	1207.32	1.07
303.15	0.5112	1208.42	1.09
303.15	0.5427	1210.64	1.11
308.15	0.039	1078.64	1
308.15	0.0455	1088.06	1
308.15	0.0497	1093.89	1
308.15	0.0683	1114.86	1
308.15	0.0783	1124.33	1.01
308.15	0.0894	1132.63	1.01
308.15	0.0975	1138.07	1.01
308.15	0.1235	1153.81	1.01
308.15	0.1451	1162.49	1.01
308.15	0.1925	1175.73	1.01
308.15	0.239	1185.05	1.02
308.15	0.2888	1191.36	1.03
308.15	0.3294	1195.3	1.03
308.15	0.3767	1198.71	1.04
308.15	0.4265	1203.15	1.06
308.15	0.4713	1203.95	1.07
308.15	0.5112	1205.15	1.09
308.15	0.5427	1207.34	1.1
313.15	0.039	1075.97	1
313.15	0.0455	1085.27	1
313.15	0.0497	1091.07	1
313.15	0.0683	1111.85	1
313.15	0.0783	1121.25	1.01
313.15	0.0894	1129.5	1.01
313.15	0.0975	1134.91	1.01
313.15	0.1235	1150.57	1.01
313.15	0.1451	1159.24	1.01
313.15	0.1925	1172.52	1.01
313.15	0.239	1181.78	1.02
313.15	0.2888	1188.1	1.03
313.15	0.3294	1192.09	1.03
313.15	0.3767	1195.42	1.04
313.15	0.4265	1199.74	1.06
313.15	0.4713	1200.57	1.07
313.15	0.5112	1201.78	1.09
313.15	0.5427	1203.93	1.1
318.15	0.039	1073.22	1
318.15	0.0455	1082.41	1
318.15	0.0497	1088.19	1
318.15	0.0683	1108.8	1
318.15	0.0783	1118.14	1.01
318.15	0.0894	1126.34	1.01
318.15	0.0975	1131.71	1.01
318.15	0.1235	1147.32	1.01
318.15	0.1451	1155.99	1.01
318.15	0.1925	1169.27	1.01
318.15	0.239	1178.48	1.02
318.15	0.2888	1184.82	1.03
318.15	0.3294	1188.84	1.03
318.15	0.3767	1192.17	1.04
318.15	0.4265	1196.17	1.06
318.15	0.4713	1197.03	1.07
318.15	0.5112	1198.21	1.09
318.15	0.5427	1200.61	1.1
323.15	0.039	1070.37	1
323.15	0.0455	1079.46	1
323.15	0.0497	1085.24	1
323.15	0.0683	1105.7	1
323.15	0.0783	1114.98	1
323.15	0.0894	1123.14	1.01
323.15	0.0975	1128.49	1.01
323.15	0.1235	1144.03	1.01
323.15	0.1451	1152.7	1.01
323.15	0.1925	1166	1.01
323.15	0.239	1175.27	1.02
323.15	0.2888	1181.51	1.02
323.15	0.3294	1185.58	1.03
323.15	0.3767	1188.94	1.04
323.15	0.4265	1192.88	1.06
323.15	0.4713	1193.63	1.07
323.15	0.5112	1194.79	1.09
323.15	0.5427	1197.22	1.1
328.15	0.039	1067.43	1
328.15	0.0455	1076.44	1
328.15	0.0497	1082.22	1
328.15	0.0683	1102.55	1
328.15	0.0783	1111.78	1
328.15	0.0894	1119.9	1.01
328.15	0.0975	1125.24	1.01
328.15	0.1235	1140.73	1.01
328.15	0.1451	1149.4	1.01
328.15	0.1925	1162.68	1.01
328.15	0.239	1172	1.02
328.15	0.2888	1178.21	1.02
328.15	0.3294	1182.29	1.03
328.15	0.3767	1185.67	1.04
328.15	0.4265	1189.64	1.05
328.15	0.4713	1190.41	1.07
328.15	0.5112	1191.55	1.08
328.15	0.5427	1193.66	1.1
333.15	0.039	1064.43	1
333.15	0.0455	1073.32	1
333.15	0.0497	1079.13	1
333.15	0.0683	1099.36	1
333.15	0.0783	1108.54	1
333.15	0.0894	1116.63	1.01
333.15	0.0975	1121.94	1.01
333.15	0.1235	1137.4	1.01
333.15	0.1451	1146.06	1.01
333.15	0.1925	1159.35	1.01
333.15	0.239	1168.59	1.02
333.15	0.2888	1174.99	1.02
333.15	0.3294	1178.98	1.03
333.15	0.3767	1182.34	1.04
333.15	0.4265	1186.35	1.05
333.15	0.4713	1187.18	1.07
333.15	0.5112	1188.22	1.08
333.15	0.5427	1190.35	1.1
338.15	0.039	1061.36	1
338.15	0.0455	1070.11	1
338.15	0.0497	1075.98	1
338.15	0.0683	1096.1	1
338.15	0.0783	1105.26	1
338.15	0.0894	1113.31	1.01
338.15	0.0975	1118.6	1.01
338.15	0.1235	1134.05	1.01
338.15	0.1451	1142.71	1.01
338.15	0.1925	1155.98	1.01
338.15	0.239	1165.3	1.02
338.15	0.2888	1171.72	1.02
338.15	0.3294	1175.77	1.03
338.15	0.3767	1179.04	1.04
338.15	0.4265	1183.09	1.05
338.15	0.4713	1183.94	1.07
338.15	0.5112	1184.93	1.08
338.15	0.5427	1187.07	1.1
