Measured thermophysical data. Binary Diffusion Coefficients of 2-Ethyltoluene, 3-Ethyltoluene, and 4-Ethyltoluene in Supercritical Carbon Dioxide
Source: J. Chem. Eng. Data, 2009, 10.1021/je800738n
Compound 1: carbon dioxide, CO2, InChI=1S/CO2/c2-1-3, purity 99.998%
Compound 2: 1-ethyl-2-methylbenzene, C9H12, InChI=1S/C9H12/c1-3-9-7-5-4-6-8(9)2/h4-7H,3H2,1-2H3, purity 99%
Compound 3: 1-ethyl-3-methylbenzene, C9H12, InChI=1S/C9H12/c1-3-9-6-4-5-8(2)7-9/h4-7H,3H2,1-2H3, purity 98%
Compound 4: 1-ethyl-4-methylbenzene, C9H12, InChI=1S/C9H12/c1-3-9-6-4-8(2)5-7-9/h4-7H,3H2,1-2H3, purity 98%

System: carbon dioxide + 1-ethyl-2-methylbenzene; phases: Fluid (supercritical or subcritical phases)
Fixed: Mole fraction of 1-ethyl-2-methylbenzene = 0
Property: Binary diffusion coefficient, m2/s (Fluid (supercritical or subcritical phases)); method: Taylor dispersion method
Temperature, K	Pressure, kPa	Binary diffusion coefficient, m2/s	uncertainty
313	15000	1.056e-08	0.34
313	20000	9.94e-09	0.44
313	25000	8.97e-09	0.25
313	30000	8.23e-09	0.24
313	35000	7.76e-09	0.2
323	15000	1.263e-08	0.53
323	20000	1.149e-08	0.44
323	25000	1.042e-08	0.51
323	30000	9.66e-09	0.26
323	35000	8.82e-09	0.22
333	15000	1.43e-08	0.55
333	20000	1.264e-08	0.54
333	25000	1.194e-08	0.37
333	30000	1.062e-08	0.38
333	35000	1.028e-08	0.43

System: carbon dioxide + 1-ethyl-3-methylbenzene; phases: Fluid (supercritical or subcritical phases)
Fixed: Mole fraction of 1-ethyl-3-methylbenzene = 0
Property: Binary diffusion coefficient, m2/s (Fluid (supercritical or subcritical phases)); method: Taylor dispersion method
Temperature, K	Pressure, kPa	Binary diffusion coefficient, m2/s	uncertainty
313	15000	1.057e-08	0.35
313	20000	9.89e-09	0.33
313	25000	8.96e-09	0.33
313	30000	8.12e-09	0.22
313	35000	7.71e-09	0.22
323	15000	1.264e-08	0.53
323	20000	1.148e-08	0.31
323	25000	1.043e-08	0.3
323	30000	9.37e-09	0.31
323	35000	8.74e-09	0.27
333	15000	1.417e-08	1.03
333	20000	1.245e-08	0.35
333	25000	1.213e-08	0.41
333	30000	1.073e-08	0.3
333	35000	1.019e-08	0.33

System: carbon dioxide + 1-ethyl-4-methylbenzene; phases: Fluid (supercritical or subcritical phases)
Fixed: Mole fraction of 1-ethyl-4-methylbenzene = 0
Property: Binary diffusion coefficient, m2/s (Fluid (supercritical or subcritical phases)); method: Taylor dispersion method
Temperature, K	Pressure, kPa	Binary diffusion coefficient, m2/s	uncertainty
313	15000	1.053e-08	0.37
313	20000	9.64e-09	0.26
313	25000	8.87e-09	0.31
313	30000	8.08e-09	0.32
313	35000	7.55e-09	0.24
323	15000	1.243e-08	0.38
323	20000	1.09e-08	0.31
323	25000	9.98e-09	0.32
323	30000	9.04e-09	0.26
323	35000	8.64e-09	0.33
333	15000	1.452e-08	1.41
333	20000	1.245e-08	0.35
333	25000	1.111e-08	0.31
333	30000	1.063e-08	0.46
333	35000	9.99e-09	0.47
