Measured thermophysical data. Mass Diffusion Coefficients of Dimethyl Carbonate in Heptane and in Air at T ) (278.15 to 338.15) K
Source: J. Chem. Eng. Data, 2008, 10.1021/je800606r
Compound 1: dimethyl carbonate, C3H6O3, InChI=1S/C3H6O3/c1-5-3(4)6-2/h1-2H3, purity 99.5%
Compound 2: heptane, C7H16, InChI=1S/C7H16/c1-3-5-7-6-4-2/h3-7H2,1-2H3, purity 99.5%
Compound 3: potassium chloride, ClK, InChI=1S/ClH.K/h1H;/q;+1/p-1
Compound 4: water, H2O, InChI=1S/H2O/h1H2

System: potassium chloride + water; phases: Liquid, Crystal
Property: Binary diffusion coefficient, m2/s (Liquid); method: Optical method
Temperature, K	Pressure, kPa	Binary diffusion coefficient, m2/s	uncertainty
298.15	101	1.865e-09	0.009

System: heptane + dimethyl carbonate; phases: Liquid mixture 1, Liquid mixture 2
Fixed: Pressure, kPa = 101
Property: Binary diffusion coefficient, m2/s (Liquid mixture 1); method: Optical method
Temperature, K	Binary diffusion coefficient, m2/s	uncertainty
278.15	4.929e-09	0.022
281.15	4.971e-09	0.022
284.15	5.012e-09	0.023
287.15	5.069e-09	0.023
290.15	5.133e-09	0.024
293.15	5.193e-09	0.024
296.15	5.251e-09	0.024
299.15	5.326e-09	0.025
302.15	5.391e-09	0.025
305.15	5.475e-09	0.026
308.15	5.554e-09	0.026
311.15	5.635e-09	0.026
314.15	5.711e-09	0.026
317.15	5.797e-09	0.027
320.15	5.899e-09	0.028
323.15	5.994e-09	0.028
326.15	6.085e-09	0.029
329.15	6.202e-09	0.029
332.15	6.294e-09	0.03
335.15	6.406e-09	0.031
338.15	6.523e-09	0.031
