Measured thermophysical data. Solid-Liquid Phase Equilibrium and Phase Diagram for the Ternary o-Nitrobenzoic Acid + m-Nitrobenzoic Acid + Ethanol System
Source: J. Chem. Eng. Data, 2008, 10.1021/je800080w
Compound 1: 2-nitrobenzoic acid, C7H5NO4, InChI=1S/C7H5NO4/c9-7(10)5-3-1-2-4-6(5)8(11)12/h1-4H,(H,9,10)
Compound 2: 3-nitrobenzoic acid, C7H5NO4, InChI=1S/C7H5NO4/c9-7(10)5-2-1-3-6(4-5)8(11)12/h1-4H,(H,9,10)
Compound 3: ethanol, C2H6O, InChI=1S/C2H6O/c1-2-3/h3H,2H2,1H3

System: 2-nitrobenzoic acid; phases: Crystal, Liquid, Air at 1 atmosphere
Property: Normal melting temperature, K (Crystal); method: DTA
Normal melting temperature, K	uncertainty
420.2	0.4

System: 3-nitrobenzoic acid; phases: Crystal, Liquid, Air at 1 atmosphere
Property: Normal melting temperature, K (Crystal); method: DTA
Normal melting temperature, K	uncertainty
414	1

System: ethanol + 3-nitrobenzoic acid + 2-nitrobenzoic acid; phases: Liquid, Crystal
Fixed: Pressure, kPa = 101
Property: Mass fraction of 3-nitrobenzoic acid (Liquid); method: CHROM:UFactor:8
Temperature, K	Mass fraction of 2-nitrobenzoic acid	Mass fraction of 3-nitrobenzoic acid	uncertainty
273.15	0.1413	0.1664	0.0106
273.15	0.1448	0.1433	0.0104
273.15	0.145	0.1329	0.0103
273.15	0.1556	0.0887	0.0101
273.15	0.1669	0.0482	0.01
273.15	0.1793	0	0.01
283.15	0.2356	0.2359	0.0113
283.15	0.2421	0.2071	0.0109
283.15	0.255	0.1494	0.0104
283.15	0.2829	0.0802	0.0101
283.15	0.2914	0.0428	0.01
283.15	0.3194	0	0.01
293.15	0.2928	0.2383	0.0113
293.15	0.3061	0.2033	0.0109
293.15	0.3129	0.1654	0.0106
293.15	0.3276	0.1157	0.0102
293.15	0.3453	0.0749	0.0101
293.15	0.3778	0	0.01

System: ethanol + 3-nitrobenzoic acid + 2-nitrobenzoic acid; phases: Liquid, Crystal
Fixed: Pressure, kPa = 101
Property: Mass fraction of 3-nitrobenzoic acid (Liquid); method: CHROM:UFactor:8
Temperature, K	Mass fraction of 2-nitrobenzoic acid	Mass fraction of 3-nitrobenzoic acid	uncertainty
273.15	0	0.2559	0.0064
273.15	0.0274	0.2413	0.0059
273.15	0.0566	0.2308	0.0056
273.15	0.0825	0.2193	0.0052
273.15	0.0958	0.2147	0.0051
273.15	0.1181	0.2128	0.005
273.15	0.1374	0.2052	0.0048
283.15	0	0.3166	0.0086
283.15	0.0298	0.2994	0.0079
283.15	0.0703	0.2964	0.0078
283.15	0.1047	0.2734	0.007
283.15	0.1454	0.2589	0.0065
283.15	0.1969	0.2474	0.0061
283.15	0.2271	0.2446	0.006
283.15	0.2334	0.2417	0.0059
293.15	0	0.3856	0.0117
293.15	0.0391	0.3608	0.0105
293.15	0.0587	0.3465	0.0099
293.15	0.0916	0.3322	0.0092
293.15	0.1243	0.3193	0.0087
293.15	0.1558	0.3034	0.0081
293.15	0.2025	0.2876	0.0075
293.15	0.2432	0.2764	0.0071
293.15	0.2879	0.2648	0.0067
