Measured thermophysical data. Determination of Temperature-Dependent Henry s Law Constant of Four Oxygenated Solutes in Water Using Headspace Solid-Phase Microextraction Technique
Source: J. Chem. Eng. Data, 2008, 10.1021/je800623x
Compound 1: 2-methoxy-2-methylpropane, C5H12O, InChI=1S/C5H12O/c1-5(2,3)6-4/h1-4H3, purity 99.5%
Compound 2: vinyl acetate, C4H6O2, InChI=1S/C4H6O2/c1-3-6-4(2)5/h3H,1H2,2H3, purity 99%
Compound 3: dimethyl carbonate, C3H6O3, InChI=1S/C3H6O3/c1-5-3(4)6-2/h1-2H3, purity 99%
Compound 4: diethyl carbonate, C5H10O3, InChI=1S/C5H10O3/c1-3-7-5(6)8-4-2/h3-4H2,1-2H3, purity 99.5%
Compound 5: water, H2O, InChI=1S/H2O/h1H2

System: 2-methoxy-2-methylpropane + water; phases: Gas, Liquid
Fixed: Molality, mol/kg of 2-methoxy-2-methylpropane = 0
Property: Amount concentration (molarity), mol/dm3 (Gas); method: head space solid phase microextraction
Temperature, K	Amount concentration (molarity), mol/dm3	uncertainty
283.1	0.0113	0.0012
288.15	0.0156	0.0018
298.15	0.0319	0.002
308.15	0.0574	0.003
318.15	0.0975	0.01

System: 2-methoxy-2-methylpropane + water; phases: Gas, Liquid
Property: Amount concentration (molarity), mol/dm3 (Gas); method: Inert gas stripping
Temperature, K	Amount concentration (molarity), mol/dm3 of 2-methoxy-2-methylpropane	Amount concentration (molarity), mol/dm3	uncertainty
298.15	0	0.0315	0.0016

System: vinyl acetate + water; phases: Gas, Liquid
Fixed: Amount concentration (molarity), mol/dm3 of vinyl acetate = 0
Property: Amount concentration (molarity), mol/dm3 (Gas); method: head space solid phase microextraction
Temperature, K	Amount concentration (molarity), mol/dm3	uncertainty
283.1	0.00935	0.0008
288.15	0.0128	0.0012
293.15	0.0163	0.0016
298.15	0.0204	0.0018
303.15	0.0254	0.002
308.15	0.0323	0.002
318.15	0.0459	0.004

System: vinyl acetate + water; phases: Gas, Liquid
Property: Amount concentration (molarity), mol/dm3 (Gas); method: Inert gas stripping
Temperature, K	Amount concentration (molarity), mol/dm3 of vinyl acetate	Amount concentration (molarity), mol/dm3	uncertainty
298.15	0	0.0194	0.001

System: diethyl carbonate + water; phases: Gas, Liquid
Fixed: Amount concentration (molarity), mol/dm3 of diethyl carbonate = 0
Property: Amount concentration (molarity), mol/dm3 (Gas); method: head space solid phase microextraction
Temperature, K	Amount concentration (molarity), mol/dm3	uncertainty
283.1	0.00124	0.00012
288.15	0.00211	0.0002
298.15	0.00414	0.0004
308.15	0.00725	0.0004
318.15	0.0123	0.0006

System: diethyl carbonate + water; phases: Gas, Liquid
Property: Amount concentration (molarity), mol/dm3 (Gas); method: Inert gas stripping
Temperature, K	Amount concentration (molarity), mol/dm3 of diethyl carbonate	Amount concentration (molarity), mol/dm3	uncertainty
298.15	0	0.0042	0.0002

System: dimethyl carbonate + water; phases: Gas, Liquid
Fixed: Mole fraction of dimethyl carbonate = 0
Property: Amount concentration (molarity), mol/dm3 (Gas); method: Headspace Solid Phase Microextraction with Gas Chromatography
Temperature, K	Amount concentration (molarity), mol/dm3	uncertainty
283.1	0.00109	0.00012
288.15	0.00153	0.0002
298.15	0.00267	0.0002
308.15	0.00442	0.0004
318.15	0.00662	0.0008

System: dimethyl carbonate + water; phases: Gas, Liquid
Property: Amount concentration (molarity), mol/dm3 (Gas); method: Inert gas stripping
Temperature, K	Amount concentration (molarity), mol/dm3 of dimethyl carbonate	Amount concentration (molarity), mol/dm3	uncertainty
298.15	0	0.00258	0.0001
