Measured thermophysical data. Ternary Liquid-Liquid Equilibria Measurement for Benzene + Cyclohexane +  N-Methylimidazole, or N-Ethylimidazole, or N-Methylimidazolium  Dibutylphosphate at 298.2 K and Atmospheric Pressure
Source: J. Chem. Eng. Data, 2008, 10.1021/je800376f
Compound 1: benzene, C6H6, InChI=1S/C6H6/c1-2-4-6-5-3-1/h1-6H, purity 99%
Compound 2: cyclohexane, C6H12, InChI=1S/C6H12/c1-2-4-6-5-3-1/h1-6H2, purity 99%
Compound 3: 1-methylimidazole, C4H6N2, InChI=1S/C4H6N2/c1-6-3-2-5-4-6/h2-4H,1H3
Compound 4: 1-ethyl-1H-imidazole, C5H8N2, InChI=1S/C5H8N2/c1-2-7-4-3-6-5-7/h3-5H,2H2,1H3
Compound 5: N-methylimidazolium dibutylphosphate, C12H25N2O4P, InChI=1S/C8H19O4P.C4H6N2/c1-3-5-7-11-13(9,10)12-8-6-4-2;1-6-3-2-5-4-6/h3-8H2,1-2H3,(H,9,10);2-4H,1H3

System: benzene + cyclohexane + 1-methylimidazole; phases: Liquid mixture 2, Liquid mixture 1
Fixed: Temperature, K = 298.2
Fixed: Pressure, kPa = 101.325
Property: Mole fraction of cyclohexane (Liquid mixture 2); method: Chromatography
Property: Mole fraction of benzene (Liquid mixture 1); method: Chromatography
Property: Mole fraction of cyclohexane (Liquid mixture 1); method: Chromatography
Mole fraction of benzene	Mole fraction of cyclohexane	uncertainty	Mole fraction of benzene	uncertainty	Mole fraction of cyclohexane	uncertainty
0.0537	0.0017	0.0017	0.0701	0.02	0.894	
0.237	0.0144	0.0144	0.304	0.02	0.566	
0.272	0.0183	0.0183	0.317	0.02	0.499	
0.28	0.0287	0.02	0.3317	0.0201	0.501	
0.304	0.0401	0.02	0.331	0.02	0.47	
0.0794	0.0034	0.0034	0.1	0.02	0.866	
0.102	0.0042	0.0042	0.132	0.02	0.847	
0.123	0.0055	0.0055	0.152	0.02	0.795	
0.139	0.0066	0.0066	0.173	0.02	0.757	
0.167	0.0088	0.0088	0.219	0.02	0.687	
0.187	0.0099	0.0099	0.232	0.02	0.679	
0.213	0.0127	0.0127	0.25	0.02	0.649	
0.214	0.0146	0.0146	0.29	0.02	0.617	

System: benzene + cyclohexane + 1-ethyl-1H-imidazole; phases: Liquid mixture 2, Liquid mixture 1
Fixed: Temperature, K = 298.2
Fixed: Pressure, kPa = 101.325
Property: Mole fraction of benzene (Liquid mixture 2); method: Chromatography
Property: Mole fraction of benzene (Liquid mixture 1); method: Chromatography
Property: Mole fraction of cyclohexane (Liquid mixture 1); method: Chromatography
Mole fraction of cyclohexane	Mole fraction of benzene	uncertainty	Mole fraction of benzene	uncertainty	Mole fraction of cyclohexane	uncertainty
0.167	0.0547	0.0237	0.0536	0.0263	0.889	
0.181	0.0812	0.0252	0.0776	0.0776	0.839	
0.191	0.106	0.025	0.109	0.045	0.829	
0.208	0.135	0.024	0.138	0.029	0.794	
0.224	0.157	0.022	0.163	0.023	0.746	
0.266	0.195	0.021	0.206	0.022	0.631	
0.354	0.228	0.025	0.228	0.02	0.519	
0.36	0.234	0.025	0.234	0.021	0.557	

System: benzene + cyclohexane + N-methylimidazolium dibutylphosphate; phases: Liquid mixture 2, Liquid mixture 1
Fixed: Temperature, K = 298.2
Fixed: Pressure, kPa = 101
Property: Mole fraction of cyclohexane (Liquid mixture 2); method: Chromatography
Property: Mole fraction of cyclohexane (Liquid mixture 1); method: Chromatography
Property: Mole fraction of benzene (Liquid mixture 1); method: Chromatography
Mole fraction of benzene	Mole fraction of cyclohexane	uncertainty	Mole fraction of cyclohexane	uncertainty	Mole fraction of benzene	uncertainty
0.082	0.444	0.02	0.912	0.02	0.0839	
0.1	0.44	0.02	0.889	0.02	0.1	
0.125	0.439	0.02	0.86	0.02	0.128	
0.126	0.434	0.02	0.847	0.02	0.141	
0.16	0.437	0.02	0.815	0.02	0.171	
0.232	0.431	0.02	0.751	0.02	0.235	
0.268	0.436	0.02	0.687	0.02	0.292	
0.314	0.441	0.02	0.633	0.02	0.337	
0.317	0.463	0.02	0.627	0.02	0.341	
