Measured thermophysical data. Solubilities in Water of Uracil and Its Halogenated Derivatives
Source: J. Chem. Eng. Data, 2008, 10.1021/je800029c
Compound 1: water, H2O, InChI=1S/H2O/h1H2
Compound 2: 2,4(1H,3H)-pyrimidinedione, C4H4N2O2, InChI=1S/C4H4N2O2/c7-3-1-2-5-4(8)6-3/h1-2H,(H2,5,6,7,8)
Compound 3: 5-fluoro-2,4(1H,3H)-pyrimidinedione, C4H3FN2O2, InChI=1S/C4H3FN2O2/c5-2-1-6-4(9)7-3(2)8/h1H,(H2,6,7,8,9)
Compound 4: 5-chloro-2,4-pyrimidinedione, C4H3ClN2O2, InChI=1S/C4H3ClN2O2/c5-2-1-6-4(9)7-3(2)8/h1H,(H2,6,7,8,9)
Compound 5: 6-chlorouracil, C4H3ClN2O2, InChI=1S/C4H3ClN2O2/c5-2-1-3(8)7-4(9)6-2/h1H,(H2,6,7,8,9)
Compound 6: 5-iodouracil, C4H3IN2O2, InChI=1S/C4H3IN2O2/c5-2-1-6-4(9)7-3(2)8/h1H,(H2,6,7,8,9)
Compound 7: 5-(trifluoromethyl)uracil, C5H3F3N2O2, InChI=1S/C5H3F3N2O2/c6-5(7,8)2-1-9-4(12)10-3(2)11/h1H,(H2,9,10,11,12)
Compound 8: 5-bromouracil, C4H3BrN2O2, InChI=1S/C4H3BrN2O2/c5-2-1-6-4(9)7-3(2)8/h1H,(H2,6,7,8,9)

System: 2,4(1H,3H)-pyrimidinedione + water; phases: Liquid, Crystal
Property: Mole fraction of 2,4(1H,3H)-pyrimidinedione (Liquid); method: UV spectra
Temperature, K	Pressure, kPa	Mole fraction of 2,4(1H,3H)-pyrimidinedione	uncertainty
298.15	101	0.000743	1.1e-05

System: 5-fluoro-2,4(1H,3H)-pyrimidinedione + water; phases: Liquid, Crystal
Property: Mole fraction of 5-fluoro-2,4(1H,3H)-pyrimidinedione (Liquid); method: UV spectra
Temperature, K	Pressure, kPa	Mole fraction of 5-fluoro-2,4(1H,3H)-pyrimidinedione	uncertainty
298.15	101	0.002484	4.2e-05

System: 5-chloro-2,4-pyrimidinedione + water; phases: Liquid, Crystal
Property: Mole fraction of 5-chloro-2,4-pyrimidinedione (Liquid); method: UV spectra
Temperature, K	Pressure, kPa	Mole fraction of 5-chloro-2,4-pyrimidinedione	uncertainty
298.15	101	0.000308	2.5e-05

System: 6-chlorouracil + water; phases: Liquid, Crystal
Property: Mole fraction of 6-chlorouracil (Liquid); method: UV spectra
Temperature, K	Pressure, kPa	Mole fraction of 6-chlorouracil	uncertainty
298.15	101	0.000603	1.3e-05

System: 5-iodouracil + water; phases: Liquid, Crystal
Property: Mole fraction of 5-iodouracil (Liquid); method: UV spectra
Temperature, K	Pressure, kPa	Mole fraction of 5-iodouracil	uncertainty
298.15	101	0.000373	2.1e-05

System: 5-(trifluoromethyl)uracil + water; phases: Liquid, Crystal
Property: Mole fraction of 5-(trifluoromethyl)uracil (Liquid); method: UV spectra
Temperature, K	Pressure, kPa	Mole fraction of 5-(trifluoromethyl)uracil	uncertainty
298.15	101	0.002682	6.2e-05

System: 5-bromouracil + water; phases: Liquid, Crystal
Property: Mole fraction of 5-bromouracil (Liquid); method: UV Spectra
Temperature, K	Pressure, kPa	Mole fraction of 5-bromouracil	uncertainty
298.15	101	0.000272	1.9e-05
