Measured thermophysical data. Volumetric Properties of 2-Alkylamines (2-Aminobutane and 2-Aminooctane) at Pressures up to 140 MPa and Temperatures between (293.15 and 403.15) K
Source: J. Chem. Eng. Data, 2009, 10.1021/je800786k
Compound 1: 2-butanamine, C4H11N, InChI=1S/C4H11N/c1-3-4(2)5/h4H,3,5H2,1-2H3
Compound 2: 1-methylheptylamine, C8H19N, InChI=1S/C8H19N/c1-3-4-5-6-7-8(2)9/h8H,3-7,9H2,1-2H3

System: 2-butanamine; phases: Liquid
Property: Mass density, kg/m3 (Liquid); method: Vibrating tube method
Temperature, K	Pressure, kPa	Mass density, kg/m3	uncertainty
293.15	100	725.3	1.1
293.15	10000	733.6	1.1
293.15	20000	741.2	1.1
293.15	30000	748.1	1.1
293.15	40000	754.5	1.1
293.15	50000	760.4	1.2
293.15	60000	766.1	1.2
293.15	70000	771.3	1.2
293.15	80000	776.3	1.3
293.15	90000	781.1	1.3
293.15	100000	785.5	1.3
293.15	110000	789.7	1.4
293.15	120000	793.9	1.4
293.15	130000	797.8	1.4
293.15	140000	801.5	1.5
303.15	100	715.1	1.1
303.15	10000	724.3	1.1
303.15	20000	732.4	1.1
303.15	30000	739.7	1.1
303.15	40000	746.3	1.1
303.15	50000	752.5	1.2
303.15	60000	758.3	1.2
303.15	70000	763.7	1.2
303.15	80000	768.9	1.3
303.15	90000	773.8	1.3
303.15	100000	778.4	1.4
303.15	110000	782.9	1.4
303.15	120000	787.2	1.4
303.15	130000	791.2	1.5
303.15	140000	795.2	1.5
313.15	100	705	1.1
313.15	10000	714.8	1.1
313.15	20000	723.4	1.1
313.15	30000	731.1	1.1
313.15	40000	738.2	1.1
313.15	50000	744.7	1.2
313.15	60000	750.8	1.2
313.15	70000	756.5	1.3
313.15	80000	761.9	1.3
313.15	90000	767	1.3
313.15	100000	771.8	1.4
313.15	110000	776.4	1.4
313.15	120000	780.8	1.5
313.15	130000	785.1	1.5
313.15	140000	789.1	1.5
323.15	100	694.7	1.1
323.15	10000	705.4	1.1
323.15	20000	714.5	1.1
323.15	30000	722.8	1.1
323.15	40000	730.4	1.2
323.15	50000	737.2	1.2
323.15	60000	743.6	1.2
323.15	70000	749.5	1.3
323.15	80000	755.2	1.3
323.15	90000	760.4	1.3
323.15	100000	765.4	1.4
323.15	110000	770.2	1.4
323.15	120000	774.7	1.5
323.15	130000	779	1.5
323.15	140000	783.2	1.6
333.15	10000	695.4	1.1
333.15	20000	705.2	1.1
333.15	30000	714	1.1
333.15	40000	722	1.2
333.15	50000	729.2	1.2
333.15	60000	735.8	1.2
333.15	70000	742.1	1.3
333.15	80000	748	1.3
333.15	90000	753.4	1.4
333.15	100000	758.6	1.4
333.15	110000	763.5	1.5
333.15	120000	768.1	1.5
333.15	130000	772.5	1.5
333.15	140000	776.9	1.6
343.15	10000	685.9	1.1
343.15	20000	696.6	1.1
343.15	30000	706	1.2
343.15	40000	714.3	1.2
343.15	50000	721.9	1.2
343.15	60000	728.8	1.3
343.15	70000	735.3	1.3
343.15	80000	741.3	1.3
343.15	90000	747.1	1.4
343.15	100000	752.4	1.4
343.15	110000	757.4	1.5
343.15	120000	762.3	1.5
343.15	130000	767	1.6
343.15	140000	771.3	1.6
353.15	10000	675.8	1.1
353.15	20000	687.1	1.1
353.15	30000	697.2	1.2
353.15	40000	705.8	1.2
353.15	50000	714	1.2
353.15	60000	721.2	1.3
353.15	70000	728	1.3
353.15	80000	734.2	1.4
353.15	90000	740.1	1.4
353.15	100000	745.7	1.4
353.15	110000	751	1.5
353.15	120000	756	1.5
353.15	130000	760.7	1.6
353.15	140000	765.3	1.6
363.15	10000	665.7	1.2
363.15	20000	678	1.2
363.15	30000	688.5	1.2
363.15	40000	697.8	1.2
363.15	50000	706.2	1.2
363.15	60000	713.9	1.3
363.15	70000	721	1.3
363.15	80000	727.5	1.4
363.15	90000	733.6	1.4
363.15	100000	739.4	1.5
363.15	110000	744.8	1.5
363.15	120000	749.9	1.6
363.15	130000	754.8	1.6
363.15	140000	759.5	1.7
373.15	10000	655.5	1.2
373.15	20000	668.9	1.2
373.15	30000	680.1	1.2
373.15	40000	690	1.2
373.15	50000	698.2	1.3
373.15	60000	707	1.3
373.15	70000	714	1.3
373.15	80000	720.9	1.4
373.15	90000	727.2	1.4
373.15	100000	733.2	1.5
373.15	110000	738.7	1.5
373.15	120000	744	1.6
373.15	130000	749.1	1.6
373.15	140000	753.9	1.7
383.15	10000	645.5	1.2
383.15	20000	659.9	1.2
383.15	30000	671.9	1.2
383.15	40000	682.3	1.2
383.15	50000	691.4	1.3
383.15	60000	699.6	1.3
383.15	70000	707.3	1.4
383.15	80000	714.4	1.4
383.15	90000	720.8	1.5
383.15	100000	726.9	1.5
383.15	110000	732.7	1.6
383.15	120000	738.2	1.6
383.15	130000	743.3	1.7
383.15	140000	748.2	1.7
393.15	10000	634.9	1.2
393.15	20000	650.5	1.2
393.15	30000	663.1	1.2
393.15	40000	674.3	1.2
393.15	50000	684.3	1.3
393.15	60000	693	1.3
393.15	70000	700.9	1.4
393.15	80000	708.2	1.4
393.15	90000	714.9	1.5
393.15	100000	721.2	1.5
393.15	110000	727.2	1.6
393.15	120000	732.8	1.6
393.15	130000	738.1	1.7
393.15	140000	742.9	1.7
403.15	10000	623.9	1.2
403.15	20000	640.6	1.2
403.15	30000	654.5	1.2
403.15	40000	666.1	1.3
403.15	50000	676.3	1.3
403.15	60000	685.3	1.3
403.15	70000	693.6	1.4
403.15	80000	701.1	1.4
403.15	90000	708.2	1.5
403.15	100000	714.9	1.5
403.15	110000	721.1	1.6
403.15	120000	726.9	1.6
403.15	130000	732.3	1.7
403.15	140000	737.4	1.8

System: 1-methylheptylamine; phases: Liquid
Property: Mass density, kg/m3 (Liquid); method: Vibrating tube method
Temperature, K	Pressure, kPa	Mass density, kg/m3	uncertainty
293.15	100	772	1
293.15	10000	778.7	1.1
293.15	20000	784.8	1.1
293.15	30000	790.6	1.1
293.15	40000	796.1	1.1
293.15	50000	801.2	1.1
293.15	60000	806	1.2
293.15	70000	810.6	1.2
293.15	80000	815	1.2
293.15	90000	819.1	1.2
293.15	100000	823.2	1.3
293.15	110000	826.9	1.3
293.15	120000	830.6	1.3
293.15	130000	834.2	1.3
293.15	140000	837.6	1.4
303.15	100	764	1.1
303.15	10000	771.3	1.1
303.15	20000	777.8	1.1
303.15	30000	783.8	1.1
303.15	40000	789.2	1.1
303.15	50000	794.5	1.1
303.15	60000	799.5	1.2
303.15	70000	804.2	1.2
303.15	80000	808.7	1.2
303.15	90000	813	1.3
303.15	100000	817.1	1.3
303.15	110000	821	1.3
303.15	120000	824.8	1.3
303.15	130000	828.5	1.4
303.15	140000	832	1.4
313.15	100	755.8	1.1
313.15	10000	763.5	1.1
313.15	20000	770.4	1.1
313.15	30000	776.7	1.1
313.15	40000	782.5	1.1
313.15	50000	788.1	1.1
313.15	60000	793.2	1.2
313.15	70000	798.1	1.2
313.15	80000	802.7	1.2
313.15	90000	807.1	1.3
313.15	100000	811.4	1.3
313.15	110000	815.5	1.3
313.15	120000	819.4	1.4
313.15	130000	823.1	1.4
313.15	140000	826.7	1.4
323.15	100	748.1	1.1
323.15	10000	756	1.1
323.15	20000	763.2	1.1
323.15	30000	769.9	1.1
323.15	40000	776	1.1
323.15	50000	781.6	1.2
323.15	60000	787.1	1.2
323.15	70000	792.2	1.2
323.15	80000	797	1.2
323.15	90000	801.5	1.3
323.15	100000	805.9	1.3
323.15	110000	810.1	1.3
323.15	120000	814.1	1.4
323.15	130000	818	1.4
323.15	140000	821.6	1.4
333.15	100	739.6	1.1
333.15	10000	748.1	1.1
333.15	20000	755.5	1.1
333.15	30000	762.6	1.1
333.15	40000	769	1.1
333.15	50000	775	1.2
333.15	60000	780.6	1.2
333.15	70000	785.8	1.2
333.15	80000	790.9	1.3
333.15	90000	795.5	1.3
333.15	100000	800	1.3
333.15	110000	804.4	1.4
333.15	120000	808.5	1.4
333.15	130000	812.5	1.4
333.15	140000	816.3	1.5
343.15	100	731.5	1.1
343.15	10000	740.5	1.1
343.15	20000	748.6	1.1
343.15	30000	756	1.1
343.15	40000	762.7	1.1
343.15	50000	768.9	1.2
343.15	60000	774.7	1.2
343.15	70000	780.2	1.2
343.15	80000	785.3	1.3
343.15	90000	790.2	1.3
343.15	100000	794.9	1.3
343.15	110000	799.2	1.4
343.15	120000	803.4	1.4
343.15	130000	807.5	1.4
343.15	140000	811.4	1.5
353.15	100	723.2	1.1
353.15	10000	733	1.1
353.15	20000	741.6	1.1
353.15	30000	749.3	1.1
353.15	40000	756.2	1.1
353.15	50000	762.7	1.2
353.15	60000	768.7	1.2
353.15	70000	774.4	1.2
353.15	80000	779.7	1.3
353.15	90000	784.7	1.3
353.15	100000	789.5	1.4
353.15	110000	794.1	1.4
353.15	120000	798.4	1.4
353.15	130000	802.3	1.5
353.15	140000	806.3	1.5
363.15	100	714.7	1.1
363.15	10000	724.9	1.1
363.15	20000	734	1.1
363.15	30000	742	1.1
363.15	40000	749.3	1.2
363.15	50000	756.1	1.2
363.15	60000	762.4	1.2
363.15	70000	768.3	1.3
363.15	80000	773.8	1.3
363.15	90000	779	1.3
363.15	100000	783.9	1.4
363.15	110000	788.5	1.4
363.15	120000	793	1.4
363.15	130000	797.3	1.5
363.15	140000	801.4	1.5
373.15	100	706	1.1
373.15	10000	717.2	1.1
373.15	20000	726.6	1.1
373.15	30000	735.2	1.1
373.15	40000	742.9	1.2
373.15	50000	749.9	1.2
373.15	60000	756.8	1.2
373.15	70000	762.8	1.3
373.15	80000	768.5	1.3
373.15	90000	773.8	1.3
373.15	100000	778.9	1.4
373.15	110000	783.7	1.4
373.15	120000	788.3	1.5
373.15	130000	792.8	1.5
373.15	140000	796.8	1.5
383.15	100	697.6	1.1
383.15	10000	709.4	1.1
383.15	20000	719.5	1.1
383.15	30000	728.5	1.1
383.15	40000	736.4	1.2
383.15	50000	743.8	1.2
383.15	60000	750.6	1.2
383.15	70000	756.8	1.3
383.15	80000	762.7	1.3
383.15	90000	768.1	1.4
383.15	100000	773.3	1.4
383.15	110000	778.3	1.4
383.15	120000	783	1.5
383.15	130000	787.5	1.5
383.15	140000	791.8	1.6
393.15	100	689	1.1
393.15	10000	701.6	1.1
393.15	20000	712.3	1.1
393.15	30000	721.7	1.2
393.15	40000	730	1.2
393.15	50000	737.9	1.2
393.15	60000	744.9	1.3
393.15	70000	751.4	1.3
393.15	80000	757.5	1.3
393.15	90000	763.2	1.4
393.15	100000	768.6	1.4
393.15	110000	773.6	1.4
393.15	120000	778.4	1.5
393.15	130000	782.8	1.5
393.15	140000	787.2	1.6
403.15	100	680.1	1.2
403.15	10000	693.5	1.2
403.15	20000	705	1.2
403.15	30000	714.8	1.2
403.15	40000	723.5	1.2
403.15	50000	731.5	1.2
403.15	60000	738.7	1.3
403.15	70000	745.4	1.3
403.15	80000	751.6	1.3
403.15	90000	757.5	1.4
403.15	100000	763.1	1.4
403.15	110000	768.3	1.5
403.15	120000	773.2	1.5
403.15	130000	777.9	1.5
403.15	140000	782.4	1.6
