Measured thermophysical data. Densities and Viscosities of N,N-Dimethylformamide + N-Methyl-2-pyrrolidinone and + Dimethyl Sulfoxide in the Temperature Range (303.15 to 353.15) K
Source: J. Chem. Eng. Data, 2008, 10.1021/je800138b
Compound 1: dimethylformamide, C3H7NO, InChI=1S/C3H7NO/c1-4(2)3-5/h3H,1-2H3
Compound 2: N-methylpyrrolidone, C5H9NO, InChI=1S/C5H9NO/c1-6-4-2-3-5(6)7/h2-4H2,1H3
Compound 3: dimethyl sulfoxide, C2H6OS, InChI=1S/C2H6OS/c1-4(2)3/h1-2H3

System: dimethylformamide; phases: Liquid
Fixed: Pressure, kPa = 101
Property: Viscosity, Pa*s (Liquid); method: CAPTUB:UFactor:2
Temperature, K	Viscosity, Pa*s	uncertainty
303.15	0.000759	1.1e-05
313.15	0.000678	1e-05
323.15	0.000608	1e-05
333.15	0.000552	9e-06
343.15	0.000501	9e-06
353.15	0.000459	9e-06

System: dimethylformamide; phases: Liquid
Fixed: Pressure, kPa = 101
Property: Mass density, kg/m3 (Liquid); method: VIBTUB:UFactor:8
Temperature, K	Mass density, kg/m3	uncertainty
303.15	940.09	0.44
313.15	930.74	0.47
323.15	921.25	0.5
333.15	911.17	0.53
343.15	901.54	0.57
353.15	891.54	0.6

System: N-methylpyrrolidone; phases: Liquid
Fixed: Pressure, kPa = 101
Property: Viscosity, Pa*s (Liquid); method: CAPTUB::UFactor:2
Temperature, K	Viscosity, Pa*s	uncertainty
303.15	0.001521	1.9e-05
313.15	0.001319	1.6e-05
323.15	0.001174	1.5e-05
333.15	0.001033	1.4e-05
343.15	0.000914	1.2e-05
353.15	0.000808	1.2e-05

System: N-methylpyrrolidone; phases: Liquid
Fixed: Pressure, kPa = 101
Property: Mass density, kg/m3 (Liquid); method: VIBTUB::UFactor:8
Temperature, K	Mass density, kg/m3	uncertainty
303.15	1023.76	0.38
313.15	1015.08	0.35
323.15	1006.3	0.32
333.15	996.89	0.31
343.15	988.05	0.34
353.15	978.84	0.37

System: dimethyl sulfoxide; phases: Liquid
Fixed: Pressure, kPa = 101
Property: Viscosity, Pa*s (Liquid); method: CAPTUB::UFactor:2
Temperature, K	Viscosity, Pa*s	uncertainty
303.15	0.001786	2.2e-05
313.15	0.001506	1.9e-05
323.15	0.001278	1.6e-05
333.15	0.001104	1.4e-05
343.15	0.000962	1.3e-05
353.15	0.00085	1.2e-05

System: dimethyl sulfoxide; phases: Liquid
Fixed: Pressure, kPa = 101
Property: Mass density, kg/m3 (Liquid); method: VIBTUB::UFactor:8
Temperature, K	Mass density, kg/m3	uncertainty
303.15	1090.37	0.59
313.15	1080.58	0.56
323.15	1070.75	0.53
333.15	1060.26	0.49
343.15	1050.3	0.46
353.15	1040.03	0.43

System: dimethylformamide + N-methylpyrrolidone; phases: Liquid
Fixed: Pressure, kPa = 101
Property: Viscosity, Pa*s (Liquid); method: CAPTUB:UFactor:2
Temperature, K	Mole fraction of dimethylformamide	Viscosity, Pa*s	uncertainty
303.15	0	0.001521	1.9e-05
303.15	0.1003	0.001417	1.8e-05
303.15	0.2001	0.001328	1.7e-05
303.15	0.2997	0.001249	1.6e-05
303.15	0.4	0.00117	1.5e-05
303.15	0.5007	0.001085	1.4e-05
303.15	0.595	0.001018	1.3e-05
303.15	0.7	0.000943	1.3e-05
303.15	0.8	0.000872	1.2e-05
303.15	0.9003	0.000809	1.1e-05
303.15	1	0.000759	1.1e-05
313.15	0	0.001319	1.6e-05
313.15	0.1003	0.001231	1.5e-05
313.15	0.2001	0.001152	1.5e-05
313.15	0.2997	0.001085	1.4e-05
313.15	0.4	0.00102	1.3e-05
313.15	0.5007	0.000948	1.3e-05
313.15	0.595	0.000891	1.2e-05
313.15	0.7	0.000832	1.2e-05
313.15	0.8	0.000775	1.1e-05
313.15	0.9003	0.000721	1.1e-05
313.15	1	0.000678	1e-05
323.15	0	0.001174	1.5e-05
323.15	0.1003	0.001097	1.4e-05
323.15	0.2001	0.001024	1.3e-05
323.15	0.2997	0.000967	1.3e-05
323.15	0.4	0.000908	1.2e-05
323.15	0.5007	0.000846	1.2e-05
323.15	0.595	0.000794	1.1e-05
323.15	0.7	0.000742	1.1e-05
323.15	0.8	0.000692	1e-05
323.15	0.9003	0.000646	1e-05
323.15	1	0.000608	1e-05
333.15	0	0.001033	1.4e-05
333.15	0.1003	0.00097	1.3e-05
333.15	0.2001	0.00091	1.2e-05
333.15	0.2997	0.000857	1.2e-05
333.15	0.4	0.000811	1.1e-05
333.15	0.5007	0.000754	1.1e-05
333.15	0.595	0.000711	1.1e-05
333.15	0.7	0.000664	1e-05
333.15	0.8	0.000623	1e-05
333.15	0.9003	0.000583	9e-06
333.15	1	0.000552	9e-06
343.15	0	0.000914	1.2e-05
343.15	0.1003	0.00086	1.2e-05
343.15	0.2001	0.000811	1.1e-05
343.15	0.2997	0.000767	1.1e-05
343.15	0.4	0.000722	1.1e-05
343.15	0.5007	0.000679	1e-05
343.15	0.595	0.000639	1e-05
343.15	0.7	0.000601	1e-05
343.15	0.8	0.000565	9e-06
343.15	0.9003	0.000531	9e-06
343.15	1	0.000501	9e-06
353.15	0	0.000808	1.2e-05
353.15	0.1003	0.000769	1.1e-05
353.15	0.2001	0.000729	1.1e-05
353.15	0.2997	0.000691	1e-05
353.15	0.4	0.000653	1e-05
353.15	0.5007	0.000614	1e-05
353.15	0.595	0.000581	9e-06
353.15	0.7	0.000547	9e-06
353.15	0.8	0.000514	9e-06
353.15	0.9003	0.000483	9e-06
353.15	1	0.000459	9e-06

System: dimethylformamide + N-methylpyrrolidone; phases: Liquid
Fixed: Pressure, kPa = 101
Property: Mass density, kg/m3 (Liquid); method: VIBTUB:UFactor:8
Temperature, K	Mole fraction of dimethylformamide	Mass density, kg/m3	uncertainty
303.15	0	1023.76	0.38
303.15	0.1003	1017.38	0.35
303.15	0.2001	1010.28	0.32
303.15	0.2997	1002.95	0.29
303.15	0.4	995.19	0.29
303.15	0.5007	987.01	0.31
303.15	0.595	978.95	0.34
303.15	0.7	969.61	0.36
303.15	0.8	960.3	0.39
303.15	0.9003	950.41	0.41
303.15	1	940.09	0.44
313.15	0	1015.08	0.35
313.15	0.1003	1008.62	0.32
313.15	0.2001	1001.48	0.29
313.15	0.2997	994.03	0.3
313.15	0.4	986.24	0.32
313.15	0.5007	978.02	0.34
313.15	0.595	969.84	0.36
313.15	0.7	960.43	0.39
313.15	0.8	951.01	0.42
313.15	0.9003	941.11	0.44
313.15	1	930.74	0.47
323.15	0	1006.3	0.32
323.15	0.1003	999.8	0.3
323.15	0.2001	992.54	0.31
323.15	0.2997	985.06	0.33
323.15	0.4	977.17	0.35
323.15	0.5007	968.91	0.37
323.15	0.595	960.68	0.39
323.15	0.7	951.17	0.42
323.15	0.8	941.68	0.44
323.15	0.9003	931.72	0.47
323.15	1	921.25	0.5
333.15	0	996.89	0.31
333.15	0.1003	990.33	0.32
333.15	0.2001	983.05	0.34
333.15	0.2997	975.46	0.36
333.15	0.4	967.51	0.38
333.15	0.5007	959.17	0.4
333.15	0.595	950.9	0.42
333.15	0.7	941.31	0.45
333.15	0.8	931.74	0.48
333.15	0.9003	921.72	0.5
333.15	1	911.17	0.53
343.15	0	988.05	0.34
343.15	0.1003	981.41	0.35
343.15	0.2001	974.02	0.37
343.15	0.2997	966.38	0.39
343.15	0.4	958.37	0.41
343.15	0.5007	949.93	0.43
343.15	0.595	941.59	0.45
343.15	0.7	931.92	0.48
343.15	0.8	922.25	0.51
343.15	0.9003	912.14	0.53
343.15	1	901.54	0.57
353.15	0	978.84	0.37
353.15	0.1003	972.12	0.38
353.15	0.2001	964.69	0.4
353.15	0.2997	956.98	0.42
353.15	0.4	948.89	0.44
353.15	0.5007	940.36	0.46
353.15	0.595	931.94	0.48
353.15	0.7	922.19	0.51
353.15	0.8	912.42	0.54
353.15	0.9003	902.24	0.57
353.15	1	891.54	0.6

System: dimethyl sulfoxide + dimethylformamide; phases: Liquid
Fixed: Pressure, kPa = 101
Property: Viscosity, Pa*s (Liquid); method: CAPTUB:UFactor:2
Temperature, K	Mole fraction of dimethylformamide	Viscosity, Pa*s	uncertainty
303.15	0	0.001786	2.2e-05
303.15	0.1	0.001617	2e-05
303.15	0.2	0.001466	1.8e-05
303.15	0.3	0.001331	1.7e-05
303.15	0.4001	0.001228	1.5e-05
303.15	0.5002	0.001109	1.4e-05
303.15	0.6001	0.001025	1.3e-05
303.15	0.7001	0.000952	1.3e-05
303.15	0.8	0.000877	1.2e-05
303.15	0.9	0.000814	1.1e-05
303.15	1	0.000759	1.1e-05
313.15	0	0.001506	1.9e-05
313.15	0.1	0.001365	1.7e-05
313.15	0.2	0.001248	1.6e-05
313.15	0.3	0.001141	1.5e-05
313.15	0.4001	0.001057	1.4e-05
313.15	0.5002	0.000969	1.3e-05
313.15	0.6001	0.0009	1.2e-05
313.15	0.7001	0.000839	1.2e-05
313.15	0.8	0.000775	1.1e-05
313.15	0.9	0.000724	1.1e-05
313.15	1	0.000678	1e-05
323.15	0	0.001278	1.6e-05
323.15	0.1	0.00117	1.5e-05
323.15	0.2	0.001075	1.4e-05
323.15	0.3	0.00099	1.3e-05
323.15	0.4001	0.000922	1.2e-05
323.15	0.5002	0.00085	1.2e-05
323.15	0.6001	0.000792	1.1e-05
323.15	0.7001	0.00074	1.1e-05
323.15	0.8	0.00069	1e-05
323.15	0.9	0.000647	1e-05
323.15	1	0.000608	1e-05
333.15	0	0.001104	1.4e-05
333.15	0.1	0.001015	1.3e-05
333.15	0.2	0.000938	1.3e-05
333.15	0.3	0.000868	1.2e-05
333.15	0.4001	0.000818	1.2e-05
333.15	0.5002	0.000753	1.1e-05
333.15	0.6001	0.000706	1e-05
333.15	0.7001	0.000661	1e-05
333.15	0.8	0.000621	1e-05
333.15	0.9	0.000583	9e-06
333.15	1	0.000552	9e-06
343.15	0	0.000962	1.3e-05
343.15	0.1	0.000895	1.2e-05
343.15	0.2	0.000829	1.2e-05
343.15	0.3	0.000771	1.1e-05
343.15	0.4001	0.000726	1.1e-05
343.15	0.5002	0.000674	1e-05
343.15	0.6001	0.000635	1e-05
343.15	0.7001	0.000597	1e-05
343.15	0.8	0.000561	9e-06
343.15	0.9	0.00053	9e-06
343.15	1	0.000501	9e-06
353.15	0	0.00085	1.2e-05
353.15	0.1	0.000793	1.1e-05
353.15	0.2	0.000739	1.1e-05
353.15	0.3	0.000691	1e-05
353.15	0.4001	0.000654	1e-05
353.15	0.5002	0.000611	1e-05
353.15	0.6001	0.000575	9e-06
353.15	0.7001	0.000541	9e-06
353.15	0.8	0.000512	9e-06
353.15	0.9	0.000483	9e-06
353.15	1	0.000459	9e-06

System: dimethyl sulfoxide + dimethylformamide; phases: Liquid
Fixed: Pressure, kPa = 101
Property: Mass density, kg/m3 (Liquid); method: VIBTUB:UFactor:8
Temperature, K	Mole fraction of dimethylformamide	Mass density, kg/m3	uncertainty
303.15	0	1090.37	0.59
303.15	0.1	1074.07	0.53
303.15	0.2	1058.13	0.48
303.15	0.3	1042.35	0.42
303.15	0.4001	1026.75	0.37
303.15	0.5002	1011.89	0.31
303.15	0.6001	996.94	0.28
303.15	0.7001	982.31	0.32
303.15	0.8	967.98	0.36
303.15	0.9	953.96	0.4
303.15	1	940.09	0.44
313.15	0	1080.58	0.56
313.15	0.1	1064.34	0.5
313.15	0.2	1048.44	0.44
313.15	0.3	1032.75	0.39
313.15	0.4001	1017.14	0.34
313.15	0.5002	1002.34	0.28
313.15	0.6001	987.43	0.31
313.15	0.7001	972.87	0.35
313.15	0.8	958.56	0.39
313.15	0.9	944.59	0.43
313.15	1	930.74	0.47
323.15	0	1070.75	0.53
323.15	0.1	1054.58	0.47
323.15	0.2	1038.7	0.41
323.15	0.3	1023.04	0.36
323.15	0.4001	1007.5	0.31
323.15	0.5002	992.71	0.3
323.15	0.6001	977.85	0.34
323.15	0.7001	963.36	0.38
323.15	0.8	949.03	0.42
323.15	0.9	935.09	0.46
323.15	1	921.25	0.5
333.15	0	1060.26	0.49
333.15	0.1	1044.11	0.44
333.15	0.2	1028.31	0.38
333.15	0.3	1012.68	0.33
333.15	0.4001	997.14	0.29
333.15	0.5002	982.46	0.33
333.15	0.6001	967.64	0.37
333.15	0.7001	953.16	0.41
333.15	0.8	938.9	0.45
333.15	0.9	924.98	0.49
333.15	1	911.17	0.53
343.15	0	1050.3	0.46
343.15	0.1	1034.24	0.41
343.15	0.2	1018.48	0.35
343.15	0.3	1002.88	0.3
343.15	0.4001	987.38	0.32
343.15	0.5002	972.71	0.36
343.15	0.6001	957.92	0.4
343.15	0.7001	943.47	0.44
343.15	0.8	929.22	0.48
343.15	0.9	915.32	0.53
343.15	1	901.54	0.57
353.15	0	1040.03	0.43
353.15	0.1	1024.03	0.37
353.15	0.2	1008.31	0.32
353.15	0.3	992.73	0.31
353.15	0.4001	977.26	0.35
353.15	0.5002	962.63	0.39
353.15	0.6001	947.83	0.43
353.15	0.7001	933.43	0.48
353.15	0.8	919.2	0.52
353.15	0.9	905.31	0.56
353.15	1	891.54	0.6
