Measured thermophysical data. Solubilities of Diglycolic Acid Esters in Supercritical Carbon Dioxide
Source: J. Chem. Eng. Data, 2009, 10.1021/je800683e
Compound 1: carbon dioxide, CO2, InChI=1S/CO2/c2-1-3, purity 99.99%
Compound 2: dipentyl 2,2'-oxydiacetate, C14H26O5, InChI=1S/C14H26O5/c1-3-5-7-9-18-13(15)11-17-12-14(16)19-10-8-6-4-2/h3-12H2,1-2H3
Compound 3: diheptyl 2,2'-oxydiacetate, C18H34O5, InChI=1S/C18H34O5/c1-3-5-7-9-11-13-22-17(19)15-21-16-18(20)23-14-12-10-8-6-4-2/h3-16H2,1-2H3
Compound 4: dinonyl 2,2'-oxydiacetate, C22H42O5, InChI=1S/C22H42O5/c1-3-5-7-9-11-13-15-17-26-21(23)19-25-20-22(24)27-18-16-14-12-10-8-6-4-2/h3-20H2,1-2H3
Compound 5: diundecyl 2,2'-oxydiacetate, C26H50O5, InChI=1S/C26H50O5/c1-3-5-7-9-11-13-15-17-19-21-30-25(27)23-29-24-26(28)31-22-20-18-16-14-12-10-8-6-4-2/h3-24H2,1-2H3
Compound 6: ditridecyl 2,2'-oxydiacetate, C30H58O5, InChI=1S/C30H58O5/c1-3-5-7-9-11-13-15-17-19-21-23-25-34-29(31)27-33-28-30(32)35-26-24-22-20-18-16-14-12-10-8-6-4-2/h3-28H2,1-2H3
Compound 7: dipentadecyl 2,2'-oxydiacetate, C34H66O5, InChI=1S/C34H66O5/c1-3-5-7-9-11-13-15-17-19-21-23-25-27-29-38-33(35)31-37-32-34(36)39-30-28-26-24-22-20-18-16-14-12-10-8-6-4-2/h3-32H2,1-2H3

System: carbon dioxide + dipentyl 2,2'-oxydiacetate; phases: Fluid (supercritical or subcritical phases), Crystal
Property: Vapor or sublimation pressure, kPa (Fluid (supercritical or subcritical phases)); method: visual observation
Temperature, K	Mole fraction of dipentyl 2,2'-oxydiacetate	Vapor or sublimation pressure, kPa	uncertainty
313	0.002231	8500	1000
313	0.003903	8700	1000
313	0.005268	8800	1000
313	0.006749	8900	1000
313	0.008166	9000	1000
323	0.003361	9700	1000
323	0.005936	10100	1000
323	0.008143	10400	1000
323	0.01028	10600	1000
323	0.012231	10800	1000
333	0.003437	10800	1000
333	0.006078	11400	1000
333	0.008289	11900	1000
333	0.010491	12200	1000
333	0.012505	12500	1000

System: carbon dioxide + diheptyl 2,2'-oxydiacetate; phases: Fluid (supercritical or subcritical phases), Crystal
Property: Vapor or sublimation pressure, kPa (Fluid (supercritical or subcritical phases)); method: visual observation
Temperature, K	Mole fraction of diheptyl 2,2'-oxydiacetate	Vapor or sublimation pressure, kPa	uncertainty
313	0.002231	8700	1000
313	0.003903	8900	1000
313	0.005268	9100	1000
313	0.006749	9200	1000
313	0.008166	9300	1000
323	0.002208	10200	1000
323	0.003942	10600	1000
323	0.005388	11000	1000
323	0.006686	11400	1000
323	0.008011	11700	1000
333	0.002199	11700	1000
333	0.00378	12600	1000
333	0.005305	13100	1000
333	0.006764	13500	1000
333	0.007996	14100	1000

System: carbon dioxide + dinonyl 2,2'-oxydiacetate; phases: Fluid (supercritical or subcritical phases), Crystal
Property: Vapor or sublimation pressure, kPa (Fluid (supercritical or subcritical phases)); method: visual observation
Temperature, K	Mole fraction of dinonyl 2,2'-oxydiacetate	Vapor or sublimation pressure, kPa	uncertainty
313	0.001486	9100	1000
313	0.002763	9300	1000
313	0.004035	9400	1000
313	0.005156	9600	1000
313	0.00624	9800	1000
323	0.001552	10900	1000
323	0.002924	11200	1000
323	0.004242	11400	1000
323	0.005293	11900	1000
323	0.006476	12100	1000
333	0.001599	12600	1000
333	0.002992	13100	1000
333	0.004248	13600	1000
333	0.005506	13900	1000
333	0.00671	14200	1000

System: carbon dioxide + diundecyl 2,2'-oxydiacetate; phases: Fluid (supercritical or subcritical phases), Crystal
Property: Vapor or sublimation pressure, kPa (Fluid (supercritical or subcritical phases)); method: visual observation
Temperature, K	Mole fraction of diundecyl 2,2'-oxydiacetate	Vapor or sublimation pressure, kPa	uncertainty
313	0.000792	9200	1000
313	0.001108	9400	1000
313	0.001346	9500	1000
313	0.001644	9600	1000
313	0.002052	9700	1000
323	0.000783	11100	1000
323	0.001294	11400	1000
323	0.001632	11600	1000
323	0.001952	12000	1000
323	0.002416	12300	1000
333	0.000744	13000	1000
333	0.001402	13400	1000
333	0.001656	13600	1000
333	0.002097	13900	1000
333	0.002434	14500	1000

System: carbon dioxide + ditridecyl 2,2'-oxydiacetate; phases: Fluid (supercritical or subcritical phases), Crystal
Property: Vapor or sublimation pressure, kPa (Fluid (supercritical or subcritical phases)); method: visual observation
Temperature, K	Mole fraction of ditridecyl 2,2'-oxydiacetate	Vapor or sublimation pressure, kPa	uncertainty
313	0.000608	9900	1000
313	0.000935	10300	1000
313	0.001203	10700	1000
313	0.001532	11200	1000
313	0.001812	11500	1000
323	0.000665	12400	1000
323	0.000975	12900	1000
323	0.001203	13100	1000
323	0.001462	13400	1000
323	0.001822	13800	1000
333	0.000557	14000	1000
333	0.000977	14700	1000
333	0.00119	15000	1000
333	0.00136	15200	1000
333	0.001695	15600	1000

System: carbon dioxide + dipentadecyl 2,2'-oxydiacetate; phases: Fluid (supercritical or subcritical phases), Crystal
Property: Vapor or sublimation pressure, kPa (Fluid (supercritical or subcritical phases)); method: visual observation
Temperature, K	Mole fraction of dipentadecyl 2,2'-oxydiacetate	Vapor or sublimation pressure, kPa	uncertainty
313	0.000677	11000	1000
313	0.000915	11700	1000
313	0.001049	12400	1100
313	0.001182	13500	1100
313	0.001326	14300	1100
323	0.000677	13800	1000
323	0.000831	14400	1000
323	0.001034	15000	1000
323	0.001208	15900	1100
323	0.001356	16400	1100
333	0.000539	16000	1000
333	0.000666	16200	1000
333	0.001077	17300	1000
333	0.001252	18000	1100
333	0.001403	19300	1200
