Measured thermophysical data. High-Pressure Vapor-Liquid Equilibrium for Ethylene + 2-Methyl-1-propanol
Source: J. Chem. Eng. Data, 2009, 10.1021/je8009978
Compound 1: ethene, C2H4, InChI=1S/C2H4/c1-2/h1-2H2, purity 99.9%
Compound 2: 2-methyl-1-propanol, C4H10O, InChI=1S/C4H10O/c1-4(2)3-5/h4-5H,3H2,1-2H3

System: 2-methyl-1-propanol; phases: Liquid, Gas
Property: Normal boiling temperature, K (Liquid); method: Closed cell (Static) method
Normal boiling temperature, K	uncertainty
380.976	0.202

System: 2-methyl-1-propanol; phases: Liquid
Property: Refractive index (Na D-line) (Liquid); method: Standard Abbe refractometry
Temperature, K	Pressure, kPa	Refractive index (Na D-line)	uncertainty
298.15	101.325	1.3939	0.0004

System: 2-methyl-1-propanol; phases: Liquid
Property: Mass density, kg/m3 (Liquid); method: Vibrating tube method
Temperature, K	Pressure, kPa	Mass density, kg/m3	uncertainty
298.15	101.325	797.6	0.3

System: ethene + 2-methyl-1-propanol; phases: Liquid, Gas
Property: Vapor or sublimation pressure, kPa (Liquid); method: Closed cell (Static) method
Mole fraction of ethene	Temperature, K	Vapor or sublimation pressure, kPa	uncertainty
0.232	283.65	2107	18
0.234	288.15	2252	21
0.275	278.15	2236	17
0.294	288.15	2822	21
0.363	283.65	3106	21
0.377	288.15	3523	24
0.4	278.15	3117	19
0.439	288.15	4028	24
0.47	278.15	3569	22
0.508	283.65	4147	22
0.544	288.15	4703	22
0.584	278.15	4058	24
0.63	283.65	4694	25
0.654	288.15	5211	22
0.668	278.15	4262	24
0.809	283.65	4933	26
0.837	288.15	5453	26
0.841	278.15	4389	25
0.941	278.15	4425	23
0.955	283.65	4980	26
0.962	288.15	5474	28
0.988	278.15	4497	25
0.99	283.65	5047	26

System: ethene + 2-methyl-1-propanol; phases: Liquid, Gas
Property: Mass density, kg/m3 (Liquid); method: Vibrating tube method
Pressure, kPa	Temperature, K	Mass density, kg/m3	uncertainty
2107	283.65	759	0.3
2236	278.15	753.2	0.3
2252	288.15	755.4	0.3
2822	288.15	739.3	0.3
3106	283.65	725.9	0.3
3117	278.15	717.1	0.5
3523	288.15	715.8	0.3
3569	278.15	691.1	0.4
4028	288.15	695	0.6
4058	278.15	639.8	1.9
4147	283.65	674.4	1.1
4262	278.15	604.1	2.3
4389	278.15	495.9	3.3
4425	278.15	402.3	20.3
4497	278.15	340.4	16.3
4694	283.65	617.8	7.3
4703	288.15	656.2	1.4
4933	283.65	512.8	27.4
4980	283.65	361.3	27.2
5047	283.65	303.3	19.7
5211	288.15	602.1	13
5453	288.15	479.3	127.6
5474	288.15	340.7	127.6

System: ethene + 2-methyl-1-propanol; phases: Gas, Liquid
Property: Mass density, kg/m3 (Gas); method: Vibrating tube method
Pressure, kPa	Temperature, K	Mass density, kg/m3	uncertainty
2107	283.65	29.9	0.2
2236	278.15	33.8	0.2
2252	288.15	32.6	0.2
2822	288.15	43.1	0.2
3106	283.65	49.6	0.2
3117	278.15	52.6	0.3
3523	288.15	58.9	0.2
3569	278.15	65.4	0.2
4028	288.15	72.2	0.3
4058	278.15	88	0.4
4147	283.65	81.8	0.4
4262	278.15	96.7	0.4
4389	278.15	105.3	0.4
4425	278.15	108.1	0.9
4497	278.15	114.6	0.9
4694	283.65	108.8	0.6
4703	288.15	99.4	0.3
4933	283.65	130.3	0.4
4980	283.65	137.2	2.3
5047	283.65	151.8	2.5
5211	288.15	131.5	1.1
5453	288.15	173.3	7.8
5474	288.15	183.4	7.8

System: ethene + 2-methyl-1-propanol; phases: Gas, Liquid
Property: Mole fraction of ethene (Gas); method: Chromatography
Mole fraction of ethene	Temperature, K	Mole fraction of ethene	uncertainty
0.232	283.65	0.987	0.002
0.234	288.15	0.996	0.002
0.275	278.15	0.995	0.002
0.294	288.15	0.996	0.002
0.363	283.65	0.991	0.002
0.377	288.15	0.993	0.002
0.4	278.15	0.99	0.002
0.439	288.15	0.989	0.002
0.47	278.15	0.991	0.002
0.508	283.65	0.996	0.002
0.544	288.15	0.994	0.002
0.584	278.15	0.993	0.002
0.63	283.65	0.996	0.002
0.654	288.15	0.995	0.002
0.668	278.15	0.997	0.002
0.809	283.65	0.998	0.002
0.837	288.15	0.996	0.002
0.841	278.15	0.998	0.002
0.941	278.15	0.999	0.001
0.955	283.65	0.999	0.001
0.962	288.15	0.996	0.002
0.988	278.15	0.999	0.001
0.99	283.65	0.998	0.002
