Measured thermophysical data. Molar Excess Volumes and Excess Isentropic Compressibilities of Ternary Mixtures of o-Toluidine
Source: J. Chem. Eng. Data, 2008, 10.1021/je800100m
Compound 1: 2-methylaniline, C7H9N, InChI=1S/C7H9N/c1-6-4-2-3-5-7(6)8/h2-5H,8H2,1H3
Compound 2: toluene, C7H8, InChI=1S/C7H8/c1-7-5-3-2-4-6-7/h2-6H,1H3
Compound 3: 1,2-dimethylbenzene, C8H10, InChI=1S/C8H10/c1-7-5-3-4-6-8(7)2/h3-6H,1-2H3
Compound 4: 1,4-dimethylbenzene, C8H10, InChI=1S/C8H10/c1-7-3-5-8(2)6-4-7/h3-6H,1-2H3

System: 2-methylaniline; phases: Liquid
Property: Mass density, kg/m3 (Liquid); method: Pycnometric method
Temperature, K	Pressure, kPa	Mass density, kg/m3	uncertainty
298.15	101.325	994.28	7.16

System: 2-methylaniline; phases: Liquid
Property: Speed of sound, m/s (Liquid); method: Sing-around technique in a fixed-path interferometer
Pressure, kPa	Temperature, K	Speed of sound, m/s	uncertainty
101.3	308.15	1603	5

System: toluene; phases: Liquid
Property: Mass density, kg/m3 (Liquid); method: Pycnometric method
Temperature, K	Pressure, kPa	Mass density, kg/m3	uncertainty
298.15	101.325	862.21	5.41

System: toluene; phases: Liquid
Property: Speed of sound, m/s (Liquid); method: Sing-around technique in a fixed-path interferometer
Pressure, kPa	Temperature, K	Speed of sound, m/s	uncertainty
101.3	298.15	1304.6	5.4

System: 1,2-dimethylbenzene; phases: Liquid
Property: Mass density, kg/m3 (Liquid); method: Pycnometric method
Temperature, K	Pressure, kPa	Mass density, kg/m3	uncertainty
298.15	101.325	875.99	5.58

System: 1,2-dimethylbenzene; phases: Liquid
Property: Speed of sound, m/s (Liquid); method: Sing-around technique in a fixed-path interferometer
Pressure, kPa	Temperature, K	Speed of sound, m/s	uncertainty
101.3	298.15	1344	5.4

System: 1,4-dimethylbenzene; phases: Liquid
Property: Mass density, kg/m3 (Liquid); method: Pycnometric method
Temperature, K	Pressure, kPa	Mass density, kg/m3	uncertainty
298.15	101.325	856.58	5.34

System: 1,4-dimethylbenzene; phases: Liquid
Property: Speed of sound, m/s (Liquid); method: Sing-around technique in a fixed-path interferometer
Pressure, kPa	Temperature, K	Speed of sound, m/s	uncertainty
101.3	298.15	1310.1	5.4

System: 2-methylaniline + toluene; phases: Liquid
Fixed: Temperature, K = 308.15
Fixed: Pressure, kPa = 101
Property: Speed of sound, m/s (Liquid); method: Sing-around technique in a fixed-path interferometer
Mole fraction of 2-methylaniline	Speed of sound, m/s	uncertainty
0.0457	1270	5
0.0998	1283	5
0.1516	1296	5
0.2017	1308	5
0.2773	1327	5
0.3496	1346	5
0.407	1359	5
0.4797	1381	5
0.5882	1414	5
0.6667	1440	5
0.7464	1470	5
0.8033	1494	5
0.8647	1523	5
0.9223	1554	5

System: 1,2-dimethylbenzene + 2-methylaniline; phases: Liquid
Fixed: Temperature, K = 308.15
Fixed: Pressure, kPa = 101
Property: Speed of sound, m/s (Liquid); method: Sing-around technique in a fixed-path interferometer
Mole fraction of 2-methylaniline	Speed of sound, m/s	uncertainty
0.0799	1325	5
0.1313	1328	5
0.1977	1333	5
0.2507	1338	5
0.3003	1345	5
0.3663	1355	5
0.4456	1370	5
0.508	1385	5
0.5892	1408	5
0.6666	1434	5
0.7287	1459	5
0.7884	1485	5
0.8314	1505	5
0.909	1547	5

System: 2-methylaniline + 1,4-dimethylbenzene; phases: Liquid
Fixed: Temperature, K = 308.15
Fixed: Pressure, kPa = 101
Property: Speed of sound, m/s (Liquid); method: Sing-around technique in a fixed-path interferometer
Mole fraction of 2-methylaniline	Speed of sound, m/s	uncertainty
0.0534	1287	5
0.1009	1295	5
0.1707	1308	5
0.2483	1325	5
0.32	1342	5
0.3949	1361	5
0.4559	1378	5
0.5332	1402	5
0.6007	1423	5
0.6897	1455	5
0.7417	1475	5
0.8009	1500	5
0.8668	1530	5
0.9374	1567	5

System: 1,2-dimethylbenzene + 2-methylaniline + toluene; phases: Liquid
Fixed: Temperature, K = 308.15
Fixed: Pressure, kPa = 101
Property: Speed of sound, m/s (Liquid); method: Sing-around technique in a fixed-path interferometer
Mole fraction of 2-methylaniline	Mole fraction of toluene	Speed of sound, m/s	uncertainty
0.0485	0.7541	1304	5
0.1342	0.6948	1330	5
0.1879	0.6349	1378	5
0.2567	0.5738	1459	6
0.3045	0.5139	1492	6
0.3412	0.4619	1493	5
0.3817	0.3654	1509	5
0.4361	0.2968	1627	6
0.4673	0.3149	1535	6
0.514	0.2583	1631	6
0.6208	0.1861	1711	5
0.6693	0.1521	1750	6
0.7513	0.1131	1708	6
0.8341	0.0681	1677	6

System: 1,2-dimethylbenzene + 2-methylaniline + toluene; phases: Liquid
Fixed: Temperature, K = 308.15
Fixed: Pressure, kPa = 101
Property: Excess molar volume, m3/mol (Liquid); method: Direct dilatometry
Mole fraction of 2-methylaniline	Mole fraction of toluene	Excess molar volume, m3/mol	uncertainty
0.0983	0.7278	3e-08	2e-09
0.1127	0.4341	6e-08	2e-09
0.1885	0.3439	6.8e-08	2e-09
0.2029	0.3989	6.6e-08	2e-09
0.3345	0.3131	6.7e-08	2e-09
0.4018	0.4461	5.3e-08	2e-09
0.4254	0.3597	4.3e-08	2e-09
0.4281	0.2241	5.4e-08	2e-09
0.5024	0.2567	4.9e-08	2e-09
0.6001	0.1021	3.5e-08	2e-09
0.6587	0.1094	3.5e-08	2e-09
0.7014	0.0897	3.4e-08	2e-09
0.7518	0.1464	1.3e-08	2e-09

System: 2-methylaniline + 1,4-dimethylbenzene + toluene; phases: Liquid
Fixed: Temperature, K = 308.15
Fixed: Pressure, kPa = 101
Property: Speed of sound, m/s (Liquid); method: Sing-around technique in a fixed-path interferometer
Mole fraction of 2-methylaniline	Mole fraction of toluene	Speed of sound, m/s	uncertainty
0.1512	0.2576	1367	5
0.2267	0.6112	1127	5
0.2518	0.4216	1115	5
0.3026	0.4348	1054	5
0.3275	0.5216	1137	5
0.348	0.35	1132	5
0.3618	0.5814	1318	6
0.4326	0.3047	1155	5
0.5164	0.2596	1204	5
0.571	0.313	1241	5
0.6617	0.175	1343	5
0.7023	0.1875	1339	5
0.7713	0.1345	1420	5

System: 2-methylaniline + 1,4-dimethylbenzene + toluene; phases: Liquid
Fixed: Temperature, K = 308.15
Fixed: Pressure, kPa = 101
Property: Excess molar volume, m3/mol (Liquid); method: Direct dilatometry
Mole fraction of 2-methylaniline	Mole fraction of toluene	Excess molar volume, m3/mol	uncertainty
0.0727	0.5295	1.9e-08	2e-09
0.1011	0.4132	2.4e-08	2e-09
0.3112	0.2125	6.4e-08	2e-09
0.3595	0.2284	4.7e-08	2e-09
0.3602	0.1868	7.4e-08	2e-09
0.4012	0.1783	6.9e-08	2e-09
0.4872	0.1265	7.5e-08	2e-09
0.5061	0.1129	7.3e-08	2e-09
0.5234	0.3041	-3.2e-08	2e-09
0.5783	0.2245	-3e-08	2e-09
0.6223	0.2312	-3.6e-08	2e-09
0.7665	0.1234	-3.1e-08	2e-09
