Measured thermophysical data. Vapor Pressures and Sublimation Enthalpies of Cadmium Difluoride and Zinc Difluoride by the Torsion-Effusion Method
Source: J. Chem. Eng. Data, 2008, 10.1021/je800242n
Compound 1: cadmium difluoride, CdF2, InChI=1S/Cd.2FH/h;2*1H/q+2;;/p-2
Compound 2: zinc fluoride, F2Zn, InChI=1S/2FH.Zn/h2*1H;/q;;+2/p-2

System: cadmium difluoride; phases: Crystal, Gas
Property: Vapor or sublimation pressure, kPa (Crystal); method: TOREFF:UFactor:2
Temperature, K	Vapor or sublimation pressure, kPa	uncertainty
962	1.26e-05	1.4e-06
968	1.35e-05	1.8e-06
973	1.58e-05	4.9e-06
977	2e-05	3.7e-06
978	2.51e-05	4.5e-06
983	2.51e-05	4.3e-06
984	2.69e-05	3.7e-06
988	3.39e-05	5.1e-06
992	3.39e-05	6.7e-06
993	3.47e-05	6.6e-06
1000	5.01e-05	9.6e-06
1000	5.01e-05	9.6e-06
1001	4.68e-05	9.5e-06
1002	4.57e-05	9.3e-06
1003	5.75e-05	1.01e-05
1003	5.75e-05	1.01e-05
1004	5.01e-05	9.3e-06
1009	6.76e-05	7.4e-06
1012	7.94e-05	8.7e-06
1013	6.92e-05	1.2e-05
1013	6.76e-05	1.19e-05
1013	7.59e-05	1.27e-05
1014	5.75e-05	1.36e-05
1016	6.76e-05	1.27e-05
1017	5.75e-05	6.5e-06
1017	9.12e-05	9.6e-06
1018	8.51e-05	8.6e-06
1021	0.000102	1.1e-05
1022	8.71e-05	1.61e-05
1022	0.000115	1.8e-05
1025	6.76e-05	1.39e-05
1025	0.000107	1.7e-05
1026	7.94e-05	1.54e-05
1027	9.12e-05	9.3e-06
1027	9.12e-05	9.3e-06
1028	0.000117	1.2e-05
1030	0.000126	1.7e-05
1031	0.000135	1.6e-05
1032	9.12e-05	1.28e-05
1032	0.000102	1.3e-05
1032	0.00012	1.5e-05
1033	9.12e-05	9.2e-06
1033	0.000158	1.6e-05
1036	0.000102	1.5e-05
1038	0.000115	2.1e-05
1038	0.000162	2.4e-05
1040	0.000135	2e-05
1040	0.000186	2.4e-05
1042	0.000162	2.5e-05
1042	0.000182	2.6e-05
1043	0.000135	2.2e-05
1043	0.000138	2.2e-05
1043	0.000186	2.5e-05
1043	0.000229	2.9e-05
1046	0.000138	3.1e-05
1046	0.000158	3.2e-05
1048	0.000158	4.9e-05
1049	0.000229	3.5e-05
1050	0.000182	2.5e-05
1051	0.000214	3.1e-05
1052	0.000251	3.6e-05
1052	0.000295	4e-05
1053	0.000251	3.5e-05
1054	0.000204	4.6e-05
1054	0.000263	5.9e-05
1055	0.000182	4.1e-05
1055	0.000204	4.2e-05
1057	0.000204	5.9e-05
1057	0.000204	5.9e-05
1059	0.000229	3.6e-05
1060	0.000275	4.3e-05
1061	0.000309	4.7e-05
1062	0.000389	4.9e-05
1064	0.000275	7.6e-05
1064	0.000339	7.9e-05
1064	0.000275	7.6e-05
1066	0.000275	3e-05
1068	0.000295	3e-05
1068	0.000316	3.2e-05
1068	0.000275	2.8e-05
1069	0.000407	0.000108
1069	0.000389	0.000107
1070	0.000355	5.5e-05
1071	0.000339	4.6e-05
1073	0.000398	6e-05
1074	0.000525	0.000117
1075	0.000389	7e-05
1075	0.000479	7.6e-05
1077	0.000363	5.6e-05
1078	0.000407	6.6e-05
1079	0.000407	4.1e-05
1079	0.000339	3.4e-05
1079	0.000457	4.6e-05
1079	0.000525	5.3e-05
1080	0.000501	0.000116
1082	0.000457	7.2e-05
1084	0.000537	5.7e-05
1084	0.000676	7.1e-05
1086	0.000676	0.000102
1087	0.000501	7.7e-05
1087	0.000501	7.7e-05
1088	0.00055	8e-05
1089	0.000457	0.000157
1089	0.000589	0.000158
1090	0.00055	0.00015
1091	0.000708	7.3e-05
1091	0.000708	7.3e-05
1093	0.000617	9.3e-05
1095	0.000933	0.000157
1096	0.000631	0.000103
1097	0.000631	6.3e-05
1097	0.000724	7.3e-05
1097	0.000912	9.2e-05
1098	0.000724	0.000146
1098	0.000575	0.000139
1098	0.000741	0.000147
1101	0.000912	0.000134
1102	0.000724	0.000134
1103	0.000933	0.000212
1104	0.000813	0.000169
1105	0.000871	0.000169
1105	0.0012	0.0002
1107	0.000912	0.000128
1107	0.000813	0.000124
1107	0.000813	0.000124
1107	0.000676	0.000119
1107	0.000912	0.000128
1108	0.0012	0.00012
1110	0.00117	0.00022
1111	0.00117	0.00026
1114	0.001	0.00019
1114	0.0011	0.0002
1114	0.00105	0.0002
1115	0.00135	0.00025
1116	0.00151	0.00024
1117	0.00117	0.00015
1117	0.00102	0.00014
1117	0.00115	0.00015
1118	0.0011	0.00014
1118	0.001	0.00013
1118	0.00158	0.00019
1120	0.0017	0.00017
1121	0.00162	0.00018
1123	0.00145	0.00018
1124	0.00115	0.00016
1125	0.00132	0.00014
1125	0.00138	0.00014
1126	0.00129	0.00014
1127	0.00145	0.00015
1127	0.00129	0.00014
1127	0.00145	0.00015
1127	0.00191	0.00019
1129	0.00141	0.00027
1129	0.002	0.00031
1129	0.00195	0.00031
1134	0.00174	0.00024
1135	0.00195	0.00028
1136	0.00178	0.00027
1136	0.00178	0.00027
1136	0.00166	0.00027
1137	0.00245	0.00032
1138	0.00245	0.00033
1139	0.00182	0.00026
1145	0.00224	0.00036
1147	0.00229	0.00033
1149	0.00229	0.0003

System: zinc fluoride; phases: Crystal, Gas
Property: Vapor or sublimation pressure, kPa (Crystal); method: TOREFF:UFactor:2
Temperature, K	Vapor or sublimation pressure, kPa	uncertainty
846	1.2e-05	2.7e-06
852	1.2e-05	1.2e-06
853	1.23e-05	1.3e-06
854	1.78e-05	1.8e-06
859	1.23e-05	2.7e-06
865	2.4e-05	4.7e-06
867	1.82e-05	3.6e-06
867	2.4e-05	3.9e-06
871	2.45e-05	4.7e-06
875	2.45e-05	5.9e-06
876	3.55e-05	7.8e-06
876	4.79e-05	8.1e-06
880	3.63e-05	9.2e-06
880	3.55e-05	9.2e-06
883	4.57e-05	5.8e-06
883	3.63e-05	4.9e-06
885	4.57e-05	9.9e-06
886	3.63e-05	9.2e-06
887	4.57e-05	9e-06
887	6.03e-05	1e-05
887	4.9e-05	9.2e-06
888	4.57e-05	7.9e-06
889	7.24e-05	1.03e-05
891	6.03e-05	1.39e-05
893	6.17e-05	1.07e-05
895	6.76e-05	7e-06
895	4.9e-05	5.4e-06
896	6.76e-05	1.14e-05
896	6.17e-05	1.11e-05
898	6.76e-05	1.36e-05
898	8.32e-05	1.45e-05
898	7.41e-05	1.39e-05
900	6.76e-05	7.3e-06
902	8.51e-05	1.36e-05
902	8.32e-05	1.35e-05
903	9.12e-05	1.54e-05
903	0.000107	1.6e-05
904	7.41e-05	1.43e-05
905	7.41e-05	2.22e-05
906	9.12e-05	1.95e-05
906	0.000107	2.1e-05
909	0.000102	3.4e-05
909	9.77e-05	3.38e-05
910	0.00012	3.3e-05
911	0.000115	2.9e-05
912	9.77e-05	2.31e-05
913	0.000138	2.5e-05
913	0.000123	2.4e-05
914	0.000155	2.7e-05
914	0.00011	2.5e-05
916	0.000158	3.1e-05
916	0.000166	3.2e-05
919	0.000158	2.5e-05
919	0.000135	2.4e-05
920	0.000166	1.9e-05
921	0.000182	3.4e-05
922	0.000135	2e-05
923	0.000204	2.6e-05
923	0.000148	2e-05
924	0.000204	3.9e-05
925	0.000182	3.9e-05
926	0.000229	3.7e-05
928	0.000204	2.1e-05
928	0.000251	2.5e-05
930	0.000251	5.1e-05
930	0.000195	5e-05
932	0.000263	4.1e-05
933	0.000195	7e-05
933	0.000275	7.3e-05
934	0.000295	5.1e-05
934	0.000257	4.8e-05
934	0.000209	4.5e-05
937	0.000316	3.3e-05
938	0.000372	5.1e-05
939	0.000316	5.2e-05
940	0.000339	5.3e-05
941	0.000372	4.7e-05
941	0.000282	3.8e-05
942	0.000282	5.4e-05
942	0.000355	5.7e-05
943	0.000282	3.8e-05
945	0.000407	6.9e-05
946	0.00038	5.7e-05
948	0.000437	0.000106
948	0.000437	0.000106
950	0.000479	8.3e-05
950	0.000513	8.5e-05
951	0.000479	7.2e-05
951	0.000389	6.6e-05
952	0.000363	7.4e-05
952	0.000501	8.2e-05
955	0.000575	9.3e-05
956	0.000513	8.9e-05
956	0.000417	8.4e-05
958	0.000575	8.4e-05
959	0.000589	9.2e-05
960	0.000661	6.6e-05
961	0.000661	0.00013
961	0.000525	0.000124
962	0.000692	0.000107
963	0.000525	9e-05
963	0.000692	0.000101
965	0.000589	0.000103
966	0.000794	0.000121
966	0.000692	0.000116
968	0.000759	0.000188
969	0.000851	0.000119
969	0.000912	0.000124
970	0.000871	0.000156
970	0.000708	0.000147
972	0.000912	0.000125
973	0.000955	0.000151
974	0.000741	0.000141
975	0.000912	0.000144
975	0.000813	0.000138
976	0.00107	0.00015
978	0.00105	0.00011
978	0.00123	0.00012
979	0.00115	0.00017
979	0.000933	0.000155
980	0.00115	0.00023
982	0.0012	0.00018
983	0.000977	0.000198
983	0.00132	0.00022
984	0.00105	0.00017
986	0.00145	0.00021
986	0.00126	0.0002
988	0.00148	0.0002
988	0.00158	0.00021
989	0.00148	0.00033
989	0.00138	0.00032
989	0.00126	0.00032
991	0.00158	0.00024
993	0.00132	0.00019
993	0.00135	0.00019
994	0.00178	0.00026
996	0.00191	0.00028
996	0.00195	0.00028
997	0.00166	0.00018
998	0.00182	0.00026
998	0.00214	0.00028
999	0.00195	0.0002
999	0.00166	0.00017
1001	0.00209	0.0003
1003	0.00178	0.00023
1004	0.00174	0.0002
1004	0.00245	0.00026
1005	0.00251	0.00034
1006	0.00245	0.00034
1007	0.00234	0.00024
1008	0.00219	0.0003
1009	0.00219	0.00063
1009	0.00295	0.00063
1010	0.00257	0.00044
1011	0.00269	0.00049
1013	0.00229	0.00036
1013	0.00316	0.00041
1013	0.00234	0.00037
1016	0.00347	0.00047
1017	0.00324	0.00057
1017	0.00295	0.00055
1019	0.00295	0.00059
1020	0.00295	0.00059
1020	0.00295	0.00059
1021	0.00347	0.00041
1021	0.00339	0.00041
1022	0.00398	0.00052
1022	0.00302	0.00045
1023	0.00309	0.00048
1027	0.00407	0.00042
1027	0.0038	0.00039
1031	0.00447	0.0008
1031	0.00457	0.00081
1031	0.00537	0.00089
1035	0.00427	0.00091
1036	0.00525	0.0007
1037	0.0049	0.0008
1039	0.00562	0.00083
1040	0.00692	0.00111
1041	0.00562	0.00083
1046	0.00676	0.00114
1046	0.00575	0.00058
1047	0.00631	0.00078
