Measured thermophysical data. Vapor-Liquid Equilibrium for Tetrahydrothiophene + n-Butane, + trans-2-Butene, + 2-Methylpropane, and + 2-Methylpropene
Source: J. Chem. Eng. Data, 2009, 10.1021/je800896m
Compound 1: butane, C4H10, InChI=1S/C4H10/c1-3-4-2/h3-4H2,1-2H3, purity 99.95%
Compound 2: 2-methylpropane, C4H10, InChI=1S/C4H10/c1-4(2)3/h4H,1-3H3, purity 99.95%
Compound 3: 2-methylpropene, C4H8, InChI=1S/C4H8/c1-4(2)3/h1H2,2-3H3, purity 99.91%
Compound 4: (E)-2-butene, C4H8, InChI=1S/C4H8/c1-3-4-2/h3-4H,1-2H3/b4-3+, purity 99.91%
Compound 5: tetrahydrothiophene, C4H8S, InChI=1S/C4H8S/c1-2-4-5-3-1/h1-4H2

System: butane; phases: Liquid, Gas
Property: Vapor or sublimation pressure, kPa (Liquid); method: Closed cell (Static) method
Temperature, K	Vapor or sublimation pressure, kPa	uncertainty
318.35	437.5	1.6
346.97	881.7	2.8

System: 2-methylpropane; phases: Liquid, Gas
Property: Vapor or sublimation pressure, kPa (Liquid); method: Closed cell (Static) method
Temperature, K	Vapor or sublimation pressure, kPa	uncertainty
318.34	608.3	2.1
346.96	1177.5	3.7

System: 2-methylpropene; phases: Liquid, Gas
Property: Vapor or sublimation pressure, kPa (Liquid); method: Closed cell (Static) method
Temperature, K	Vapor or sublimation pressure, kPa	uncertainty
318.35	542.1	1.9
346.14	1054.9	3.4

System: (E)-2-butene; phases: Liquid, Gas
Property: Vapor or sublimation pressure, kPa (Liquid); method: Closed cell (Static) method
Temperature, K	Vapor or sublimation pressure, kPa	uncertainty
318.34	423.5	1.6
347.06	868.5	2.8

System: tetrahydrothiophene; phases: Liquid, Gas
Property: Vapor or sublimation pressure, kPa (Liquid); method: Closed cell (Static) method
Temperature, K	Vapor or sublimation pressure, kPa	uncertainty
318.34	7.3	0.8
318.35	6.9	0.8
318.35	6.7	0.8
346.14	21.4	0.8
346.97	22.2	0.8
346.97	22.5	0.8
347.07	22.2	0.8

System: butane + tetrahydrothiophene; phases: Liquid, Gas
Property: Vapor or sublimation pressure, kPa (Liquid); method: Closed cell (Static) method
Mole fraction of butane	Temperature, K	Vapor or sublimation pressure, kPa	uncertainty
0	318.35	6.9	0.8
0	346.97	22.2	0.8
0.0145	346.97	50.4	0.8
0.017	318.35	24.6	0.8
0.0333	346.97	85	0.9
0.0335	318.35	40.8	0.8
0.0506	346.97	114.8	0.9
0.0569	318.34	62.3	0.8
0.0926	346.97	180.8	1
0.1064	318.34	102.6	0.9
0.1399	346.97	245.6	1.1
0.1526	318.34	134.8	0.9
0.1873	346.97	302.3	1.3
0.2012	318.34	164.1	1
0.2342	346.97	351.6	1.4
0.2494	318.34	189.3	1
0.283	346.98	397	1.5
0.2986	318.35	211.8	1.1
0.3342	346.97	439.3	1.6
0.3476	318.34	231.6	1.1
0.3854	346.97	477.2	1.7
0.3997	318.35	250.3	1.1
0.4363	346.97	511.8	1.8
0.4496	318.35	266.5	1.2
0.487	346.96	544.6	1.8
0.487	346.96	544.6	1.8
0.487	346.96	544.6	1.8
0.4875	346.97	544.2	1.8
0.4997	318.35	281.9	1.2
0.4999	318.35	281.6	1.2
0.5359	346.97	574	1.9
0.5492	318.35	295.7	1.3
0.5861	346.97	602.9	2
0.5993	318.34	309.1	1.3
0.6362	346.96	631.3	2.1
0.6488	318.34	322.3	1.3
0.6861	346.96	659.6	2.1
0.7005	318.35	336	1.3
0.7366	346.97	689.2	2.2
0.7494	318.35	349.4	1.4
0.7886	346.97	720.9	2.3
0.7983	318.35	363.5	1.4
0.841	346.97	755	2.4
0.8506	318.35	379.7	1.5
0.8929	346.97	791.8	2.5
0.9003	318.35	396.7	1.5
0.9476	318.35	414.6	1.6
0.9759	318.35	426.5	1.6
0.9898	346.97	871.8	2.8
0.9948	318.35	434.9	1.6
1	318.35	437.5	1.6
1	346.97	881.7	2.8

System: 2-methylpropane + tetrahydrothiophene; phases: Liquid, Gas
Property: Vapor or sublimation pressure, kPa (Liquid); method: Closed cell (Static) method
Mole fraction of 2-methylpropane	Temperature, K	Vapor or sublimation pressure, kPa	uncertainty
0	318.34	7.3	0.8
0	346.97	22.5	0.8
0.0115	346.97	52.3	0.8
0.0157	318.35	31.7	0.8
0.032	318.35	55.7	0.8
0.0357	346.97	110.8	0.9
0.0508	346.96	145.7	0.9
0.051	318.35	82	0.9
0.0978	318.35	139.5	0.9
0.0991	346.98	247.4	1.1
0.1417	346.97	325.5	1.3
0.1453	318.34	189.1	1
0.1909	346.97	404.7	1.5
0.1956	318.34	233.6	1.1
0.2399	346.96	473.3	1.7
0.2449	318.34	270.6	1.2
0.2899	346.96	535	1.8
0.2948	318.34	302.8	1.3
0.3409	346.97	590.7	2
0.3458	318.35	331.2	1.3
0.3931	346.97	641.5	2.1
0.396	318.34	355.5	1.4
0.4446	346.97	686.8	2.3
0.4479	318.34	378.1	1.4
0.4944	346.99	730.2	2.4
0.4963	346.97	728.6	2.4
0.498	318.34	397.9	1.5
0.4991	318.35	398.6	1.5
0.5427	346.98	767.1	2.5
0.5475	318.35	416.3	1.5
0.592	346.97	803.3	2.6
0.5975	318.35	433.8	1.6
0.6419	346.97	839.7	2.7
0.647	318.35	450.7	1.6
0.6909	346.96	875.5	2.8
0.6958	318.35	467.5	1.7
0.7414	346.97	914.1	2.9
0.7462	318.35	485.5	1.7
0.7922	346.97	955.2	3.1
0.7967	318.35	504.6	1.8
0.8434	346.97	1000.1	3.2
0.8462	318.35	525.1	1.8
0.8989	346.97	1054.6	3.4
0.8996	318.34	549.8	1.9
0.9524	346.97	1114.8	3.6
0.9565	318.34	580.5	2
0.9693	318.34	588.2	2
0.9693	346.97	1136.5	3.6
0.9895	318.35	601.1	2.1
0.9913	346.99	1166.1	3.7
1	318.34	608.3	2.1
1	346.96	1177.5	3.7

System: tetrahydrothiophene + 2-methylpropene; phases: Liquid, Gas
Property: Vapor or sublimation pressure, kPa (Liquid); method: Closed cell (Static) method
Mole fraction of 2-methylpropene	Temperature, K	Vapor or sublimation pressure, kPa	uncertainty
0	318.35	6.7	0.8
0	346.14	21.4	0.8
0.0142	318.35	20.2	0.8
0.0147	346.15	45.9	0.8
0.0346	318.34	38.8	0.8
0.0356	346.14	79.7	0.8
0.0534	318.34	55.2	0.8
0.0536	346.14	107.8	0.9
0.0985	346.14	174.1	1
0.102	318.34	95.2	0.9
0.1476	346.14	241.3	1.1
0.1494	318.34	130.7	0.9
0.1962	346.14	303.2	1.3
0.1992	318.35	165.1	1
0.2463	346.15	362.4	1.4
0.248	318.35	196	1
0.2961	346.15	417.1	1.5
0.2988	318.35	225.6	1.1
0.3455	346.14	467.5	1.7
0.3488	318.35	252.6	1.2
0.3961	346.14	516.3	1.8
0.3994	318.35	278.3	1.2
0.4474	346.14	563.3	1.9
0.4494	318.34	302.2	1.3
0.4972	346.15	607.1	2
0.498	346.14	607.9	2
0.4981	318.35	326.1	1.3
0.4994	318.35	325.5	1.3
0.5465	346.15	646.9	2.1
0.5469	318.34	344.9	1.4
0.5953	346.14	685.5	2.2
0.5967	318.34	364.1	1.4
0.6444	346.15	724.1	2.4
0.6467	318.34	383.3	1.5
0.6944	346.15	763.5	2.5
0.6957	318.35	402.2	1.5
0.7436	346.14	802.9	2.6
0.7467	318.35	422.2	1.6
0.7936	346.14	844.4	2.7
0.7961	318.35	442.1	1.6
0.8449	346.15	889.7	2.9
0.8465	318.35	463.6	1.7
0.8956	346.15	938.2	3
0.8975	318.34	486.9	1.7
0.9472	346.14	992.1	3.2
0.9487	318.34	512.7	1.8
0.9683	346.14	1015.8	3.2
0.9691	318.35	523.9	1.8
0.9891	346.14	1041.1	3.3
0.9897	318.35	535.6	1.9
1	318.35	542.1	1.9
1	346.14	1054.9	3.4

System: tetrahydrothiophene + (E)-2-butene; phases: Liquid, Gas
Property: Vapor or sublimation pressure, kPa (Liquid); method: Closed cell (Static) method
Mole fraction of (E)-2-butene	Temperature, K	Vapor or sublimation pressure, kPa	uncertainty
0	318.35	6.9	0.8
0	347.07	22.2	0.8
0.0119	347.07	39	0.8
0.0147	318.35	18.2	0.8
0.0323	347.07	67	0.8
0.0337	318.35	32.2	0.8
0.052	347.07	92.8	0.9
0.0535	318.35	46.2	0.8
0.0993	347.07	151.4	0.9
0.1004	318.35	76.9	0.8
0.148	347.07	206.9	1
0.1492	318.34	105.9	0.9
0.1977	347.07	259.1	1.1
0.1979	318.34	132.2	0.9
0.2467	347.07	306.7	1.3
0.2488	318.34	157.4	1
0.2969	347.07	351.7	1.4
0.2986	318.35	180	1
0.3472	347.06	393.6	1.5
0.3489	318.35	201.1	1
0.3974	347.06	432.8	1.6
0.3989	318.35	220.4	1.1
0.4483	347.06	470.2	1.6
0.4493	318.35	238.8	1.1
0.4988	318.34	255.3	1.2
0.4996	347.06	506.6	1.7
0.4996	347.06	506.4	1.7
0.4997	318.35	256.1	1.2
0.5478	347.06	538.8	1.8
0.5482	318.34	271.2	1.2
0.597	347.06	571	1.9
0.5971	318.34	286.3	1.2
0.6459	347.05	602.3	2
0.6466	318.35	301.4	1.3
0.6955	347.05	634.5	2.1
0.6964	318.35	316.5	1.3
0.745	347.05	667.1	2.2
0.7464	318.35	331.8	1.3
0.7952	347.06	701.3	2.3
0.7976	318.34	347.8	1.4
0.8453	347.06	737.3	2.4
0.847	318.34	364.2	1.4
0.8964	347.06	776.5	2.5
0.8973	318.34	381.8	1.5
0.9477	347.06	819.3	2.6
0.9491	318.35	401.7	1.5
0.9682	347.06	838.1	2.7
0.9695	318.35	410.2	1.5
0.9889	347.06	857.6	2.7
0.9899	318.35	418.9	1.6
1	318.34	423.5	1.6
1	347.06	868.5	2.8
