Measured thermophysical data. Liquid-Liquid-Supercritical Fluid Equilibria for Systems Containing Carbon Dioxide, Propane, and Triglycerides
Source: J. Chem. Eng. Data, 2009, 10.1021/je800995r
Compound 1: glyceryl triethanoate, C9H14O6, InChI=1S/C9H14O6/c1-6(10)13-4-9(15-8(3)12)5-14-7(2)11/h9H,4-5H2,1-3H3
Compound 2: hexane, C6H14, InChI=1S/C6H14/c1-3-5-6-4-2/h3-6H2,1-2H3
Compound 3: propane, C3H8, InChI=1S/C3H8/c1-3-2/h3H2,1-2H3
Compound 4: carbon dioxide, CO2, InChI=1S/CO2/c2-1-3

System: glyceryl triethanoate + hexane; phases: Liquid mixture 1, Liquid mixture 2
Property: Mass fraction of hexane (Liquid mixture 1); method: gravimetric
Temperature, K	Pressure, kPa	Mass fraction of hexane	uncertainty
293	101	0.96	0.01

System: glyceryl triethanoate + hexane; phases: Liquid mixture 2, Liquid mixture 1
Property: Mass fraction of hexane (Liquid mixture 2); method: gravimetric
Temperature, K	Pressure, kPa	Mass fraction of hexane	uncertainty
293	101	0.05	0.01

System: propane + glyceryl triethanoate; phases: Liquid mixture 1, Gas, Liquid mixture 2
Property: Vapor or sublimation pressure, kPa (Liquid mixture 1); method: Closed cell (Static) method
Temperature, K	Vapor or sublimation pressure, kPa	uncertainty
308.1	920	100
323.1	910	100
333.1	890	100
342.6	870	100
353.2	780	100

System: propane + glyceryl triethanoate; phases: Liquid mixture 1, Liquid mixture 2, Gas
Property: Mass fraction of glyceryl triethanoate (Liquid mixture 1); method: Chromatography
Temperature, K	Mass fraction of glyceryl triethanoate	uncertainty
308.1	0.92	0.06
323.1	0.91	0.06
333.1	0.89	0.06
342.6	0.87	0.06
353.2	0.78	0.06

System: propane + glyceryl triethanoate; phases: Liquid mixture 2, Liquid mixture 1, Gas
Property: Mass fraction of glyceryl triethanoate (Liquid mixture 2); method: Chromatography
Temperature, K	Mass fraction of glyceryl triethanoate	uncertainty
308.1	0.06	0.03
323.1	0.07	0.03
333.1	0.08	0.03

System: glyceryl triethanoate + carbon dioxide; phases: Liquid, Gas
Property: Boiling temperature at pressure P, K (Liquid); method: variable volume equilibrium cell
Mass fraction of glyceryl triethanoate	Pressure, kPa	Boiling temperature at pressure P, K	uncertainty
0.28	5400	293.5	1.2
0.28	6140	298.1	1.3
0.28	7870	308.1	1.3
0.28	8850	313.1	1.3
0.55	4610	293.1	1.8
0.55	5210	298.1	1.4
0.55	6490	308.1	1.5
0.55	7300	313.1	2.5
0.55	8950	323	1.4
0.65	3970	293.1	3.2
0.65	4950	300.1	2.9
0.65	5710	308.1	3.8
0.65	6410	313.2	2.1
0.65	7670	323	2.4
0.78	3380	298.2	3.1
0.78	4280	308.2	3.1
0.78	4740	313.2	3.8
0.78	5750	323	3.6

System: propane + glyceryl triethanoate + carbon dioxide; phases: Liquid mixture 1, Liquid mixture 2, Gas
Property: Mass fraction of propane (Liquid mixture 1); method: Chromatography
Property: Mass fraction of propane (Gas); method: Chromatography
Property: Mass fraction of carbon dioxide (Liquid mixture 1); method: Chromatography
Property: Mass fraction of carbon dioxide (Gas); method: Chromatography
Property: Mass fraction of propane (Liquid mixture 2); method: Chromatography
Property: Mass fraction of carbon dioxide (Liquid mixture 2); method: Chromatography
Temperature, K	Pressure, kPa	Mass fraction of propane	uncertainty	Mass fraction of propane	uncertainty	Mass fraction of carbon dioxide	uncertainty	Mass fraction of carbon dioxide	uncertainty	Mass fraction of propane	uncertainty	Mass fraction of carbon dioxide	uncertainty
308.1	1150	0.078	0.018	1	0.01	0	0.001	0	0.001	0.94	0.03	0	0.01
308.1	1890	0.096	0.018	0.744	0.03	0.045	0.019	0.256	0.03	0.86	0.03	0.11	0.03
308.1	3270	0.131	0.018	0.393	0.02	0.128	0.02	0.607	0.02	0.6	0.04	0.27	0.03
308.1	4000	0.15	0.019	0.365	0.008	0.209	0.023	0.635	0.008				
308.1	4290	0.185	0.02	0.328	0.012	0.252	0.024	0.672	0.012	0.38	0.04	0.37	0.03
308.1	4630	0.2	0.019	0.294	0.011	0.296	0.023	0.706	0.011	0.35	0.04	0.4	0.03
298.1	2010	0.099	0.018	0.479	0.017	0.078	0.02	0.521	0.017	0.76	0.04	0.17	0.03
298.1	3030	0.138	0.018	0.346	0.011	0.174	0.026	0.654	0.011	0.52	0.04	0.32	0.03
298.1	3230	0.145	0.018	0.368	0.012	0.211	0.026	0.632	0.012				
298.1	4500	0.179	0.018	0.226	0.012	0.44	0.027	0.774	0.012				
