Measured thermophysical data. Densities and Viscosities of Binary Mixtures of Tri-n-butyl Phosphate + Cyclohexane, + n-Heptane at T ) (288.15, 293.15, 298.15, 303.15, and 308.15) K
Source: J. Chem. Eng. Data, 2008, 10.1021/je8003707
Compound 1: cyclohexane, C6H12, InChI=1S/C6H12/c1-2-4-6-5-3-1/h1-6H2
Compound 2: heptane, C7H16, InChI=1S/C7H16/c1-3-5-7-6-4-2/h3-7H2,1-2H3
Compound 3: tributyl phosphate, C12H27O4P, InChI=1S/C12H27O4P/c1-4-7-10-14-17(13,15-11-8-5-2)16-12-9-6-3/h4-12H2,1-3H3

System: cyclohexane; phases: Liquid
Fixed: Pressure, kPa = 101
Property: Viscosity, Pa*s (Liquid); method: Capillary tube (Ostwald; Ubbelohde) method
Temperature, K	Viscosity, Pa*s	uncertainty
288.15	0.001077	1.1e-05
293.15	0.000984	1e-05
298.15	0.000903	1e-05
303.15	0.00083	9e-06
308.15	0.000764	9e-06

System: cyclohexane; phases: Liquid
Fixed: Pressure, kPa = 101
Property: Mass density, kg/m3 (Liquid); method: Pycnometric method
Temperature, K	Mass density, kg/m3	uncertainty
288.15	783.3	0.3
293.15	778.6	0.3
298.15	773.9	0.3
303.15	769.2	0.3
308.15	764.5	0.4

System: heptane; phases: Liquid
Fixed: Pressure, kPa = 101
Property: Viscosity, Pa*s (Liquid); method: Capillary tube (Ostwald; Ubbelohde) method
Temperature, K	Viscosity, Pa*s	uncertainty
288.15	0.000441	7e-06
293.15	0.000417	7e-06
298.15	0.000396	7e-06
303.15	0.000375	7e-06
308.15	0.000356	7e-06

System: heptane; phases: Liquid
Fixed: Pressure, kPa = 101
Property: Mass density, kg/m3 (Liquid); method: Pycnometric method
Temperature, K	Mass density, kg/m3	uncertainty
288.15	688.1	0.3
293.15	683.8	0.3
298.15	679.7	0.3
303.15	675.4	0.3
308.15	671.1	0.3

System: tributyl phosphate; phases: Liquid
Fixed: Pressure, kPa = 101
Property: Viscosity, Pa*s (Liquid); method: Capillary tube (Ostwald; Ubbelohde) method
Temperature, K	Viscosity, Pa*s	uncertainty
288.15	0.004304	3.2e-05
293.15	0.00377	2.8e-05
298.15	0.003341	2.5e-05
303.15	0.002969	2.2e-05
308.15	0.002651	2e-05

System: tributyl phosphate; phases: Liquid
Fixed: Pressure, kPa = 101
Property: Mass density, kg/m3 (Liquid); method: Pycnometric method
Temperature, K	Mass density, kg/m3	uncertainty
288.15	981	0.3
293.15	976.8	0.3
298.15	972.5	0.3
303.15	968.2	0.3
308.15	963.9	0.3

System: cyclohexane + tributyl phosphate; phases: Liquid
Fixed: Pressure, kPa = 101
Property: Viscosity, Pa*s (Liquid); method: Capillary tube (Ostwald; Ubbelohde) method
Temperature, K	Mole fraction of tributyl phosphate	Viscosity, Pa*s	uncertainty
288.15	0	0.001077	1.1e-05
288.15	0.1002	0.001286	1.3e-05
288.15	0.2037	0.001562	1.5e-05
288.15	0.3001	0.001851	1.7e-05
288.15	0.4106	0.002224	1.9e-05
288.15	0.4982	0.002535	2e-05
288.15	0.5928	0.002857	2.3e-05
288.15	0.7056	0.003253	2.5e-05
288.15	0.7898	0.003555	2.7e-05
288.15	0.9063	0.003962	3e-05
288.15	1	0.004304	3.2e-05
293.15	0	0.000984	1e-05
293.15	0.1002	0.001172	1.2e-05
293.15	0.2037	0.001424	1.4e-05
293.15	0.3001	0.001676	1.5e-05
293.15	0.4106	0.001998	1.7e-05
293.15	0.4982	0.002266	1.9e-05
293.15	0.5928	0.002542	2e-05
293.15	0.7056	0.002873	2.3e-05
293.15	0.7898	0.00314	2.4e-05
293.15	0.9063	0.0035	2.7e-05
293.15	1	0.00377	2.8e-05
298.15	0	0.000903	1e-05
298.15	0.1002	0.001072	1.1e-05
298.15	0.2037	0.001298	1.3e-05
298.15	0.3001	0.00152	1.4e-05
298.15	0.4106	0.001808	1.5e-05
298.15	0.4982	0.002034	1.7e-05
298.15	0.5928	0.002274	1.8e-05
298.15	0.7056	0.002566	2e-05
298.15	0.7898	0.002795	2.1e-05
298.15	0.9063	0.003098	2.4e-05
298.15	1	0.003341	2.5e-05
303.15	0	0.00083	9e-06
303.15	0.1002	0.000989	1.1e-05
303.15	0.2037	0.001183	1.2e-05
303.15	0.3001	0.001389	1.3e-05
303.15	0.4106	0.001641	1.4e-05
303.15	0.4982	0.00184	1.5e-05
303.15	0.5928	0.002044	1.6e-05
303.15	0.7056	0.002302	1.8e-05
303.15	0.7898	0.002496	1.9e-05
303.15	0.9063	0.002755	2.1e-05
303.15	1	0.002969	2.2e-05
308.15	0	0.000764	9e-06
308.15	0.1002	0.000904	1e-05
308.15	0.2037	0.001085	1.1e-05
308.15	0.3001	0.001275	1.2e-05
308.15	0.4106	0.001496	1.3e-05
308.15	0.4982	0.001666	1.4e-05
308.15	0.5928	0.001848	1.5e-05
308.15	0.7056	0.002069	1.6e-05
308.15	0.7898	0.00224	1.7e-05
308.15	0.9063	0.002462	1.9e-05
308.15	1	0.002651	2e-05

System: cyclohexane + tributyl phosphate; phases: Liquid
Fixed: Pressure, kPa = 101
Property: Mass density, kg/m3 (Liquid); method: Pycnometric method
Temperature, K	Mole fraction of tributyl phosphate	Mass density, kg/m3	uncertainty
288.15	0	783.3	0.3
288.15	0.1002	823.6	0.4
288.15	0.2037	857.3	0.3
288.15	0.3001	882.3	0.3
288.15	0.4106	905.7	0.3
288.15	0.4982	922	0.3
288.15	0.5928	936.5	0.3
288.15	0.7056	951.1	0.3
288.15	0.7898	960.8	0.3
288.15	0.9063	972.8	0.3
288.15	1	981	0.3
293.15	0	778.6	0.3
293.15	0.1002	819.1	0.3
293.15	0.2037	852.7	0.3
293.15	0.3001	877.9	0.3
293.15	0.4106	901.2	0.3
293.15	0.4982	917.6	0.3
293.15	0.5928	932.2	0.3
293.15	0.7056	946.7	0.3
293.15	0.7898	956.3	0.3
293.15	0.9063	968.6	0.3
293.15	1	976.8	0.3
298.15	0	773.9	0.3
298.15	0.1002	814.4	0.3
298.15	0.2037	848.2	0.3
298.15	0.3001	873.4	0.3
298.15	0.4106	896.9	0.3
298.15	0.4982	913.3	0.3
298.15	0.5928	927.8	0.3
298.15	0.7056	942.4	0.3
298.15	0.7898	952	0.3
298.15	0.9063	964.3	0.3
298.15	1	972.5	0.3
303.15	0	769.2	0.3
303.15	0.1002	809.8	0.4
303.15	0.2037	843.6	0.4
303.15	0.3001	868.9	0.3
303.15	0.4106	892.5	0.3
303.15	0.4982	908.7	0.3
303.15	0.5928	923.4	0.3
303.15	0.7056	938.1	0.3
303.15	0.7898	947.7	0.3
303.15	0.9063	959.9	0.3
303.15	1	968.2	0.3
308.15	0	764.5	0.4
308.15	0.1002	805.2	0.4
308.15	0.2037	839.1	0.4
308.15	0.3001	864.6	0.4
308.15	0.4106	888	0.3
308.15	0.4982	904.5	0.3
308.15	0.5928	919.1	0.3
308.15	0.7056	934	0.3
308.15	0.7898	943.5	0.3
308.15	0.9063	955.8	0.3
308.15	1	963.9	0.3

System: tributyl phosphate + heptane; phases: Liquid
Fixed: Pressure, kPa = 101
Property: Viscosity, Pa*s (Liquid); method: Capillary tube (Ostwald; Ubbelohde) method
Temperature, K	Mole fraction of tributyl phosphate	Viscosity, Pa*s	uncertainty
288.15	0	0.000441	7e-06
288.15	0.1028	0.000584	8e-06
288.15	0.1954	0.000753	8e-06
288.15	0.2961	0.000984	1e-05
288.15	0.3975	0.001267	1.1e-05
288.15	0.4951	0.00159	1.3e-05
288.15	0.6079	0.002024	1.6e-05
288.15	0.7045	0.002466	1.9e-05
288.15	0.796	0.002953	2.2e-05
288.15	0.8995	0.003618	2.7e-05
288.15	1	0.004304	3.2e-05
293.15	0	0.000417	7e-06
293.15	0.1028	0.000549	7e-06
293.15	0.1954	0.000704	8e-06
293.15	0.2961	0.000913	9e-06
293.15	0.3975	0.001164	1e-05
293.15	0.4951	0.001444	1.2e-05
293.15	0.6079	0.001829	1.4e-05
293.15	0.7045	0.002211	1.7e-05
293.15	0.796	0.002631	1.9e-05
293.15	0.8995	0.003189	2.4e-05
293.15	1	0.00377	2.8e-05
298.15	0	0.000396	7e-06
298.15	0.1028	0.00052	7e-06
298.15	0.1954	0.000659	8e-06
298.15	0.2961	0.000847	9e-06
298.15	0.3975	0.001072	1e-05
298.15	0.4951	0.001321	1.1e-05
298.15	0.6079	0.001658	1.3e-05
298.15	0.7045	0.001999	1.5e-05
298.15	0.796	0.002355	1.7e-05
298.15	0.8995	0.002833	2.1e-05
298.15	1	0.003341	2.5e-05
303.15	0	0.000375	7e-06
303.15	0.1028	0.000489	7e-06
303.15	0.1954	0.000619	8e-06
303.15	0.2961	0.000789	8e-06
303.15	0.3975	0.000993	9e-06
303.15	0.4951	0.001214	1e-05
303.15	0.6079	0.001512	1.2e-05
303.15	0.7045	0.001808	1.4e-05
303.15	0.796	0.002119	1.6e-05
303.15	0.8995	0.002535	1.8e-05
303.15	1	0.002969	2.2e-05
308.15	0	0.000356	7e-06
308.15	0.1028	0.000461	7e-06
308.15	0.1954	0.000582	8e-06
308.15	0.2961	0.000737	8e-06
308.15	0.3975	0.000922	9e-06
308.15	0.4951	0.001121	1e-05
308.15	0.6079	0.001377	1.1e-05
308.15	0.7045	0.001634	1.3e-05
308.15	0.796	0.001911	1.4e-05
308.15	0.8995	0.002269	1.7e-05
308.15	1	0.002651	2e-05

System: tributyl phosphate + heptane; phases: Liquid
Fixed: Pressure, kPa = 101
Property: Mass density, kg/m3 (Liquid); method: Pycnometric method
Temperature, K	Mole fraction of tributyl phosphate	Mass density, kg/m3	uncertainty
288.15	0	688.1	0.3
288.15	0.1028	739.5	0.3
288.15	0.1954	779.5	0.3
288.15	0.2961	817	0.3
288.15	0.3975	849.9	0.3
288.15	0.4951	877.6	0.3
288.15	0.6079	905.7	0.3
288.15	0.7045	927.2	0.3
288.15	0.796	945.5	0.3
288.15	0.8995	964.3	0.3
288.15	1	981	0.3
293.15	0	683.8	0.3
293.15	0.1028	735.2	0.3
293.15	0.1954	775	0.3
293.15	0.2961	812.5	0.3
293.15	0.3975	845.4	0.3
293.15	0.4951	873.2	0.3
293.15	0.6079	901.4	0.3
293.15	0.7045	922.9	0.3
293.15	0.796	941.1	0.3
293.15	0.8995	959.9	0.3
293.15	1	976.8	0.3
298.15	0	679.7	0.3
298.15	0.1028	731.2	0.3
298.15	0.1954	770.7	0.3
298.15	0.2961	808.2	0.3
298.15	0.3975	840.9	0.3
298.15	0.4951	868.7	0.3
298.15	0.6079	897	0.3
298.15	0.7045	918.5	0.3
298.15	0.796	936.7	0.3
298.15	0.8995	955.7	0.3
298.15	1	972.5	0.3
303.15	0	675.4	0.3
303.15	0.1028	726.8	0.3
303.15	0.1954	766.5	0.3
303.15	0.2961	803.8	0.3
303.15	0.3975	836.7	0.3
303.15	0.4951	864.3	0.3
303.15	0.6079	892.7	0.3
303.15	0.7045	914.2	0.3
303.15	0.796	932.5	0.3
303.15	0.8995	951.4	0.3
303.15	1	968.2	0.3
308.15	0	671.1	0.3
308.15	0.1028	722.5	0.3
308.15	0.1954	761.9	0.3
308.15	0.2961	799.5	0.3
308.15	0.3975	832.2	0.3
308.15	0.4951	860.1	0.3
308.15	0.6079	888.5	0.3
308.15	0.7045	910	0.3
308.15	0.796	928.2	0.3
308.15	0.8995	947.3	0.3
308.15	1	963.9	0.3
