Measured thermophysical data. Determination of the Binary and Ternary Phase Diagrams of R(+)-/ S(-)-Ketamine Using Differential Scanning Calorimetry
Source: J. Chem. Eng. Data, 2009, 10.1021/je8002207
Compound 1: (S)-ketamine, C13H16ClNO, InChI=1S/C13H16ClNO/c1-15-13(9-5-4-8-12(13)16)10-6-2-3-7-11(10)14/h2-3,6-7,15H,4-5,8-9H2,1H3/t13-/m0/s1
Compound 2: (R)-ketamine, C13H16ClNO, InChI=1S/C13H16ClNO/c1-15-13(9-5-4-8-12(13)16)10-6-2-3-7-11(10)14/h2-3,6-7,15H,4-5,8-9H2,1H3/t13-/m1/s1
Compound 3: ethanol, C2H6O, InChI=1S/C2H6O/c1-2-3/h3H,2H2,1H3
Compound 4: (.+-.)-2-(2-chlorophenyl)-2-(methylamino)cyclohexanone, C13H16ClNO, InChI=1S/C13H16ClNO/c1-15-13(9-5-4-8-12(13)16)10-6-2-3-7-11(10)14/h2-3,6-7,15H,4-5,8-9H2,1H3

System: (S)-ketamine; phases: Crystal, Liquid, Gas
Property: Molar enthalpy of transition or fusion, kJ/mol (Crystal); method: DSC
Molar enthalpy of transition or fusion, kJ/mol	uncertainty
28.693405086	0.83203743

System: (S)-ketamine; phases: Crystal, Liquid, Air at 1 atmosphere
Property: Normal melting temperature, K (Crystal); method: DTA
Normal melting temperature, K	uncertainty
394.1	0.5

System: (R)-ketamine; phases: Crystal, Liquid, Air at 1 atmosphere
Property: Molar enthalpy of transition or fusion, kJ/mol (Crystal); method: DSC
Molar enthalpy of transition or fusion, kJ/mol	uncertainty
28.693405086	0.83203743

System: (R)-ketamine; phases: Crystal, Liquid, Air at 1 atmosphere
Property: Normal melting temperature, K (Crystal); method: DTA
Normal melting temperature, K	uncertainty
394.1	0.5

System: (S)-ketamine + (R)-ketamine; phases: Crystal, Crystal, Liquid, Air at 1 atmosphere
Property: Eutectic temperature, K (Crystal); method: DTA::
Eutectic temperature, K	uncertainty
366.4	0.5

System: (S)-ketamine + (R)-ketamine; phases: Liquid, Crystal
Fixed: Pressure, kPa = 101
Property: Solid-liquid equilibrium temperature, K (Liquid); method: DSC
Mole fraction of (R)-ketamine	Solid-liquid equilibrium temperature, K	uncertainty
0.5	365.7	2
0.61	378.3	2
0.67	379.7	2
0.72	384.5	2
0.76	384.6	2
0.86	388.4	2
0.9	390.5	2
1	394.1	2

System: ethanol + (.+-.)-2-(2-chlorophenyl)-2-(methylamino)cyclohexanone; phases: Liquid, Crystal
Fixed: Pressure, kPa = 101
Property: Mass fraction of (.+-.)-2-(2-chlorophenyl)-2-(methylamino)cyclohexanone (Liquid); method: DSC
Temperature, K	Mass fraction of (.+-.)-2-(2-chlorophenyl)-2-(methylamino)cyclohexanone	uncertainty
278.1	0.0837	0.0003
283.1	0.0901	0.0003
288.1	0.0983	0.0003
293.1	0.1104	0.0004
298.1	0.1284	0.0004
303.1	0.1543	0.0006
308.1	0.19	0.0007
313.1	0.2377	0.0009
