Measured thermophysical data. Diffusion of Benzonitrile in CO2-Expanded Ethanol
Source: J. Chem. Eng. Data, 2008, 10.1021/je800211x
Compound 1: benzonitrile, C7H5N, InChI=1S/C7H5N/c8-6-7-4-2-1-3-5-7/h1-5H
Compound 2: carbon dioxide, CO2, InChI=1S/CO2/c2-1-3
Compound 3: ethanol, C2H6O, InChI=1S/C2H6O/c1-2-3/h3H,2H2,1H3
Compound 4: benzene, C6H6, InChI=1S/C6H6/c1-2-4-6-5-3-1/h1-6H
Compound 5: toluene, C7H8, InChI=1S/C7H8/c1-7-5-3-2-4-6-7/h2-6H,1H3
Compound 6: naphthalene, C10H8, InChI=1S/C10H8/c1-2-6-10-8-4-3-7-9(10)5-1/h1-8H

System: ethanol + benzonitrile + carbon dioxide; phases: Liquid
Fixed: Mole fraction of benzonitrile = 0
Property: Tracer diffusion coefficient, m2/s of benzonitrile (Liquid); method: chromatographic peak broadening method
Temperature, K	Solvent: Mole fraction of carbon dioxide	Pressure, kPa	Tracer diffusion coefficient, m2/s of benzonitrile	uncertainty
303	0	1490	1.47	0.026
303	0	3670	1.445	0.022
303	0	5540	1.426	0.02
303	0	7520	1.4	0.02
303	0	9660	1.36	0.03
303	0.1	3650	1.472	0.064
303	0.1	5530	1.448	0.066
303	0.1	7500	1.419	0.022
303	0.1	9650	1.392	0.03
303	0.2	3710	1.736	0.066
303	0.2	5540	1.651	0.058
303	0.2	7480	1.609	0.082
303	0.2	9650	1.524	0.052
303	0.3	3670	2.124	0.214
303	0.3	5490	2.053	0.084
303	0.3	7500	1.902	0.072
303	0.3	9600	1.75	0.01
303	0.4	5670	2.515	0.11
303	0.4	7500	2.304	0.094
303	0.4	9640	2.079	0.116
303	0.5	5610	2.82	0.234
303	0.5	7580	2.655	0.162
303	0.5	9680	2.451	0.22
313	0	1580	1.718	0.064
313	0	3540	1.689	0.082
313	0	5510	1.664	0.092
313	0	7680	1.656	0.058
313	0	9710	1.646	0.028
313	0.1	2880	1.782	0.022
313	0.1	5600	1.763	0.028
313	0.1	7480	1.745	0.014
313	0.1	9620	1.709	0.026
313	0.2	3930	2.052	0.012
313	0.2	5550	2.014	0.042
313	0.2	7640	1.959	0.066
313	0.2	9670	1.905	0.034
313	0.3	6030	2.526	0.1
313	0.3	7390	2.35	0.1
313	0.3	9450	2.174	0.096
313	0.4	7550	2.822	0.056
313	0.4	9610	2.498	0.06
313	0.5	7730	3.354	0.2
313	0.5	9790	3.288	0.174
323	0	3540	2.012	0.026
323	0	4470	1.998	0.038
323	0	5970	1.976	0.06
323	0	7550	1.951	0.012
323	0	8500	1.936	0.024
323	0	9690	1.918	0.016
323	0.1	3540	2.293	0.11
323	0.1	4460	2.23	0.112
323	0.1	5970	2.122	0.072
323	0.1	7510	2.052	0.032
323	0.1	8470	2.005	0.076
323	0.1	9650	1.951	0.024
323	0.2	4540	2.3	0.252
323	0.2	6060	2.263	0.098
323	0.2	7510	2.22	0.136
323	0.2	8520	2.194	0.094
323	0.2	9670	2.162	0.058
323	0.3	6080	2.628	0.344
323	0.3	7570	2.591	0.076
323	0.3	8590	2.543	0.06
323	0.3	9700	2.485	0.068
323	0.4	7560	3.207	0.226
323	0.4	8540	3.133	0.076
323	0.4	9720	3.036	0.08
323	0.5	8560	3.725	0.026
323	0.5	9750	3.6	0.078

System: ethanol + benzene; phases: Liquid
Property: Tracer diffusion coefficient, m2/s of benzene (Liquid); method: chromatographic peak broadening method
Temperature, K	Pressure, kPa	Mole fraction of benzene	Tracer diffusion coefficient, m2/s of benzene	uncertainty
313	100	0	2.24	0.04

System: ethanol + toluene; phases: Liquid
Property: Tracer diffusion coefficient, m2/s of toluene (Liquid); method: chromatographic peak broadening method
Temperature, K	Pressure, kPa	Mole fraction of toluene	Tracer diffusion coefficient, m2/s of toluene	uncertainty
313	100	0	2.11	0.02

System: ethanol + naphthalene; phases: Liquid
Property: Tracer diffusion coefficient, m2/s of naphthalene (Liquid); method: chromatographic peak broadening method
Temperature, K	Pressure, kPa	Mole fraction of naphthalene	Tracer diffusion coefficient, m2/s of naphthalene	uncertainty
313	100	0	1.72	0.04

System: ethanol + benzonitrile; phases: Liquid
Fixed: Mole fraction of benzonitrile = 0
Property: Tracer diffusion coefficient, m2/s of benzonitrile (Liquid); method: chromatographic peak broadening method
Pressure, kPa	Temperature, K	Tracer diffusion coefficient, m2/s of benzonitrile	uncertainty
1490	303	1.47	0.026
3670	303	1.445	0.022
5540	303	1.426	0.02
7520	303	1.4	0.02
9660	303	1.36	0.03
1580	313	1.718	0.064
3540	313	1.689	0.082
5510	313	1.664	0.092
7680	313	1.656	0.058
9710	313	1.646	0.028
