Measured thermophysical data. Solubilities of Isonicotinic Acid in (Methanol, Ethanol, 1-Propanol, 2-Propanol, and 1,2-Propanediol, Respectively) from (289.65 to 358.75) K
Source: J. Chem. Eng. Data, 2009, 10.1021/je800824h
Compound 1: 4-pyridinecarboxylic acid, C6H5NO2, InChI=1S/C6H5NO2/c8-6(9)5-1-3-7-4-2-5/h1-4H,(H,8,9)
Compound 2: methanol, CH4O, InChI=1S/CH4O/c1-2/h2H,1H3, purity 99.5%
Compound 3: ethanol, C2H6O, InChI=1S/C2H6O/c1-2-3/h3H,2H2,1H3, purity 99.7%
Compound 4: propan-1-ol, C3H8O, InChI=1S/C3H8O/c1-2-3-4/h4H,2-3H2,1H3, purity 99.5%
Compound 5: propan-2-ol, C3H8O, InChI=1S/C3H8O/c1-3(2)4/h3-4H,1-2H3, purity 99.7%
Compound 6: 1,2-propanediol, C3H8O2, InChI=1S/C3H8O2/c1-3(5)2-4/h3-5H,2H2,1H3, purity 99%

System: 4-pyridinecarboxylic acid + methanol; phases: Liquid, Crystal
Fixed: Pressure, kPa = 101
Property: Mole fraction of 4-pyridinecarboxylic acid (Liquid); method: laser monitoring technique
Temperature, K	Mole fraction of 4-pyridinecarboxylic acid	uncertainty
303.85	0.0007383	1.69e-05
312.05	0.0009721	2.19e-05
317.45	0.001158	2.6e-05
321.55	0.001352	3.1e-05
325.65	0.001555	3.5e-05
329.05	0.001778	4.1e-05
332.95	0.00203	4.6e-05
336.65	0.002318	5.2e-05

System: 4-pyridinecarboxylic acid + ethanol; phases: Liquid, Crystal
Fixed: Pressure, kPa = 101
Property: Mole fraction of 4-pyridinecarboxylic acid (Liquid); method: laser monitoring technique
Temperature, K	Mole fraction of 4-pyridinecarboxylic acid	uncertainty
301.05	0.0006148	1.67e-05
304.75	0.0008146	1.9e-05
312.25	0.001102	2.4e-05
318.15	0.001337	2.9e-05
323.75	0.001613	3.6e-05
327.15	0.001881	4.1e-05
332.25	0.002194	4.8e-05
336.45	0.002527	5.6e-05
340.05	0.002922	6.5e-05
344.75	0.003455	7.5e-05
350.25	0.004054	8.7e-05

System: 4-pyridinecarboxylic acid + propan-1-ol; phases: Liquid, Crystal
Fixed: Pressure, kPa = 101
Property: Mole fraction of 4-pyridinecarboxylic acid (Liquid); method: laser monitoring technique
Temperature, K	Mole fraction of 4-pyridinecarboxylic acid	uncertainty
289.65	0.0005314	1.25e-05
299.05	0.0008213	1.82e-05
306.85	0.00113	2.5e-05
313.25	0.001418	3.1e-05
318.85	0.001734	3.8e-05
322.95	0.002047	4.5e-05
326.95	0.002382	5.2e-05
331.15	0.00279	6e-05
336.15	0.003243	7e-05
340.25	0.003735	8.1e-05
344.65	0.004325	9.5e-05
348.55	0.005113	0.000111
354.85	0.006169	0.000131

System: 4-pyridinecarboxylic acid + propan-2-ol; phases: Liquid, Crystal
Fixed: Pressure, kPa = 101
Property: Mole fraction of 4-pyridinecarboxylic acid (Liquid); method: laser monitoring technique
Temperature, K	Mole fraction of 4-pyridinecarboxylic acid	uncertainty
299.35	0.0005631	2.38e-05
306.75	0.0008286	3.45e-05
313.35	0.001184	4.9e-05
322.45	0.001556	6.3e-05
326.65	0.001894	7.8e-05
330.95	0.002251	9.2e-05
335.35	0.002668	0.000109
340.35	0.003238	0.000133
346.05	0.00397	0.000162
350.05	0.004637	0.000189
354.95	0.005369	0.000219
358.75	0.00609	0.00025

System: 4-pyridinecarboxylic acid + 1,2-propanediol; phases: Liquid, Crystal
Fixed: Pressure, kPa = 101
Property: Mole fraction of 4-pyridinecarboxylic acid (Liquid); method: laser monitoring technique
Temperature, K	Mole fraction of 4-pyridinecarboxylic acid	uncertainty
301.55	0.000692	1.7e-05
309.15	0.00104	2.3e-05
318.35	0.001481	3.1e-05
325.55	0.001807	3.8e-05
330.45	0.002152	4.6e-05
335.35	0.002527	5.4e-05
339.55	0.002914	6.3e-05
343.05	0.003362	7.2e-05
347.25	0.003847	8.2e-05
350.55	0.004255	9.1e-05
353.45	0.004738	0.000103
356.85	0.005374	0.000115
