Measured thermophysical data. Densities and Viscosities of Binary Mixtures of Tris(2-ethylhexyl) Phosphate + Cyclohexane or n-Hexane at T ) (293.15, 298.15, and 303.15) K and p ) 0.1 MPa
Source: J. Chem. Eng. Data, 2008, 10.1021/je8006138
Compound 1: cyclohexane, C6H12, InChI=1S/C6H12/c1-2-4-6-5-3-1/h1-6H2
Compound 2: hexane, C6H14, InChI=1S/C6H14/c1-3-5-6-4-2/h3-6H2,1-2H3
Compound 3: tris(2-ethylhexyl) phosphate, C24H51O4P, InChI=1S/C24H51O4P/c1-7-13-16-22(10-4)19-26-29(25,27-20-23(11-5)17-14-8-2)28-21-24(12-6)18-15-9-3/h22-24H,7-21H2,1-6H3

System: cyclohexane; phases: Liquid
Fixed: Pressure, kPa = 101
Property: Viscosity, Pa*s (Liquid); method: Capillary tube (Ostwald; Ubbelohde) method
Temperature, K	Viscosity, Pa*s	uncertainty
293.15	0.000984	9e-06
298.15	0.000903	8e-06
303.15	0.00083	8e-06

System: cyclohexane; phases: Liquid
Fixed: Pressure, kPa = 101
Property: Mass density, kg/m3 (Liquid); method: Pycnometric method
Temperature, K	Mass density, kg/m3	uncertainty
293.15	778.6	0.3
298.15	773.9	0.3
303.15	769.2	0.3

System: hexane; phases: Liquid
Fixed: Pressure, kPa = 101
Property: Viscosity, Pa*s (Liquid); method: Capillary tube (Ostwald; Ubbelohde) method
Temperature, K	Viscosity, Pa*s	uncertainty
293.15	0.000319	6e-06
298.15	0.000304	6e-06
303.15	0.00029	6e-06

System: hexane; phases: Liquid
Fixed: Pressure, kPa = 101
Property: Mass density, kg/m3 (Liquid); method: Pycnometric method
Temperature, K	Mass density, kg/m3	uncertainty
293.15	659.9	0.2
298.15	655.3	0.2
303.15	650.8	0.2

System: tris(2-ethylhexyl) phosphate; phases: Liquid
Fixed: Pressure, kPa = 101
Property: Viscosity, Pa*s (Liquid); method: Capillary tube (Ostwald; Ubbelohde) method
Temperature, K	Viscosity, Pa*s	uncertainty
293.15	0.014087	9.5e-05
298.15	0.011615	7.9e-05
303.15	0.009708	6.7e-05

System: tris(2-ethylhexyl) phosphate; phases: Liquid
Fixed: Pressure, kPa = 101
Property: Mass density, kg/m3 (Liquid); method: Pycnometric method
Temperature, K	Mass density, kg/m3	uncertainty
293.15	923.8	0.4
298.15	920.1	0.4
303.15	916.4	0.4

System: tris(2-ethylhexyl) phosphate + cyclohexane; phases: Liquid
Fixed: Pressure, kPa = 101
Property: Viscosity, Pa*s (Liquid); method: Capillary tube (Ostwald; Ubbelohde) method
Temperature, K	Mole fraction of tris(2-ethylhexyl) phosphate	Viscosity, Pa*s	uncertainty
293.15	0	0.000984	9e-06
293.15	0.0997	0.001709	1.2e-05
293.15	0.1995	0.00271	1.7e-05
293.15	0.2978	0.003894	2.5e-05
293.15	0.4007	0.005246	3.4e-05
293.15	0.4965	0.006629	4.2e-05
293.15	0.582	0.007908	5e-05
293.15	0.6955	0.00964	6.1e-05
293.15	0.7732	0.010797	6.9e-05
293.15	0.8997	0.012645	8.3e-05
293.15	1	0.014087	9.5e-05
298.15	0	0.000903	8e-06
298.15	0.0997	0.001544	1.1e-05
298.15	0.1995	0.002423	1.6e-05
298.15	0.2978	0.003415	2.2e-05
298.15	0.4007	0.004532	3e-05
298.15	0.4965	0.005665	3.7e-05
298.15	0.582	0.006682	4.3e-05
298.15	0.6955	0.00809	5.2e-05
298.15	0.7732	0.009002	5.9e-05
298.15	0.8997	0.010495	7e-05
298.15	1	0.011615	7.9e-05
303.15	0	0.00083	8e-06
303.15	0.0997	0.001404	1.1e-05
303.15	0.1995	0.002176	1.5e-05
303.15	0.2978	0.003025	2e-05
303.15	0.4007	0.003948	2.6e-05
303.15	0.4965	0.004896	3.2e-05
303.15	0.582	0.005732	3.8e-05
303.15	0.6955	0.006862	4.5e-05
303.15	0.7732	0.007619	5.1e-05
303.15	0.8997	0.008806	6e-05
303.15	1	0.009708	6.7e-05

System: tris(2-ethylhexyl) phosphate + cyclohexane; phases: Liquid
Fixed: Pressure, kPa = 101
Property: Mass density, kg/m3 (Liquid); method: Pycnometric method
Temperature, K	Mole fraction of tris(2-ethylhexyl) phosphate	Mass density, kg/m3	uncertainty
293.15	0	778.6	0.3
293.15	0.0997	823.7	0.3
293.15	0.1995	852.5	0.3
293.15	0.2978	871.1	0.3
293.15	0.4007	885.8	0.3
293.15	0.4965	895.8	0.3
293.15	0.582	902.8	0.3
293.15	0.6955	910.4	0.4
293.15	0.7732	914.6	0.4
293.15	0.8997	920.2	0.4
293.15	1	923.8	0.4
298.15	0	773.9	0.3
298.15	0.0997	819.4	0.3
298.15	0.1995	848.3	0.3
298.15	0.2978	867.1	0.3
298.15	0.4007	881.8	0.3
298.15	0.4965	892	0.3
298.15	0.582	899	0.4
298.15	0.6955	906.6	0.4
298.15	0.7732	910.8	0.4
298.15	0.8997	916.5	0.4
298.15	1	920.1	0.4
303.15	0	769.2	0.3
303.15	0.0997	815.1	0.3
303.15	0.1995	844.2	0.3
303.15	0.2978	863.1	0.3
303.15	0.4007	877.9	0.3
303.15	0.4965	888	0.4
303.15	0.582	895.1	0.4
303.15	0.6955	902.8	0.4
303.15	0.7732	907	0.4
303.15	0.8997	912.6	0.4
303.15	1	916.4	0.4

System: tris(2-ethylhexyl) phosphate + hexane; phases: Liquid
Fixed: Pressure, kPa = 101
Property: Viscosity, Pa*s (Liquid); method: Capillary tube (Ostwald; Ubbelohde) method
Temperature, K	Mole fraction of tris(2-ethylhexyl) phosphate	Viscosity, Pa*s	uncertainty
293.15	0	0.000319	6e-06
293.15	0.1027	0.000638	7e-06
293.15	0.1999	0.001103	9e-06
293.15	0.2976	0.001754	1.2e-05
293.15	0.4047	0.002753	1.7e-05
293.15	0.5005	0.003881	2.4e-05
293.15	0.5889	0.0051	3.2e-05
293.15	0.7133	0.00734	4.6e-05
293.15	0.8032	0.009121	5.8e-05
293.15	0.8907	0.011178	7.2e-05
293.15	1	0.014087	9.5e-05
298.15	0	0.000304	6e-06
298.15	0.1027	0.000594	7e-06
298.15	0.1999	0.001019	9e-06
298.15	0.2976	0.001608	1.1e-05
298.15	0.4047	0.002485	1.5e-05
298.15	0.5005	0.003438	2.1e-05
298.15	0.5889	0.004479	2.8e-05
298.15	0.7133	0.006247	4e-05
298.15	0.8032	0.00773	5e-05
298.15	0.8907	0.009353	6.1e-05
298.15	1	0.011615	7.9e-05
303.15	0	0.00029	6e-06
303.15	0.1027	0.00056	7e-06
303.15	0.1999	0.000948	8e-06
303.15	0.2976	0.001475	1e-05
303.15	0.4047	0.002246	1.4e-05
303.15	0.5005	0.003053	1.9e-05
303.15	0.5889	0.003923	2.5e-05
303.15	0.7133	0.005405	3.5e-05
303.15	0.8032	0.006583	4.3e-05
303.15	0.8907	0.007935	5.3e-05
303.15	1	0.009708	6.7e-05

System: tris(2-ethylhexyl) phosphate + hexane; phases: Liquid
Fixed: Pressure, kPa = 101
Property: Mass density, kg/m3 (Liquid); method: Pycnometric method
Temperature, K	Mole fraction of tris(2-ethylhexyl) phosphate	Mass density, kg/m3	uncertainty
293.15	0	659.9	0.2
293.15	0.1027	739.4	0.3
293.15	0.1999	789.2	0.3
293.15	0.2976	823.2	0.3
293.15	0.4047	851.5	0.3
293.15	0.5005	869.7	0.3
293.15	0.5889	883.6	0.3
293.15	0.7133	898.9	0.3
293.15	0.8032	908.3	0.4
293.15	0.8907	916.3	0.4
293.15	1	923.8	0.4
298.15	0	655.3	0.2
298.15	0.1027	735.2	0.3
298.15	0.1999	785	0.3
298.15	0.2976	819	0.3
298.15	0.4047	847.5	0.3
298.15	0.5005	865.8	0.3
298.15	0.5889	879.6	0.3
298.15	0.7133	895.3	0.3
298.15	0.8032	904.5	0.4
298.15	0.8907	912.6	0.4
298.15	1	920.1	0.4
303.15	0	650.8	0.2
303.15	0.1027	730.9	0.3
303.15	0.1999	780.9	0.3
303.15	0.2976	815	0.3
303.15	0.4047	843.5	0.3
303.15	0.5005	861.9	0.3
303.15	0.5889	875.8	0.3
303.15	0.7133	891.4	0.4
303.15	0.8032	900.8	0.4
303.15	0.8907	908.9	0.4
303.15	1	916.4	0.4
