Measured thermophysical data. Solubility of Carbamazepine (Form III) in Different Solvents from (275 to 343) K
Source: J. Chem. Eng. Data, 2008, 10.1021/je8002157
Compound 1: carbamazepine, C15H12N2O, InChI=1S/C15H12N2O/c16-15(18)17-13-7-3-1-5-11(13)9-10-12-6-2-4-8-14(12)17/h1-10H,(H2,16,18)
Compound 2: methanol, CH4O, InChI=1S/CH4O/c1-2/h2H,1H3
Compound 3: ethanol, C2H6O, InChI=1S/C2H6O/c1-2-3/h3H,2H2,1H3
Compound 4: propan-1-ol, C3H8O, InChI=1S/C3H8O/c1-2-3-4/h4H,2-3H2,1H3
Compound 5: propan-2-ol, C3H8O, InChI=1S/C3H8O/c1-3(2)4/h3-4H,1-2H3
Compound 6: butan-1-ol, C4H10O, InChI=1S/C4H10O/c1-2-3-4-5/h5H,2-4H2,1H3
Compound 7: tetrahydrofuran, C4H8O, InChI=1S/C4H8O/c1-2-4-5-3-1/h1-4H2

System: carbamazepine; phases: Crystal, Liquid, Air at 1 atmosphere
Property: Normal melting temperature, K (Crystal); method: DTA
Normal melting temperature, K	uncertainty
466.15	1

System: methanol + carbamazepine; phases: Liquid, Crystal
Fixed: Pressure, kPa = 101
Property: Mole fraction of carbamazepine (Liquid); method: laser monitoring technique
Temperature, K	Mole fraction of carbamazepine	uncertainty
276.8	0.0064	0.000281
285.05	0.00879	0.000382
290.3	0.0103	0.00045
301.5	0.01414	0.00061
311.4	0.01858	0.00081
320.7	0.02529	0.0011
326.8	0.0299	0.0013

System: ethanol + carbamazepine; phases: Liquid, Crystal
Fixed: Pressure, kPa = 101
Property: Mole fraction of carbamazepine (Liquid); method: laser monitoring technique
Temperature, K	Mole fraction of carbamazepine	uncertainty
278.8	0.00309	0.000312
283.35	0.00382	0.000385
287.7	0.0042	0.000423
292.2	0.0048	0.000484
295.8	0.00539	0.000544
301.1	0.00649	0.000654
305.7	0.00719	0.000724
312.7	0.00826	0.000832
319	0.00987	0.000998
329.75	0.01647	0.00167
338.16	0.02578	0.0026

System: propan-1-ol + carbamazepine; phases: Liquid, Crystal
Fixed: Pressure, kPa = 101
Property: Mole fraction of carbamazepine (Liquid); method: laser monitoring technique
Temperature, K	Mole fraction of carbamazepine	uncertainty
279.9	0.0026	0.00016
292	0.00435	0.000266
301.8	0.00624	0.000382
316	0.01087	0.00067
329.3	0.01907	0.00117
339	0.03156	0.00193

System: propan-2-ol + carbamazepine; phases: Liquid, Crystal
Fixed: Pressure, kPa = 101
Property: Mole fraction of carbamazepine (Liquid); method: laser monitoring technique
Temperature, K	Mole fraction of carbamazepine	uncertainty
285.1	0.00183	0.000186
290.5	0.00265	0.000267
298	0.0036	0.000362
303.6	0.00425	0.000428
311.55	0.00609	0.000613
319.36	0.0081	0.000815
329.33	0.0114	0.00115
337.54	0.01692	0.0017

System: butan-1-ol + carbamazepine; phases: Liquid, Crystal
Fixed: Pressure, kPa = 101
Property: Mole fraction of carbamazepine (Liquid); method: laser monitoring technique
Temperature, K	Mole fraction of carbamazepine	uncertainty
311.45	0.00908	0.00017
317.6	0.01176	0.00021
323.9	0.01494	0.00027
328.8	0.01826	0.00033
343.64	0.02861	0.00048

System: tetrahydrofuran + carbamazepine; phases: Liquid, Crystal
Fixed: Pressure, kPa = 101
Property: Mole fraction of carbamazepine (Liquid); method: laser monitoring technique
Temperature, K	Mole fraction of carbamazepine	uncertainty
278.35	0.01066	0.00065
286.64	0.01253	0.00076
289.55	0.0135	0.00082
295.55	0.01526	0.00092
303.75	0.01763	0.00107
311.45	0.02063	0.00125
326.43	0.02689	0.00163
330.46	0.03063	0.00186
