Measured thermophysical data. Assessing the Salting-Out Behavior of Nitrobenzene, 2-Nitrotoluene, and 3-Nitrotoluene from Solubility Values in Pure Water and Seawater at Temperatures between (277 and 314) K
Source: J. Chem. Eng. Data, 2009, 10.1021/je800624c
Compound 1: water, H2O, InChI=1S/H2O/h1H2
Compound 2: nitrobenzene, C6H5NO2, InChI=1S/C6H5NO2/c8-7(9)6-4-2-1-3-5-6/h1-5H
Compound 3: 2-nitrotoluene, C7H7NO2, InChI=1S/C7H7NO2/c1-6-4-2-3-5-7(6)8(9)10/h2-5H,1H3
Compound 4: 3-nitrotoluene, C7H7NO2, InChI=1S/C7H7NO2/c1-6-3-2-4-7(5-6)8(9)10/h2-5H,1H3

System: nitrobenzene + water; phases: Liquid, Crystal
Fixed: Pressure, kPa = 101
Property: Mass concentration, kg/m3 (Liquid); method: Chromatography
Temperature, K	Mass concentration, kg/m3	uncertainty
278.3	1.77	0.01
287.2	1.84	0.01
293.8	1.92	0.01
296.7	2.03	0.01
303.6	2.11	0.01
308.7	2.2	0.01
313.7	2.34	0.01

System: 2-nitrotoluene + water; phases: Liquid, Crystal
Fixed: Pressure, kPa = 101
Property: Mass concentration, kg/m3 (Liquid); method: Chromatography
Temperature, K	Mass concentration, kg/m3	uncertainty
277.8	0.487	0.01
287.2	0.551	0.01
294.2	0.575	0.01
297	0.425	0.01
303.8	0.661	0.01
308.5	0.721	0.01
313.4	0.757	0.01

System: 3-nitrotoluene + water; phases: Liquid, Crystal
Fixed: Pressure, kPa = 101
Property: Mass concentration, kg/m3 (Liquid); method: Chromatography
Temperature, K	Mass concentration, kg/m3	uncertainty
278.2	0.43	0.01
288	0.469	0.01
294	0.479	0.01
297	0.506	0.01
304	0.54	0.01
308.6	0.563	0.01
313.8	0.621	0.01
