Measured thermophysical data. Phase Diagrams for the Aqueous Two-Phase Ternary System Containing the Ionic Liquid 1-Butyl-3-methylimidazolium Bromide and Tri-potassium Citrate at T ) (278.15, 298.15, and 318.15) K
Source: J. Chem. Eng. Data, 2009, 10.1021/je8006259
Compound 1: 1-butyl-3-methylimidazolium bromide, C8H15BrN2, InChI=1S/C8H15N2.BrH/c1-3-4-5-10-7-6-9(2)8-10;/h6-8H,3-5H2,1-2H3;1H/q+1;/p-1, purity 98%
Compound 2: potassium citrate, C6H5K3O7, InChI=1S/C6H8O7.3K/c7-3(8)1-6(13,5(11)12)2-4(9)10;;;/h13H,1-2H2,(H,7,8)(H,9,10)(H,11,12);;;/q;3*+1/p-3, purity 99%
Compound 3: water, H2O, InChI=1S/H2O/h1H2

System: potassium citrate + water + 1-butyl-3-methylimidazolium bromide; phases: Liquid mixture 1, Liquid mixture 2
Fixed: Pressure, kPa = 101
Property: Mass fraction of potassium citrate (Liquid mixture 1); method: Index of refraction calibration data
Temperature, K	Mass fraction of 1-butyl-3-methylimidazolium bromide	Mass fraction of potassium citrate	uncertainty
278.15	0.0635	0.4144	0.0086
278.15	0.0776	0.3876	0.0082
278.15	0.0881	0.3708	0.0079
278.15	0.0964	0.3597	0.0076
278.15	0.1046	0.3494	0.0075
278.15	0.1127	0.3389	0.0073
278.15	0.121	0.3296	0.0071
278.15	0.128	0.3214	0.0071
278.15	0.1336	0.315	0.0069
278.15	0.1399	0.309	0.0068
278.15	0.1442	0.3045	0.0067
278.15	0.1497	0.2991	0.0067
278.15	0.1568	0.2922	0.0065
278.15	0.1636	0.2863	0.0065
278.15	0.1708	0.2792	0.0063
278.15	0.1791	0.2726	0.0062
278.15	0.188	0.2648	0.0062
278.15	0.1959	0.258	0.0061
278.15	0.2095	0.2467	0.006
278.15	0.2199	0.2381	0.0059
278.15	0.2294	0.2311	0.0058
278.15	0.2422	0.221	0.0057
278.15	0.2572	0.2104	0.0057
278.15	0.2735	0.1976	0.0058
278.15	0.2879	0.1868	0.0057
278.15	0.2973	0.1798	0.0054
278.15	0.3109	0.171	0.0055
278.15	0.325	0.1605	0.0057
278.15	0.3404	0.1494	0.0058
278.15	0.3578	0.1367	0.0056
278.15	0.3782	0.1237	0.0053
278.15	0.3941	0.1143	0.0055
278.15	0.409	0.1042	0.0051
278.15	0.429	0.0941	0.0049
278.15	0.4388	0.0885	0.0054
278.15	0.4495	0.0822	0.0048
278.15	0.4625	0.0766	0.0044
278.15	0.4765	0.0701	0.0045
278.15	0.491	0.0637	0.0046
278.15	0.5068	0.0565	0.0043
278.15	0.5272	0.049	0.0039
278.15	0.547	0.042	0.004
278.15	0.5756	0.0315	0.0031
278.15	0.6213	0.0222	0.0026
298.15	0.0705	0.418	0.0087
298.15	0.0801	0.4003	0.0085
298.15	0.0863	0.3898	0.0083
298.15	0.0935	0.3792	0.0081
298.15	0.0972	0.3746	0.008
298.15	0.103	0.3648	0.0079
298.15	0.1106	0.3547	0.0076
298.15	0.1161	0.3495	0.0074
298.15	0.1214	0.3431	0.0075
298.15	0.1285	0.3338	0.0074
298.15	0.1344	0.3273	0.0072
298.15	0.1398	0.3218	0.007
298.15	0.1456	0.3159	0.0069
298.15	0.1503	0.3122	0.0068
298.15	0.1569	0.3056	0.0068
298.15	0.1666	0.2968	0.0067
298.15	0.1775	0.2869	0.0066
298.15	0.1869	0.2776	0.0064
298.15	0.198	0.2688	0.0062
298.15	0.2147	0.2556	0.0062
298.15	0.2325	0.2402	0.0062
298.15	0.2505	0.2255	0.006
298.15	0.2712	0.2096	0.0057
298.15	0.2914	0.1961	0.0058
298.15	0.3399	0.1597	0.0059
298.15	0.3715	0.1376	0.0055
298.15	0.4144	0.112	0.0053
298.15	0.4738	0.0784	0.0054
298.15	0.4998	0.0648	0.0052
308.15	0.0758	0.4151	0.0088
308.15	0.085	0.399	0.0085
308.15	0.0953	0.3823	0.0082
308.15	0.1048	0.3693	0.0079
308.15	0.1134	0.3588	0.0077
308.15	0.1212	0.349	0.0075
308.15	0.1302	0.3392	0.0074
308.15	0.1409	0.3275	0.0072
308.15	0.151	0.3176	0.007
308.15	0.1603	0.3091	0.007
308.15	0.1732	0.2949	0.0068
308.15	0.1831	0.2861	0.0065
308.15	0.1955	0.2768	0.0064
308.15	0.2085	0.2655	0.0063
308.15	0.2203	0.2562	0.0062
308.15	0.2336	0.246	0.0062
308.15	0.2404	0.2396	0.0063
308.15	0.2517	0.2306	0.0059
308.15	0.2661	0.2209	0.0059
308.15	0.2759	0.2127	0.0058
308.15	0.2933	0.2011	0.006
308.15	0.3187	0.1809	0.006
308.15	0.342	0.1652	0.0057
308.15	0.3695	0.1463	0.0059
308.15	0.3901	0.1324	0.0058
308.15	0.4129	0.1171	0.0055
308.15	0.46	0.0896	0.0053
308.15	0.4801	0.081	0.0044
318.15	0.067	0.4409	0.0091
318.15	0.0881	0.4034	0.0086
318.15	0.096	0.3918	0.0083
318.15	0.1044	0.3795	0.0081
318.15	0.1145	0.3665	0.0079
318.15	0.1241	0.3543	0.0077
318.15	0.1352	0.3424	0.0074
318.15	0.1429	0.3339	0.0073
318.15	0.1542	0.3223	0.0072
318.15	0.1694	0.3072	0.0069
318.15	0.1787	0.2993	0.0068
318.15	0.1893	0.2891	0.0068
318.15	0.1991	0.2804	0.0065
318.15	0.2108	0.2714	0.0064
318.15	0.2288	0.2567	0.0064
318.15	0.2631	0.2286	0.0062
318.15	0.2858	0.2122	0.0061
318.15	0.3022	0.1987	0.0062
318.15	0.3177	0.1872	0.006
318.15	0.3397	0.1708	0.0058
318.15	0.3551	0.1614	0.0059
318.15	0.3711	0.1491	0.0059
318.15	0.3956	0.1332	0.0057
318.15	0.4165	0.1202	0.0054
318.15	0.4437	0.105	0.0051
318.15	0.5271	0.0617	0.0056

System: potassium citrate + water + 1-butyl-3-methylimidazolium bromide; phases: Liquid mixture 1, Liquid mixture 2
Fixed: Pressure, kPa = 101
Property: Mass fraction of potassium citrate (Liquid mixture 1); method: Index of refraction calibration data
Property: Mass fraction of 1-butyl-3-methylimidazolium bromide (Liquid mixture 2); method: Index of refraction calibration data
Property: Mass fraction of potassium citrate (Liquid mixture 2); method: Index of refraction calibration data
Temperature, K	Mass fraction of 1-butyl-3-methylimidazolium bromide	Mass fraction of potassium citrate	uncertainty	Mass fraction of 1-butyl-3-methylimidazolium bromide	uncertainty	Mass fraction of potassium citrate	uncertainty
278.15	0.5193	0.0501	0.002	0.0903	0.0048	0.369	
278.15	0.5592	0.0346	0.002	0.059	0.0049	0.4217	
278.15	0.6389	0.015	0.002	0.0263	0.0046	0.4904	
278.15	0.6707	0.0106	0.002	0.0184	0.0034	0.5206	
278.15	0.7078	0.0055	0.002	0.0077	0.0034	0.5595	
278.15	0.7115	0.0069	0.002	0.0064	0.0022	0.5726	
278.15	0.7383	0.0037	0.002	0.0037	0.0029	0.6024	
278.15	0.7501	0.0029	0.002	0.0048	0.0022	0.5961	
298.15	0.544	0.0475	0.002	0.0738	0.0045	0.4006	
298.15	0.6243	0.0257	0.002	0.0427	0.0047	0.4631	
298.15	0.6652	0.0165	0.002	0.025	0.0033	0.5078	
298.15	0.733	0.0071	0.002	0.0114	0.0028	0.5795	
298.15	0.7615	0.0042	0.002	0.0049	0.0026	0.6303	
318.15	0.5615	0.0474	0.002	0.0706	0.0038	0.4302	
318.15	0.5623	0.045	0.002	0.0663	0.0034	0.4303	
318.15	0.6209	0.0236	0.002	0.0409	0.004	0.509	
318.15	0.6798	0.0133	0.002	0.0282	0.0035	0.5421	
318.15	0.7237	0.0082	0.002	0.0233	0.0027	0.5759	
318.15	0.7648	0.0046	0.002	0.0142	0.0029	0.6295	
