Measured thermophysical data. Re-Evaluation of the Thermodynamic Activity Quantities in Aqueous Sodium and Potassium Chloride Solutions at 25 degC+
Source: J. Chem. Eng. Data, 2009, 10.1021/je800188a
Compound 1: potassium chloride, ClK, InChI=1S/ClH.K/h1H;/q;+1/p-1
Compound 2: water, H2O, InChI=1S/H2O/h1H2
Compound 3: sodium chloride, ClNa, InChI=1S/ClH.Na/h1H;/q;+1/p-1

System: water + potassium chloride; phases: Liquid
Fixed: Temperature, K = 298.15
Fixed: Pressure, kPa = 101
Property: Mean ionic activity coefficient of potassium chloride (Liquid); method: ?
Molality, mol/kg of potassium chloride	Mean ionic activity coefficient of potassium chloride	uncertainty
0.2	0.719	0.05
0.4	0.669	0.05
0.6	0.641	0.05
0.8	0.623	0.05
1	0.61	0.05
1.2	0.601	0.05
1.4	0.593	0.05
1.6	0.588	0.05
1.8	0.584	0.05
2	0.58	0.05
2.2	0.578	0.05
2.4	0.576	0.05
2.6	0.575	0.05
2.8	0.575	0.05
3	0.575	0.05
3.2	0.576	0.05
3.4	0.576	0.05
3.6	0.578	0.05
3.8	0.58	0.05
4	0.582	0.05
4.2	0.584	0.05
4.4	0.587	0.05
4.6	0.59	0.05
4.8	0.593	0.05
4.803	0.593	0.05

System: water + sodium chloride; phases: Liquid
Fixed: Temperature, K = 298.15
Fixed: Pressure, kPa = 101
Property: Mean ionic activity coefficient of sodium chloride (Liquid); method: ?
Molality, mol/kg of sodium chloride	Mean ionic activity coefficient of sodium chloride	uncertainty
0.2	0.734	0.05
0.4	0.694	0.05
0.6	0.676	0.05
0.8	0.666	0.05
1	0.662	0.05
1.2	0.66	0.05
1.4	0.662	0.05
1.6	0.665	0.05
1.8	0.669	0.05
2	0.675	0.05
2.2	0.682	0.05
2.4	0.69	0.05
2.6	0.699	0.05
2.8	0.709	0.05
3	0.72	0.05
3.2	0.732	0.05
3.4	0.744	0.05
3.6	0.758	0.05
3.8	0.772	0.05
4	0.787	0.05
4.2	0.803	0.05
4.4	0.82	0.05
4.6	0.838	0.05
4.8	0.857	0.05
5	0.877	0.05
5.2	0.898	0.05
5.4	0.92	0.05
5.6	0.943	0.05
5.8	0.968	0.05
6	0.993	0.05
6.144	1.012	0.051
