Measured thermophysical data. Vapor-Liquid Equilibria of Selected Components in Propylene Oxide Production
Source: J. Chem. Eng. Data, 2008, 10.1021/je800122x
Compound 1: 1,2-dichloropropane, C3H6Cl2, InChI=1S/C3H6Cl2/c1-3(5)2-4/h3H,2H2,1H3
Compound 2: 1-chloro-2-propanol, C3H7ClO, InChI=1S/C3H7ClO/c1-3(5)2-4/h3,5H,2H2,1H3, purity 97%
Compound 3: propane, 2,2'-oxybis[2-chloro-, C6H12Cl2O, InChI=1S/C6H12Cl2O/c1-5(2,7)9-6(3,4)8/h1-4H3

System: 1,2-dichloropropane; phases: Liquid
Property: Refractive index (Na D-line) (Liquid); method: Standard Abbe refractometry
Temperature, K	Pressure, kPa	Refractive index (Na D-line)	uncertainty
293.1	101.325	1.4383	0.0007

System: 1-chloro-2-propanol; phases: Liquid
Property: Refractive index (Na D-line) (Liquid); method: Standard Abbe refractometry
Temperature, K	Pressure, kPa	Refractive index (Na D-line)	uncertainty
293.1	101.325	1.4377	0.0007

System: 1-chloro-2-propanol; phases: Liquid, Gas
Property: Vapor or sublimation pressure, kPa (Liquid); method: CCELL:UFactor:96
Temperature, K	Vapor or sublimation pressure, kPa	uncertainty
293.15	1.199	0.988
303.15	2.225	1.075
313.15	3.981	1.336
323.15	6.662	1.735
333.15	10.879	2.362
343.15	17.197	3.302
353.15	26.48	4.683
363.15	39.801	6.665
369.15	50.097	8.196

System: propane, 2,2'-oxybis[2-chloro-; phases: Liquid
Property: Refractive index (Na D-line) (Liquid); method: Standard Abbe refractometry
Temperature, K	Pressure, kPa	Refractive index (Na D-line)	uncertainty
293.1	101.325	1.4473	0.0007

System: propane, 2,2'-oxybis[2-chloro-; phases: Liquid, Gas
Property: Vapor or sublimation pressure, kPa (Liquid); method: CCELL:UFactor:64
Temperature, K	Vapor or sublimation pressure, kPa	uncertainty
303.15	0.24	0.183
313.15	0.564	0.344
323.1	0.867	0.494
333.05	1.28	0.699
343	1.919	0.686
352.9	2.822	0.776
358.15	3.673	0.867
358.45	3.348	0.835
361.15	4.237	0.916
364.15	4.806	0.972
367.15	5.477	1.039

System: 1,2-dichloropropane + propane, 2,2'-oxybis[2-chloro-; phases: Liquid, Gas
Fixed: Pressure, kPa = 10
Property: Boiling temperature at pressure P, K (Liquid); method: CCELL:UFactor:64
Mole fraction of 1,2-dichloropropane	Boiling temperature at pressure P, K	uncertainty
0.0658	363.75	5.95
0.1104	353.65	5.95
0.2203	340.45	5.95
0.3285	331.5	5.95
0.4509	323.95	5.95
0.561	318.7	5.95
0.6503	314.8	5.95
0.7716	311.35	5.95
0.8812	308.15	5.95

System: 1,2-dichloropropane + 1-chloro-2-propanol; phases: Liquid, Gas
Fixed: Pressure, kPa = 10
Property: Boiling temperature at pressure P, K (Liquid); method: CCELL:UFactor:64
Mole fraction of 1,2-dichloropropane	Boiling temperature at pressure P, K	uncertainty
0.0199	330.45	5.95
0.0751	325.1	5.95
0.1376	320.65	5.95
0.2179	316.35	5.95
0.3787	310.35	5.95
0.4817	308.85	5.95
0.6224	306.95	5.95
0.7594	305.15	5.95
0.8192	303.85	5.95
0.9461	303.85	5.95
0.9774	303.9	5.95
