Measured thermophysical data. Activity Coefficient Studies in Ternary Aqueous Solutions at 298.15 K: H2O + r-Cyclodextrin + Potassium Acetate and H2O + 18-Crown-6 + Hydroquinone Systems
Source: J. Chem. Eng. Data, 2009, 10.1021/je800307g
Compound 1: water, H2O, InChI=1S/H2O/h1H2
Compound 2: potassium ethanoate, C2H3KO2, InChI=1S/C2H4O2.K/c1-2(3)4;/h1H3,(H,3,4);/q;+1/p-1
Compound 3: .alpha.-cyclodextrin, C36H60O30, InChI=1S/C36H60O30/c37-1-7-25-13(43)19(49)31(55-7)62-26-8(2-38)57-33(21(51)15(26)45)64-28-10(4-40)59-35(23(53)17(28)47)66-30-12(6-42)60-36(24(54)18(30)48)65-29-11(5-41)58-34(22(52)16(29)46)63-27-9(3-39)56-32(61-25)20(50)14(27)44/h7-54H,1-6H2/t7-,8-,9-,10-,11-,12-,13-,14-,15-,16-,17-,18-,19-,20-,21-,22-,23-,24-,25-,26-,27-,28-,29-,30-,31-,32-,33-,34-,35-,36-/m1/s1
Compound 4: 1,4,7,10,13,16-hexaoxacyclooctadecane, C12H24O6, InChI=1S/C12H24O6/c1-2-14-5-6-16-9-10-18-12-11-17-8-7-15-4-3-13-1/h1-12H2
Compound 5: 1,4-benzenediol, C6H6O2, InChI=1S/C6H6O2/c7-5-1-2-6(8)4-3-5/h1-4,7-8H

System: potassium ethanoate + water; phases: Liquid, Gas
Fixed: Temperature, K = 298.15
Property: Osmotic coefficient (Liquid); method: vapor pressure osmometry
Molality, mol/kg of potassium ethanoate	Osmotic coefficient	uncertainty
0	1	0.002
0.02009	0.9586	0.0025
0.04064	0.9487	0.0027
0.05975	0.9442	0.0028
0.07966	0.9418	0.0029
0.09983	0.9408	0.0029
0.12021	0.9409	0.0029
0.14036	0.9417	0.0029
0.16072	0.9431	0.0028
0.1809	0.9449	0.0028
0.20147	0.9471	0.0027

System: potassium ethanoate + water; phases: Liquid
Fixed: Temperature, K = 298.15
Fixed: Pressure, kPa = 101
Property: Mass density, kg/m3 (Liquid); method: Vibrating tube method
Mole fraction of potassium ethanoate	Mass density, kg/m3	uncertainty
0	997.047	0.069
0.00072	997.993	0.069
0.00146	998.944	0.069
0.00215	999.839	0.068
0.00286	1000.762	0.069
0.00358	1001.693	0.069
0.00431	1002.619	0.07
0.00503	1003.537	0.071
0.00576	1004.47	0.071
0.00648	1005.389	0.072
0.00721	1006.338	0.072

System: potassium ethanoate + water + .alpha.-cyclodextrin; phases: Liquid, Gas
Fixed: Molality, mol/kg of .alpha.-cyclodextrin = 0.1
Fixed: Temperature, K = 298.15
Property: (Relative) activity of water (Liquid); method: Derived from VP osmometry
Amount concentration (molarity), mol/dm3 of potassium ethanoate	(Relative) activity of water	uncertainty
0.01094	0.99784	0.001
0.02047	0.99754	0.001
0.04673	0.9967	0.001
0.06822	0.99601	0.001
0.09256	0.99522	0.001
0.11732	0.99441	0.001
0.1385	0.99371	0.001
0.1633	0.99289	0.001
0.18598	0.99212	0.001
0.20829	0.99137	0.001
0.23317	0.99052	0.001

System: 1,4-benzenediol + water + 1,4,7,10,13,16-hexaoxacyclooctadecane; phases: Liquid, Gas
Fixed: Molality, mol/kg of 1,4,7,10,13,16-hexaoxacyclooctadecane = 0.1
Fixed: Temperature, K = 298.15
Property: (Relative) activity of water (Liquid); method: derived from vp osmometry
Amount concentration (molarity), mol/dm3 of 1,4-benzenediol	(Relative) activity of water	uncertainty
0.01986	0.99764	0.001
0.0399	0.99737	0.001
0.05993	0.9971	0.001
0.07938	0.99685	0.001
0.10009	0.99659	0.001
0.12098	0.99633	0.001
0.14152	0.99607	0.001
0.16202	0.9958	0.001
0.16631	0.99575	0.001
0.20357	0.99525	0.001
