Measured thermophysical data. Excess Enthalpies of Binary and Ternary Mixtures Containing Dibutyl Ether, Cyclohexane, and 1-Butanol at 298.15 K
Source: J. Chem. Eng. Data, 2009, 10.1021/je800751m
Compound 1: dibutyl ether, C8H18O, InChI=1S/C8H18O/c1-3-5-7-9-8-6-4-2/h3-8H2,1-2H3
Compound 2: cyclohexane, C6H12, InChI=1S/C6H12/c1-2-4-6-5-3-1/h1-6H2
Compound 3: butan-1-ol, C4H10O, InChI=1S/C4H10O/c1-2-3-4-5/h5H,2-4H2,1H3

System: cyclohexane + dibutyl ether; phases: Liquid
Fixed: Temperature, K = 298.15
Fixed: Pressure, kPa = 101
Property: Excess molar enthalpy (molar enthalpy of mixing), kJ/mol (Liquid); method: Flow calorimetry
Mole fraction of dibutyl ether	Excess molar enthalpy (molar enthalpy of mixing), kJ/mol	uncertainty
0.0499	0.0752	0.0023
0.0997	0.1341	0.0025
0.1502	0.1804	0.0025
0.2002	0.2145	0.0026
0.2497	0.2385	0.0027
0.2999	0.2554	0.0028
0.35	0.2649	0.0028
0.3996	0.2686	0.0029
0.4497	0.2664	0.0028
0.499	0.2596	0.0028
0.5495	0.2481	0.0027
0.6	0.2326	0.0026
0.6491	0.2139	0.0025
0.6992	0.1911	0.0024
0.7501	0.1641	0.0022
0.799	0.1367	0.0021
0.85	0.1041	0.0019
0.9001	0.0693	0.0017
0.9507	0.0328	0.0015

System: butan-1-ol + dibutyl ether; phases: Liquid
Fixed: Temperature, K = 298.15
Fixed: Pressure, kPa = 101
Property: Excess molar enthalpy (molar enthalpy of mixing), kJ/mol (Liquid); method: Flow calorimetry
Mole fraction of dibutyl ether	Excess molar enthalpy (molar enthalpy of mixing), kJ/mol	uncertainty
0.0501	0.1194	0.0041
0.1002	0.236	0.0045
0.1497	0.3445	0.0048
0.2003	0.4476	0.0053
0.2503	0.5402	0.0057
0.3004	0.6246	0.0062
0.3498	0.6984	0.0066
0.4006	0.7621	0.0069
0.4507	0.814	0.0072
0.4997	0.8532	0.0075
0.5506	0.8798	0.0076
0.5998	0.8924	0.0077
0.6505	0.8906	0.0077
0.7	0.8726	0.0076
0.7509	0.8332	0.0074
0.8	0.7728	0.0072
0.8501	0.6791	0.0071
0.8994	0.5431	0.0075
0.9493	0.3301	0.0076

System: butan-1-ol + cyclohexane; phases: Liquid
Fixed: Temperature, K = 298.15
Fixed: Pressure, kPa = 101
Property: Excess molar enthalpy (molar enthalpy of mixing), kJ/mol (Liquid); method: Flow calorimetry
Mole fraction of cyclohexane	Excess molar enthalpy (molar enthalpy of mixing), kJ/mol	uncertainty
0.0503	0.0683	0.0028
0.0998	0.1448	0.003
0.1502	0.2174	0.0033
0.1998	0.2868	0.0037
0.2502	0.3496	0.004
0.2997	0.4076	0.0043
0.35	0.4616	0.0046
0.4002	0.5105	0.0049
0.4503	0.5525	0.0052
0.5003	0.5873	0.0054
0.5501	0.6134	0.0056
0.5997	0.6295	0.0057
0.6501	0.6346	0.0057
0.7002	0.6267	0.0056
0.7501	0.6047	0.0055
0.7996	0.5671	0.0054
0.85	0.513	0.0052
0.9	0.4385	0.0051
0.9496	0.3344	0.0048

System: butan-1-ol + cyclohexane + dibutyl ether; phases: Liquid
Fixed: Temperature, K = 298.15
Fixed: Pressure, kPa = 101
Property: Excess molar enthalpy (molar enthalpy of mixing), kJ/mol (Liquid); method: Flow calorimetry
Mole fraction of cyclohexane	Solvent: Amount ratio of component to other component of binary solvent of dibutyl ether	Excess molar enthalpy (molar enthalpy of mixing), kJ/mol	uncertainty
0.0995	4.0531	0.0971	0.0021
0.0997	0.6669	0.13	0.0026
0.1001	0.2498	0.1442	0.0029
0.1001	1.4988	0.1128	0.0023
0.1997	4.0531	0.1866	0.0026
0.2003	0.2498	0.2777	0.0035
0.2003	0.6669	0.2501	0.0032
0.2005	1.4988	0.2168	0.0029
0.2998	0.2498	0.3876	0.0041
0.2998	1.4988	0.3035	0.0034
0.2999	4.0531	0.2631	0.003
0.3007	0.6669	0.348	0.0037
0.4001	1.4988	0.3695	0.0037
0.4004	0.2498	0.4751	0.0046
0.4005	4.0531	0.322	0.0034
0.4006	0.6669	0.4229	0.0042
0.4998	1.4988	0.4153	0.004
0.5002	0.2498	0.5361	0.005
0.5002	0.6669	0.4736	0.0045
0.5009	4.0531	0.3637	0.0036
0.5998	1.4988	0.4383	0.0042
0.6002	0.6669	0.4983	0.0046
0.6003	0.2498	0.5653	0.0052
0.6003	4.0531	0.3838	0.0038
0.6996	0.2498	0.5574	0.0051
0.6997	1.4988	0.4338	0.0041
0.6998	0.6669	0.4912	0.0046
0.7002	4.0531	0.38	0.0037
0.7997	0.6669	0.4465	0.0044
0.8	1.4988	0.3959	0.004
0.8002	0.2498	0.5044	0.0049
0.8006	4.0531	0.3426	0.0036
0.8998	4.0531	0.25695	0.00309
0.8999	0.6669	0.3508	0.0038
0.9	0.2498	0.3944	0.0042
0.9002	1.4988	0.309	0.0034
