Measured thermophysical data. Solid-Liquid Phase Equilibria of 1-Decanol and 1-Dodecanol with Fragrance Raw Materials Based on Cyclohexane
Source: J. Chem. Eng. Data, 2009, 10.1021/je800789b
Compound 1: cyclohexanecarboxylic acid, C7H12O2, InChI=1S/C7H12O2/c8-7(9)6-4-2-1-3-5-6/h6H,1-5H2,(H,8,9)
Compound 2: cyclohexylethanoic acid, C8H14O2, InChI=1S/C8H14O2/c9-8(10)6-7-4-2-1-3-5-7/h7H,1-6H2,(H,9,10)
Compound 3: cyclohexyl ethanoate, C8H14O2, InChI=1S/C8H14O2/c1-7(9)10-8-5-3-2-4-6-8/h8H,2-6H2,1H3
Compound 4: cyclohexylethyl acetate, C10H18O2, InChI=1S/C10H18O2/c1-9(11)12-8-7-10-5-3-2-4-6-10/h10H,2-8H2,1H3
Compound 5: 2-cyclohexylethanol, C8H16O, InChI=1S/C8H16O/c9-7-6-8-4-2-1-3-5-8/h8-9H,1-7H2
Compound 6: decan-1-ol, C10H22O, InChI=1S/C10H22O/c1-2-3-4-5-6-7-8-9-10-11/h11H,2-10H2,1H3
Compound 7: dodecan-1-ol, C12H26O, InChI=1S/C12H26O/c1-2-3-4-5-6-7-8-9-10-11-12-13/h13H,2-12H2,1H3

System: cyclohexanecarboxylic acid; phases: Crystal, Liquid, Air at 1 atmosphere
Property: Normal melting temperature, K (Crystal); method: VISOBS:UFactor:8
Normal melting temperature, K	uncertainty
302.9	1.2

System: cyclohexylethanoic acid; phases: Crystal, Liquid, Air at 1 atmosphere
Property: Normal melting temperature, K (Crystal); method: VISOBS::UFactor:8
Normal melting temperature, K	uncertainty
302.9	1.2

System: decan-1-ol; phases: Crystal, Liquid, Air at 1 atmosphere
Property: Normal melting temperature, K (Crystal); method: VISOBS::UFactor:2
Normal melting temperature, K	uncertainty
279.3	0.4

System: dodecan-1-ol; phases: Crystal, Liquid, Air at 1 atmosphere
Property: Normal melting temperature, K (Crystal); method: VISOBS::UFactor:4
Normal melting temperature, K	uncertainty
297.2	0.6

System: cyclohexanecarboxylic acid + decan-1-ol; phases: Crystal, Crystal, Liquid, Air at 1 atmosphere
Property: Eutectic temperature, K (Crystal); method: PHASDIA:
Eutectic temperature, K	uncertainty
269.1	1

System: cyclohexanecarboxylic acid + decan-1-ol; phases: Crystal, Crystal, Liquid, Air at 1 atmosphere
Property: Eutectic composition: mole fraction of decan-1-ol (Crystal); method: PHASDIA:
Eutectic composition: mole fraction of decan-1-ol	uncertainty
0.52	0.005

System: cyclohexanecarboxylic acid + decan-1-ol; phases: Liquid, Crystal
Fixed: Pressure, kPa = 101.3
Property: Solid-liquid equilibrium temperature, K (Liquid); method: VISOBS:UFactor:8
Mole fraction of decan-1-ol	Solid-liquid equilibrium temperature, K	uncertainty
0	302.9	1.2
0.0418	300.3	1.2
0.1063	296	1.2
0.2058	289.6	1.2
0.2559	286.9	1.2
0.3499	280.4	1.2
0.3945	277.5	1.3
0.3956	276.4	1.3
0.4518	273.3	1.2
0.4983	271	1.2
0.5152	269.3	1.2

System: cyclohexanecarboxylic acid + decan-1-ol; phases: Liquid, Crystal
Fixed: Pressure, kPa = 101
Property: Solid-liquid equilibrium temperature, K (Liquid); method: VISOBS:UFactor:2
Mole fraction of decan-1-ol	Solid-liquid equilibrium temperature, K	uncertainty
0.5715	271.1	0.4
0.5901	271.6	0.4
0.6382	273	0.4
0.6853	274.1	0.4
0.7961	276.5	0.4
0.9332	278.8	0.4
1	279.3	0.4

System: decan-1-ol + cyclohexylethanoic acid; phases: Crystal, Crystal, Liquid, Air at 1 atmosphere
Property: Eutectic temperature, K (Crystal); method: PHASDIA:
Eutectic temperature, K	uncertainty
269.7	1

System: decan-1-ol + cyclohexylethanoic acid; phases: Crystal, Crystal, Liquid, Air at 1 atmosphere
Property: Eutectic composition: mole fraction of decan-1-ol (Crystal); method: Derived from phase diagram analysis
Eutectic composition: mole fraction of decan-1-ol	uncertainty
0.592	0.004

System: decan-1-ol + cyclohexylethanoic acid; phases: Liquid, Crystal
Fixed: Pressure, kPa = 101.3
Property: Solid-liquid equilibrium temperature, K (Liquid); method: VISOBS:UFactor:8
Mole fraction of decan-1-ol	Solid-liquid equilibrium temperature, K	uncertainty
0	302.9	1.2
0.0355	300.2	1.2
0.0845	297.8	1.2
0.1487	295	1.2
0.2107	292.7	1.2
0.259	289.2	1.2
0.326	285.7	1.2
0.3785	283	1.2
0.4353	279.1	1.2
0.4735	275.6	1.2
0.4818	276.1	1.2
0.5253	273	1.2
0.5677	271.6	1.2
0.5691	271.3	1.2

System: decan-1-ol + cyclohexylethanoic acid; phases: Liquid, Crystal
Fixed: Pressure, kPa = 101
Property: Solid-liquid equilibrium temperature, K (Liquid); method: VISOBS:UFactor:2
Mole fraction of decan-1-ol	Solid-liquid equilibrium temperature, K	uncertainty
0.6213	271.2	0.4
0.6446	272.1	0.4
0.6675	272.5	0.4
0.6847	273.3	0.4
0.7418	274.4	0.4
0.7924	275.7	0.4
0.8714	277.7	0.4
0.9713	279	0.4
1	279.3	0.4

System: decan-1-ol + cyclohexyl ethanoate; phases: Liquid, Crystal
Fixed: Pressure, kPa = 101.3
Property: Solid-liquid equilibrium temperature, K (Liquid); method: VISOBS:UFactor:2
Mole fraction of decan-1-ol	Solid-liquid equilibrium temperature, K	uncertainty
0.0804	255.7	0.4
0.0958	257.3	0.4
0.1157	258.9	0.4
0.1344	260.5	0.4
0.1551	261.9	0.4
0.1763	263	0.4
0.2006	264.1	0.4
0.2228	265	0.4
0.272	266.8	0.4
0.3384	268.3	0.4
0.381	269.1	0.4
0.4086	269.7	0.4
0.4236	269.9	0.4
0.4657	270.7	0.4
0.4959	271.2	0.4
0.5007	271.3	0.4
0.5401	271.8	0.4
0.551	272.4	0.4
0.5836	272.8	0.4
0.6235	273.4	0.4
0.6638	274.3	0.4
0.7119	275.5	0.4
0.754	276.2	0.4
0.7864	276.8	0.4
0.8642	277.7	0.4
0.8821	278	0.4
0.9204	278.2	0.4
0.9434	278.6	0.4
0.9568	278.8	0.4
1	279.3	0.4

System: decan-1-ol + cyclohexylethyl acetate; phases: Liquid, Crystal
Fixed: Pressure, kPa = 101.3
Property: Solid-liquid equilibrium temperature, K (Liquid); method: VISOBS:UFactor:2
Mole fraction of decan-1-ol	Solid-liquid equilibrium temperature, K	uncertainty
0.083	256.9	0.4
0.1056	259.3	0.4
0.1281	260.9	0.4
0.1511	263	0.4
0.1759	263.6	0.4
0.2025	265	0.4
0.2352	265.8	0.4
0.2685	266.6	0.4
0.3064	268	0.4
0.3401	268.6	0.4
0.3691	269.1	0.4
0.4111	269.9	0.4
0.4476	270.8	0.4
0.4865	271.1	0.4
0.5285	271.8	0.4
0.5744	272.5	0.4
0.6262	273.3	0.4
0.6777	274.4	0.4
0.7487	275.6	0.4
0.812	276.7	0.4
0.8891	278.3	0.4
0.9481	278.9	0.4
1	279.3	0.4

System: decan-1-ol + 2-cyclohexylethanol; phases: Liquid, Liquid
Fixed: Pressure, kPa = 101.3
Property: Liquid-liquid equilibrium temperature, K (Liquid); method: VISOBS:UFactor:4
Mole fraction of decan-1-ol	Liquid-liquid equilibrium temperature, K	uncertainty
0.2188	253.8	0.6
0.2873	258.1	0.6
0.3217	260.6	0.6
0.3559	262.3	0.6
0.4237	264.1	0.6
0.4708	265.5	0.6
0.5187	267.3	0.6
0.564	268.7	0.6
0.615	269.9	0.6
0.674	271.2	0.6
0.7429	272.8	0.6
0.8127	274.5	0.6
0.8805	276.2	0.6
0.944	278.3	0.6
1	279.3	0.6

System: cyclohexanecarboxylic acid + dodecan-1-ol; phases: Crystal, Crystal, Liquid, Air at 1 atmosphere
Property: Eutectic temperature, K (Crystal); method: PHASDIA:
Eutectic temperature, K	uncertainty
280.6	1

System: cyclohexanecarboxylic acid + dodecan-1-ol; phases: Crystal, Crystal, Liquid, Air at 1 atmosphere
Property: Eutectic composition: mole fraction of dodecan-1-ol (Crystal); method: Derived from phase diagram analysis
Eutectic composition: mole fraction of dodecan-1-ol	uncertainty
0.365	0.004

System: cyclohexanecarboxylic acid + dodecan-1-ol; phases: Liquid, Crystal
Fixed: Pressure, kPa = 101.3
Property: Solid-liquid equilibrium temperature, K (Liquid); method: VISOBS:UFactor:6
Mole fraction of dodecan-1-ol	Solid-liquid equilibrium temperature, K	uncertainty
0	302.9	0.9
0.0393	300.5	0.9
0.0646	298.3	0.9
0.108	296.4	0.9
0.1266	293.5	0.9
0.1981	290.4	0.9
0.2267	288.4	0.9
0.2753	285.9	0.9
0.2949	283.8	0.9
0.3148	282.9	0.9
0.3568	281	0.9

System: cyclohexanecarboxylic acid + dodecan-1-ol; phases: Liquid, Crystal
Fixed: Pressure, kPa = 101
Property: Solid-liquid equilibrium temperature, K (Liquid); method: VISOBS:UFactor:4
Mole fraction of dodecan-1-ol	Solid-liquid equilibrium temperature, K	uncertainty
0.4013	282.3	0.6
0.4134	282.7	0.6
0.48	284.5	0.6
0.5543	286.6	0.6
0.5647	286.9	0.6
0.6308	289.2	0.6
0.7016	290.8	0.6
0.7929	292.7	0.6
0.8444	294.1	0.6
0.9103	295.7	0.6
1	297.2	0.6

System: dodecan-1-ol + cyclohexylethanoic acid; phases: Crystal, Crystal, Liquid, Air at 1 atmosphere
Property: Eutectic temperature, K (Crystal); method: PHASDIA:
Eutectic temperature, K	uncertainty
281.9	1

System: dodecan-1-ol + cyclohexylethanoic acid; phases: Crystal, Crystal, Liquid, Air at 1 atmosphere
Property: Eutectic composition: mole fraction of dodecan-1-ol (Crystal); method: Derived from phase diagram analysis
Eutectic composition: mole fraction of dodecan-1-ol	uncertainty
0.41	0.004

System: dodecan-1-ol + cyclohexylethanoic acid; phases: Liquid, Crystal
Fixed: Pressure, kPa = 101.3
Property: Solid-liquid equilibrium temperature, K (Liquid); method: VISOBS:UFactor:4
Mole fraction of dodecan-1-ol	Solid-liquid equilibrium temperature, K	uncertainty
0	302.9	0.6
0.0734	299.1	0.6
0.1177	296.9	0.6
0.1717	294.2	0.6
0.2295	291.3	0.6
0.2863	289.4	0.6
0.2941	288.3	0.6
0.3448	285.6	0.6
0.3605	284.4	0.6
0.3855	283.5	0.6

System: dodecan-1-ol + cyclohexylethanoic acid; phases: Liquid, Crystal
Fixed: Pressure, kPa = 101
Property: Solid-liquid equilibrium temperature, K (Liquid); method: VISOBS:UFactor:4
Mole fraction of dodecan-1-ol	Solid-liquid equilibrium temperature, K	uncertainty
0.4251	282.9	0.6
0.4295	282.8	0.6
0.4823	284.4	0.6
0.4902	284.7	0.6
0.5573	286.8	0.6
0.5811	287.7	0.6
0.6295	289.2	0.6
0.6716	290.5	0.6
0.7558	293	0.6
0.8471	294.8	0.6
0.9235	296.4	0.6
1	297.2	0.6

System: dodecan-1-ol + cyclohexyl ethanoate; phases: Liquid, Crystal
Fixed: Pressure, kPa = 101.3
Property: Solid-liquid equilibrium temperature, K (Liquid); method: VISOBS:UFactor:4
Mole fraction of dodecan-1-ol	Solid-liquid equilibrium temperature, K	uncertainty
0.0542	267.2	0.6
0.074	270.7	0.6
0.1009	273.7	0.6
0.1439	276.7	0.6
0.1777	278	0.6
0.2175	280	0.6
0.2408	281.3	0.6
0.279	282.7	0.6
0.3029	283.4	0.6
0.3116	283.8	0.6
0.3303	284.1	0.6
0.3512	284.6	0.6
0.3853	285.4	0.6
0.3993	285.7	0.6
0.4134	285.8	0.6
0.4301	286.3	0.6
0.4444	286.4	0.6
0.4637	286.8	0.6
0.4785	287.2	0.6
0.496	287.6	0.6
0.5168	288.1	0.6
0.5333	288.5	0.6
0.5537	288.7	0.6
0.58	289.2	0.6
0.6359	290.3	0.6
0.6653	291	0.6
0.7002	291.3	0.6
0.7426	292	0.6
0.7779	292.8	0.6
0.7974	293.2	0.6
0.8344	293.7	0.6
0.8921	294.6	0.6
0.9264	295.5	0.6
0.9463	295.9	0.6
0.9793	296.6	0.6
1	297.2	0.6

System: dodecan-1-ol + cyclohexylethyl acetate; phases: Liquid, Crystal
Fixed: Pressure, kPa = 101.3
Property: Solid-liquid equilibrium temperature, K (Liquid); method: VISOBS:UFactor:4
Mole fraction of dodecan-1-ol	Solid-liquid equilibrium temperature, K	uncertainty
0.0566	268.7	0.6
0.1033	274.7	0.6
0.1487	277.6	0.6
0.2106	280.7	0.6
0.2505	281.5	0.6
0.2637	282	0.6
0.281	282.3	0.6
0.2955	283.3	0.6
0.3146	283.7	0.6
0.3313	284	0.6
0.3504	284.3	0.6
0.3701	284.8	0.6
0.4246	285.7	0.6
0.4565	286.3	0.6
0.4885	287.2	0.6
0.5144	287.5	0.6
0.551	288.3	0.6
0.5836	289	0.6
0.615	289.7	0.6
0.6264	289.9	0.6
0.6542	290.4	0.6
0.67	291.1	0.6
0.6914	291.4	0.6
0.709	292	0.6
0.739	292.5	0.6
0.753	292.7	0.6
0.778	293.1	0.6
0.8104	293.9	0.6
0.8367	294.5	0.6
0.859	294.7	0.6
0.909	295.5	0.6
0.9351	295.7	0.6
0.95	296.1	0.6
0.951	296.2	0.6
1	297.2	0.6

System: dodecan-1-ol + 2-cyclohexylethanol; phases: Liquid, Crystal
Fixed: Pressure, kPa = 101.3
Property: Solid-liquid equilibrium temperature, K (Liquid); method: VISOBS:UFactor:4
Mole fraction of dodecan-1-ol	Solid-liquid equilibrium temperature, K	uncertainty
0.3174	279	0.6
0.3692	281.1	0.6
0.4199	283.2	0.6
0.4726	284.9	0.6
0.5185	286.7	0.6
0.571	288.2	0.6
0.6277	290	0.6
0.6848	291.4	0.6
0.7439	293.2	0.6
0.8254	294.7	0.6
0.9041	296.1	0.6
1	297.2	0.6
