Measured thermophysical data. Liquid-Liquid Equilibria of Nitrobenzene-Inorganic Acid Systems at 298.15 K
Source: J. Chem. Eng. Data, 2009, 10.1021/je800878b
Compound 1: nitrobenzene, C6H5NO2, InChI=1S/C6H5NO2/c8-7(9)6-4-2-1-3-5-6/h1-5H
Compound 2: sulfuric acid, H2O4S, InChI=1S/H2O4S/c1-5(2,3)4/h(H2,1,2,3,4), purity 98%
Compound 3: nitric acid, HNO3, InChI=1S/HNO3/c2-1(3)4/h(H,2,3,4)
Compound 4: water, H2O, InChI=1S/H2O/h1H2

System: nitrobenzene + sulfuric acid + water; phases: Liquid mixture 1, Liquid mixture 2
Fixed: Temperature, K = 298.15
Fixed: Pressure, kPa = 101
Property: Mass fraction of sulfuric acid (Liquid mixture 1); method: Titration method
Property: Mass fraction of water (Liquid mixture 2); method: Titration method
Property: Mass fraction of sulfuric acid (Liquid mixture 2); method: Titration method
Mass fraction of water	Mass fraction of sulfuric acid	uncertainty	Mass fraction of water	uncertainty	Mass fraction of sulfuric acid	uncertainty
0.704	0.295	0.039	0	0.001	0.001	
0.599	0.4	0.038	0	0.001	0.001	
0.489	0.508	0.038	0.001	0.001	0	
0.398	0.598	0.037	0.001	0.001	0.0001	
0.346	0.648	0.038	0	0.001	0.0002	
0.275	0.714	0.038	0	0.001	0.001	
0.222	0.749	0.038	0	0.001	0.003	
0.182	0.749	0.038	0	0.001	0.007	
0.133	0.743	0.038	0	0.001	0.01	
0.08	0.7	0.036	0	0.001	0.039	
0.056	0.651	0.034	0	0.001	0.026	
0.04	0.62	0.033	0	0.001	0.023	
0.002	0.578	0.031	0.001	0.001	0.059	

System: nitrobenzene + nitric acid + water; phases: Liquid mixture 2, Liquid mixture 1
Fixed: Pressure, kPa = 101
Fixed: Temperature, K = 298.15
Property: Mass fraction of nitrobenzene (Liquid mixture 2); method: Titration method
Property: Mass fraction of nitrobenzene (Liquid mixture 1); method: Titration method
Property: Mass fraction of nitric acid (Liquid mixture 1); method: Titration method
Mass fraction of nitric acid	Mass fraction of nitrobenzene	uncertainty	Mass fraction of nitrobenzene	uncertainty	Mass fraction of nitric acid	uncertainty
0.02	0.98	0.02	0.01	0.002	0.365	
0.026	0.973	0.027	0.012	0.001	0.391	
0.027	0.972	0.028	0.012	0.002	0.406	
0.038	0.962	0.038	0.017	0.003	0.447	
0.073	0.926	0.046	0.023	0.005	0.48	
0.12	0.879	0.044	0.035	0.008	0.53	
0.146	0.853	0.043	0.049	0.013	0.564	
0.2	0.8	0.042	0.057	0.057	0.576	
0.261	0.737	0.04	0.094	0.094	0.586	
