Measured thermophysical data. Activity Coefficients at Infinite Dilution of Organic Compounds in Trihexyl(tetradecyl)phosphonium Bis(trifluoromethylsulfonyl)imide Using Inverse Gas Chromatography
Source: J. Chem. Eng. Data, 2009, 10.1021/je800754w
Compound 1: trihexyl(tetradecyl)phosphonium bis[(trifluoromethyl)sulfonyl]imide, C34H68F6NO4PS2, InChI=1S/C32H68P.C2F6NO4S2/c1-5-9-13-17-18-19-20-21-22-23-24-28-32-33(29-25-14-10-6-2,30-26-15-11-7-3)31-27-16-12-8-4;3-1(4,5)14(10,11)9-15(12,13)2(6,7)8/h5-32H2,1-4H3;/q+1;-1
Compound 2: hexane, C6H14, InChI=1S/C6H14/c1-3-5-6-4-2/h3-6H2,1-2H3
Compound 3: 3-methylpentane, C6H14, InChI=1S/C6H14/c1-4-6(3)5-2/h6H,4-5H2,1-3H3
Compound 4: heptane, C7H16, InChI=1S/C7H16/c1-3-5-7-6-4-2/h3-7H2,1-2H3
Compound 5: octane, C8H18, InChI=1S/C8H18/c1-3-5-7-8-6-4-2/h3-8H2,1-2H3
Compound 6: nonane, C9H20, InChI=1S/C9H20/c1-3-5-7-9-8-6-4-2/h3-9H2,1-2H3
Compound 7: decane, C10H22, InChI=1S/C10H22/c1-3-5-7-9-10-8-6-4-2/h3-10H2,1-2H3
Compound 8: undecane, C11H24, InChI=1S/C11H24/c1-3-5-7-9-11-10-8-6-4-2/h3-11H2,1-2H3
Compound 9: methylcyclopentane, C6H12, InChI=1S/C6H12/c1-6-4-2-3-5-6/h6H,2-5H2,1H3
Compound 10: cyclohexane, C6H12, InChI=1S/C6H12/c1-2-4-6-5-3-1/h1-6H2
Compound 11: methylcyclohexane, C7H14, InChI=1S/C7H14/c1-7-5-3-2-4-6-7/h7H,2-6H2,1H3
Compound 12: cycloheptane, C7H14, InChI=1S/C7H14/c1-2-4-6-7-5-3-1/h1-7H2
Compound 13: benzene, C6H6, InChI=1S/C6H6/c1-2-4-6-5-3-1/h1-6H
Compound 14: toluene, C7H8, InChI=1S/C7H8/c1-7-5-3-2-4-6-7/h2-6H,1H3
Compound 15: ethylbenzene, C8H10, InChI=1S/C8H10/c1-2-8-6-4-3-5-7-8/h3-7H,2H2,1H3
Compound 16: hex-1-ene, C6H12, InChI=1S/C6H12/c1-3-5-6-4-2/h3H,1,4-6H2,2H3
Compound 17: 1-hexyne, C6H10, InChI=1S/C6H10/c1-3-5-6-4-2/h1H,4-6H2,2H3
Compound 18: 1-heptyne, C7H12, InChI=1S/C7H12/c1-3-5-7-6-4-2/h1H,4-7H2,2H3
Compound 19: butanone, C4H8O, InChI=1S/C4H8O/c1-3-4(2)5/h3H2,1-2H3
Compound 20: pentan-2-one, C5H10O, InChI=1S/C5H10O/c1-3-4-5(2)6/h3-4H2,1-2H3
Compound 21: 1,4-dioxane, C4H8O2, InChI=1S/C4H8O2/c1-2-6-4-3-5-1/h1-4H2
Compound 22: methanol, CH4O, InChI=1S/CH4O/c1-2/h2H,1H3
Compound 23: ethanol, C2H6O, InChI=1S/C2H6O/c1-2-3/h3H,2H2,1H3
Compound 24: propan-1-ol, C3H8O, InChI=1S/C3H8O/c1-2-3-4/h4H,2-3H2,1H3
Compound 25: propan-2-ol, C3H8O, InChI=1S/C3H8O/c1-3(2)4/h3-4H,1-2H3
Compound 26: 2-methyl-1-propanol, C4H10O, InChI=1S/C4H10O/c1-4(2)3-5/h4-5H,3H2,1-2H3
Compound 27: butan-1-ol, C4H10O, InChI=1S/C4H10O/c1-2-3-4-5/h5H,2-4H2,1H3
Compound 28: diethyl ether, C4H10O, InChI=1S/C4H10O/c1-3-5-4-2/h3-4H2,1-2H3
Compound 29: diisopropyl ether, C6H14O, InChI=1S/C6H14O/c1-5(2)7-6(3)4/h5-6H,1-4H3
Compound 30: trichloromethane, CHCl3, InChI=1S/CHCl3/c2-1(3)4/h1H
Compound 31: dichloromethane, CH2Cl2, InChI=1S/CH2Cl2/c2-1-3/h1H2
Compound 32: tetrachloromethane, CCl4, InChI=1S/CCl4/c2-1(3,4)5
Compound 33: acetonitrile, C2H3N, InChI=1S/C2H3N/c1-2-3/h1H3
Compound 34: nitromethane, CH3NO2, InChI=1S/CH3NO2/c1-2(3)4/h1H3
Compound 35: 1-nitropropane, C3H7NO2, InChI=1S/C3H7NO2/c1-2-3-4(5)6/h2-3H2,1H3
Compound 36: pyridine, C5H5N, InChI=1S/C5H5N/c1-2-4-6-5-3-1/h1-5H
Compound 37: thiophene, C4H4S, InChI=1S/C4H4S/c1-2-4-5-3-1/h1-4H
Compound 38: methanal, CH2O, InChI=1S/CH2O/c1-2/h1H2
Compound 39: propanal, C3H6O, InChI=1S/C3H6O/c1-2-3-4/h3H,2H2,1H3
Compound 40: butanal, C4H8O, InChI=1S/C4H8O/c1-2-3-4-5/h4H,2-3H2,1H3

System: hexane + trihexyl(tetradecyl)phosphonium bis[(trifluoromethyl)sulfonyl]imide; phases: Liquid, Gas
Fixed: Mole fraction of hexane = 0
Property: Activity coefficient of hexane (Liquid); method: Chromatography
Temperature, K	Activity coefficient of hexane	uncertainty
302.45	1.09	0.07
322.35	1.04	0.07
342.45	1.01	0.06

System: 3-methylpentane + trihexyl(tetradecyl)phosphonium bis[(trifluoromethyl)sulfonyl]imide; phases: Liquid, Gas
Fixed: Mole fraction of 3-methylpentane = 0
Property: Activity coefficient of 3-methylpentane (Liquid); method: Chromatography
Temperature, K	Activity coefficient of 3-methylpentane	uncertainty
302.45	1.04	0.07
322.35	0.98	0.06
342.45	0.94	0.06

System: heptane + trihexyl(tetradecyl)phosphonium bis[(trifluoromethyl)sulfonyl]imide; phases: Liquid, Gas
Fixed: Mole fraction of heptane = 0
Property: Activity coefficient of heptane (Liquid); method: Chromatography
Temperature, K	Activity coefficient of heptane	uncertainty
302.45	1.27	0.08
322.35	1.22	0.08
342.45	1.19	0.08

System: octane + trihexyl(tetradecyl)phosphonium bis[(trifluoromethyl)sulfonyl]imide; phases: Liquid, Gas
Fixed: Mole fraction of octane = 0
Property: Activity coefficient of octane (Liquid); method: Chromatography
Temperature, K	Activity coefficient of octane	uncertainty
302.45	1.48	0.1
322.35	1.42	0.09
342.45	1.4	0.1

System: nonane + trihexyl(tetradecyl)phosphonium bis[(trifluoromethyl)sulfonyl]imide; phases: Liquid, Gas
Fixed: Mole fraction of nonane = 0
Property: Activity coefficient of nonane (Liquid); method: Chromatography
Temperature, K	Activity coefficient of nonane	uncertainty
302.45	1.87	0.13
322.35	1.8	0.1
342.45	1.74	0.12

System: decane + trihexyl(tetradecyl)phosphonium bis[(trifluoromethyl)sulfonyl]imide; phases: Liquid, Gas
Fixed: Mole fraction of decane = 0
Property: Activity coefficient of decane (Liquid); method: Chromatography
Temperature, K	Activity coefficient of decane	uncertainty
302.45	1.97	0.13
322.35	1.89	0.13
342.45	1.84	0.12

System: undecane + trihexyl(tetradecyl)phosphonium bis[(trifluoromethyl)sulfonyl]imide; phases: Liquid, Gas
Fixed: Mole fraction of undecane = 0
Property: Activity coefficient of undecane (Liquid); method: Chromatography
Temperature, K	Activity coefficient of undecane	uncertainty
302.45	2.32	0.16
322.35	2.18	0.15
342.45	2.1	0.2

System: methylcyclopentane + trihexyl(tetradecyl)phosphonium bis[(trifluoromethyl)sulfonyl]imide; phases: Liquid, Gas
Fixed: Mole fraction of methylcyclopentane = 0
Property: Activity coefficient of methylcyclopentane (Liquid); method: Chromatography
Temperature, K	Activity coefficient of methylcyclopentane	uncertainty
302.45	0.85	0.05
322.35	0.8	0.1
342.45	0.77	0.05

System: cyclohexane + trihexyl(tetradecyl)phosphonium bis[(trifluoromethyl)sulfonyl]imide; phases: Liquid, Gas
Fixed: Mole fraction of cyclohexane = 0
Property: Activity coefficient of cyclohexane (Liquid); method: Chromatography
Temperature, K	Activity coefficient of cyclohexane	uncertainty
302.45	0.83	0.05
322.35	0.78	0.05
342.45	0.75	0.05

System: methylcyclohexane + trihexyl(tetradecyl)phosphonium bis[(trifluoromethyl)sulfonyl]imide; phases: Liquid, Gas
Fixed: Mole fraction of methylcyclohexane = 0
Property: Activity coefficient of methylcyclohexane (Liquid); method: Chromatography
Temperature, K	Activity coefficient of methylcyclohexane	uncertainty
302.45	0.92	0.06
322.35	0.89	0.06
342.45	0.86	0.06

System: cycloheptane + trihexyl(tetradecyl)phosphonium bis[(trifluoromethyl)sulfonyl]imide; phases: Liquid, Gas
Fixed: Mole fraction of cycloheptane = 0
Property: Activity coefficient of cycloheptane (Liquid); method: Chromatography
Temperature, K	Activity coefficient of cycloheptane	uncertainty
302.45	0.83	0.05
322.35	1.81	0.12
342.45	3.59	0.24

System: benzene + trihexyl(tetradecyl)phosphonium bis[(trifluoromethyl)sulfonyl]imide; phases: Liquid, Gas
Fixed: Mole fraction of benzene = 0
Property: Activity coefficient of benzene (Liquid); method: Chromatography
Temperature, K	Activity coefficient of benzene	uncertainty
302.45	0.39	0.03
322.35	0.39	0.03
342.45	0.39	0.03

System: toluene + trihexyl(tetradecyl)phosphonium bis[(trifluoromethyl)sulfonyl]imide; phases: Liquid, Gas
Fixed: Mole fraction of toluene = 0
Property: Activity coefficient of toluene (Liquid); method: Chromatography
Temperature, K	Activity coefficient of toluene	uncertainty
302.45	0.46	0.04
322.35	0.46	0.04
342.45	0.47	0.04

System: ethylbenzene + trihexyl(tetradecyl)phosphonium bis[(trifluoromethyl)sulfonyl]imide; phases: Liquid, Gas
Fixed: Mole fraction of ethylbenzene = 0
Property: Activity coefficient of ethylbenzene (Liquid); method: Chromatography
Temperature, K	Activity coefficient of ethylbenzene	uncertainty
302.45	0.54	0.04
322.35	0.57	0.04
342.45	0.59	0.04

System: hex-1-ene + trihexyl(tetradecyl)phosphonium bis[(trifluoromethyl)sulfonyl]imide; phases: Liquid, Gas
Fixed: Mole fraction of hex-1-ene = 0
Property: Activity coefficient of hex-1-ene (Liquid); method: Chromatography
Temperature, K	Activity coefficient of hex-1-ene	uncertainty
302.45	0.91	0.06
322.35	0.87	0.06
342.45	0.85	0.05

System: 1-hexyne + trihexyl(tetradecyl)phosphonium bis[(trifluoromethyl)sulfonyl]imide; phases: Liquid, Gas
Fixed: Mole fraction of 1-hexyne = 0
Property: Activity coefficient of 1-hexyne (Liquid); method: Chromatography
Temperature, K	Activity coefficient of 1-hexyne	uncertainty
302.45	0.7	0.1
322.35	0.69	0.05
342.45	0.67	0.05

System: 1-heptyne + trihexyl(tetradecyl)phosphonium bis[(trifluoromethyl)sulfonyl]imide; phases: Liquid, Gas
Fixed: Mole fraction of 1-heptyne = 0
Property: Activity coefficient of 1-heptyne (Liquid); method: Chromatography
Temperature, K	Activity coefficient of 1-heptyne	uncertainty
302.45	0.77	0.05
322.35	0.78	0.05
342.45	0.8	0.05

System: butanone + trihexyl(tetradecyl)phosphonium bis[(trifluoromethyl)sulfonyl]imide; phases: Liquid, Gas
Fixed: Mole fraction of butanone = 0
Property: Activity coefficient of butanone (Liquid); method: Chromatography
Temperature, K	Activity coefficient of butanone	uncertainty
302.45	0.28	0.03
322.35	0.27	0.03
342.45	0.23	0.03

System: pentan-2-one + trihexyl(tetradecyl)phosphonium bis[(trifluoromethyl)sulfonyl]imide; phases: Liquid, Gas
Fixed: Mole fraction of pentan-2-one = 0
Property: Activity coefficient of pentan-2-one (Liquid); method: Chromatography
Temperature, K	Activity coefficient of pentan-2-one	uncertainty
302.45	0.31	0.03
322.35	0.32	0.03
342.45	0.33	0.03

System: 1,4-dioxane + trihexyl(tetradecyl)phosphonium bis[(trifluoromethyl)sulfonyl]imide; phases: Liquid, Gas
Fixed: Mole fraction of 1,4-dioxane = 0
Property: Activity coefficient of 1,4-dioxane (Liquid); method: Chromatography
Temperature, K	Activity coefficient of 1,4-dioxane	uncertainty
302.45	0.51	0.04
322.35	0.49	0.04
342.45	0.48	0.04

System: methanol + trihexyl(tetradecyl)phosphonium bis[(trifluoromethyl)sulfonyl]imide; phases: Liquid, Gas
Fixed: Mole fraction of methanol = 0
Property: Activity coefficient of methanol (Liquid); method: Chromatography
Temperature, K	Activity coefficient of methanol	uncertainty
302.45	1.29	0.08
322.35	0.98	0.06
342.45	0.86	0.06

System: ethanol + trihexyl(tetradecyl)phosphonium bis[(trifluoromethyl)sulfonyl]imide; phases: Liquid, Gas
Fixed: Mole fraction of ethanol = 0
Property: Activity coefficient of ethanol (Liquid); method: Chromatography
Temperature, K	Activity coefficient of ethanol	uncertainty
302.45	1.56	0.1
322.35	1.23	0.08
342.45	1.01	0.06

System: propan-1-ol + trihexyl(tetradecyl)phosphonium bis[(trifluoromethyl)sulfonyl]imide; phases: Liquid, Gas
Fixed: Mole fraction of propan-1-ol = 0
Property: Activity coefficient of propan-1-ol (Liquid); method: Chromatography
Temperature, K	Activity coefficient of propan-1-ol	uncertainty
302.45	1.53	0.1
322.35	1.21	0.08
342.45	1	0.06

System: propan-2-ol + trihexyl(tetradecyl)phosphonium bis[(trifluoromethyl)sulfonyl]imide; phases: Liquid, Gas
Fixed: Mole fraction of propan-2-ol = 0
Property: Activity coefficient of propan-2-ol (Liquid); method: Chromatography
Temperature, K	Activity coefficient of propan-2-ol	uncertainty
302.45	1.55	0.1
322.35	1.22	0.08
342.45	0.99	0.06

System: 2-methyl-1-propanol + trihexyl(tetradecyl)phosphonium bis[(trifluoromethyl)sulfonyl]imide; phases: Liquid, Gas
Fixed: Mole fraction of 2-methyl-1-propanol = 0
Property: Activity coefficient of 2-methyl-1-propanol (Liquid); method: Chromatography
Temperature, K	Activity coefficient of 2-methyl-1-propanol	uncertainty
302.45	1.49	0.1
322.35	1.15	0.07
342.45	0.95	0.06

System: butan-1-ol + trihexyl(tetradecyl)phosphonium bis[(trifluoromethyl)sulfonyl]imide; phases: Liquid, Gas
Fixed: Mole fraction of butan-1-ol = 0
Property: Activity coefficient of butan-1-ol (Liquid); method: Chromatography
Temperature, K	Activity coefficient of butan-1-ol	uncertainty
302.45	1.62	0.11
322.35	1.26	0.08
342.45	1.04	0.07

System: diethyl ether + trihexyl(tetradecyl)phosphonium bis[(trifluoromethyl)sulfonyl]imide; phases: Liquid, Gas
Fixed: Mole fraction of diethyl ether = 0
Property: Activity coefficient of diethyl ether (Liquid); method: Chromatography
Temperature, K	Activity coefficient of diethyl ether	uncertainty
302.45	0.62	0.04
322.35	0.59	0.04
342.45	0.57	0.04

System: diisopropyl ether + trihexyl(tetradecyl)phosphonium bis[(trifluoromethyl)sulfonyl]imide; phases: Liquid, Gas
Fixed: Mole fraction of diisopropyl ether = 0
Property: Activity coefficient of diisopropyl ether (Liquid); method: Chromatography
Temperature, K	Activity coefficient of diisopropyl ether	uncertainty
302.45	0.93	0.06
322.35	0.9	0.06
342.45	0.87	0.06

System: trichloromethane + trihexyl(tetradecyl)phosphonium bis[(trifluoromethyl)sulfonyl]imide; phases: Liquid, Gas
Fixed: Mole fraction of trichloromethane = 0
Property: Activity coefficient of trichloromethane (Liquid); method: Chromatography
Temperature, K	Activity coefficient of trichloromethane	uncertainty
302.45	0.29	0.03
322.35	0.31	0.03
342.45	0.32	0.03

System: dichloromethane + trihexyl(tetradecyl)phosphonium bis[(trifluoromethyl)sulfonyl]imide; phases: Liquid, Gas
Fixed: Mole fraction of dichloromethane = 0
Property: Activity coefficient of dichloromethane (Liquid); method: Chromatography
Temperature, K	Activity coefficient of dichloromethane	uncertainty
302.45	0.23	0.03
322.35	0.25	0.03
342.45	0.27	0.03

System: tetrachloromethane + trihexyl(tetradecyl)phosphonium bis[(trifluoromethyl)sulfonyl]imide; phases: Liquid, Gas
Fixed: Mole fraction of tetrachloromethane = 0
Property: Activity coefficient of tetrachloromethane (Liquid); method: Chromatography
Temperature, K	Activity coefficient of tetrachloromethane	uncertainty
302.45	0.55	0.04
322.35	0.55	0.04
342.45	0.55	0.04

System: acetonitrile + trihexyl(tetradecyl)phosphonium bis[(trifluoromethyl)sulfonyl]imide; phases: Liquid, Gas
Fixed: Mole fraction of acetonitrile = 0
Property: Activity coefficient of acetonitrile (Liquid); method: Chromatography
Temperature, K	Activity coefficient of acetonitrile	uncertainty
302.45	0.56	0.04
322.35	0.5	0.04
342.45	0.46	0.04

System: nitromethane + trihexyl(tetradecyl)phosphonium bis[(trifluoromethyl)sulfonyl]imide; phases: Liquid, Gas
Fixed: Mole fraction of nitromethane = 0
Property: Activity coefficient of nitromethane (Liquid); method: Chromatography
Temperature, K	Activity coefficient of nitromethane	uncertainty
302.45	0.77	0.05
322.35	0.64	0.04
342.45	0.58	0.04

System: 1-nitropropane + trihexyl(tetradecyl)phosphonium bis[(trifluoromethyl)sulfonyl]imide; phases: Liquid, Gas
Fixed: Mole fraction of 1-nitropropane = 0
Property: Activity coefficient of 1-nitropropane (Liquid); method: Chromatography
Temperature, K	Activity coefficient of 1-nitropropane	uncertainty
302.45	2.19	0.15
322.35	1.62	0.11
342.45	1.35	0.09

System: pyridine + trihexyl(tetradecyl)phosphonium bis[(trifluoromethyl)sulfonyl]imide; phases: Liquid, Gas
Fixed: Mole fraction of pyridine = 0
Property: Activity coefficient of pyridine (Liquid); method: Chromatography
Temperature, K	Activity coefficient of pyridine	uncertainty
302.45	0.52	0.04
322.35	0.41	0.03
342.45	0.34	0.03

System: thiophene + trihexyl(tetradecyl)phosphonium bis[(trifluoromethyl)sulfonyl]imide; phases: Liquid, Gas
Fixed: Mole fraction of thiophene = 0
Property: Activity coefficient of thiophene (Liquid); method: Chromatography
Temperature, K	Activity coefficient of thiophene	uncertainty
302.45	0.42	0.04
322.35	0.4	0.03
342.45	0.38	0.03

System: methanal + trihexyl(tetradecyl)phosphonium bis[(trifluoromethyl)sulfonyl]imide; phases: Liquid, Gas
Fixed: Mole fraction of methanal = 0
Property: Activity coefficient of methanal (Liquid); method: Chromatography
Temperature, K	Activity coefficient of methanal	uncertainty
302.45	0.06	0.03
322.35	0.06	0.03
342.45	0.07	0.03

System: propanal + trihexyl(tetradecyl)phosphonium bis[(trifluoromethyl)sulfonyl]imide; phases: Liquid, Gas
Fixed: Mole fraction of propanal = 0
Property: Activity coefficient of propanal (Liquid); method: Chromatography
Temperature, K	Activity coefficient of propanal	uncertainty
302.45	0.35	0.03
322.35	0.33	0.03
342.45	0.31	0.03

System: butanal + trihexyl(tetradecyl)phosphonium bis[(trifluoromethyl)sulfonyl]imide; phases: Liquid, Gas
Fixed: Mole fraction of butanal = 0
Property: Activity coefficient of butanal (Liquid); method: Chromatography
Temperature, K	Activity coefficient of butanal	uncertainty
302.45	0.38	0.03
322.35	0.36	0.03
342.45	0.35	0.03
