Measured thermophysical data. Densities, Refractive Indices, and Excess Properties of Binary Mixtures of 1,4-Dioxane with Benzene, Toluene, o-Xylene, m-Xylene, p-Xylene, and Mesitylene at Temperatures from (288.15 to 318.15) K
Source: J. Chem. Eng. Data, 2008, 10.1021/je800579j
Compound 1: 1,4-dioxane, C4H8O2, InChI=1S/C4H8O2/c1-2-6-4-3-5-1/h1-4H2
Compound 2: benzene, C6H6, InChI=1S/C6H6/c1-2-4-6-5-3-1/h1-6H
Compound 3: toluene, C7H8, InChI=1S/C7H8/c1-7-5-3-2-4-6-7/h2-6H,1H3
Compound 4: 1,2-dimethylbenzene, C8H10, InChI=1S/C8H10/c1-7-5-3-4-6-8(7)2/h3-6H,1-2H3
Compound 5: 1,3-dimethylbenzene, C8H10, InChI=1S/C8H10/c1-7-4-3-5-8(2)6-7/h3-6H,1-2H3
Compound 6: 1,4-dimethylbenzene, C8H10, InChI=1S/C8H10/c1-7-3-5-8(2)6-4-7/h3-6H,1-2H3
Compound 7: 1,3,5-trimethylbenzene, C9H12, InChI=1S/C9H12/c1-7-4-8(2)6-9(3)5-7/h4-6H,1-3H3

System: 1,4-dioxane; phases: Liquid, Air at 1 atmosphere
Property: Refractive index (Na D-line) (Liquid); method: Standard Abbe refractometry
Temperature, K	Refractive index (Na D-line)	uncertainty
288.15	1.4245	0.0006
293.15	1.4224	0.0006
298.15	1.4203	0.0006
303.15	1.4182	0.0006
308.15	1.4161	0.0006
313.15	1.4139	0.0006
318.15	1.4117	0.0006

System: 1,4-dioxane; phases: Liquid, Air at 1 atmosphere
Property: Mass density, kg/m3 (Liquid); method: Pycnometric method
Temperature, K	Mass density, kg/m3	uncertainty
288.15	1039.23	0.87
293.15	1033.59	0.87
298.15	1027.95	0.87
303.15	1022.32	0.88
308.15	1016.68	0.88
313.15	1011.05	0.89
318.15	1005.42	0.89

System: benzene; phases: Liquid, Air at 1 atmosphere
Property: Refractive index (Na D-line) (Liquid); method: Standard Abbe refractometry
Temperature, K	Refractive index (Na D-line)	uncertainty
288.15	1.5042	0.0007
293.15	1.5011	0.0007
298.15	1.498	0.0007
303.15	1.4949	0.0007
308.15	1.4918	0.0007
313.15	1.4887	0.0007
318.15	1.4856	0.0007

System: benzene; phases: Liquid, Air at 1 atmosphere
Property: Mass density, kg/m3 (Liquid); method: Pycnometric method
Temperature, K	Mass density, kg/m3	uncertainty
288.15	884.3	0.81
293.15	878.95	0.8
298.15	873.61	0.8
303.15	868.26	0.81
308.15	862.9	0.81
313.15	857.56	0.82
318.15	852.23	0.82

System: toluene; phases: Liquid, Air at 1 atmosphere
Property: Refractive index (Na D-line) (Liquid); method: Standard Abbe refractometry
Temperature, K	Refractive index (Na D-line)	uncertainty
288.15	1.4998	0.0007
293.15	1.497	0.0007
298.15	1.4942	0.0007
303.15	1.4913	0.0007
308.15	1.4884	0.0007
313.15	1.4855	0.0007
318.15	1.4826	0.0007

System: toluene; phases: Liquid, Air at 1 atmosphere
Property: Mass density, kg/m3 (Liquid); method: Pycnometric method
Temperature, K	Mass density, kg/m3	uncertainty
288.15	871.79	0.72
293.15	867.08	0.71
298.15	862.36	0.72
303.15	857.64	0.72
308.15	852.93	0.73
313.15	848.21	0.73
318.15	843.49	0.74

System: 1,2-dimethylbenzene; phases: Liquid, Air at 1 atmosphere
Property: Refractive index (Na D-line) (Liquid); method: Standard Abbe refractometry
Temperature, K	Refractive index (Na D-line)	uncertainty
288.15	1.5083	0.0007
293.15	1.5055	0.0007
298.15	1.5029	0.0007
303.15	1.5002	0.0007
308.15	1.4975	0.0007
313.15	1.4948	0.0007
318.15	1.4921	0.0007

System: 1,2-dimethylbenzene; phases: Liquid, Air at 1 atmosphere
Property: Mass density, kg/m3 (Liquid); method: Pycnometric method
Temperature, K	Mass density, kg/m3	uncertainty
288.15	884.09	0.67
293.15	879.83	0.66
298.15	875.57	0.67
303.15	871.31	0.67
308.15	867.05	0.68
313.15	862.79	0.68
318.15	858.53	0.69

System: 1,3-dimethylbenzene; phases: Liquid, Air at 1 atmosphere
Property: Refractive index (Na D-line) (Liquid); method: Standard Abbe refractometry
Temperature, K	Refractive index (Na D-line)	uncertainty
288.15	1.4999	0.0006
293.15	1.4974	0.0007
298.15	1.4948	0.0007
303.15	1.4922	0.0007
308.15	1.4896	0.0007
313.15	1.487	0.0007
318.15	1.4844	0.0007

System: 1,3-dimethylbenzene; phases: Liquid, Air at 1 atmosphere
Property: Mass density, kg/m3 (Liquid); method: Pycnometric method
Temperature, K	Mass density, kg/m3	uncertainty
288.15	868.59	0.67
293.15	864.31	0.66
298.15	860.02	0.67
303.15	855.74	0.67
308.15	851.45	0.68
313.15	847.17	0.68
318.15	842.88	0.69

System: 1,4-dimethylbenzene; phases: Liquid, Air at 1 atmosphere
Property: Refractive index (Na D-line) (Liquid); method: Standard Abbe refractometry
Temperature, K	Refractive index (Na D-line)	uncertainty
288.15	1.4985	0.0007
293.15	1.4959	0.0007
298.15	1.4933	0.0007
303.15	1.4907	0.0007
308.15	1.4881	0.0007
313.15	1.4855	0.0007
318.15	1.483	0.0006

System: 1,4-dimethylbenzene; phases: Liquid, Air at 1 atmosphere
Property: Mass density, kg/m3 (Liquid); method: Pycnometric method
Temperature, K	Mass density, kg/m3	uncertainty
288.15	865.52	0.67
293.15	861.17	0.67
298.15	856.82	0.67
303.15	852.47	0.68
308.15	848.12	0.68
313.15	843.77	0.69
318.15	839.42	0.7

System: 1,3,5-trimethylbenzene; phases: Liquid, Air at 1 atmosphere
Property: Refractive index (Na D-line) (Liquid); method: Standard Abbe refractometry
Temperature, K	Refractive index (Na D-line)	uncertainty
288.15	1.502	0.0007
293.15	1.4995	0.0007
298.15	1.4969	0.0007
303.15	1.4944	0.0007
308.15	1.4918	0.0007
313.15	1.4893	0.0007
318.15	1.4868	0.0007

System: 1,3,5-trimethylbenzene; phases: Liquid, Air at 1 atmosphere
Property: Mass density, kg/m3 (Liquid); method: Pycnometric method
Temperature, K	Mass density, kg/m3	uncertainty
288.15	869.28	0.63
293.15	865.37	0.63
298.15	861.45	0.63
303.15	857.54	0.64
308.15	853.63	0.65
313.15	849.71	0.65
318.15	845.8	0.66

System: benzene + 1,4-dioxane; phases: Liquid, Air at 1 atmosphere
Property: Refractive index (Na D-line) (Liquid); method: Standard Abbe refractometry
Temperature, K	Mole fraction of 1,4-dioxane	Refractive index (Na D-line)	uncertainty
288.15	0	1.5042	0.0007
288.15	0.0713	1.4982	0.0007
288.15	0.1403	1.4924	0.0007
288.15	0.2123	1.4864	0.0007
288.15	0.2809	1.4807	0.0007
288.15	0.3528	1.4748	0.0007
288.15	0.4195	1.4694	0.0007
288.15	0.5037	1.4626	0.0007
288.15	0.58	1.4565	0.0007
288.15	0.6504	1.451	0.0007
288.15	0.7197	1.4456	0.0006
288.15	0.7822	1.4408	0.0006
288.15	0.8561	1.4352	0.0006
288.15	0.9287	1.4298	0.0006
288.15	1	1.4245	0.0006
293.15	0	1.5011	0.0007
293.15	0.0713	1.4951	0.0007
293.15	0.1403	1.4894	0.0007
293.15	0.2123	1.4835	0.0007
293.15	0.2809	1.4778	0.0007
293.15	0.3528	1.472	0.0007
293.15	0.4195	1.4666	0.0007
293.15	0.5037	1.4599	0.0007
293.15	0.58	1.4539	0.0007
293.15	0.6504	1.4484	0.0007
293.15	0.7197	1.4432	0.0006
293.15	0.7822	1.4384	0.0006
293.15	0.8561	1.4329	0.0006
293.15	0.9287	1.4276	0.0006
293.15	1	1.4224	0.0006
298.15	0	1.498	0.0007
298.15	0.0713	1.4921	0.0007
298.15	0.1403	1.4864	0.0007
298.15	0.2123	1.4805	0.0007
298.15	0.2809	1.4749	0.0007
298.15	0.3528	1.4692	0.0007
298.15	0.4195	1.4639	0.0007
298.15	0.5037	1.4573	0.0007
298.15	0.58	1.4513	0.0007
298.15	0.6504	1.4459	0.0006
298.15	0.7197	1.4407	0.0006
298.15	0.7822	1.436	0.0006
298.15	0.8561	1.4306	0.0006
298.15	0.9287	1.4254	0.0006
298.15	1	1.4203	0.0006
303.15	0	1.4949	0.0007
303.15	0.0713	1.489	0.0007
303.15	0.1403	1.4834	0.0007
303.15	0.2123	1.4775	0.0007
303.15	0.2809	1.472	0.0007
303.15	0.3528	1.4663	0.0007
303.15	0.4195	1.4611	0.0007
303.15	0.5037	1.4546	0.0007
303.15	0.58	1.4487	0.0007
303.15	0.6504	1.4434	0.0006
303.15	0.7197	1.4382	0.0006
303.15	0.7822	1.4336	0.0006
303.15	0.8561	1.4283	0.0006
303.15	0.9287	1.4232	0.0006
303.15	1	1.4182	0.0006
308.15	0	1.4918	0.0007
308.15	0.0713	1.4859	0.0007
308.15	0.1403	1.4803	0.0007
308.15	0.2123	1.4746	0.0007
308.15	0.2809	1.4691	0.0007
308.15	0.3528	1.4635	0.0007
308.15	0.4195	1.4583	0.0007
308.15	0.5037	1.4519	0.0007
308.15	0.58	1.4461	0.0007
308.15	0.6504	1.4409	0.0007
308.15	0.7197	1.4358	0.0006
308.15	0.7822	1.4312	0.0006
308.15	0.8561	1.426	0.0006
308.15	0.9287	1.421	0.0006
308.15	1	1.4161	0.0006
313.15	0	1.4887	0.0007
313.15	0.0713	1.4829	0.0007
313.15	0.1403	1.4773	0.0007
313.15	0.2123	1.4716	0.0007
313.15	0.2809	1.4662	0.0007
313.15	0.3528	1.4607	0.0007
313.15	0.4195	1.4556	0.0007
313.15	0.5037	1.4492	0.0007
313.15	0.58	1.4435	0.0007
313.15	0.6504	1.4383	0.0007
313.15	0.7197	1.4332	0.0007
313.15	0.7822	1.4287	0.0006
313.15	0.8561	1.4236	0.0006
313.15	0.9287	1.4187	0.0006
313.15	1	1.4139	0.0006
318.15	0	1.4856	0.0007
318.15	0.0713	1.4798	0.0007
318.15	0.1403	1.4743	0.0007
318.15	0.2123	1.4686	0.0007
318.15	0.2809	1.4633	0.0007
318.15	0.3528	1.4578	0.0007
318.15	0.4195	1.4528	0.0007
318.15	0.5037	1.4465	0.0007
318.15	0.58	1.4409	0.0007
318.15	0.6504	1.4357	0.0007
318.15	0.7197	1.4307	0.0006
318.15	0.7822	1.4263	0.0006
318.15	0.8561	1.4212	0.0006
318.15	0.9287	1.4164	0.0006
318.15	1	1.4117	0.0006

System: benzene + 1,4-dioxane; phases: Liquid, Air at 1 atmosphere
Property: Mass density, kg/m3 (Liquid); method: Pycnometric method
Temperature, K	Mole fraction of 1,4-dioxane	Mass density, kg/m3	uncertainty
288.15	0	884.3	0.81
288.15	0.0713	895.16	0.81
288.15	0.1403	905.71	0.82
288.15	0.2123	916.74	0.83
288.15	0.2809	927.28	0.83
288.15	0.3528	938.34	0.84
288.15	0.4195	948.63	0.85
288.15	0.5037	961.65	0.85
288.15	0.58	973.48	0.86
288.15	0.6504	984.43	0.86
288.15	0.7197	995.23	0.86
288.15	0.7822	1005	0.87
288.15	0.8561	1016.58	0.87
288.15	0.9287	1027.99	0.87
288.15	1	1039.23	0.87
293.15	0	878.95	0.8
293.15	0.0713	889.77	0.81
293.15	0.1403	900.28	0.81
293.15	0.2123	911.28	0.82
293.15	0.2809	921.79	0.83
293.15	0.3528	932.82	0.83
293.15	0.4195	943.09	0.84
293.15	0.5037	956.08	0.85
293.15	0.58	967.89	0.85
293.15	0.6504	978.82	0.85
293.15	0.7197	989.61	0.86
293.15	0.7822	999.37	0.86
293.15	0.8561	1010.94	0.86
293.15	0.9287	1022.35	0.86
293.15	1	1033.59	0.87
298.15	0	873.61	0.8
298.15	0.0713	884.38	0.81
298.15	0.1403	894.85	0.82
298.15	0.2123	905.82	0.82
298.15	0.2809	916.3	0.83
298.15	0.3528	927.31	0.84
298.15	0.4195	937.55	0.84
298.15	0.5037	950.51	0.85
298.15	0.58	962.3	0.85
298.15	0.6504	973.21	0.86
298.15	0.7197	983.99	0.86
298.15	0.7822	993.74	0.86
298.15	0.8561	1005.3	0.87
298.15	0.9287	1016.71	0.87
298.15	1	1027.95	0.87
303.15	0	868.26	0.81
303.15	0.0713	878.99	0.82
303.15	0.1403	889.42	0.82
303.15	0.2123	900.36	0.83
303.15	0.2809	910.81	0.84
303.15	0.3528	921.8	0.84
303.15	0.4195	932.01	0.85
303.15	0.5037	944.94	0.85
303.15	0.58	956.71	0.86
303.15	0.6504	967.6	0.86
303.15	0.7197	978.37	0.87
303.15	0.7822	988.11	0.87
303.15	0.8561	999.66	0.87
303.15	0.9287	1011.07	0.87
303.15	1	1022.32	0.88
308.15	0	862.9	0.81
308.15	0.0713	873.6	0.82
308.15	0.1403	883.99	0.83
308.15	0.2123	894.9	0.83
308.15	0.2809	905.32	0.84
308.15	0.3528	916.28	0.85
308.15	0.4195	926.47	0.85
308.15	0.5037	939.38	0.86
308.15	0.58	951.12	0.86
308.15	0.6504	962	0.87
308.15	0.7197	972.75	0.87
308.15	0.7822	982.48	0.87
308.15	0.8561	994.02	0.88
308.15	0.9287	1005.43	0.88
308.15	1	1016.68	0.88
313.15	0	857.56	0.82
313.15	0.0713	868.22	0.82
313.15	0.1403	878.58	0.83
313.15	0.2123	889.45	0.84
313.15	0.2809	899.84	0.84
313.15	0.3528	910.77	0.85
313.15	0.4195	920.94	0.86
313.15	0.5037	933.82	0.86
313.15	0.58	945.54	0.87
313.15	0.6504	956.4	0.87
313.15	0.7197	967.13	0.87
313.15	0.7822	976.85	0.88
313.15	0.8561	988.39	0.88
313.15	0.9287	999.79	0.88
313.15	1	1011.05	0.89
318.15	0	852.23	0.82
318.15	0.0713	862.84	0.83
318.15	0.1403	873.17	0.83
318.15	0.2123	884	0.84
318.15	0.2809	894.36	0.85
318.15	0.3528	905.26	0.85
318.15	0.4195	915.41	0.86
318.15	0.5037	928.26	0.87
318.15	0.58	939.96	0.87
318.15	0.6504	950.8	0.87
318.15	0.7197	961.52	0.88
318.15	0.7822	971.23	0.88
318.15	0.8561	982.76	0.88
318.15	0.9287	994.15	0.89
318.15	1	1005.42	0.89

System: toluene + 1,4-dioxane; phases: Liquid, Air at 1 atmosphere
Property: Refractive index (Na D-line) (Liquid); method: Standard Abbe refractometry
Temperature, K	Mole fraction of 1,4-dioxane	Refractive index (Na D-line)	uncertainty
288.15	0	1.4998	0.0007
288.15	0.0688	1.4955	0.0007
288.15	0.1373	1.4914	0.0007
288.15	0.2112	1.4869	0.0007
288.15	0.2858	1.4822	0.0007
288.15	0.3552	1.4775	0.0007
288.15	0.4361	1.4719	0.0006
288.15	0.5064	1.4668	0.0006
288.15	0.5819	1.4611	0.0006
288.15	0.6506	1.4557	0.0006
288.15	0.7212	1.4499	0.0006
288.15	0.7903	1.444	0.0006
288.15	0.864	1.4374	0.0006
288.15	0.9336	1.431	0.0006
288.15	1	1.4245	0.0006
293.15	0	1.497	0.0007
293.15	0.0688	1.4927	0.0007
293.15	0.1373	1.4886	0.0007
293.15	0.2112	1.4842	0.0007
293.15	0.2858	1.4795	0.0007
293.15	0.3552	1.4749	0.0007
293.15	0.4361	1.4693	0.0007
293.15	0.5064	1.4643	0.0007
293.15	0.5819	1.4586	0.0006
293.15	0.6506	1.4533	0.0006
293.15	0.7212	1.4475	0.0006
293.15	0.7903	1.4417	0.0006
293.15	0.864	1.4352	0.0006
293.15	0.9336	1.4288	0.0006
293.15	1	1.4224	0.0006
298.15	0	1.4942	0.0007
298.15	0.0688	1.4899	0.0007
298.15	0.1373	1.4858	0.0007
298.15	0.2112	1.4814	0.0007
298.15	0.2858	1.4768	0.0007
298.15	0.3552	1.4722	0.0007
298.15	0.4361	1.4667	0.0007
298.15	0.5064	1.4617	0.0007
298.15	0.5819	1.4561	0.0006
298.15	0.6506	1.4508	0.0006
298.15	0.7212	1.4451	0.0006
298.15	0.7903	1.4393	0.0006
298.15	0.864	1.4329	0.0006
298.15	0.9336	1.4266	0.0006
298.15	1	1.4203	0.0006
303.15	0	1.4913	0.0007
303.15	0.0688	1.487	0.0007
303.15	0.1373	1.4829	0.0007
303.15	0.2112	1.4786	0.0007
303.15	0.2858	1.474	0.0007
303.15	0.3552	1.4695	0.0007
303.15	0.4361	1.464	0.0007
303.15	0.5064	1.4591	0.0007
303.15	0.5819	1.4536	0.0007
303.15	0.6506	1.4483	0.0006
303.15	0.7212	1.4427	0.0006
303.15	0.7903	1.437	0.0006
303.15	0.864	1.4306	0.0006
303.15	0.9336	1.4244	0.0006
303.15	1	1.4182	0.0006
308.15	0	1.4884	0.0007
308.15	0.0688	1.4841	0.0007
308.15	0.1373	1.48	0.0007
308.15	0.2112	1.4757	0.0007
308.15	0.2858	1.4712	0.0007
308.15	0.3552	1.4668	0.0007
308.15	0.4361	1.4614	0.0007
308.15	0.5064	1.4565	0.0007
308.15	0.5819	1.451	0.0007
308.15	0.6506	1.4458	0.0006
308.15	0.7212	1.4403	0.0006
308.15	0.7903	1.4346	0.0006
308.15	0.864	1.4283	0.0006
308.15	0.9336	1.4222	0.0006
308.15	1	1.4161	0.0006
313.15	0	1.4855	0.0007
313.15	0.0688	1.4812	0.0007
313.15	0.1373	1.4771	0.0007
313.15	0.2112	1.4729	0.0007
313.15	0.2858	1.4684	0.0007
313.15	0.3552	1.464	0.0007
313.15	0.4361	1.4587	0.0007
313.15	0.5064	1.4539	0.0007
313.15	0.5819	1.4484	0.0007
313.15	0.6506	1.4433	0.0006
313.15	0.7212	1.4378	0.0006
313.15	0.7903	1.4322	0.0006
313.15	0.864	1.426	0.0006
313.15	0.9336	1.4199	0.0006
313.15	1	1.4139	0.0006
318.15	0	1.4826	0.0007
318.15	0.0688	1.4783	0.0007
318.15	0.1373	1.4742	0.0007
318.15	0.2112	1.47	0.0007
318.15	0.2858	1.4655	0.0007
318.15	0.3552	1.4613	0.0007
318.15	0.4361	1.456	0.0007
318.15	0.5064	1.4512	0.0007
318.15	0.5819	1.4458	0.0007
318.15	0.6506	1.4408	0.0007
318.15	0.7212	1.4353	0.0007
318.15	0.7903	1.4298	0.0006
318.15	0.864	1.4236	0.0006
318.15	0.9336	1.4176	0.0006
318.15	1	1.4117	0.0006

System: toluene + 1,4-dioxane; phases: Liquid, Air at 1 atmosphere
Property: Mass density, kg/m3 (Liquid); method: Pycnometric method
Temperature, K	Mole fraction of 1,4-dioxane	Mass density, kg/m3	uncertainty
288.15	0	871.79	0.72
288.15	0.0688	881.09	0.74
288.15	0.1373	890.67	0.75
288.15	0.2112	901.34	0.76
288.15	0.2858	912.47	0.78
288.15	0.3552	923.15	0.79
288.15	0.4361	936.02	0.8
288.15	0.5064	947.57	0.81
288.15	0.5819	960.38	0.82
288.15	0.6506	972.39	0.83
288.15	0.7212	985.11	0.84
288.15	0.7903	997.93	0.86
288.15	0.864	1012.02	0.87
288.15	0.9336	1025.74	0.88
288.15	1	1039.23	0.87
293.15	0	867.08	0.71
293.15	0.0688	876.32	0.72
293.15	0.1373	885.84	0.73
293.15	0.2112	896.45	0.74
293.15	0.2858	907.51	0.75
293.15	0.3552	918.13	0.76
293.15	0.4361	930.92	0.78
293.15	0.5064	942.41	0.79
293.15	0.5819	955.15	0.8
293.15	0.6506	967.1	0.81
293.15	0.7212	979.74	0.82
293.15	0.7903	992.49	0.83
293.15	0.864	1006.51	0.84
293.15	0.9336	1020.16	0.86
293.15	1	1033.59	0.87
298.15	0	862.36	0.72
298.15	0.0688	871.54	0.73
298.15	0.1373	881	0.74
298.15	0.2112	891.55	0.75
298.15	0.2858	902.55	0.76
298.15	0.3552	913.11	0.77
298.15	0.4361	925.82	0.78
298.15	0.5064	937.25	0.79
298.15	0.5819	949.92	0.81
298.15	0.6506	961.8	0.82
298.15	0.7212	974.37	0.83
298.15	0.7903	987.06	0.84
298.15	0.864	1001	0.85
298.15	0.9336	1014.58	0.86
298.15	1	1027.95	0.87
303.15	0	857.64	0.72
303.15	0.0688	866.76	0.73
303.15	0.1373	876.16	0.74
303.15	0.2112	886.65	0.75
303.15	0.2858	897.58	0.76
303.15	0.3552	908.08	0.78
303.15	0.4361	920.72	0.79
303.15	0.5064	932.09	0.8
303.15	0.5819	944.69	0.81
303.15	0.6506	956.5	0.82
303.15	0.7212	969.01	0.83
303.15	0.7903	981.63	0.84
303.15	0.864	995.5	0.85
303.15	0.9336	1009.01	0.86
303.15	1	1022.32	0.88
308.15	0	852.93	0.73
308.15	0.0688	861.99	0.74
308.15	0.1373	871.33	0.75
308.15	0.2112	881.75	0.76
308.15	0.2858	892.62	0.77
308.15	0.3552	903.06	0.78
308.15	0.4361	915.63	0.79
308.15	0.5064	926.93	0.8
308.15	0.5819	939.46	0.82
308.15	0.6506	951.21	0.82
308.15	0.7212	963.65	0.84
308.15	0.7903	976.2	0.85
308.15	0.864	989.99	0.86
308.15	0.9336	1003.44	0.87
308.15	1	1016.68	0.88
313.15	0	848.21	0.73
313.15	0.0688	857.21	0.74
313.15	0.1373	866.49	0.75
313.15	0.2112	876.85	0.76
313.15	0.2858	887.66	0.77
313.15	0.3552	898.04	0.79
313.15	0.4361	910.54	0.8
313.15	0.5064	921.77	0.81
313.15	0.5819	934.23	0.82
313.15	0.6506	945.92	0.83
313.15	0.7212	958.29	0.84
313.15	0.7903	970.77	0.85
313.15	0.864	984.49	0.86
313.15	0.9336	997.87	0.88
313.15	1	1011.05	0.89
318.15	0	843.49	0.74
318.15	0.0688	852.43	0.74
318.15	0.1373	861.65	0.75
318.15	0.2112	871.95	0.75
318.15	0.2858	882.7	0.77
318.15	0.3552	893.02	0.78
318.15	0.4361	905.45	0.79
318.15	0.5064	916.61	0.8
318.15	0.5819	929	0.81
318.15	0.6506	940.63	0.82
318.15	0.7212	952.93	0.83
318.15	0.7903	965.34	0.84
318.15	0.864	978.99	0.85
318.15	0.9336	992.3	0.86
318.15	1	1005.42	0.89

System: 1,2-dimethylbenzene + 1,4-dioxane; phases: Liquid, Air at 1 atmosphere
Property: Refractive index (Na D-line) (Liquid); method: Standard Abbe refractometry
Temperature, K	Mole fraction of 1,4-dioxane	Refractive index (Na D-line)	uncertainty
288.15	0	1.5083	0.0007
288.15	0.0672	1.5029	0.0007
288.15	0.1391	1.4972	0.0007
288.15	0.2103	1.4914	0.0007
288.15	0.2853	1.4853	0.0007
288.15	0.3543	1.4796	0.0007
288.15	0.4293	1.4734	0.0007
288.15	0.5092	1.4667	0.0007
288.15	0.581	1.4606	0.0007
288.15	0.6518	1.4545	0.0006
288.15	0.7248	1.4482	0.0006
288.15	0.7888	1.4427	0.0006
288.15	0.8595	1.4365	0.0006
288.15	0.9298	1.4305	0.0006
288.15	1	1.4245	0.0006
293.15	0	1.5055	0.0007
293.15	0.0672	1.5001	0.0007
293.15	0.1391	1.4944	0.0007
293.15	0.2103	1.4886	0.0007
293.15	0.2853	1.4825	0.0007
293.15	0.3543	1.4769	0.0007
293.15	0.4293	1.4707	0.0007
293.15	0.5092	1.4641	0.0007
293.15	0.581	1.458	0.0007
293.15	0.6518	1.452	0.0006
293.15	0.7248	1.4457	0.0006
293.15	0.7888	1.4402	0.0006
293.15	0.8595	1.4342	0.0006
293.15	0.9298	1.4282	0.0006
293.15	1	1.4224	0.0006
298.15	0	1.5029	0.0007
298.15	0.0672	1.4974	0.0007
298.15	0.1391	1.4917	0.0007
298.15	0.2103	1.4858	0.0007
298.15	0.2853	1.4798	0.0007
298.15	0.3543	1.4742	0.0007
298.15	0.4293	1.4681	0.0007
298.15	0.5092	1.4615	0.0007
298.15	0.581	1.4554	0.0007
298.15	0.6518	1.4495	0.0007
298.15	0.7248	1.4433	0.0006
298.15	0.7888	1.4378	0.0006
298.15	0.8595	1.4318	0.0006
298.15	0.9298	1.4259	0.0006
298.15	1	1.4203	0.0006
303.15	0	1.5002	0.0007
303.15	0.0672	1.4946	0.0007
303.15	0.1391	1.4889	0.0007
303.15	0.2103	1.4831	0.0007
303.15	0.2853	1.4771	0.0007
303.15	0.3543	1.4714	0.0007
303.15	0.4293	1.4654	0.0007
303.15	0.5092	1.4589	0.0007
303.15	0.581	1.4528	0.0007
303.15	0.6518	1.4469	0.0007
303.15	0.7248	1.4408	0.0006
303.15	0.7888	1.4354	0.0006
303.15	0.8595	1.4295	0.0006
303.15	0.9298	1.4236	0.0006
303.15	1	1.4182	0.0006
308.15	0	1.4975	0.0007
308.15	0.0672	1.4918	0.0007
308.15	0.1391	1.4861	0.0007
308.15	0.2103	1.4803	0.0007
308.15	0.2853	1.4743	0.0007
308.15	0.3543	1.4687	0.0007
308.15	0.4293	1.4627	0.0007
308.15	0.5092	1.4562	0.0007
308.15	0.581	1.4502	0.0007
308.15	0.6518	1.4444	0.0007
308.15	0.7248	1.4383	0.0007
308.15	0.7888	1.4329	0.0006
308.15	0.8595	1.4271	0.0006
308.15	0.9298	1.4213	0.0006
308.15	1	1.4161	0.0006
313.15	0	1.4948	0.0007
313.15	0.0672	1.489	0.0007
313.15	0.1391	1.4833	0.0007
313.15	0.2103	1.4775	0.0007
313.15	0.2853	1.4715	0.0007
313.15	0.3543	1.4659	0.0007
313.15	0.4293	1.46	0.0007
313.15	0.5092	1.4535	0.0007
313.15	0.581	1.4476	0.0007
313.15	0.6518	1.4418	0.0007
313.15	0.7248	1.4357	0.0007
313.15	0.7888	1.4304	0.0006
313.15	0.8595	1.4246	0.0006
313.15	0.9298	1.419	0.0006
313.15	1	1.4139	0.0006
318.15	0	1.4921	0.0007
318.15	0.0672	1.4862	0.0007
318.15	0.1391	1.4804	0.0007
318.15	0.2103	1.4746	0.0007
318.15	0.2853	1.4687	0.0007
318.15	0.3543	1.4632	0.0007
318.15	0.4293	1.4573	0.0007
318.15	0.5092	1.4509	0.0007
318.15	0.581	1.445	0.0007
318.15	0.6518	1.4392	0.0007
318.15	0.7248	1.4332	0.0006
318.15	0.7888	1.4279	0.0006
318.15	0.8595	1.4221	0.0006
318.15	0.9298	1.4166	0.0006
318.15	1	1.4117	0.0006

System: 1,2-dimethylbenzene + 1,4-dioxane; phases: Liquid, Air at 1 atmosphere
Property: Mass density, kg/m3 (Liquid); method: Pycnometric method
Temperature, K	Mole fraction of 1,4-dioxane	Mass density, kg/m3	uncertainty
288.15	0	884.09	0.67
288.15	0.0672	891.2	0.7
288.15	0.1391	899.18	0.71
288.15	0.2103	907.48	0.73
288.15	0.2853	916.69	0.74
288.15	0.3543	925.67	0.76
288.15	0.4293	936	0.78
288.15	0.5092	947.69	0.8
288.15	0.581	958.89	0.81
288.15	0.6518	970.57	0.83
288.15	0.7248	983.38	0.84
288.15	0.7888	995.25	0.86
288.15	0.8595	1009.11	0.88
288.15	0.9298	1023.75	0.9
288.15	1	1039.23	0.87
293.15	0	879.83	0.66
293.15	0.0672	886.85	0.67
293.15	0.1391	894.73	0.69
293.15	0.2103	902.95	0.7
293.15	0.2853	912.06	0.71
293.15	0.3543	920.95	0.73
293.15	0.4293	931.18	0.74
293.15	0.5092	942.77	0.76
293.15	0.581	953.86	0.78
293.15	0.6518	965.44	0.79
293.15	0.7248	978.14	0.81
293.15	0.7888	989.91	0.82
293.15	0.8595	1003.66	0.84
293.15	0.9298	1018.19	0.85
293.15	1	1033.59	0.87
298.15	0	875.57	0.67
298.15	0.0672	882.5	0.68
298.15	0.1391	890.29	0.69
298.15	0.2103	898.42	0.7
298.15	0.2853	907.43	0.72
298.15	0.3543	916.23	0.73
298.15	0.4293	926.36	0.75
298.15	0.5092	937.85	0.77
298.15	0.581	948.83	0.78
298.15	0.6518	960.31	0.79
298.15	0.7248	972.9	0.81
298.15	0.7888	984.57	0.83
298.15	0.8595	998.21	0.84
298.15	0.9298	1012.63	0.86
298.15	1	1027.95	0.87
303.15	0	871.31	0.67
303.15	0.0672	878.15	0.68
303.15	0.1391	885.85	0.7
303.15	0.2103	893.89	0.71
303.15	0.2853	902.8	0.73
303.15	0.3543	911.51	0.74
303.15	0.4293	921.55	0.75
303.15	0.5092	932.93	0.77
303.15	0.581	943.81	0.78
303.15	0.6518	955.19	0.8
303.15	0.7248	967.66	0.82
303.15	0.7888	979.23	0.83
303.15	0.8595	992.77	0.85
303.15	0.9298	1007.08	0.86
303.15	1	1022.32	0.88
308.15	0	867.05	0.68
308.15	0.0672	873.8	0.69
308.15	0.1391	881.41	0.7
308.15	0.2103	889.36	0.72
308.15	0.2853	898.17	0.73
308.15	0.3543	906.79	0.74
308.15	0.4293	916.74	0.76
308.15	0.5092	928.02	0.77
308.15	0.581	938.79	0.79
308.15	0.6518	950.07	0.8
308.15	0.7248	962.43	0.82
308.15	0.7888	973.9	0.83
308.15	0.8595	987.33	0.85
308.15	0.9298	1001.53	0.87
308.15	1	1016.68	0.88
313.15	0	862.79	0.68
313.15	0.0672	869.45	0.7
313.15	0.1391	876.97	0.71
313.15	0.2103	884.83	0.72
313.15	0.2853	893.55	0.74
313.15	0.3543	902.08	0.75
313.15	0.4293	911.93	0.76
313.15	0.5092	923.11	0.78
313.15	0.581	933.77	0.8
313.15	0.6518	944.95	0.81
313.15	0.7248	957.2	0.83
313.15	0.7888	968.57	0.84
313.15	0.8595	981.89	0.86
313.15	0.9298	995.99	0.87
313.15	1	1011.05	0.89
318.15	0	858.53	0.69
318.15	0.0672	865.1	0.69
318.15	0.1391	872.53	0.7
318.15	0.2103	880.3	0.71
318.15	0.2853	888.93	0.72
318.15	0.3543	897.37	0.73
318.15	0.4293	907.12	0.74
318.15	0.5092	918.2	0.76
318.15	0.581	928.75	0.77
318.15	0.6518	939.83	0.79
318.15	0.7248	951.97	0.8
318.15	0.7888	963.24	0.82
318.15	0.8595	976.45	0.83
318.15	0.9298	990.45	0.84
318.15	1	1005.42	0.89

System: 1,3-dimethylbenzene + 1,4-dioxane; phases: Liquid, Air at 1 atmosphere
Property: Refractive index (Na D-line) (Liquid); method: Standard Abbe refractometry
Temperature, K	Mole fraction of 1,4-dioxane	Refractive index (Na D-line)	uncertainty
288.15	0	1.4999	0.0006
288.15	0.0938	1.4933	0.0007
288.15	0.1532	1.489	0.0007
288.15	0.2046	1.4852	0.0007
288.15	0.2698	1.4805	0.0007
288.15	0.3374	1.4755	0.0006
288.15	0.4002	1.4709	0.0006
288.15	0.4714	1.4656	0.0006
288.15	0.5487	1.4598	0.0006
288.15	0.63	1.4536	0.0006
288.15	0.7182	1.4468	0.0006
288.15	0.8035	1.4401	0.0006
288.15	0.8708	1.4348	0.0006
288.15	0.9324	1.4299	0.0006
288.15	1	1.4245	0.0006
293.15	0	1.4974	0.0007
293.15	0.0938	1.4907	0.0007
293.15	0.1532	1.4864	0.0007
293.15	0.2046	1.4826	0.0007
293.15	0.2698	1.4779	0.0007
293.15	0.3374	1.473	0.0007
293.15	0.4002	1.4684	0.0007
293.15	0.4714	1.4631	0.0006
293.15	0.5487	1.4574	0.0006
293.15	0.63	1.4512	0.0006
293.15	0.7182	1.4444	0.0006
293.15	0.8035	1.4378	0.0006
293.15	0.8708	1.4325	0.0006
293.15	0.9324	1.4277	0.0006
293.15	1	1.4224	0.0006
298.15	0	1.4948	0.0007
298.15	0.0938	1.488	0.0007
298.15	0.1532	1.4837	0.0007
298.15	0.2046	1.4799	0.0007
298.15	0.2698	1.4753	0.0007
298.15	0.3374	1.4704	0.0007
298.15	0.4002	1.4658	0.0007
298.15	0.4714	1.4606	0.0007
298.15	0.5487	1.4549	0.0006
298.15	0.63	1.4487	0.0006
298.15	0.7182	1.442	0.0006
298.15	0.8035	1.4354	0.0006
298.15	0.8708	1.4302	0.0006
298.15	0.9324	1.4255	0.0006
298.15	1	1.4203	0.0006
303.15	0	1.4922	0.0007
303.15	0.0938	1.4853	0.0007
303.15	0.1532	1.4811	0.0007
303.15	0.2046	1.4772	0.0007
303.15	0.2698	1.4726	0.0007
303.15	0.3374	1.4677	0.0007
303.15	0.4002	1.4632	0.0007
303.15	0.4714	1.458	0.0007
303.15	0.5487	1.4524	0.0007
303.15	0.63	1.4462	0.0006
303.15	0.7182	1.4395	0.0006
303.15	0.8035	1.4329	0.0006
303.15	0.8708	1.4279	0.0006
303.15	0.9324	1.4232	0.0006
303.15	1	1.4182	0.0006
308.15	0	1.4896	0.0007
308.15	0.0938	1.4826	0.0007
308.15	0.1532	1.4783	0.0007
308.15	0.2046	1.4745	0.0007
308.15	0.2698	1.4699	0.0007
308.15	0.3374	1.4651	0.0007
308.15	0.4002	1.4606	0.0007
308.15	0.4714	1.4555	0.0007
308.15	0.5487	1.4498	0.0007
308.15	0.63	1.4437	0.0006
308.15	0.7182	1.4371	0.0006
308.15	0.8035	1.4305	0.0006
308.15	0.8708	1.4255	0.0006
308.15	0.9324	1.4209	0.0006
308.15	1	1.4161	0.0006
313.15	0	1.487	0.0007
313.15	0.0938	1.4799	0.0007
313.15	0.1532	1.4756	0.0007
313.15	0.2046	1.4718	0.0007
313.15	0.2698	1.4672	0.0007
313.15	0.3374	1.4624	0.0007
313.15	0.4002	1.458	0.0007
313.15	0.4714	1.4529	0.0007
313.15	0.5487	1.4473	0.0007
313.15	0.63	1.4412	0.0006
313.15	0.7182	1.4346	0.0006
313.15	0.8035	1.428	0.0006
313.15	0.8708	1.4231	0.0006
313.15	0.9324	1.4186	0.0006
313.15	1	1.4139	0.0006
318.15	0	1.4844	0.0007
318.15	0.0938	1.4772	0.0007
318.15	0.1532	1.4728	0.0007
318.15	0.2046	1.4691	0.0007
318.15	0.2698	1.4645	0.0007
318.15	0.3374	1.4597	0.0007
318.15	0.4002	1.4553	0.0007
318.15	0.4714	1.4503	0.0007
318.15	0.5487	1.4447	0.0007
318.15	0.63	1.4387	0.0007
318.15	0.7182	1.4321	0.0007
318.15	0.8035	1.4256	0.0006
318.15	0.8708	1.4206	0.0006
318.15	0.9324	1.4163	0.0006
318.15	1	1.4117	0.0006

System: 1,3-dimethylbenzene + 1,4-dioxane; phases: Liquid, Air at 1 atmosphere
Property: Mass density, kg/m3 (Liquid); method: Pycnometric method
Temperature, K	Mole fraction of 1,4-dioxane	Mass density, kg/m3	uncertainty
288.15	0	868.59	0.67
288.15	0.0938	879.61	0.7
288.15	0.1532	886.95	0.71
288.15	0.2046	893.54	0.72
288.15	0.2698	902.26	0.74
288.15	0.3374	911.76	0.75
288.15	0.4002	921.05	0.77
288.15	0.4714	932.18	0.79
288.15	0.5487	945	0.81
288.15	0.63	959.44	0.84
288.15	0.7182	976.23	0.87
288.15	0.8035	993.74	0.88
288.15	0.8708	1008.47	0.88
288.15	0.9324	1022.71	0.9
288.15	1	1039.23	0.87
293.15	0	864.31	0.66
293.15	0.0938	875.2	0.68
293.15	0.1532	882.46	0.69
293.15	0.2046	888.98	0.7
293.15	0.2698	897.62	0.71
293.15	0.3374	907.05	0.72
293.15	0.4002	916.26	0.74
293.15	0.4714	927.3	0.75
293.15	0.5487	940.02	0.77
293.15	0.63	954.33	0.79
293.15	0.7182	970.98	0.81
293.15	0.8035	988.36	0.83
293.15	0.8708	1002.99	0.84
293.15	0.9324	1017.15	0.85
293.15	1	1033.59	0.87
298.15	0	860.02	0.67
298.15	0.0938	870.79	0.68
298.15	0.1532	877.97	0.7
298.15	0.2046	884.42	0.71
298.15	0.2698	892.98	0.72
298.15	0.3374	902.34	0.73
298.15	0.4002	911.47	0.74
298.15	0.4714	922.42	0.76
298.15	0.5487	935.04	0.77
298.15	0.63	949.22	0.79
298.15	0.7182	965.73	0.81
298.15	0.8035	982.98	0.83
298.15	0.8708	997.51	0.85
298.15	0.9324	1011.59	0.86
298.15	1	1027.95	0.87
303.15	0	855.74	0.67
303.15	0.0938	866.38	0.69
303.15	0.1532	873.48	0.7
303.15	0.2046	879.87	0.71
303.15	0.2698	888.35	0.72
303.15	0.3374	897.63	0.74
303.15	0.4002	906.68	0.75
303.15	0.4714	917.55	0.76
303.15	0.5487	930.06	0.78
303.15	0.63	944.11	0.8
303.15	0.7182	960.49	0.82
303.15	0.8035	977.6	0.83
303.15	0.8708	992.03	0.85
303.15	0.9324	1006.03	0.86
303.15	1	1022.32	0.88
308.15	0	851.45	0.68
308.15	0.0938	861.97	0.7
308.15	0.1532	868.99	0.71
308.15	0.2046	875.32	0.72
308.15	0.2698	883.72	0.73
308.15	0.3374	892.92	0.74
308.15	0.4002	901.9	0.75
308.15	0.4714	912.68	0.77
308.15	0.5487	925.08	0.78
308.15	0.63	939.01	0.8
308.15	0.7182	955.25	0.82
308.15	0.8035	972.23	0.84
308.15	0.8708	986.56	0.85
308.15	0.9324	1000.48	0.87
308.15	1	1016.68	0.88
313.15	0	847.17	0.68
313.15	0.0938	857.56	0.7
313.15	0.1532	864.5	0.71
313.15	0.2046	870.77	0.72
313.15	0.2698	879.09	0.73
313.15	0.3374	888.21	0.75
313.15	0.4002	897.12	0.76
313.15	0.4714	907.81	0.77
313.15	0.5487	920.1	0.79
313.15	0.63	933.91	0.81
313.15	0.7182	950.01	0.83
313.15	0.8035	966.86	0.84
313.15	0.8708	981.09	0.86
313.15	0.9324	994.93	0.87
313.15	1	1011.05	0.89
318.15	0	842.88	0.69
318.15	0.0938	853.16	0.69
318.15	0.1532	860.01	0.71
318.15	0.2046	866.22	0.71
318.15	0.2698	874.47	0.72
318.15	0.3374	883.5	0.73
318.15	0.4002	892.34	0.74
318.15	0.4714	902.94	0.75
318.15	0.5487	915.12	0.76
318.15	0.63	928.81	0.77
318.15	0.7182	944.77	0.78
318.15	0.8035	961.5	0.81
318.15	0.8708	975.62	0.83
318.15	0.9324	989.38	0.84
318.15	1	1005.42	0.89

System: 1,4-dimethylbenzene + 1,4-dioxane; phases: Liquid, Air at 1 atmosphere
Property: Refractive index (Na D-line) (Liquid); method: Standard Abbe refractometry
Temperature, K	Mole fraction of 1,4-dioxane	Refractive index (Na D-line)	uncertainty
288.15	0	1.4985	0.0007
288.15	0.0716	1.4937	0.0007
288.15	0.1445	1.4887	0.0007
288.15	0.2132	1.4839	0.0007
288.15	0.2871	1.4787	0.0007
288.15	0.3582	1.4736	0.0007
288.15	0.4358	1.468	0.0006
288.15	0.5042	1.4629	0.0006
288.15	0.5846	1.4569	0.0006
288.15	0.6543	1.4516	0.0006
288.15	0.7249	1.4462	0.0006
288.15	0.7923	1.441	0.0006
288.15	0.8623	1.4355	0.0006
288.15	0.9311	1.4301	0.0006
288.15	1	1.4245	0.0006
293.15	0	1.4959	0.0007
293.15	0.0716	1.4911	0.0007
293.15	0.1445	1.4861	0.0007
293.15	0.2132	1.4813	0.0007
293.15	0.2871	1.4761	0.0007
293.15	0.3582	1.471	0.0007
293.15	0.4358	1.4655	0.0007
293.15	0.5042	1.4604	0.0006
293.15	0.5846	1.4544	0.0006
293.15	0.6543	1.4492	0.0006
293.15	0.7249	1.4438	0.0006
293.15	0.7923	1.4386	0.0006
293.15	0.8623	1.4332	0.0006
293.15	0.9311	1.4279	0.0006
293.15	1	1.4224	0.0006
298.15	0	1.4933	0.0007
298.15	0.0716	1.4884	0.0007
298.15	0.1445	1.4834	0.0007
298.15	0.2132	1.4786	0.0007
298.15	0.2871	1.4734	0.0007
298.15	0.3582	1.4684	0.0007
298.15	0.4358	1.4629	0.0007
298.15	0.5042	1.4579	0.0006
298.15	0.5846	1.452	0.0006
298.15	0.6543	1.4467	0.0006
298.15	0.7249	1.4414	0.0006
298.15	0.7923	1.4362	0.0006
298.15	0.8623	1.4309	0.0006
298.15	0.9311	1.4256	0.0006
298.15	1	1.4203	0.0006
303.15	0	1.4907	0.0007
303.15	0.0716	1.4858	0.0007
303.15	0.1445	1.4808	0.0007
303.15	0.2132	1.476	0.0007
303.15	0.2871	1.4708	0.0007
303.15	0.3582	1.4658	0.0007
303.15	0.4358	1.4604	0.0007
303.15	0.5042	1.4554	0.0006
303.15	0.5846	1.4495	0.0006
303.15	0.6543	1.4443	0.0006
303.15	0.7249	1.439	0.0006
303.15	0.7923	1.4338	0.0006
303.15	0.8623	1.4286	0.0006
303.15	0.9311	1.4234	0.0006
303.15	1	1.4182	0.0006
308.15	0	1.4881	0.0007
308.15	0.0716	1.4831	0.0007
308.15	0.1445	1.4781	0.0007
308.15	0.2132	1.4733	0.0007
308.15	0.2871	1.4681	0.0007
308.15	0.3582	1.4632	0.0007
308.15	0.4358	1.4578	0.0007
308.15	0.5042	1.4529	0.0007
308.15	0.5846	1.447	0.0006
308.15	0.6543	1.4418	0.0006
308.15	0.7249	1.4365	0.0006
308.15	0.7923	1.4314	0.0006
308.15	0.8623	1.4262	0.0006
308.15	0.9311	1.4211	0.0006
308.15	1	1.4161	0.0006
313.15	0	1.4855	0.0007
313.15	0.0716	1.4805	0.0007
313.15	0.1445	1.4754	0.0007
313.15	0.2132	1.4706	0.0007
313.15	0.2871	1.4655	0.0007
313.15	0.3582	1.4606	0.0007
313.15	0.4358	1.4552	0.0007
313.15	0.5042	1.4503	0.0007
313.15	0.5846	1.4445	0.0006
313.15	0.6543	1.4394	0.0006
313.15	0.7249	1.4341	0.0006
313.15	0.7923	1.429	0.0006
313.15	0.8623	1.4238	0.0006
313.15	0.9311	1.4188	0.0006
313.15	1	1.4139	0.0006
318.15	0	1.483	0.0006
318.15	0.0716	1.4778	0.0007
318.15	0.1445	1.4727	0.0007
318.15	0.2132	1.468	0.0007
318.15	0.2871	1.4628	0.0007
318.15	0.3582	1.458	0.0007
318.15	0.4358	1.4526	0.0007
318.15	0.5042	1.4478	0.0007
318.15	0.5846	1.442	0.0007
318.15	0.6543	1.4369	0.0007
318.15	0.7249	1.4316	0.0006
318.15	0.7923	1.4266	0.0006
318.15	0.8623	1.4214	0.0006
318.15	0.9311	1.4165	0.0006
318.15	1	1.4117	0.0006

System: 1,4-dimethylbenzene + 1,4-dioxane; phases: Liquid, Air at 1 atmosphere
Property: Mass density, kg/m3 (Liquid); method: Pycnometric method
Temperature, K	Mole fraction of 1,4-dioxane	Mass density, kg/m3	uncertainty
288.15	0	865.52	0.67
288.15	0.0716	874.09	0.71
288.15	0.1445	883.22	0.72
288.15	0.2132	892.23	0.73
288.15	0.2871	902.41	0.75
288.15	0.3582	912.76	0.77
288.15	0.4358	924.73	0.78
288.15	0.5042	935.9	0.8
288.15	0.5846	949.87	0.82
288.15	0.6543	962.76	0.83
288.15	0.7249	976.61	0.85
288.15	0.7923	990.62	0.87
288.15	0.8623	1006.05	0.88
288.15	0.9311	1022.14	0.9
288.15	1	1039.23	0.87
293.15	0	861.17	0.67
293.15	0.0716	869.64	0.68
293.15	0.1445	878.69	0.7
293.15	0.2132	887.63	0.71
293.15	0.2871	897.73	0.72
293.15	0.3582	908	0.73
293.15	0.4358	919.88	0.75
293.15	0.5042	930.97	0.76
293.15	0.5846	944.84	0.78
293.15	0.6543	957.63	0.79
293.15	0.7249	971.38	0.8
293.15	0.7923	985.27	0.82
293.15	0.8623	1000.6	0.84
293.15	0.9311	1016.58	0.85
293.15	1	1033.59	0.87
298.15	0	856.82	0.67
298.15	0.0716	865.2	0.69
298.15	0.1445	874.16	0.7
298.15	0.2132	883.03	0.71
298.15	0.2871	893.05	0.72
298.15	0.3582	903.24	0.74
298.15	0.4358	915.03	0.75
298.15	0.5042	926.04	0.76
298.15	0.5846	939.81	0.78
298.15	0.6543	952.5	0.79
298.15	0.7249	966.15	0.81
298.15	0.7923	979.92	0.83
298.15	0.8623	995.15	0.84
298.15	0.9311	1011.03	0.86
298.15	1	1027.95	0.87
303.15	0	852.47	0.68
303.15	0.0716	860.76	0.69
303.15	0.1445	869.64	0.7
303.15	0.2132	878.43	0.72
303.15	0.2871	888.37	0.73
303.15	0.3582	898.49	0.74
303.15	0.4358	910.19	0.76
303.15	0.5042	921.12	0.77
303.15	0.5846	934.78	0.78
303.15	0.6543	947.38	0.8
303.15	0.7249	960.92	0.81
303.15	0.7923	974.58	0.83
303.15	0.8623	989.7	0.85
303.15	0.9311	1005.48	0.86
303.15	1	1022.32	0.88
308.15	0	848.12	0.68
308.15	0.0716	856.32	0.7
308.15	0.1445	865.12	0.71
308.15	0.2132	873.83	0.72
308.15	0.2871	883.69	0.73
308.15	0.3582	893.74	0.75
308.15	0.4358	905.35	0.76
308.15	0.5042	916.2	0.77
308.15	0.5846	929.76	0.79
308.15	0.6543	942.26	0.8
308.15	0.7249	955.69	0.82
308.15	0.7923	969.25	0.83
308.15	0.8623	984.25	0.85
308.15	0.9311	999.93	0.87
308.15	1	1016.68	0.88
313.15	0	843.77	0.69
313.15	0.0716	851.88	0.7
313.15	0.1445	860.6	0.72
313.15	0.2132	869.23	0.73
313.15	0.2871	879.02	0.74
313.15	0.3582	888.99	0.75
313.15	0.4358	900.51	0.77
313.15	0.5042	911.28	0.78
313.15	0.5846	924.74	0.79
313.15	0.6543	937.14	0.81
313.15	0.7249	950.46	0.82
313.15	0.7923	963.92	0.84
313.15	0.8623	978.8	0.86
313.15	0.9311	994.38	0.87
313.15	1	1011.05	0.89
318.15	0	839.42	0.7
318.15	0.0716	847.44	0.69
318.15	0.1445	856.08	0.7
318.15	0.2132	864.63	0.71
318.15	0.2871	874.35	0.72
318.15	0.3582	884.24	0.73
318.15	0.4358	895.67	0.75
318.15	0.5042	906.36	0.76
318.15	0.5846	919.72	0.77
318.15	0.6543	932.02	0.78
318.15	0.7249	945.23	0.8
318.15	0.7923	958.59	0.81
318.15	0.8623	973.35	0.82
318.15	0.9311	988.83	0.83
318.15	1	1005.42	0.89

System: 1,3,5-trimethylbenzene + 1,4-dioxane; phases: Liquid, Air at 1 atmosphere
Property: Refractive index (Na D-line) (Liquid); method: Standard Abbe refractometry
Temperature, K	Mole fraction of 1,4-dioxane	Refractive index (Na D-line)	uncertainty
288.15	0	1.502	0.0007
288.15	0.0696	1.4969	0.0007
288.15	0.1408	1.4916	0.0007
288.15	0.2098	1.4865	0.0007
288.15	0.28	1.4812	0.0007
288.15	0.3558	1.4755	0.0007
288.15	0.4276	1.4701	0.0007
288.15	0.5066	1.4641	0.0007
288.15	0.5801	1.4584	0.0007
288.15	0.6548	1.4525	0.0006
288.15	0.7227	1.447	0.0006
288.15	0.7936	1.4412	0.0006
288.15	0.8663	1.4354	0.0006
288.15	0.9319	1.43	0.0006
288.15	1	1.4245	0.0006
293.15	0	1.4995	0.0007
293.15	0.0696	1.4942	0.0007
293.15	0.1408	1.4889	0.0007
293.15	0.2098	1.4838	0.0007
293.15	0.28	1.4786	0.0007
293.15	0.3558	1.4729	0.0007
293.15	0.4276	1.4675	0.0007
293.15	0.5066	1.4615	0.0007
293.15	0.5801	1.4558	0.0007
293.15	0.6548	1.45	0.0007
293.15	0.7227	1.4445	0.0006
293.15	0.7936	1.4388	0.0006
293.15	0.8663	1.433	0.0006
293.15	0.9319	1.4277	0.0006
293.15	1	1.4224	0.0006
298.15	0	1.4969	0.0007
298.15	0.0696	1.4915	0.0007
298.15	0.1408	1.4862	0.0007
298.15	0.2098	1.4811	0.0007
298.15	0.28	1.4758	0.0007
298.15	0.3558	1.4702	0.0007
298.15	0.4276	1.4648	0.0007
298.15	0.5066	1.4589	0.0007
298.15	0.5801	1.4532	0.0007
298.15	0.6548	1.4474	0.0007
298.15	0.7227	1.442	0.0006
298.15	0.7936	1.4363	0.0006
298.15	0.8663	1.4306	0.0006
298.15	0.9319	1.4254	0.0006
298.15	1	1.4203	0.0006
303.15	0	1.4944	0.0007
303.15	0.0696	1.4888	0.0007
303.15	0.1408	1.4835	0.0007
303.15	0.2098	1.4784	0.0007
303.15	0.28	1.4731	0.0007
303.15	0.3558	1.4675	0.0007
303.15	0.4276	1.4622	0.0007
303.15	0.5066	1.4563	0.0007
303.15	0.5801	1.4506	0.0007
303.15	0.6548	1.4449	0.0007
303.15	0.7227	1.4395	0.0006
303.15	0.7936	1.4338	0.0006
303.15	0.8663	1.4282	0.0006
303.15	0.9319	1.4231	0.0006
303.15	1	1.4182	0.0006
308.15	0	1.4918	0.0007
308.15	0.0696	1.4861	0.0007
308.15	0.1408	1.4807	0.0007
308.15	0.2098	1.4756	0.0007
308.15	0.28	1.4703	0.0007
308.15	0.3558	1.4648	0.0007
308.15	0.4276	1.4595	0.0007
308.15	0.5066	1.4537	0.0007
308.15	0.5801	1.448	0.0007
308.15	0.6548	1.4423	0.0007
308.15	0.7227	1.437	0.0007
308.15	0.7936	1.4313	0.0006
308.15	0.8663	1.4257	0.0006
308.15	0.9319	1.4208	0.0006
308.15	1	1.4161	0.0006
313.15	0	1.4893	0.0007
313.15	0.0696	1.4834	0.0007
313.15	0.1408	1.4779	0.0007
313.15	0.2098	1.4729	0.0007
313.15	0.28	1.4676	0.0007
313.15	0.3558	1.4621	0.0007
313.15	0.4276	1.4568	0.0007
313.15	0.5066	1.451	0.0007
313.15	0.5801	1.4454	0.0007
313.15	0.6548	1.4397	0.0007
313.15	0.7227	1.4344	0.0007
313.15	0.7936	1.4288	0.0006
313.15	0.8663	1.4233	0.0006
313.15	0.9319	1.4184	0.0006
313.15	1	1.4139	0.0006
318.15	0	1.4868	0.0007
318.15	0.0696	1.4807	0.0006
318.15	0.1408	1.4751	0.0007
318.15	0.2098	1.4701	0.0007
318.15	0.28	1.4648	0.0007
318.15	0.3558	1.4593	0.0007
318.15	0.4276	1.4542	0.0007
318.15	0.5066	1.4484	0.0007
318.15	0.5801	1.4428	0.0007
318.15	0.6548	1.4371	0.0007
318.15	0.7227	1.4318	0.0007
318.15	0.7936	1.4263	0.0006
318.15	0.8663	1.4208	0.0006
318.15	0.9319	1.4161	0.0006
318.15	1	1.4117	0.0006

System: 1,3,5-trimethylbenzene + 1,4-dioxane; phases: Liquid, Air at 1 atmosphere
Property: Mass density, kg/m3 (Liquid); method: Pycnometric method
Temperature, K	Mole fraction of 1,4-dioxane	Mass density, kg/m3	uncertainty
288.15	0	869.28	0.63
288.15	0.0696	876.28	0.67
288.15	0.1408	883.83	0.69
288.15	0.2098	891.62	0.7
288.15	0.28	900.04	0.72
288.15	0.3558	909.87	0.74
288.15	0.4276	919.97	0.76
288.15	0.5066	932.03	0.79
288.15	0.5801	944.34	0.8
288.15	0.6548	957.96	0.83
288.15	0.7227	971.44	0.85
288.15	0.7936	986.75	0.87
288.15	0.8663	1003.78	0.9
288.15	0.9319	1020.49	0.92
288.15	1	1039.23	0.87
293.15	0	865.37	0.63
293.15	0.0696	872.24	0.64
293.15	0.1408	879.67	0.66
293.15	0.2098	887.36	0.67
293.15	0.28	895.68	0.69
293.15	0.3558	905.4	0.7
293.15	0.4276	915.4	0.72
293.15	0.5066	927.35	0.73
293.15	0.5801	939.54	0.75
293.15	0.6548	953.01	0.77
293.15	0.7227	966.36	0.79
293.15	0.7936	981.51	0.81
293.15	0.8663	998.39	0.83
293.15	0.9319	1014.96	0.85
293.15	1	1033.59	0.87
298.15	0	861.45	0.63
298.15	0.0696	868.2	0.65
298.15	0.1408	875.52	0.66
298.15	0.2098	883.1	0.68
298.15	0.28	891.32	0.69
298.15	0.3558	900.93	0.71
298.15	0.4276	910.83	0.72
298.15	0.5066	922.67	0.74
298.15	0.5801	934.74	0.75
298.15	0.6548	948.06	0.77
298.15	0.7227	961.28	0.79
298.15	0.7936	976.27	0.81
298.15	0.8663	993	0.83
298.15	0.9319	1009.43	0.85
298.15	1	1027.95	0.87
303.15	0	857.54	0.64
303.15	0.0696	864.16	0.65
303.15	0.1408	871.37	0.67
303.15	0.2098	878.84	0.68
303.15	0.28	886.96	0.7
303.15	0.3558	896.46	0.71
303.15	0.4276	906.26	0.73
303.15	0.5066	917.99	0.74
303.15	0.5801	929.94	0.76
303.15	0.6548	943.12	0.78
303.15	0.7227	956.21	0.8
303.15	0.7936	971.04	0.82
303.15	0.8663	987.61	0.84
303.15	0.9319	1003.91	0.86
303.15	1	1022.32	0.88
308.15	0	853.63	0.65
308.15	0.0696	860.13	0.66
308.15	0.1408	867.22	0.68
308.15	0.2098	874.59	0.69
308.15	0.28	882.6	0.7
308.15	0.3558	892	0.72
308.15	0.4276	901.7	0.73
308.15	0.5066	913.32	0.75
308.15	0.5801	925.14	0.77
308.15	0.6548	938.18	0.78
308.15	0.7227	951.14	0.8
308.15	0.7936	965.81	0.82
308.15	0.8663	982.23	0.84
308.15	0.9319	998.39	0.86
308.15	1	1016.68	0.88
313.15	0	849.71	0.65
313.15	0.0696	856.1	0.67
313.15	0.1408	863.07	0.68
313.15	0.2098	870.34	0.7
313.15	0.28	878.25	0.71
313.15	0.3558	887.54	0.72
313.15	0.4276	897.14	0.74
313.15	0.5066	908.65	0.75
313.15	0.5801	920.34	0.77
313.15	0.6548	933.25	0.79
313.15	0.7227	946.07	0.81
313.15	0.7936	960.58	0.83
313.15	0.8663	976.85	0.85
313.15	0.9319	992.87	0.87
313.15	1	1011.05	0.89
318.15	0	845.8	0.66
318.15	0.0696	852.07	0.66
318.15	0.1408	858.92	0.67
318.15	0.2098	866.09	0.68
318.15	0.28	873.9	0.69
318.15	0.3558	883.08	0.7
318.15	0.4276	892.58	0.71
318.15	0.5066	903.98	0.72
318.15	0.5801	915.54	0.74
318.15	0.6548	928.32	0.75
318.15	0.7227	941	0.77
318.15	0.7936	955.35	0.78
318.15	0.8663	971.47	0.8
318.15	0.9319	987.35	0.81
318.15	1	1005.42	0.89
