Measured thermophysical data. Phase Equilibria and Thermodynamic Properties of Some Branched Alkyl Ethers
Source: J. Chem. Eng. Data, 2009, 10.1021/je800998u
Compound 1: diisobutyl ether, C8H18O, InChI=1S/C8H18O/c1-7(2)5-9-6-8(3)4/h7-8H,5-6H2,1-4H3

System: diisobutyl ether; phases: Crystal 1, Liquid, Gas
Property: Molar enthalpy of transition or fusion, kJ/mol (Crystal 1); method: Adiabatic calorimetry
Molar enthalpy of transition or fusion, kJ/mol	uncertainty
11.33	0.23

System: diisobutyl ether; phases: Crystal 2, Crystal 1, Gas
Property: Molar enthalpy of transition or fusion, kJ/mol (Crystal 2); method: Adiabatic calorimetry
Molar enthalpy of transition or fusion, kJ/mol	uncertainty
1.8	0.19

System: diisobutyl ether; phases: Crystal 1, Liquid, Gas
Property: Triple point temperature, K (Crystal 1); method: Adiabatic calorimetry
Triple point temperature, K	uncertainty
190.4	0.15

System: diisobutyl ether; phases: Crystal 2, Crystal 1, Gas
Property: Triple point temperature, K (Crystal 2); method: Adiabatic calorimetry
Triple point temperature, K	uncertainty
170.71	0.4

System: diisobutyl ether; phases: Crystal 2
Fixed: Pressure, kPa = 101.325
Property: Molar heat capacity at constant pressure, J/K/mol (Crystal 2); method: Small (less than 1 g) adiabatic calorimetry
Temperature, K	Molar heat capacity at constant pressure, J/K/mol	uncertainty
10	2.519	0.064
15	7.709	0.13
20	14.73	0.2
25	22.61	0.25
30	30.39	0.25
35	37.65	0.29
40	44.52	0.32
45	51.04	0.36
50	57.22	0.39
55	63.54	0.42
60	69.69	0.45
65	75.34	0.48
70	80.28	0.5
75	84.76	0.52
80	89.65	0.55
85	94.92	0.58
90	100.3	0.6
95	105.3	0.6
100	109.7	0.6
110	118.6	0.7
120	128	0.7
130	137.1	0.8
140	147	0.8
150	158.9	0.8
160	171.1	0.9
170.71	184.2	0.9

System: diisobutyl ether; phases: Crystal 1
Fixed: Pressure, kPa = 101.325
Property: Molar heat capacity at constant pressure, J/K/mol (Crystal 1); method: Small (less than 1 g) adiabatic calorimetry
Temperature, K	Molar heat capacity at constant pressure, J/K/mol	uncertainty
170.71	172.2	0.9
180	193.8	1
190.4	218	1.1

System: diisobutyl ether; phases: Liquid
Fixed: Pressure, kPa = 101.325
Property: Molar heat capacity at constant pressure, J/K/mol (Liquid); method: Small (less than 1 g) adiabatic calorimetry
Temperature, K	Molar heat capacity at constant pressure, J/K/mol	uncertainty
190.4	241.1	1.2
200	243.7	1.2
210	246.3	1.2
220	248.9	1.2
230	251.9	1.2
240	255	1.2
250	258.3	1.2
260	261.8	1.2
270	265.3	1.3
280	269	1.3
290	272.8	1.3
298.15	276.08	1.3
300	276.8	1.3
310	280.8	1.3
320	285	1.3
330	289.5	1.4
340	294.7	1.4
350	300	1.4
360	304.4	1.4
370	308.9	1.4

System: diisobutyl ether; phases: Crystal 2
Fixed: Pressure, kPa = 101.325
Property: Molar heat capacity at constant pressure, J/K/mol (Crystal 2); method: Small (less than 1 g) adiabatic calorimetry
Temperature, K	Molar heat capacity at constant pressure, J/K/mol	uncertainty
8.82	1.7181	0.0498
9.09	1.8726	0.0526
9.35	2.0438	0.055
9.61	2.2751	0.0585
9.86	2.4295	0.0608
10.18	2.6503	0.0637
10.58	2.9365	0.0684
10.96	3.3129	0.0744
11.34	3.6847	0.0794
11.75	4.0777	0.0845
12.13	4.4336	0.0893
12.5	4.8028	0.0943
12.88	5.199	0.0994
13.25	5.5841	0.1047
13.61	6.0399	0.1108
13.98	6.5051	0.1164
14.34	6.9406	0.1216
14.71	7.4196	0.127
15.07	7.8158	0.131
15.44	8.1984	0.1351
15.8	8.6077	0.1407
16.15	9.1092	0.146
16.51	9.7056	0.1529
16.86	10.125	0.157
17.21	10.683	0.162
17.57	11.145	0.167
17.92	11.795	0.174
18.28	12.135	0.176
18.63	12.703	0.181
18.98	13.244	0.187
19.33	13.711	0.19
19.68	14.255	0.195
20.03	14.695	0.199
20.68	15.811	0.208
21.44	17.009	0.216
22.21	18.145	0.224
22.97	19.357	0.231
23.73	20.466	0.237
24.49	21.773	0.244
25.25	22.848	0.248
26	24.227	0.255
26.76	25.534	0.259
27.53	26.72	0.262
28.29	27.814	0.263
29.04	29.053	0.265
29.8	29.996	0.264
30.56	31.033	0.257
31.31	32.447	0.264
32.07	33.455	0.269
32.84	34.564	0.274
33.59	35.677	0.28
34.35	36.742	0.285
35.1	37.873	0.291
35.86	38.82	0.295
36.61	39.802	0.3
37.36	40.716	0.305
38.11	42.008	0.312
38.86	43.027	0.316
39.62	44.081	0.322
40.37	45.103	0.327
41.12	46.174	0.332
41.87	47.049	0.336
42.62	47.912	0.341
43.37	48.99	0.346
44.12	49.846	0.35
44.88	50.686	0.354
45.63	51.786	0.36
46.38	52.937	0.366
47.13	53.72	0.369
47.88	54.523	0.373
48.63	55.627	0.379
49.38	56.467	0.383
50.12	57.394	0.388
50.87	58.265	0.392
51.62	59.173	0.397
52.36	60.073	0.401
53.11	61.058	0.406
53.85	62.179	0.412
54.6	63.087	0.416
55.34	63.953	0.421
56.09	64.953	0.426
56.83	66.041	0.432
57.57	67.47	0.438
59.06	68.357	0.442
59.81	69.156	0.446
60.55	69.924	0.45
61.29	71.034	0.456
62.03	72.133	0.461
62.77	72.847	0.465
63.51	73.59	0.469
64.25	74.594	0.474
64.99	75.441	0.478
65.73	76.13	0.481
66.47	76.735	0.484
67.21	77.804	0.49
67.95	78.525	0.493
68.69	79.399	0.497
69.43	79.642	0.498
70.16	80.501	0.503
71.06	80.989	0.505
72.11	81.813	0.51
73.16	83.201	0.517
74.21	84.218	0.521
75.26	84.923	0.525
76.31	85.847	0.53
77.36	86.851	0.535
77.99	88.206	0.541
78.41	87.748	0.539
79.13	89.099	0.546
79.45	89.044	0.546
80.18	90.023	0.55
80.5	89.994	0.551
81.22	91.363	0.557
81.55	90.948	0.555
82.26	92.278	0.562
82.59	92.152	0.561
83.3	92.879	0.565
83.63	93.226	0.566
84.34	93.834	0.569
84.68	93.862	0.57
85.37	94.921	0.576
85.72	96.141	0.582
86.41	96.897	0.585
87.44	97.855	0.59
88.48	98.965	0.595
89.51	100	0.6
90.55	101.18	0.61
91.58	101.87	0.61
92.61	102.82	0.61
93.65	104.36	0.62
94.68	104.93	0.62
95.71	105.7	0.62
96.75	106.52	0.63
97.78	107.57	0.63
98.81	108.62	0.63
99.84	109.08	0.64
100.86	110.59	0.64
101.89	111.96	0.65
102.92	112.24	0.65
103.95	113.24	0.65
104.98	114.44	0.66
106.01	115.08	0.66
107.04	116.13	0.66
108.06	116.43	0.67
109.09	117.54	0.67
110.11	118.56	0.67
111.14	119.31	0.68
112.16	120.35	0.68
113.18	121.34	0.69
114.21	122.79	0.69
115.23	123.92	0.7
116.25	124.47	0.7
117.27	125.86	0.7
118.29	126.81	0.71
119.32	127.51	0.71
120.34	128.32	0.71
121.36	129.04	0.72
122.38	130.15	0.72
123.4	131.15	0.72
124.42	131.86	0.73
125.44	132.59	0.73
126.46	133.8	0.74
127.47	134.67	0.74
128.49	135.82	0.74
129.51	137.05	0.75
130.53	137.63	0.75
131.54	138.57	0.75
132.56	139.45	0.76
133.57	140.23	0.76
134.59	141.56	0.77
135.6	142.61	0.77
136.62	143.17	0.77
137.63	144.11	0.78
138.64	145.82	0.78
139.66	146.49	0.79
140.67	147.66	0.79
141.68	148.47	0.79
142.69	150.03	0.8
143.69	151.09	0.8
144.7	152.64	0.81
145.71	153.6	0.81
146.72	154.66	0.82
147.73	156	0.82
148.74	157.59	0.83
149.74	159.31	0.84
150.75	160.48	0.84
151.76	162.28	0.85
152.76	163.63	0.85
153.77	165.04	0.86
154.77	166.47	0.87
155.77	168.44	0.87
156.77	170.7	0.88
157.77	172.77	0.89
158.77	174.55	0.9
159.76	176.89	0.91
160.22	177.95	0.91
161.05	179.83	0.92
161.87	182.1	0.93
162.69	184.81	0.94
163.5	188	0.95
164.29	190.62	0.97
165.08	194.31	0.98
165.86	198.38	1
166.64	203.33	1.02
167.41	209.11	1.05
168.16	214.73	1.08
168.9	223.05	1.13
169.63	234.85	1.41
170.31	282.57	1.93

System: diisobutyl ether; phases: Crystal 1
Fixed: Pressure, kPa = 101.325
Property: Molar heat capacity at constant pressure, J/K/mol (Crystal 1); method: Small (less than 1 g) adiabatic calorimetry
Temperature, K	Molar heat capacity at constant pressure, J/K/mol	uncertainty
171.96	180.54	0.92
172.76	180.42	0.92
173.54	180.19	0.92
174.34	181.2	0.93
175.14	182.92	0.93
175.93	183.75	0.94
176.72	185.64	0.94
177.5	187.45	0.95
178.28	189.66	0.96
179.05	192.53	0.97
179.81	195.2	0.98

System: diisobutyl ether; phases: Liquid
Fixed: Pressure, kPa = 101.325
Property: Molar heat capacity at constant pressure, J/K/mol (Liquid); method: Small (less than 1 g) adiabatic calorimetry
Temperature, K	Molar heat capacity at constant pressure, J/K/mol	uncertainty
205.51	245.31	1.18
207.14	245.51	1.18
208.62	246.05	1.18
210.09	246.27	1.19
211.57	246.56	1.19
213.04	247.06	1.19
214.48	247.32	1.19
215.95	247.78	1.19
217.42	248.16	1.19
218.89	248.58	1.19
220.35	248.91	1.2
221.82	249.16	1.2
223.28	249.85	1.2
224.74	250.34	1.2
226.2	250.85	1.2
227.65	251.29	1.21
229.11	251.85	1.21
230.56	252.2	1.21
232.02	252.69	1.21
233.46	252.85	1.21
234.91	253.44	1.21
236.36	253.83	1.22
237.75	254.25	1.22
239.2	254.81	1.22
240.64	255.42	1.22
242.08	255.9	1.22
243.52	256	1.22
244.96	256.76	1.23
246.39	256.99	1.23
247.83	257.45	1.23
249.26	257.99	1.23
250.69	258.39	1.23
252.11	258.84	1.24
253.54	259.49	1.24
254.96	259.95	1.24
256.39	260.62	1.24
257.8	260.96	1.24
259.22	261.75	1.25
260.56	261.97	1.25
261.97	262.87	1.25
263.39	262.95	1.25
264.79	263.61	1.25
266.2	263.86	1.26
267.6	264.22	1.26
269	264.8	1.26
270.4	265.39	1.26
271.8	265.93	1.26
273.19	266.68	1.27
274.58	266.81	1.27
275.97	267.53	1.27
277.36	267.85	1.27
278.74	268.3	1.27
281.5	269.6	1.28
282.78	270.45	1.28
284.16	270.8	1.28
285.53	271.08	1.28
286.9	271.46	1.29
288.26	271.98	1.29
289.62	272.75	1.29
290.98	273.36	1.29
292.34	273.73	1.29
293.69	274.04	1.3
295.04	275.21	1.3
296.39	275.08	1.3
297.73	275.64	1.3
299.07	276.44	1.31
300.41	277.1	1.31
301.75	277.51	1.31
303.04	278.07	1.31
304.14	278.56	1.31
305.42	279.01	1.32
306.7	279.35	1.32
307.97	279.87	1.32
309.24	280.81	1.32
310.5	280.87	1.32
311.76	281.46	1.33
313.02	282.03	1.33
314.27	282.55	1.33
315.52	282.93	1.33
316.76	283.81	1.34
318	284.25	1.34
319.23	284.87	1.34
320.46	285.2	1.34
321.69	285.88	1.34
322.91	286.38	1.35
323.9	286.65	1.35
325.11	287.21	1.35
326.32	287.74	1.35
327.53	288.35	1.35
328.73	288.89	1.36
329.92	289.24	1.36
331.11	289.99	1.36
332.3	290.62	1.36
333.48	291.36	1.37
334.66	291.41	1.37
335.83	292.26	1.37
337	292.85	1.37
338.16	293.71	1.37
339.32	294.5	1.38
340.48	295.14	1.38
343.62	297.13	1.39
344.76	297.38	1.39
345.9	297.62	1.39
347.04	298.5	1.39
348.17	299	1.4
350.41	300.11	1.4
351.51	300.37	1.4
352.61	301.47	1.41
353.7	302.2	1.41
354.79	302.27	1.41
355.88	302.92	1.41
356.96	303.07	1.41
358.04	303.49	1.41
359.11	304.07	1.42
359.83	304.07	1.42
360.9	304.89	1.42
361.96	305.2	1.42
363.02	305.35	1.42
364.07	305.71	1.42
365.12	305.76	1.42
366.14	306.97	1.43
367.16	307.23	1.43
368.17	308	1.43
369.17	308.72	1.43
370.15	309.38	1.44
371.14	309.88	1.44
372.11	310.26	1.44

System: diisobutyl ether; phases: Crystal 2
Fixed: Pressure, kPa = 101.325
Property: Molar enthalpy, kJ/mol (Crystal 2); method: Small (less than 1 g) adiabatic calorimetry
Temperature, K	Molar enthalpy, kJ/mol	uncertainty
10	0.00489	0.0003
15	0.02946	0.00073
20	0.08497	0.00145
25	0.1782	0.0023
30	0.3109	0.0046
35	0.4812	0.006
40	0.6867	0.0075
45	0.9258	0.0092
50	1.197	0.011
55	1.498	0.013
60	1.832	0.015
65	2.194	0.018
70	2.584	0.02
75	2.996	0.023
80	3.432	0.025
85	3.893	0.028
90	4.382	0.036
95	4.896	0.039
100	5.434	0.042
110	6.575	0.048
120	7.808	0.055
130	9.134	0.063
140	10.55	0.07
150	12.08	0.08
160	13.73	0.09
170.71	15.63	0.1

System: diisobutyl ether; phases: Crystal 1
Fixed: Pressure, kPa = 101.325
Property: Molar enthalpy, kJ/mol (Crystal 1); method: Small (less than 1 g) adiabatic calorimetry
Temperature, K	Molar enthalpy, kJ/mol	uncertainty
170.71	17.43	0.1
180	19.13	0.11
190.4	21.28	0.12

System: diisobutyl ether; phases: Liquid
Fixed: Pressure, kPa = 101.325
Property: Molar enthalpy, kJ/mol (Liquid); method: Small (less than 1 g) adiabatic calorimetry
Temperature, K	Molar enthalpy, kJ/mol	uncertainty
190.4	32.61	0.17
200	34.99	0.18
210	37.43	0.19
220	39.89	0.2
230	42.38	0.22
240	44.91	0.23
250	47.47	0.24
260	50.07	0.25
270	52.7	0.26
280	55.37	0.28
290	58.08	0.29
298.15	60.32	0.3
300	60.83	0.3
310	63.62	0.32
320	66.45	0.33
330	69.32	0.34
340	72.24	0.36
350	75.21	0.37
360	78.24	0.39
370	81.3	0.4

System: diisobutyl ether; phases: Liquid, Gas
Property: Vapor or sublimation pressure, kPa (Liquid); method: Ebulliometric method (Recirculating still)
Temperature, K	Vapor or sublimation pressure, kPa	uncertainty
330.897	10.75	0.026
336.085	13.367	0.03
341.657	16.757	0.037
347.208	20.788	0.045
352.09	24.972	0.053
357.887	30.787	0.064
363.268	37.121	0.077
369.46	45.657	0.094
375.779	55.915	0.114
381.766	67.259	0.137
388.147	81.297	0.164
392.777	92.876	0.187
393.582	94.998	0.191
394.367	97.12	0.195
395.145	99.281	0.2

System: diisobutyl ether; phases: Crystal 2
Fixed: Pressure, kPa = 101.325
Property: Molar entropy, J/K/mol (Crystal 2); method: Small (less than 1 g) adiabatic calorimetry
Temperature, K	Molar entropy, J/K/mol	uncertainty
10	0.4387	0.0413
15	2.36	0.08
20	5.506	0.13
25	9.633	0.175
30	14.45	0.26
35	19.69	0.3
40	25.17	0.34
45	30.79	0.38
50	36.49	0.42
55	42.24	0.47
60	48.03	0.51
65	53.84	0.55
70	59.61	0.6
75	65.3	0.64
80	70.92	0.68
85	76.51	0.72
90	82.09	0.79
95	87.65	0.83
100	93.17	0.86
110	104	0.9
120	114.8	1
130	125.4	1.1
140	135.9	1.1
150	146.4	1.2
160	157.1	1.2
170.71	168.6	1.3

System: diisobutyl ether; phases: Crystal 1
Fixed: Pressure, kPa = 101.325
Property: Molar entropy, J/K/mol (Crystal 1); method: Small (less than 1 g) adiabatic calorimetry
Temperature, K	Molar entropy, J/K/mol	uncertainty
170.71	179.1	1.4
180	188.8	1.4
190.4	200.4	1.5

System: diisobutyl ether; phases: Liquid
Fixed: Pressure, kPa = 101.325
Property: Molar entropy, J/K/mol (Liquid); method: Small (less than 1 g) adiabatic calorimetry
Temperature, K	Molar entropy, J/K/mol	uncertainty
190.4	259.9	1.9
200	272.1	1.9
210	284	2
220	295.5	2.1
230	306.6	2.1
240	317.3	2.2
250	327.8	2.3
260	338	2.3
270	348	2.4
280	357.7	2.4
290	367.2	2.5
298.15	374.8	2.5
300	376.5	2.6
310	385.6	2.6
320	394.6	2.7
330	403.5	2.7
340	412.1	2.8
350	420.8	2.8
360	429.3	2.9
370	437.7	2.9

System: diisobutyl ether; phases: Liquid
Fixed: Pressure, kPa = 101.325
Property: Mass density, kg/m3 (Liquid); method: Pycnometric method
Temperature, K	Mass density, kg/m3	uncertainty
298.06	748.62	0.79
298.07	748.49	0.82
298.09	748.45	0.82
298.14	748.69	0.82
298.18	748.69	0.82
298.22	748.09	1.01
302.68	743.72	0.79
302.73	744.19	1.08
302.79	743.67	0.91
302.81	744.14	0.79
302.83	743.5	0.98
302.86	743.47	0.82
312.72	733.67	0.78
312.95	733.53	0.78
312.99	733.64	0.78
313.02	733.56	0.78
313.03	734	0.93
