Measured thermophysical data. Surface Tension of 2,2-Dimethylbutane from (233 to 378) K
Source: J. Chem. Eng. Data, 2009, 10.1021/je8007952
Compound 1: 2,2-dimethylbutane, C6H14, InChI=1S/C6H14/c1-5-6(2,3)4/h5H2,1-4H3, purity 99%
Compound 2: heptane, C7H16, InChI=1S/C7H16/c1-3-5-7-6-4-2/h3-7H2,1-2H3, purity 99.9%

System: 2,2-dimethylbutane; phases: Liquid, Gas
Property: Surface tension liquid-gas, N/m (Liquid); method: Capillary rise
Temperature, K	Surface tension liquid-gas, N/m	uncertainty
233.085	0.02246	0.00042
238.102	0.02204	0.00042
243.135	0.02141	0.00042
248.108	0.02097	0.00042
253.116	0.02034	0.00042
258.125	0.01978	0.00042
263.127	0.01931	0.00042
268.102	0.01876	0.00041
273.099	0.01832	0.00041
278.081	0.0178	0.00041
283.09	0.01721	0.00041
288.173	0.01669	0.00041
293.124	0.01623	0.00041
298.095	0.0157	0.00041
303.174	0.01513	0.00041
308.126	0.01449	0.00041
313.125	0.0141	0.00041
318.126	0.01359	0.00041
323.135	0.0132	0.00041
328.125	0.01261	0.00041
333.13	0.01214	0.00041
338.132	0.01175	0.00041
343.132	0.01126	0.00041
348.126	0.01068	0.00041
353.126	0.01026	0.00041
358.124	0.00979	0.00041
363.128	0.00927	0.00041
368.124	0.00888	0.0004
373.128	0.00851	0.0004
378.234	0.008	0.0004

System: heptane; phases: Liquid, Gas
Property: Surface tension liquid-gas, N/m (Liquid); method: Capillary rise
Temperature, K	Surface tension liquid-gas, N/m	uncertainty
303.489	0.01946	0.0004
313.132	0.01824	0.0004
318.493	0.0177	0.0004
323.153	0.01719	0.0004
328.125	0.01658	0.0004
333.126	0.01623	0.0004
338.136	0.01581	0.0004
343.125	0.01524	0.0004
348.126	0.01485	0.0004
358.12	0.01399	0.0004
