Measured thermophysical data. Density, Viscosity, and Surface Tension of Synthesis Grade Imidazolium, Pyridinium, and Pyrrolidinium Based Room Temperature Ionic Liquids
Source: J. Chem. Eng. Data, 2009, 10.1021/je800710p
Compound 1: 1-methylimidazolium tetrafluoroborate, C4H7BF4N2, InChI=1S/C4H6N2.BF4/c1-6-3-2-5-4-6;2-1(3,4)5/h2-4H,1H3;/q;-1/p+1
Compound 2: 1-butyl-3-methylimidazolium tetrafluoroborate, C8H15BF4N2, InChI=1S/C8H15N2.BF4/c1-3-4-5-10-7-6-9(2)8-10;2-1(3,4)5/h6-8H,3-5H2,1-2H3;/q+1;-1
Compound 3: 1-methyl-3-octylimidazolium tetrafluoroborate, C12H23BF4N2, InChI=1S/C12H23N2.BF4/c1-3-4-5-6-7-8-9-14-11-10-13(2)12-14;2-1(3,4)5/h10-12H,3-9H2,1-2H3;/q+1;-1
Compound 4: 1-butyl-4-methylpyridinium tetrafluoroborate, C10H16BF4N, InChI=1S/C10H16N.BF4/c1-3-4-7-11-8-5-10(2)6-9-11;2-1(3,4)5/h5-6,8-9H,3-4,7H2,1-2H3;/q+1;-1
Compound 5: 1-butyl-3-methylimidazolium dicyanamide, C10H15N5, InChI=1S/C8H15N2.C2N3/c1-3-4-5-10-7-6-9(2)8-10;3-1-5-2-4/h6-8H,3-5H2,1-2H3;/q+1;-1
Compound 6: 1-butyl-3-methylpyridinium dicyanamide, C12H16N4, InChI=1S/C10H16N.C2N3/c1-3-4-7-11-8-5-6-10(2)9-11;3-1-5-2-4/h5-6,8-9H,3-4,7H2,1-2H3;/q+1;-1
Compound 7: 1-butyl-1-methylpyrrolidinium dicyanamide, C11H20N4, InChI=1S/C9H20N.C2N3/c1-3-4-7-10(2)8-5-6-9-10;3-1-5-2-4/h3-9H2,1-2H3;/q+1;-1, purity 98%
Compound 8: 1-butyl-3-methylimidazolium methyl sulfate, C9H18N2O4S, InChI=1S/C8H15N2.CH4O4S/c1-3-4-5-10-7-6-9(2)8-10;1-5-6(2,3)4/h6-8H,3-5H2,1-2H3;1H3,(H,2,3,4)/q+1;/p-1, purity 95%
Compound 9: N-butyl-3-methylpyridinium methylsulfate, C11H19NO4S, InChI=1S/C10H16N.CH4O4S/c1-3-4-7-11-8-5-6-10(2)9-11;1-5-6(2,3)4/h5-6,8-9H,3-4,7H2,1-2H3;1H3,(H,2,3,4)/q+1;/p-1
Compound 10: 1-butyl-3-methylimidazolium thiocyanate, C9H15N3S, InChI=1S/C8H15N2.CHNS/c1-3-4-5-10-7-6-9(2)8-10;2-1-3/h6-8H,3-5H2,1-2H3;3H/q+1;/p-1, purity 95%
Compound 11: 1-butyl-4-methylpyridinium thiocyanate, C11H16N2S, InChI=1S/C10H16N.CHNS/c1-3-4-7-11-8-5-10(2)6-9-11;2-1-3/h5-6,8-9H,3-4,7H2,1-2H3;3H/q+1;/p-1
Compound 12: 1-butyl-1-methylpyrrolidinium thiocyanate, C10H20N2S, InChI=1S/C9H20N.CHNS/c1-3-4-7-10(2)8-5-6-9-10;2-1-3/h3-9H2,1-2H3;3H/q+1;/p-1
Compound 13: 1-butyl-1-methylpyrrolidinium trifluoroacetate, C11H20F3NO2, InChI=1S/C9H20N.C2HF3O2/c1-3-4-7-10(2)8-5-6-9-10;3-2(4,5)1(6)7/h3-9H2,1-2H3;(H,6,7)/q+1;/p-1

System: 1-methylimidazolium tetrafluoroborate; phases: Liquid
Fixed: Pressure, kPa = 100
Property: Mass density, kg/m3 (Liquid); method: Vibrating tube method
Temperature, K	Mass density, kg/m3	uncertainty
293.15	1387.97	10.52
303.15	1379.82	10.39
313.15	1371.83	10.27
323.15	1363.61	10.15
333.15	1355.66	10.03
343.15	1348.06	9.92
353.15	1339.46	9.79
363.15	1331.56	9.67

System: 1-butyl-3-methylimidazolium tetrafluoroborate; phases: Liquid, Air at 1 atmosphere
Property: Surface tension liquid-gas, N/m (Liquid); method: Ring tensiometer
Temperature, K	Surface tension liquid-gas, N/m	uncertainty
293.65	0.0446	0.0013
303.35	0.0438	0.0013
312.85	0.0433	0.0013
312.95	0.0432	0.0014
322.55	0.0425	0.0013
322.65	0.0425	0.0013
332.25	0.0421	0.0012
341.95	0.042	0.0013
351.55	0.041	0.0012
360.95	0.0403	0.0012

System: 1-butyl-3-methylimidazolium tetrafluoroborate; phases: Liquid
Fixed: Pressure, kPa = 100
Property: Viscosity, Pa*s (Liquid); method: Capillary tube (Ostwald; Ubbelohde) method
Temperature, K	Viscosity, Pa*s	uncertainty
283.15	0.2481	0.0117
293.15	0.1369	0.0052
303.15	0.0795	0.0033
313.15	0.0505	0.0021
323.15	0.0341	0.0013
333.15	0.0242	0.0009
343.15	0.0179	0.0007
353.15	0.0138	0.0006
363.15	0.0107	0.0004

System: 1-butyl-3-methylimidazolium tetrafluoroborate; phases: Liquid
Fixed: Pressure, kPa = 100
Property: Mass density, kg/m3 (Liquid); method: Vibrating tube method
Temperature, K	Mass density, kg/m3	uncertainty
283.15	1213.09	8.01
293.15	1205.7	7.91
303.15	1198.38	7.81
313.15	1191.18	7.72
323.15	1184.06	7.62
333.15	1177.03	7.53
343.15	1170.06	7.44
353.15	1163.16	7.35
363.15	1156.3	7.26

System: 1-methyl-3-octylimidazolium tetrafluoroborate; phases: Liquid, Air at 1 atmosphere
Property: Surface tension liquid-gas, N/m (Liquid); method: Ring tensiometer
Temperature, K	Surface tension liquid-gas, N/m	uncertainty
298.45	0.0323	0.0011
303.35	0.032	0.001
313.15	0.0316	0.001
323.05	0.0309	0.001
332.85	0.0304	0.001
343.15	0.0297	0.0011
352.95	0.0291	0.0011
361.85	0.0287	0.001

System: 1-methyl-3-octylimidazolium tetrafluoroborate; phases: Liquid
Fixed: Pressure, kPa = 100
Property: Viscosity, Pa*s (Liquid); method: Capillary tube (Ostwald; Ubbelohde) method
Temperature, K	Viscosity, Pa*s	uncertainty
283.15	0.8953	0.0498
293.15	0.4476	0.0218
303.15	0.2417	0.0106
313.15	0.1412	0.0053
323.15	0.0888	0.0033
333.15	0.0577	0.0022
343.15	0.0394	0.0014
353.15	0.0281	0.0009
363.15	0.0208	0.0007

System: 1-methyl-3-octylimidazolium tetrafluoroborate; phases: Liquid
Fixed: Pressure, kPa = 100
Property: Mass density, kg/m3 (Liquid); method: Vibrating tube method
Temperature, K	Mass density, kg/m3	uncertainty
283.15	1114.11	6.73
293.15	1107.22	6.65
303.15	1100.36	6.57
313.15	1093.64	6.48
323.15	1087.01	6.4
333.15	1080.38	6.32
343.15	1073.79	6.25
353.15	1067.22	6.17
363.15	1060.71	6.09

System: 1-butyl-4-methylpyridinium tetrafluoroborate; phases: Liquid, Air at 1 atmosphere
Property: Surface tension liquid-gas, N/m (Liquid); method: Ring tensiometer
Temperature, K	Surface tension liquid-gas, N/m	uncertainty
291.15	0.0451	0.0013
294.25	0.0446	0.0013
298.65	0.0451	0.0013
300.15	0.0452	0.0013
303.95	0.0447	0.0013
304.05	0.0446	0.0013
311.85	0.0446	0.0014
311.85	0.0442	0.0013
314.15	0.0445	0.0014
320.25	0.0437	0.0013
322.05	0.0436	0.0013
330.95	0.0431	0.0013
331.55	0.043	0.0013
341.75	0.0427	0.0013
342.45	0.0423	0.0013
350.75	0.0425	0.0014

System: 1-butyl-4-methylpyridinium tetrafluoroborate; phases: Liquid
Fixed: Pressure, kPa = 100
Property: Viscosity, Pa*s (Liquid); method: Capillary tube (Ostwald; Ubbelohde) method
Temperature, K	Viscosity, Pa*s	uncertainty
298.15	0.2028	0.0081
301.15	0.1731	0.0068
305.15	0.1347	0.0052
308.15	0.101	0.0036
318.15	0.0623	0.0021
328.15	0.0396	0.0013
338.15	0.0268	0.0009
348.15	0.019	0.0007

System: 1-butyl-4-methylpyridinium tetrafluoroborate; phases: Liquid
Fixed: Pressure, kPa = 100
Property: Mass density, kg/m3 (Liquid); method: Vibrating tube method
Temperature, K	Mass density, kg/m3	uncertainty
293.15	1192.98	7.74
303.15	1186.06	7.65
313.15	1179.3	7.56
323.15	1172.52	7.47
333.15	1165.77	7.39
343.15	1159.03	7.3
353.15	1152.33	7.21
363.15	1145.65	7.13

System: 1-butyl-3-methylimidazolium dicyanamide; phases: Liquid, Air at 1 atmosphere
Property: Surface tension liquid-gas, N/m (Liquid); method: Ring tensiometer
Temperature, K	Surface tension liquid-gas, N/m	uncertainty
293.15	0.0486	0.0011
294.45	0.0488	0.0011
298.15	0.0486	0.001
303.3	0.0486	0.001
303.55	0.0485	0.001
316.15	0.0472	0.001
325.15	0.0463	0.001
332.05	0.0457	0.001
332.85	0.0455	0.001
341.15	0.0458	0.001
344.15	0.045	0.001
344.15	0.045	0.001

System: 1-butyl-3-methylimidazolium dicyanamide; phases: Liquid
Fixed: Pressure, kPa = 100
Property: Viscosity, Pa*s (Liquid); method: Capillary tube (Ostwald; Ubbelohde) method
Temperature, K	Viscosity, Pa*s	uncertainty
293.15	0.0332	0.0009
303.15	0.0244	0.0006
313.15	0.0168	0.0004
323.15	0.0124	0.0003
333.15	0.0089	0.001
343.15	0.0066	0.0005
353.15	0.0047	0.0009
363.15	0.0038	0.0007

System: 1-butyl-3-methylimidazolium dicyanamide; phases: Liquid
Fixed: Pressure, kPa = 100
Property: Mass density, kg/m3 (Liquid); method: VIBTUB:UFactor:16
Temperature, K	Mass density, kg/m3	uncertainty
293.15	1062.05	2.97
303.15	1055.46	2.91
313.15	1049.22	2.84
323.15	1043	2.78
333.15	1036.78	2.72
343.15	1030.63	2.66
353.15	1024.54	2.6
363.15	1018.49	2.54

System: 1-butyl-3-methylpyridinium dicyanamide; phases: Liquid, Air at 1 atmosphere
Property: Surface tension liquid-gas, N/m (Liquid); method: Ring tensiometer
Temperature, K	Surface tension liquid-gas, N/m	uncertainty
293.15	0.0437	0.0014
293.25	0.0434	0.0015
304.15	0.0423	0.0012
304.15	0.0423	0.0012
312.15	0.0391	0.0012
314.05	0.042	0.0013
314.05	0.042	0.0013
322.35	0.0394	0.0012
322.95	0.0407	0.0013
330.25	0.039	0.0012
331.15	0.0384	0.0012
340.35	0.0385	0.0012
340.45	0.0383	0.0012
340.75	0.0387	0.0012
341.55	0.0376	0.0011
342.35	0.0372	0.0011
349.95	0.0368	0.0011
350.45	0.0363	0.0011

System: 1-butyl-3-methylpyridinium dicyanamide; phases: Liquid
Fixed: Pressure, kPa = 100
Property: Viscosity, Pa*s (Liquid); method: Capillary tube (Ostwald; Ubbelohde) method
Temperature, K	Viscosity, Pa*s	uncertainty
298.15	0.0352	0.0012
301.15	0.031	0.001
305.15	0.0264	0.0009
308.15	0.0231	0.0008
318.15	0.0168	0.0006
328.15	0.0124	0.0008
338.15	0.0095	0.0005
348.15	0.0075	0.0005

System: 1-butyl-3-methylpyridinium dicyanamide; phases: Liquid
Fixed: Pressure, kPa = 100
Property: Mass density, kg/m3 (Liquid); method: Vibrating tube method
Temperature, K	Mass density, kg/m3	uncertainty
293.15	1051.71	5.98
303.15	1045.64	5.91
313.15	1039.62	5.84
323.15	1033.65	5.78
333.15	1027.73	5.71
343.15	1021.86	5.64
353.15	1016.04	5.58
363.15	1010.26	5.51

System: 1-butyl-1-methylpyrrolidinium dicyanamide; phases: Liquid, Air at 1 atmosphere
Property: Surface tension liquid-gas, N/m (Liquid); method: Ring tensiometer
Temperature, K	Surface tension liquid-gas, N/m	uncertainty
293.05	0.0562	0.001
293.45	0.0564	0.001
303.45	0.0558	0.001
303.55	0.0558	0.001
312.45	0.0548	0.0009
312.45	0.054	0.0009
322.15	0.0538	0.0009
322.35	0.0537	0.0009
331.95	0.0533	0.0009
332.15	0.0531	0.0009
342.55	0.0516	0.0009
342.65	0.0516	0.0009
352.85	0.0508	0.0011
352.95	0.0511	0.0011
353.45	0.0512	0.0009

System: 1-butyl-1-methylpyrrolidinium dicyanamide; phases: Liquid
Fixed: Pressure, kPa = 100
Property: Mass density, kg/m3 (Liquid); method: VIBTUB:UFactor:12
Temperature, K	Mass density, kg/m3	uncertainty
293.15	1118.7	100
303.15	1112.54	100
313.15	1106.44	100
323.15	1100.43	100
333.15	1094.43	100
343.15	1088.52	100
353.15	1082.69	100
363.15	1077.02	100

System: 1-butyl-3-methylimidazolium methyl sulfate; phases: Liquid, Air at 1 atmosphere
Property: Surface tension liquid-gas, N/m (Liquid); method: Ring tensiometer
Temperature, K	Surface tension liquid-gas, N/m	uncertainty
294.55	0.0429	0.0013
295.45	0.0434	0.0015
295.55	0.043	0.0015
302.75	0.0427	0.0013
302.85	0.0428	0.0013
309.65	0.0441	0.0037
309.75	0.0424	0.0014
310.15	0.0423	0.0012
310.65	0.0425	0.0013
320.45	0.0417	0.0012
321.55	0.0419	0.0013
331.45	0.0413	0.0014
331.55	0.041	0.0014
331.55	0.0413	0.0012
340.35	0.0415	0.002
340.45	0.0407	0.002
342.35	0.0381	0.0012
342.65	0.0387	0.0012
353.15	0.038	0.0011
353.75	0.0382	0.0011
354.35	0.0377	0.0011

System: 1-butyl-3-methylimidazolium methyl sulfate; phases: Liquid
Fixed: Pressure, kPa = 100
Property: Mass density, kg/m3 (Liquid); method: Vibrating tube method
Temperature, K	Mass density, kg/m3	uncertainty
293.15	1210.18	7.97
303.15	1203.6	7.88
313.15	1197.06	7.79
323.15	1190.52	7.71
333.15	1184.01	7.62
343.15	1177.54	7.54
353.15	1171.1	7.46
363.15	1164.7	7.37

System: N-butyl-3-methylpyridinium methylsulfate; phases: Liquid
Fixed: Pressure, kPa = 100
Property: Mass density, kg/m3 (Liquid); method: Vibrating tube method
Temperature, K	Mass density, kg/m3	uncertainty
293.15	1216.05	8.05
303.15	1209.46	7.96
313.15	1202.69	7.87
323.15	1196.26	7.78
333.15	1189.71	7.7
343.15	1183.29	7.61
353.15	1176.87	7.53
363.15	1170.24	7.44

System: 1-butyl-3-methylimidazolium thiocyanate; phases: Liquid, Air at 1 atmosphere
Property: Surface tension liquid-gas, N/m (Liquid); method: Ring tensiometer
Temperature, K	Surface tension liquid-gas, N/m	uncertainty
292.35	0.0473	0.0014
293.65	0.047	0.0014
295.85	0.0469	0.0014
303.35	0.0459	0.0014
303.45	0.0461	0.0014
326.25	0.0395	0.0012
330.55	0.04	0.0012
334.95	0.0365	0.0011
349.35	0.0369	0.0011
350.85	0.0366	0.0011

System: 1-butyl-3-methylimidazolium thiocyanate; phases: Liquid
Fixed: Pressure, kPa = 100
Property: Mass density, kg/m3 (Liquid); method: Vibrating tube method
Temperature, K	Mass density, kg/m3	uncertainty
293.15	1072.82	6.23
303.15	1066.91	6.16
313.15	1061.02	6.09
323.15	1055.18	6.03
333.15	1049.38	5.96
343.15	1043.63	5.89
353.15	1037.92	5.82
363.15	1032.25	5.76

System: 1-butyl-4-methylpyridinium thiocyanate; phases: Liquid, Air at 1 atmosphere
Property: Surface tension liquid-gas, N/m (Liquid); method: Ring tensiometer
Temperature, K	Surface tension liquid-gas, N/m	uncertainty
302.85	0.0477	0.0009
302.95	0.0476	0.0009
312.35	0.0452	0.0009
312.85	0.0458	0.0009
320.15	0.0458	0.0008
320.35	0.046	0.0009
330.15	0.0395	0.0009
330.75	0.0409	0.0009
341.75	0.0361	0.0047
341.95	0.0407	0.0014
342.15	0.0384	0.0024

System: 1-butyl-4-methylpyridinium thiocyanate; phases: Liquid
Fixed: Pressure, kPa = 100
Property: Mass density, kg/m3 (Liquid); method: VIBTUB:UFactor:12
Temperature, K	Mass density, kg/m3	uncertainty
293.15	1064.36	1.59
303.15	1058.7	1.55
313.15	1053.02	1.52
323.15	1047.4	1.48
333.15	1041.8	1.44
343.15	1036.24	1.41
353.15	1030.71	1.38
363.15	1025.22	1.34

System: 1-butyl-1-methylpyrrolidinium thiocyanate; phases: Liquid, Air at 1 atmosphere
Property: Surface tension liquid-gas, N/m (Liquid); method: Ring tensiometer
Temperature, K	Surface tension liquid-gas, N/m	uncertainty
303.35	0.0498	0.0008
311.55	0.0456	0.0007
311.85	0.0454	0.0009
312.15	0.0474	0.0011
312.35	0.0473	0.0007
322.15	0.0484	0.0008
322.15	0.0483	0.0008
322.65	0.048	0.0008
322.95	0.048	0.0007
330.85	0.0476	0.0007
340.55	0.0447	0.001
341.35	0.0421	0.0008
341.65	0.0453	0.0023
343.45	0.0445	0.0008
344.15	0.0447	0.0007

System: 1-butyl-1-methylpyrrolidinium thiocyanate; phases: Liquid
Fixed: Pressure, kPa = 100
Property: Mass density, kg/m3 (Liquid); method: VIBTUB:UFactor:8
Temperature, K	Mass density, kg/m3	uncertainty
293.15	1032.87	0.56
303.15	1027.61	0.54
313.15	1022.35	0.52
323.15	1017.1	0.51
333.15	1011.91	0.49
343.15	1006.73	0.47
353.15	1001.56	0.46
363.15	996.43	0.46

System: 1-butyl-1-methylpyrrolidinium trifluoroacetate; phases: Liquid, Air at 1 atmosphere
Property: Surface tension liquid-gas, N/m (Liquid); method: Ring tensiometer
Temperature, K	Surface tension liquid-gas, N/m	uncertainty
292.05	0.0357	0.0007
292.15	0.0357	0.0007
294.05	0.0359	0.0008
294.45	0.0358	0.0008
307.15	0.035	0.0007
307.35	0.0349	0.0007
309.15	0.0353	0.0007
310.15	0.0349	0.0007
311.65	0.0353	0.0007
312.45	0.0348	0.0007
320.15	0.0344	0.0008
320.25	0.0342	0.0008
330.15	0.0342	0.0007
330.25	0.0342	0.0007
341.85	0.0342	0.0008
357.05	0.0334	0.0007
357.55	0.0333	0.0007

System: 1-butyl-1-methylpyrrolidinium trifluoroacetate; phases: Liquid
Fixed: Pressure, kPa = 100
Property: Mass density, kg/m3 (Liquid); method: VIBTUB:UFactor:12
Temperature, K	Mass density, kg/m3	uncertainty
293.15	1175.74	2.31
303.15	1168.77	2.27
313.15	1161.82	2.22
323.15	1154.92	2.18
333.15	1148.07	2.13
343.15	1141.27	2.09
353.15	1134.5	2.04
363.15	1127.72	2
