Measured thermophysical data. Solubility of Artemisinin in Seven Different Pure Solvents from (283.15 to 323.15) K
Source: J. Chem. Eng. Data, 2009, 10.1021/je800515w
Compound 1: artemisinin, C15H22O5, InChI=1S/C15H22O5/c1-8-4-5-11-9(2)12(16)17-13-15(11)10(8)6-7-14(3,18-13)19-20-15/h8-11,13H,4-7H2,1-3H3/t8-,9-,10+,11+,13-,14-,15-/m1/s1, purity 99%
Compound 2: methanol, CH4O, InChI=1S/CH4O/c1-2/h2H,1H3, purity 99.5%
Compound 3: acetone, C3H6O, InChI=1S/C3H6O/c1-3(2)4/h1-2H3, purity 99.5%
Compound 4: cyclohexane, C6H12, InChI=1S/C6H12/c1-2-4-6-5-3-1/h1-6H2, purity 99.5%
Compound 5: ethyl acetate, C4H8O2, InChI=1S/C4H8O2/c1-3-6-4(2)5/h3H2,1-2H3, purity 99.5%
Compound 6: acetonitrile, C2H3N, InChI=1S/C2H3N/c1-2-3/h1H3, purity 99.5%
Compound 7: toluene, C7H8, InChI=1S/C7H8/c1-7-5-3-2-4-6-7/h2-6H,1H3, purity 99.5%
Compound 8: trichloromethane, CHCl3, InChI=1S/CHCl3/c2-1(3)4/h1H, purity 99.5%

System: methanol + artemisinin; phases: Liquid, Crystal
Fixed: Pressure, kPa = 101
Property: Mole fraction of artemisinin (Liquid); method: laser monitoring observation technique
Temperature, K	Mole fraction of artemisinin	uncertainty
283.15	0.00055871	2.504e-05
288.15	0.00077347	3.46e-05
293.15	0.0011095	4.946e-05
298.15	0.00145088	6.462e-05
303.15	0.00194804	8.69e-05
308.15	0.00266922	0.00011928
313.15	0.00375218	0.00016711
318.15	0.0047748	0.00021244
323.15	0.00622157	0.00027652

System: acetone + artemisinin; phases: Liquid, Crystal
Fixed: Pressure, kPa = 101
Property: Mole fraction of artemisinin (Liquid); method: laser monitoring observation technique
Temperature, K	Mole fraction of artemisinin	uncertainty
283.15	0.0038806	0.00016217
288.15	0.00509541	0.00021247
293.15	0.00672883	0.00028031
298.15	0.00863055	0.00035976
303.15	0.01140663	0.00047519
308.15	0.01452396	0.00060419
313.15	0.01806762	0.00075128
318.15	0.02234925	0.00092967
323.15	0.02782854	0.00115682

System: cyclohexane + artemisinin; phases: Liquid, Crystal
Fixed: Pressure, kPa = 101
Property: Mole fraction of artemisinin (Liquid); method: laser monitoring observation technique
Temperature, K	Mole fraction of artemisinin	uncertainty
283.15	0.00044012	1.811e-05
288.15	0.00058504	2.396e-05
293.15	0.00074502	3.064e-05
298.15	0.00105903	4.348e-05
303.15	0.00136961	5.603e-05
308.15	0.00170979	6.984e-05
313.15	0.00209175	8.55e-05
318.15	0.00264545	0.0001083
323.15	0.00341159	0.00013947

System: ethyl acetate + artemisinin; phases: Liquid, Crystal
Fixed: Pressure, kPa = 101
Property: Mole fraction of artemisinin (Liquid); method: laser monitoring observation technique
Temperature, K	Mole fraction of artemisinin	uncertainty
283.15	0.00525294	0.00021945
288.15	0.007861	0.00032544
293.15	0.01168526	0.00048004
298.15	0.01528011	0.00062643
303.15	0.02046851	0.00084096
308.15	0.02820574	0.0011582
313.15	0.03767422	0.00154556
318.15	0.04988313	0.00204623
323.15	0.06566532	0.0026883

System: acetonitrile + artemisinin; phases: Liquid, Crystal
Fixed: Pressure, kPa = 101
Property: Mole fraction of artemisinin (Liquid); method: laser monitoring observation technique
Temperature, K	Mole fraction of artemisinin	uncertainty
283.15	0.00019782	8.51e-06
288.15	0.000257	1.106e-05
293.15	0.00035637	1.54e-05
298.15	0.00051757	2.234e-05
303.15	0.00072319	3.122e-05
308.15	0.00102887	4.438e-05
313.15	0.00143215	6.17e-05
318.15	0.00196368	8.458e-05
323.15	0.00269605	0.00011576

System: toluene + artemisinin; phases: Liquid, Crystal
Fixed: Pressure, kPa = 101
Property: Mole fraction of artemisinin (Liquid); method: laser monitoring observation technique
Temperature, K	Mole fraction of artemisinin	uncertainty
283.15	0.0374506	0.0015241
288.15	0.04354345	0.00177264
293.15	0.05195632	0.0021152
298.15	0.06028861	0.00245477
303.15	0.07105086	0.00289301
308.15	0.08153558	0.00331981
313.15	0.09369766	0.00381616
318.15	0.10695903	0.0043581
323.15	0.12242806	0.00498998

System: trichloromethane + artemisinin; phases: Liquid, Crystal
Fixed: Pressure, kPa = 101
Property: Mole fraction of artemisinin (Liquid); method: laser monitoring observation technique
Temperature, K	Mole fraction of artemisinin	uncertainty
283.15	0.04868483	0.00198027
288.15	0.06125478	0.00249106
293.15	0.07946997	0.00323309
298.15	0.10131789	0.00411938
303.15	0.12688714	0.00515769
308.15	0.15696479	0.00638165
313.15	0.19262803	0.00783743
318.15	0.23593246	0.00960959
323.15	0.28652702	0.01168074
