Measured thermophysical data. Solubility of CO2, N2, and CO2 + N2 Gas Mixtures in Isooctane
Source: J. Chem. Eng. Data, 2008, 10.1021/je800053f
Compound 1: 2,2,4-trimethylpentane, C8H18, InChI=1S/C8H18/c1-7(2)6-8(3,4)5/h7H,6H2,1-5H3, purity 99%
Compound 2: carbon dioxide, CO2, InChI=1S/CO2/c2-1-3, purity 99%
Compound 3: nitrogen, N2, InChI=1S/N2/c1-2, purity 99%

System: carbon dioxide + 2,2,4-trimethylpentane; phases: Liquid, Gas
Property: Mole fraction of carbon dioxide (Liquid); method: Chromatography
Pressure, kPa	Temperature, K	Mole fraction of carbon dioxide	uncertainty
1460	270.8	0.3618	0.0353
1590	275	0.3308	0.0389
1750	282.5	0.2965	0.0421
2100	270.8	0.4905	0.0587
2240	270.8	0.5631	0.0446
2270	275	0.4858	0.0368
2440	270.8	0.6228	0.0526
2440	275	0.5425	0.0398
2590	282.5	0.4767	0.0328
2680	275	0.6109	0.0486
2770	282.5	0.5064	0.0386
2780	270.8	0.7866	0.0549
3060	282.5	0.5915	0.0465
3090	275	0.7731	0.0486
3640	282.5	0.7456	0.0447

System: 2,2,4-trimethylpentane + nitrogen; phases: Liquid, Gas
Property: Mole fraction of 2,2,4-trimethylpentane (Liquid); method: Chromatography
Pressure, kPa	Temperature, K	Mole fraction of 2,2,4-trimethylpentane	uncertainty
2700	269.9	0.0465	0.0062
2750	274.5	0.0458	0.0061
2820	282.3	0.0504	0.0062
5410	269.9	0.0888	0.0124
5530	274.5	0.083	0.0123
5680	282.3	0.0973	0.012
6520	269.9	0.1158	0.0148
6670	274.5	0.1096	0.0153
6860	282.3	0.122	0.0147
7900	269.9	0.1467	0.0209
8030	274.5	0.1537	0.0206
8240	282.3	0.1634	0.0201
8970	269.9	0.1631	0.0237
9160	274.5	0.1636	0.0241
9450	282.3	0.1714	0.024

System: carbon dioxide + 2,2,4-trimethylpentane + nitrogen; phases: Liquid, Gas
Fixed: Temperature, K = 273.8
Property: Vapor or sublimation pressure, kPa (Liquid); method: Closed cell (Static) method
Mole fraction of carbon dioxide	Mole fraction of nitrogen	Vapor or sublimation pressure, kPa	uncertainty
0.0503	0.0819	3700	128
0.1097	0.074	3840	130
0.1482	0.0542	3990	148
0.2684	0.0417	3920	144
0.5473	0.0181	3720	145

System: carbon dioxide + 2,2,4-trimethylpentane + nitrogen; phases: Gas, Liquid
Fixed: Temperature, K = 273.8
Property: Mole fraction of carbon dioxide (Gas); method: gas volume and GC measurements
Mole fraction of carbon dioxide	Mole fraction of nitrogen	Mole fraction of carbon dioxide	uncertainty
0.0503	0.0819	0.0785	0.0157
0.1097	0.074	0.1387	0.016
0.1482	0.0542	0.2128	0.0186
0.2684	0.0417	0.3839	0.0276
0.5473	0.0181	0.6753	0.0219

System: carbon dioxide + 2,2,4-trimethylpentane + nitrogen; phases: Gas, Liquid
Fixed: Temperature, K = 273.8
Property: Mole fraction of nitrogen (Gas); method: gas volume and GC measurements
Mole fraction of carbon dioxide	Mole fraction of nitrogen	Mole fraction of nitrogen	uncertainty
0.0503	0.0819	0.9215	0.0157
0.1097	0.074	0.8613	0.016
0.1482	0.0542	0.7872	0.0187
0.2684	0.0417	0.6161	0.0277
0.5473	0.0181	0.3247	0.0217
