Measured thermophysical data. Interfacial Tension between CO2, Freshwater, and Brine in the Range of Pressure from (2 to 27) MPa, Temperature from (20 to 125)C, and Water Salinity from (0 to 334 000) mg/L-1
Source: J. Chem. Eng. Data, 2009, 10.1021/je800529x
Compound 1: carbon dioxide, CO2, InChI=1S/CO2/c2-1-3
Compound 2: water, H2O, InChI=1S/H2O/h1H2

System: carbon dioxide + water; phases: Liquid, Fluid (supercritical or subcritical phases)
Property: Interfacial tension, N/m (Liquid); method: Drop weight
Temperature, K	Pressure, kPa	Interfacial tension, N/m	uncertainty
293.15	2000	0.0624	0.0017
298.15	2000	0.0621	0.0017
299.15	2000	0.0618	0.0017
301.15	2000	0.062	0.002
303.15	2000	0.0621	0.0017
305.15	2000	0.0625	0.0017
307.15	2000	0.0615	0.0017
308.15	2000	0.0621	0.0024
309.15	2000	0.0649	0.0033
314.15	2000	0.0652	0.0018
333.15	2000	0.0666	0.0018
348.15	2000	0.0669	0.0018
373.15	2000	0.0677	0.0019
398.15	2000	0.0681	0.0019
293.15	4000	0.0435	0.0013
298.15	4000	0.0451	0.0025
299.15	4000	0.0456	0.0013
301.15	4000	0.0461	0.0014
303.15	4000	0.0482	0.0015
305.15	4000	0.0491	0.0028
307.15	4000	0.0382	0.0033
308.15	4000	0.0393	0.0013
309.15	4000	0.0396	0.0063
314.15	4000	0.0429	0.0013
333.15	4000	0.0529	0.0015
348.15	4000	0.0532	0.0015
373.15	4000	0.0579	0.0016
398.15	4000	0.0589	0.0016
293.15	6000	0.0349	0.001
298.15	6000	0.0362	0.0013
299.15	6000	0.0365	0.0011
301.15	6000	0.0376	0.0013
303.15	6000	0.0397	0.0013
305.15	6000	0.0407	0.0023
307.15	6000	0.0315	0.0034
308.15	6000	0.0319	0.0009
309.15	6000	0.0321	0.0015
314.15	6000	0.0332	0.001
333.15	6000	0.0431	0.0012
348.15	6000	0.0436	0.0012
373.15	6000	0.0475	0.0013
398.15	6000	0.0505	0.0014
293.15	8000	0.0291	0.0008
298.15	8000	0.0306	0.0016
299.15	8000	0.0308	0.0011
301.15	8000	0.0328	0.0011
303.15	8000	0.0335	0.0011
305.15	8000	0.0348	0.0018
307.15	8000	0.0273	0.0029
308.15	8000	0.0274	0.0008
309.15	8000	0.0275	0.0008
314.15	8000	0.0285	0.0009
333.15	8000	0.0379	0.0011
348.15	8000	0.0386	0.0011
373.15	8000	0.0417	0.0012
398.15	8000	0.0446	0.0012
293.15	12000	0.0251	0.0007
298.15	12000	0.0265	0.001
299.15	12000	0.0269	0.0008
301.15	12000	0.0274	0.0008
303.15	12000	0.0277	0.0008
305.15	12000	0.0286	0.0024
307.15	12000	0.0185	0.0035
308.15	12000	0.0186	0.0006
309.15	12000	0.019	0.003
314.15	12000	0.0199	0.0007
333.15	12000	0.0312	0.001
348.15	12000	0.0345	0.001
373.15	12000	0.0376	0.0011
398.15	12000	0.0396	0.0011
293.15	17400	0.0232	0.0008
298.15	17400	0.0249	0.0008
299.15	17400	0.025	0.001
301.15	17400	0.0258	0.0008
303.15	17400	0.0264	0.0008
305.15	17400	0.0274	0.0026
307.15	17400	0.0164	0.004
308.15	17400	0.0166	0.0007
309.15	17400	0.0173	0.0013
314.15	17400	0.0178	0.0007
333.15	17400	0.0294	0.0009
348.15	17400	0.0315	0.0009
373.15	17400	0.0329	0.0009
398.15	17400	0.0361	0.001
293.15	27000	0.0189	0.0007
298.15	27000	0.0211	0.0006
299.15	27000	0.0213	0.0007
301.15	27000	0.0223	0.0013
303.15	27000	0.0257	0.0012
305.15	27000	0.0261	0.0025
307.15	27000	0.0161	0.0035
308.15	27000	0.0163	0.0005
309.15	27000	0.0166	0.0006
314.15	27000	0.0169	0.0007
333.15	27000	0.0288	0.0009
348.15	27000	0.0299	0.0008
373.15	27000	0.0321	0.0009
398.15	27000	0.0332	0.0009
