Measured thermophysical data. Trialkyl-Substituted Imidazolium-Based Ionic Liquids for Electrochemical  Applications: Basic Physicochemical Properties
Source: J. Chem. Eng. Data, 2009, 10.1021/je800636k
Compound 1: 1-butyl-2,3-dimethylimidazolium tetrafluoroborate, C9H17BF4N2, InChI=1S/C9H17N2.BF4/c1-4-5-6-11-8-7-10(3)9(11)2;2-1(3,4)5/h7-8H,4-6H2,1-3H3;/q+1;-1
Compound 2: 1-butyl-2,3-dimethylimidazolium azide, C9H17N5, InChI=1S/C9H17N2.N3/c1-4-5-6-11-8-7-10(3)9(11)2;1-3-2/h7-8H,4-6H2,1-3H3;/q+1;-1

System: 1-butyl-2,3-dimethylimidazolium tetrafluoroborate; phases: Liquid
Fixed: Pressure, kPa = 101
Property: Mass density, kg/m3 (Liquid); method: Vibrating tube method
Temperature, K	Mass density, kg/m3	uncertainty
313.15	1182.05	2.69
323.15	1175.57	2.66
333.15	1169.08	2.63
343.15	1162.6	2.6
353.15	1156.12	2.57
363.15	1149.64	2.54
373.15	1143.15	2.51

System: 1-butyl-2,3-dimethylimidazolium tetrafluoroborate; phases: Liquid
Fixed: Pressure, kPa = 101
Property: Viscosity, Pa*s (Liquid); method: Concentric cylinders viscometry
Temperature, K	Viscosity, Pa*s	uncertainty
313.15	0.36417	0.0113
323.15	0.20479	0.00511
333.15	0.12434	0.00257
343.15	0.08035	0.00145
353.15	0.05465	0.00093
363.15	0.0388	0.00067
373.15	0.02856	0.00049

System: 1-butyl-2,3-dimethylimidazolium tetrafluoroborate; phases: Liquid
Fixed: Pressure, kPa = 101
Property: Electrical conductivity, S/m (Liquid); method: OTHER::sMethod:Qcond 2400 VWR international; cell constant, 1.05
Temperature, K	Electrical conductivity, S/m	uncertainty
303.15	0.07577	0.00303
308.15	0.10604	0.00424
313.15	0.14486	0.00579
318.15	0.19366	0.00775
323.15	0.2539	0.01016
328.15	0.32708	0.01308
333.15	0.4147	0.01659
338.15	0.51824	0.02073
343.15	0.63916	0.02557
348.15	0.77886	0.03115
353.15	0.93868	0.03755
358.15	1.11988	0.0448
363.15	1.32365	0.05295
368.15	1.55109	0.06204

System: 1-butyl-2,3-dimethylimidazolium azide; phases: Liquid
Fixed: Pressure, kPa = 101
Property: Mass density, kg/m3 (Liquid); method: Vibrating tube method
Temperature, K	Mass density, kg/m3	uncertainty
313.15	1070.46	2.23
323.15	1065.14	2.21
333.15	1059.83	2.19
343.15	1054.52	2.17
353.15	1049.21	2.15
363.15	1043.9	2.14
373.15	1038.59	2.12

System: 1-butyl-2,3-dimethylimidazolium azide; phases: Liquid
Fixed: Pressure, kPa = 101
Property: Viscosity, Pa*s (Liquid); method: Concentric cylinders viscometry
Temperature, K	Viscosity, Pa*s	uncertainty
313.15	0.33819	0.01023
323.15	0.17604	0.00417
333.15	0.10163	0.00199
343.15	0.0636	0.00111
353.15	0.04244	0.00073
363.15	0.02982	0.00051
373.15	0.02187	0.00038

System: 1-butyl-2,3-dimethylimidazolium azide; phases: Liquid
Fixed: Pressure, kPa = 101
Property: Electrical conductivity, S/m (Liquid); method: OTHER::sMethod:Qcond 2400 VWR international; cell constant, 1.05
Temperature, K	Electrical conductivity, S/m	uncertainty
303.15	0.04882	0.00195
308.15	0.07555	0.00302
313.15	0.11177	0.00447
318.15	0.15914	0.00637
323.15	0.21923	0.00877
328.15	0.29352	0.01174
333.15	0.3833	0.01533
338.15	0.48974	0.01959
343.15	0.61378	0.02455
348.15	0.75621	0.03025
353.15	0.91763	0.03671
358.15	1.09844	0.04394
363.15	1.29892	0.05196
368.15	1.51915	0.06077

System: 1-butyl-2,3-dimethylimidazolium tetrafluoroborate + 1-butyl-2,3-dimethylimidazolium azide; phases: Liquid
Fixed: Pressure, kPa = 101
Property: Mass density, kg/m3 (Liquid); method: Vibrating tube method
Mole fraction of 1-butyl-2,3-dimethylimidazolium azide	Temperature, K	Mass density, kg/m3	uncertainty
1	313.15	1070.46	2.23
0.75	313.15	1098.68	2.33
0.5	313.15	1129.46	2.45
0.25	313.15	1154.97	2.56
0	313.15	1182.05	2.69
1	323.15	1065.14	2.21
0.75	323.15	1092.32	2.31
0.5	323.15	1123.48	2.42
0.25	323.15	1148.74	2.53
0	323.15	1175.57	2.66
1	333.15	1059.83	2.19
0.75	333.15	1085.96	2.28
0.5	333.15	1117.5	2.4
0.25	333.15	1142.5	2.51
0	333.15	1169.08	2.63
1	343.15	1054.52	2.17
0.75	343.15	1079.6	2.26
0.5	343.15	1111.52	2.38
0.25	343.15	1136.27	2.48
0	343.15	1162.6	2.6
1	353.15	1049.21	2.15
0.75	353.15	1073.24	2.24
0.5	353.15	1105.54	2.36
0.25	353.15	1130.03	2.45
0	353.15	1156.12	2.57
1	363.15	1043.9	2.14
0.75	363.15	1066.87	2.22
0.5	363.15	1099.56	2.34
0.25	363.15	1123.8	2.43
0	363.15	1149.64	2.54
1	373.15	1038.59	2.12
0.75	373.15	1060.51	2.19
0.5	373.15	1093.58	2.31
0.25	373.15	1117.56	2.4
0	373.15	1143.15	2.51

System: 1-butyl-2,3-dimethylimidazolium tetrafluoroborate + 1-butyl-2,3-dimethylimidazolium azide; phases: Liquid
Fixed: Pressure, kPa = 101
Property: Viscosity, Pa*s (Liquid); method: Concentric cylinders viscometry
Temperature, K	Mole fraction of 1-butyl-2,3-dimethylimidazolium azide	Viscosity, Pa*s	uncertainty
313.15	1	0.33819	0.01023
313.15	0.75	0.35389	0.01085
313.15	0.5	0.29206	0.00833
313.15	0.25	0.21046	0.00545
313.15	0	0.36417	0.0113
323.15	1	0.17604	0.00417
323.15	0.75	0.18302	0.00441
323.15	0.5	0.15681	0.00356
323.15	0.25	0.11524	0.00236
323.15	0	0.20479	0.00511
333.15	1	0.10163	0.00199
333.15	0.75	0.10508	0.00208
333.15	0.5	0.0925	0.00176
333.15	0.25	0.06872	0.00122
333.15	0	0.12434	0.00257
343.15	1	0.0636	0.00111
343.15	0.75	0.06545	0.00115
343.15	0.5	0.05877	0.00102
343.15	0.25	0.04388	0.00076
343.15	0	0.08035	0.00145
353.15	1	0.04244	0.00073
353.15	0.75	0.0435	0.00075
353.15	0.5	0.03964	0.00068
353.15	0.25	0.02962	0.00051
353.15	0	0.05465	0.00093
363.15	1	0.02982	0.00051
363.15	0.75	0.03046	0.00052
363.15	0.5	0.02806	0.00048
363.15	0.25	0.02094	0.00036
363.15	0	0.0388	0.00067
373.15	1	0.02187	0.00038
373.15	0.75	0.02227	0.00038
373.15	0.5	0.02068	0.00036
373.15	0.25	0.01538	0.00026
373.15	0	0.02856	0.00049

System: 1-butyl-2,3-dimethylimidazolium tetrafluoroborate + 1-butyl-2,3-dimethylimidazolium azide; phases: Liquid
Fixed: Pressure, kPa = 101
Property: Electrical conductivity, S/m (Liquid); method: Qcond 2400 VWR international; cell constant, 1.05
Temperature, K	Mole fraction of 1-butyl-2,3-dimethylimidazolium azide	Electrical conductivity, S/m	uncertainty
303.15	1	0.04882	0.00195
303.15	0.75	0.06039	0.00242
303.15	0.5	0.0608	0.00243
303.15	0.25	0.08094	0.00324
303.15	0	0.07577	0.00303
308.15	1	0.07555	0.00302
308.15	0.75	0.08806	0.00352
308.15	0.5	0.08869	0.00355
308.15	0.25	0.11394	0.00456
308.15	0	0.10604	0.00424
313.15	1	0.11177	0.00447
313.15	0.75	0.1243	0.00497
313.15	0.5	0.12526	0.00501
313.15	0.25	0.15579	0.00623
313.15	0	0.14486	0.00579
318.15	1	0.15914	0.00637
318.15	0.75	0.17053	0.00682
318.15	0.5	0.17199	0.00688
318.15	0.25	0.20763	0.00831
318.15	0	0.19366	0.00775
323.15	1	0.21923	0.00877
323.15	0.75	0.22817	0.00913
323.15	0.5	0.23033	0.00921
323.15	0.25	0.27053	0.01082
323.15	0	0.2539	0.01016
328.15	1	0.29352	0.01174
328.15	0.75	0.29858	0.01194
328.15	0.5	0.30172	0.01207
328.15	0.25	0.34549	0.01382
328.15	0	0.32708	0.01308
333.15	1	0.3833	0.01533
333.15	0.75	0.38309	0.01532
333.15	0.5	0.38753	0.0155
333.15	0.25	0.43343	0.01734
333.15	0	0.4147	0.01659
338.15	1	0.48974	0.01959
338.15	0.75	0.48291	0.01932
338.15	0.5	0.48906	0.01956
338.15	0.25	0.53515	0.02141
338.15	0	0.51824	0.02073
343.15	1	0.61378	0.02455
343.15	0.75	0.59916	0.02397
343.15	0.5	0.6075	0.0243
343.15	0.25	0.65134	0.02605
343.15	0	0.63916	0.02557
348.15	1	0.75621	0.03025
348.15	0.75	0.73288	0.02932
348.15	0.5	0.74395	0.02976
348.15	0.25	0.78259	0.0313
348.15	0	0.77886	0.03115
353.15	1	0.91763	0.03671
353.15	0.75	0.88494	0.0354
353.15	0.5	0.89938	0.03598
353.15	0.25	0.92936	0.03717
353.15	0	0.93868	0.03755
358.15	1	1.09844	0.04394
358.15	0.75	1.05613	0.04225
358.15	0.5	1.07463	0.04299
358.15	0.25	1.09203	0.04368
358.15	0	1.11988	0.0448
363.15	1	1.29892	0.05196
363.15	0.75	1.24709	0.04988
363.15	0.5	1.27043	0.05082
363.15	0.25	1.27084	0.05083
363.15	0	1.32365	0.05295
368.15	1	1.51915	0.06077
368.15	0.75	1.45834	0.05833
368.15	0.5	1.48737	0.05949
368.15	0.25	1.46596	0.05864
368.15	0	1.55109	0.06204
