Measured thermophysical data. Dynamic Viscosity Study of Binary Mixtures Triethylamine + Water at Temperatures Ranging from (283.15 to 291.35) K
Source: J. Chem. Eng. Data, 2009, 10.1021/je800982n
Compound 1: water, H2O, InChI=1S/H2O/h1H2
Compound 2: triethylamine, C6H15N, InChI=1S/C6H15N/c1-4-7(5-2)6-3/h4-6H2,1-3H3, purity 99.95%

System: triethylamine; phases: Liquid
Fixed: Pressure, kPa = 101
Property: Viscosity, Pa*s (Liquid); method: CAPTUB:UFactor:2
Temperature, K	Viscosity, Pa*s	uncertainty
283.15	0.0004229	8.2e-06
286.15	0.0004085	8.1e-06
288.15	0.0003989	8e-06
290.15	0.00039	8e-06
291.15	0.0003855	8e-06
291.35	0.0003847	8e-06

System: triethylamine; phases: Liquid
Fixed: Pressure, kPa = 101
Property: Mass density, kg/m3 (Liquid); method: VIBTUB:UFactor:2
Temperature, K	Mass density, kg/m3	uncertainty
283.15	737	0.3
286.15	734	0.3
288.15	731.8	0.3
290.15	729.8	0.3
291.15	728.7	0.3
291.35	728.5	0.3

System: triethylamine + water; phases: Liquid
Fixed: Pressure, kPa = 101
Property: Viscosity, Pa*s (Liquid); method: CAPTUB:UFactor:2
Temperature, K	Mole fraction of triethylamine	Viscosity, Pa*s	uncertainty
283.15	0	0.0013054	1.56e-05
283.15	0.0192	0.0025131	2.85e-05
283.15	0.0429	0.0040642	4.48e-05
283.15	0.0775	0.0055315	5.87e-05
283.15	0.106	0.0066209	6.7e-05
283.15	0.151	0.0066426	6.73e-05
283.15	0.2117	0.0056286	5.95e-05
283.15	0.293	0.0042307	4.68e-05
283.15	0.4167	0.0028128	3.2e-05
283.15	0.615	0.0018354	2.15e-05
283.15	1	0.0004229	8.2e-06
286.15	0	0.0012002	1.45e-05
286.15	0.0192	0.0022072	2.53e-05
286.15	0.0429	0.0035021	3.9e-05
286.15	0.0775	0.0047479	5.2e-05
286.15	0.106	0.0054685	5.84e-05
286.15	0.151	0.0054898	5.86e-05
286.15	0.2117	0.0047923	5.25e-05
286.15	0.293	0.0036689	4.08e-05
286.15	0.4167	0.0025041	2.85e-05
286.15	0.615	0.001527	1.81e-05
286.15	1	0.0004085	8.1e-06
288.15	0	0.0011372	1.4e-05
288.15	0.0192	0.0020274	2.34e-05
288.15	0.0429	0.0031903	3.57e-05
288.15	0.0775	0.0042304	4.67e-05
288.15	0.106	0.0047414	5.21e-05
288.15	0.151	0.0047628	5.23e-05
288.15	0.2117	0.0042959	4.73e-05
288.15	0.293	0.0033571	3.75e-05
288.15	0.4167	0.0023269	2.66e-05
288.15	0.615	0.0013497	1.62e-05
288.15	1	0.0003989	8e-06
290.15	0	0.0010797	1.35e-05
290.15	0.0192	0.0018697	2.17e-05
290.15	0.0429	0.0029395	3.31e-05
290.15	0.0775	0.0037533	4.18e-05
290.15	0.106	0.0040647	4.52e-05
290.15	0.151	0.0040871	4.54e-05
290.15	0.2117	0.003847	4.27e-05
290.15	0.293	0.0031064	3.48e-05
290.15	0.4167	0.0021694	2.49e-05
290.15	0.615	0.001192	1.45e-05
290.15	1	0.00039	8e-06
291.15	0	0.0010524	1.32e-05
291.15	0.0192	0.0017985	2.15e-05
291.15	0.0429	0.002838	3.79e-05
291.15	0.0775	0.0035209	3.97e-05
291.15	0.106	0.003747	4.14e-05
291.15	0.151	0.0037683	4.16e-05
291.15	0.2117	0.003643	4.13e-05
291.15	0.293	0.003005	3.39e-05
291.15	0.4167	0.0020985	2.76e-05
291.15	0.615	0.001121	3.02e-05
291.15	1	0.0003855	8e-06
291.35	0	0.0010466	1.32e-05
291.35	0.0192	0.001783	2.08e-05
291.35	0.0429	0.002819	4.03e-05
291.35	0.0775	0.0034703	4.21e-05
291.35	0.106	0.0036788	4.32e-05
291.35	0.151	0.0036999	4.22e-05
291.35	0.2117	0.0036025	4.37e-05
291.35	0.293	0.0029851	3.35e-05
291.35	0.4167	0.0020846	2.61e-05
291.35	0.615	0.0011071	2.8e-05
291.35	1	0.0003847	8e-06

System: triethylamine + water; phases: Liquid
Fixed: Pressure, kPa = 101
Property: Mass density, kg/m3 (Liquid); method: VIBTUB:UFactor:2
Temperature, K	Mole fraction of triethylamine	Mass density, kg/m3	uncertainty
283.15	0	999.5	0.2
283.15	0.0192	985.3	0.2
283.15	0.0429	965.8	0.2
283.15	0.0775	936.2	0.2
283.15	0.106	919	0.2
283.15	0.151	895.1	0.3
283.15	0.2117	868	0.3
283.15	0.293	839.5	0.3
283.15	0.4167	809.3	0.3
283.15	0.615	775	0.3
283.15	1	737	0.3
286.15	0	999.3	0.2
286.15	0.0192	984.3	0.2
286.15	0.0429	964.2	0.2
286.15	0.0775	934	0.2
286.15	0.106	916.3	0.2
286.15	0.151	892.4	0.3
286.15	0.2117	865.3	0.3
286.15	0.293	836.8	0.3
286.15	0.4167	806.6	0.3
286.15	0.615	772.3	0.3
286.15	1	734	0.3
288.15	0	999	0.2
288.15	0.0192	983.6	0.2
288.15	0.0429	962.8	0.2
288.15	0.0775	931.7	0.2
288.15	0.106	913.8	0.2
288.15	0.151	889.9	0.3
288.15	0.2117	862.8	0.3
288.15	0.293	834.3	0.3
288.15	0.4167	804.1	0.3
288.15	0.615	769.8	0.3
288.15	1	731.8	0.3
290.15	0	998.7	0.2
290.15	0.0192	982.8	0.2
290.15	0.0429	961.4	0.2
290.15	0.0775	929	0.2
290.15	0.106	910.9	0.2
290.15	0.151	887	0.3
290.15	0.2117	859.9	0.3
290.15	0.293	831.4	0.3
290.15	0.4167	801.2	0.3
290.15	0.615	766.9	0.3
290.15	1	729.8	0.3
291.15	0	998.5	0.2
291.15	0.0192	982.4	0.2
291.15	0.0429	960.5	0.2
291.15	0.0775	927.5	0.4
291.15	0.106	909.2	0.3
291.15	0.151	885.3	0.3
291.15	0.2117	858.2	0.4
291.15	0.293	829.7	0.5
291.15	0.4167	799.5	0.5
291.15	0.615	765.2	0.7
291.15	1	728.7	0.3
291.35	0	998.5	0.2
291.35	0.0192	982.3	0.2
291.35	0.0429	960.4	0.2
291.35	0.0775	927.1	0.4
291.35	0.106	909	0.3
291.35	0.151	885.1	0.3
291.35	0.2117	858	0.3
291.35	0.293	829.5	0.4
291.35	0.4167	799.3	0.4
291.35	0.615	765	0.7
291.35	1	728.5	0.3
