Measured thermophysical data. High-Pressure Phase Behavior of Carbon Dioxide with Ionic Liquids: 1-Alkyl-3-methylimidazolium Trifluoromethanesulfonat
Source: J. Chem. Eng. Data, 2008, 10.1021/je8000443
Compound 1: carbon dioxide, CO2, InChI=1S/CO2/c2-1-3, purity 99.99%
Compound 2: 1-ethyl-3-methylimidazolium trifluoromethanesulfonate, C7H11F3N2O3S, InChI=1S/C6H11N2.CHF3O3S/c1-3-8-5-4-7(2)6-8;2-1(3,4)8(5,6)7/h4-6H,3H2,1-2H3;(H,5,6,7)/q+1;/p-1, purity 99.3%
Compound 3: 1-butyl-3-methylimidazolium trifluoromethanesulfonate, C9H15F3N2O3S, InChI=1S/C8H15N2.CHF3O3S/c1-3-4-5-10-7-6-9(2)8-10;2-1(3,4)8(5,6)7/h6-8H,3-5H2,1-2H3;(H,5,6,7)/q+1;/p-1, purity 99.6%
Compound 4: 1-hexyl-3-methylimidazolium trifluoromethanesulfonate, C11H19F3N2O3S, InChI=1S/C10H19N2.CHF3O3S/c1-3-4-5-6-7-12-9-8-11(2)10-12;2-1(3,4)8(5,6)7/h8-10H,3-7H2,1-2H3;(H,5,6,7)/q+1;/p-1, purity 99.6%
Compound 5: 1-octyl-3-methylimidazolium trifluoromethanesulfonate, C13H23F3N2O3S, InChI=1S/C12H23N2.CHF3O3S/c1-3-4-5-6-7-8-9-14-11-10-13(2)12-14;2-1(3,4)8(5,6)7/h10-12H,3-9H2,1-2H3;(H,5,6,7)/q+1;/p-1, purity 99.5%

System: carbon dioxide + 1-ethyl-3-methylimidazolium trifluoromethanesulfonate; phases: Liquid mixture 1, Liquid mixture 2
Property: Vapor or sublimation pressure, kPa (Liquid mixture 1); method: Closed cell (Static) method
Temperature, K	Mole fraction of carbon dioxide	Vapor or sublimation pressure, kPa	uncertainty
303.85	0.5975	7600	4400
303.85	0.6151	12000	4690
303.85	0.6268	14900	5010
314.05	0.5681	8600	2940
314.05	0.5975	13800	3280
314.05	0.6151	17500	4540
314.05	0.6268	21000	6020
324.15	0.5681	12300	4070
324.15	0.5975	19600	4070
324.15	0.6151	23100	4590
324.15	0.6268	27000	6470
334.35	0.5681	16300	4540
334.35	0.5975	24500	4620
334.35	0.6151	28500	5040
334.35	0.6268	32600	6850
344.55	0.5681	20800	4630
344.55	0.5975	29000	4710
344.55	0.6151	33300	5560
344.55	0.6268	37800	7770

System: carbon dioxide + 1-ethyl-3-methylimidazolium trifluoromethanesulfonate; phases: Liquid, Gas
Property: Vapor or sublimation pressure, kPa (Liquid); method: CCELL:UFactor:8
Temperature, K	Mole fraction of carbon dioxide	Vapor or sublimation pressure, kPa	uncertainty
303.85	0.1794	800	110
303.85	0.2613	1500	120
303.85	0.3546	2350	140
303.85	0.4141	3100	180
303.85	0.467	3780	230
303.85	0.5078	4600	320
303.85	0.5435	5350	360
303.85	0.5681	5900	410
314.05	0.1794	1000	110
314.05	0.2613	1800	130
314.05	0.3546	2800	160
314.05	0.4141	3900	230
314.05	0.467	4800	290
314.05	0.5078	5800	460
314.05	0.5435	7200	730
314.05	0.5681	8600	980
324.15	0.1794	1150	110
324.15	0.2613	2200	140
324.15	0.3546	3250	190
324.15	0.4141	4800	300
324.15	0.467	6000	390
324.15	0.5078	7500	680
324.15	0.5435	9600	1020
334.35	0.1794	1300	120
334.35	0.2613	2500	150
334.35	0.3546	4100	230
334.35	0.4141	5850	360
334.35	0.467	7500	510
334.35	0.5078	9500	960
334.35	0.5435	12700	1500
344.55	0.1794	1550	120
344.55	0.2613	3050	180
344.55	0.3546	5000	270
344.55	0.4141	7100	440
344.55	0.467	9200	660
344.55	0.5078	11900	1340
344.55	0.5435	16500	2000

System: carbon dioxide + 1-butyl-3-methylimidazolium trifluoromethanesulfonate; phases: Liquid mixture 1, Liquid mixture 2
Property: Vapor or sublimation pressure, kPa (Liquid mixture 1); method: Closed cell (Static) method
Temperature, K	Mole fraction of carbon dioxide	Vapor or sublimation pressure, kPa	uncertainty
303.85	0.6325	8500	1890
303.85	0.6537	12000	400
303.85	0.672	16000	800
314.05	0.6325	13500	2200
314.05	0.6537	17500	450
314.05	0.672	22000	860
324.15	0.6325	18200	2340
324.15	0.6537	22700	490
324.15	0.672	27400	910
334.35	0.6134	16600	3710
334.35	0.6325	23400	3210
334.35	0.6537	28000	480
334.35	0.672	32400	880
344.55	0.6134	21500	3540
344.55	0.6325	28000	3330
344.55	0.6537	33300	500
344.55	0.672	37500	840

System: carbon dioxide + 1-butyl-3-methylimidazolium trifluoromethanesulfonate; phases: Liquid, Gas
Property: Vapor or sublimation pressure, kPa (Liquid); method: CCELL:UFactor:16
Temperature, K	Mole fraction of carbon dioxide	Vapor or sublimation pressure, kPa	uncertainty
303.85	0.2182	850	110
303.85	0.2734	1150	140
303.85	0.3344	1700	190
303.85	0.3786	2300	280
303.85	0.414	2950	290
303.85	0.4574	3400	190
303.85	0.4929	3900	230
303.85	0.5367	4900	300
303.85	0.5761	6000	370
303.85	0.6134	6800	410
314.05	0.2182	1020	120
314.05	0.2734	1300	150
314.05	0.3344	2050	210
314.05	0.3786	2650	280
314.05	0.414	3300	410
314.05	0.4574	4300	230
314.05	0.4929	4900	270
314.05	0.5367	5900	350
314.05	0.5761	7200	480
314.05	0.6134	8600	710
324.15	0.2182	1150	140
324.15	0.2734	1750	190
324.15	0.3344	2650	240
324.15	0.3786	3200	300
324.15	0.414	3900	510
324.15	0.4574	5300	280
324.15	0.4929	6100	330
324.15	0.5367	7300	430
324.15	0.5761	8700	730
324.15	0.6134	12300	1220
334.35	0.2182	1350	160
334.35	0.2734	2300	220
334.35	0.3344	3200	260
334.35	0.3786	3900	360
334.35	0.414	4750	610
334.35	0.4574	6400	330
334.35	0.4929	7600	420
334.35	0.5367	9200	560
334.35	0.5761	11400	1030
334.35	0.6134	16600	1670
344.55	0.2182	1900	180
344.55	0.2734	2800	230
344.55	0.3344	3700	310
344.55	0.3786	4750	420
344.55	0.414	5500	740
344.55	0.4574	7800	410
344.55	0.4929	9000	500
344.55	0.5367	11200	740
344.55	0.5761	14700	1080

System: carbon dioxide + 1-hexyl-3-methylimidazolium trifluoromethanesulfonate; phases: Liquid mixture 1, Liquid mixture 2
Property: Vapor or sublimation pressure, kPa (Liquid mixture 1); method: Closed cell (Static) method
Temperature, K	Mole fraction of carbon dioxide	Vapor or sublimation pressure, kPa	uncertainty
303.85	0.6887	8500	2770
303.85	0.7059	14600	3100
303.85	0.7171	18000	3220
314.05	0.6887	14000	2610
314.05	0.7059	19600	3010
314.05	0.7171	23300	3390
324.15	0.6887	19000	2580
324.15	0.7059	24500	2960
324.15	0.7171	28200	3270
334.35	0.6887	23500	2430
334.35	0.7059	28850	2870
334.35	0.7171	32400	3270
344.55	0.6668	21900	1730
344.55	0.6887	28000	2200
344.55	0.7059	32900	2690
344.55	0.7171	36300	3220

System: carbon dioxide + 1-hexyl-3-methylimidazolium trifluoromethanesulfonate; phases: Liquid, Gas
Property: Vapor or sublimation pressure, kPa (Liquid); method: CCELL:UFactor:16
Temperature, K	Mole fraction of carbon dioxide	Vapor or sublimation pressure, kPa	uncertainty
303.85	0.2885	1250	120
303.85	0.3566	1700	140
303.85	0.4162	2150	170
303.85	0.4632	2700	190
303.85	0.5329	3200	240
303.85	0.5626	4000	410
303.85	0.5898	4500	390
303.85	0.611	4900	580
303.85	0.6236	5500	280
303.85	0.6487	6000	320
303.85	0.6668	6700	420
314.05	0.2885	1650	130
314.05	0.3566	2100	150
314.05	0.4162	2650	190
314.05	0.4632	3200	240
314.05	0.5329	4200	310
314.05	0.5626	5000	430
314.05	0.5898	5500	500
314.05	0.611	6200	1040
314.05	0.6236	7400	410
314.05	0.6487	9200	550
314.05	0.6668	10500	690
324.15	0.2885	2000	140
324.15	0.3566	2700	180
324.15	0.4162	3400	220
324.15	0.4632	4000	280
324.15	0.5329	5200	400
324.15	0.5626	6500	580
324.15	0.5898	7000	620
324.15	0.611	8000	1300
324.15	0.6236	9400	540
324.15	0.6487	12500	790
324.15	0.6668	14300	950
334.35	0.2885	2300	150
334.35	0.3566	3300	210
334.35	0.4162	4100	250
334.35	0.4632	4850	350
334.35	0.5329	6500	500
334.35	0.5626	7800	660
334.35	0.5898	8500	810
334.35	0.611	9800	1860
334.35	0.6236	12000	690
334.35	0.6487	15800	990
334.35	0.6668	18200	1220
344.55	0.2885	2800	170
344.55	0.3566	3900	230
344.55	0.4162	4800	290
344.55	0.4632	5800	440
344.55	0.5329	8000	630
344.55	0.5626	9500	820
344.55	0.5898	10500	980
344.55	0.611	11900	2470
344.55	0.6236	15100	850
344.55	0.6487	18900	1130

System: carbon dioxide + 1-octyl-3-methylimidazolium trifluoromethanesulfonate; phases: Liquid mixture 1, Liquid mixture 2
Property: Vapor or sublimation pressure, kPa (Liquid mixture 1); method: Closed cell (Static) method
Temperature, K	Mole fraction of carbon dioxide	Vapor or sublimation pressure, kPa	uncertainty
303.85	0.7162	10000	5790
303.85	0.7321	14300	6940
303.85	0.7414	18000	9230
314.05	0.6918	10000	3410
314.05	0.7162	14000	4370
314.05	0.7321	18500	6880
314.05	0.7414	22000	8600
324.15	0.6918	13600	3820
324.15	0.7162	18000	4540
324.15	0.7321	22400	6710
324.15	0.7414	25800	8620
334.35	0.6703	13600	3130
334.35	0.6918	17000	3690
334.35	0.7162	21700	4720
334.35	0.7321	26100	6960
334.35	0.7414	29800	9400
344.55	0.6703	16400	3500
344.55	0.6918	20200	4040
344.55	0.7162	25300	5100
344.55	0.7321	29900	7530
344.55	0.7414	34000	10230

System: carbon dioxide + 1-octyl-3-methylimidazolium trifluoromethanesulfonate; phases: Liquid, Gas
Property: Vapor or sublimation pressure, kPa (Liquid); method: CCELL:UFactor:16
Temperature, K	Mole fraction of carbon dioxide	Vapor or sublimation pressure, kPa	uncertainty
303.85	0.2166	680	110
303.85	0.3445	1580	140
303.85	0.4377	2480	180
303.85	0.4896	2980	220
303.85	0.5508	3800	280
303.85	0.578	4250	340
303.85	0.6105	4750	400
303.85	0.6414	5400	590
303.85	0.6703	6400	670
303.85	0.6918	6900	590
314.05	0.2166	800	110
314.05	0.3445	1900	150
314.05	0.4377	3000	210
314.05	0.4896	3800	280
314.05	0.5508	4750	340
314.05	0.578	5300	430
314.05	0.6105	6000	540
314.05	0.6414	6900	690
314.05	0.6703	7900	1040
324.15	0.2166	1080	120
324.15	0.3445	2350	170
324.15	0.4377	3700	250
324.15	0.4896	4700	330
324.15	0.5508	5800	410
324.15	0.578	6550	570
324.15	0.6105	7500	690
324.15	0.6414	8600	1070
324.15	0.6703	10600	1410
334.35	0.2166	1350	130
334.35	0.3445	2850	200
334.35	0.4377	4450	290
334.35	0.4896	5500	390
334.35	0.5508	6900	500
334.35	0.578	7850	790
334.35	0.6105	9400	980
334.35	0.6414	10900	1070
344.55	0.2166	1650	140
344.55	0.3445	3350	220
344.55	0.4377	5200	340
344.55	0.4896	6400	470
344.55	0.5508	8300	610
344.55	0.578	9200	890
344.55	0.6105	11100	1250
344.55	0.6414	13200	1450
