Measured thermophysical data. Viscosity, Refractive Index, Surface Tension, and Thermal Decomposition of Aqueous N-Methyldiethanolamine Solutions from (298.15 to 338.15) K
Source: J. Chem. Eng. Data, 2008, 10.1021/je800282a
Compound 1: N-methyldiethanolamine, C5H13NO2, InChI=1S/C5H13NO2/c1-6(2-4-7)3-5-8/h7-8H,2-5H2,1H3
Compound 2: water, H2O, InChI=1S/H2O/h1H2

System: N-methyldiethanolamine; phases: Liquid, Air at 1 atmosphere
Property: Surface tension liquid-gas, N/m (Liquid); method: RINGTE:UFactor:2
Temperature, K	Surface tension liquid-gas, N/m	uncertainty
303.15	0.03874	0.00106
313.15	0.03748	0.00103
323.15	0.03682	0.00101
333.15	0.03531	0.00098

System: N-methyldiethanolamine; phases: Liquid
Fixed: Pressure, kPa = 101.325
Property: Viscosity, Pa*s (Liquid); method: CAPTUB:UFactor:8
Temperature, K	Viscosity, Pa*s	uncertainty
298.15	0.07785	0.00476
308.15	0.0439	0.00143
318.15	0.02744	0.00092
328.15	0.01789	0.00062
338.15	0.01234	0.00045

System: N-methyldiethanolamine; phases: Liquid
Fixed: Pressure, kPa = 101.325
Property: Refractive index (Na D-line) (Liquid); method: ABBE:UFactor:4
Temperature, K	Refractive index (Na D-line)	uncertainty
303.15	1.46532	0.00124
313.15	1.46074	0.00124
318.15	1.45892	0.00124
323.15	1.45708	0.00124
333.15	1.45287	0.00124

System: N-methyldiethanolamine + water; phases: Liquid, Air at 1 atmosphere
Property: Surface tension liquid-gas, N/m (Liquid); method: RINGTE:UFactor:2
Temperature, K	Mass fraction of N-methyldiethanolamine	Surface tension liquid-gas, N/m	uncertainty
303.15	0.3288	0.05316	0.00141
303.15	0.488	0.04756	0.00127
313.15	0.3288	0.05238	0.00139
313.15	0.488	0.04692	0.00126
323.15	0.3288	0.05142	0.00137
323.15	0.488	0.04558	0.00123
333.15	0.3288	0.05067	0.00135
333.15	0.488	0.04483	0.00121

System: N-methyldiethanolamine + water; phases: Liquid
Fixed: Pressure, kPa = 101
Property: Viscosity, Pa*s (Liquid); method: CAPTUB:UFactor:8
Temperature, K	Mass fraction of N-methyldiethanolamine	Viscosity, Pa*s	uncertainty
298.15	0.3228	0.00348	0.00017
298.15	0.488	0.00925	0.00035
308.15	0.3228	0.00226	0.00013
308.15	0.488	0.00614	0.00025
318.15	0.3228	0.00182	0.00012
318.15	0.488	0.00437	0.0002
328.15	0.3228	0.00134	0.00011
328.15	0.488	0.00346	0.00017
338.15	0.3228	0.00117	0.0001
338.15	0.488	0.00281	0.00015

System: N-methyldiethanolamine + water; phases: Liquid
Fixed: Pressure, kPa = 101
Property: Refractive index (Na D-line) (Liquid); method: ABBE:UFactor:4
Temperature, K	Mass fraction of N-methyldiethanolamine	Refractive index (Na D-line)	uncertainty
303.15	0.3228	1.37748	0.00125
303.15	0.488	1.40298	0.00125
313.15	0.3228	1.37604	0.00125
313.15	0.488	1.39971	0.00125
318.15	0.3228	1.37467	0.00125
318.15	0.488	1.39629	0.00125
323.15	0.3228	1.37305	0.00125
323.15	0.488	1.39254	0.00125
333.15	0.3228	1.37134	0.00125
333.15	0.488	1.38821	0.00125
