Measured thermophysical data. Viscosity and Density of Carbon Dioxide + 2,6,10,15,19,23-Hexamethyltetracosane (Squalane)
Source: J. Chem. Eng. Data, 2009, 10.1021/je800894y
Compound 1: 2,6,10,15,19,23-hexamethyltetracosane, C30H62, InChI=1S/C30H62/c1-25(2)15-11-19-29(7)23-13-21-27(5)17-9-10-18-28(6)22-14-24-30(8)20-12-16-26(3)4/h25-30H,9-24H2,1-8H3, purity 99%
Compound 2: carbon dioxide, CO2, InChI=1S/CO2/c2-1-3, purity 99.995%

System: 2,6,10,15,19,23-hexamethyltetracosane; phases: Liquid
Property: Viscosity, Pa*s (Liquid); method: Vibrating wire viscometry
Temperature, K	Pressure, kPa	Viscosity, Pa*s	uncertainty
303.18	1070	0.022	0.0005
303.18	5300	0.0242	0.0005
303.18	5740	0.0244	0.0005
303.18	15580	0.0303	0.0006
303.18	25530	0.0369	0.0008
303.18	35790	0.0443	0.0009
303.18	45770	0.0546	0.0011
303.18	55770	0.0663	0.0014
348.13	5270	0.00559	0.00012
348.13	5290	0.0056	0.00012
348.13	25490	0.00779	0.00016
348.13	56280	0.0123	0.0003
348.13	85860	0.0184	0.0004
348.13	115830	0.0269	0.0006
348.13	145930	0.0387	0.0008
348.13	175120	0.0556	0.0012
398.15	5160	0.00217	5e-05
398.15	5230	0.00217	5e-05
398.15	25310	0.00289	6e-05
398.15	56100	0.00424	9e-05
398.15	85890	0.00588	0.00012
398.15	115450	0.00793	0.00017
398.15	145820	0.0106	0.0002
398.15	176100	0.0138	0.0003
448.25	5580	0.00117	3e-05
448.25	5730	0.00118	3e-05
448.25	25470	0.00154	3e-05
448.25	55510	0.00217	5e-05
448.25	85620	0.00289	6e-05
448.25	115510	0.00376	8e-05
448.25	145580	0.00478	0.0001
448.25	176050	0.00599	0.00013

System: 2,6,10,15,19,23-hexamethyltetracosane; phases: Liquid
Property: Mass density, kg/m3 (Liquid); method: vibrating-wire apparatus
Temperature, K	Pressure, kPa	Mass density, kg/m3	uncertainty
303.18	1070	802	10
303.18	5300	803.5	10
303.18	5740	804.4	10
303.18	15580	806.9	10
303.18	25530	813.9	10
303.18	35790	826.5	10
303.18	45770	825.1	10
303.18	55770	825.9	10
348.13	5270	776.9	1.6
348.13	5290	777	1.6
348.13	25490	790.6	1.6
348.13	56280	807.7	1.6
348.13	85860	821.2	1.6
348.13	115830	832.6	1.7
348.13	145930	844.3	1.7
348.13	175120	843.2	12
398.15	5160	746.3	1.5
398.15	5230	746.4	1.5
398.15	25310	763.3	1.5
398.15	56100	783.5	1.6
398.15	85890	799.5	1.6
398.15	115450	812.6	1.6
398.15	145820	824.7	1.7
398.15	176100	835.4	1.7
448.25	5580	716.3	1.4
448.25	5730	716.5	1.4
448.25	25470	736.8	1.5
448.25	55510	759.9	1.5
448.25	85620	778.7	1.6
448.25	115510	793.3	1.6
448.25	145580	806.4	1.6
448.25	176050	818.2	1.6

System: 2,6,10,15,19,23-hexamethyltetracosane + carbon dioxide; phases: Liquid
Property: Viscosity, Pa*s (Liquid); method: Vibrating wire viscometry
Mole fraction of carbon dioxide	Temperature, K	Pressure, kPa	Viscosity, Pa*s	uncertainty
0.4233	303.15	10060	0.00912	0.00019
0.4233	303.15	10070	0.00917	0.00019
0.4233	303.15	30380	0.0127	0.0003
0.4233	303.15	50510	0.0173	0.0004
0.4233	303.15	70400	0.023	0.0005
0.4233	303.15	90250	0.0305	0.0006
0.4233	303.15	110380	0.0401	0.0008
0.4233	303.15	130280	0.0523	0.0011
0.4233	303.15	150080	0.0678	0.0014
0.4233	303.15	170210	0.0859	0.0019
0.4233	348.25	10070	0.00299	6e-05
0.4233	348.25	10100	0.00298	6e-05
0.4233	348.25	30440	0.00395	8e-05
0.4233	348.25	50590	0.0051	0.00011
0.4233	348.25	70530	0.00642	0.00013
0.4233	348.25	90610	0.00798	0.00016
0.4233	348.25	110610	0.00983	0.0002
0.4233	348.25	130400	0.0119	0.0003
0.4233	348.25	150670	0.0145	0.0003
0.4233	348.25	169670	0.0173	0.0004
0.4233	398.31	10790	0.00138	3e-05
0.4233	398.31	10830	0.00139	3e-05
0.4233	398.31	30180	0.00179	4e-05
0.4233	398.31	50350	0.00224	5e-05
0.4233	398.31	70500	0.00274	6e-05
0.4233	398.31	90450	0.0033	7e-05
0.4233	398.31	110290	0.00392	8e-05
0.4233	398.31	130350	0.00462	0.0001
0.4233	398.31	150520	0.0054	0.00011
0.4233	398.31	170000	0.00624	0.00013
0.4233	448.35	11450	0.0008	2e-05
0.4233	448.35	11570	0.00081	2e-05
0.4233	448.35	30330	0.00104	2e-05
0.4233	448.35	50410	0.0013	3e-05
0.4233	448.35	70450	0.00157	3e-05
0.4233	448.35	90670	0.00186	4e-05
0.4233	448.35	110310	0.00217	5e-05
0.4233	448.35	130440	0.00252	5e-05
0.4233	448.35	150510	0.00288	6e-05
0.4233	448.35	169900	0.00328	7e-05
0.6039	303.18	10600	0.00492	0.0001
0.6039	303.18	30810	0.00658	0.00014
0.6039	303.18	50820	0.00858	0.00018
0.6039	303.18	70800	0.011	0.0002
0.6039	303.18	91100	0.014	0.0003
0.6039	303.18	100670	0.0156	0.0003
0.6039	303.18	111110	0.0175	0.0004
0.6039	303.18	130850	0.0217	0.0004
0.6039	303.18	150500	0.0265	0.0005
0.6039	303.18	170440	0.032	0.0007
0.6039	348.11	10450	0.00192	4e-05
0.6039	348.11	10480	0.00192	4e-05
0.6039	348.11	30310	0.00249	5e-05
0.6039	348.11	50270	0.00313	6e-05
0.6039	348.11	70180	0.00385	8e-05
0.6039	348.11	90320	0.00468	0.0001
0.6039	348.11	110880	0.00564	0.00012
0.6039	348.11	130860	0.0067	0.00014
0.6039	348.11	150870	0.0079	0.00016
0.6039	348.11	170910	0.00928	0.00019
0.6039	398.13	10940	0.00101	2e-05
0.6039	398.13	11100	0.001	2e-05
0.6039	398.13	30870	0.0013	3e-05
0.6039	398.13	50550	0.00161	3e-05
0.6039	398.13	70810	0.00195	4e-05
0.6039	398.13	91230	0.00231	5e-05
0.6039	398.13	110700	0.00269	6e-05
0.6039	398.13	131240	0.00312	6e-05
0.6039	398.13	150740	0.00357	7e-05
0.6039	398.13	170660	0.00408	8e-05
0.6039	448.13	10630	0.00069	2e-05
0.6039	448.13	11010	0.00068	2e-05
0.6039	448.13	30730	0.00089	2e-05
0.6039	448.13	50590	0.00109	2e-05
0.6039	448.13	70380	0.00122	3e-05
0.6039	448.13	91380	0.00143	3e-05
0.6039	448.13	111050	0.00163	3e-05
0.6039	448.13	130810	0.00184	4e-05
0.6039	448.13	150960	0.00208	4e-05
0.6039	448.13	171000	0.00235	5e-05
0.7882	303.17	30190	0.00236	5e-05
0.7882	303.17	30740	0.00224	5e-05
0.7882	303.17	50100	0.00279	6e-05
0.7882	303.17	70730	0.00343	7e-05
0.7882	303.17	90490	0.00415	9e-05
0.7882	303.17	110640	0.00495	0.0001
0.7882	303.17	130570	0.00591	0.00012
0.7882	303.17	151340	0.00694	0.00014
0.7882	303.17	170570	0.00813	0.00017
0.7882	348.25	30390	0.00108	4e-05
0.7882	348.25	30610	0.00107	3e-05
0.7882	348.25	50540	0.00134	3e-05
0.7882	348.25	70650	0.00161	3e-05
0.7882	348.25	90680	0.00191	4e-05
0.7882	348.25	110350	0.00222	5e-05
0.7882	348.25	130530	0.00257	5e-05
0.7882	348.25	150600	0.00294	6e-05
0.7882	348.25	170310	0.00334	7e-05
0.7882	398.33	30150	0.00062	1e-05
0.7882	398.33	30500	0.00062	2e-05
0.7882	398.33	50500	0.00078	2e-05
0.7882	398.33	70580	0.00094	2e-05
0.7882	398.33	90510	0.0011	2e-05
0.7882	398.33	110760	0.00128	3e-05
0.7882	398.33	130550	0.00146	3e-05
0.7882	398.33	150620	0.00165	3e-05
0.7882	398.33	170310	0.00184	4e-05
0.7882	448.41	30160	0.00041	1e-05
0.7882	448.41	30820	0.00041	1e-05
0.7882	448.41	50450	0.00052	1e-05
0.7882	448.41	70350	0.00063	1e-05
0.7882	448.41	90420	0.00074	2e-05
0.7882	448.41	110590	0.00085	2e-05
0.7882	448.41	130360	0.00097	2e-05
0.7882	448.41	150480	0.0011	2e-05
0.7882	448.41	169720	0.00122	3e-05

System: 2,6,10,15,19,23-hexamethyltetracosane + carbon dioxide; phases: Liquid
Property: Mass density, kg/m3 (Liquid); method: vibrating-wire apparatus
Mole fraction of carbon dioxide	Temperature, K	Pressure, kPa	Mass density, kg/m3	uncertainty
0.4233	303.15	10060	814.8	1.6
0.4233	303.15	10070	815.3	1.6
0.4233	303.15	30380	828	1.7
0.4233	303.15	50510	839.2	1.7
0.4233	303.15	70400	849.3	1.7
0.4233	303.15	90250	856.5	1.7
0.4233	303.15	110380	862.1	1.7
0.4233	303.15	130280	867.8	1.7
0.4233	303.15	150080	869.4	1.7
0.4233	303.15	170210	882.8	1.8
0.4233	348.25	10070	783.6	1.6
0.4233	348.25	10100	783.4	1.6
0.4233	348.25	30440	799.2	1.6
0.4233	348.25	50590	812.2	1.6
0.4233	348.25	70530	823.5	1.6
0.4233	348.25	90610	833.7	1.7
0.4233	348.25	110610	842.8	1.7
0.4233	348.25	130400	851.3	1.7
0.4233	348.25	150670	859.3	1.7
0.4233	348.25	169670	866.3	1.7
0.4233	398.31	10790	749	1.5
0.4233	398.31	10830	755.3	1.5
0.4233	398.31	30180	768.1	1.5
0.4233	398.31	50350	784	1.6
0.4233	398.31	70500	797.4	1.6
0.4233	398.31	90450	808.9	1.6
0.4233	398.31	110290	819.1	1.6
0.4233	398.31	130350	828.4	1.7
0.4233	398.31	150520	837.2	1.7
0.4233	398.31	170000	845	1.7
0.4233	448.35	11450	715.2	1.4
0.4233	448.35	11570	720.6	1.4
0.4233	448.35	30330	737.6	1.5
0.4233	448.35	50410	756.5	1.5
0.4233	448.35	70450	771.8	1.5
0.4233	448.35	90670	785.2	1.6
0.4233	448.35	110310	796.6	1.6
0.4233	448.35	130440	807	1.6
0.4233	448.35	150510	816.5	1.6
0.4233	448.35	169900	824.8	1.7
0.6039	303.18	10600	823.9	1.6
0.6039	303.18	30810	838.1	1.7
0.6039	303.18	50820	850.4	1.7
0.6039	303.18	70800	861	1.7
0.6039	303.18	91100	871.1	1.7
0.6039	303.18	100670	874.8	1.8
0.6039	303.18	111110	879.9	1.8
0.6039	303.18	130850	888.1	1.8
0.6039	303.18	150500	897.9	1.8
0.6039	303.18	170440	910.5	1.8
0.6039	348.11	10450	787.7	1.6
0.6039	348.11	10480	788.1	1.6
0.6039	348.11	30310	806	1.6
0.6039	348.11	50270	820.7	1.6
0.6039	348.11	70180	833.3	1.7
0.6039	348.11	90320	844.4	1.7
0.6039	348.11	110880	854.6	1.7
0.6039	348.11	130860	863.7	1.7
0.6039	348.11	150870	872.1	1.7
0.6039	348.11	170910	879.8	1.8
0.6039	398.13	10940	749.2	1.5
0.6039	398.13	11100	748.9	1.5
0.6039	398.13	30870	771.8	1.5
0.6039	398.13	50550	789.2	1.6
0.6039	398.13	70810	804.2	1.6
0.6039	398.13	91230	817.2	1.6
0.6039	398.13	110700	828.2	1.7
0.6039	398.13	131240	838.7	1.7
0.6039	398.13	150740	847.7	1.7
0.6039	398.13	170660	856.2	1.7
0.6039	448.13	10630	713.1	1.4
0.6039	448.13	11010	713.3	1.4
0.6039	448.13	30730	739.7	1.5
0.6039	448.13	50590	759.8	1.5
0.6039	448.13	70380	776.6	1.6
0.6039	448.13	91380	791.8	1.6
0.6039	448.13	111050	804.5	1.6
0.6039	448.13	130810	815.7	1.6
0.6039	448.13	150960	826	1.7
0.6039	448.13	171000	835.3	1.7
0.7882	303.17	30190	854.3	1.7
0.7882	303.17	30740	847.4	1.7
0.7882	303.17	50100	863.4	1.7
0.7882	303.17	70730	877.8	1.8
0.7882	303.17	90490	890	1.8
0.7882	303.17	110640	901.1	1.8
0.7882	303.17	130570	911	1.8
0.7882	303.17	151340	922.8	1.8
0.7882	303.17	170570	934.8	1.9
0.7882	348.25	30390	806	1.6
0.7882	348.25	30610	806.9	1.6
0.7882	348.25	50540	827	1.7
0.7882	348.25	70650	844	1.7
0.7882	348.25	90680	858.4	1.7
0.7882	348.25	110350	870.8	1.7
0.7882	348.25	130530	882.3	1.8
0.7882	348.25	150600	892.7	1.8
0.7882	348.25	170310	902	1.8
0.7882	398.33	30150	760.4	1.5
0.7882	398.33	30500	759.9	1.5
0.7882	398.33	50500	786.7	1.6
0.7882	398.33	70580	807.3	1.6
0.7882	398.33	90510	824.2	1.6
0.7882	398.33	110760	839	1.7
0.7882	398.33	130550	851.6	1.7
0.7882	398.33	150620	863.2	1.7
0.7882	398.33	170310	873.6	1.7
0.7882	448.41	30160	714.5	1.4
0.7882	448.41	30820	714.9	1.4
0.7882	448.41	50450	748	1.5
0.7882	448.41	70350	772.5	1.5
0.7882	448.41	90420	792.3	1.6
0.7882	448.41	110590	809.1	1.6
0.7882	448.41	130360	823.3	1.6
0.7882	448.41	150480	836.2	1.7
0.7882	448.41	169720	847.5	1.7
