Measured thermophysical data. Vapor-Liquid Equilibrium Data for the System Methanol + Toluene + Tetrabutylammonium Tetraphenylborate
Source: J. Chem. Eng. Data, 2008, 10.1021/je8001078
Compound 1: methanol, CH4O, InChI=1S/CH4O/c1-2/h2H,1H3, purity 99.8%
Compound 2: toluene, C7H8, InChI=1S/C7H8/c1-7-5-3-2-4-6-7/h2-6H,1H3, purity 99.5%
Compound 3: tetrabutylammonium tetraphenylborate(1-), C40H56BN, InChI=1S/C24H20B.C16H36N/c1-5-13-21(14-6-1)25(22-15-7-2-8-16-22,23-17-9-3-10-18-23)24-19-11-4-12-20-24;1-5-9-13-17(14-10-6-2,15-11-7-3)16-12-8-4/h1-20H;5-16H2,1-4H3/q-1;+1, purity 99%

System: methanol + toluene + tetrabutylammonium tetraphenylborate(1-); phases: Gas, Liquid
Fixed: Temperature, K = 318.15
Property: Mole fraction of methanol (Gas); method: Chromatography
Molality, mol/kg of tetrabutylammonium tetraphenylborate(1-)	Solvent: Mole fraction of methanol	Mole fraction of methanol	uncertainty
0	0.2	0.775	0.003
0	0.3	0.792	0.003
0	0.45	0.802	0.003
0	0.6	0.81	0.003
0	0.7	0.823	0.003
0	0.9	0.934	0.002
0.1	0.2	0.776	0.003
0.1	0.3	0.795	0.003
0.1	0.45	0.805	0.003
0.1	0.6	0.814	0.003
0.1	0.7	0.828	0.003
0.1	0.9	0.896	0.003
0.2	0.2	0.778	0.003
0.2	0.3	0.799	0.003
0.2	0.45	0.809	0.003
0.2	0.6	0.818	0.003
0.2	0.7	0.833	0.003
0.2	0.9	0.903	0.002
0.3	0.2	0.78	0.003
0.3	0.3	0.802	0.003
0.3	0.45	0.813	0.003
0.3	0.6	0.822	0.003
0.3	0.7	0.838	0.003
0.3	0.9	0.909	0.002
0.5	0.2	0.784	0.003
0.5	0.3	0.811	0.003
0.5	0.45	0.821	0.003
0.5	0.6	0.831	0.003
0.5	0.7	0.848	0.003
0.5	0.9	0.922	0.002
