Measured thermophysical data. Solubilities of Salicylic Acid in Pure Solvents and Binary Mixtures Containing Cosolvent
Source: J. Chem. Eng. Data, 2009, 10.1021/je800475d
Compound 1: 2-hydroxybenzoic acid, C7H6O3, InChI=1S/C7H6O3/c8-6-4-2-1-3-5(6)7(9)10/h1-4,8H,(H,9,10)
Compound 2: methanol, CH4O, InChI=1S/CH4O/c1-2/h2H,1H3
Compound 3: ethanol, C2H6O, InChI=1S/C2H6O/c1-2-3/h3H,2H2,1H3
Compound 4: ethyl acetate, C4H8O2, InChI=1S/C4H8O2/c1-3-6-4(2)5/h3H2,1-2H3
Compound 5: 1,4-dioxane, C4H8O2, InChI=1S/C4H8O2/c1-2-6-4-3-5-1/h1-4H2
Compound 6: water, H2O, InChI=1S/H2O/h1H2

System: methanol + 2-hydroxybenzoic acid + water; phases: Liquid, Crystal
Fixed: Pressure, kPa = 101
Fixed: Temperature, K = 298.15
Property: Mole fraction of 2-hydroxybenzoic acid (Liquid); method: UV-vis detector
Solvent: Mole fraction of methanol	Mole fraction of 2-hydroxybenzoic acid	uncertainty
0	0.0003	0.0001
0.0903	0.0006	0.0001
0.1942	0.0021	0.0003
0.3599	0.0113	0.0014

System: ethanol + 2-hydroxybenzoic acid + water; phases: Liquid, Crystal
Fixed: Pressure, kPa = 101
Fixed: Temperature, K = 298.15
Property: Mole fraction of 2-hydroxybenzoic acid (Liquid); method: UV-vis detector
Solvent: Mole fraction of ethanol	Mole fraction of 2-hydroxybenzoic acid	uncertainty
0	0.0003	0.0001
0.0329	0.0004	0.0001
0.0731	0.0007	0.0002
0.1179	0.002	0.0006
0.1707	0.0063	0.0012
0.2348	0.0161	0.002
0.2734	0.026	0.0032
0.2899	0.0294	0.0037
0.3183	0.0342	0.0043
0.3665	0.0449	0.0056
0.4159	0.0541	0.0067
0.4774	0.0666	0.0083
0.5487	0.0781	0.0097
0.6314	0.0981	0.0122
0.7407	0.1178	0.017
0.8457	0.1295	0.0286
1	0.145	0.018

System: ethanol + 2-hydroxybenzoic acid + ethyl acetate; phases: Liquid, Crystal
Fixed: Pressure, kPa = 101
Fixed: Temperature, K = 298.15
Property: Mole fraction of 2-hydroxybenzoic acid (Liquid); method: UV-vis detector
Solvent: Mole fraction of ethanol	Mole fraction of 2-hydroxybenzoic acid	uncertainty
0	0.1383	0.0172
0.1613	0.1653	0.0205
0.2991	0.1767	0.0219
0.4201	0.181	0.0225
0.5262	0.1808	0.0224
0.6277	0.1839	0.0228
0.7134	0.1738	0.0216
0.7947	0.1754	0.0218
0.8701	0.1616	0.035
0.9389	0.1446	0.018
1	0.145	0.018

System: 2-hydroxybenzoic acid + 1,4-dioxane + water; phases: Liquid, Crystal
Fixed: Pressure, kPa = 101
Fixed: Temperature, K = 298.15
Property: Mole fraction of 2-hydroxybenzoic acid (Liquid); method: UV-vis detector
Solvent: Mole fraction of 1,4-dioxane	Mole fraction of 2-hydroxybenzoic acid	uncertainty
0	0.0003	0.0001
0.0238	0.0008	0.0001
0.0506	0.0018	0.0002
0.0832	0.0066	0.0008
0.1246	0.0221	0.0028
0.173	0.0436	0.0066
0.2394	0.0784	0.0097
0.3294	0.1212	0.0151
0.4572	0.1616	0.032
0.6573	0.2173	0.027
1	0.261	0.0324
