Measured thermophysical data. Density, Viscosity, and Electrical Conductivity Measurements on the Ternary System H2O + C2H5OH + LiCl over the Entire Ranges of Solvent Composition and LiCl Solubility from (-5 to +50) deg C
Source: J. Chem. Eng. Data, 2008, 10.1021/je800150h
Compound 1: water, H2O, InChI=1S/H2O/h1H2
Compound 2: ethanol, C2H6O, InChI=1S/C2H6O/c1-2-3/h3H,2H2,1H3
Compound 3: lithium chloride, ClLi, InChI=1S/ClH.Li/h1H;/q;+1/p-1

System: water; phases: Liquid
Fixed: Pressure, kPa = 101
Property: Viscosity, Pa*s (Liquid); method: CAPTUB:UFactor:8
Temperature, K	Viscosity, Pa*s	uncertainty
278.1	0.001519	7.2e-05
283.1	0.001308	6.3e-05
288.15	0.00114	5.6e-05
293.15	0.001005	5e-05
298.15	0.000894	4.5e-05
303.15	0.000799	4.1e-05
308.15	0.000723	3.8e-05
313.15	0.000655	3.5e-05
318.15	0.000599	3.2e-05
323.15	0.000548	3e-05

System: water; phases: Liquid
Fixed: Pressure, kPa = 101
Property: Mass density, kg/m3 (Liquid); method: PYCNOM::UFactor:16
Temperature, K	Mass density, kg/m3	uncertainty
278.1	999.9	4.4
283.1	999.7	4.2
288.15	999.1	4
293.15	998.2	3.8
298.15	997.1	4
303.15	995.6	4.2
308.15	994.1	4.3
313.15	992.2	4.5
318.15	990.2	4.7
323.15	988.1	4.9

System: ethanol; phases: Liquid
Fixed: Pressure, kPa = 101
Property: Viscosity, Pa*s (Liquid); method: CAPTUB::UFactor:8
Temperature, K	Viscosity, Pa*s	uncertainty
268.1	0.001975	9.3e-05
273.1	0.001775	8.4e-05
278.1	0.001629	7.7e-05
283.1	0.001468	7e-05
288.15	0.001341	6.5e-05
293.15	0.001207	5.9e-05
298.15	0.001105	5.4e-05
303.15	0.00101	5e-05
308.15	0.00092	4.6e-05
313.15	0.00084	4.3e-05
318.15	0.000772	4e-05
323.15	0.000713	3.7e-05

System: ethanol; phases: Liquid
Fixed: Pressure, kPa = 101
Property: Mass density, kg/m3 (Liquid); method: PYCNOM::UFactor:16
Temperature, K	Mass density, kg/m3	uncertainty
268.1	811.1	3.8
273.1	806.8	3.6
278.1	802.6	3.4
283.1	798.4	3.1
288.15	794.2	2.9
293.15	789.9	2.7
298.15	785.7	2.9
303.15	781.4	3.1
308.15	777.1	3.2
313.15	772.8	3.4
318.15	767.9	3.6
323.15	763.4	3.7

System: lithium chloride + water; phases: Liquid
Fixed: Pressure, kPa = 101
Property: Electrical conductivity, S/m (Liquid); method: OTHER::sMethod:CyberScan CON500 conductivity meter
Molality, mol/kg of lithium chloride	Temperature, K	Electrical conductivity, S/m	uncertainty
0.5	278.1	2.61	0.2088
0.5	283.1	2.99	0.2392
0.5	288.15	3.35	0.268
0.5	293.15	3.74	0.2992
0.5	298.15	4.15	0.332
0.5	303.15	4.58	0.3664
0.5	308.15	4.99	0.3992
0.5	313.15	5.43	0.4344
0.5	318.15	5.85	0.468
0.5	323.15	6.28	0.5024
1	278.1	4.64	0.3712
1	283.1	5.2	0.416
1	288.15	5.87	0.4696
1	293.15	6.53	0.5224
1	298.15	7.29	0.5832
1	303.15	8	0.64
1	308.15	8.7	0.696
1	313.15	9.45	0.756
1	318.15	10.22	0.8176
1	323.15	11.01	0.8808
2	278.1	7.64	0.6112
2	283.1	8.61	0.6888
2	288.15	9.62	0.7696
2	293.15	10.74	0.8592
2	298.15	12.04	0.9632
2	303.15	13.2	1.056
2	308.15	14.42	1.1536
2	313.15	15.64	1.2512
2	318.15	16.83	1.3464
2	323.15	18.08	1.4464
3	278.1	9.59	0.7672
3	283.1	10.96	0.8768
3	288.15	12.26	0.9808
3	293.15	13.71	1.0968
3	298.15	15.24	1.2192
3	303.15	16.68	1.3344
3	308.15	18.19	1.4552
3	313.15	19.74	1.5792
4.5	278.1	11.48	0.9184
4.5	283.1	13	1.04
4.5	288.15	14.46	1.1568
4.5	293.15	16.08	1.2864
4.5	298.15	17.68	1.4144
4.5	303.15	19.42	1.5536
6	278.1	12.04	0.9632
6	283.1	13.62	1.0896
6	288.15	15.23	1.2184
6	293.15	16.89	1.3512
6	298.15	18.66	1.4928
8	278.1	11.53	0.9224
8	283.1	13.07	1.0456
8	288.15	14.61	1.1688
8	293.15	16.27	1.3016
8	298.15	17.95	1.436
8	303.15	19.73	1.5784
11	278.1	9.37	0.7496
11	283.1	10.69	0.8552
11	288.15	12.08	0.9664
11	293.15	13.56	1.0848
11	298.15	15.1	1.208
11	303.15	16.7	1.336
11	308.15	18.26	1.4608
11	313.15	19.97	1.5976
14	278.1	6.99	0.5592
14	283.1	8.01	0.6408
14	288.15	9.09	0.7272
14	293.15	10.36	0.8288
14	298.15	11.7	0.936
14	303.15	13.11	1.0488
14	308.15	14.54	1.1632
14	313.15	16.04	1.2832
14	318.15	17.54	1.4032
14	323.15	19.14	1.5312
17.8	278.1	4.71	0.3768
17.8	283.1	5.52	0.4416
17.8	288.15	6.45	0.516
17.8	293.15	7.44	0.5952
17.8	298.15	8.5	0.68
17.8	303.15	9.61	0.7688
17.8	308.15	10.86	0.8688
17.8	313.15	12.26	0.9808
17.8	318.15	13.64	1.0912
17.8	323.15	15.06	1.2048

System: lithium chloride + water; phases: Liquid
Fixed: Pressure, kPa = 101
Property: Viscosity, Pa*s (Liquid); method: CAPTUB::UFactor:8
Molality, mol/kg of lithium chloride	Temperature, K	Viscosity, Pa*s	uncertainty
0.5	268.1	0.002273	0.000106
0.5	273.1	0.001944	9.1e-05
0.5	278.1	0.001663	7.9e-05
0.5	283.1	0.001424	6.8e-05
0.5	288.15	0.001243	6e-05
0.5	293.15	0.001087	5.3e-05
0.5	298.15	0.00097	4.8e-05
0.5	303.15	0.000866	4.4e-05
0.5	308.15	0.000782	4e-05
0.5	313.15	0.000722	3.8e-05
0.5	318.15	0.000668	3.5e-05
0.5	323.15	0.000625	3.3e-05
1	268.1	0.002554	0.000118
1	273.1	0.002107	9.9e-05
1	278.1	0.001784	8.4e-05
1	283.1	0.001518	7.2e-05
1	288.15	0.001346	6.5e-05
1	293.15	0.00116	5.7e-05
1	298.15	0.001052	5.2e-05
1	303.15	0.000929	4.6e-05
1	308.15	0.000834	4.2e-05
1	313.15	0.000774	4e-05
1	318.15	0.000714	3.7e-05
1	323.15	0.000665	3.5e-05
2	268.1	0.002831	0.000131
2	273.1	0.00237	0.00011
2	278.1	0.002	9.4e-05
2	283.1	0.001701	8.1e-05
2	288.15	0.001502	7.2e-05
2	293.15	0.001308	6.3e-05
2	298.15	0.001165	5.7e-05
2	303.15	0.001047	5.2e-05
2	308.15	0.000941	4.7e-05
2	313.15	0.000866	4.4e-05
2	318.15	0.000802	4.1e-05
2	323.15	0.000747	3.9e-05
3	268.1	0.003191	0.000146
3	273.1	0.002681	0.000124
3	278.1	0.002266	0.000105
3	283.1	0.001936	9.1e-05
3	288.15	0.001729	8.2e-05
3	293.15	0.001495	7.1e-05
3	298.15	0.001339	6.4e-05
3	303.15	0.001239	6e-05
3	308.15	0.001083	5.3e-05
3	313.15	0.000977	4.9e-05
3	318.15	0.00091	4.6e-05
3	323.15	0.000859	4.3e-05
4.5	268.1	0.003649	0.000167
4.5	273.1	0.003133	0.000144
4.5	278.1	0.00269	0.000124
4.5	283.1	0.002303	0.000107
4.5	288.15	0.002034	9.5e-05
4.5	293.15	0.001777	8.4e-05
4.5	298.15	0.001586	7.5e-05
4.5	303.15	0.001422	6.8e-05
4.5	308.15	0.00128	6.2e-05
4.5	313.15	0.001177	5.7e-05
4.5	318.15	0.001076	5.3e-05
4.5	323.15	0.001003	5e-05
6	268.1	0.004461	0.000202
6	273.1	0.003815	0.000174
6	278.1	0.003258	0.000149
6	283.1	0.002777	0.000128
6	288.15	0.002452	0.000114
6	293.15	0.002131	9.9e-05
6	298.15	0.001906	8.9e-05
6	303.15	0.001713	8.1e-05
6	308.15	0.001532	7.3e-05
6	313.15	0.001406	6.7e-05
6	318.15	0.001293	6.2e-05
6	323.15	0.001194	5.8e-05
8	268.1	0.006735	0.000289
8	273.1	0.005744	0.000253
8	278.1	0.004899	0.000221
8	283.1	0.00417	0.000189
8	288.15	0.003602	0.000164
8	293.15	0.003199	0.000146
8	298.15	0.0028	0.000129
8	303.15	0.002486	0.000115
8	308.15	0.002256	0.000105
8	313.15	0.002071	9.7e-05
8	318.15	0.001919	9e-05
8	323.15	0.001742	8.2e-05
11	268.1	0.010848	0.000444
11	273.1	0.009191	0.00038
11	278.1	0.007784	0.000327
11	283.1	0.006579	0.000282
11	288.15	0.00563	0.000248
11	293.15	0.004898	0.000221
11	298.15	0.004292	0.000194
11	303.15	0.003812	0.000173
11	308.15	0.003407	0.000155
11	313.15	0.003091	0.000141
11	318.15	0.002869	0.000132
11	323.15	0.00269	0.000124
14	268.1	0.018985	0.000768
14	273.1	0.015816	0.000636
14	278.1	0.013169	0.00053
14	283.1	0.01097	0.000445
14	288.15	0.009142	0.000376
14	293.15	0.007966	0.000332
14	298.15	0.006899	0.000293
14	303.15	0.006073	0.000263
14	308.15	0.005332	0.000236
14	313.15	0.004812	0.000216
14	318.15	0.004412	0.000199
14	323.15	0.004123	0.000186
17.8	268.1	0.02866	0.001182
17.8	273.1	0.024988	0.001014
17.8	278.1	0.021788	0.000874
17.8	283.1	0.019662	0.000784
17.8	288.15	0.017145	0.000681
17.8	293.15	0.014889	0.000591
17.8	298.15	0.01268	0.000506
17.8	303.15	0.011538	0.000462
17.8	308.15	0.010462	0.000422
17.8	313.15	0.009741	0.000395
17.8	318.15	0.008984	0.000367
17.8	323.15	0.008265	0.00034

System: lithium chloride + water; phases: Liquid
Fixed: Pressure, kPa = 101
Property: Mass density, kg/m3 (Liquid); method: PYCNOM::UFactor:16
Molality, mol/kg of lithium chloride	Temperature, K	Mass density, kg/m3	uncertainty
0.5	268.1	1013.4	4.8
0.5	273.1	1013.2	4.6
0.5	278.1	1013.7	4.4
0.5	283.1	1012.5	4.2
0.5	288.15	1011.6	4.1
0.5	293.15	1010.8	3.9
0.5	298.15	1009.4	4.1
0.5	303.15	1008.1	4.2
0.5	308.15	1006.6	4.4
0.5	313.15	1005.1	4.6
0.5	318.15	1003.5	4.8
0.5	323.15	1002.2	4.9
1	268.1	1024.4	4.9
1	273.1	1024.4	4.7
1	278.1	1024	4.5
1	283.1	1023.3	4.3
1	288.15	1022.2	4.1
1	293.15	1021.4	3.9
1	298.15	1020.2	4.1
1	303.15	1018.7	4.3
1	308.15	1017.2	4.5
1	313.15	1015.8	4.6
1	318.15	1013.8	4.8
1	323.15	1012.5	5
2	268.1	1047.1	5
2	273.1	1046.9	4.8
2	278.1	1046.3	4.6
2	283.1	1045.3	4.4
2	288.15	1044.1	4.2
2	293.15	1043	4
2	298.15	1041.8	4.2
2	303.15	1040.1	4.4
2	308.15	1038.7	4.6
2	313.15	1037.1	4.8
2	318.15	1035.2	4.9
2	323.15	1033.8	5.1
3	268.1	1067.8	5.1
3	273.1	1067.4	4.9
3	278.1	1066.4	4.7
3	283.1	1065.4	4.5
3	288.15	1064.3	4.3
3	293.15	1063.1	4.1
3	298.15	1061.8	4.3
3	303.15	1060.3	4.5
3	308.15	1058.7	4.7
3	313.15	1056.9	4.9
3	318.15	1055.5	5
3	323.15	1039	5.1
4.5	268.1	1095.9	5.2
4.5	273.1	1095	5
4.5	278.1	1094.1	4.9
4.5	283.1	1092.8	4.7
4.5	288.15	1091.5	4.5
4.5	293.15	1090.5	4.3
4.5	298.15	1089.1	4.5
4.5	303.15	1087.7	4.6
4.5	308.15	1085.9	4.8
4.5	313.15	1084.4	5
4.5	318.15	1083	5.2
4.5	323.15	1081.1	5.4
6	268.1	1121.7	5.4
6	273.1	1121.2	5.2
6	278.1	1119.8	5
6	283.1	1118.8	4.8
6	288.15	1117.4	4.6
6	293.15	1116.1	4.4
6	298.15	1114.6	4.6
6	303.15	1113.1	4.8
6	308.15	1111.5	5
6	313.15	1110.1	5.1
6	318.15	1108.4	5.3
6	323.15	1106.4	5.5
8	268.1	1155.4	5.5
8	273.1	1153.7	5.3
8	278.1	1152.6	5.2
8	283.1	1151.4	5
8	288.15	1149.8	4.8
8	293.15	1148.5	4.6
8	298.15	1147	4.8
8	303.15	1145.4	4.9
8	308.15	1143.9	5.1
8	313.15	1142.3	5.3
8	318.15	1140.7	5.5
8	323.15	1138.8	5.7
11	268.1	1200.2	5.8
11	273.1	1198.7	5.6
11	278.1	1197.1	5.4
11	283.1	1195.6	5.2
11	288.15	1194	5
11	293.15	1192.5	4.8
11	298.15	1190.9	5
11	303.15	1189.3	5.2
11	308.15	1187.8	5.3
11	313.15	1186.1	5.5
11	318.15	1184.3	5.7
11	323.15	1182.6	5.9
14	268.1	1240.7	6
14	273.1	1239.1	5.8
14	278.1	1237.4	5.6
14	283.1	1235.8	5.4
14	288.15	1234.1	5.2
14	293.15	1232.6	5
14	298.15	1230.7	5.2
14	303.15	1228.9	5.4
14	308.15	1227.1	5.6
14	313.15	1225.3	5.7
14	318.15	1223.5	5.9
14	323.15	1221.8	6.1
17.8	268.1	1288.4	6.2
17.8	273.1	1286.4	6
17.8	278.1	1284.2	5.8
17.8	283.1	1282.2	5.6
17.8	288.15	1280.2	5.4
17.8	293.15	1278.3	5.3
17.8	298.15	1276.4	5.4
17.8	303.15	1274.6	5.6
17.8	308.15	1272.8	5.8
17.8	313.15	1270.7	6
17.8	318.15	1268.9	6.1
17.8	323.15	1266.9	6.3

System: ethanol + water; phases: Liquid
Fixed: Pressure, kPa = 101
Property: Viscosity, Pa*s (Liquid); method: CAPTUB::UFactor:8
Mole fraction of water	Temperature, K	Viscosity, Pa*s	uncertainty
0.1	268.1	0.002307	0.000107
0.1	273.1	0.002059	9.6e-05
0.1	278.1	0.001837	8.7e-05
0.1	283.1	0.001639	7.8e-05
0.1	288.15	0.00151	7.2e-05
0.1	293.15	0.001355	6.5e-05
0.1	298.15	0.001249	6e-05
0.1	303.15	0.001156	5.6e-05
0.1	308.15	0.001067	5.2e-05
0.1	313.15	0.00092	4.6e-05
0.1	318.15	0.00086	4.3e-05
0.1	323.15	0.00076	3.9e-05
0.2	268.1	0.002805	0.000129
0.2	273.1	0.002491	0.000115
0.2	278.1	0.00221	0.000103
0.2	283.1	0.001959	9.2e-05
0.2	288.15	0.001721	8.1e-05
0.2	293.15	0.001515	7.2e-05
0.2	298.15	0.001353	6.5e-05
0.2	303.15	0.001218	5.9e-05
0.2	308.15	0.00111	5.4e-05
0.2	313.15	0.001004	5e-05
0.2	318.15	0.000925	4.6e-05
0.2	323.15	0.000839	4.3e-05
0.3	268.1	0.003345	0.000153
0.3	273.1	0.002938	0.000135
0.3	278.1	0.002579	0.000119
0.3	283.1	0.00226	0.000105
0.3	288.15	0.00198	9.3e-05
0.3	293.15	0.001715	8.1e-05
0.3	298.15	0.001513	7.2e-05
0.3	303.15	0.001356	6.5e-05
0.3	308.15	0.001215	5.9e-05
0.3	313.15	0.001096	5.4e-05
0.3	318.15	0.000998	4.9e-05
0.3	323.15	0.000902	4.5e-05
0.4	268.1	0.003991	0.000182
0.4	273.1	0.003451	0.000158
0.4	278.1	0.00298	0.000137
0.4	283.1	0.00257	0.000119
0.4	288.15	0.002212	0.000103
0.4	293.15	0.001901	8.9e-05
0.4	298.15	0.001651	7.8e-05
0.4	303.15	0.001446	6.9e-05
0.4	308.15	0.001296	6.3e-05
0.4	313.15	0.001149	5.6e-05
0.4	318.15	0.001039	5.1e-05
0.4	323.15	0.000932	4.7e-05
0.5	268.1	0.004829	0.000219
0.5	273.1	0.004123	0.000187
0.5	278.1	0.003518	0.000161
0.5	283.1	0.002995	0.000138
0.5	288.15	0.002539	0.000117
0.5	293.15	0.002153	0.0001
0.5	298.15	0.00184	9e-05
0.5	303.15	0.001598	7.6e-05
0.5	308.15	0.001407	6.7e-05
0.5	313.15	0.00127	6e-05
0.5	318.15	0.00114	6e-05
0.5	323.15	0.00102	5e-05
0.6	268.1	0.005931	0.00026
0.6	273.1	0.004978	0.000225
0.6	278.1	0.004176	0.00019
0.6	283.1	0.003499	0.00016
0.6	288.15	0.002922	0.000134
0.6	293.15	0.002463	0.000114
0.6	298.15	0.002089	9.8e-05
0.6	303.15	0.001812	8.5e-05
0.6	308.15	0.001582	7.5e-05
0.6	313.15	0.00143	6.8e-05
0.6	318.15	0.00127	6.1e-05
0.6	323.15	0.00114	5.6e-05
0.7	268.1	0.007172	0.000305
0.7	273.1	0.005947	0.00026
0.7	278.1	0.004933	0.000223
0.7	283.1	0.004093	0.000186
0.7	288.15	0.003372	0.000154
0.7	293.15	0.002842	0.000131
0.7	298.15	0.00235	0.000109
0.7	303.15	0.00204	9.5e-05
0.7	308.15	0.00178	8.4e-05
0.7	313.15	0.00156	7.4e-05
0.7	318.15	0.001371	6.6e-05
0.7	323.15	0.00117	5.7e-05
0.8	268.1	0.007549	0.000319
0.8	273.1	0.006169	0.000268
0.8	278.1	0.005037	0.000227
0.8	283.1	0.004102	0.000186
0.8	288.15	0.003433	0.000157
0.8	293.15	0.002841	0.000131
0.8	298.15	0.00245	0.000113
0.8	303.15	0.002101	9.8e-05
0.8	308.15	0.001772	8.4e-05
0.8	313.15	0.001557	7.4e-05
0.8	318.15	0.001369	6.6e-05
0.8	323.15	0.001202	5.8e-05
0.9	268.1	0.006025	0.000263
0.9	273.1	0.004997	0.000226
0.9	278.1	0.004089	0.000186
0.9	283.1	0.00334	0.000153
0.9	288.15	0.002706	0.000125
0.9	293.15	0.002268	0.000105
0.9	298.15	0.00192	9e-05
0.9	303.15	0.001656	7.8e-05
0.9	308.15	0.001448	6.9e-05
0.9	313.15	0.001271	6.1e-05
0.9	318.15	0.001121	5.5e-05
0.9	323.15	0.000975	4.8e-05

System: ethanol + water; phases: Liquid
Fixed: Pressure, kPa = 101
Property: Mass density, kg/m3 (Liquid); method: PYCNOM::UFactor:16
Mole fraction of water	Temperature, K	Mass density, kg/m3	uncertainty
0.1	268.1	824.9	3.8
0.1	273.1	820.3	3.6
0.1	278.1	815.9	3.4
0.1	283.1	811.4	3.2
0.1	288.15	806.9	3
0.1	293.15	802.1	2.8
0.1	298.15	797.7	3
0.1	303.15	793	3.1
0.1	308.15	788.2	3.3
0.1	313.15	783.6	3.5
0.1	318.15	779	3.6
0.1	323.15	774.3	3.8
0.2	268.1	838.2	3.9
0.2	273.1	833.7	3.7
0.2	278.1	829	3.5
0.2	283.1	824.7	3.3
0.2	288.15	820.1	3.1
0.2	293.15	815.6	2.9
0.2	298.15	811	3
0.2	303.15	806	3.2
0.2	308.15	801.4	3.4
0.2	313.15	796.8	3.5
0.2	318.15	792.2	3.7
0.2	323.15	787.5	3.8
0.3	268.1	852.2	4
0.3	273.1	847.7	3.8
0.3	278.1	842.9	3.6
0.3	283.1	838.5	3.4
0.3	288.15	833.9	3.1
0.3	293.15	829.4	2.9
0.3	298.15	825.1	3.1
0.3	303.15	820.6	3.3
0.3	308.15	816	3.4
0.3	313.15	811.1	3.6
0.3	318.15	806.6	3.8
0.3	323.15	801.9	3.9
0.4	268.1	867.7	4.1
0.4	273.1	863.4	3.9
0.4	278.1	858.8	3.6
0.4	283.1	854.1	3.4
0.4	288.15	849.5	3.2
0.4	293.15	845	3
0.4	298.15	840.6	3.2
0.4	303.15	836.1	3.4
0.4	308.15	831.4	3.5
0.4	313.15	826.9	3.7
0.4	318.15	822.4	3.8
0.4	323.15	817.7	4
0.5	268.1	886.6	4.2
0.5	273.1	882.1	3.9
0.5	278.1	877.7	3.7
0.5	283.1	872.8	3.5
0.5	288.15	868.5	3.3
0.5	293.15	863.8	3.1
0.5	298.15	859.2	3.3
0.5	303.15	854.8	3.4
0.5	308.15	850.1	3.6
0.5	313.15	845.2	3.8
0.5	318.15	840.5	3.9
0.5	323.15	835.8	4.1
0.6	268.1	908.1	4.3
0.6	273.1	903.5	4.1
0.6	278.1	899.3	3.8
0.6	283.1	894.6	3.6
0.6	288.15	889.6	3.4
0.6	293.15	885.1	3.2
0.6	298.15	880.6	3.4
0.6	303.15	876.1	3.6
0.6	308.15	871.4	3.7
0.6	313.15	866.8	3.9
0.6	318.15	862.1	4
0.6	323.15	857.3	4.2
0.7	268.1	931.6	4.4
0.7	273.1	927.1	4.2
0.7	278.1	922.7	4
0.7	283.1	918.7	3.8
0.7	288.15	914.5	3.6
0.7	293.15	909.9	3.4
0.7	298.15	905.3	3.5
0.7	303.15	901	3.7
0.7	308.15	896.5	3.8
0.7	313.15	892	4
0.7	318.15	887.4	4.2
0.7	323.15	883	4.3
0.8	268.1	951	4.5
0.8	273.1	948	4.3
0.8	278.1	945	4.1
0.8	283.1	941.4	3.9
0.8	288.15	938	3.7
0.8	293.15	934.6	3.5
0.8	298.15	931.3	3.7
0.8	303.15	927.6	3.8
0.8	308.15	923.8	4
0.8	313.15	919.5	4.2
0.8	318.15	915.5	4.3
0.8	323.15	911.2	4.5
0.9	268.1	977.3	4.6
0.9	273.1	975.6	4.4
0.9	278.1	973.2	4.2
0.9	283.1	970.8	4
0.9	288.15	967.3	3.8
0.9	293.15	963.7	3.6
0.9	298.15	960.3	3.8
0.9	303.15	956.2	4
0.9	308.15	952.7	4.1
0.9	313.15	949	4.3
0.9	318.15	945.5	4.5
0.9	323.15	942	4.6

System: ethanol + lithium chloride; phases: Liquid
Fixed: Pressure, kPa = 101
Property: Electrical conductivity, S/m (Liquid); method: OTHER::sMethod:CyberScan CON500 conductivity meter
Molality, mol/kg of lithium chloride	Temperature, K	Electrical conductivity, S/m	uncertainty
0.196	268.1	0.1172	0.0094
0.196	273.1	0.1303	0.0104
0.196	278.1	0.1438	0.0115
0.196	283.1	0.158	0.0126
0.196	288.15	0.172	0.0138
0.196	293.15	0.188	0.015
0.196	298.15	0.231	0.0185
0.196	303.15	0.25	0.02
0.196	308.15	0.27	0.0216
0.196	313.15	0.289	0.0231
0.196	318.15	0.309	0.0247
0.196	323.15	0.327	0.0262
0.391	268.1	0.197	0.0158
0.391	273.1	0.221	0.0177
0.391	278.1	0.245	0.0196
0.391	283.1	0.27	0.0216
0.391	288.15	0.295	0.0236
0.391	293.15	0.325	0.026
0.391	298.15	0.354	0.0283
0.391	303.15	0.384	0.0307
0.391	308.15	0.42	0.0336
0.391	313.15	0.447	0.0358
0.391	318.15	0.48	0.0384
0.391	323.15	0.512	0.041
0.782	268.1	0.269	0.0215
0.782	273.1	0.3	0.024
0.782	278.1	0.336	0.0269
0.782	283.1	0.37	0.0296
0.782	288.15	0.415	0.0332
0.782	293.15	0.459	0.0367
0.782	298.15	0.506	0.0405
0.782	303.15	0.554	0.0443
0.782	308.15	0.605	0.0484
0.782	313.15	0.652	0.0522
0.782	318.15	0.708	0.0566
0.782	323.15	0.762	0.061
1.173	268.1	0.3	0.024
1.173	273.1	0.335	0.0268
1.173	278.1	0.383	0.0306
1.173	283.1	0.441	0.0353
1.173	288.15	0.477	0.0382
1.173	293.15	0.533	0.0426
1.173	298.15	0.589	0.0471
1.173	303.15	0.649	0.0519
1.173	308.15	0.711	0.0569
1.173	313.15	0.773	0.0618
1.173	318.15	0.843	0.0674
1.173	323.15	0.911	0.0729
1.76	268.1	0.305	0.0244
1.76	273.1	0.343	0.0274
1.76	278.1	0.394	0.0315
1.76	283.1	0.445	0.0356
1.76	288.15	0.505	0.0404
1.76	293.15	0.565	0.0452
1.76	298.15	0.629	0.0503
1.76	303.15	0.697	0.0558
1.76	308.15	0.772	0.0618
1.76	313.15	0.852	0.0682
1.76	318.15	0.931	0.0745
1.76	323.15	1.02	0.082
2.347	268.1	0.276	0.0221
2.347	273.1	0.315	0.0252
2.347	278.1	0.362	0.029
2.347	283.1	0.417	0.0334
2.347	288.15	0.472	0.0378
2.347	293.15	0.529	0.0423
2.347	298.15	0.6	0.048
2.347	303.15	0.67	0.0536
2.347	308.15	0.746	0.0597
2.347	313.15	0.822	0.0658
2.347	318.15	0.91	0.0728
2.347	323.15	0.998	0.0798
3.129	268.1	0.222	0.0178
3.129	273.1	0.258	0.0206
3.129	278.1	0.3	0.024
3.129	283.1	0.348	0.0278
3.129	288.15	0.396	0.0317
3.129	293.15	0.45	0.036
3.129	298.15	0.514	0.0411
3.129	303.15	0.575	0.046
3.129	308.15	0.644	0.0515
3.129	313.15	0.712	0.057
3.129	318.15	0.792	0.0634
3.129	323.15	0.875	0.07
3.911	268.1	0.162	0.013
3.911	273.1	0.198	0.0158
3.911	278.1	0.238	0.019
3.911	283.1	0.276	0.0221
3.911	288.15	0.322	0.0258
3.911	293.15	0.367	0.0294
3.911	298.15	0.427	0.0342
3.911	303.15	0.487	0.039
3.911	308.15	0.551	0.0441
3.911	313.15	0.624	0.0499
3.911	318.15	0.697	0.0558
3.911	323.15	0.783	0.0626

System: ethanol + lithium chloride; phases: Liquid
Fixed: Pressure, kPa = 101
Property: Viscosity, Pa*s (Liquid); method: CAPTUB::UFactor:8
Molality, mol/kg of lithium chloride	Temperature, K	Viscosity, Pa*s	uncertainty
0.196	268.1	0.002208	0.000103
0.196	273.1	0.002043	9.6e-05
0.196	278.1	0.001863	8.8e-05
0.196	283.1	0.001695	8e-05
0.196	288.15	0.001495	7.1e-05
0.196	293.15	0.001357	6.5e-05
0.196	298.15	0.001218	5.9e-05
0.196	303.15	0.001089	5.3e-05
0.196	308.15	0.001006	5e-05
0.196	313.15	0.000928	4.6e-05
0.196	318.15	0.000866	4.4e-05
0.196	323.15	0.000807	4.1e-05
0.391	268.1	0.002546	0.000118
0.391	273.1	0.002313	0.000108
0.391	278.1	0.002099	9.8e-05
0.391	283.1	0.001908	9e-05
0.391	288.15	0.001715	8.1e-05
0.391	293.15	0.001524	7.3e-05
0.391	298.15	0.001412	6.8e-05
0.391	303.15	0.001306	6.3e-05
0.391	308.15	0.001129	5.5e-05
0.391	313.15	0.001046	5.2e-05
0.391	318.15	0.000968	4.8e-05
0.391	323.15	0.000884	4.5e-05
0.782	268.1	0.003283	0.000151
0.782	273.1	0.002943	0.000135
0.782	278.1	0.002638	0.000122
0.782	283.1	0.002366	0.00011
0.782	288.15	0.0021	9.8e-05
0.782	293.15	0.001869	8.8e-05
0.782	298.15	0.001677	7.9e-05
0.782	303.15	0.001527	7.3e-05
0.782	308.15	0.001369	6.6e-05
0.782	313.15	0.001267	6.1e-05
0.782	318.15	0.001164	5.7e-05
0.782	323.15	0.00107	5.3e-05
1.173	268.1	0.004167	0.000189
1.173	273.1	0.003722	0.00017
1.173	278.1	0.003323	0.000152
1.173	283.1	0.002959	0.000136
1.173	288.15	0.002603	0.00012
1.173	293.15	0.002307	0.000107
1.173	298.15	0.002057	9.6e-05
1.173	303.15	0.001846	8.7e-05
1.173	308.15	0.001671	7.9e-05
1.173	313.15	0.001524	7.3e-05
1.173	318.15	0.001414	6.8e-05
1.173	323.15	0.001285	6.2e-05
1.76	268.1	0.005819	0.000256
1.76	273.1	0.005158	0.000232
1.76	278.1	0.00457	0.000207
1.76	283.1	0.004045	0.000184
1.76	288.15	0.003546	0.000162
1.76	293.15	0.003124	0.000143
1.76	298.15	0.002767	0.000127
1.76	303.15	0.002469	0.000114
1.76	308.15	0.002223	0.000103
1.76	313.15	0.00201	9.4e-05
1.76	318.15	0.001842	8.7e-05
1.76	323.15	0.001677	7.9e-05
2.347	268.1	0.009082	0.000377
2.347	273.1	0.007821	0.000329
2.347	278.1	0.006735	0.000288
2.347	283.1	0.005802	0.000254
2.347	288.15	0.004988	0.000225
2.347	293.15	0.004395	0.000199
2.347	298.15	0.003869	0.000176
2.347	303.15	0.003436	0.000157
2.347	308.15	0.003077	0.000141
2.347	313.15	0.002762	0.000127
2.347	318.15	0.002538	0.000117
2.347	323.15	0.002335	0.000108
3.129	268.1	0.014963	0.000605
3.129	273.1	0.012709	0.000514
3.129	278.1	0.010782	0.000439
3.129	283.1	0.009203	0.000379
3.129	288.15	0.007807	0.000327
3.129	293.15	0.006784	0.000289
3.129	298.15	0.005908	0.000257
3.129	303.15	0.005171	0.000231
3.129	308.15	0.004578	0.000206
3.129	313.15	0.004089	0.000185
3.129	318.15	0.003735	0.000169
3.129	323.15	0.003437	0.000156
3.911	268.1	0.025437	0.001041
3.911	273.1	0.021163	0.000853
3.911	278.1	0.017617	0.000705
3.911	283.1	0.014676	0.000587
3.911	288.15	0.012335	0.000495
3.911	293.15	0.010561	0.000428
3.911	298.15	0.009071	0.000372
3.911	303.15	0.007924	0.00033
3.911	308.15	0.006884	0.000292
3.911	313.15	0.006076	0.000263
3.911	318.15	0.005603	0.000246
3.911	323.15	0.005009	0.000225

System: ethanol + lithium chloride; phases: Liquid
Fixed: Pressure, kPa = 101
Property: Mass density, kg/m3 (Liquid); method: PYCNOM:UFactor:16
Molality, mol/kg of lithium chloride	Temperature, K	Mass density, kg/m3	uncertainty
0.196	268.1	810.9	3.8
0.196	273.1	805.1	3.6
0.196	278.1	803.2	3.4
0.196	283.1	796.1	3.1
0.196	288.15	789.7	2.9
0.196	293.15	786	2.7
0.196	298.15	782.4	2.9
0.196	303.15	776.5	3
0.196	308.15	773.8	3.2
0.196	313.15	773	3.4
0.196	318.15	772.2	3.6
0.196	323.15	768.7	3.8
0.391	268.1	817.9	3.8
0.391	273.1	810.6	3.6
0.391	278.1	810.3	3.4
0.391	283.1	800.9	3.2
0.391	288.15	795.9	2.9
0.391	293.15	791.9	2.8
0.391	298.15	788.3	2.9
0.391	303.15	782.5	3.1
0.391	308.15	779.7	3.2
0.391	313.15	779	3.4
0.391	318.15	778.6	3.6
0.391	323.15	774.3	3.8
0.782	268.1	828.4	3.9
0.782	273.1	821.3	3.6
0.782	278.1	821.5	3.5
0.782	283.1	812.2	3.2
0.782	288.15	807.5	3
0.782	293.15	803.3	2.8
0.782	298.15	799.4	3
0.782	303.15	794.7	3.1
0.782	308.15	791.2	3.3
0.782	313.15	790.7	3.5
0.782	318.15	790.9	3.7
0.782	323.15	786.1	3.8
1.173	268.1	838.1	3.9
1.173	273.1	832.5	3.7
1.173	278.1	834.1	3.5
1.173	283.1	823.4	3.3
1.173	288.15	817.5	3.1
1.173	293.15	813.6	2.9
1.173	298.15	810.3	3
1.173	303.15	804.8	3.2
1.173	308.15	802.3	3.4
1.173	313.15	801.9	3.5
1.173	318.15	801.8	3.7
1.173	323.15	796.6	3.9
1.76	268.1	854.5	4
1.76	273.1	847	3.8
1.76	278.1	845.5	3.6
1.76	283.1	837.4	3.3
1.76	288.15	831.6	3.1
1.76	293.15	828.8	2.9
1.76	298.15	823.8	3.1
1.76	303.15	819.5	3.3
1.76	308.15	816.6	3.4
1.76	313.15	815.8	3.6
1.76	318.15	816.8	3.8
1.76	323.15	811	4
2.347	268.1	869.4	4.1
2.347	273.1	863.1	3.8
2.347	278.1	864.5	3.7
2.347	283.1	854.2	3.4
2.347	288.15	849.1	3.2
2.347	293.15	845.4	3
2.347	298.15	842.3	3.2
2.347	303.15	837.1	3.4
2.347	308.15	835.6	3.5
2.347	313.15	835.2	3.7
2.347	318.15	834.9	3.9
2.347	323.15	830.4	4.1
3.129	268.1	887.7	4.2
3.129	273.1	882.4	3.9
3.129	278.1	883.6	3.8
3.129	283.1	875.7	3.5
3.129	288.15	868.4	3.3
3.129	293.15	864.7	3.1
3.129	298.15	861.9	3.3
3.129	303.15	856.7	3.5
3.129	308.15	854.7	3.6
3.129	313.15	854.7	3.8
3.129	318.15	853.9	4
3.129	323.15	851.3	4.2
3.911	268.1	907.8	4.3
3.911	273.1	901.1	4
3.911	278.1	902.1	3.9
3.911	283.1	891.8	3.6
3.911	288.15	886.9	3.4
3.911	293.15	883.4	3.2
3.911	298.15	880.5	3.4
3.911	303.15	875.4	3.6
3.911	308.15	873.6	3.7
3.911	313.15	873.7	3.9
3.911	318.15	874	4.1
3.911	323.15	869.4	4.3

System: ethanol + lithium chloride + water; phases: Liquid
Fixed: Pressure, kPa = 101
Property: Electrical conductivity, S/m (Liquid); method: CyberScan CON500 conductivity meter
Solvent: Mole fraction of water	Molality, mol/kg of lithium chloride	Temperature, K	Electrical conductivity, S/m	uncertainty
0	0.196	268.1	0.1172	0.0094
0	0.196	273.1	0.1303	0.0104
0	0.196	278.1	0.1438	0.0115
0	0.196	283.1	0.158	0.0126
0	0.196	288.15	0.172	0.0138
0	0.196	293.15	0.188	0.015
0	0.196	298.15	0.231	0.0185
0	0.196	303.15	0.25	0.02
0	0.196	308.15	0.27	0.0216
0	0.196	313.15	0.289	0.0231
0	0.196	318.15	0.309	0.0247
0	0.196	323.15	0.327	0.0262
0	0.391	268.1	0.197	0.0158
0	0.391	273.1	0.221	0.0177
0	0.391	278.1	0.245	0.0196
0	0.391	283.1	0.27	0.0216
0	0.391	288.15	0.295	0.0236
0	0.391	293.15	0.325	0.026
0	0.391	298.15	0.354	0.0283
0	0.391	303.15	0.384	0.0307
0	0.391	308.15	0.42	0.0336
0	0.391	313.15	0.447	0.0358
0	0.391	318.15	0.48	0.0384
0	0.391	323.15	0.512	0.041
0	0.782	268.1	0.269	0.0215
0	0.782	273.1	0.3	0.024
0	0.782	278.1	0.336	0.0269
0	0.782	283.1	0.37	0.0296
0	0.782	288.15	0.415	0.0332
0	0.782	293.15	0.459	0.0367
0	0.782	298.15	0.506	0.0405
0	0.782	303.15	0.554	0.0443
0	0.782	308.15	0.605	0.0484
0	0.782	313.15	0.652	0.0522
0	0.782	318.15	0.708	0.0566
0	0.782	323.15	0.762	0.061
0	1.173	268.1	0.3	0.024
0	1.173	273.1	0.335	0.0268
0	1.173	278.1	0.383	0.0306
0	1.173	283.1	0.441	0.0353
0	1.173	288.15	0.477	0.0382
0	1.173	293.15	0.533	0.0426
0	1.173	298.15	0.589	0.0471
0	1.173	303.15	0.649	0.0519
0	1.173	308.15	0.711	0.0569
0	1.173	313.15	0.773	0.0618
0	1.173	318.15	0.843	0.0674
0	1.173	323.15	0.911	0.0729
0	1.76	268.1	0.305	0.0244
0	1.76	273.1	0.343	0.0274
0	1.76	278.1	0.394	0.0315
0	1.76	283.1	0.445	0.0356
0	1.76	288.15	0.505	0.0404
0	1.76	293.15	0.565	0.0452
0	1.76	298.15	0.629	0.0503
0	1.76	303.15	0.697	0.0558
0	1.76	308.15	0.772	0.0618
0	1.76	313.15	0.852	0.0682
0	1.76	318.15	0.931	0.0745
0	1.76	323.15	1.02	0.082
0	2.347	268.1	0.276	0.0221
0	2.347	273.1	0.315	0.0252
0	2.347	278.1	0.362	0.029
0	2.347	283.1	0.417	0.0334
0	2.347	288.15	0.472	0.0378
0	2.347	293.15	0.529	0.0423
0	2.347	298.15	0.6	0.048
0	2.347	303.15	0.67	0.0536
0	2.347	308.15	0.746	0.0597
0	2.347	313.15	0.822	0.0658
0	2.347	318.15	0.91	0.0728
0	2.347	323.15	0.998	0.0798
0	3.129	268.1	0.222	0.0178
0	3.129	273.1	0.258	0.0206
0	3.129	278.1	0.3	0.024
0	3.129	283.1	0.348	0.0278
0	3.129	288.15	0.396	0.0317
0	3.129	293.15	0.45	0.036
0	3.129	298.15	0.514	0.0411
0	3.129	303.15	0.575	0.046
0	3.129	308.15	0.644	0.0515
0	3.129	313.15	0.712	0.057
0	3.129	318.15	0.792	0.0634
0	3.129	323.15	0.875	0.07
0	3.911	268.1	0.162	0.013
0	3.911	273.1	0.198	0.0158
0	3.911	278.1	0.238	0.019
0	3.911	283.1	0.276	0.0221
0	3.911	288.15	0.322	0.0258
0	3.911	293.15	0.367	0.0294
0	3.911	298.15	0.427	0.0342
0	3.911	303.15	0.487	0.039
0	3.911	308.15	0.551	0.0441
0	3.911	313.15	0.624	0.0499
0	3.911	318.15	0.697	0.0558
0	3.911	323.15	0.783	0.0626
0.1	0.208	268.1	0.1305	0.0104
0.1	0.208	273.1	0.1461	0.0117
0.1	0.208	278.1	0.1644	0.0132
0.1	0.208	283.1	0.1821	0.0146
0.1	0.208	288.15	0.23	0.0184
0.1	0.208	293.15	0.251	0.0201
0.1	0.208	298.15	0.274	0.0219
0.1	0.208	303.15	0.298	0.0238
0.1	0.208	308.15	0.323	0.0258
0.1	0.208	313.15	0.35	0.028
0.1	0.208	318.15	0.376	0.0301
0.1	0.208	323.15	0.404	0.0323
0.1	0.416	268.1	0.241	0.0193
0.1	0.416	273.1	0.271	0.0217
0.1	0.416	278.1	0.303	0.0242
0.1	0.416	283.1	0.339	0.0271
0.1	0.416	288.15	0.373	0.0298
0.1	0.416	293.15	0.411	0.0329
0.1	0.416	298.15	0.451	0.0361
0.1	0.416	303.15	0.493	0.0394
0.1	0.416	308.15	0.536	0.0429
0.1	0.416	313.15	0.579	0.0463
0.1	0.416	318.15	0.624	0.0499
0.1	0.416	323.15	0.669	0.0535
0.1	0.833	268.1	0.331	0.0265
0.1	0.833	273.1	0.375	0.03
0.1	0.833	278.1	0.421	0.0337
0.1	0.833	283.1	0.471	0.0377
0.1	0.833	288.15	0.524	0.0419
0.1	0.833	293.15	0.582	0.0466
0.1	0.833	298.15	0.643	0.0514
0.1	0.833	303.15	0.705	0.0564
0.1	0.833	308.15	0.767	0.0614
0.1	0.833	313.15	0.835	0.0668
0.1	0.833	318.15	0.901	0.0721
0.1	0.833	323.15	0.971	0.0777
0.1	1.249	268.1	0.378	0.0302
0.1	1.249	273.1	0.426	0.0341
0.1	1.249	278.1	0.482	0.0386
0.1	1.249	283.1	0.543	0.0434
0.1	1.249	288.15	0.604	0.0483
0.1	1.249	293.15	0.672	0.0538
0.1	1.249	298.15	0.744	0.0595
0.1	1.249	303.15	0.82	0.0656
0.1	1.249	308.15	0.9	0.072
0.1	1.249	313.15	0.978	0.0782
0.1	1.249	318.15	1.066	0.085
0.1	1.249	323.15	1.156	0.092
0.1	1.874	268.1	0.382	0.0306
0.1	1.874	273.1	0.436	0.0349
0.1	1.874	278.1	0.496	0.0397
0.1	1.874	283.1	0.561	0.0449
0.1	1.874	288.15	0.634	0.0507
0.1	1.874	293.15	0.72	0.0576
0.1	1.874	298.15	0.797	0.0638
0.1	1.874	303.15	0.883	0.0706
0.1	1.874	308.15	0.977	0.0782
0.1	1.874	313.15	1.069	0.086
0.1	1.874	318.15	1.17	0.094
0.1	1.874	323.15	1.275	0.102
0.1	2.499	268.1	0.351	0.0281
0.1	2.499	273.1	0.403	0.0322
0.1	2.499	278.1	0.465	0.0372
0.1	2.499	283.1	0.5341	0.0427
0.1	2.499	288.15	0.603	0.0482
0.1	2.499	293.15	0.683	0.0546
0.1	2.499	298.15	0.766	0.0613
0.1	2.499	303.15	0.853	0.0682
0.1	2.499	308.15	0.951	0.0761
0.1	2.499	313.15	1.049	0.084
0.1	2.499	318.15	1.158	0.093
0.1	2.499	323.15	1.268	0.101
0.1	3.332	268.1	0.274	0.0219
0.1	3.332	273.1	0.321	0.0257
0.1	3.332	278.1	0.376	0.0301
0.1	3.332	283.1	0.431	0.0345
0.1	3.332	288.15	0.495	0.0396
0.1	3.332	293.15	0.566	0.0453
0.1	3.332	298.15	0.644	0.0515
0.1	3.332	303.15	0.728	0.0582
0.1	3.332	308.15	0.812	0.065
0.1	3.332	313.15	0.909	0.0727
0.1	3.332	318.15	1.007	0.081
0.1	3.332	323.15	1.117	0.089
0.1	4.581	268.1	0.1527	0.0122
0.1	4.581	273.1	0.189	0.0151
0.1	4.581	278.1	0.256	0.0205
0.1	4.581	283.1	0.302	0.0242
0.1	4.581	288.15	0.354	0.0283
0.1	4.581	293.15	0.412	0.033
0.1	4.581	298.15	0.476	0.0381
0.1	4.581	303.15	0.554	0.0443
0.1	4.581	308.15	0.631	0.0505
0.1	4.581	313.15	0.719	0.0575
0.1	4.581	318.15	0.807	0.0646
0.1	4.581	323.15	0.911	0.0729
0.2	0.223	268.1	0.148	0.0118
0.2	0.223	273.1	0.167	0.0134
0.2	0.223	278.1	0.188	0.015
0.2	0.223	283.1	0.221	0.0177
0.2	0.223	288.15	0.246	0.0197
0.2	0.223	293.15	0.273	0.0218
0.2	0.223	298.15	0.301	0.0241
0.2	0.223	303.15	0.331	0.0265
0.2	0.223	308.15	0.364	0.0291
0.2	0.223	313.15	0.395	0.0316
0.2	0.223	318.15	0.425	0.034
0.2	0.223	323.15	0.459	0.0367
0.2	0.445	268.1	0.247	0.0198
0.2	0.445	273.1	0.281	0.0225
0.2	0.445	278.1	0.317	0.0254
0.2	0.445	283.1	0.355	0.0284
0.2	0.445	288.15	0.397	0.0318
0.2	0.445	293.15	0.441	0.0353
0.2	0.445	298.15	0.486	0.0389
0.2	0.445	303.15	0.536	0.0429
0.2	0.445	308.15	0.585	0.0468
0.2	0.445	313.15	0.637	0.051
0.2	0.445	318.15	0.691	0.0553
0.2	0.445	323.15	0.745	0.0596
0.2	0.891	268.1	0.358	0.0286
0.2	0.891	273.1	0.411	0.0329
0.2	0.891	278.1	0.464	0.0371
0.2	0.891	283.1	0.525	0.042
0.2	0.891	288.15	0.586	0.0469
0.2	0.891	293.15	0.654	0.0523
0.2	0.891	298.15	0.718	0.0574
0.2	0.891	303.15	0.799	0.0639
0.2	0.891	308.15	0.878	0.0702
0.2	0.891	313.15	0.959	0.0767
0.2	0.891	318.15	1.043	0.083
0.2	0.891	323.15	1.127	0.09
0.2	1.336	268.1	0.415	0.0332
0.2	1.336	273.1	0.475	0.038
0.2	1.336	278.1	0.543	0.0434
0.2	1.336	283.1	0.615	0.0492
0.2	1.336	288.15	0.689	0.0551
0.2	1.336	293.15	0.771	0.0617
0.2	1.336	298.15	0.859	0.0687
0.2	1.336	303.15	0.95	0.076
0.2	1.336	308.15	1.046	0.084
0.2	1.336	313.15	1.145	0.092
0.2	1.336	318.15	1.248	0.1
0.2	1.336	323.15	1.356	0.108
0.2	2.004	268.1	0.435	0.0348
0.2	2.004	273.1	0.504	0.0403
0.2	2.004	278.1	0.576	0.0461
0.2	2.004	283.1	0.655	0.0524
0.2	2.004	288.15	0.741	0.0593
0.2	2.004	293.15	0.834	0.0667
0.2	2.004	298.15	0.931	0.0745
0.2	2.004	303.15	1.035	0.083
0.2	2.004	308.15	1.147	0.092
0.2	2.004	313.15	1.256	0.1
0.2	2.004	318.15	1.38	0.11
0.2	2.004	323.15	1.506	0.12
0.2	2.672	268.1	0.406	0.0325
0.2	2.672	273.1	0.47	0.0376
0.2	2.672	278.1	0.54	0.0432
0.2	2.672	283.1	0.621	0.0497
0.2	2.672	288.15	0.707	0.0566
0.2	2.672	293.15	0.799	0.0639
0.2	2.672	298.15	0.899	0.0719
0.2	2.672	303.15	1.003	0.08
0.2	2.672	308.15	1.117	0.089
0.2	2.672	313.15	1.235	0.099
0.2	2.672	318.15	1.354	0.108
0.2	2.672	323.15	1.484	0.119
0.2	3.563	268.1	0.326	0.0261
0.2	3.563	273.1	0.382	0.0306
0.2	3.563	278.1	0.446	0.0357
0.2	3.563	283.1	0.518	0.0414
0.2	3.563	288.15	0.596	0.0477
0.2	3.563	293.15	0.677	0.0542
0.2	3.563	298.15	0.774	0.0619
0.2	3.563	303.15	0.873	0.0698
0.2	3.563	308.15	0.977	0.0782
0.2	3.563	313.15	1.09	0.087
0.2	3.563	318.15	1.211	0.097
0.2	3.563	323.15	1.337	0.107
0.2	4.899	268.1	0.207	0.0166
0.2	4.899	273.1	0.245	0.0196
0.2	4.899	278.1	0.294	0.0235
0.2	4.899	283.1	0.35	0.028
0.2	4.899	288.15	0.412	0.033
0.2	4.899	293.15	0.479	0.0383
0.2	4.899	298.15	0.557	0.0446
0.2	4.899	303.15	0.643	0.0514
0.2	4.899	308.15	0.733	0.0586
0.2	4.899	313.15	0.831	0.0665
0.2	4.899	318.15	0.937	0.075
0.2	4.899	323.15	1.051	0.084
0.2	5.789	268.1	0.1315	0.0105
0.2	5.789	273.1	0.1619	0.013
0.2	5.789	278.1	0.1989	0.0159
0.2	5.789	283.1	0.253	0.0202
0.2	5.789	288.15	0.302	0.0242
0.2	5.789	293.15	0.362	0.029
0.2	5.789	298.15	0.428	0.0342
0.2	5.789	303.15	0.502	0.0402
0.2	5.789	308.15	0.583	0.0466
0.2	5.789	313.15	0.675	0.054
0.2	5.789	318.15	0.771	0.0617
0.2	5.789	323.15	0.876	0.0701
0.3	0.239	268.1	0.1691	0.0135
0.3	0.239	273.1	0.1933	0.0155
0.3	0.239	278.1	0.238	0.019
0.3	0.239	283.1	0.269	0.0215
0.3	0.239	288.15	0.303	0.0242
0.3	0.239	293.15	0.34	0.0272
0.3	0.239	298.15	0.378	0.0302
0.3	0.239	303.15	0.417	0.0334
0.3	0.239	308.15	0.459	0.0367
0.3	0.239	313.15	0.503	0.0402
0.3	0.239	318.15	0.55	0.044
0.3	0.239	323.15	0.595	0.0476
0.3	0.479	268.1	0.299	0.0239
0.3	0.479	273.1	0.342	0.0274
0.3	0.479	278.1	0.391	0.0313
0.3	0.479	283.1	0.445	0.0356
0.3	0.479	288.15	0.501	0.0401
0.3	0.479	293.15	0.559	0.0447
0.3	0.479	298.15	0.623	0.0498
0.3	0.479	303.15	0.69	0.0552
0.3	0.479	308.15	0.76	0.0608
0.3	0.479	313.15	0.829	0.0663
0.3	0.479	318.15	0.9	0.072
0.3	0.479	323.15	0.978	0.0782
0.3	0.957	268.1	0.452	0.0362
0.3	0.957	273.1	0.52	0.0416
0.3	0.957	278.1	0.592	0.0474
0.3	0.957	283.1	0.674	0.0539
0.3	0.957	288.15	0.76	0.0608
0.3	0.957	293.15	0.851	0.0681
0.3	0.957	298.15	0.947	0.0758
0.3	0.957	303.15	1.052	0.084
0.3	0.957	308.15	1.156	0.092
0.3	0.957	313.15	1.268	0.101
0.3	0.957	318.15	1.38	0.11
0.3	0.957	323.15	1.501	0.12
0.3	1.436	268.1	0.521	0.0417
0.3	1.436	273.1	0.599	0.0479
0.3	1.436	278.1	0.687	0.055
0.3	1.436	283.1	0.783	0.0626
0.3	1.436	288.15	0.887	0.071
0.3	1.436	293.15	0.994	0.0795
0.3	1.436	298.15	1.12	0.09
0.3	1.436	303.15	1.241	0.099
0.3	1.436	308.15	1.361	0.109
0.3	1.436	313.15	1.493	0.119
0.3	1.436	318.15	1.633	0.131
0.3	1.436	323.15	1.775	0.142
0.3	2.153	268.1	0.529	0.0423
0.3	2.153	273.1	0.602	0.0482
0.3	2.153	278.1	0.692	0.0554
0.3	2.153	283.1	0.796	0.0637
0.3	2.153	288.15	0.903	0.0722
0.3	2.153	293.15	1.019	0.082
0.3	2.153	298.15	1.141	0.091
0.3	2.153	303.15	1.274	0.102
0.3	2.153	308.15	1.416	0.113
0.3	2.153	313.15	1.568	0.125
0.3	2.153	318.15	1.729	0.138
0.3	2.153	323.15	1.89	0.151
0.3	2.871	268.1	0.486	0.0389
0.3	2.871	273.1	0.57	0.0456
0.3	2.871	278.1	0.664	0.0531
0.3	2.871	283.1	0.768	0.0614
0.3	2.871	288.15	0.879	0.0703
0.3	2.871	293.15	0.999	0.0799
0.3	2.871	298.15	1.127	0.09
0.3	2.871	303.15	1.264	0.101
0.3	2.871	308.15	1.413	0.113
0.3	2.871	313.15	1.562	0.125
0.3	2.871	318.15	1.722	0.138
0.3	2.871	323.15	1.888	0.151
0.3	3.828	268.1	0.407	0.0326
0.3	3.828	273.1	0.476	0.0381
0.3	3.828	278.1	0.566	0.0453
0.3	3.828	283.1	0.656	0.0525
0.3	3.828	288.15	0.758	0.0606
0.3	3.828	293.15	0.871	0.0697
0.3	3.828	298.15	0.994	0.0795
0.3	3.828	303.15	1.127	0.09
0.3	3.828	308.15	1.263	0.101
0.3	3.828	313.15	1.413	0.113
0.3	3.828	318.15	1.57	0.126
0.3	3.828	323.15	1.74	0.139
0.3	5.264	268.1	0.256	0.0205
0.3	5.264	273.1	0.309	0.0247
0.3	5.264	278.1	0.371	0.0297
0.3	5.264	283.1	0.44	0.0352
0.3	5.264	288.15	0.524	0.0419
0.3	5.264	293.15	0.615	0.0492
0.3	5.264	298.15	0.716	0.0573
0.3	5.264	303.15	0.826	0.0661
0.3	5.264	308.15	0.946	0.0757
0.3	5.264	313.15	1.078	0.086
0.3	5.264	318.15	1.217	0.097
0.3	5.264	323.15	1.363	0.109
0.3	6.46	268.1	0.146	0.0117
0.3	6.46	273.1	0.183	0.0146
0.3	6.46	278.1	0.244	0.0195
0.3	6.46	283.1	0.299	0.0239
0.3	6.46	288.15	0.364	0.0291
0.3	6.46	293.15	0.436	0.0349
0.3	6.46	298.15	0.521	0.0417
0.3	6.46	303.15	0.614	0.0491
0.3	6.46	308.15	0.72	0.0576
0.3	6.46	313.15	0.83	0.0664
0.3	6.46	318.15	0.95	0.076
0.3	6.46	323.15	1.087	0.087
0.4	0.259	268.1	0.198	0.0158
0.4	0.259	273.1	0.229	0.0183
0.4	0.259	278.1	0.265	0.0212
0.4	0.259	283.1	0.306	0.0245
0.4	0.259	288.15	0.347	0.0278
0.4	0.259	293.15	0.391	0.0313
0.4	0.259	298.15	0.439	0.0351
0.4	0.259	303.15	0.491	0.0393
0.4	0.259	308.15	0.544	0.0435
0.4	0.259	313.15	0.599	0.0479
0.4	0.259	318.15	0.657	0.0526
0.4	0.259	323.15	0.718	0.0574
0.4	0.517	268.1	0.334	0.0267
0.4	0.517	273.1	0.385	0.0308
0.4	0.517	278.1	0.448	0.0358
0.4	0.517	283.1	0.514	0.0411
0.4	0.517	288.15	0.583	0.0466
0.4	0.517	293.15	0.659	0.0527
0.4	0.517	298.15	0.738	0.059
0.4	0.517	303.15	0.822	0.0658
0.4	0.517	308.15	0.91	0.0728
0.4	0.517	313.15	1.002	0.08
0.4	0.517	318.15	1.1	0.088
0.4	0.517	323.15	1.198	0.096
0.4	1.034	268.1	0.516	0.0413
0.4	1.034	273.1	0.602	0.0482
0.4	1.034	278.1	0.695	0.0556
0.4	1.034	283.1	0.797	0.0638
0.4	1.034	288.15	0.909	0.0727
0.4	1.034	293.15	1.025	0.082
0.4	1.034	298.15	1.152	0.092
0.4	1.034	303.15	1.284	0.103
0.4	1.034	308.15	1.424	0.114
0.4	1.034	313.15	1.568	0.125
0.4	1.034	318.15	1.718	0.137
0.4	1.034	323.15	1.874	0.15
0.4	1.551	268.1	0.616	0.0493
0.4	1.551	273.1	0.722	0.0578
0.4	1.551	278.1	0.836	0.0669
0.4	1.551	283.1	0.96	0.0768
0.4	1.551	288.15	1.093	0.087
0.4	1.551	293.15	1.235	0.099
0.4	1.551	298.15	1.385	0.111
0.4	1.551	303.15	1.548	0.124
0.4	1.551	308.15	1.717	0.137
0.4	1.551	313.15	1.891	0.151
0.4	1.551	318.15	2.07	0.166
0.4	1.551	323.15	2.26	0.181
0.4	2.327	268.1	0.677	0.0542
0.4	2.327	273.1	0.794	0.0635
0.4	2.327	278.1	0.93	0.0744
0.4	2.327	283.1	1.07	0.086
0.4	2.327	288.15	1.227	0.098
0.4	2.327	293.15	1.383	0.111
0.4	2.327	298.15	1.56	0.125
0.4	2.327	303.15	1.748	0.14
0.4	2.327	308.15	1.947	0.156
0.4	2.327	313.15	2.16	0.173
0.4	2.327	318.15	2.37	0.19
0.4	2.327	323.15	2.61	0.209
0.4	3.102	268.1	0.655	0.0524
0.4	3.102	273.1	0.77	0.0616
0.4	3.102	278.1	0.899	0.0719
0.4	3.102	283.1	1.046	0.084
0.4	3.102	288.15	1.203	0.096
0.4	3.102	293.15	1.369	0.11
0.4	3.102	298.15	1.549	0.124
0.4	3.102	303.15	1.735	0.139
0.4	3.102	308.15	1.938	0.155
0.4	3.102	313.15	2.14	0.171
0.4	3.102	318.15	2.36	0.189
0.4	3.102	323.15	2.6	0.208
0.4	4.136	268.1	0.553	0.0442
0.4	4.136	273.1	0.656	0.0525
0.4	4.136	278.1	0.775	0.062
0.4	4.136	283.1	0.908	0.0726
0.4	4.136	288.15	1.054	0.084
0.4	4.136	293.15	1.211	0.097
0.4	4.136	298.15	1.379	0.11
0.4	4.136	303.15	1.561	0.125
0.4	4.136	308.15	1.758	0.141
0.4	4.136	313.15	1.964	0.157
0.4	4.136	318.15	2.17	0.174
0.4	4.136	323.15	2.39	0.191
0.4	5.687	268.1	0.368	0.0294
0.4	5.687	273.1	0.445	0.0356
0.4	5.687	278.1	0.54	0.0432
0.4	5.687	283.1	0.639	0.0511
0.4	5.687	288.15	0.757	0.0606
0.4	5.687	293.15	0.887	0.071
0.4	5.687	298.15	1.032	0.083
0.4	5.687	303.15	1.19	0.095
0.4	5.687	308.15	1.357	0.109
0.4	5.687	313.15	1.534	0.123
0.4	5.687	318.15	1.725	0.138
0.4	5.687	323.15	1.932	0.155
0.4	7.238	268.1	0.22	0.0176
0.4	7.238	273.1	0.275	0.022
0.4	7.238	278.1	0.342	0.0274
0.4	7.238	283.1	0.423	0.0338
0.4	7.238	288.15	0.514	0.0411
0.4	7.238	293.15	0.616	0.0493
0.4	7.238	298.15	0.732	0.0586
0.4	7.238	303.15	0.864	0.0691
0.4	7.238	308.15	1	0.08
0.4	7.238	313.15	1.166	0.093
0.4	7.238	318.15	1.336	0.107
0.4	7.238	323.15	1.521	0.122
0.5	0.281	268.1	0.212	0.017
0.5	0.281	273.1	0.251	0.0201
0.5	0.281	278.1	0.297	0.0238
0.5	0.281	283.1	0.345	0.0276
0.5	0.281	288.15	0.399	0.0319
0.5	0.281	293.15	0.456	0.0365
0.5	0.281	298.15	0.516	0.0413
0.5	0.281	303.15	0.58	0.0464
0.5	0.281	308.15	0.65	0.052
0.5	0.281	313.15	0.722	0.0578
0.5	0.281	318.15	0.801	0.0641
0.5	0.281	323.15	0.88	0.0704
0.5	0.562	268.1	0.363	0.029
0.5	0.562	273.1	0.43	0.0344
0.5	0.562	278.1	0.51	0.0408
0.5	0.562	283.1	0.594	0.0475
0.5	0.562	288.15	0.678	0.0542
0.5	0.562	293.15	0.771	0.0617
0.5	0.562	298.15	0.872	0.0698
0.5	0.562	303.15	0.979	0.0783
0.5	0.562	308.15	1.092	0.087
0.5	0.562	313.15	1.212	0.097
0.5	0.562	318.15	1.334	0.107
0.5	0.562	323.15	1.458	0.117
0.5	1.125	268.1	0.583	0.0466
0.5	1.125	273.1	0.689	0.0551
0.5	1.125	278.1	0.806	0.0645
0.5	1.125	283.1	0.936	0.0749
0.5	1.125	288.15	1.076	0.086
0.5	1.125	293.15	1.216	0.097
0.5	1.125	298.15	1.376	0.11
0.5	1.125	303.15	1.544	0.124
0.5	1.125	308.15	1.723	0.138
0.5	1.125	313.15	1.902	0.152
0.5	1.125	318.15	2.01	0.161
0.5	1.125	323.15	2.27	0.182
0.5	1.687	268.1	0.706	0.0565
0.5	1.687	273.1	0.841	0.0673
0.5	1.687	278.1	0.99	0.0792
0.5	1.687	283.1	1.146	0.092
0.5	1.687	288.15	1.318	0.105
0.5	1.687	293.15	1.5	0.12
0.5	1.687	298.15	1.694	0.136
0.5	1.687	303.15	1.9	0.152
0.5	1.687	308.15	2.12	0.17
0.5	1.687	313.15	2.35	0.188
0.5	1.687	318.15	2.6	0.208
0.5	1.687	323.15	2.83	0.226
0.5	2.53	268.1	0.794	0.0635
0.5	2.53	273.1	0.925	0.074
0.5	2.53	278.1	1.091	0.087
0.5	2.53	283.1	1.27	0.102
0.5	2.53	288.15	1.467	0.117
0.5	2.53	293.15	1.664	0.133
0.5	2.53	298.15	1.884	0.151
0.5	2.53	303.15	2.098	0.168
0.5	2.53	308.15	2.35	0.188
0.5	2.53	313.15	2.6	0.208
0.5	2.53	318.15	2.86	0.229
0.5	2.53	323.15	3.14	0.251
0.5	3.374	268.1	1.039	0.083
0.5	3.374	273.1	1.237	0.099
0.5	3.374	278.1	1.451	0.116
0.5	3.374	283.1	1.677	0.134
0.5	3.374	288.15	1.927	0.154
0.5	3.374	293.15	2.19	0.175
0.5	3.374	298.15	2.49	0.199
0.5	3.374	303.15	2.79	0.223
0.5	3.374	308.15	3.09	0.247
0.5	3.374	313.15	3.44	0.275
0.5	3.374	318.15	3.75	0.3
0.5	3.374	323.15	4.12	0.33
0.5	4.498	268.1	0.683	0.0546
0.5	4.498	273.1	0.821	0.0657
0.5	4.498	278.1	0.983	0.0786
0.5	4.498	283.1	1.154	0.092
0.5	4.498	288.15	1.345	0.108
0.5	4.498	293.15	1.561	0.125
0.5	4.498	298.15	1.784	0.143
0.5	4.498	303.15	2.03	0.162
0.5	4.498	308.15	2.29	0.183
0.5	4.498	313.15	2.57	0.206
0.5	4.498	318.15	2.86	0.229
0.5	4.498	323.15	3.17	0.254
0.5	6.185	268.1	0.465	0.0372
0.5	6.185	273.1	0.569	0.0455
0.5	6.185	278.1	0.693	0.0554
0.5	6.185	283.1	0.837	0.067
0.5	6.185	288.15	0.992	0.0794
0.5	6.185	293.15	1.164	0.093
0.5	6.185	298.15	1.351	0.108
0.5	6.185	303.15	1.552	0.124
0.5	6.185	308.15	1.78	0.142
0.5	6.185	313.15	2.01	0.161
0.5	6.185	318.15	2.27	0.182
0.5	6.185	323.15	2.55	0.204
0.5	7.872	268.1	0.303	0.0242
0.5	7.872	273.1	0.379	0.0303
0.5	7.872	278.1	0.473	0.0378
0.5	7.872	283.1	0.586	0.0469
0.5	7.872	288.15	0.711	0.0569
0.5	7.872	293.15	0.852	0.0682
0.5	7.872	298.15	1.011	0.081
0.5	7.872	303.15	1.185	0.095
0.5	7.872	308.15	1.373	0.11
0.5	7.872	313.15	1.587	0.127
0.5	7.872	318.15	1.815	0.145
0.5	7.872	323.15	2.07	0.166
0.5	8.547	268.1	0.257	0.0206
0.5	8.547	273.1	0.325	0.026
0.5	8.547	278.1	0.417	0.0334
0.5	8.547	283.1	0.509	0.0407
0.5	8.547	288.15	0.623	0.0498
0.5	8.547	293.15	0.755	0.0604
0.5	8.547	298.15	0.903	0.0722
0.5	8.547	303.15	1.071	0.086
0.5	8.547	308.15	1.259	0.101
0.5	8.547	313.15	1.447	0.116
0.5	8.547	318.15	1.667	0.133
0.5	8.547	323.15	1.913	0.153
0.6	0.308	268.1	0.239	0.0191
0.6	0.308	273.1	0.288	0.023
0.6	0.308	278.1	0.344	0.0275
0.6	0.308	283.1	0.406	0.0325
0.6	0.308	288.15	0.475	0.038
0.6	0.308	293.15	0.547	0.0438
0.6	0.308	298.15	0.625	0.05
0.6	0.308	303.15	0.71	0.0568
0.6	0.308	308.15	0.796	0.0637
0.6	0.308	313.15	0.889	0.0711
0.6	0.308	318.15	0.985	0.0788
0.6	0.308	323.15	1.083	0.087
0.6	0.616	268.1	0.415	0.0332
0.6	0.616	273.1	0.507	0.0406
0.6	0.616	278.1	0.605	0.0484
0.6	0.616	283.1	0.709	0.0567
0.6	0.616	288.15	0.824	0.0659
0.6	0.616	293.15	0.949	0.0759
0.6	0.616	298.15	1.082	0.087
0.6	0.616	303.15	1.222	0.098
0.6	0.616	308.15	1.369	0.11
0.6	0.616	313.15	1.525	0.122
0.6	0.616	318.15	1.687	0.135
0.6	0.616	323.15	1.762	0.141
0.6	1.232	268.1	0.683	0.0546
0.6	1.232	273.1	0.829	0.0663
0.6	1.232	278.1	0.996	0.0797
0.6	1.232	283.1	1.163	0.093
0.6	1.232	288.15	1.348	0.108
0.6	1.232	293.15	1.55	0.124
0.6	1.232	298.15	1.758	0.141
0.6	1.232	303.15	1.984	0.159
0.6	1.232	308.15	2.21	0.177
0.6	1.232	313.15	2.45	0.196
0.6	1.232	318.15	2.71	0.217
0.6	1.232	323.15	2.96	0.237
0.6	1.849	268.1	0.846	0.0677
0.6	1.849	273.1	1.019	0.082
0.6	1.849	278.1	1.223	0.098
0.6	1.849	283.1	1.433	0.115
0.6	1.849	288.15	1.66	0.133
0.6	1.849	293.15	1.907	0.153
0.6	1.849	298.15	2.16	0.173
0.6	1.849	303.15	2.44	0.195
0.6	1.849	308.15	2.7	0.216
0.6	1.849	313.15	3.01	0.241
0.6	1.849	318.15	3.3	0.264
0.6	1.849	323.15	3.63	0.29
0.6	2.773	268.1	0.984	0.0787
0.6	2.773	273.1	1.184	0.095
0.6	2.773	278.1	1.42	0.114
0.6	2.773	283.1	1.66	0.133
0.6	2.773	288.15	1.93	0.154
0.6	2.773	293.15	2.21	0.177
0.6	2.773	298.15	2.51	0.201
0.6	2.773	303.15	2.82	0.226
0.6	2.773	308.15	3.14	0.251
0.6	2.773	313.15	3.51	0.281
0.6	2.773	318.15	3.87	0.31
0.6	2.773	323.15	4.24	0.339
0.6	3.697	268.1	0.985	0.0788
0.6	3.697	273.1	1.202	0.096
0.6	3.697	278.1	1.43	0.114
0.6	3.697	283.1	1.685	0.135
0.6	3.697	288.15	1.972	0.158
0.6	3.697	293.15	2.27	0.182
0.6	3.697	298.15	2.58	0.206
0.6	3.697	303.15	2.92	0.234
0.6	3.697	308.15	3.28	0.262
0.6	3.697	313.15	3.66	0.293
0.6	3.697	318.15	4.04	0.323
0.6	3.697	323.15	4.46	0.357
0.6	4.93	268.1	0.867	0.0694
0.6	4.93	273.1	1.055	0.084
0.6	4.93	278.1	1.277	0.102
0.6	4.93	283.1	1.508	0.121
0.6	4.93	288.15	1.769	0.142
0.6	4.93	293.15	2	0.16
0.6	4.93	298.15	2.3	0.184
0.6	4.93	303.15	2.62	0.21
0.6	4.93	308.15	2.96	0.237
0.6	4.93	313.15	3.33	0.266
0.6	4.93	318.15	3.72	0.298
0.6	4.93	323.15	4.1	0.328
0.6	6.778	268.1	0.677	0.0542
0.6	6.778	273.1	0.81	0.0648
0.6	6.778	278.1	0.989	0.0791
0.6	6.778	283.1	1.191	0.095
0.6	6.778	288.15	1.422	0.114
0.6	6.778	293.15	1.665	0.133
0.6	6.778	298.15	1.937	0.155
0.6	6.778	303.15	2.18	0.174
0.6	6.778	308.15	2.5	0.2
0.6	6.778	313.15	2.84	0.227
0.6	6.778	318.15	3.2	0.256
0.6	6.778	323.15	3.58	0.286
0.6	8.627	268.1	0.41	0.0328
0.6	8.627	273.1	0.516	0.0413
0.6	8.627	278.1	0.657	0.0526
0.6	8.627	283.1	0.81	0.0648
0.6	8.627	288.15	0.978	0.0782
0.6	8.627	293.15	1.172	0.094
0.6	8.627	298.15	1.395	0.112
0.6	8.627	303.15	1.643	0.131
0.6	8.627	308.15	1.908	0.153
0.6	8.627	313.15	2.13	0.17
0.6	8.627	318.15	2.45	0.196
0.6	8.627	323.15	2.79	0.223
0.6	9.859	268.1	0.303	0.0242
0.6	9.859	273.1	0.387	0.031
0.6	9.859	278.1	0.503	0.0402
0.6	9.859	283.1	0.629	0.0503
0.6	9.859	288.15	0.773	0.0618
0.6	9.859	293.15	0.94	0.0752
0.6	9.859	298.15	1.134	0.091
0.6	9.859	303.15	1.344	0.108
0.6	9.859	308.15	1.581	0.126
0.6	9.859	313.15	1.846	0.148
0.6	9.859	318.15	2.11	0.169
0.6	9.859	323.15	2.41	0.193
0.7	0.341	268.1	0.279	0.0223
0.7	0.341	273.1	0.348	0.0278
0.7	0.341	278.1	0.422	0.0338
0.7	0.341	283.1	0.507	0.0406
0.7	0.341	288.15	0.597	0.0478
0.7	0.341	293.15	0.695	0.0556
0.7	0.341	298.15	0.8	0.064
0.7	0.341	303.15	0.909	0.0727
0.7	0.341	308.15	1.032	0.083
0.7	0.341	313.15	1.161	0.093
0.7	0.341	318.15	1.291	0.103
0.7	0.341	323.15	1.43	0.114
0.7	0.682	268.1	0.49	0.0392
0.7	0.682	273.1	0.682	0.0546
0.7	0.682	278.1	0.824	0.0659
0.7	0.682	283.1	0.967	0.0774
0.7	0.682	288.15	1.113	0.089
0.7	0.682	293.15	1.28	0.102
0.7	0.682	298.15	1.459	0.117
0.7	0.682	303.15	1.645	0.132
0.7	0.682	308.15	1.834	0.147
0.7	0.682	313.15	2.03	0.162
0.7	0.682	318.15	2.36	0.189
0.7	0.682	323.15	2.56	0.205
0.7	1.363	268.1	0.804	0.0643
0.7	1.363	273.1	1.128	0.09
0.7	1.363	278.1	1.339	0.107
0.7	1.363	283.1	1.567	0.125
0.7	1.363	288.15	1.818	0.145
0.7	1.363	293.15	2.02	0.162
0.7	1.363	298.15	2.46	0.197
0.7	1.363	303.15	2.73	0.218
0.7	1.363	308.15	3.05	0.244
0.7	1.363	313.15	3.36	0.269
0.7	1.363	318.15	3.69	0.295
0.7	1.363	323.15	4.05	0.324
0.7	2.045	268.1	1.097	0.088
0.7	2.045	273.1	1.356	0.108
0.7	2.045	278.1	1.634	0.131
0.7	2.045	283.1	1.932	0.155
0.7	2.045	288.15	2.24	0.179
0.7	2.045	293.15	2.59	0.207
0.7	2.045	298.15	2.96	0.237
0.7	2.045	303.15	3.37	0.27
0.7	2.045	308.15	3.8	0.304
0.7	2.045	313.15	4.22	0.338
0.7	2.045	318.15	4.67	0.374
0.7	2.045	323.15	5.12	0.41
0.7	3.067	268.1	1.261	0.101
0.7	3.067	273.1	1.54	0.123
0.7	3.067	278.1	1.86	0.149
0.7	3.067	283.1	2.2	0.176
0.7	3.067	288.15	2.58	0.206
0.7	3.067	293.15	2.96	0.237
0.7	3.067	298.15	3.4	0.272
0.7	3.067	303.15	3.89	0.311
0.7	3.067	308.15	4.32	0.346
0.7	3.067	313.15	4.79	0.383
0.7	3.067	318.15	5.29	0.423
0.7	3.067	323.15	5.86	0.469
0.7	4.09	268.1	1.312	0.105
0.7	4.09	273.1	1.639	0.131
0.7	4.09	278.1	2.03	0.162
0.7	4.09	283.1	2.39	0.191
0.7	4.09	288.15	2.79	0.223
0.7	4.09	293.15	3.23	0.258
0.7	4.09	298.15	3.67	0.294
0.7	4.09	303.15	4.16	0.333
0.7	4.09	308.15	4.65	0.372
0.7	4.09	313.15	5.19	0.415
0.7	4.09	318.15	5.74	0.459
0.7	4.09	323.15	6.32	0.506
0.7	5.453	268.1	1.211	0.097
0.7	5.453	273.1	1.496	0.12
0.7	5.453	278.1	1.808	0.145
0.7	5.453	283.1	2.16	0.173
0.7	5.453	288.15	2.55	0.204
0.7	5.453	293.15	2.98	0.238
0.7	5.453	298.15	3.45	0.276
0.7	5.453	303.15	3.96	0.317
0.7	5.453	308.15	4.51	0.361
0.7	5.453	313.15	5.1	0.408
0.7	5.453	318.15	5.73	0.458
0.7	5.453	323.15	6.4	0.512
0.7	7.498	268.1	0.91	0.0728
0.7	7.498	273.1	1.118	0.089
0.7	7.498	278.1	1.372	0.11
0.7	7.498	283.1	1.642	0.131
0.7	7.498	288.15	1.957	0.157
0.7	7.498	293.15	2.24	0.179
0.7	7.498	298.15	2.52	0.202
0.7	7.498	303.15	2.91	0.233
0.7	7.498	308.15	3.35	0.268
0.7	7.498	313.15	3.79	0.303
0.7	7.498	318.15	4.24	0.339
0.7	7.498	323.15	4.74	0.379
0.7	9.542	268.1	0.617	0.0494
0.7	9.542	273.1	0.784	0.0627
0.7	9.542	278.1	0.986	0.0789
0.7	9.542	283.1	1.212	0.097
0.7	9.542	288.15	1.482	0.119
0.7	9.542	293.15	1.776	0.142
0.7	9.542	298.15	2.1	0.168
0.7	9.542	303.15	2.45	0.196
0.7	9.542	308.15	2.82	0.226
0.7	9.542	313.15	3.23	0.258
0.7	9.542	318.15	3.67	0.294
0.7	9.542	323.15	4.14	0.331
0.7	11.246	268.1	0.418	0.0334
0.7	11.246	273.1	0.65	0.052
0.7	11.246	278.1	0.814	0.0651
0.7	11.246	283.1	1.013	0.081
0.7	11.246	288.15	1.247	0.1
0.7	11.246	293.15	1.507	0.121
0.7	11.246	298.15	1.808	0.145
0.7	11.246	303.15	2.01	0.161
0.7	11.246	308.15	2.36	0.189
0.7	11.246	313.15	2.76	0.221
0.7	11.246	318.15	3.15	0.252
0.7	11.246	323.15	3.6	0.288
0.8	0.381	268.1	0.33	0.0264
0.8	0.381	273.1	0.422	0.0338
0.8	0.381	278.1	0.524	0.0419
0.8	0.381	283.1	0.638	0.051
0.8	0.381	288.15	0.765	0.0612
0.8	0.381	293.15	0.904	0.0723
0.8	0.381	298.15	1.053	0.084
0.8	0.381	303.15	1.211	0.097
0.8	0.381	308.15	1.379	0.11
0.8	0.381	313.15	1.553	0.124
0.8	0.381	318.15	1.735	0.139
0.8	0.381	323.15	1.923	0.154
0.8	0.763	268.1	0.621	0.0497
0.8	0.763	273.1	0.8	0.064
0.8	0.763	278.1	0.983	0.0786
0.8	0.763	283.1	1.191	0.095
0.8	0.763	288.15	1.421	0.114
0.8	0.763	293.15	1.67	0.134
0.8	0.763	298.15	1.938	0.155
0.8	0.763	303.15	2.24	0.179
0.8	0.763	308.15	2.54	0.203
0.8	0.763	313.15	2.87	0.23
0.8	0.763	318.15	3.2	0.256
0.8	0.763	323.15	3.53	0.282
0.8	1.525	268.1	1.054	0.084
0.8	1.525	273.1	1.504	0.12
0.8	1.525	278.1	1.83	0.146
0.8	1.525	283.1	2.16	0.173
0.8	1.525	288.15	2.62	0.21
0.8	1.525	293.15	2.95	0.236
0.8	1.525	298.15	3.38	0.27
0.8	1.525	303.15	3.77	0.302
0.8	1.525	308.15	4.25	0.34
0.8	1.525	313.15	4.71	0.377
0.8	1.525	318.15	5.18	0.414
0.8	1.525	323.15	5.7	0.456
0.8	2.288	268.1	1.376	0.11
0.8	2.288	273.1	1.925	0.154
0.8	2.288	278.1	2.39	0.191
0.8	2.288	283.1	2.84	0.227
0.8	2.288	288.15	3.27	0.262
0.8	2.288	293.15	3.75	0.3
0.8	2.288	298.15	4.24	0.339
0.8	2.288	303.15	4.78	0.382
0.8	2.288	308.15	5.35	0.428
0.8	2.288	313.15	5.95	0.476
0.8	2.288	318.15	6.47	0.518
0.8	2.288	323.15	7.09	0.567
0.8	3.431	268.1	1.685	0.135
0.8	3.431	273.1	2.37	0.19
0.8	3.431	278.1	2.98	0.238
0.8	3.431	283.1	3.27	0.262
0.8	3.431	288.15	3.94	0.315
0.8	3.431	293.15	4.44	0.355
0.8	3.431	298.15	5.06	0.405
0.8	3.431	303.15	5.67	0.454
0.8	3.431	308.15	6.34	0.507
0.8	3.431	313.15	7	0.56
0.8	3.431	318.15	7.69	0.615
0.8	3.431	323.15	8.35	0.668
0.8	4.575	268.1	1.793	0.143
0.8	4.575	273.1	2.68	0.214
0.8	4.575	278.1	3.2	0.256
0.8	4.575	283.1	3.66	0.293
0.8	4.575	288.15	4.28	0.342
0.8	4.575	293.15	4.89	0.391
0.8	4.575	298.15	5.57	0.446
0.8	4.575	303.15	6.22	0.498
0.8	4.575	308.15	6.95	0.556
0.8	4.575	313.15	7.68	0.614
0.8	4.575	318.15	8.44	0.675
0.8	4.575	323.15	9.18	0.734
0.8	6.1	268.1	1.53	0.122
0.8	6.1	273.1	2	0.16
0.8	6.1	278.1	2.43	0.194
0.8	6.1	283.1	2.89	0.231
0.8	6.1	288.15	3.41	0.273
0.8	6.1	293.15	4.07	0.326
0.8	6.1	298.15	4.56	0.365
0.8	6.1	303.15	5.2	0.416
0.8	6.1	308.15	5.86	0.469
0.8	6.1	313.15	6.55	0.524
0.8	6.1	318.15	7.32	0.586
0.8	6.1	323.15	8.02	0.642
0.8	8.388	268.1	1.162	0.093
0.8	8.388	273.1	1.464	0.117
0.8	8.388	278.1	1.786	0.143
0.8	8.388	283.1	2.12	0.17
0.8	8.388	288.15	2.53	0.202
0.8	8.388	293.15	2.97	0.238
0.8	8.388	298.15	3.46	0.277
0.8	8.388	303.15	3.97	0.318
0.8	8.388	308.15	4.52	0.362
0.8	8.388	313.15	5.11	0.409
0.8	8.388	318.15	5.71	0.457
0.8	8.388	323.15	6.36	0.509
0.8	10.675	268.1	0.894	0.0715
0.8	10.675	273.1	1.138	0.091
0.8	10.675	278.1	1.405	0.112
0.8	10.675	283.1	1.705	0.136
0.8	10.675	288.15	2.02	0.162
0.8	10.675	293.15	2.4	0.192
0.8	10.675	298.15	2.81	0.225
0.8	10.675	303.15	3.26	0.261
0.8	10.675	308.15	3.75	0.3
0.8	10.675	313.15	4.27	0.342
0.8	10.675	318.15	4.83	0.386
0.8	10.675	323.15	5.43	0.434
0.8	13.344	268.1	0.67	0.0536
0.8	13.344	273.1	0.868	0.0694
0.8	13.344	278.1	1.09	0.087
0.8	13.344	283.1	1.342	0.107
0.8	13.344	288.15	1.631	0.13
0.8	13.344	293.15	1.958	0.157
0.8	13.344	298.15	2.3	0.184
0.8	13.344	303.15	2.72	0.218
0.8	13.344	308.15	3.13	0.25
0.8	13.344	313.15	3.62	0.29
0.8	13.344	318.15	4.11	0.329
0.8	13.344	323.15	4.65	0.372
0.9	0.433	268.1	0.734	0.0587
0.9	0.433	273.1	0.902	0.0722
0.9	0.433	278.1	1.098	0.0878
0.9	0.433	283.1	1.314	0.1051
0.9	0.433	288.15	1.534	0.1227
0.9	0.433	293.15	1.784	0.1427
0.9	0.433	298.15	1.92	0.1536
0.9	0.433	303.15	2.18	0.1744
0.9	0.433	308.15	2.455	0.1964
0.9	0.433	313.15	2.73	0.2184
0.9	0.433	318.15	3.04	0.2432
0.9	0.433	323.15	3.31	0.2648
0.9	0.865	268.1	1.212	0.097
0.9	0.865	273.1	1.482	0.1186
0.9	0.865	278.1	1.795	0.1436
0.9	0.865	283.1	2.104	0.1683
0.9	0.865	288.15	2.455	0.1964
0.9	0.865	293.15	2.805	0.2244
0.9	0.865	298.15	3.32	0.2656
0.9	0.865	303.15	3.765	0.3012
0.9	0.865	308.15	4.21	0.3368
0.9	0.865	313.15	4.74	0.3792
0.9	0.865	318.15	5.25	0.42
0.9	0.865	323.15	5.74	0.4592
0.9	1.73	268.1	2.08	0.1664
0.9	1.73	273.1	2.53	0.2024
0.9	1.73	278.1	3.04	0.2432
0.9	1.73	283.1	3.61	0.2888
0.9	1.73	288.15	4.18	0.3344
0.9	1.73	293.15	4.82	0.3856
0.9	1.73	298.15	5.52	0.4416
0.9	1.73	303.15	6.19	0.4952
0.9	1.73	308.15	6.98	0.5584
0.9	1.73	313.15	7.76	0.6208
0.9	1.73	318.15	8.53	0.6824
0.9	1.73	323.15	9.35	0.748
0.9	2.596	268.1	2.76	0.2208
0.9	2.596	273.1	3.35	0.268
0.9	2.596	278.1	4.03	0.3224
0.9	2.596	283.1	4.75	0.38
0.9	2.596	288.15	5.51	0.4408
0.9	2.596	293.15	6.3	0.504
0.9	2.596	298.15	7.24	0.5792
0.9	2.596	303.15	8.13	0.6504
0.9	2.596	308.15	9.07	0.7256
0.9	2.596	313.15	10.06	0.8048
0.9	2.596	318.15	11.16	0.8928
0.9	2.596	323.15	12.22	0.9776
0.9	3.893	268.1	3.33	0.2664
0.9	3.893	273.1	4.07	0.3256
0.9	3.893	278.1	4.86	0.3888
0.9	3.893	283.1	5.73	0.4584
0.9	3.893	288.15	6.59	0.5272
0.9	3.893	293.15	7.48	0.5984
0.9	3.893	298.15	8.51	0.6808
0.9	3.893	303.15	9.56	0.7648
0.9	3.893	308.15	10.7	0.856
0.9	3.893	313.15	11.87	0.9496
0.9	3.893	318.15	13.01	1.0408
0.9	3.893	323.15	14.33	1.1464
0.9	5.191	268.1	3.61	0.2888
0.9	5.191	273.1	4.32	0.3456
0.9	5.191	278.1	5.12	0.4096
0.9	5.191	283.1	6	0.48
0.9	5.191	288.15	6.91	0.5528
0.9	5.191	293.15	7.89	0.6312
0.9	5.191	298.15	8.93	0.7144
0.9	5.191	303.15	10.05	0.804
0.9	5.191	308.15	11.26	0.9008
0.9	5.191	313.15	12.49	0.9992
0.9	5.191	318.15	13.76	1.1008
0.9	5.191	323.15	15.03	1.2024
0.9	6.922	268.1	3.45	0.276
0.9	6.922	273.1	4.11	0.3288
0.9	6.922	278.1	4.93	0.3944
0.9	6.922	283.1	5.75	0.46
0.9	6.922	288.15	6.65	0.532
0.9	6.922	293.15	7.59	0.6072
0.9	6.922	298.15	8.58	0.6864
0.9	6.922	303.15	9.68	0.7744
0.9	6.922	308.15	10.86	0.8688
0.9	6.922	313.15	12.08	0.9664
0.9	6.922	318.15	13.3	1.064
0.9	6.922	323.15	14.61	1.1688
0.9	9.517	268.1	2.8	0.224
0.9	9.517	273.1	3.35	0.268
0.9	9.517	278.1	4.02	0.3216
0.9	9.517	283.1	4.73	0.3784
0.9	9.517	288.15	5.44	0.4352
0.9	9.517	293.15	6.33	0.5064
0.9	9.517	298.15	7.25	0.58
0.9	9.517	303.15	8.17	0.6536
0.9	9.517	308.15	9.2	0.736
0.9	9.517	313.15	10.22	0.8176
0.9	9.517	318.15	11.3	0.904
0.9	9.517	323.15	12.55	1.004
0.9	12.113	268.1	2.01	0.1608
0.9	12.113	273.1	2.4	0.192
0.9	12.113	278.1	2.91	0.2328
0.9	12.113	283.1	3.51	0.2808
0.9	12.113	288.15	4.1	0.328
0.9	12.113	293.15	4.81	0.3848
0.9	12.113	298.15	5.55	0.444
0.9	12.113	303.15	6.34	0.5072
0.9	12.113	308.15	7.23	0.5784
0.9	12.113	313.15	8.15	0.652
0.9	12.113	318.15	9.06	0.7248
0.9	12.113	323.15	10.1	0.808
0.9	15.574	268.1	1.162	0.093
0.9	15.574	273.1	1.448	0.1158
0.9	15.574	278.1	1.803	0.1442
0.9	15.574	283.1	2.21	0.1768
0.9	15.574	288.15	2.67	0.2136
0.9	15.574	293.15	3.2	0.256
0.9	15.574	298.15	3.78	0.3024
0.9	15.574	303.15	4.42	0.3536
0.9	15.574	308.15	5.11	0.4088
0.9	15.574	313.15	5.83	0.4664
0.9	15.574	318.15	6.61	0.5288
0.9	15.574	323.15	7.44	0.5952
1	0.5	278.1	2.61	0.2088
1	0.5	283.1	2.99	0.2392
1	0.5	288.15	3.35	0.268
1	0.5	293.15	3.74	0.2992
1	0.5	298.15	4.15	0.332
1	0.5	303.15	4.58	0.3664
1	0.5	308.15	4.99	0.3992
1	0.5	313.15	5.43	0.4344
1	0.5	318.15	5.85	0.468
1	0.5	323.15	6.28	0.5024
1	1	278.1	4.64	0.3712
1	1	283.1	5.2	0.416
1	1	288.15	5.87	0.4696
1	1	293.15	6.53	0.5224
1	1	298.15	7.29	0.5832
1	1	303.15	8	0.64
1	1	308.15	8.7	0.696
1	1	313.15	9.45	0.756
1	1	318.15	10.22	0.8176
1	1	323.15	11.01	0.8808
1	2	278.1	7.64	0.6112
1	2	283.1	8.61	0.6888
1	2	288.15	9.62	0.7696
1	2	293.15	10.74	0.8592
1	2	298.15	12.04	0.9632
1	2	303.15	13.2	1.056
1	2	308.15	14.42	1.1536
1	2	313.15	15.64	1.2512
1	2	318.15	16.83	1.3464
1	2	323.15	18.08	1.4464
1	3	278.1	9.59	0.7672
1	3	283.1	10.96	0.8768
1	3	288.15	12.26	0.9808
1	3	293.15	13.71	1.0968
1	3	298.15	15.24	1.2192
1	3	303.15	16.68	1.3344
1	3	308.15	18.19	1.4552
1	3	313.15	19.74	1.5792
1	4.5	278.1	11.48	0.9184
1	4.5	283.1	13	1.04
1	4.5	288.15	14.46	1.1568
1	4.5	293.15	16.08	1.2864
1	4.5	298.15	17.68	1.4144
1	4.5	303.15	19.42	1.5536
1	6	278.1	12.04	0.9632
1	6	283.1	13.62	1.0896
1	6	288.15	15.23	1.2184
1	6	293.15	16.89	1.3512
1	6	298.15	18.66	1.4928
1	8	278.1	11.53	0.9224
1	8	283.1	13.07	1.0456
1	8	288.15	14.61	1.1688
1	8	293.15	16.27	1.3016
1	8	298.15	17.95	1.436
1	8	303.15	19.73	1.5784
1	11	278.1	9.37	0.7496
1	11	283.1	10.69	0.8552
1	11	288.15	12.08	0.9664
1	11	293.15	13.56	1.0848
1	11	298.15	15.1	1.208
1	11	303.15	16.7	1.336
1	11	308.15	18.26	1.4608
1	11	313.15	19.97	1.5976
1	14	278.1	6.99	0.5592
1	14	283.1	8.01	0.6408
1	14	288.15	9.09	0.7272
1	14	293.15	10.36	0.8288
1	14	298.15	11.7	0.936
1	14	303.15	13.11	1.0488
1	14	308.15	14.54	1.1632
1	14	313.15	16.04	1.2832
1	14	318.15	17.54	1.4032
1	14	323.15	19.14	1.5312
1	17.8	278.1	4.71	0.3768
1	17.8	283.1	5.52	0.4416
1	17.8	288.15	6.45	0.516
1	17.8	293.15	7.44	0.5952
1	17.8	298.15	8.5	0.68
1	17.8	303.15	9.61	0.7688
1	17.8	308.15	10.86	0.8688
1	17.8	313.15	12.26	0.9808
1	17.8	318.15	13.64	1.0912
1	17.8	323.15	15.06	1.2048

System: ethanol + lithium chloride + water; phases: Liquid
Fixed: Pressure, kPa = 101
Property: Viscosity, Pa*s (Liquid); method: CAPTUB:UFactor:8
Solvent: Mole fraction of water	Molality, mol/kg of lithium chloride	Temperature, K	Viscosity, Pa*s	uncertainty
0	0	268.1	0.001975	9.3e-05
0	0	273.1	0.001775	8.4e-05
0	0	278.1	0.001629	7.7e-05
0	0	283.1	0.001468	7e-05
0	0	288.15	0.001341	6.5e-05
0	0	293.15	0.001207	5.9e-05
0	0	298.15	0.001105	5.4e-05
0	0	303.15	0.00101	5e-05
0	0	308.15	0.00092	4.6e-05
0	0	313.15	0.00084	4.3e-05
0	0	318.15	0.000772	4e-05
0	0	323.15	0.000713	3.7e-05
0	0.196	268.1	0.002208	0.000103
0	0.196	273.1	0.002043	9.6e-05
0	0.196	278.1	0.001863	8.8e-05
0	0.196	283.1	0.001695	8e-05
0	0.196	288.15	0.001495	7.1e-05
0	0.196	293.15	0.001357	6.5e-05
0	0.196	298.15	0.001218	5.9e-05
0	0.196	303.15	0.001089	5.3e-05
0	0.196	308.15	0.001006	5e-05
0	0.196	313.15	0.000928	4.6e-05
0	0.196	318.15	0.000866	4.4e-05
0	0.196	323.15	0.000807	4.1e-05
0	0.391	268.1	0.002546	0.000118
0	0.391	273.1	0.002313	0.000108
0	0.391	278.1	0.002099	9.8e-05
0	0.391	283.1	0.001908	9e-05
0	0.391	288.15	0.001715	8.1e-05
0	0.391	293.15	0.001524	7.3e-05
0	0.391	298.15	0.001412	6.8e-05
0	0.391	303.15	0.001306	6.3e-05
0	0.391	308.15	0.001129	5.5e-05
0	0.391	313.15	0.001046	5.2e-05
0	0.391	318.15	0.000968	4.8e-05
0	0.391	323.15	0.000884	4.5e-05
0	0.782	268.1	0.003283	0.000151
0	0.782	273.1	0.002943	0.000135
0	0.782	278.1	0.002638	0.000122
0	0.782	283.1	0.002366	0.00011
0	0.782	288.15	0.0021	9.8e-05
0	0.782	293.15	0.001869	8.8e-05
0	0.782	298.15	0.001677	7.9e-05
0	0.782	303.15	0.001527	7.3e-05
0	0.782	308.15	0.001369	6.6e-05
0	0.782	313.15	0.001267	6.1e-05
0	0.782	318.15	0.001164	5.7e-05
0	0.782	323.15	0.00107	5.3e-05
0	1.173	268.1	0.004167	0.000189
0	1.173	273.1	0.003722	0.00017
0	1.173	278.1	0.003323	0.000152
0	1.173	283.1	0.002959	0.000136
0	1.173	288.15	0.002603	0.00012
0	1.173	293.15	0.002307	0.000107
0	1.173	298.15	0.002057	9.6e-05
0	1.173	303.15	0.001846	8.7e-05
0	1.173	308.15	0.001671	7.9e-05
0	1.173	313.15	0.001524	7.3e-05
0	1.173	318.15	0.001414	6.8e-05
0	1.173	323.15	0.001285	6.2e-05
0	1.76	268.1	0.005819	0.000256
0	1.76	273.1	0.005158	0.000232
0	1.76	278.1	0.00457	0.000207
0	1.76	283.1	0.004045	0.000184
0	1.76	288.15	0.003546	0.000162
0	1.76	293.15	0.003124	0.000143
0	1.76	298.15	0.002767	0.000127
0	1.76	303.15	0.002469	0.000114
0	1.76	308.15	0.002223	0.000103
0	1.76	313.15	0.00201	9.4e-05
0	1.76	318.15	0.001842	8.7e-05
0	1.76	323.15	0.001677	7.9e-05
0	2.347	268.1	0.009082	0.000377
0	2.347	273.1	0.007821	0.000329
0	2.347	278.1	0.006735	0.000288
0	2.347	283.1	0.005802	0.000254
0	2.347	288.15	0.004988	0.000225
0	2.347	293.15	0.004395	0.000199
0	2.347	298.15	0.003869	0.000176
0	2.347	303.15	0.003436	0.000157
0	2.347	308.15	0.003077	0.000141
0	2.347	313.15	0.002762	0.000127
0	2.347	318.15	0.002538	0.000117
0	2.347	323.15	0.002335	0.000108
0	3.129	268.1	0.014963	0.000605
0	3.129	273.1	0.012709	0.000514
0	3.129	278.1	0.010782	0.000439
0	3.129	283.1	0.009203	0.000379
0	3.129	288.15	0.007807	0.000327
0	3.129	293.15	0.006784	0.000289
0	3.129	298.15	0.005908	0.000257
0	3.129	303.15	0.005171	0.000231
0	3.129	308.15	0.004578	0.000206
0	3.129	313.15	0.004089	0.000185
0	3.129	318.15	0.003735	0.000169
0	3.129	323.15	0.003437	0.000156
0	3.911	268.1	0.025437	0.001041
0	3.911	273.1	0.021163	0.000853
0	3.911	278.1	0.017617	0.000705
0	3.911	283.1	0.014676	0.000587
0	3.911	288.15	0.012335	0.000495
0	3.911	293.15	0.010561	0.000428
0	3.911	298.15	0.009071	0.000372
0	3.911	303.15	0.007924	0.00033
0	3.911	308.15	0.006884	0.000292
0	3.911	313.15	0.006076	0.000263
0	3.911	318.15	0.005603	0.000246
0	3.911	323.15	0.005009	0.000225
0.1	0	268.1	0.002307	0.000107
0.1	0	273.1	0.002059	9.6e-05
0.1	0	278.1	0.001837	8.7e-05
0.1	0	283.1	0.001639	7.8e-05
0.1	0	288.15	0.00151	7.2e-05
0.1	0	293.15	0.001355	6.5e-05
0.1	0	298.15	0.001249	6e-05
0.1	0	303.15	0.001156	5.6e-05
0.1	0	308.15	0.001067	5.2e-05
0.1	0	313.15	0.00092	4.6e-05
0.1	0	318.15	0.00086	4.3e-05
0.1	0	323.15	0.00076	3.9e-05
0.1	0.208	268.1	0.002871	0.000132
0.1	0.208	273.1	0.002595	0.00012
0.1	0.208	278.1	0.002386	0.000111
0.1	0.208	283.1	0.002149	0.0001
0.1	0.208	288.15	0.001887	8.9e-05
0.1	0.208	293.15	0.00171	8.1e-05
0.1	0.208	298.15	0.001537	7.3e-05
0.1	0.208	303.15	0.001393	6.7e-05
0.1	0.208	308.15	0.001291	6.2e-05
0.1	0.208	313.15	0.001158	5.6e-05
0.1	0.208	318.15	0.001074	5.3e-05
0.1	0.208	323.15	0.000991	4.9e-05
0.1	0.416	268.1	0.003245	0.000149
0.1	0.416	273.1	0.002918	0.000134
0.1	0.416	278.1	0.002615	0.000121
0.1	0.416	283.1	0.00234	0.000109
0.1	0.416	288.15	0.002096	9.8e-05
0.1	0.416	293.15	0.001892	8.9e-05
0.1	0.416	298.15	0.00169	8e-05
0.1	0.416	303.15	0.001546	7.4e-05
0.1	0.416	308.15	0.001408	6.7e-05
0.1	0.416	313.15	0.001285	6.2e-05
0.1	0.416	318.15	0.001189	5.8e-05
0.1	0.416	323.15	0.001095	5.4e-05
0.1	0.833	268.1	0.003911	0.000178
0.1	0.833	273.1	0.003512	0.00016
0.1	0.833	278.1	0.00315	0.000144
0.1	0.833	283.1	0.002822	0.00013
0.1	0.833	288.15	0.002503	0.000116
0.1	0.833	293.15	0.002233	0.000104
0.1	0.833	298.15	0.002005	9.4e-05
0.1	0.833	303.15	0.001817	8.6e-05
0.1	0.833	308.15	0.001673	7.9e-05
0.1	0.833	313.15	0.00153	7.3e-05
0.1	0.833	318.15	0.001413	6.8e-05
0.1	0.833	323.15	0.001295	6.2e-05
0.1	1.249	268.1	0.004839	0.000219
0.1	1.249	273.1	0.004313	0.000196
0.1	1.249	278.1	0.003842	0.000175
0.1	1.249	283.1	0.003423	0.000156
0.1	1.249	288.15	0.003047	0.00014
0.1	1.249	293.15	0.002684	0.000124
0.1	1.249	298.15	0.002399	0.000111
0.1	1.249	303.15	0.002176	0.000101
0.1	1.249	308.15	0.00198	9.3e-05
0.1	1.249	313.15	0.001796	8.5e-05
0.1	1.249	318.15	0.001662	7.9e-05
0.1	1.249	323.15	0.001521	7.2e-05
0.1	1.874	268.1	0.006701	0.000288
0.1	1.874	273.1	0.005883	0.000258
0.1	1.874	278.1	0.005166	0.000232
0.1	1.874	283.1	0.004529	0.000205
0.1	1.874	288.15	0.00395	0.000179
0.1	1.874	293.15	0.003496	0.000159
0.1	1.874	298.15	0.003103	0.000142
0.1	1.874	303.15	0.00282	0.00013
0.1	1.874	308.15	0.002529	0.000117
0.1	1.874	313.15	0.002287	0.000106
0.1	1.874	318.15	0.002133	9.9e-05
0.1	1.874	323.15	0.001909	9e-05
0.1	2.499	268.1	0.010288	0.000423
0.1	2.499	273.1	0.008711	0.000362
0.1	2.499	278.1	0.007372	0.000312
0.1	2.499	283.1	0.006334	0.000273
0.1	2.499	288.15	0.005456	0.000242
0.1	2.499	293.15	0.004771	0.000215
0.1	2.499	298.15	0.00429	0.000194
0.1	2.499	303.15	0.003792	0.000172
0.1	2.499	308.15	0.003335	0.000152
0.1	2.499	313.15	0.003034	0.000139
0.1	2.499	318.15	0.00279	0.000128
0.1	2.499	323.15	0.002608	0.00012
0.1	3.332	268.1	0.016193	0.000654
0.1	3.332	273.1	0.013643	0.000551
0.1	3.332	278.1	0.011483	0.000466
0.1	3.332	283.1	0.009681	0.000397
0.1	3.332	288.15	0.008225	0.000342
0.1	3.332	293.15	0.007103	0.000301
0.1	3.332	298.15	0.006253	0.00027
0.1	3.332	303.15	0.005524	0.000243
0.1	3.332	308.15	0.004879	0.000219
0.1	3.332	313.15	0.004342	0.000196
0.1	3.332	318.15	0.003992	0.000181
0.1	3.332	323.15	0.003687	0.000167
0.1	4.581	268.1	0.086485	0.007146
0.1	4.581	273.1	0.06804	0.003569
0.1	4.581	278.1	0.053466	0.001762
0.1	4.581	283.1	0.041529	0.001725
0.1	4.581	288.15	0.031392	0.001265
0.1	4.581	293.15	0.026382	0.001048
0.1	4.581	298.15	0.021428	0.000844
0.1	4.581	303.15	0.018652	0.000732
0.1	4.581	308.15	0.01642	0.000645
0.1	4.581	313.15	0.013181	0.000522
0.1	4.581	318.15	0.012033	0.000478
0.1	4.581	323.15	0.010423	0.000419
0.2	0	268.1	0.002805	0.000129
0.2	0	273.1	0.002491	0.000115
0.2	0	278.1	0.00221	0.000103
0.2	0	283.1	0.001959	9.2e-05
0.2	0	288.15	0.001721	8.1e-05
0.2	0	293.15	0.001515	7.2e-05
0.2	0	298.15	0.001353	6.5e-05
0.2	0	303.15	0.001218	5.9e-05
0.2	0	308.15	0.00111	5.4e-05
0.2	0	313.15	0.001004	5e-05
0.2	0	318.15	0.000925	4.6e-05
0.2	0	323.15	0.000839	4.3e-05
0.2	0.223	268.1	0.003126	0.000144
0.2	0.223	273.1	0.002787	0.000129
0.2	0.223	278.1	0.002485	0.000115
0.2	0.223	283.1	0.002213	0.000103
0.2	0.223	288.15	0.001939	9.1e-05
0.2	0.223	293.15	0.001709	8.1e-05
0.2	0.223	298.15	0.001521	7.2e-05
0.2	0.223	303.15	0.001358	6.5e-05
0.2	0.223	308.15	0.001223	5.9e-05
0.2	0.223	313.15	0.001105	5.4e-05
0.2	0.223	318.15	0.001015	5e-05
0.2	0.223	323.15	0.000925	4.6e-05
0.2	0.445	268.1	0.003529	0.000161
0.2	0.445	273.1	0.00312	0.000143
0.2	0.445	278.1	0.002763	0.000127
0.2	0.445	283.1	0.002435	0.000113
0.2	0.445	288.15	0.002125	9.9e-05
0.2	0.445	293.15	0.001869	8.8e-05
0.2	0.445	298.15	0.001654	7.8e-05
0.2	0.445	303.15	0.001489	7.1e-05
0.2	0.445	308.15	0.001345	6.5e-05
0.2	0.445	313.15	0.001208	5.9e-05
0.2	0.445	318.15	0.001103	5.4e-05
0.2	0.445	323.15	0.001007	5e-05
0.2	0.891	268.1	0.004411	0.0002
0.2	0.891	273.1	0.003852	0.000175
0.2	0.891	278.1	0.00336	0.000154
0.2	0.891	283.1	0.002925	0.000134
0.2	0.891	288.15	0.002524	0.000117
0.2	0.891	293.15	0.002254	0.000105
0.2	0.891	298.15	0.002003	9.4e-05
0.2	0.891	303.15	0.001794	8.5e-05
0.2	0.891	308.15	0.001602	7.6e-05
0.2	0.891	313.15	0.00142	6.8e-05
0.2	0.891	318.15	0.001328	6.4e-05
0.2	0.891	323.15	0.001225	5.9e-05
0.2	1.336	268.1	0.005248	0.000235
0.2	1.336	273.1	0.004613	0.000209
0.2	1.336	278.1	0.004054	0.000184
0.2	1.336	283.1	0.003554	0.000162
0.2	1.336	288.15	0.0031	0.000142
0.2	1.336	293.15	0.002703	0.000125
0.2	1.336	298.15	0.002381	0.00011
0.2	1.336	303.15	0.00213	9.9e-05
0.2	1.336	308.15	0.001925	9e-05
0.2	1.336	313.15	0.001714	8.1e-05
0.2	1.336	318.15	0.001564	7.4e-05
0.2	1.336	323.15	0.00142	6.8e-05
0.2	2.004	268.1	0.007139	0.000304
0.2	2.004	273.1	0.006237	0.000271
0.2	2.004	278.1	0.005448	0.000242
0.2	2.004	283.1	0.004748	0.000214
0.2	2.004	288.15	0.004119	0.000187
0.2	2.004	293.15	0.003574	0.000163
0.2	2.004	298.15	0.003131	0.000143
0.2	2.004	303.15	0.002789	0.000128
0.2	2.004	308.15	0.002487	0.000115
0.2	2.004	313.15	0.002252	0.000105
0.2	2.004	318.15	0.002072	9.7e-05
0.2	2.004	323.15	0.001823	8.6e-05
0.2	2.672	268.1	0.011375	0.000464
0.2	2.672	273.1	0.009575	0.000394
0.2	2.672	278.1	0.008021	0.000336
0.2	2.672	283.1	0.006713	0.000287
0.2	2.672	288.15	0.005598	0.000247
0.2	2.672	293.15	0.00483	0.000218
0.2	2.672	298.15	0.004237	0.000192
0.2	2.672	303.15	0.003728	0.000169
0.2	2.672	308.15	0.003259	0.000149
0.2	2.672	313.15	0.002955	0.000135
0.2	2.672	318.15	0.002691	0.000124
0.2	2.672	323.15	0.002514	0.000116
0.2	3.563	268.1	0.016025	0.000648
0.2	3.563	273.1	0.013729	0.000554
0.2	3.563	278.1	0.011165	0.000454
0.2	3.563	283.1	0.008999	0.000371
0.2	3.563	288.15	0.007965	0.000332
0.2	3.563	293.15	0.00707	0.000299
0.2	3.563	298.15	0.006265	0.00027
0.2	3.563	303.15	0.005506	0.000243
0.2	3.563	308.15	0.004765	0.000214
0.2	3.563	313.15	0.004077	0.000184
0.2	3.563	318.15	0.003569	0.000162
0.2	3.563	323.15	0.003101	0.000142
0.2	4.899	268.1	0.063702	0.002976
0.2	4.899	273.1	0.049786	0.002158
0.2	4.899	278.1	0.039279	0.001637
0.2	4.899	283.1	0.030949	0.001254
0.2	4.899	288.15	0.023481	0.000934
0.2	4.899	293.15	0.019622	0.000776
0.2	4.899	298.15	0.016284	0.000643
0.2	4.899	303.15	0.014187	0.000562
0.2	4.899	308.15	0.012501	0.000497
0.2	4.899	313.15	0.010199	0.000412
0.2	4.899	318.15	0.009135	0.000372
0.2	4.899	323.15	0.007575	0.000316
0.2	5.789	268.1	0.123911	0.016167
0.2	5.789	273.1	0.091252	0.00814
0.2	5.789	278.1	0.069106	0.003697
0.2	5.789	283.1	0.053332	0.001718
0.2	5.789	288.15	0.038717	0.001584
0.2	5.789	293.15	0.031596	0.001266
0.2	5.789	298.15	0.026141	0.001033
0.2	5.789	303.15	0.022233	0.000872
0.2	5.789	308.15	0.019276	0.000754
0.2	5.789	313.15	0.015356	0.000603
0.2	5.789	318.15	0.013709	0.00054
0.2	5.789	323.15	0.011483	0.000457
0.3	0	268.1	0.003345	0.000153
0.3	0	273.1	0.002938	0.000135
0.3	0	278.1	0.002579	0.000119
0.3	0	283.1	0.00226	0.000105
0.3	0	288.15	0.00198	9.3e-05
0.3	0	293.15	0.001715	8.1e-05
0.3	0	298.15	0.001513	7.2e-05
0.3	0	303.15	0.001356	6.5e-05
0.3	0	308.15	0.001215	5.9e-05
0.3	0	313.15	0.001096	5.4e-05
0.3	0	318.15	0.000998	4.9e-05
0.3	0	323.15	0.000902	4.5e-05
0.3	0.239	268.1	0.003741	0.000171
0.3	0.239	273.1	0.003357	0.000154
0.3	0.239	278.1	0.002874	0.000132
0.3	0.239	283.1	0.002513	0.000116
0.3	0.239	288.15	0.002194	0.000102
0.3	0.239	293.15	0.001902	8.9e-05
0.3	0.239	298.15	0.001686	8e-05
0.3	0.239	303.15	0.001498	7.1e-05
0.3	0.239	308.15	0.001331	6.4e-05
0.3	0.239	313.15	0.001181	5.7e-05
0.3	0.239	318.15	0.001072	5.3e-05
0.3	0.239	323.15	0.000982	4.9e-05
0.3	0.479	268.1	0.004194	0.000191
0.3	0.479	273.1	0.003635	0.000166
0.3	0.479	278.1	0.003173	0.000145
0.3	0.479	283.1	0.002751	0.000127
0.3	0.479	288.15	0.002457	0.000114
0.3	0.479	293.15	0.002126	9.9e-05
0.3	0.479	298.15	0.001849	8.7e-05
0.3	0.479	303.15	0.001621	7.7e-05
0.3	0.479	308.15	0.001489	7.1e-05
0.3	0.479	313.15	0.001311	6.3e-05
0.3	0.479	318.15	0.001175	5.7e-05
0.3	0.479	323.15	0.001035	5.1e-05
0.3	0.957	268.1	0.005009	0.000226
0.3	0.957	273.1	0.00439	0.000199
0.3	0.957	278.1	0.003799	0.000173
0.3	0.957	283.1	0.003286	0.00015
0.3	0.957	288.15	0.002843	0.000131
0.3	0.957	293.15	0.002469	0.000114
0.3	0.957	298.15	0.002165	0.000101
0.3	0.957	303.15	0.001932	9.1e-05
0.3	0.957	308.15	0.001726	8.2e-05
0.3	0.957	313.15	0.001521	7.2e-05
0.3	0.957	318.15	0.001389	6.7e-05
0.3	0.957	323.15	0.001239	6e-05
0.3	1.436	268.1	0.0061	0.000266
0.3	1.436	273.1	0.005381	0.00024
0.3	1.436	278.1	0.004631	0.000209
0.3	1.436	283.1	0.003996	0.000181
0.3	1.436	288.15	0.0034	0.000155
0.3	1.436	293.15	0.002954	0.000136
0.3	1.436	298.15	0.002594	0.00012
0.3	1.436	303.15	0.002302	0.000107
0.3	1.436	308.15	0.002045	9.6e-05
0.3	1.436	313.15	0.001822	8.6e-05
0.3	1.436	318.15	0.001675	7.9e-05
0.3	1.436	323.15	0.001469	7e-05
0.3	2.153	268.1	0.009056	0.000376
0.3	2.153	273.1	0.007495	0.000317
0.3	2.153	278.1	0.006206	0.000269
0.3	2.153	283.1	0.005238	0.000234
0.3	2.153	288.15	0.004486	0.000203
0.3	2.153	293.15	0.003877	0.000176
0.3	2.153	298.15	0.003363	0.000153
0.3	2.153	303.15	0.002996	0.000137
0.3	2.153	308.15	0.002639	0.000122
0.3	2.153	313.15	0.002362	0.000109
0.3	2.153	318.15	0.002157	0.0001
0.3	2.153	323.15	0.001798	8.5e-05
0.3	2.871	268.1	0.01291	0.000524
0.3	2.871	273.1	0.010622	0.000434
0.3	2.871	278.1	0.008726	0.000362
0.3	2.871	283.1	0.007178	0.000304
0.3	2.871	288.15	0.00592	0.000258
0.3	2.871	293.15	0.005127	0.00023
0.3	2.871	298.15	0.004449	0.000201
0.3	2.871	303.15	0.003873	0.000176
0.3	2.871	308.15	0.003387	0.000154
0.3	2.871	313.15	0.002985	0.000137
0.3	2.871	318.15	0.002702	0.000124
0.3	2.871	323.15	0.002492	0.000115
0.3	3.828	268.1	0.022497	0.000915
0.3	3.828	273.1	0.018653	0.00075
0.3	3.828	278.1	0.01546	0.00062
0.3	3.828	283.1	0.012816	0.000515
0.3	3.828	288.15	0.010651	0.000432
0.3	3.828	293.15	0.009067	0.000372
0.3	3.828	298.15	0.007704	0.000322
0.3	3.828	303.15	0.006684	0.000285
0.3	3.828	308.15	0.005764	0.000252
0.3	3.828	313.15	0.005118	0.000229
0.3	3.828	318.15	0.004594	0.000207
0.3	3.828	323.15	0.00418	0.000189
0.3	5.264	268.1	0.067128	0.003471
0.3	5.264	273.1	0.052393	0.001722
0.3	5.264	278.1	0.04082	0.001708
0.3	5.264	283.1	0.032134	0.001306
0.3	5.264	288.15	0.023727	0.000944
0.3	5.264	293.15	0.01996	0.000789
0.3	5.264	298.15	0.016605	0.000655
0.3	5.264	303.15	0.014327	0.000567
0.3	5.264	308.15	0.012652	0.000503
0.3	5.264	313.15	0.010269	0.000414
0.3	5.264	318.15	0.009301	0.000378
0.3	5.264	323.15	0.008108	0.000335
0.3	6.46	268.1	0.139112	0.020317
0.3	6.46	273.1	0.104463	0.011195
0.3	6.46	278.1	0.078306	0.005382
0.3	6.46	283.1	0.059415	0.002312
0.3	6.46	288.15	0.04278	0.001767
0.3	6.46	293.15	0.035153	0.001417
0.3	6.46	298.15	0.028478	0.001129
0.3	6.46	303.15	0.024163	0.000949
0.3	6.46	308.15	0.020882	0.000816
0.3	6.46	313.15	0.016555	0.000648
0.3	6.46	318.15	0.014885	0.000584
0.3	6.46	323.15	0.012766	0.000504
0.4	0	268.1	0.003991	0.000182
0.4	0	273.1	0.003451	0.000158
0.4	0	278.1	0.00298	0.000137
0.4	0	283.1	0.00257	0.000119
0.4	0	288.15	0.002212	0.000103
0.4	0	293.15	0.001901	8.9e-05
0.4	0	298.15	0.001651	7.8e-05
0.4	0	303.15	0.001446	6.9e-05
0.4	0	308.15	0.001296	6.3e-05
0.4	0	313.15	0.001149	5.6e-05
0.4	0	318.15	0.001039	5.1e-05
0.4	0	323.15	0.000932	4.7e-05
0.4	0.259	268.1	0.004501	0.000204
0.4	0.259	273.1	0.003955	0.00018
0.4	0.259	278.1	0.003349	0.000153
0.4	0.259	283.1	0.002837	0.000131
0.4	0.259	288.15	0.002429	0.000113
0.4	0.259	293.15	0.00209	9.8e-05
0.4	0.259	298.15	0.001818	8.6e-05
0.4	0.259	303.15	0.001609	7.6e-05
0.4	0.259	308.15	0.001444	6.9e-05
0.4	0.259	313.15	0.001271	6.1e-05
0.4	0.259	318.15	0.001126	5.5e-05
0.4	0.259	323.15	0.001006	5e-05
0.4	0.517	268.1	0.004921	0.000223
0.4	0.517	273.1	0.004211	0.000191
0.4	0.517	278.1	0.003625	0.000165
0.4	0.517	283.1	0.003113	0.000143
0.4	0.517	288.15	0.002638	0.000122
0.4	0.517	293.15	0.002284	0.000106
0.4	0.517	298.15	0.00201	9.4e-05
0.4	0.517	303.15	0.001755	8.3e-05
0.4	0.517	308.15	0.001505	7.2e-05
0.4	0.517	313.15	0.001325	6.4e-05
0.4	0.517	318.15	0.001217	5.9e-05
0.4	0.517	323.15	0.0011	5.4e-05
0.4	1.034	268.1	0.005811	0.000256
0.4	1.034	273.1	0.00502	0.000227
0.4	1.034	278.1	0.004285	0.000194
0.4	1.034	283.1	0.003653	0.000166
0.4	1.034	288.15	0.003152	0.000144
0.4	1.034	293.15	0.002692	0.000124
0.4	1.034	298.15	0.002331	0.000108
0.4	1.034	303.15	0.002019	9.4e-05
0.4	1.034	308.15	0.001795	8.5e-05
0.4	1.034	313.15	0.001575	7.5e-05
0.4	1.034	318.15	0.001367	6.6e-05
0.4	1.034	323.15	0.001251	6.1e-05
0.4	1.551	268.1	0.006959	0.000298
0.4	1.551	273.1	0.006001	0.000262
0.4	1.551	278.1	0.005115	0.00023
0.4	1.551	283.1	0.004354	0.000197
0.4	1.551	288.15	0.003713	0.000169
0.4	1.551	293.15	0.003187	0.000146
0.4	1.551	298.15	0.002755	0.000127
0.4	1.551	303.15	0.002336	0.000108
0.4	1.551	308.15	0.002145	0.0001
0.4	1.551	313.15	0.001887	8.9e-05
0.4	1.551	318.15	0.001622	7.7e-05
0.4	1.551	323.15	0.001435	6.9e-05
0.4	2.327	268.1	0.01277	0.000518
0.4	2.327	273.1	0.010499	0.000429
0.4	2.327	278.1	0.008686	0.00036
0.4	2.327	283.1	0.007138	0.000303
0.4	2.327	288.15	0.00588	0.000257
0.4	2.327	293.15	0.005087	0.000228
0.4	2.327	298.15	0.004409	0.000199
0.4	2.327	303.15	0.003833	0.000174
0.4	2.327	308.15	0.003347	0.000153
0.4	2.327	313.15	0.002931	0.000134
0.4	2.327	318.15	0.002629	0.000121
0.4	2.327	323.15	0.002352	0.000109
0.4	3.102	268.1	0.019116	0.000773
0.4	3.102	273.1	0.015185	0.000611
0.4	3.102	278.1	0.012106	0.000489
0.4	3.102	283.1	0.00977	0.0004
0.4	3.102	288.15	0.007715	0.000323
0.4	3.102	293.15	0.006536	0.00028
0.4	3.102	298.15	0.005546	0.000244
0.4	3.102	303.15	0.004832	0.000217
0.4	3.102	308.15	0.004199	0.00019
0.4	3.102	313.15	0.003691	0.000168
0.4	3.102	318.15	0.003299	0.00015
0.4	3.102	323.15	0.002902	0.000133
0.4	4.136	268.1	0.030193	0.00125
0.4	4.136	273.1	0.024008	0.000973
0.4	4.136	278.1	0.019051	0.000763
0.4	4.136	283.1	0.015238	0.000609
0.4	4.136	288.15	0.011601	0.000468
0.4	4.136	293.15	0.00993	0.000404
0.4	4.136	298.15	0.00846	0.00035
0.4	4.136	303.15	0.007339	0.000308
0.4	4.136	308.15	0.006312	0.000271
0.4	4.136	313.15	0.005565	0.000244
0.4	4.136	318.15	0.004936	0.000222
0.4	4.136	323.15	0.004313	0.000194
0.4	5.687	268.1	0.067538	0.003533
0.4	5.687	273.1	0.052155	0.001707
0.4	5.687	278.1	0.04071	0.001703
0.4	5.687	283.1	0.031932	0.001297
0.4	5.687	288.15	0.023587	0.000939
0.4	5.687	293.15	0.019735	0.00078
0.4	5.687	298.15	0.016242	0.000641
0.4	5.687	303.15	0.014135	0.00056
0.4	5.687	308.15	0.01243	0.000495
0.4	5.687	313.15	0.010129	0.000409
0.4	5.687	318.15	0.009193	0.000374
0.4	5.687	323.15	0.007865	0.000326
0.4	7.238	268.1	0.123648	0.016097
0.4	7.238	273.1	0.09886	0.009868
0.4	7.238	278.1	0.078949	0.00551
0.4	7.238	283.1	0.06232	0.002676
0.4	7.238	288.15	0.043351	0.001793
0.4	7.238	293.15	0.033894	0.001363
0.4	7.238	298.15	0.028536	0.001131
0.4	7.238	303.15	0.024844	0.000976
0.4	7.238	308.15	0.021169	0.000828
0.4	7.238	313.15	0.016393	0.000642
0.4	7.238	318.15	0.014945	0.000586
0.4	7.238	323.15	0.012853	0.000508
0.5	0	268.1	0.004829	0.000219
0.5	0	273.1	0.004123	0.000187
0.5	0	278.1	0.003518	0.000161
0.5	0	283.1	0.002995	0.000138
0.5	0	288.15	0.002539	0.000117
0.5	0	293.15	0.002153	0.0001
0.5	0	298.15	0.00184	9e-05
0.5	0	303.15	0.001598	7.6e-05
0.5	0	308.15	0.001407	6.7e-05
0.5	0	313.15	0.00127	6e-05
0.5	0	318.15	0.00114	6e-05
0.5	0	323.15	0.00102	5e-05
0.5	0.281	268.1	0.005148	0.000231
0.5	0.281	273.1	0.004441	0.000201
0.5	0.281	278.1	0.003829	0.000174
0.5	0.281	283.1	0.003262	0.000149
0.5	0.281	288.15	0.002755	0.000127
0.5	0.281	293.15	0.00234	0.00011
0.5	0.281	298.15	0.002007	9.4e-05
0.5	0.281	303.15	0.001754	8.3e-05
0.5	0.281	308.15	0.001541	7.3e-05
0.5	0.281	313.15	0.001348	6.5e-05
0.5	0.281	318.15	0.001211	5.9e-05
0.5	0.281	323.15	0.001074	5.3e-05
0.5	0.562	268.1	0.005821	0.000256
0.5	0.562	273.1	0.004915	0.000222
0.5	0.562	278.1	0.004158	0.000189
0.5	0.562	283.1	0.003527	0.000161
0.5	0.562	288.15	0.00298	0.00014
0.5	0.562	293.15	0.002571	0.000119
0.5	0.562	298.15	0.002191	0.000102
0.5	0.562	303.15	0.001947	9.1e-05
0.5	0.562	308.15	0.001733	8.2e-05
0.5	0.562	313.15	0.001476	7e-05
0.5	0.562	318.15	0.001341	6.5e-05
0.5	0.562	323.15	0.001148	5.6e-05
0.5	1.125	268.1	0.006835	0.000293
0.5	1.125	273.1	0.005771	0.000254
0.5	1.125	278.1	0.004947	0.000223
0.5	1.125	283.1	0.004119	0.000187
0.5	1.125	288.15	0.003487	0.000159
0.5	1.125	293.15	0.002934	0.000135
0.5	1.125	298.15	0.00253	0.00012
0.5	1.125	303.15	0.002214	0.000103
0.5	1.125	308.15	0.001939	9.1e-05
0.5	1.125	313.15	0.001711	8.1e-05
0.5	1.125	318.15	0.001529	7.3e-05
0.5	1.125	323.15	0.001358	6.5e-05
0.5	1.687	268.1	0.010402	0.000427
0.5	1.687	273.1	0.008541	0.000356
0.5	1.687	278.1	0.007012	0.000299
0.5	1.687	283.1	0.005753	0.000252
0.5	1.687	288.15	0.004755	0.000215
0.5	1.687	293.15	0.004065	0.000184
0.5	1.687	298.15	0.003463	0.000158
0.5	1.687	303.15	0.003011	0.000138
0.5	1.687	308.15	0.002606	0.00012
0.5	1.687	313.15	0.002312	0.000107
0.5	1.687	318.15	0.002082	9.7e-05
0.5	1.687	323.15	0.001724	8.1e-05
0.5	2.53	268.1	0.013961	0.000565
0.5	2.53	273.1	0.011341	0.000462
0.5	2.53	278.1	0.009199	0.000379
0.5	2.53	283.1	0.007473	0.000315
0.5	2.53	288.15	0.006242	0.00027
0.5	2.53	293.15	0.0053	0.0002
0.5	2.53	298.15	0.004516	0.000204
0.5	2.53	303.15	0.003878	0.000176
0.5	2.53	308.15	0.003391	0.000155
0.5	2.53	313.15	0.002971	0.000136
0.5	2.53	318.15	0.002613	0.00012
0.5	2.53	323.15	0.0023	0.0001
0.5	3.374	268.1	0.020305	0.000823
0.5	3.374	273.1	0.015899	0.00064
0.5	3.374	278.1	0.012727	0.000513
0.5	3.374	283.1	0.010234	0.000417
0.5	3.374	288.15	0.007997	0.000334
0.5	3.374	293.15	0.006692	0.000286
0.5	3.374	298.15	0.005985	0.00026
0.5	3.374	303.15	0.00493	0.00022
0.5	3.374	308.15	0.004262	0.000193
0.5	3.374	313.15	0.003752	0.00017
0.5	3.374	318.15	0.003366	0.000153
0.5	3.374	323.15	0.002911	0.000133
0.5	4.498	268.1	0.031501	0.001309
0.5	4.498	273.1	0.024866	0.001009
0.5	4.498	278.1	0.019598	0.000785
0.5	4.498	283.1	0.015599	0.000623
0.5	4.498	288.15	0.012519	0.000502
0.5	4.498	293.15	0.010103	0.000411
0.5	4.498	298.15	0.008447	0.000349
0.5	4.498	303.15	0.007266	0.000306
0.5	4.498	308.15	0.00618	0.00027
0.5	4.498	313.15	0.005454	0.000241
0.5	4.498	318.15	0.004866	0.000219
0.5	4.498	323.15	0.004184	0.000189
0.5	6.185	268.1	0.07987	0.00577
0.5	6.185	273.1	0.060159	0.002473
0.5	6.185	278.1	0.046474	0.001974
0.5	6.185	283.1	0.035686	0.001462
0.5	6.185	288.15	0.026401	0.001055
0.5	6.185	293.15	0.021962	0.000869
0.5	6.185	298.15	0.018209	0.000717
0.5	6.185	303.15	0.015734	0.00062
0.5	6.185	308.15	0.013743	0.000544
0.5	6.185	313.15	0.010983	0.00044
0.5	6.185	318.15	0.010021	0.000404
0.5	6.185	323.15	0.008455	0.000347
0.5	7.872	268.1	0.180863	0.032836
0.5	7.872	273.1	0.13201	0.01829
0.5	7.872	278.1	0.095569	0.00907
0.5	7.872	283.1	0.07199	0.00414
0.5	7.872	288.15	0.051472	0.001568
0.5	7.872	293.15	0.04137	0.00169
0.5	7.872	298.15	0.033179	0.001325
0.5	7.872	303.15	0.028115	0.001108
0.5	7.872	308.15	0.024131	0.000944
0.5	7.872	313.15	0.019012	0.000742
0.5	7.872	318.15	0.016993	0.000663
0.5	7.872	323.15	0.014556	0.000571
0.5	8.547	268.1	0.333404	0.088408
0.5	8.547	273.1	0.245142	0.054534
0.5	8.547	278.1	0.180224	0.032474
0.5	8.547	283.1	0.134336	0.018823
0.5	8.547	288.15	0.093211	0.008466
0.5	8.547	293.15	0.075946	0.004825
0.5	8.547	298.15	0.060253	0.002322
0.5	8.547	303.15	0.049001	0.002002
0.5	8.547	308.15	0.041068	0.001642
0.5	8.547	313.15	0.032397	0.001272
0.5	8.547	318.15	0.028465	0.001108
0.5	8.547	323.15	0.022821	0.000884
0.6	0	268.1	0.005931	0.00026
0.6	0	273.1	0.004978	0.000225
0.6	0	278.1	0.004176	0.00019
0.6	0	283.1	0.003499	0.00016
0.6	0	288.15	0.002922	0.000134
0.6	0	293.15	0.002463	0.000114
0.6	0	298.15	0.002089	9.8e-05
0.6	0	303.15	0.001812	8.5e-05
0.6	0	308.15	0.001582	7.5e-05
0.6	0	313.15	0.00143	6.8e-05
0.6	0	318.15	0.00127	6.1e-05
0.6	0	323.15	0.00114	5.6e-05
0.6	0.308	268.1	0.006377	0.000276
0.6	0.308	273.1	0.005358	0.000239
0.6	0.308	278.1	0.004497	0.000204
0.6	0.308	283.1	0.003767	0.000171
0.6	0.308	288.15	0.003127	0.000143
0.6	0.308	293.15	0.002641	0.000122
0.6	0.308	298.15	0.00225	0.000105
0.6	0.308	303.15	0.001953	9.2e-05
0.6	0.308	308.15	0.001706	8.1e-05
0.6	0.308	313.15	0.001492	7.1e-05
0.6	0.308	318.15	0.001341	6.5e-05
0.6	0.308	323.15	0.001186	5.8e-05
0.6	0.616	268.1	0.006889	0.000295
0.6	0.616	273.1	0.005819	0.000255
0.6	0.616	278.1	0.004841	0.000219
0.6	0.616	283.1	0.004046	0.000184
0.6	0.616	288.15	0.003379	0.000154
0.6	0.616	293.15	0.002838	0.000131
0.6	0.616	298.15	0.002419	0.000112
0.6	0.616	303.15	0.0021	9.8e-05
0.6	0.616	308.15	0.001825	8.6e-05
0.6	0.616	313.15	0.001591	7.6e-05
0.6	0.616	318.15	0.001423	6.8e-05
0.6	0.616	323.15	0.001255	6.1e-05
0.6	1.232	268.1	0.007975	0.000335
0.6	1.232	273.1	0.006711	0.000288
0.6	1.232	278.1	0.005621	0.000248
0.6	1.232	283.1	0.00466	0.000211
0.6	1.232	288.15	0.003896	0.000177
0.6	1.232	293.15	0.003275	0.00015
0.6	1.232	298.15	0.002794	0.000129
0.6	1.232	303.15	0.00242	0.000112
0.6	1.232	308.15	0.002108	9.8e-05
0.6	1.232	313.15	0.001803	8.5e-05
0.6	1.232	318.15	0.00161	7.6e-05
0.6	1.232	323.15	0.001421	6.8e-05
0.6	1.849	268.1	0.011736	0.000478
0.6	1.849	273.1	0.009552	0.000394
0.6	1.849	278.1	0.007769	0.000326
0.6	1.849	283.1	0.006321	0.000273
0.6	1.849	288.15	0.005182	0.000232
0.6	1.849	293.15	0.004367	0.000197
0.6	1.849	298.15	0.003708	0.000169
0.6	1.849	303.15	0.003191	0.000146
0.6	1.849	308.15	0.00276	0.000127
0.6	1.849	313.15	0.002422	0.000112
0.6	1.849	318.15	0.002185	0.000102
0.6	1.849	323.15	0.001964	9.2e-05
0.6	2.773	268.1	0.015485	0.000626
0.6	2.773	273.1	0.012347	0.0005
0.6	2.773	278.1	0.009834	0.000403
0.6	2.773	283.1	0.008011	0.000335
0.6	2.773	288.15	0.006568	0.000282
0.6	2.773	293.15	0.005551	0.000245
0.6	2.773	298.15	0.004691	0.000211
0.6	2.773	303.15	0.004063	0.000184
0.6	2.773	308.15	0.003495	0.000159
0.6	2.773	313.15	0.003074	0.000141
0.6	2.773	318.15	0.00277	0.000127
0.6	2.773	323.15	0.00249	0.000115
0.6	3.697	268.1	0.021833	0.000887
0.6	3.697	273.1	0.017208	0.000692
0.6	3.697	278.1	0.013529	0.000544
0.6	3.697	283.1	0.010918	0.000443
0.6	3.697	288.15	0.00853	0.000353
0.6	3.697	293.15	0.007378	0.000311
0.6	3.697	298.15	0.006146	0.000266
0.6	3.697	303.15	0.00507	0.000227
0.6	3.697	308.15	0.004368	0.000197
0.6	3.697	313.15	0.00382	0.000173
0.6	3.697	318.15	0.003497	0.000159
0.6	3.697	323.15	0.003059	0.00014
0.6	4.93	268.1	0.0327	0.001363
0.6	4.93	273.1	0.025512	0.001037
0.6	4.93	278.1	0.01986	0.000796
0.6	4.93	283.1	0.015586	0.000622
0.6	4.93	288.15	0.011686	0.000471
0.6	4.93	293.15	0.010045	0.000409
0.6	4.93	298.15	0.008413	0.000348
0.6	4.93	303.15	0.007227	0.000304
0.6	4.93	308.15	0.00621	0.000268
0.6	4.93	313.15	0.005454	0.000241
0.6	4.93	318.15	0.004902	0.00022
0.6	4.93	323.15	0.004289	0.000193
0.6	6.778	268.1	0.06613	0.003323
0.6	6.778	273.1	0.050701	0.001625
0.6	6.778	278.1	0.038662	0.001609
0.6	6.778	283.1	0.029881	0.001208
0.6	6.778	288.15	0.022074	0.000877
0.6	6.778	293.15	0.018596	0.000735
0.6	6.778	298.15	0.015216	0.000602
0.6	6.778	303.15	0.013179	0.000524
0.6	6.778	308.15	0.011672	0.000466
0.6	6.778	313.15	0.009429	0.000383
0.6	6.778	318.15	0.008456	0.000348
0.6	6.778	323.15	0.007319	0.000307
0.6	8.627	268.1	0.147813	0.022798
0.6	8.627	273.1	0.111617	0.012949
0.6	8.627	278.1	0.084103	0.006563
0.6	8.627	283.1	0.063494	0.002834
0.6	8.627	288.15	0.04549	0.001891
0.6	8.627	293.15	0.037249	0.001508
0.6	8.627	298.15	0.030118	0.001197
0.6	8.627	303.15	0.02519	0.00099
0.6	8.627	308.15	0.022061	0.000862
0.6	8.627	313.15	0.017464	0.000683
0.6	8.627	318.15	0.015544	0.000609
0.6	8.627	323.15	0.013483	0.000531
0.6	9.859	268.1	0.300611	0.07543
0.6	9.859	273.1	0.222805	0.046663
0.6	9.859	278.1	0.165149	0.027805
0.6	9.859	283.1	0.122426	0.015626
0.6	9.859	288.15	0.084843	0.00665
0.6	9.859	293.15	0.069094	0.003599
0.6	9.859	298.15	0.054459	0.001717
0.6	9.859	303.15	0.044644	0.001808
0.6	9.859	308.15	0.037475	0.001489
0.6	9.859	313.15	0.029651	0.00116
0.6	9.859	318.15	0.026232	0.00102
0.6	9.859	323.15	0.022153	0.000858
0.7	0	268.1	0.007172	0.000305
0.7	0	273.1	0.005947	0.00026
0.7	0	278.1	0.004933	0.000223
0.7	0	283.1	0.004093	0.000186
0.7	0	288.15	0.003372	0.000154
0.7	0	293.15	0.002842	0.000131
0.7	0	298.15	0.00235	0.000109
0.7	0	303.15	0.00204	9.5e-05
0.7	0	308.15	0.00178	8.4e-05
0.7	0	313.15	0.00156	7.4e-05
0.7	0	318.15	0.001371	6.6e-05
0.7	0	323.15	0.00117	5.7e-05
0.7	0.341	268.1	0.007668	0.000324
0.7	0.341	273.1	0.006365	0.000275
0.7	0.341	278.1	0.005428	0.000241
0.7	0.341	283.1	0.004487	0.000203
0.7	0.341	288.15	0.003632	0.000165
0.7	0.341	293.15	0.003051	0.00014
0.7	0.341	298.15	0.00261	0.00012
0.7	0.341	303.15	0.002234	0.000104
0.7	0.341	308.15	0.001935	9.1e-05
0.7	0.341	313.15	0.001669	7.9e-05
0.7	0.341	318.15	0.001435	6.9e-05
0.7	0.341	323.15	0.001251	6.1e-05
0.7	0.682	268.1	0.008276	0.000347
0.7	0.682	273.1	0.006898	0.000295
0.7	0.682	278.1	0.005778	0.000254
0.7	0.682	283.1	0.004759	0.000215
0.7	0.682	288.15	0.003928	0.000178
0.7	0.682	293.15	0.003217	0.000147
0.7	0.682	298.15	0.002738	0.000126
0.7	0.682	303.15	0.002395	0.000111
0.7	0.682	308.15	0.002019	9.4e-05
0.7	0.682	313.15	0.001724	8.1e-05
0.7	0.682	318.15	0.001539	7.3e-05
0.7	0.682	323.15	0.001361	6.5e-05
0.7	1.363	268.1	0.009651	0.000398
0.7	1.363	273.1	0.007889	0.000331
0.7	1.363	278.1	0.006554	0.000282
0.7	1.363	283.1	0.005341	0.000238
0.7	1.363	288.15	0.00434	0.000196
0.7	1.363	293.15	0.003653	0.000166
0.7	1.363	298.15	0.003134	0.000143
0.7	1.363	303.15	0.00272	0.000125
0.7	1.363	308.15	0.002321	0.000108
0.7	1.363	313.15	0.001975	9.2e-05
0.7	1.363	318.15	0.001695	8e-05
0.7	1.363	323.15	0.001523	7.3e-05
0.7	2.045	268.1	0.013241	0.000537
0.7	2.045	273.1	0.010698	0.000437
0.7	2.045	278.1	0.008599	0.000357
0.7	2.045	283.1	0.006926	0.000295
0.7	2.045	288.15	0.005683	0.00025
0.7	2.045	293.15	0.004765	0.000215
0.7	2.045	298.15	0.004114	0.000186
0.7	2.045	303.15	0.003582	0.000163
0.7	2.045	308.15	0.003002	0.000138
0.7	2.045	313.15	0.002641	0.000122
0.7	2.045	318.15	0.002319	0.000108
0.7	2.045	323.15	0.001975	9.2e-05
0.7	3.067	268.1	0.016264	0.000657
0.7	3.067	273.1	0.013142	0.000531
0.7	3.067	278.1	0.010598	0.000432
0.7	3.067	283.1	0.008468	0.000352
0.7	3.067	288.15	0.006918	0.000294
0.7	3.067	293.15	0.005826	0.000255
0.7	3.067	298.15	0.004941	0.000222
0.7	3.067	303.15	0.00427	0.000193
0.7	3.067	308.15	0.003671	0.000167
0.7	3.067	313.15	0.003189	0.000146
0.7	3.067	318.15	0.002791	0.000128
0.7	3.067	323.15	0.002413	0.000112
0.7	4.09	268.1	0.02037	0.000825
0.7	4.09	273.1	0.016269	0.000654
0.7	4.09	278.1	0.01305	0.000526
0.7	4.09	283.1	0.0104	0.000424
0.7	4.09	288.15	0.008486	0.000352
0.7	4.09	293.15	0.007137	0.000302
0.7	4.09	298.15	0.006003	0.000261
0.7	4.09	303.15	0.005108	0.000229
0.7	4.09	308.15	0.004502	0.000203
0.7	4.09	313.15	0.003921	0.000178
0.7	4.09	318.15	0.003435	0.000156
0.7	4.09	323.15	0.00298	0.000136
0.7	5.453	268.1	0.032411	0.00135
0.7	5.453	273.1	0.025185	0.001023
0.7	5.453	278.1	0.019554	0.000783
0.7	5.453	283.1	0.015375	0.000614
0.7	5.453	288.15	0.011527	0.000465
0.7	5.453	293.15	0.009708	0.000396
0.7	5.453	298.15	0.008265	0.000342
0.7	5.453	303.15	0.007143	0.000301
0.7	5.453	308.15	0.006157	0.000266
0.7	5.453	313.15	0.005419	0.000239
0.7	5.453	318.15	0.004832	0.000217
0.7	5.453	323.15	0.004174	0.000188
0.7	7.498	268.1	0.057668	0.002227
0.7	7.498	273.1	0.046354	0.00199
0.7	7.498	278.1	0.03491	0.001439
0.7	7.498	283.1	0.02714	0.001092
0.7	7.498	288.15	0.020262	0.000804
0.7	7.498	293.15	0.017087	0.000676
0.7	7.498	298.15	0.014171	0.000562
0.7	7.498	303.15	0.012292	0.00049
0.7	7.498	308.15	0.010841	0.000436
0.7	7.498	313.15	0.008913	0.000365
0.7	7.498	318.15	0.007857	0.000326
0.7	7.498	323.15	0.007	0.000295
0.7	9.542	268.1	0.128627	0.017428
0.7	9.542	273.1	0.096395	0.009299
0.7	9.542	278.1	0.072165	0.004207
0.7	9.542	283.1	0.054823	0.001837
0.7	9.542	288.15	0.039567	0.001622
0.7	9.542	293.15	0.032693	0.001312
0.7	9.542	298.15	0.026659	0.001054
0.7	9.542	303.15	0.02265	0.000889
0.7	9.542	308.15	0.019673	0.000769
0.7	9.542	313.15	0.015779	0.000619
0.7	9.542	318.15	0.014234	0.00056
0.7	9.542	323.15	0.012361	0.00049
0.7	11.246	268.1	0.214294	0.043848
0.7	11.246	273.1	0.159709	0.026232
0.7	11.246	278.1	0.119043	0.01479
0.7	11.246	283.1	0.088746	0.007516
0.7	11.246	288.15	0.06274	0.0027
0.7	11.246	293.15	0.051068	0.001519
0.7	11.246	298.15	0.040735	0.001649
0.7	11.246	303.15	0.034304	0.001364
0.7	11.246	308.15	0.02927	0.00115
0.7	11.246	313.15	0.023151	0.000902
0.7	11.246	318.15	0.020749	0.000806
0.7	11.246	323.15	0.017691	0.000688
0.8	0	268.1	0.007549	0.000319
0.8	0	273.1	0.006169	0.000268
0.8	0	278.1	0.005037	0.000227
0.8	0	283.1	0.004102	0.000186
0.8	0	288.15	0.003433	0.000157
0.8	0	293.15	0.002841	0.000131
0.8	0	298.15	0.00245	0.000113
0.8	0	303.15	0.002101	9.8e-05
0.8	0	308.15	0.001772	8.4e-05
0.8	0	313.15	0.001557	7.4e-05
0.8	0	318.15	0.001369	6.6e-05
0.8	0	323.15	0.001202	5.8e-05
0.8	0.381	268.1	0.008076	0.000339
0.8	0.381	273.1	0.006618	0.000285
0.8	0.381	278.1	0.005425	0.000241
0.8	0.381	283.1	0.004471	0.000202
0.8	0.381	288.15	0.003704	0.000169
0.8	0.381	293.15	0.003085	0.000141
0.8	0.381	298.15	0.002595	0.00012
0.8	0.381	303.15	0.002257	0.000105
0.8	0.381	308.15	0.001907	8.9e-05
0.8	0.381	313.15	0.001605	7.6e-05
0.8	0.381	318.15	0.001437	6.9e-05
0.8	0.381	323.15	0.001285	6.2e-05
0.8	0.763	268.1	0.00869	0.000362
0.8	0.763	273.1	0.007115	0.000303
0.8	0.763	278.1	0.005839	0.000256
0.8	0.763	283.1	0.004821	0.000218
0.8	0.763	288.15	0.004038	0.000183
0.8	0.763	293.15	0.0034	0.000155
0.8	0.763	298.15	0.002744	0.000126
0.8	0.763	303.15	0.002392	0.000111
0.8	0.763	308.15	0.002072	9.7e-05
0.8	0.763	313.15	0.001761	8.3e-05
0.8	0.763	318.15	0.001532	7.3e-05
0.8	0.763	323.15	0.001314	6.3e-05
0.8	1.525	268.1	0.009689	0.0004
0.8	1.525	273.1	0.007892	0.000332
0.8	1.525	278.1	0.006501	0.00028
0.8	1.525	283.1	0.005256	0.000235
0.8	1.525	288.15	0.004342	0.000197
0.8	1.525	293.15	0.003634	0.000165
0.8	1.525	298.15	0.003068	0.000141
0.8	1.525	303.15	0.002601	0.00012
0.8	1.525	308.15	0.002251	0.000105
0.8	1.525	313.15	0.001901	8.9e-05
0.8	1.525	318.15	0.001691	8e-05
0.8	1.525	323.15	0.001438	6.9e-05
0.8	2.288	268.1	0.0133	0.000539
0.8	2.288	273.1	0.010558	0.000432
0.8	2.288	278.1	0.008398	0.00035
0.8	2.288	283.1	0.006656	0.000285
0.8	2.288	288.15	0.005348	0.000238
0.8	2.288	293.15	0.004466	0.000202
0.8	2.288	298.15	0.003759	0.000171
0.8	2.288	303.15	0.003238	0.000148
0.8	2.288	308.15	0.002793	0.000128
0.8	2.288	313.15	0.00246	0.000114
0.8	2.288	318.15	0.002156	0.0001
0.8	2.288	323.15	0.001924	9e-05
0.8	3.431	268.1	0.015579	0.00063
0.8	3.431	273.1	0.012442	0.000504
0.8	3.431	278.1	0.009976	0.000409
0.8	3.431	283.1	0.007943	0.000332
0.8	3.431	288.15	0.006425	0.000276
0.8	3.431	293.15	0.00538	0.000239
0.8	3.431	298.15	0.004546	0.000205
0.8	3.431	303.15	0.003915	0.000178
0.8	3.431	308.15	0.003323	0.000152
0.8	3.431	313.15	0.002936	0.000135
0.8	3.431	318.15	0.002498	0.000115
0.8	3.431	323.15	0.002185	0.000102
0.8	4.575	268.1	0.02001	0.00081
0.8	4.575	273.1	0.015577	0.000627
0.8	4.575	278.1	0.012128	0.00049
0.8	4.575	283.1	0.009704	0.000397
0.8	4.575	288.15	0.007872	0.000329
0.8	4.575	293.15	0.006598	0.000282
0.8	4.575	298.15	0.005565	0.000245
0.8	4.575	303.15	0.004805	0.000216
0.8	4.575	308.15	0.004115	0.000186
0.8	4.575	313.15	0.003582	0.000163
0.8	4.575	318.15	0.003135	0.000143
0.8	4.575	323.15	0.002701	0.000124
0.8	6.1	268.1	0.029226	0.001207
0.8	6.1	273.1	0.022508	0.000909
0.8	6.1	278.1	0.017425	0.000697
0.8	6.1	283.1	0.013738	0.000551
0.8	6.1	288.15	0.010239	0.000417
0.8	6.1	293.15	0.008634	0.000356
0.8	6.1	298.15	0.007305	0.000308
0.8	6.1	303.15	0.006609	0.000282
0.8	6.1	308.15	0.005419	0.000239
0.8	6.1	313.15	0.004759	0.000214
0.8	6.1	318.15	0.004201	0.00019
0.8	6.1	323.15	0.003787	0.000172
0.8	8.388	268.1	0.050673	0.001661
0.8	8.388	273.1	0.038717	0.001626
0.8	8.388	278.1	0.029934	0.001219
0.8	8.388	283.1	0.023195	0.000927
0.8	8.388	288.15	0.01738	0.00069
0.8	8.388	293.15	0.01455	0.000578
0.8	8.388	298.15	0.012092	0.000484
0.8	8.388	303.15	0.010332	0.000418
0.8	8.388	308.15	0.00882	0.000362
0.8	8.388	313.15	0.007707	0.000321
0.8	8.388	318.15	0.006782	0.000288
0.8	8.388	323.15	0.006157	0.000265
0.8	10.675	268.1	0.093315	0.008644
0.8	10.675	273.1	0.069558	0.003805
0.8	10.675	278.1	0.052975	0.001726
0.8	10.675	283.1	0.040751	0.00169
0.8	10.675	288.15	0.029682	0.001192
0.8	10.675	293.15	0.024752	0.000981
0.8	10.675	298.15	0.020307	0.0008
0.8	10.675	303.15	0.017455	0.000686
0.8	10.675	308.15	0.015191	0.000598
0.8	10.675	313.15	0.012407	0.000493
0.8	10.675	318.15	0.0113	0.000451
0.8	10.675	323.15	0.009624	0.00039
0.8	13.344	268.1	0.184015	0.03384
0.8	13.344	273.1	0.137485	0.0198
0.8	13.344	278.1	0.102739	0.010739
0.8	13.344	283.1	0.076793	0.00505
0.8	13.344	288.15	0.054108	0.001746
0.8	13.344	293.15	0.042847	0.001756
0.8	13.344	298.15	0.035508	0.001423
0.8	13.344	303.15	0.029811	0.001178
0.8	13.344	308.15	0.025788	0.00101
0.8	13.344	313.15	0.020559	0.000801
0.8	13.344	318.15	0.018467	0.000719
0.8	13.344	323.15	0.015922	0.000622
0.9	0	268.1	0.006025	0.000263
0.9	0	273.1	0.004997	0.000226
0.9	0	278.1	0.004089	0.000186
0.9	0	283.1	0.00334	0.000153
0.9	0	288.15	0.002706	0.000125
0.9	0	293.15	0.002268	0.000105
0.9	0	298.15	0.00192	9e-05
0.9	0	303.15	0.001656	7.8e-05
0.9	0	308.15	0.001448	6.9e-05
0.9	0	313.15	0.001271	6.1e-05
0.9	0	318.15	0.001121	5.5e-05
0.9	0	323.15	0.000975	4.8e-05
0.9	0.433	268.1	0.006601	0.000284
0.9	0.433	273.1	0.005372	0.000239
0.9	0.433	278.1	0.004406	0.0002
0.9	0.433	283.1	0.003614	0.000165
0.9	0.433	288.15	0.002924	0.000134
0.9	0.433	293.15	0.002473	0.000114
0.9	0.433	298.15	0.00209	9.8e-05
0.9	0.433	303.15	0.001811	8.5e-05
0.9	0.433	308.15	0.001551	7.4e-05
0.9	0.433	313.15	0.001361	6.5e-05
0.9	0.433	318.15	0.001185	5.8e-05
0.9	0.433	323.15	0.001041	5.1e-05
0.9	0.865	268.1	0.007317	0.000311
0.9	0.865	273.1	0.005872	0.000257
0.9	0.865	278.1	0.004703	0.000213
0.9	0.865	283.1	0.003852	0.000175
0.9	0.865	288.15	0.003181	0.000146
0.9	0.865	293.15	0.002652	0.000122
0.9	0.865	298.15	0.002247	0.000104
0.9	0.865	303.15	0.00195	9.1e-05
0.9	0.865	308.15	0.001708	8.1e-05
0.9	0.865	313.15	0.001459	7e-05
0.9	0.865	318.15	0.001288	6.2e-05
0.9	0.865	323.15	0.001115	5.5e-05
0.9	1.73	268.1	0.007802	0.000329
0.9	1.73	273.1	0.006321	0.000274
0.9	1.73	278.1	0.005118	0.00023
0.9	1.73	283.1	0.004196	0.00019
0.9	1.73	288.15	0.003425	0.000156
0.9	1.73	293.15	0.002875	0.000132
0.9	1.73	298.15	0.002569	0.000119
0.9	1.73	303.15	0.002094	9.8e-05
0.9	1.73	308.15	0.001809	8.5e-05
0.9	1.73	313.15	0.001533	7.3e-05
0.9	1.73	318.15	0.001369	6.6e-05
0.9	1.73	323.15	0.001203	5.8e-05
0.9	2.596	268.1	0.008355	0.000349
0.9	2.596	273.1	0.006895	0.000295
0.9	2.596	278.1	0.005751	0.000253
0.9	2.596	283.1	0.004695	0.000212
0.9	2.596	288.15	0.003832	0.000174
0.9	2.596	293.15	0.003207	0.000147
0.9	2.596	298.15	0.002744	0.000126
0.9	2.596	303.15	0.002352	0.000109
0.9	2.596	308.15	0.001985	9.3e-05
0.9	2.596	313.15	0.001669	7.9e-05
0.9	2.596	318.15	0.001472	7e-05
0.9	2.596	323.15	0.001296	6.3e-05
0.9	3.893	268.1	0.010453	0.000429
0.9	3.893	273.1	0.008678	0.000361
0.9	3.893	278.1	0.007206	0.000306
0.9	3.893	283.1	0.005853	0.000256
0.9	3.893	288.15	0.005086	0.000228
0.9	3.893	293.15	0.004261	0.000193
0.9	3.893	298.15	0.003707	0.000169
0.9	3.893	303.15	0.003207	0.000147
0.9	3.893	308.15	0.002852	0.000131
0.9	3.893	313.15	0.002506	0.000116
0.9	3.893	318.15	0.002315	0.000107
0.9	3.893	323.15	0.002048	9.6e-05
0.9	5.191	268.1	0.011283	0.000461
0.9	5.191	273.1	0.009824	0.000404
0.9	5.191	278.1	0.008554	0.000355
0.9	5.191	283.1	0.007283	0.000308
0.9	5.191	288.15	0.006125	0.000266
0.9	5.191	293.15	0.005115	0.000229
0.9	5.191	298.15	0.004387	0.000198
0.9	5.191	303.15	0.003864	0.000175
0.9	5.191	308.15	0.003372	0.000154
0.9	5.191	313.15	0.003075	0.000141
0.9	5.191	318.15	0.002879	0.000132
0.9	5.191	323.15	0.002492	0.000115
0.9	6.922	268.1	0.017824	0.00072
0.9	6.922	273.1	0.014459	0.000583
0.9	6.922	278.1	0.011724	0.000475
0.9	6.922	283.1	0.009516	0.00039
0.9	6.922	288.15	0.007844	0.000328
0.9	6.922	293.15	0.006608	0.000283
0.9	6.922	298.15	0.005629	0.000247
0.9	6.922	303.15	0.005221	0.000233
0.9	6.922	308.15	0.004252	0.000192
0.9	6.922	313.15	0.00375	0.00017
0.9	6.922	318.15	0.003429	0.000156
0.9	6.922	323.15	0.003154	0.000144
0.9	9.517	268.1	0.033686	0.001408
0.9	9.517	273.1	0.026232	0.001067
0.9	9.517	278.1	0.020525	0.000823
0.9	9.517	283.1	0.016479	0.000657
0.9	9.517	288.15	0.012406	0.000498
0.9	9.517	293.15	0.010551	0.000427
0.9	9.517	298.15	0.008894	0.000365
0.9	9.517	303.15	0.007648	0.00032
0.9	9.517	308.15	0.00664	0.000283
0.9	9.517	313.15	0.005833	0.000254
0.9	9.517	318.15	0.00528	0.000234
0.9	9.517	323.15	0.004782	0.000215
0.9	12.113	268.1	0.0604	0.002543
0.9	12.113	273.1	0.04602	0.001974
0.9	12.113	278.1	0.035471	0.001464
0.9	12.113	283.1	0.027642	0.001113
0.9	12.113	288.15	0.020615	0.000818
0.9	12.113	293.15	0.017491	0.000692
0.9	12.113	298.15	0.01456	0.000577
0.9	12.113	303.15	0.012697	0.000506
0.9	12.113	308.15	0.011231	0.00045
0.9	12.113	313.15	0.009266	0.000377
0.9	12.113	318.15	0.008272	0.000341
0.9	12.113	323.15	0.00747	0.000312
0.9	15.574	268.1	0.115642	0.014016
0.9	15.574	273.1	0.08845	0.007527
0.9	15.574	278.1	0.067556	0.003458
0.9	15.574	283.1	0.051851	0.00162
0.9	15.574	288.15	0.037369	0.001525
0.9	15.574	293.15	0.031211	0.001249
0.9	15.574	298.15	0.02539	0.001003
0.9	15.574	303.15	0.021732	0.000853
0.9	15.574	308.15	0.018914	0.00074
0.9	15.574	313.15	0.015286	0.0006
0.9	15.574	318.15	0.013943	0.000549
0.9	15.574	323.15	0.012183	0.000483
1	0	278.1	0.001519	7.2e-05
1	0	283.1	0.001308	6.3e-05
1	0	288.15	0.00114	5.6e-05
1	0	293.15	0.001005	5e-05
1	0	298.15	0.000894	4.5e-05
1	0	303.15	0.000799	4.1e-05
1	0	308.15	0.000723	3.8e-05
1	0	313.15	0.000655	3.5e-05
1	0	318.15	0.000599	3.2e-05
1	0	323.15	0.000548	3e-05
1	0.5	268.1	0.002273	0.000106
1	0.5	273.1	0.001944	9.1e-05
1	0.5	278.1	0.001663	7.9e-05
1	0.5	283.1	0.001424	6.8e-05
1	0.5	288.15	0.001243	6e-05
1	0.5	293.15	0.001087	5.3e-05
1	0.5	298.15	0.00097	4.8e-05
1	0.5	303.15	0.000866	4.4e-05
1	0.5	308.15	0.000782	4e-05
1	0.5	313.15	0.000722	3.8e-05
1	0.5	318.15	0.000668	3.5e-05
1	0.5	323.15	0.000625	3.3e-05
1	1	268.1	0.002554	0.000118
1	1	273.1	0.002107	9.9e-05
1	1	278.1	0.001784	8.4e-05
1	1	283.1	0.001518	7.2e-05
1	1	288.15	0.001346	6.5e-05
1	1	293.15	0.00116	5.7e-05
1	1	298.15	0.001052	5.2e-05
1	1	303.15	0.000929	4.6e-05
1	1	308.15	0.000834	4.2e-05
1	1	313.15	0.000774	4e-05
1	1	318.15	0.000714	3.7e-05
1	1	323.15	0.000665	3.5e-05
1	2	268.1	0.002831	0.000131
1	2	273.1	0.00237	0.00011
1	2	278.1	0.002	9.4e-05
1	2	283.1	0.001701	8.1e-05
1	2	288.15	0.001502	7.2e-05
1	2	293.15	0.001308	6.3e-05
1	2	298.15	0.001165	5.7e-05
1	2	303.15	0.001047	5.2e-05
1	2	308.15	0.000941	4.7e-05
1	2	313.15	0.000866	4.4e-05
1	2	318.15	0.000802	4.1e-05
1	2	323.15	0.000747	3.9e-05
1	3	268.1	0.003191	0.000146
1	3	273.1	0.002681	0.000124
1	3	278.1	0.002266	0.000105
1	3	283.1	0.001936	9.1e-05
1	3	288.15	0.001729	8.2e-05
1	3	293.15	0.001495	7.1e-05
1	3	298.15	0.001339	6.4e-05
1	3	303.15	0.001239	6e-05
1	3	308.15	0.001083	5.3e-05
1	3	313.15	0.000977	4.9e-05
1	3	318.15	0.00091	4.6e-05
1	3	323.15	0.000859	4.3e-05
1	4.5	268.1	0.003649	0.000167
1	4.5	273.1	0.003133	0.000144
1	4.5	278.1	0.00269	0.000124
1	4.5	283.1	0.002303	0.000107
1	4.5	288.15	0.002034	9.5e-05
1	4.5	293.15	0.001777	8.4e-05
1	4.5	298.15	0.001586	7.5e-05
1	4.5	303.15	0.001422	6.8e-05
1	4.5	308.15	0.00128	6.2e-05
1	4.5	313.15	0.001177	5.7e-05
1	4.5	318.15	0.001076	5.3e-05
1	4.5	323.15	0.001003	5e-05
1	6	268.1	0.004461	0.000202
1	6	273.1	0.003815	0.000174
1	6	278.1	0.003258	0.000149
1	6	283.1	0.002777	0.000128
1	6	288.15	0.002452	0.000114
1	6	293.15	0.002131	9.9e-05
1	6	298.15	0.001906	8.9e-05
1	6	303.15	0.001713	8.1e-05
1	6	308.15	0.001532	7.3e-05
1	6	313.15	0.001406	6.7e-05
1	6	318.15	0.001293	6.2e-05
1	6	323.15	0.001194	5.8e-05
1	8	268.1	0.006735	0.000289
1	8	273.1	0.005744	0.000253
1	8	278.1	0.004899	0.000221
1	8	283.1	0.00417	0.000189
1	8	288.15	0.003602	0.000164
1	8	293.15	0.003199	0.000146
1	8	298.15	0.0028	0.000129
1	8	303.15	0.002486	0.000115
1	8	308.15	0.002256	0.000105
1	8	313.15	0.002071	9.7e-05
1	8	318.15	0.001919	9e-05
1	8	323.15	0.001742	8.2e-05
1	11	268.1	0.010848	0.000444
1	11	273.1	0.009191	0.00038
1	11	278.1	0.007784	0.000327
1	11	283.1	0.006579	0.000282
1	11	288.15	0.00563	0.000248
1	11	293.15	0.004898	0.000221
1	11	298.15	0.004292	0.000194
1	11	303.15	0.003812	0.000173
1	11	308.15	0.003407	0.000155
1	11	313.15	0.003091	0.000141
1	11	318.15	0.002869	0.000132
1	11	323.15	0.00269	0.000124
1	14	268.1	0.018985	0.000768
1	14	273.1	0.015816	0.000636
1	14	278.1	0.013169	0.00053
1	14	283.1	0.01097	0.000445
1	14	288.15	0.009142	0.000376
1	14	293.15	0.007966	0.000332
1	14	298.15	0.006899	0.000293
1	14	303.15	0.006073	0.000263
1	14	308.15	0.005332	0.000236
1	14	313.15	0.004812	0.000216
1	14	318.15	0.004412	0.000199
1	14	323.15	0.004123	0.000186
1	17.8	268.1	0.02866	0.001182
1	17.8	273.1	0.024988	0.001014
1	17.8	278.1	0.021788	0.000874
1	17.8	283.1	0.019662	0.000784
1	17.8	288.15	0.017145	0.000681
1	17.8	293.15	0.014889	0.000591
1	17.8	298.15	0.01268	0.000506
1	17.8	303.15	0.011538	0.000462
1	17.8	308.15	0.010462	0.000422
1	17.8	313.15	0.009741	0.000395
1	17.8	318.15	0.008984	0.000367
1	17.8	323.15	0.008265	0.00034

System: ethanol + lithium chloride + water; phases: Liquid
Fixed: Pressure, kPa = 101
Property: Mass density, kg/m3 (Liquid); method: PYCNOM:UFactor:16
Solvent: Mole fraction of water	Molality, mol/kg of lithium chloride	Temperature, K	Mass density, kg/m3	uncertainty
0	0	268.1	811.1	3.8
0	0	273.1	806.8	3.6
0	0	278.1	802.6	3.4
0	0	283.1	798.4	3.1
0	0	288.15	794.2	2.9
0	0	293.15	789.9	2.7
0	0	298.15	785.7	2.9
0	0	303.15	781.4	3.1
0	0	308.15	777.1	3.2
0	0	313.15	772.8	3.4
0	0	318.15	767.9	3.6
0	0	323.15	763.4	3.7
0	0.196	268.1	810.9	3.8
0	0.196	273.1	805.1	3.6
0	0.196	278.1	803.2	3.4
0	0.196	283.1	796.1	3.1
0	0.196	288.15	789.7	2.9
0	0.196	293.15	786	2.7
0	0.196	298.15	782.4	2.9
0	0.196	303.15	776.5	3
0	0.196	308.15	773.8	3.2
0	0.196	313.15	773	3.4
0	0.196	318.15	772.2	3.6
0	0.196	323.15	768.7	3.8
0	0.391	268.1	817.9	3.8
0	0.391	273.1	810.6	3.6
0	0.391	278.1	810.3	3.4
0	0.391	283.1	800.9	3.2
0	0.391	288.15	795.9	2.9
0	0.391	293.15	791.9	2.8
0	0.391	298.15	788.3	2.9
0	0.391	303.15	782.5	3.1
0	0.391	308.15	779.7	3.2
0	0.391	313.15	779	3.4
0	0.391	318.15	778.6	3.6
0	0.391	323.15	774.3	3.8
0	0.782	268.1	828.4	3.9
0	0.782	273.1	821.3	3.6
0	0.782	278.1	821.5	3.5
0	0.782	283.1	812.2	3.2
0	0.782	288.15	807.5	3
0	0.782	293.15	803.3	2.8
0	0.782	298.15	799.4	3
0	0.782	303.15	794.7	3.1
0	0.782	308.15	791.2	3.3
0	0.782	313.15	790.7	3.5
0	0.782	318.15	790.9	3.7
0	0.782	323.15	786.1	3.8
0	1.173	268.1	838.1	3.9
0	1.173	273.1	832.5	3.7
0	1.173	278.1	834.1	3.5
0	1.173	283.1	823.4	3.3
0	1.173	288.15	817.5	3.1
0	1.173	293.15	813.6	2.9
0	1.173	298.15	810.3	3
0	1.173	303.15	804.8	3.2
0	1.173	308.15	802.3	3.4
0	1.173	313.15	801.9	3.5
0	1.173	318.15	801.8	3.7
0	1.173	323.15	796.6	3.9
0	1.76	268.1	854.5	4
0	1.76	273.1	847	3.8
0	1.76	278.1	845.5	3.6
0	1.76	283.1	837.4	3.3
0	1.76	288.15	831.6	3.1
0	1.76	293.15	828.8	2.9
0	1.76	298.15	823.8	3.1
0	1.76	303.15	819.5	3.3
0	1.76	308.15	816.6	3.4
0	1.76	313.15	815.8	3.6
0	1.76	318.15	816.8	3.8
0	1.76	323.15	811	4
0	2.347	268.1	869.4	4.1
0	2.347	273.1	863.1	3.8
0	2.347	278.1	864.5	3.7
0	2.347	283.1	854.2	3.4
0	2.347	288.15	849.1	3.2
0	2.347	293.15	845.4	3
0	2.347	298.15	842.3	3.2
0	2.347	303.15	837.1	3.4
0	2.347	308.15	835.6	3.5
0	2.347	313.15	835.2	3.7
0	2.347	318.15	834.9	3.9
0	2.347	323.15	830.4	4.1
0	3.129	268.1	887.7	4.2
0	3.129	273.1	882.4	3.9
0	3.129	278.1	883.6	3.8
0	3.129	283.1	875.7	3.5
0	3.129	288.15	868.4	3.3
0	3.129	293.15	864.7	3.1
0	3.129	298.15	861.9	3.3
0	3.129	303.15	856.7	3.5
0	3.129	308.15	854.7	3.6
0	3.129	313.15	854.7	3.8
0	3.129	318.15	853.9	4
0	3.129	323.15	851.3	4.2
0	3.911	268.1	907.8	4.3
0	3.911	273.1	901.1	4
0	3.911	278.1	902.1	3.9
0	3.911	283.1	891.8	3.6
0	3.911	288.15	886.9	3.4
0	3.911	293.15	883.4	3.2
0	3.911	298.15	880.5	3.4
0	3.911	303.15	875.4	3.6
0	3.911	308.15	873.6	3.7
0	3.911	313.15	873.7	3.9
0	3.911	318.15	874	4.1
0	3.911	323.15	869.4	4.3
0.1	0	268.1	824.9	3.8
0.1	0	273.1	820.3	3.6
0.1	0	278.1	815.9	3.4
0.1	0	283.1	811.4	3.2
0.1	0	288.15	806.9	3
0.1	0	293.15	802.1	2.8
0.1	0	298.15	797.7	3
0.1	0	303.15	793	3.1
0.1	0	308.15	788.2	3.3
0.1	0	313.15	783.6	3.5
0.1	0	318.15	779	3.6
0.1	0	323.15	774.3	3.8
0.1	0.208	268.1	823	3.8
0.1	0.208	273.1	817.2	3.6
0.1	0.208	278.1	812.9	3.4
0.1	0.208	283.1	808.4	3.2
0.1	0.208	288.15	803.5	3
0.1	0.208	293.15	798.8	2.8
0.1	0.208	298.15	794.1	3
0.1	0.208	303.15	789.1	3.1
0.1	0.208	308.15	784	3.3
0.1	0.208	313.15	779.5	3.4
0.1	0.208	318.15	775	3.6
0.1	0.208	323.15	770.1	3.8
0.1	0.416	268.1	827	3.9
0.1	0.416	273.1	822.6	3.6
0.1	0.416	278.1	818.5	3.4
0.1	0.416	283.1	814.5	3.2
0.1	0.416	288.15	809.5	3
0.1	0.416	293.15	804.8	2.8
0.1	0.416	298.15	800.2	3
0.1	0.416	303.15	795.4	3.1
0.1	0.416	308.15	790.3	3.3
0.1	0.416	313.15	786	3.5
0.1	0.416	318.15	781.7	3.6
0.1	0.416	323.15	778.5	3.8
0.1	0.833	268.1	838.7	3.9
0.1	0.833	273.1	834.1	3.7
0.1	0.833	278.1	830.4	3.5
0.1	0.833	283.1	825.8	3.3
0.1	0.833	288.15	821.3	3.1
0.1	0.833	293.15	816.5	2.9
0.1	0.833	298.15	811.8	3
0.1	0.833	303.15	807	3.2
0.1	0.833	308.15	802.1	3.4
0.1	0.833	313.15	798.1	3.5
0.1	0.833	318.15	793.7	3.7
0.1	0.833	323.15	789.5	3.9
0.1	1.249	268.1	850.6	4
0.1	1.249	273.1	845.1	3.8
0.1	1.249	278.1	840.9	3.6
0.1	1.249	283.1	837.3	3.3
0.1	1.249	288.15	832.2	3.1
0.1	1.249	293.15	827.6	2.9
0.1	1.249	298.15	823.2	3.1
0.1	1.249	303.15	818.7	3.3
0.1	1.249	308.15	813.9	3.4
0.1	1.249	313.15	810.1	3.6
0.1	1.249	318.15	806	3.8
0.1	1.249	323.15	802.2	3.9
0.1	1.874	268.1	863.8	4
0.1	1.874	273.1	857.6	3.8
0.1	1.874	278.1	854	3.6
0.1	1.874	283.1	849.4	3.4
0.1	1.874	288.15	844.3	3.2
0.1	1.874	293.15	839.8	3
0.1	1.874	298.15	834.9	3.2
0.1	1.874	303.15	830.4	3.3
0.1	1.874	308.15	826	3.5
0.1	1.874	313.15	822	3.7
0.1	1.874	318.15	819.5	3.8
0.1	1.874	323.15	816	4
0.1	2.499	268.1	880.2	4.1
0.1	2.499	273.1	875.4	3.9
0.1	2.499	278.1	872.2	3.7
0.1	2.499	283.1	868.5	3.5
0.1	2.499	288.15	864.1	3.3
0.1	2.499	293.15	859.5	3.1
0.1	2.499	298.15	855.8	3.3
0.1	2.499	303.15	851.4	3.4
0.1	2.499	308.15	847	3.6
0.1	2.499	313.15	843.3	3.8
0.1	2.499	318.15	839.4	3.9
0.1	2.499	323.15	835.5	4.1
0.1	3.332	268.1	898.3	4.2
0.1	3.332	273.1	892.2	4
0.1	3.332	278.1	892.3	3.8
0.1	3.332	283.1	888.3	3.6
0.1	3.332	288.15	884.2	3.4
0.1	3.332	293.15	879.7	3.2
0.1	3.332	298.15	875.7	3.4
0.1	3.332	303.15	871.5	3.5
0.1	3.332	308.15	867.1	3.7
0.1	3.332	313.15	863.5	3.9
0.1	3.332	318.15	859.7	4
0.1	3.332	323.15	855.8	4.2
0.1	4.581	268.1	917.5	4.3
0.1	4.581	273.1	911.4	4.1
0.1	4.581	278.1	907.9	3.9
0.1	4.581	283.1	903.4	3.7
0.1	4.581	288.15	899.4	3.5
0.1	4.581	293.15	895.2	3.3
0.1	4.581	298.15	891.5	3.4
0.1	4.581	303.15	887.2	3.6
0.1	4.581	308.15	882.8	3.8
0.1	4.581	313.15	879.4	3.9
0.1	4.581	318.15	875.9	4.1
0.1	4.581	323.15	872.4	4.3
0.2	0	268.1	838.2	3.9
0.2	0	273.1	833.7	3.7
0.2	0	278.1	829	3.5
0.2	0	283.1	824.7	3.3
0.2	0	288.15	820.1	3.1
0.2	0	293.15	815.6	2.9
0.2	0	298.15	811	3
0.2	0	303.15	806	3.2
0.2	0	308.15	801.4	3.4
0.2	0	313.15	796.8	3.5
0.2	0	318.15	792.2	3.7
0.2	0	323.15	787.5	3.8
0.2	0.223	268.1	836.9	3.9
0.2	0.223	273.1	832	3.7
0.2	0.223	278.1	827.7	3.5
0.2	0.223	283.1	822.9	3.3
0.2	0.223	288.15	817.4	3.1
0.2	0.223	293.15	812.8	2.9
0.2	0.223	298.15	807.2	3
0.2	0.223	303.15	801.9	3.2
0.2	0.223	308.15	797.3	3.3
0.2	0.223	313.15	790.3	3.5
0.2	0.223	318.15	787.3	3.7
0.2	0.223	323.15	784.2	3.8
0.2	0.445	268.1	843.5	3.9
0.2	0.445	273.1	838.1	3.7
0.2	0.445	278.1	835	3.5
0.2	0.445	283.1	827.8	3.3
0.2	0.445	288.15	822.7	3.1
0.2	0.445	293.15	818.8	2.9
0.2	0.445	298.15	814	3.1
0.2	0.445	303.15	808.4	3.2
0.2	0.445	308.15	804.3	3.4
0.2	0.445	313.15	797.6	3.5
0.2	0.445	318.15	794.9	3.7
0.2	0.445	323.15	791.2	3.9
0.2	0.891	268.1	854.4	4
0.2	0.891	273.1	850.4	3.8
0.2	0.891	278.1	846.2	3.6
0.2	0.891	283.1	840.4	3.4
0.2	0.891	288.15	835	3.1
0.2	0.891	293.15	830.8	3
0.2	0.891	298.15	826	3.1
0.2	0.891	303.15	821	3.3
0.2	0.891	308.15	816.6	3.4
0.2	0.891	313.15	810	3.6
0.2	0.891	318.15	807.4	3.8
0.2	0.891	323.15	804	3.9
0.2	1.336	268.1	864.7	4
0.2	1.336	273.1	860.5	3.8
0.2	1.336	278.1	856.8	3.6
0.2	1.336	283.1	851.3	3.4
0.2	1.336	288.15	846.1	3.2
0.2	1.336	293.15	842.2	3
0.2	1.336	298.15	837.3	3.2
0.2	1.336	303.15	832.4	3.3
0.2	1.336	308.15	828.2	3.5
0.2	1.336	313.15	822.2	3.7
0.2	1.336	318.15	820	3.8
0.2	1.336	323.15	817.7	4
0.2	2.004	268.1	881.2	4.1
0.2	2.004	273.1	877	3.9
0.2	2.004	278.1	873.3	3.7
0.2	2.004	283.1	868.1	3.5
0.2	2.004	288.15	862.8	3.3
0.2	2.004	293.15	859.1	3.1
0.2	2.004	298.15	854.5	3.3
0.2	2.004	303.15	849.9	3.4
0.2	2.004	308.15	845.9	3.6
0.2	2.004	313.15	839.8	3.7
0.2	2.004	318.15	837.5	3.9
0.2	2.004	323.15	834.3	4.1
0.2	2.672	268.1	896.5	4.2
0.2	2.672	273.1	892.4	4
0.2	2.672	278.1	889	3.8
0.2	2.672	283.1	884	3.6
0.2	2.672	288.15	878.9	3.4
0.2	2.672	293.15	875.2	3.2
0.2	2.672	298.15	870.7	3.3
0.2	2.672	303.15	866	3.5
0.2	2.672	308.15	862	3.7
0.2	2.672	313.15	855.8	3.8
0.2	2.672	318.15	853.4	4
0.2	2.672	323.15	850.5	4.2
0.2	3.563	268.1	915.9	4.3
0.2	3.563	273.1	912.4	4.1
0.2	3.563	278.1	909.5	3.9
0.2	3.563	283.1	904.5	3.7
0.2	3.563	288.15	899.4	3.5
0.2	3.563	293.15	895.9	3.3
0.2	3.563	298.15	891.5	3.4
0.2	3.563	303.15	887	3.6
0.2	3.563	308.15	883.2	3.8
0.2	3.563	313.15	877.1	3.9
0.2	3.563	318.15	874.4	4.1
0.2	3.563	323.15	871.9	4.3
0.2	4.899	268.1	939.4	4.4
0.2	4.899	273.1	933.5	4.2
0.2	4.899	278.1	930.4	4
0.2	4.899	283.1	925.5	3.8
0.2	4.899	288.15	921.8	3.6
0.2	4.899	293.15	917	3.4
0.2	4.899	298.15	912.9	3.6
0.2	4.899	303.15	908.6	3.7
0.2	4.899	308.15	906.9	3.9
0.2	4.899	313.15	897.7	4
0.2	4.899	318.15	895.2	4.2
0.2	4.899	323.15	895.1	4.4
0.2	5.789	268.1	953.4	4.5
0.2	5.789	273.1	949.7	4.3
0.2	5.789	278.1	946.3	4.1
0.2	5.789	283.1	941.4	3.9
0.2	5.789	288.15	936.7	3.7
0.2	5.789	293.15	933.2	3.5
0.2	5.789	298.15	928.7	3.6
0.2	5.789	303.15	924.2	3.8
0.2	5.789	308.15	920.7	4
0.2	5.789	313.15	914.7	4.1
0.2	5.789	318.15	912.9	4.3
0.2	5.789	323.15	910.4	4.5
0.3	0	268.1	852.2	4
0.3	0	273.1	847.7	3.8
0.3	0	278.1	842.9	3.6
0.3	0	283.1	838.5	3.4
0.3	0	288.15	833.9	3.1
0.3	0	293.15	829.4	2.9
0.3	0	298.15	825.1	3.1
0.3	0	303.15	820.6	3.3
0.3	0	308.15	816	3.4
0.3	0	313.15	811.1	3.6
0.3	0	318.15	806.6	3.8
0.3	0	323.15	801.9	3.9
0.3	0.239	268.1	849.5	4
0.3	0.239	273.1	844.7	3.8
0.3	0.239	278.1	840.3	3.5
0.3	0.239	283.1	835.8	3.3
0.3	0.239	288.15	831.1	3.1
0.3	0.239	293.15	827.2	2.9
0.3	0.239	298.15	822.8	3.1
0.3	0.239	303.15	817.5	3.3
0.3	0.239	308.15	812.8	3.4
0.3	0.239	313.15	807.4	3.6
0.3	0.239	318.15	802.7	3.7
0.3	0.239	323.15	797.8	3.9
0.3	0.479	268.1	855.9	4
0.3	0.479	273.1	850.9	3.8
0.3	0.479	278.1	846.5	3.6
0.3	0.479	283.1	841.9	3.4
0.3	0.479	288.15	836.8	3.2
0.3	0.479	293.15	833.2	3
0.3	0.479	298.15	828.6	3.1
0.3	0.479	303.15	823.3	3.3
0.3	0.479	308.15	818.7	3.4
0.3	0.479	313.15	813.8	3.6
0.3	0.479	318.15	809.1	3.8
0.3	0.479	323.15	803.8	3.9
0.3	0.957	268.1	867.3	4.1
0.3	0.957	273.1	862.4	3.8
0.3	0.957	278.1	858.2	3.6
0.3	0.957	283.1	853.9	3.4
0.3	0.957	288.15	849.1	3.2
0.3	0.957	293.15	845.4	3
0.3	0.957	298.15	840.9	3.2
0.3	0.957	303.15	835.9	3.4
0.3	0.957	308.15	831.4	3.5
0.3	0.957	313.15	826.3	3.7
0.3	0.957	318.15	821.9	3.8
0.3	0.957	323.15	817.5	4
0.3	1.436	268.1	878.7	4.1
0.3	1.436	273.1	874.3	3.9
0.3	1.436	278.1	870	3.7
0.3	1.436	283.1	866.1	3.5
0.3	1.436	288.15	861.3	3.3
0.3	1.436	293.15	857.5	3.1
0.3	1.436	298.15	853.2	3.3
0.3	1.436	303.15	848.6	3.4
0.3	1.436	308.15	844.4	3.6
0.3	1.436	313.15	839.6	3.7
0.3	1.436	318.15	835.5	3.9
0.3	1.436	323.15	831.7	4.1
0.3	2.153	268.1	896.3	4.2
0.3	2.153	273.1	891.2	4
0.3	2.153	278.1	887.3	3.8
0.3	2.153	283.1	883.3	3.6
0.3	2.153	288.15	878.7	3.4
0.3	2.153	293.15	875.3	3.2
0.3	2.153	298.15	870.9	3.3
0.3	2.153	303.15	866.2	3.5
0.3	2.153	308.15	862.1	3.7
0.3	2.153	313.15	857.3	3.8
0.3	2.153	318.15	852.7	4
0.3	2.153	323.15	848.7	4.2
0.3	2.871	268.1	911.6	4.3
0.3	2.871	273.1	907.4	4.1
0.3	2.871	278.1	903.4	3.9
0.3	2.871	283.1	900	3.7
0.3	2.871	288.15	895.6	3.5
0.3	2.871	293.15	892.1	3.3
0.3	2.871	298.15	888.1	3.4
0.3	2.871	303.15	883.6	3.6
0.3	2.871	308.15	879.6	3.8
0.3	2.871	313.15	875	3.9
0.3	2.871	318.15	870.9	4.1
0.3	2.871	323.15	866.5	4.3
0.3	3.828	268.1	927.6	4.4
0.3	3.828	273.1	923.4	4.2
0.3	3.828	278.1	919.7	4
0.3	3.828	283.1	916	3.7
0.3	3.828	288.15	911.7	3.5
0.3	3.828	293.15	908	3.3
0.3	3.828	298.15	903.8	3.5
0.3	3.828	303.15	899.9	3.7
0.3	3.828	308.15	896.7	3.8
0.3	3.828	313.15	891.5	4
0.3	3.828	318.15	887.5	4.2
0.3	3.828	323.15	883.6	4.3
0.3	5.264	268.1	953.6	4.5
0.3	5.264	273.1	949.2	4.3
0.3	5.264	278.1	945.2	4.1
0.3	5.264	283.1	941.6	3.9
0.3	5.264	288.15	937.4	3.7
0.3	5.264	293.15	934.3	3.5
0.3	5.264	298.15	930.5	3.6
0.3	5.264	303.15	926.3	3.8
0.3	5.264	308.15	922.6	4
0.3	5.264	313.15	918.6	4.1
0.3	5.264	318.15	915.2	4.3
0.3	5.264	323.15	911.4	4.5
0.3	6.46	268.1	975.7	4.6
0.3	6.46	273.1	971.3	4.4
0.3	6.46	278.1	967.2	4.2
0.3	6.46	283.1	963.4	4
0.3	6.46	288.15	959.1	3.8
0.3	6.46	293.15	956	3.6
0.3	6.46	298.15	952.6	3.8
0.3	6.46	303.15	948.6	3.9
0.3	6.46	308.15	944.9	4.1
0.3	6.46	313.15	940.8	4.3
0.3	6.46	318.15	937.3	4.4
0.3	6.46	323.15	933.2	4.6
0.4	0	268.1	867.7	4.1
0.4	0	273.1	863.4	3.9
0.4	0	278.1	858.8	3.6
0.4	0	283.1	854.1	3.4
0.4	0	288.15	849.5	3.2
0.4	0	293.15	845	3
0.4	0	298.15	840.6	3.2
0.4	0	303.15	836.1	3.4
0.4	0	308.15	831.4	3.5
0.4	0	313.15	826.9	3.7
0.4	0	318.15	822.4	3.8
0.4	0	323.15	817.7	4
0.4	0.259	268.1	866.7	4.1
0.4	0.259	273.1	862	3.8
0.4	0.259	278.1	857.6	3.6
0.4	0.259	283.1	851	3.4
0.4	0.259	288.15	847.4	3.2
0.4	0.259	293.15	842.8	3
0.4	0.259	298.15	838.5	3.2
0.4	0.259	303.15	834	3.3
0.4	0.259	308.15	828.7	3.5
0.4	0.259	313.15	824.2	3.7
0.4	0.259	318.15	819.7	3.8
0.4	0.259	323.15	813.9	4
0.4	0.517	268.1	872.9	4.1
0.4	0.517	273.1	868.7	3.9
0.4	0.517	278.1	864.1	3.7
0.4	0.517	283.1	857.8	3.5
0.4	0.517	288.15	854.5	3.2
0.4	0.517	293.15	849.7	3
0.4	0.517	298.15	845.7	3.2
0.4	0.517	303.15	840.9	3.4
0.4	0.517	308.15	835.6	3.5
0.4	0.517	313.15	830.9	3.7
0.4	0.517	318.15	826.4	3.9
0.4	0.517	323.15	821.3	4
0.4	1.034	268.1	885.8	4.2
0.4	1.034	273.1	881.1	3.9
0.4	1.034	278.1	876.8	3.7
0.4	1.034	283.1	870.4	3.5
0.4	1.034	288.15	867.2	3.3
0.4	1.034	293.15	862.5	3.1
0.4	1.034	298.15	858.5	3.3
0.4	1.034	303.15	854.1	3.4
0.4	1.034	308.15	848.9	3.6
0.4	1.034	313.15	844.6	3.8
0.4	1.034	318.15	840.6	3.9
0.4	1.034	323.15	835.7	4.1
0.4	1.551	268.1	897.7	4.2
0.4	1.551	273.1	893.4	4
0.4	1.551	278.1	889	3.8
0.4	1.551	283.1	882.9	3.6
0.4	1.551	288.15	880	3.4
0.4	1.551	293.15	875.5	3.2
0.4	1.551	298.15	870.8	3.3
0.4	1.551	303.15	867.6	3.5
0.4	1.551	308.15	862.7	3.7
0.4	1.551	313.15	858.9	3.8
0.4	1.551	318.15	854.7	4
0.4	1.551	323.15	849.6	4.2
0.4	2.327	268.1	910.6	4.3
0.4	2.327	273.1	905.2	4.1
0.4	2.327	278.1	901.3	3.9
0.4	2.327	283.1	892.9	3.6
0.4	2.327	288.15	889.4	3.4
0.4	2.327	293.15	885.8	3.2
0.4	2.327	298.15	881.4	3.4
0.4	2.327	303.15	877.2	3.6
0.4	2.327	308.15	873.5	3.7
0.4	2.327	313.15	868.2	3.9
0.4	2.327	318.15	863.6	4
0.4	2.327	323.15	858	4.2
0.4	3.102	268.1	924.2	4.3
0.4	3.102	273.1	920.2	4.1
0.4	3.102	278.1	916.5	3.9
0.4	3.102	283.1	910.1	3.7
0.4	3.102	288.15	907.3	3.5
0.4	3.102	293.15	902.9	3.3
0.4	3.102	298.15	899.3	3.5
0.4	3.102	303.15	895.2	3.7
0.4	3.102	308.15	890.6	3.8
0.4	3.102	313.15	886.6	4
0.4	3.102	318.15	882.6	4.1
0.4	3.102	323.15	877.8	4.3
0.4	4.136	268.1	946.2	4.5
0.4	4.136	273.1	941.8	4.3
0.4	4.136	278.1	937.5	4
0.4	4.136	283.1	931.3	3.8
0.4	4.136	288.15	928.8	3.6
0.4	4.136	293.15	924.7	3.4
0.4	4.136	298.15	921.1	3.6
0.4	4.136	303.15	917.1	3.8
0.4	4.136	308.15	912.4	3.9
0.4	4.136	313.15	908.4	4.1
0.4	4.136	318.15	904.7	4.3
0.4	4.136	323.15	900	4.4
0.4	5.687	268.1	975.3	4.6
0.4	5.687	273.1	971	4.4
0.4	5.687	278.1	967.2	4.2
0.4	5.687	283.1	961.3	4
0.4	5.687	288.15	958.7	3.8
0.4	5.687	293.15	954.7	3.6
0.4	5.687	298.15	951.5	3.8
0.4	5.687	303.15	948.1	3.9
0.4	5.687	308.15	943.5	4.1
0.4	5.687	313.15	939.9	4.3
0.4	5.687	318.15	936.7	4.4
0.4	5.687	323.15	932.1	4.6
0.4	7.238	268.1	999.8	4.7
0.4	7.238	273.1	995.5	4.5
0.4	7.238	278.1	991.7	4.3
0.4	7.238	283.1	986.2	4.1
0.4	7.238	288.15	984.2	3.9
0.4	7.238	293.15	980.4	3.7
0.4	7.238	298.15	977.9	3.9
0.4	7.238	303.15	974.5	4.1
0.4	7.238	308.15	970.7	4.2
0.4	7.238	313.15	967.5	4.4
0.4	7.238	318.15	964.3	4.6
0.4	7.238	323.15	960.7	4.7
0.5	0	268.1	886.6	4.2
0.5	0	273.1	882.1	3.9
0.5	0	278.1	877.7	3.7
0.5	0	283.1	872.8	3.5
0.5	0	288.15	868.5	3.3
0.5	0	293.15	863.8	3.1
0.5	0	298.15	859.2	3.3
0.5	0	303.15	854.8	3.4
0.5	0	308.15	850.1	3.6
0.5	0	313.15	845.2	3.8
0.5	0	318.15	840.5	3.9
0.5	0	323.15	835.8	4.1
0.5	0.281	268.1	888	4.2
0.5	0.281	273.1	883	4
0.5	0.281	278.1	878.9	3.7
0.5	0.281	283.1	872.2	3.5
0.5	0.281	288.15	865.7	3.3
0.5	0.281	293.15	862.9	3.1
0.5	0.281	298.15	857.1	3.3
0.5	0.281	303.15	854.3	3.4
0.5	0.281	308.15	849.3	3.6
0.5	0.281	313.15	843.5	3.8
0.5	0.281	318.15	838.6	3.9
0.5	0.281	323.15	833.7	4.1
0.5	0.562	268.1	894.6	4.2
0.5	0.562	273.1	890	4
0.5	0.562	278.1	886.7	3.8
0.5	0.562	283.1	880.4	3.6
0.5	0.562	288.15	874.2	3.3
0.5	0.562	293.15	871.6	3.2
0.5	0.562	298.15	866.3	3.3
0.5	0.562	303.15	864.2	3.5
0.5	0.562	308.15	859.2	3.7
0.5	0.562	313.15	853.9	3.8
0.5	0.562	318.15	849	4
0.5	0.562	323.15	844.3	4.1
0.5	1.125	268.1	907.3	4.3
0.5	1.125	273.1	903.3	4.1
0.5	1.125	278.1	897.4	3.8
0.5	1.125	283.1	892.1	3.6
0.5	1.125	288.15	886.3	3.4
0.5	1.125	293.15	883.5	3.2
0.5	1.125	298.15	877.8	3.4
0.5	1.125	303.15	875.3	3.6
0.5	1.125	308.15	870.6	3.7
0.5	1.125	313.15	865.2	3.9
0.5	1.125	318.15	859.4	4
0.5	1.125	323.15	854.9	4.2
0.5	1.687	268.1	916.9	4.3
0.5	1.687	273.1	913.6	4.1
0.5	1.687	278.1	909.2	3.9
0.5	1.687	283.1	900.8	3.7
0.5	1.687	288.15	897.3	3.5
0.5	1.687	293.15	893.3	3.3
0.5	1.687	298.15	887.6	3.4
0.5	1.687	303.15	884.5	3.6
0.5	1.687	308.15	879.8	3.8
0.5	1.687	313.15	874.5	3.9
0.5	1.687	318.15	866.8	4.1
0.5	1.687	323.15	862.3	4.2
0.5	2.53	268.1	930.7	4.4
0.5	2.53	273.1	926.1	4.2
0.5	2.53	278.1	922	4
0.5	2.53	283.1	915.5	3.7
0.5	2.53	288.15	909.1	3.5
0.5	2.53	293.15	906.7	3.3
0.5	2.53	298.15	901.2	3.5
0.5	2.53	303.15	898.8	3.7
0.5	2.53	308.15	894.1	3.8
0.5	2.53	313.15	888.8	4
0.5	2.53	318.15	883.9	4.2
0.5	2.53	323.15	879.4	4.3
0.5	3.374	268.1	948.9	4.5
0.5	3.374	273.1	944.2	4.3
0.5	3.374	278.1	940.6	4.1
0.5	3.374	283.1	934.7	3.8
0.5	3.374	288.15	928.8	3.6
0.5	3.374	293.15	925.9	3.4
0.5	3.374	298.15	920.6	3.6
0.5	3.374	303.15	918.5	3.8
0.5	3.374	308.15	914.1	3.9
0.5	3.374	313.15	909.1	4.1
0.5	3.374	318.15	904.5	4.3
0.5	3.374	323.15	900.4	4.4
0.5	4.498	268.1	970.6	4.6
0.5	4.498	273.1	966.3	4.4
0.5	4.498	278.1	962.8	4.2
0.5	4.498	283.1	956.8	4
0.5	4.498	288.15	950.7	3.7
0.5	4.498	293.15	948.8	3.6
0.5	4.498	298.15	943.7	3.7
0.5	4.498	303.15	941.8	3.9
0.5	4.498	308.15	937.6	4.1
0.5	4.498	313.15	932.5	4.2
0.5	4.498	318.15	928.2	4.4
0.5	4.498	323.15	924.1	4.5
0.5	6.185	268.1	997.7	4.7
0.5	6.185	273.1	993.1	4.5
0.5	6.185	278.1	989.3	4.3
0.5	6.185	283.1	983.7	4.1
0.5	6.185	288.15	977.8	3.9
0.5	6.185	293.15	975.8	3.7
0.5	6.185	298.15	970.5	3.9
0.5	6.185	303.15	968.8	4
0.5	6.185	308.15	964.7	4.2
0.5	6.185	313.15	960.2	4.4
0.5	6.185	318.15	956.2	4.5
0.5	6.185	323.15	952.8	4.7
0.5	7.872	268.1	1024.8	4.9
0.5	7.872	273.1	1020.6	4.7
0.5	7.872	278.1	1017	4.5
0.5	7.872	283.1	1011.3	4.2
0.5	7.872	288.15	1005.6	4
0.5	7.872	293.15	1003.6	3.8
0.5	7.872	298.15	998.8	4
0.5	7.872	303.15	997	4.2
0.5	7.872	308.15	992.9	4.3
0.5	7.872	313.15	988.2	4.5
0.5	7.872	318.15	984.2	4.7
0.5	7.872	323.15	980.7	4.8
0.5	8.547	268.1	1037.6	4.9
0.5	8.547	273.1	1033.3	4.7
0.5	8.547	278.1	1029.7	4.5
0.5	8.547	283.1	1023.9	4.3
0.5	8.547	288.15	1018.1	4.1
0.5	8.547	293.15	1016.2	3.9
0.5	8.547	298.15	1011.4	4.1
0.5	8.547	303.15	1009.7	4.2
0.5	8.547	308.15	1006.2	4.4
0.5	8.547	313.15	1001.6	4.6
0.5	8.547	318.15	997.3	4.7
0.5	8.547	323.15	994.3	4.9
0.6	0	268.1	908.1	4.3
0.6	0	273.1	903.5	4.1
0.6	0	278.1	899.3	3.8
0.6	0	283.1	894.6	3.6
0.6	0	288.15	889.6	3.4
0.6	0	293.15	885.1	3.2
0.6	0	298.15	880.6	3.4
0.6	0	303.15	876.1	3.6
0.6	0	308.15	871.4	3.7
0.6	0	313.15	866.8	3.9
0.6	0	318.15	862.1	4
0.6	0	323.15	857.3	4.2
0.6	0.308	268.1	911.2	4.3
0.6	0.308	273.1	906.5	4.1
0.6	0.308	278.1	902	3.9
0.6	0.308	283.1	894.8	3.6
0.6	0.308	288.15	888.9	3.4
0.6	0.308	293.15	884.3	3.2
0.6	0.308	298.15	879.2	3.4
0.6	0.308	303.15	874.4	3.5
0.6	0.308	308.15	872.9	3.7
0.6	0.308	313.15	871.2	3.9
0.6	0.308	318.15	870.5	4.1
0.6	0.308	323.15	869.5	4.3
0.6	0.616	268.1	918.4	4.3
0.6	0.616	273.1	913.7	4.1
0.6	0.616	278.1	909.2	3.9
0.6	0.616	283.1	902.2	3.7
0.6	0.616	288.15	896.5	3.5
0.6	0.616	293.15	892.1	3.3
0.6	0.616	298.15	887.2	3.4
0.6	0.616	303.15	882.5	3.6
0.6	0.616	308.15	880.5	3.8
0.6	0.616	313.15	879.1	3.9
0.6	0.616	318.15	878.2	4.1
0.6	0.616	323.15	877.1	4.3
0.6	1.232	268.1	930.3	4.4
0.6	1.232	273.1	925.2	4.2
0.6	1.232	278.1	920.6	4
0.6	1.232	283.1	913.1	3.7
0.6	1.232	288.15	907.8	3.5
0.6	1.232	293.15	904.7	3.3
0.6	1.232	298.15	899.5	3.5
0.6	1.232	303.15	894.4	3.6
0.6	1.232	308.15	892.4	3.8
0.6	1.232	313.15	895.3	4
0.6	1.232	318.15	891.4	4.2
0.6	1.232	323.15	888.4	4.4
0.6	1.849	268.1	939	4.4
0.6	1.849	273.1	934.1	4.2
0.6	1.849	278.1	929.7	4
0.6	1.849	283.1	922.5	3.8
0.6	1.849	288.15	916.8	3.6
0.6	1.849	293.15	912.7	3.4
0.6	1.849	298.15	908	3.5
0.6	1.849	303.15	903.4	3.7
0.6	1.849	308.15	902	3.9
0.6	1.849	313.15	900.7	4.1
0.6	1.849	318.15	899.9	4.2
0.6	1.849	323.15	899.5	4.4
0.6	2.773	268.1	957.1	4.5
0.6	2.773	273.1	952.9	4.3
0.6	2.773	278.1	948.8	4.1
0.6	2.773	283.1	942	3.9
0.6	2.773	288.15	936.6	3.7
0.6	2.773	293.15	932.6	3.5
0.6	2.773	298.15	928.1	3.6
0.6	2.773	303.15	923.8	3.8
0.6	2.773	308.15	922.5	4
0.6	2.773	313.15	921.5	4.2
0.6	2.773	318.15	920.6	4.3
0.6	2.773	323.15	920.2	4.5
0.6	3.697	268.1	976.6	4.6
0.6	3.697	273.1	972.6	4.4
0.6	3.697	278.1	968.4	4.2
0.6	3.697	283.1	962.6	4
0.6	3.697	288.15	957.6	3.8
0.6	3.697	293.15	954.4	3.6
0.6	3.697	298.15	949.8	3.7
0.6	3.697	303.15	944.8	3.9
0.6	3.697	308.15	943.6	4.1
0.6	3.697	313.15	942.6	4.3
0.6	3.697	318.15	942.6	4.5
0.6	3.697	323.15	942.4	4.6
0.6	4.93	268.1	999.5	4.7
0.6	4.93	273.1	995.4	4.5
0.6	4.93	278.1	991.4	4.3
0.6	4.93	283.1	984.9	4.1
0.6	4.93	288.15	979.9	3.9
0.6	4.93	293.15	976.2	3.7
0.6	4.93	298.15	972.2	3.9
0.6	4.93	303.15	968.2	4
0.6	4.93	308.15	967.1	4.2
0.6	4.93	313.15	966.9	4.4
0.6	4.93	318.15	967	4.6
0.6	4.93	323.15	967.2	4.8
0.6	6.778	268.1	1031.7	4.9
0.6	6.778	273.1	1027.3	4.7
0.6	6.778	278.1	1023.6	4.5
0.6	6.778	283.1	1016.9	4.3
0.6	6.778	288.15	1012	4.1
0.6	6.778	293.15	1008.5	3.9
0.6	6.778	298.15	1004.3	4
0.6	6.778	303.15	1000.9	4.2
0.6	6.778	308.15	1001	4.4
0.6	6.778	313.15	1000.6	4.6
0.6	6.778	318.15	1001.2	4.8
0.6	6.778	323.15	1001.9	4.9
0.6	8.627	268.1	1056.7	5
0.6	8.627	273.1	1052.7	4.8
0.6	8.627	278.1	1048.8	4.6
0.6	8.627	283.1	1042.4	4.4
0.6	8.627	288.15	1037.5	4.2
0.6	8.627	293.15	1034.6	4
0.6	8.627	298.15	1030.7	4.2
0.6	8.627	303.15	1026.8	4.3
0.6	8.627	308.15	1025.3	4.5
0.6	8.627	313.15	1024.9	4.7
0.6	8.627	318.15	1025.1	4.9
0.6	8.627	323.15	1027.7	5.1
0.6	9.859	268.1	1076.6	5.1
0.6	9.859	273.1	1072.4	4.9
0.6	9.859	278.1	1068.8	4.7
0.6	9.859	283.1	1062.4	4.5
0.6	9.859	288.15	1057.8	4.3
0.6	9.859	293.15	1054.4	4.1
0.6	9.859	298.15	1050.4	4.3
0.6	9.859	303.15	1046.6	4.4
0.6	9.859	308.15	1046.2	4.6
0.6	9.859	313.15	1045.7	4.8
0.6	9.859	318.15	1046	5
0.6	9.859	323.15	1046.6	5.2
0.7	0	268.1	931.6	4.4
0.7	0	273.1	927.1	4.2
0.7	0	278.1	922.7	4
0.7	0	283.1	918.7	3.8
0.7	0	288.15	914.5	3.6
0.7	0	293.15	909.9	3.4
0.7	0	298.15	905.3	3.5
0.7	0	303.15	901	3.7
0.7	0	308.15	896.5	3.8
0.7	0	313.15	892	4
0.7	0	318.15	887.4	4.2
0.7	0	323.15	883	4.3
0.7	0.341	268.1	939.7	4.4
0.7	0.341	273.1	934.4	4.2
0.7	0.341	278.1	930	4
0.7	0.341	283.1	925	3.8
0.7	0.341	288.15	920.7	3.6
0.7	0.341	293.15	915.6	3.4
0.7	0.341	298.15	909.6	3.5
0.7	0.341	303.15	905.8	3.7
0.7	0.341	308.15	901.2	3.9
0.7	0.341	313.15	896.1	4
0.7	0.341	318.15	890.9	4.2
0.7	0.341	323.15	885.9	4.3
0.7	0.682	268.1	948.8	4.5
0.7	0.682	273.1	942.5	4.3
0.7	0.682	278.1	938.7	4.1
0.7	0.682	283.1	933.5	3.8
0.7	0.682	288.15	928.9	3.6
0.7	0.682	293.15	924.1	3.4
0.7	0.682	298.15	918	3.6
0.7	0.682	303.15	914.4	3.8
0.7	0.682	308.15	910.4	3.9
0.7	0.682	313.15	905.1	4.1
0.7	0.682	318.15	900.1	4.2
0.7	0.682	323.15	895.4	4.4
0.7	1.363	268.1	962.7	4.5
0.7	1.363	273.1	957.4	4.3
0.7	1.363	278.1	953.2	4.1
0.7	1.363	283.1	949.3	3.9
0.7	1.363	288.15	944.3	3.7
0.7	1.363	293.15	939.4	3.5
0.7	1.363	298.15	933.6	3.7
0.7	1.363	303.15	930	3.8
0.7	1.363	308.15	925.9	4
0.7	1.363	313.15	920.8	4.2
0.7	1.363	318.15	915.6	4.3
0.7	1.363	323.15	910.9	4.5
0.7	2.045	268.1	972.6	4.6
0.7	2.045	273.1	966.8	4.4
0.7	2.045	278.1	962.5	4.2
0.7	2.045	283.1	957.6	4
0.7	2.045	288.15	953.2	3.8
0.7	2.045	293.15	948.5	3.6
0.7	2.045	298.15	942.3	3.7
0.7	2.045	303.15	938.7	3.9
0.7	2.045	308.15	934.3	4
0.7	2.045	313.15	929.6	4.2
0.7	2.045	318.15	924.3	4.4
0.7	2.045	323.15	919.5	4.5
0.7	3.067	268.1	991.8	4.7
0.7	3.067	273.1	986.3	4.5
0.7	3.067	278.1	982.2	4.3
0.7	3.067	283.1	977.6	4.1
0.7	3.067	288.15	973.6	3.9
0.7	3.067	293.15	969	3.7
0.7	3.067	298.15	963.4	3.8
0.7	3.067	303.15	960	4
0.7	3.067	308.15	956.1	4.2
0.7	3.067	313.15	951.4	4.3
0.7	3.067	318.15	946.7	4.5
0.7	3.067	323.15	942.5	4.6
0.7	4.09	268.1	1011.6	4.8
0.7	4.09	273.1	1006.5	4.6
0.7	4.09	278.1	1002.6	4.4
0.7	4.09	283.1	998	4.2
0.7	4.09	288.15	994.2	4
0.7	4.09	293.15	991.1	3.8
0.7	4.09	298.15	985.2	3.9
0.7	4.09	303.15	981.8	4.1
0.7	4.09	308.15	977.8	4.3
0.7	4.09	313.15	973.6	4.4
0.7	4.09	318.15	969.4	4.6
0.7	4.09	323.15	965.4	4.8
0.7	5.453	268.1	1035.5	4.9
0.7	5.453	273.1	1030.2	4.7
0.7	5.453	278.1	1026.6	4.5
0.7	5.453	283.1	1022.3	4.3
0.7	5.453	288.15	1018.4	4.1
0.7	5.453	293.15	1014.2	3.9
0.7	5.453	298.15	1008.8	4.1
0.7	5.453	303.15	1005.8	4.2
0.7	5.453	308.15	1002.6	4.4
0.7	5.453	313.15	998.4	4.6
0.7	5.453	318.15	994.2	4.7
0.7	5.453	323.15	990.6	4.9
0.7	7.498	268.1	1067.5	5.1
0.7	7.498	273.1	1061.4	4.9
0.7	7.498	278.1	1055.9	4.7
0.7	7.498	283.1	1050.9	4.4
0.7	7.498	288.15	1047.7	4.2
0.7	7.498	293.15	1043.9	4
0.7	7.498	298.15	1038.9	4.2
0.7	7.498	303.15	1035.5	4.4
0.7	7.498	308.15	1032.3	4.5
0.7	7.498	313.15	1028.6	4.7
0.7	7.498	318.15	1024.8	4.9
0.7	7.498	323.15	1021.8	5
0.7	9.542	268.1	1097.8	5.2
0.7	9.542	273.1	1092.3	5
0.7	9.542	278.1	1088.7	4.8
0.7	9.542	283.1	1084.5	4.6
0.7	9.542	288.15	1081.2	4.4
0.7	9.542	293.15	1077	4.2
0.7	9.542	298.15	1071.8	4.4
0.7	9.542	303.15	1069	4.5
0.7	9.542	308.15	1065.4	4.7
0.7	9.542	313.15	1062	4.9
0.7	9.542	318.15	1057.8	5
0.7	9.542	323.15	1054.2	5.2
0.7	11.246	268.1	1121.5	5.4
0.7	11.246	273.1	1116.1	5.2
0.7	11.246	278.1	1112.3	4.9
0.7	11.246	283.1	1108.1	4.7
0.7	11.246	288.15	1104.7	4.5
0.7	11.246	293.15	1100.7	4.3
0.7	11.246	298.15	1095.6	4.5
0.7	11.246	303.15	1092.7	4.7
0.7	11.246	308.15	1089.5	4.8
0.7	11.246	313.15	1085.3	5
0.7	11.246	318.15	1082.1	5.2
0.7	11.246	323.15	1078.7	5.3
0.8	0	268.1	951	4.5
0.8	0	273.1	948	4.3
0.8	0	278.1	945	4.1
0.8	0	283.1	941.4	3.9
0.8	0	288.15	938	3.7
0.8	0	293.15	934.6	3.5
0.8	0	298.15	931.3	3.7
0.8	0	303.15	927.6	3.8
0.8	0	308.15	923.8	4
0.8	0	313.15	919.5	4.2
0.8	0	318.15	915.5	4.3
0.8	0	323.15	911.2	4.5
0.8	0.381	268.1	961.5	4.5
0.8	0.381	273.1	958.4	4.3
0.8	0.381	278.1	955.4	4.1
0.8	0.381	283.1	951.8	3.9
0.8	0.381	288.15	948.5	3.7
0.8	0.381	293.15	945	3.5
0.8	0.381	298.15	941.9	3.7
0.8	0.381	303.15	938.2	3.9
0.8	0.381	308.15	934.6	4
0.8	0.381	313.15	930.5	4.2
0.8	0.381	318.15	926.7	4.4
0.8	0.381	323.15	922.7	4.5
0.8	0.763	268.1	970.2	4.6
0.8	0.763	273.1	967.3	4.4
0.8	0.763	278.1	964.1	4.2
0.8	0.763	283.1	960.5	4
0.8	0.763	288.15	957.5	3.8
0.8	0.763	293.15	954.1	3.6
0.8	0.763	298.15	950.8	3.8
0.8	0.763	303.15	947.1	3.9
0.8	0.763	308.15	943.7	4.1
0.8	0.763	313.15	939.6	4.3
0.8	0.763	318.15	936.1	4.4
0.8	0.763	323.15	932.2	4.6
0.8	1.525	268.1	986.6	4.7
0.8	1.525	273.1	983.6	4.5
0.8	1.525	278.1	980.7	4.3
0.8	1.525	283.1	977.2	4.1
0.8	1.525	288.15	974.1	3.9
0.8	1.525	293.15	970.8	3.7
0.8	1.525	298.15	967.7	3.8
0.8	1.525	303.15	964.2	4
0.8	1.525	308.15	961.2	4.2
0.8	1.525	313.15	957.1	4.3
0.8	1.525	318.15	953.8	4.5
0.8	1.525	323.15	950	4.7
0.8	2.288	268.1	1001.1	4.7
0.8	2.288	273.1	997.7	4.5
0.8	2.288	278.1	994.5	4.3
0.8	2.288	283.1	990.9	4.1
0.8	2.288	288.15	987.5	3.9
0.8	2.288	293.15	984	3.7
0.8	2.288	298.15	980.9	3.9
0.8	2.288	303.15	977.3	4.1
0.8	2.288	308.15	973.9	4.2
0.8	2.288	313.15	969.7	4.4
0.8	2.288	318.15	966.3	4.6
0.8	2.288	323.15	962.3	4.7
0.8	3.431	268.1	1022.8	4.9
0.8	3.431	273.1	1019.8	4.7
0.8	3.431	278.1	1016.8	4.5
0.8	3.431	283.1	1013	4.2
0.8	3.431	288.15	1009.9	4
0.8	3.431	293.15	1006.6	3.9
0.8	3.431	298.15	1003.6	4
0.8	3.431	303.15	1000.2	4.2
0.8	3.431	308.15	996.9	4.4
0.8	3.431	313.15	992.8	4.5
0.8	3.431	318.15	989.3	4.7
0.8	3.431	323.15	985.5	4.9
0.8	4.575	268.1	1042.4	5
0.8	4.575	273.1	1039.4	4.8
0.8	4.575	278.1	1036.6	4.6
0.8	4.575	283.1	1033.2	4.4
0.8	4.575	288.15	1030.3	4.2
0.8	4.575	293.15	1027.5	4
0.8	4.575	298.15	1025.3	4.1
0.8	4.575	303.15	1022.4	4.3
0.8	4.575	308.15	1019.9	4.5
0.8	4.575	313.15	1016.3	4.6
0.8	4.575	318.15	1013.5	4.8
0.8	4.575	323.15	1010.3	5
0.8	6.1	268.1	1068.3	5.1
0.8	6.1	273.1	1065	4.9
0.8	6.1	278.1	1062.3	4.7
0.8	6.1	283.1	1059	4.5
0.8	6.1	288.15	1056.3	4.3
0.8	6.1	293.15	1053.4	4.1
0.8	6.1	298.15	1051.1	4.3
0.8	6.1	303.15	1047.8	4.4
0.8	6.1	308.15	1045.2	4.6
0.8	6.1	313.15	1041.9	4.8
0.8	6.1	318.15	1039.9	5
0.8	6.1	323.15	1036.9	5.1
0.8	8.388	268.1	1104.1	5.3
0.8	8.388	273.1	1101.3	5.1
0.8	8.388	278.1	1098.8	4.9
0.8	8.388	283.1	1095.8	4.7
0.8	8.388	288.15	1092.9	4.5
0.8	8.388	293.15	1090.3	4.3
0.8	8.388	298.15	1087.7	4.5
0.8	8.388	303.15	1084.8	4.6
0.8	8.388	308.15	1082.1	4.8
0.8	8.388	313.15	1078.6	5
0.8	8.388	318.15	1075.8	5.1
0.8	8.388	323.15	1072.6	5.3
0.8	10.675	268.1	1137	5.4
0.8	10.675	273.1	1134.3	5.2
0.8	10.675	278.1	1132.1	5
0.8	10.675	283.1	1128.9	4.8
0.8	10.675	288.15	1126.4	4.6
0.8	10.675	293.15	1123.9	4.5
0.8	10.675	298.15	1121.5	4.6
0.8	10.675	303.15	1118.6	4.8
0.8	10.675	308.15	1115.8	5
0.8	10.675	313.15	1112.5	5.1
0.8	10.675	318.15	1109.7	5.3
0.8	10.675	323.15	1106.6	5.5
0.8	13.344	268.1	1173.5	5.6
0.8	13.344	273.1	1169.9	5.4
0.8	13.344	278.1	1167.1	5.2
0.8	13.344	283.1	1163.7	5
0.8	13.344	288.15	1161.3	4.8
0.8	13.344	293.15	1158.5	4.6
0.8	13.344	298.15	1156.1	4.8
0.8	13.344	303.15	1153.2	5
0.8	13.344	308.15	1150.8	5.2
0.8	13.344	313.15	1147.7	5.3
0.8	13.344	318.15	1145.1	5.5
0.8	13.344	323.15	1142.1	5.7
0.9	0	268.1	977.3	4.6
0.9	0	273.1	975.6	4.4
0.9	0	278.1	973.2	4.2
0.9	0	283.1	970.8	4
0.9	0	288.15	967.3	3.8
0.9	0	293.15	963.7	3.6
0.9	0	298.15	960.3	3.8
0.9	0	303.15	956.2	4
0.9	0	308.15	952.7	4.1
0.9	0	313.15	949	4.3
0.9	0	318.15	945.5	4.5
0.9	0	323.15	942	4.6
0.9	0.433	268.1	984.8	4.7
0.9	0.433	273.1	983.4	4.5
0.9	0.433	278.1	981.9	4.3
0.9	0.433	283.1	980.6	4.1
0.9	0.433	288.15	978.6	3.9
0.9	0.433	293.15	976.7	3.7
0.9	0.433	298.15	974.5	3.9
0.9	0.433	303.15	972.1	4
0.9	0.433	308.15	969.8	4.2
0.9	0.433	313.15	967.4	4.4
0.9	0.433	318.15	964.3	4.6
0.9	0.433	323.15	961.6	4.7
0.9	0.865	268.1	996.5	4.7
0.9	0.865	273.1	995.4	4.5
0.9	0.865	278.1	993.2	4.3
0.9	0.865	283.1	991.3	4.1
0.9	0.865	288.15	989.4	3.9
0.9	0.865	293.15	987.3	3.8
0.9	0.865	298.15	985.1	3.9
0.9	0.865	303.15	982.7	4.1
0.9	0.865	308.15	980.2	4.3
0.9	0.865	313.15	977.6	4.4
0.9	0.865	318.15	974.9	4.6
0.9	0.865	323.15	972.2	4.8
0.9	1.73	268.1	1016.3	4.8
0.9	1.73	273.1	1014.8	4.6
0.9	1.73	278.1	1012.8	4.4
0.9	1.73	283.1	1010.9	4.2
0.9	1.73	288.15	1009	4
0.9	1.73	293.15	1007	3.9
0.9	1.73	298.15	1004.7	4
0.9	1.73	303.15	1002.3	4.2
0.9	1.73	308.15	999.9	4.4
0.9	1.73	313.15	997.4	4.6
0.9	1.73	318.15	994.8	4.7
0.9	1.73	323.15	992.2	4.9
0.9	2.596	268.1	1034.7	4.9
0.9	2.596	273.1	1033.1	4.7
0.9	2.596	278.1	1031.2	4.5
0.9	2.596	283.1	1029.3	4.3
0.9	2.596	288.15	1027.3	4.1
0.9	2.596	293.15	1025.3	4
0.9	2.596	298.15	1023.3	4.1
0.9	2.596	303.15	1021.3	4.3
0.9	2.596	308.15	1019.4	4.5
0.9	2.596	313.15	1017.5	4.7
0.9	2.596	318.15	1015.4	4.8
0.9	2.596	323.15	1013.6	5
0.9	3.893	268.1	1060.6	5.1
0.9	3.893	273.1	1058.7	4.9
0.9	3.893	278.1	1056.6	4.7
0.9	3.893	283.1	1054.8	4.5
0.9	3.893	288.15	1053	4.3
0.9	3.893	293.15	1051.1	4.1
0.9	3.893	298.15	1049	4.3
0.9	3.893	303.15	1047	4.4
0.9	3.893	308.15	1045	4.6
0.9	3.893	313.15	1043	4.8
0.9	3.893	318.15	1040.9	5
0.9	3.893	323.15	1038.5	5.1
0.9	5.191	268.1	1084.2	5.2
0.9	5.191	273.1	1082	5
0.9	5.191	278.1	1080	4.8
0.9	5.191	283.1	1078.1	4.6
0.9	5.191	288.15	1076	4.4
0.9	5.191	293.15	1073.9	4.2
0.9	5.191	298.15	1071.8	4.4
0.9	5.191	303.15	1069.8	4.6
0.9	5.191	308.15	1067.8	4.7
0.9	5.191	313.15	1065.9	4.9
0.9	5.191	318.15	1063.9	5.1
0.9	5.191	323.15	1061.9	5.3
0.9	6.922	268.1	1112.1	5.3
0.9	6.922	273.1	1110.1	5.1
0.9	6.922	278.1	1107.9	4.9
0.9	6.922	283.1	1106	4.7
0.9	6.922	288.15	1103.9	4.5
0.9	6.922	293.15	1101.7	4.3
0.9	6.922	298.15	1099.6	4.5
0.9	6.922	303.15	1097.7	4.7
0.9	6.922	308.15	1095.5	4.9
0.9	6.922	313.15	1093.2	5
0.9	6.922	318.15	1091.1	5.2
0.9	6.922	323.15	1089	5.4
0.9	9.517	268.1	1150.7	5.5
0.9	9.517	273.1	1148.7	5.3
0.9	9.517	278.1	1146.4	5.1
0.9	9.517	283.1	1144.1	4.9
0.9	9.517	288.15	1142	4.7
0.9	9.517	293.15	1139.9	4.5
0.9	9.517	298.15	1137.6	4.7
0.9	9.517	303.15	1135.2	4.9
0.9	9.517	308.15	1133.7	5.1
0.9	9.517	313.15	1131.5	5.2
0.9	9.517	318.15	1129.5	5.4
0.9	9.517	323.15	1127.3	5.6
0.9	12.113	268.1	1186.5	5.7
0.9	12.113	273.1	1184.1	5.5
0.9	12.113	278.1	1182	5.3
0.9	12.113	283.1	1180	5.1
0.9	12.113	288.15	1177.9	4.9
0.9	12.113	293.15	1175.9	4.7
0.9	12.113	298.15	1173.6	4.9
0.9	12.113	303.15	1171.3	5.1
0.9	12.113	308.15	1169.3	5.3
0.9	12.113	313.15	1167.1	5.4
0.9	12.113	318.15	1164.9	5.6
0.9	12.113	323.15	1162.8	5.8
0.9	15.574	268.1	1225.3	5.9
0.9	15.574	273.1	1222.7	5.7
0.9	15.574	278.1	1220.4	5.5
0.9	15.574	283.1	1218.1	5.3
0.9	15.574	288.15	1215.9	5.1
0.9	15.574	293.15	1213.9	4.9
0.9	15.574	298.15	1211.6	5.1
0.9	15.574	303.15	1209.6	5.3
0.9	15.574	308.15	1207.4	5.5
0.9	15.574	313.15	1205.2	5.6
0.9	15.574	318.15	1203	5.8
0.9	15.574	323.15	1200.9	6
1	0	278.1	999.9	4.4
1	0	283.1	999.7	4.2
1	0	288.15	999.1	4
1	0	293.15	998.2	3.8
1	0	298.15	997.1	4
1	0	303.15	995.6	4.2
1	0	308.15	994.1	4.3
1	0	313.15	992.2	4.5
1	0	318.15	990.2	4.7
1	0	323.15	988.1	4.9
1	0.5	268.1	1013.4	4.8
1	0.5	273.1	1013.2	4.6
1	0.5	278.1	1013.7	4.4
1	0.5	283.1	1012.5	4.2
1	0.5	288.15	1011.6	4.1
1	0.5	293.15	1010.8	3.9
1	0.5	298.15	1009.4	4.1
1	0.5	303.15	1008.1	4.2
1	0.5	308.15	1006.6	4.4
1	0.5	313.15	1005.1	4.6
1	0.5	318.15	1003.5	4.8
1	0.5	323.15	1002.2	4.9
1	1	268.1	1024.4	4.9
1	1	273.1	1024.4	4.7
1	1	278.1	1024	4.5
1	1	283.1	1023.3	4.3
1	1	288.15	1022.2	4.1
1	1	293.15	1021.4	3.9
1	1	298.15	1020.2	4.1
1	1	303.15	1018.7	4.3
1	1	308.15	1017.2	4.5
1	1	313.15	1015.8	4.6
1	1	318.15	1013.8	4.8
1	1	323.15	1012.5	5
1	2	268.1	1047.1	5
1	2	273.1	1046.9	4.8
1	2	278.1	1046.3	4.6
1	2	283.1	1045.3	4.4
1	2	288.15	1044.1	4.2
1	2	293.15	1043	4
1	2	298.15	1041.8	4.2
1	2	303.15	1040.1	4.4
1	2	308.15	1038.7	4.6
1	2	313.15	1037.1	4.8
1	2	318.15	1035.2	4.9
1	2	323.15	1033.8	5.1
1	3	268.1	1067.8	5.1
1	3	273.1	1067.4	4.9
1	3	278.1	1066.4	4.7
1	3	283.1	1065.4	4.5
1	3	288.15	1064.3	4.3
1	3	293.15	1063.1	4.1
1	3	298.15	1061.8	4.3
1	3	303.15	1060.3	4.5
1	3	308.15	1058.7	4.7
1	3	313.15	1056.9	4.9
1	3	318.15	1055.5	5
1	3	323.15	1039	5.1
1	4.5	268.1	1095.9	5.2
1	4.5	273.1	1095	5
1	4.5	278.1	1094.1	4.9
1	4.5	283.1	1092.8	4.7
1	4.5	288.15	1091.5	4.5
1	4.5	293.15	1090.5	4.3
1	4.5	298.15	1089.1	4.5
1	4.5	303.15	1087.7	4.6
1	4.5	308.15	1085.9	4.8
1	4.5	313.15	1084.4	5
1	4.5	318.15	1083	5.2
1	4.5	323.15	1081.1	5.4
1	6	268.1	1121.7	5.4
1	6	273.1	1121.2	5.2
1	6	278.1	1119.8	5
1	6	283.1	1118.8	4.8
1	6	288.15	1117.4	4.6
1	6	293.15	1116.1	4.4
1	6	298.15	1114.6	4.6
1	6	303.15	1113.1	4.8
1	6	308.15	1111.5	5
1	6	313.15	1110.1	5.1
1	6	318.15	1108.4	5.3
1	6	323.15	1106.4	5.5
1	8	268.1	1155.4	5.5
1	8	273.1	1153.7	5.3
1	8	278.1	1152.6	5.2
1	8	283.1	1151.4	5
1	8	288.15	1149.8	4.8
1	8	293.15	1148.5	4.6
1	8	298.15	1147	4.8
1	8	303.15	1145.4	4.9
1	8	308.15	1143.9	5.1
1	8	313.15	1142.3	5.3
1	8	318.15	1140.7	5.5
1	8	323.15	1138.8	5.7
1	11	268.1	1200.2	5.8
1	11	273.1	1198.7	5.6
1	11	278.1	1197.1	5.4
1	11	283.1	1195.6	5.2
1	11	288.15	1194	5
1	11	293.15	1192.5	4.8
1	11	298.15	1190.9	5
1	11	303.15	1189.3	5.2
1	11	308.15	1187.8	5.3
1	11	313.15	1186.1	5.5
1	11	318.15	1184.3	5.7
1	11	323.15	1182.6	5.9
1	14	268.1	1240.7	6
1	14	273.1	1239.1	5.8
1	14	278.1	1237.4	5.6
1	14	283.1	1235.8	5.4
1	14	288.15	1234.1	5.2
1	14	293.15	1232.6	5
1	14	298.15	1230.7	5.2
1	14	303.15	1228.9	5.4
1	14	308.15	1227.1	5.6
1	14	313.15	1225.3	5.7
1	14	318.15	1223.5	5.9
1	14	323.15	1221.8	6.1
1	17.8	268.1	1288.4	6.2
1	17.8	273.1	1286.4	6
1	17.8	278.1	1284.2	5.8
1	17.8	283.1	1282.2	5.6
1	17.8	288.15	1280.2	5.4
1	17.8	293.15	1278.3	5.3
1	17.8	298.15	1276.4	5.4
1	17.8	303.15	1274.6	5.6
1	17.8	308.15	1272.8	5.8
1	17.8	313.15	1270.7	6
1	17.8	318.15	1268.9	6.1
1	17.8	323.15	1266.9	6.3
