Measured thermophysical data. Solubility of Diamantane, Trimantane, Tetramantane, and Their Derivatives in Organic Solvents
Source: J. Chem. Eng. Data, 2008, 10.1021/je800277a
Compound 1: pentacyclo[7.3.1.1(4,12).0(2,7).0(6,11)]tetradecane, C14H20, InChI=1S/C14H20/c1-7-2-12-10-4-8-5-11(9(1)10)13(3-7)14(12)6-8/h7-14H,1-6H2, purity 99.5%
Compound 2: tetradecahydro-4,5,12-metheno-2,9,7-[1,2,3]propanetriylanthracene, C18H24, InChI=1S/C18H24/c1-8-2-13-10-5-11-14-3-9-4-15(11)17(13)18(6-8,7-9)16(14)12(1)10/h8-17H,1-7H2, purity 99%
Compound 3: tetramantane, C22H28, InChI=1S/C22H28/c1-9-2-12-15-7-22-6-10-3-13-16-8-21(5-9,17(11(1)15)18(13)22)19(12)20(22)14(16)4-10/h9-20H,1-8H2, purity 99%
Compound 4: 3,5,1,7-[1,2,3,4]butanetetraylnaphthalen-1(2H)-ol, octahydro-, C14H20O, InChI=1S/C14H20O/c15-14-6-8-2-10-9-1-7(4-12(10)14)5-13(14)11(9)3-8/h7-13,15H,1-6H2
Compound 5: 1,6-dihydroxyl diamantane, C14H20O2, InChI=1S/C14H20O2/c15-13-6-8-3-10-9(13)1-7-2-11(13)12(4-8)14(10,16)5-7/h7-12,15-16H,1-6H2
Compound 6: acetone, C3H6O, InChI=1S/C3H6O/c1-3(2)4/h1-2H3
Compound 7: cyclohexane, C6H12, InChI=1S/C6H12/c1-2-4-6-5-3-1/h1-6H2
Compound 8: ethyl acetate, C4H8O2, InChI=1S/C4H8O2/c1-3-6-4(2)5/h3H2,1-2H3
Compound 9: toluene, C7H8, InChI=1S/C7H8/c1-7-5-3-2-4-6-7/h2-6H,1H3
Compound 10: heptane, C7H16, InChI=1S/C7H16/c1-3-5-7-6-4-2/h3-7H2,1-2H3
Compound 11: pentan-1-ol, C5H12O, InChI=1S/C5H12O/c1-2-3-4-5-6/h6H,2-5H2,1H3
Compound 12: methanol, CH4O, InChI=1S/CH4O/c1-2/h2H,1H3
Compound 13: water, H2O, InChI=1S/H2O/h1H2

System: cyclohexane + pentacyclo[7.3.1.1(4,12).0(2,7).0(6,11)]tetradecane; phases: Liquid, Crystal
Fixed: Pressure, kPa = 101
Property: Mass fraction of pentacyclo[7.3.1.1(4,12).0(2,7).0(6,11)]tetradecane (Liquid); method: Titration method
Temperature, K	Mass fraction of pentacyclo[7.3.1.1(4,12).0(2,7).0(6,11)]tetradecane	uncertainty
283.15	0.04336	0.00434
293.15	0.0543	0.00544
303.15	0.06827	0.00684
313.15	0.09144	0.00916
323.15	0.12259	0.01228
333.15	0.14945	0.01496
343.15	0.19022	0.01905

System: ethyl acetate + pentacyclo[7.3.1.1(4,12).0(2,7).0(6,11)]tetradecane; phases: Liquid, Crystal
Fixed: Pressure, kPa = 101
Property: Mass fraction of pentacyclo[7.3.1.1(4,12).0(2,7).0(6,11)]tetradecane (Liquid); method: Titration method
Temperature, K	Mass fraction of pentacyclo[7.3.1.1(4,12).0(2,7).0(6,11)]tetradecane	uncertainty
283.15	0.00555	0.00056
293.15	0.0082	0.00082
303.15	0.01191	0.00119
313.15	0.01495	0.0015
323.15	0.02413	0.00242

System: toluene + pentacyclo[7.3.1.1(4,12).0(2,7).0(6,11)]tetradecane; phases: Liquid, Crystal
Fixed: Pressure, kPa = 101
Property: Mass fraction of pentacyclo[7.3.1.1(4,12).0(2,7).0(6,11)]tetradecane (Liquid); method: Titration method
Temperature, K	Mass fraction of pentacyclo[7.3.1.1(4,12).0(2,7).0(6,11)]tetradecane	uncertainty
283.15	0.0279	0.0028
293.15	0.03976	0.00398
303.15	0.05132	0.00514
313.15	0.07148	0.00716
323.15	0.0952	0.00953

System: acetone + pentacyclo[7.3.1.1(4,12).0(2,7).0(6,11)]tetradecane; phases: Liquid, Crystal
Fixed: Pressure, kPa = 101
Property: Mass fraction of pentacyclo[7.3.1.1(4,12).0(2,7).0(6,11)]tetradecane (Liquid); method: Titration method
Temperature, K	Mass fraction of pentacyclo[7.3.1.1(4,12).0(2,7).0(6,11)]tetradecane	uncertainty
283.15	0.00274	0.00028
293.15	0.00412	0.00041
303.15	0.00633	0.00064
313.15	0.00905	0.00091
323.15	0.01425	0.00143

System: cyclohexane + tetradecahydro-4,5,12-metheno-2,9,7-[1,2,3]propanetriylanthracene; phases: Liquid, Crystal
Fixed: Pressure, kPa = 101
Property: Mass fraction of tetradecahydro-4,5,12-metheno-2,9,7-[1,2,3]propanetriylanthracene (Liquid); method: Titration method
Temperature, K	Mass fraction of tetradecahydro-4,5,12-metheno-2,9,7-[1,2,3]propanetriylanthracene	uncertainty
273.15	0.05396	0.00541
298.15	0.09553	0.00956
323.15	0.15492	0.01551
348.15	0.26012	0.02604

System: ethyl acetate + tetradecahydro-4,5,12-metheno-2,9,7-[1,2,3]propanetriylanthracene; phases: Liquid, Crystal
Fixed: Pressure, kPa = 101
Property: Mass fraction of tetradecahydro-4,5,12-metheno-2,9,7-[1,2,3]propanetriylanthracene (Liquid); method: Titration method
Temperature, K	Mass fraction of tetradecahydro-4,5,12-metheno-2,9,7-[1,2,3]propanetriylanthracene	uncertainty
273.15	0.00396	0.0004
298.15	0.0101	0.00101
323.15	0.0212	0.00213
348.15	0.05175	0.00518

System: toluene + tetradecahydro-4,5,12-metheno-2,9,7-[1,2,3]propanetriylanthracene; phases: Liquid, Crystal
Fixed: Pressure, kPa = 101
Property: Mass fraction of tetradecahydro-4,5,12-metheno-2,9,7-[1,2,3]propanetriylanthracene (Liquid); method: Titration method
Temperature, K	Mass fraction of tetradecahydro-4,5,12-metheno-2,9,7-[1,2,3]propanetriylanthracene	uncertainty
273.15	0.03802	0.00382
298.15	0.07642	0.00766
323.15	0.14314	0.01434
348.15	0.26152	0.02618

System: heptane + tetradecahydro-4,5,12-metheno-2,9,7-[1,2,3]propanetriylanthracene; phases: Liquid, Crystal
Fixed: Pressure, kPa = 101
Property: Mass fraction of tetradecahydro-4,5,12-metheno-2,9,7-[1,2,3]propanetriylanthracene (Liquid); method: Titration method
Temperature, K	Mass fraction of tetradecahydro-4,5,12-metheno-2,9,7-[1,2,3]propanetriylanthracene	uncertainty
273.15	0.02842	0.00286
298.15	0.06503	0.00651
323.15	0.10651	0.01066
348.15	0.17564	0.01758

System: pentan-1-ol + tetradecahydro-4,5,12-metheno-2,9,7-[1,2,3]propanetriylanthracene; phases: Liquid, Crystal
Fixed: Pressure, kPa = 101
Property: Mass fraction of tetradecahydro-4,5,12-metheno-2,9,7-[1,2,3]propanetriylanthracene (Liquid); method: Titration method
Temperature, K	Mass fraction of tetradecahydro-4,5,12-metheno-2,9,7-[1,2,3]propanetriylanthracene	uncertainty
273.15	0.006	0.0006
298.15	0.01272	0.00128
323.15	0.02725	0.00273
348.15	0.05436	0.00544

System: cyclohexane + tetramantane; phases: Liquid, Crystal
Fixed: Pressure, kPa = 101
Property: Mass fraction of cyclohexane (Liquid); method: Titration method
Temperature, K	Mass fraction of cyclohexane	uncertainty
298.15	0.02968	0.00298
323.15	0.05517	0.00552
348.15	0.08992	0.009

System: ethyl acetate + tetramantane; phases: Liquid, Crystal
Fixed: Pressure, kPa = 101
Property: Mass fraction of ethyl acetate (Liquid); method: Titration method
Temperature, K	Mass fraction of ethyl acetate	uncertainty
273.15	0.00216	0.00022
298.15	0.00412	0.00041
323.15	0.01327	0.00133
348.15	0.0398	0.00399

System: toluene + tetramantane; phases: Liquid, Crystal
Fixed: Pressure, kPa = 101
Property: Mass fraction of toluene (Liquid); method: Titration method
Temperature, K	Mass fraction of toluene	uncertainty
273.15	0.03032	0.00304
298.15	0.05885	0.00589
323.15	0.09748	0.00976
348.15	0.14511	0.01452

System: heptane + tetramantane; phases: Liquid, Crystal
Fixed: Pressure, kPa = 101
Property: Mass fraction of heptane (Liquid); method: Titration method
Temperature, K	Mass fraction of heptane	uncertainty
273.15	0.0236	0.00236
298.15	0.03733	0.00374
323.15	0.06942	0.00696
348.15	0.14219	0.01424

System: pentan-1-ol + tetramantane; phases: Liquid, Crystal
Fixed: Pressure, kPa = 101
Property: Mass fraction of pentan-1-ol (Liquid); method: Titration method
Temperature, K	Mass fraction of pentan-1-ol	uncertainty
273.15	0.00474	0.00048
298.15	0.00958	0.00096
323.15	0.02006	0.00201
348.15	0.04118	0.00412

System: methanol + water + 3,5,1,7-[1,2,3,4]butanetetraylnaphthalen-1(2H)-ol, octahydro-; phases: Liquid, Crystal
Fixed: Pressure, kPa = 101
Property: Mass fraction of 3,5,1,7-[1,2,3,4]butanetetraylnaphthalen-1(2H)-ol, octahydro- (Liquid); method: Titration method
Temperature, K	Solvent: Mass fraction of methanol	Mass fraction of 3,5,1,7-[1,2,3,4]butanetetraylnaphthalen-1(2H)-ol, octahydro-	uncertainty
273.15	0.8	0.00254	0.00026
283.15	0.8	0.00407	0.00041
293.15	0.8	0.0058	0.00058
293.15	1	0.01885	0.00189
298.15	1	0.02257	0.00226
303.15	0.8	0.00791	0.00079
303.15	1	0.02709	0.00271
308.15	1	0.03042	0.00305
313.15	0.8	0.01072	0.00107
313.15	1	0.03581	0.00359
318.15	1	0.04305	0.00431
323.15	0.8	0.01415	0.00142
323.15	1	0.04759	0.00477
333.15	0.8	0.02111	0.00212
333.15	1	0.059	0.00591

System: methanol + water + 1,6-dihydroxyl diamantane; phases: Liquid, Crystal
Fixed: Pressure, kPa = 101
Property: Mass fraction of 1,6-dihydroxyl diamantane (Liquid); method: Titration method
Temperature, K	Solvent: Mass fraction of methanol	Mass fraction of 1,6-dihydroxyl diamantane	uncertainty
278.15	0.8	0.06672	0.0067
278.15	1	0.08553	0.00857
283.15	0.8	0.08114	0.00813
283.15	1	0.09937	0.00995
288.15	0.8	0.08942	0.00896
288.15	1	0.11283	0.01131
293.15	0.8	0.10551	0.01058
293.15	1	0.13282	0.01332
298.15	0.8	0.12611	0.01265
298.15	1	0.15728	0.01575
303.15	0.8	0.15041	0.01509
303.15	1	0.1681	0.01682
308.15	0.8	0.18132	0.01818
308.15	1	0.18148	0.01818
313.15	0.8	0.21512	0.02159
313.15	1	0.21493	0.02155
318.15	0.8	0.26848	0.02695
318.15	1	0.25519	0.02554
323.15	0.8	0.32578	0.03267
323.15	1	0.25519	0.02553
