Measured thermophysical data. Thermodynamic Properties of Inorganic Salts in Nonaqueous Solvents. V. Apparent Molar Volumes and Compressibilities of Divalent Transition Metal Bromides in N,N-Dimethylformamide
Source: J. Chem. Eng. Data, 2009, 10.1021/je8001877
Compound 1: dimethylformamide, C3H7NO, InChI=1S/C3H7NO/c1-4(2)3-5/h3H,1-2H3
Compound 2: manganese(II) bromide, Br2Mn, InChI=1S/2BrH.Mn/h2*1H;/q;;+2/p-2
Compound 3: cobalt(II) bromide, Br2Co, InChI=1S/2BrH.Co/h2*1H;/q;;+2/p-2
Compound 4: nickel bromide, Br2Ni, InChI=1S/2BrH.Ni/h2*1H;/q;;+2/p-2
Compound 5: copper dibromide, Br2Cu, InChI=1S/2BrH.Cu/h2*1H;/q;;+2/p-2
Compound 6: zinc bromide, Br2Zn, InChI=1S/2BrH.Zn/h2*1H;/q;;+2/p-2

System: dimethylformamide; phases: Liquid
Property: Speed of sound, m/s (Liquid); method: Pulse-echo method
Temperature, K	Pressure, kPa	Speed of sound, m/s	uncertainty
298.15	101.325	1457.13	0.88

System: dimethylformamide + manganese(II) bromide; phases: Liquid, Crystal
Property: Mass density, kg/m3 (Liquid); method: Vibrating tube method
Molality, mol/kg of manganese(II) bromide	Temperature, K	Mass density, kg/m3	uncertainty
0	283.15	958.068	0.203
0	293.15	948.556	0.201
0	298.15	943.79	0.2
0	303.15	939.012	0.199
0	313.15	929.43	0.198
0	323.15	919.799	0.198
0	333.15	910.108	0.197
0.04558	283.15	966.845	0.201
0.04558	293.15	957.193	0.199
0.04558	298.15	952.34	0.198
0.04558	303.15	947.48	0.198
0.04558	313.15	937.775	0.196
0.04558	323.15	928.052	0.196
0.04558	333.15	918.27	0.196
0.06342	283.15	970.206	0.197
0.06342	293.15	960.483	0.195
0.06342	298.15	955.613	0.194
0.06342	303.15	950.738	0.194
0.06342	313.15	940.986	0.193
0.06342	323.15	931.216	0.193
0.06342	333.15	921.409	0.194
0.09167	283.15	975.483	0.196
0.09167	293.15	965.675	0.195
0.09167	298.15	960.769	0.194
0.09167	303.15	955.868	0.194
0.09167	313.15	946.06	0.193
0.09167	323.15	936.248	0.193
0.09167	333.15	926.411	0.194
0.1136	283.15	979.598	0.197
0.1136	293.15	969.721	0.195
0.1136	298.15	964.79	0.195
0.1136	303.15	959.866	0.194
0.1136	313.15	950.024	0.194
0.1136	323.15	940.181	0.194
0.1136	333.15	930.322	0.195
0.1357	283.15	983.754	0.197
0.1357	293.15	973.816	0.196
0.1357	298.15	968.861	0.196
0.1357	303.15	963.913	0.196
0.1357	313.15	954.038	0.195
0.1357	323.15	944.174	0.196
0.1357	333.15	934.3	0.196
0.1815	283.15	992.413	0.198
0.1815	293.15	982.372	0.197
0.1815	298.15	977.377	0.197
0.1815	303.15	972.389	0.197
0.1815	313.15	962.446	0.196
0.1815	323.15	952.526	0.197
0.1815	333.15	942.602	0.197
0.2232	283.15	1000.408	0.2
0.2232	293.15	990.283	0.199
0.2232	298.15	985.247	0.199
0.2232	303.15	980.228	0.199
0.2232	313.15	970.23	0.198
0.2232	323.15	960.258	0.199
0.2232	333.15	950.292	0.199
0.2659	283.15	1008.695	0.203
0.2659	293.15	998.486	0.201
0.2659	298.15	993.418	0.201
0.2659	303.15	988.36	0.201
0.2659	313.15	978.304	0.2
0.2659	323.15	968.285	0.2
0.2659	333.15	958.283	0.201
0.3076	283.15	1016.894	0.207
0.3076	293.15	1006.608	0.205
0.3076	298.15	1001.505	0.203
0.3076	303.15	996.42	0.203
0.3076	313.15	986.302	0.203
0.3076	323.15	976.237	0.203
0.3076	333.15	966.19	0.203
0.3463	283.15	1024.628	0.21
0.3463	293.15	1014.278	0.208
0.3463	298.15	1009.143	0.207
0.3463	303.15	1004.03	0.206
0.3463	313.15	993.865	0.205
0.3463	323.15	983.753	0.205
0.3463	333.15	973.662	0.205
0.3892	283.15	1033.286	0.213
0.3892	293.15	1022.862	0.211
0.3892	298.15	1017.695	0.21
0.3892	303.15	1012.547	0.209
0.3892	313.15	1002.325	0.207
0.3892	323.15	992.163	0.206
0.3892	333.15	982.03	0.207
0.4285	283.15	1041.321	0.215
0.4285	293.15	1030.834	0.213
0.4285	298.15	1025.64	0.212
0.4285	303.15	1020.464	0.211
0.4285	313.15	1010.192	0.21
0.4285	323.15	999.985	0.208
0.4285	333.15	989.82	0.208

System: dimethylformamide + cobalt(II) bromide; phases: Liquid, Crystal
Fixed: Temperature, K = 298.15
Property: Speed of sound, m/s (Liquid); method: Pulse-echo method
Molality, mol/kg of cobalt(II) bromide	Speed of sound, m/s	uncertainty
0.04202	1457.1	0.88
0.08348	1457.13	0.88
0.1252	1457	0.88
0.1652	1457.05	0.88
0.2048	1456.78	0.88
0.2432	1456.8	0.88
0.2827	1456.78	0.88
0.3945	1456.81	0.88

System: dimethylformamide + cobalt(II) bromide; phases: Liquid, Crystal
Property: Mass density, kg/m3 (Liquid); method: Vibrating tube method
Temperature, K	Molality, mol/kg of cobalt(II) bromide	Mass density, kg/m3	uncertainty
283.15	0	958.068	0.202
283.15	0.03	963.834	0.201
283.15	0.04202	966.096	0.198
283.15	0.05875	969.258	0.198
283.15	0.08348	973.918	0.198
283.15	0.1036	977.727	0.199
283.15	0.1252	981.863	0.2
283.15	0.1652	989.542	0.202
283.15	0.2048	997.3	0.205
283.15	0.2432	1004.931	0.207
283.15	0.2827	1012.871	0.211
283.15	0.3387	1024.35	0.216
283.15	0.3945	1036.048	0.219
293.15	0	948.556	0.201
293.15	0.03	954.235	0.2
293.15	0.04202	956.474	0.198
293.15	0.05875	959.6	0.198
293.15	0.08348	964.227	0.198
293.15	0.1036	968.006	0.199
293.15	0.1252	972.115	0.2
293.15	0.1652	979.761	0.201
293.15	0.2048	987.449	0.204
293.15	0.2432	995.026	0.206
293.15	0.2827	1002.914	0.21
293.15	0.3387	1014.335	0.214
293.15	0.3945	1025.934	0.217
298.15	0	943.79	0.2
298.15	0.03	949.426	0.199
298.15	0.04202	951.658	0.198
298.15	0.05875	954.776	0.198
298.15	0.08348	959.387	0.198
298.15	0.1036	963.155	0.199
298.15	0.1252	967.25	0.2
298.15	0.1652	974.875	0.201
298.15	0.2048	982.541	0.204
298.15	0.2432	990.098	0.206
298.15	0.2827	997.962	0.209
298.15	0.3387	1009.315	0.213
298.15	0.3945	1020.913	0.217
303.15	0	939.012	0.2
303.15	0.03	944.609	0.199
303.15	0.04202	946.841	0.198
303.15	0.05875	949.944	0.198
303.15	0.08348	954.541	0.198
303.15	0.1036	958.303	0.199
303.15	0.1252	962.385	0.2
303.15	0.1652	969.99	0.202
303.15	0.2048	977.638	0.204
303.15	0.2432	985.172	0.206
303.15	0.2827	993.02	0.209
303.15	0.3387	1004.342	0.212
303.15	0.3945	1015.91	0.216
313.15	0	929.43	0.2
313.15	0.03	934.97	0.198
313.15	0.04202	937.188	0.198
313.15	0.05875	940.272	0.198
313.15	0.08348	944.846	0.198
313.15	0.1036	948.593	0.2
313.15	0.1252	952.653	0.201
313.15	0.1652	960.22	0.202
313.15	0.2048	967.836	0.204
313.15	0.2432	975.333	0.206
313.15	0.2827	983.147	0.209
313.15	0.3387	994.401	0.212
313.15	0.3945	1005.926	0.215
323.15	0	919.799	0.2
323.15	0.03	925.3	0.199
323.15	0.04202	927.498	0.199
323.15	0.05875	930.568	0.199
323.15	0.08348	935.122	0.199
323.15	0.1036	938.853	0.2
323.15	0.1252	942.894	0.201
323.15	0.1652	950.432	0.202
323.15	0.2048	958.019	0.204
323.15	0.2432	965.48	0.206
323.15	0.2827	973.265	0.209
323.15	0.3387	984.49	0.212
323.15	0.3945	995.945	0.213
333.15	0	910.108	0.2
333.15	0.03	915.575	0.199
333.15	0.04202	917.754	0.199
333.15	0.05875	920.812	0.2
333.15	0.08348	925.347	0.2
333.15	0.1036	929.065	0.201
333.15	0.1252	933.091	0.202
333.15	0.1652	940.6	0.203
333.15	0.2048	948.164	0.205
333.15	0.2432	955.595	0.207
333.15	0.2827	963.35	0.209
333.15	0.3387	974.525	0.212
333.15	0.3945	985.946	0.214

System: dimethylformamide + nickel bromide; phases: Liquid, Crystal
Fixed: Temperature, K = 298.15
Property: Speed of sound, m/s (Liquid); method: Pulse-echo method
Molality, mol/kg of nickel bromide	Speed of sound, m/s	uncertainty
0.04112	1460.02	0.88
0.05368	1460.77	0.88
0.06938	1461.78	0.88
0.08151	1462.45	0.88
0.09903	1463.52	0.88
0.1157	1464.59	0.88
0.1371	1465.66	0.88
0.1547	1466.73	0.88

System: dimethylformamide + nickel bromide; phases: Liquid, Crystal
Property: Mass density, kg/m3 (Liquid); method: Vibrating tube method
Temperature, K	Molality, mol/kg of nickel bromide	Mass density, kg/m3	uncertainty
283.15	0	958.187	0.227
283.15	0.02369	963.361	0.227
283.15	0.03148	965.054	0.225
283.15	0.04112	967.14	0.225
283.15	0.05368	969.858	0.225
283.15	0.06938	973.267	0.225
283.15	0.08151	975.914	0.226
283.15	0.09903	979.75	0.227
283.15	0.1157	983.419	0.228
283.15	0.1371	988.15	0.228
283.15	0.1547	992.055	0.228
293.15	0	948.678	0.228
293.15	0.02369	953.834	0.227
293.15	0.03148	955.522	0.226
293.15	0.04112	957.6	0.225
293.15	0.05368	960.305	0.225
293.15	0.06938	963.705	0.226
293.15	0.08151	966.34	0.227
293.15	0.09903	970.163	0.227
293.15	0.1157	973.822	0.228
293.15	0.1371	978.534	0.228
293.15	0.1547	982.429	0.228
298.15	0	943.91	0.228
298.15	0.02369	949.057	0.227
298.15	0.03148	950.744	0.226
298.15	0.04112	952.816	0.225
298.15	0.05368	955.522	0.226
298.15	0.06938	958.913	0.226
298.15	0.08151	961.541	0.227
298.15	0.09903	965.361	0.227
298.15	0.1157	969.011	0.228
298.15	0.1371	973.715	0.228
298.15	0.1547	977.602	0.228
303.15	0	939.138	0.228
303.15	0.02369	944.276	0.227
303.15	0.03148	945.955	0.226
303.15	0.04112	948.026	0.226
303.15	0.05368	950.728	0.226
303.15	0.06938	954.111	0.226
303.15	0.08151	956.736	0.227
303.15	0.09903	960.542	0.227
303.15	0.1157	964.186	0.228
303.15	0.1371	968.879	0.228
303.15	0.1547	972.758	0.228
313.15	0	929.557	0.229
313.15	0.02369	934.677	0.228
313.15	0.03148	936.347	0.226
313.15	0.04112	938.412	0.226
313.15	0.05368	941.104	0.226
313.15	0.06938	944.472	0.226
313.15	0.08151	947.088	0.227
313.15	0.09903	950.873	0.227
313.15	0.1157	954.494	0.228
313.15	0.1371	959.163	0.228
313.15	0.1547	963.014	0.226
323.15	0	919.923	0.23
323.15	0.02369	925.029	0.228
323.15	0.03148	926.693	0.227
323.15	0.04112	928.746	0.226
323.15	0.05368	931.427	0.226
323.15	0.06938	934.77	0.226
323.15	0.08151	937.37	0.227
323.15	0.09903	941.123	0.227
323.15	0.1157	944.711	0.227
323.15	0.1371	949.329	0.227
323.15	0.1547	953.136	0.224
333.15	0	910.235	0.23
333.15	0.02369	915.32	0.229
333.15	0.03148	916.975	0.227
333.15	0.04112	919.016	0.226
333.15	0.05368	921.67	0.226
333.15	0.06938	924.986	0.225
333.15	0.08151	927.549	0.225
333.15	0.09903	931.252	0.225
333.15	0.1157	934.781	0.225
333.15	0.1371	939.319	0.225
333.15	0.1547	943.064	0.225

System: dimethylformamide + copper dibromide; phases: Liquid, Crystal
Fixed: Temperature, K = 298.15
Property: Speed of sound, m/s (Liquid); method: Pulse-echo method
Molality, mol/kg of copper dibromide	Speed of sound, m/s	uncertainty
0.04286	1455.68	0.88
0.08263	1454.31	0.88
0.1241	1452.95	0.88
0.1691	1451.5	0.88
0.2091	1450.45	0.88
0.2487	1449.4	0.88
0.2879	1448.35	0.88
0.3467	1446.61	0.88
0.4023	1445.36	0.88

System: dimethylformamide + copper dibromide; phases: Liquid, Crystal
Property: Mass density, kg/m3 (Liquid); method: Vibrating tube method
Temperature, K	Molality, mol/kg of copper dibromide	Mass density, kg/m3	uncertainty
283.15	0	958.068	0.196
283.15	0.04286	965.995	0.195
283.15	0.05879	968.968	0.197
283.15	0.08263	973.445	0.198
283.15	0.1047	977.622	0.199
283.15	0.1241	981.332	0.2
283.15	0.1691	989.989	0.202
283.15	0.2091	997.818	0.204
283.15	0.2487	1005.694	0.208
283.15	0.2879	1013.597	0.212
283.15	0.3467	1025.654	0.216
283.15	0.4023	1037.332	0.219
293.15	0	948.565	0.196
293.15	0.04286	956.43	0.195
293.15	0.05879	959.381	0.197
293.15	0.08263	963.825	0.197
293.15	0.1047	967.97	0.199
293.15	0.1241	971.651	0.2
293.15	0.1691	980.251	0.201
293.15	0.2091	988.028	0.204
293.15	0.2487	995.855	0.206
293.15	0.2879	1003.707	0.21
293.15	0.3467	1015.689	0.214
293.15	0.4023	1027.293	0.218
298.15	0	943.79	0.195
298.15	0.04286	951.625	0.195
298.15	0.05879	954.568	0.197
298.15	0.08263	958.995	0.197
298.15	0.1047	963.128	0.199
298.15	0.1241	966.798	0.2
298.15	0.1691	975.37	0.201
298.15	0.2091	983.124	0.204
298.15	0.2487	990.929	0.206
298.15	0.2879	998.753	0.209
298.15	0.3467	1010.694	0.213
298.15	0.4023	1022.26	0.217
303.15	0	939.012	0.196
303.15	0.04286	946.82	0.195
303.15	0.05879	949.748	0.197
303.15	0.08263	954.16	0.197
303.15	0.1047	958.277	0.199
303.15	0.1241	961.938	0.2
303.15	0.1691	970.481	0.201
303.15	0.2091	978.206	0.204
303.15	0.2487	985.982	0.206
303.15	0.2879	993.78	0.209
303.15	0.3467	1005.692	0.213
303.15	0.4023	1017.224	0.216
313.15	0	929.43	0.196
313.15	0.04286	937.178	0.195
313.15	0.05879	940.087	0.197
313.15	0.08263	944.467	0.197
313.15	0.1047	948.552	0.199
313.15	0.1241	952.188	0.2
313.15	0.1691	960.674	0.201
313.15	0.2091	968.344	0.204
313.15	0.2487	976.068	0.206
313.15	0.2879	983.816	0.209
313.15	0.3467	995.649	0.212
313.15	0.4023	1007.108	0.214
323.15	0	919.799	0.196
323.15	0.04286	927.489	0.195
323.15	0.05879	930.375	0.197
323.15	0.08263	934.725	0.198
323.15	0.1047	938.778	0.199
323.15	0.1241	942.388	0.201
323.15	0.1691	950.814	0.201
323.15	0.2091	958.435	0.204
323.15	0.2487	966.105	0.206
323.15	0.2879	973.798	0.209
323.15	0.3467	985.555	0.211
323.15	0.4023	996.934	0.213
333.15	0	910.108	0.196
333.15	0.04286	917.743	0.196
333.15	0.05879	920.61	0.197
333.15	0.08263	924.925	0.198
333.15	0.1047	928.955	0.199
333.15	0.1241	932.534	0.201
333.15	0.1691	940.9	0.201
333.15	0.2091	948.463	0.204
333.15	0.2487	956.082	0.206
333.15	0.2879	963.715	0.209
333.15	0.3467	975.398	0.211
333.15	0.4023	986.695	0.213

System: dimethylformamide + zinc bromide; phases: Liquid, Crystal
Fixed: Temperature, K = 298.15
Property: Speed of sound, m/s (Liquid); method: Pulse-echo method
Molality, mol/kg of zinc bromide	Speed of sound, m/s	uncertainty
0.0418	1455.32	0.88
0.0571	1454.66	0.88
0.08175	1453.6	0.88
0.09949	1452.9	0.88
0.1197	1452	0.88
0.1593	1450.45	0.88
0.196	1448.9	0.88
0.2356	1447.3	0.88
0.2742	1445.91	0.88
0.3124	1444.52	0.88
0.3476	1443.13	0.88
0.3838	1441.75	0.88

System: dimethylformamide + zinc bromide; phases: Liquid, Crystal
Property: Mass density, kg/m3 (Liquid); method: Vibrating tube method
Temperature, K	Molality, mol/kg of zinc bromide	Mass density, kg/m3	uncertainty
283.15	0	958.187	0.186
283.15	0.0418	965.511	0.186
283.15	0.0571	968.224	0.188
283.15	0.08175	972.633	0.189
283.15	0.09949	975.83	0.191
283.15	0.1197	979.509	0.192
283.15	0.1593	986.779	0.193
283.15	0.196	993.634	0.196
283.15	0.2356	1001.142	0.198
283.15	0.2742	1008.57	0.202
283.15	0.3124	1016.021	0.205
283.15	0.3476	1023.014	0.209
283.15	0.3838	1030.3	0.211
293.15	0	948.678	0.186
293.15	0.0418	955.942	0.186
293.15	0.0571	958.633	0.188
293.15	0.08175	963.002	0.189
293.15	0.09949	966.173	0.19
293.15	0.1197	969.82	0.19
293.15	0.1593	977.035	0.193
293.15	0.196	983.833	0.195
293.15	0.2356	991.277	0.198
293.15	0.2742	998.643	0.2
293.15	0.3124	1006.037	0.203
293.15	0.3476	1012.963	0.207
293.15	0.3838	1020.201	0.209
298.15	0	943.91	0.186
298.15	0.0418	951.145	0.186
298.15	0.0571	953.826	0.188
298.15	0.08175	958.179	0.189
298.15	0.09949	961.336	0.19
298.15	0.1197	964.971	0.192
298.15	0.1593	972.147	0.193
298.15	0.196	978.918	0.195
298.15	0.2356	986.336	0.197
298.15	0.2742	993.671	0.2
298.15	0.3124	1001.041	0.202
298.15	0.3476	1007.94	0.21
298.15	0.3838	1015.151	0.208
303.15	0	939.138	0.187
303.15	0.0418	946.343	0.186
303.15	0.0571	949.013	0.188
303.15	0.08175	953.349	0.189
303.15	0.09949	956.494	0.19
303.15	0.1197	960.115	0.192
303.15	0.1593	967.26	0.19
303.15	0.196	974.016	0.195
303.15	0.2356	981.396	0.197
303.15	0.2742	988.709	0.199
303.15	0.3124	996.04	0.2
303.15	0.3476	1002.914	0.205
303.15	0.3838	1010.109	0.207
313.15	0	929.557	0.187
313.15	0.0418	936.713	0.186
313.15	0.0571	939.365	0.189
313.15	0.08175	943.67	0.189
313.15	0.09949	946.79	0.19
313.15	0.1197	950.383	0.192
313.15	0.1593	957.485	0.193
313.15	0.196	964.176	0.195
313.15	0.2356	971.504	0.197
313.15	0.2742	978.762	0.199
313.15	0.3124	986.038	0.201
313.15	0.3476	992.859	0.204
313.15	0.3838	999.987	0.205
323.15	0	919.923	0.188
323.15	0.0418	927.035	0.187
323.15	0.0571	929.669	0.189
323.15	0.08175	933.944	0.189
323.15	0.09949	937.044	0.191
323.15	0.1197	940.615	0.192
323.15	0.1593	947.666	0.193
323.15	0.196	954.312	0.195
323.15	0.2356	961.587	0.197
323.15	0.2742	968.795	0.199
323.15	0.3124	976.02	0.201
323.15	0.3476	982.799	0.204
323.15	0.3838	989.869	0.204
333.15	0	910.235	0.188
333.15	0.0418	917.303	0.188
333.15	0.0571	919.92	0.189
333.15	0.08175	924.17	0.19
333.15	0.09949	927.252	0.191
333.15	0.1197	930.799	0.192
333.15	0.1593	937.803	0.193
333.15	0.196	944.405	0.195
333.15	0.2356	951.634	0.197
333.15	0.2742	958.793	0.199
333.15	0.3124	965.974	0.201
333.15	0.3476	972.705	0.204
333.15	0.3838	979.732	0.204
