Measured thermophysical data. Excess Molar Volume and Viscosity Deviation for the Binary Mixture of Diethylene Glycol Monobutyl Ether + Water from (293.15 to 333.15) K at Atmospheric Pressure
Source: J. Chem. Eng. Data, 2009, 10.1021/je800684x
Compound 1: 3,6-dioxa-1-decanol, C8H18O3, InChI=1S/C8H18O3/c1-2-3-5-10-7-8-11-6-4-9/h9H,2-8H2,1H3
Compound 2: water, H2O, InChI=1S/H2O/h1H2

System: 3,6-dioxa-1-decanol; phases: Liquid
Fixed: Pressure, kPa = 101
Property: Viscosity, Pa*s (Liquid); method: Capillary tube (Ostwald; Ubbelohde) method
Temperature, K	Viscosity, Pa*s	uncertainty
293.15	0.00584	4e-05
303.15	0.00423	3e-05
313.15	0.00322	3e-05
323.15	0.00251	2e-05
333.15	0.002	2e-05

System: 3,6-dioxa-1-decanol; phases: Liquid
Fixed: Pressure, kPa = 101
Property: Mass density, kg/m3 (Liquid); method: Pycnometric method
Temperature, K	Mass density, kg/m3	uncertainty
293.15	952.9	1
303.15	943.5	1
313.15	935.7	1
323.15	926.6	1
333.15	918.5	1

System: water; phases: Liquid
Fixed: Pressure, kPa = 101
Property: Mass density, kg/m3 (Liquid); method: Pycnometric method
Temperature, K	Mass density, kg/m3	uncertainty
293.15	998.2	1
303.15	995.7	1
313.15	992.2	1
323.15	988.1	1
333.15	983.2	1

System: 3,6-dioxa-1-decanol + water; phases: Liquid
Fixed: Pressure, kPa = 101
Property: Viscosity, Pa*s (Liquid); method: Capillary tube (Ostwald; Ubbelohde) method
Temperature, K	Mole fraction of 3,6-dioxa-1-decanol	Viscosity, Pa*s	uncertainty
293.15	0	0.001005	6e-06
293.15	0.01221	0.00152	1e-05
293.15	0.02709	0.00226	2e-05
293.15	0.04539	0.00318	2e-05
293.15	0.0689	0.00435	3e-05
293.15	0.09981	0.00557	3e-05
293.15	0.1428	0.00678	4e-05
293.15	0.2062	0.00794	4e-05
293.15	0.3078	0.00842	5e-05
293.15	0.4037	0.00824	5e-05
293.15	0.5015	0.00784	5e-05
293.15	0.6107	0.00735	5e-05
293.15	0.705	0.00694	5e-05
293.15	0.7958	0.00656	5e-05
293.15	0.8932	0.0062	4e-05
293.15	1	0.00584	4e-05
303.15	0	0.0008007	5.3e-06
303.15	0.01221	0.00115	1e-05
303.15	0.02709	0.00164	1e-05
303.15	0.04539	0.00231	2e-05
303.15	0.0689	0.0031	2e-05
303.15	0.09981	0.00393	2e-05
303.15	0.1428	0.00474	3e-05
303.15	0.2062	0.00544	3e-05
303.15	0.3078	0.00578	3e-05
303.15	0.4037	0.00575	4e-05
303.15	0.5015	0.00555	4e-05
303.15	0.6107	0.00527	4e-05
303.15	0.705	0.005	3e-05
303.15	0.7958	0.00476	3e-05
303.15	0.8932	0.00449	3e-05
303.15	1	0.00423	3e-05
313.15	0	0.000656	4.4e-06
313.15	0.01221	0.000908	7e-06
313.15	0.02709	0.00127	1e-05
313.15	0.04539	0.00176	1e-05
313.15	0.0689	0.00232	2e-05
313.15	0.09981	0.00288	2e-05
313.15	0.1428	0.00344	2e-05
313.15	0.2062	0.00388	2e-05
313.15	0.3078	0.00416	3e-05
313.15	0.4037	0.00416	3e-05
313.15	0.5015	0.00404	3e-05
313.15	0.6107	0.00386	3e-05
313.15	0.705	0.0037	3e-05
313.15	0.7958	0.00354	3e-05
313.15	0.8932	0.00338	3e-05
313.15	1	0.00322	3e-05
323.15	0	0.0005494	3.8e-06
323.15	0.01221	0.000738	6e-06
323.15	0.02709	0.00102	1e-05
323.15	0.04539	0.00138	1e-05
323.15	0.0689	0.00179	1e-05
323.15	0.09981	0.00219	1e-05
323.15	0.1428	0.00258	2e-05
323.15	0.2062	0.00287	2e-05
323.15	0.3078	0.00307	2e-05
323.15	0.4037	0.00308	2e-05
323.15	0.5015	0.00302	2e-05
323.15	0.6107	0.00291	2e-05
323.15	0.705	0.00281	2e-05
323.15	0.7958	0.00271	2e-05
323.15	0.8932	0.00261	2e-05
323.15	1	0.00251	2e-05
333.15	0	0.0004688	3.3e-06
333.15	0.01221	0.000609	5e-06
333.15	0.02709	0.000833	6e-06
333.15	0.04539	0.00112	1e-05
333.15	0.0689	0.00142	1e-05
333.15	0.09981	0.00171	1e-05
333.15	0.1428	0.00197	1e-05
333.15	0.2062	0.00219	1e-05
333.15	0.3078	0.00235	2e-05
333.15	0.4037	0.00237	2e-05
333.15	0.5015	0.00233	2e-05
333.15	0.6107	0.00226	2e-05
333.15	0.705	0.00219	2e-05
333.15	0.7958	0.00213	2e-05
333.15	0.8932	0.00206	2e-05
333.15	1	0.002	2e-05

System: 3,6-dioxa-1-decanol + water; phases: Liquid
Fixed: Pressure, kPa = 101
Property: Mass density, kg/m3 (Liquid); method: Pycnometric method
Temperature, K	Mole fraction of 3,6-dioxa-1-decanol	Mass density, kg/m3	uncertainty
293.15	0	998.2	1
293.15	0.01221	1000.9	1
293.15	0.02709	1001.9	1
293.15	0.04539	1000.6	1
293.15	0.0689	997.8	1
293.15	0.09981	994.1	1
293.15	0.1428	990.1	1
293.15	0.2062	984.3	1
293.15	0.3078	976.8	1
293.15	0.4037	971.1	1
293.15	0.5015	966.4	1
293.15	0.6107	962.4	1
293.15	0.705	959.5	1
293.15	0.7958	957.1	1
293.15	0.8932	954.9	1
293.15	1	952.9	1
303.15	0	995.7	1
303.15	0.01221	996.8	1
303.15	0.02709	996.4	1
303.15	0.04539	993.4	1
303.15	0.0689	990.7	1
303.15	0.09981	986.6	1
303.15	0.1428	981.8	1
303.15	0.2062	975.7	1
303.15	0.3078	967.9	1
303.15	0.4037	961.8	1
303.15	0.5015	957.1	1
303.15	0.6107	953	1
303.15	0.705	950.1	1
303.15	0.7958	947.7	1
303.15	0.8932	945.5	1
303.15	1	943.5	1
313.15	0	992.2	1
313.15	0.01221	992.3	1
313.15	0.02709	990.6	1
313.15	0.04539	987.4	1
313.15	0.0689	983.9	1
313.15	0.09981	979.3	1
313.15	0.1428	974.2	1
313.15	0.2062	967.7	1
313.15	0.3078	959.9	1
313.15	0.4037	953.9	1
313.15	0.5015	949.2	1
313.15	0.6107	945.1	1
313.15	0.705	942.2	1
313.15	0.7958	939.8	1
313.15	0.8932	937.7	1
313.15	1	935.7	1
323.15	0	988.1	1
323.15	0.01221	987	1
323.15	0.02709	984.9	1
323.15	0.04539	980.6	1
323.15	0.0689	976.2	1
323.15	0.09981	971.6	1
323.15	0.1428	965.8	1
323.15	0.2062	958.9	1
323.15	0.3078	950.8	1
323.15	0.4037	944.8	1
323.15	0.5015	940.1	1
323.15	0.6107	936	1
323.15	0.705	933.1	1
323.15	0.7958	930.7	1
323.15	0.8932	928.6	1
323.15	1	926.6	1
333.15	0	983.2	1
333.15	0.01221	981.4	1
333.15	0.02709	978.8	1
333.15	0.04539	974.1	1
333.15	0.0689	969	1
333.15	0.09981	964.3	1
333.15	0.1428	958	1
333.15	0.2062	950.8	1
333.15	0.3078	942.6	1
333.15	0.4037	936.7	1
333.15	0.5015	931.9	1
333.15	0.6107	927.9	1
333.15	0.705	924.9	1
333.15	0.7958	922.6	1
333.15	0.8932	920.4	1
333.15	1	918.5	1
