Measured thermophysical data. Solubilities of Amide Compounds in Supercritical Carbon Dioxide
Source: J. Chem. Eng. Data, 2008, 10.1021/je800434j
Compound 1: 2,2'-oxybis[N,N-diethylacetamide], C12H24N2O3, InChI=1S/C12H24N2O3/c1-5-13(6-2)11(15)9-17-10-12(16)14(7-3)8-4/h5-10H2,1-4H3
Compound 2: 2,2'-oxybis[N,N-dibutylacetamide], C20H40N2O3, InChI=1S/C20H40N2O3/c1-5-9-13-21(14-10-6-2)19(23)17-25-18-20(24)22(15-11-7-3)16-12-8-4/h5-18H2,1-4H3
Compound 3: 2,2'-oxybis[N,N-dihexylacetamide], C28H56N2O3, InChI=1S/C28H56N2O3/c1-5-9-13-17-21-29(22-18-14-10-6-2)27(31)25-33-26-28(32)30(23-19-15-11-7-3)24-20-16-12-8-4/h5-26H2,1-4H3
Compound 4: carbon dioxide, CO2, InChI=1S/CO2/c2-1-3

System: carbon dioxide + 2,2'-oxybis[N,N-diethylacetamide]; phases: Gas, Liquid
Property: Mole fraction of 2,2'-oxybis[N,N-diethylacetamide] (Gas); method: Phase equilibration
Temperature, K	Pressure, kPa	Mole fraction of 2,2'-oxybis[N,N-diethylacetamide]	uncertainty
313	8700	0.00223	0.00026
313	8800	0.00346	0.00041
313	9000	0.00613	0.00072
313	9100	0.00876	0.00103
313	9200	0.01123	0.00132
323	10100	0.00227	0.00027
323	10300	0.00356	0.00042
323	10700	0.00639	0.00075
323	11000	0.00896	0.00105
323	11100	0.01171	0.00138
333	11300	0.00237	0.00028
333	11600	0.00373	0.00044
333	12200	0.00669	0.00079
333	12700	0.0093	0.00109
333	13300	0.01149	0.00135

System: carbon dioxide + 2,2'-oxybis[N,N-dibutylacetamide]; phases: Gas, Liquid
Property: Mole fraction of 2,2'-oxybis[N,N-dibutylacetamide] (Gas); method: Phase equilibration
Temperature, K	Pressure, kPa	Mole fraction of 2,2'-oxybis[N,N-dibutylacetamide]	uncertainty
313	8800	0.00152	0.00018
313	8900	0.00237	0.00028
313	9100	0.00512	0.0006
313	9200	0.00697	0.00082
313	9300	0.00794	0.00093
323	10300	0.00156	0.00018
323	10600	0.0024	0.00028
323	11100	0.00556	0.00065
323	11200	0.0063	0.00074
323	11400	0.00812	0.00096
333	11500	0.00167	0.0002
333	11900	0.00258	0.0003
333	12400	0.00473	0.00056
333	12700	0.00679	0.0008
333	13100	0.0086	0.00101

System: carbon dioxide + 2,2'-oxybis[N,N-dihexylacetamide]; phases: Gas, Liquid
Property: Mole fraction of 2,2'-oxybis[N,N-dihexylacetamide] (Gas); method: Phase equilibration
Temperature, K	Pressure, kPa	Mole fraction of 2,2'-oxybis[N,N-dihexylacetamide]	uncertainty
313	9000	0.00106	0.00106
313	9400	0.00152	0.00152
313	9900	0.00279	0.00089
313	10300	0.00401	0.002
313	10500	0.00526	0.002
323	10500	0.00117	0.00103
323	10900	0.00176	0.00091
323	12200	0.00291	0.00125
323	12600	0.00422	0.00131
323	13800	0.00522	0.00104
333	11800	0.00124	0.00091
333	12700	0.00179	0.00113
333	13900	0.00312	0.00105
333	15200	0.00426	0.00103
333	16400	0.00536	0.00111
