Measured thermophysical data. Study of the Effects of Temperature and Pressure on the Thermodynamic and Acoustic Properties of Pentan-1-ol, 2-Methyl-2-butanol, and Cyclopentanol in the Pressure Range from (0.1 to 100) MPa and Temperature from (293 to 318) K
Source: J. Chem. Eng. Data, 2009, 10.1021/je8009418
Compound 1: pentan-1-ol, C5H12O, InChI=1S/C5H12O/c1-2-3-4-5-6/h6H,2-5H2,1H3, purity 98%
Compound 2: 2-methylbutan-2-ol, C5H12O, InChI=1S/C5H12O/c1-4-5(2,3)6/h6H,4H2,1-3H3, purity 99%
Compound 3: cyclopentanol, C5H10O, InChI=1S/C5H10O/c6-5-3-1-2-4-5/h5-6H,1-4H2, purity 99%

System: pentan-1-ol; phases: Liquid
Property: Mass density, kg/m3 (Liquid); method: Vibrating tube method
Temperature, K	Pressure, kPa	Mass density, kg/m3	uncertainty
298.15	101.325	810.84	0.19

System: pentan-1-ol; phases: Liquid
Property: Speed of sound, m/s (Liquid); method: Pulse-echo method
Temperature, K	Pressure, kPa	Speed of sound, m/s	uncertainty
298.15	101.325	1275.24	1.45

System: pentan-1-ol; phases: Liquid
Fixed: Pressure, kPa = 101.325
Property: Mass density, kg/m3 (Liquid); method: Vibrating tube method
Temperature, K	Mass density, kg/m3	uncertainty
293.15	814.5	0.186
298.15	810.84	0.187
303.149	807.155	0.188
308.153	803.442	0.189
313.148	799.705	0.19
318.151	795.912	0.191

System: pentan-1-ol; phases: Liquid
Property: Speed of sound, m/s (Liquid); method: Pulse-echo method
Temperature, K	Pressure, kPa	Speed of sound, m/s	uncertainty
292.81	100	1293.9	1.4
292.88	76010	1611.23	2.37
292.88	91210	1659.95	2.41
292.88	101330	1691.4	2.45
292.91	45590	1501.59	2.3
292.91	60810	1558.29	2.34
292.95	15200	1371.49	2.23
292.96	30400	1439.68	2.27
297.93	30400	1424.76	2.27
297.93	45600	1487.07	2.3
297.93	60800	1544.35	2.34
297.93	75990	1597.6	2.38
297.93	91190	1647.33	2.42
297.93	101340	1678.66	2.45
297.94	15200	1355.47	2.24
298.18	100	1275.13	1.4
303.05	45600	1472.84	2.3
303.06	15200	1339.33	2.24
303.06	30410	1409.73	2.27
303.06	91180	1634.58	2.42
303.06	101330	1666.32	2.45
303.1	60790	1530.59	2.34
303.1	76000	1584.09	2.38
303.15	100	1257.97	1.4
308.04	45600	1459.02	2.3
308.05	76000	1571.63	2.38
308.06	60800	1517.53	2.34
308.06	91210	1622.45	2.42
308.06	101330	1654.25	2.45
308.08	15200	1323.46	2.24
308.08	30400	1394.79	2.27
308.13	100	1240.94	1.39
313.02	101340	1642.93	2.45
313.03	30400	1380.74	2.27
313.03	60790	1504.83	2.34
313.03	75990	1559.24	2.38
313.03	91190	1610.72	2.42
313.04	15210	1308.45	2.24
313.05	45600	1445.47	2.3
313.11	100	1224.06	1.39
318.49	76000	1546.38	2.38
318.49	91200	1598.1	2.43
318.5	60800	1491.19	2.34
318.51	45590	1431.27	2.31
318.51	101330	1630.77	2.45
318.52	15200	1292.04	2.25
318.52	30400	1365.43	2.27
318.68	100	1205.45	1.39

System: 2-methylbutan-2-ol; phases: Liquid
Property: Speed of sound, m/s (Liquid); method: Pulse-echo method
Temperature, K	Pressure, kPa	Speed of sound, m/s	uncertainty
298.15	101.325	1177.79	1.6

System: 2-methylbutan-2-ol; phases: Liquid
Fixed: Pressure, kPa = 101.325
Property: Mass density, kg/m3 (Liquid); method: Vibrating tube method
Temperature, K	Mass density, kg/m3	uncertainty
293.154	808.891	0.241
298.155	804.3	0.242
303.156	799.66	0.242
308.156	794.954	0.243
313.155	790.176	0.243
318.154	785.312	0.244

System: 2-methylbutan-2-ol; phases: Liquid
Property: Speed of sound, m/s (Liquid); method: Pulse-echo method
Temperature, K	Pressure, kPa	Speed of sound, m/s	uncertainty
292.86	15200	1290.79	2.34
292.86	30390	1369.65	2.38
292.86	45590	1440.87	2.42
292.86	60790	1505.95	2.47
292.86	75990	1566.11	2.51
292.86	91180	1623.13	2.56
292.86	101320	1658.53	2.59
292.9	100	1196.68	1.56
298.15	15200	1274.22	2.35
298.15	30390	1354.4	2.38
298.15	45590	1426.29	2.42
298.15	60790	1491.48	2.47
298.15	75990	1551.92	2.51
298.15	91180	1608.65	2.57
298.15	101320	1644.42	2.6
298.17	100	1177.76	1.56
303.13	30390	1339.71	2.38
303.13	45590	1412.26	2.42
303.13	91180	1595.59	2.56
303.13	101320	1631.38	2.6
303.14	15200	1258.55	2.35
303.14	60790	1478.06	2.47
303.14	75990	1538.62	2.51
303.15	100	1159.8	1.56
308.12	100	1141.91	1.56
308.12	15200	1242.61	2.35
308.12	30390	1324.91	2.38
308.12	45590	1398.03	2.42
308.12	60790	1464.69	2.47
308.12	75990	1525.64	2.51
308.12	91180	1582.62	2.56
308.12	101320	1618.96	2.6
313.1	100	1123.98	1.56
313.1	45590	1384.09	2.42
313.1	60790	1451.15	2.47
313.1	75990	1512.77	2.51
313.1	91180	1569.88	2.56
313.11	15200	1226.63	2.35
313.11	30390	1310.06	2.38
313.11	101320	1606.18	2.6
318.18	15200	1210.4	2.37
318.18	60790	1437.9	2.47
318.18	75990	1499.85	2.52
318.18	101320	1593.86	2.6
318.19	30390	1295.23	2.39
318.19	45590	1370.11	2.43
318.19	91180	1557.15	2.57
318.29	100	1105.29	1.55

System: cyclopentanol; phases: Liquid
Property: Speed of sound, m/s (Liquid); method: Pulse-echo method
Temperature, K	Pressure, kPa	Speed of sound, m/s	uncertainty
298.15	101.325	1435.11	1.63

System: cyclopentanol; phases: Liquid
Fixed: Pressure, kPa = 101.325
Property: Mass density, kg/m3 (Liquid); method: Vibrating tube method
Temperature, K	Mass density, kg/m3	uncertainty
293.154	946.792	0.235
298.154	942.856	0.235
303.156	938.874	0.235
308.155	934.843	0.235
313.155	930.754	0.235
318.148	926.613	0.236

System: cyclopentanol; phases: Liquid
Property: Speed of sound, m/s (Liquid); method: Pulse-echo method
Temperature, K	Pressure, kPa	Speed of sound, m/s	uncertainty
292.85	15200	1519.52	2.36
292.85	30390	1576.3	2.39
292.85	45590	1629.14	2.41
292.85	60790	1677.79	2.44
292.85	75990	1723.91	2.47
292.85	91180	1767.22	2.5
292.85	101320	1794.98	2.53
292.86	100	1454.43	1.6
298.14	15200	1500.37	2.37
298.14	30390	1557.78	2.39
298.14	45590	1611.51	2.41
298.14	60790	1660.96	2.44
298.14	75990	1707.2	2.47
298.14	91180	1751.19	2.5
298.14	101320	1779.31	2.53
298.17	100	1435.02	1.6
303.12	15200	1482.15	2.37
303.12	30390	1540.43	2.39
303.12	45590	1595.06	2.41
303.12	60790	1645.63	2.44
303.12	75990	1692.59	2.47
303.12	91180	1737.24	2.5
303.12	101320	1765.46	2.53
303.15	100	1416.87	1.6
308.11	15200	1464.83	2.36
308.11	30390	1524.45	2.38
308.11	45590	1579.44	2.41
308.11	60790	1630.62	2.44
308.11	75990	1678.03	2.47
308.11	101320	1751.59	2.53
308.12	91180	1722.96	2.51
308.13	100	1398.71	1.59
313.09	15200	1447.62	2.36
313.09	30390	1508.35	2.38
313.09	45590	1563.96	2.41
313.09	60790	1616.12	2.44
313.09	75990	1664.14	2.47
313.09	91180	1709.54	2.51
313.09	101320	1738.58	2.53
313.12	100	1380.61	1.59
318.19	15200	1430.75	2.37
318.19	45590	1548.63	2.41
318.19	60790	1601.42	2.44
318.19	75990	1650.3	2.47
318.19	101320	1725.29	2.53
318.2	30390	1492.37	2.39
318.2	91180	1695.85	2.51
318.29	100	1361.75	1.59
