Measured thermophysical data. Setup and Validation of a PGT Measuring Device. Volumetric Behavior of the Mixture 1,8-Cineole + Ethanol
Source: J. Chem. Eng. Data, 2008, 10.1021/je800024u
Compound 1: hexane, C6H14, InChI=1S/C6H14/c1-3-5-6-4-2/h3-6H2,1-2H3
Compound 2: hexan-1-ol, C6H14O, InChI=1S/C6H14O/c1-2-3-4-5-6-7/h7H,2-6H2,1H3
Compound 3: ethanol, C2H6O, InChI=1S/C2H6O/c1-2-3/h3H,2H2,1H3
Compound 4: 1,3,3-trimethyl-2-oxabicyclo[2.2.2]octane, C10H18O, InChI=1S/C10H18O/c1-9(2)8-4-6-10(3,11-9)7-5-8/h8H,4-7H2,1-3H3

System: hexane; phases: Liquid
Property: Mass density, kg/m3 (Liquid); method: VIBTUB:UFactor:6
Temperature, K	Pressure, kPa	Mass density, kg/m3	uncertainty
278.15	100	670.8	1.3
278.15	5000	675.9	1.7
278.15	10000	680.5	2.2
278.15	15000	683.5	2.6
278.15	20000	688.7	3.1
283.15	100	667.5	1.3
283.15	5000	671.8	1.7
283.15	10000	676.2	2.2
283.15	15000	680.7	2.7
283.15	20000	684.4	3.1
288.15	100	664	1.3
288.15	5000	668.5	1.8
288.15	10000	672.9	2.2
288.15	15000	677.6	2.7
288.15	20000	681.3	3.1
293.15	100	658.8	1.3
293.15	5000	663.7	1.8
293.15	10000	668.8	2.3
293.15	15000	672.8	2.7
293.15	20000	677.4	3.2
298.15	100	654.2	1.3
298.15	5000	659.5	1.8
298.15	10000	664.7	2.3
298.15	15000	669.2	2.7
298.15	20000	673.2	3.2
303.15	100	649.8	1.3
303.15	5000	655.5	1.8
303.15	10000	660.2	2.3
303.15	15000	664.9	2.8
303.15	20000	669.3	3.2
308.15	100	645.1	1.3
308.15	5000	651.1	1.8
308.15	10000	656.3	2.3
308.15	15000	661.2	2.8
308.15	20000	666	3.3
313.15	100	641.3	1.4
313.15	5000	647.3	1.9
313.15	10000	652.8	2.4
313.15	15000	657.4	2.8
313.15	20000	662.5	3.3

System: hexan-1-ol; phases: Liquid
Property: Mass density, kg/m3 (Liquid); method: VIBTUB:UFactor:6
Temperature, K	Pressure, kPa	Mass density, kg/m3	uncertainty
278.15	100	829.2	0.9
278.15	5000	832.2	1.2
278.15	10000	835.1	1.4
278.15	15000	837.8	1.6
278.15	20000	840.7	1.9
283.15	100	825.8	0.9
283.15	5000	828.7	1.2
283.15	10000	831.6	1.4
283.15	15000	834.5	1.7
283.15	20000	837.4	1.9
288.15	100	822.1	1
288.15	5000	825.2	1.2
288.15	10000	828.2	1.4
288.15	15000	831.3	1.7
288.15	20000	834	1.9
293.15	100	818.7	1
293.15	5000	821.9	1.2
293.15	10000	824.9	1.5
293.15	15000	827.9	1.7
293.15	20000	830.7	1.9
298.15	100	815.1	1
298.15	5000	818.3	1.2
298.15	10000	821.5	1.5
298.15	15000	824.6	1.7
298.15	20000	827.5	2
303.15	100	811.4	1
303.15	5000	814.8	1.2
303.15	10000	818	1.5
303.15	15000	821.1	1.8
303.15	20000	824.2	2
308.15	100	808	1
308.15	5000	811.3	1.3
308.15	10000	814.6	1.5
308.15	15000	817.8	1.8
308.15	20000	820.9	2
313.15	100	804.2	1
313.15	5000	807.6	1.3
313.15	10000	811	1.5
313.15	15000	814.3	1.8
313.15	20000	817.6	2.1

System: ethanol; phases: Liquid
Property: Mass density, kg/m3 (Liquid); method: VIBTUB:UFactor:4
Temperature, K	Pressure, kPa	Mass density, kg/m3	uncertainty
283.15	100	797.9	0.6
283.15	5000	802	0.8
283.15	10000	805.9	0.9
283.15	15000	809.7	1.1
283.15	20000	813.4	1.3
298.15	100	784.9	0.6
298.15	5000	789.3	0.8
298.15	10000	793.7	1
298.15	15000	797.8	1.2
298.15	20000	801.5	1.4
313.15	100	772	0.6
313.15	5000	777	0.8
313.15	10000	781.5	1
313.15	15000	786	1.2
313.15	20000	790.1	1.4

System: 1,3,3-trimethyl-2-oxabicyclo[2.2.2]octane; phases: Liquid
Property: Mass density, kg/m3 (Liquid); method: VIBTUB:UFactor:4
Temperature, K	Pressure, kPa	Mass density, kg/m3	uncertainty
283.15	100	933.3	0.5
283.15	5000	936.7	0.6
283.15	10000	939.9	0.6
283.15	15000	943.1	0.7
283.15	20000	946.2	0.7
298.15	100	920.4	0.5
298.15	5000	924.1	0.6
298.15	10000	927.7	0.7
298.15	15000	931.2	0.7
298.15	20000	934.4	0.8
313.15	100	907.3	0.6
313.15	5000	911.4	0.6
313.15	10000	915.2	0.7
313.15	15000	919	0.8
313.15	20000	922.5	0.8

System: ethanol + 1,3,3-trimethyl-2-oxabicyclo[2.2.2]octane; phases: Liquid
Property: Mass density, kg/m3 (Liquid); method: VIBTUB:UFactor:4
Temperature, K	Pressure, kPa	Mole fraction of 1,3,3-trimethyl-2-oxabicyclo[2.2.2]octane	Mass density, kg/m3	uncertainty
283.15	100	0	797.9	0.6
283.15	100	0.0983	833.3	0.5
283.15	100	0.1991	858.9	0.5
283.15	100	0.2954	877.2	0.4
283.15	100	0.3901	891.1	0.4
283.15	100	0.493	902.9	0.4
283.15	100	0.598	912.3	0.4
283.15	100	0.6981	919.3	0.5
283.15	100	0.7967	924.9	0.5
283.15	100	0.8898	929.2	0.5
283.15	100	1	933.3	0.5
283.15	5000	0	802	0.8
283.15	5000	0.0983	837.2	0.7
283.15	5000	0.1991	862.6	0.6
283.15	5000	0.2954	880.8	0.6
283.15	5000	0.3901	894.6	0.5
283.15	5000	0.493	906.4	0.5
283.15	5000	0.598	915.8	0.5
283.15	5000	0.6981	922.8	0.5
283.15	5000	0.7967	928.3	0.5
283.15	5000	0.8898	932.7	0.5
283.15	5000	1	936.7	0.6
283.15	10000	0	805.9	0.9
283.15	10000	0.0983	841	0.8
283.15	10000	0.1991	866.2	0.7
283.15	10000	0.2954	884.2	0.7
283.15	10000	0.3901	898	0.6
283.15	10000	0.493	909.7	0.6
283.15	10000	0.598	919.1	0.6
283.15	10000	0.6981	926	0.6
283.15	10000	0.7967	931.5	0.6
283.15	10000	0.8898	935.9	0.6
283.15	10000	1	939.9	0.6
283.15	15000	0	809.7	1.1
283.15	15000	0.0983	844.5	1
283.15	15000	0.1991	869.7	0.8
283.15	15000	0.2954	887.7	0.8
283.15	15000	0.3901	901.4	0.7
283.15	15000	0.493	913	0.7
283.15	15000	0.598	922.3	0.7
283.15	15000	0.6981	929.3	0.6
283.15	15000	0.7967	934.7	0.6
283.15	15000	0.8898	939	0.7
283.15	15000	1	943.1	0.7
283.15	20000	0	813.4	1.3
283.15	20000	0.0983	848	1.1
283.15	20000	0.1991	873	0.9
283.15	20000	0.2954	891	0.9
283.15	20000	0.3901	904.7	0.8
283.15	20000	0.493	916.2	0.7
283.15	20000	0.598	925.5	0.7
283.15	20000	0.6981	932.4	0.7
283.15	20000	0.7967	937.8	0.7
283.15	20000	0.8898	942.1	0.7
283.15	20000	1	946.2	0.7
298.15	100	0	784.9	0.6
298.15	100	0.0983	819.9	0.5
298.15	100	0.1991	845.7	0.5
298.15	100	0.2954	864.3	0.5
298.15	100	0.3901	878.2	0.5
298.15	100	0.493	889.9	0.5
298.15	100	0.598	899.3	0.5
298.15	100	0.6981	906.4	0.5
298.15	100	0.7967	912.1	0.5
298.15	100	0.8898	916.4	0.5
298.15	100	1	920.4	0.5
298.15	5000	0	789.3	0.8
298.15	5000	0.0983	823.9	0.7
298.15	5000	0.1991	849.7	0.6
298.15	5000	0.2954	868.1	0.6
298.15	5000	0.3901	882	0.6
298.15	5000	0.493	893.7	0.6
298.15	5000	0.598	903.1	0.5
298.15	5000	0.6981	910.2	0.6
298.15	5000	0.7967	915.8	0.6
298.15	5000	0.8898	920.1	0.6
298.15	5000	1	924.1	0.6
298.15	10000	0	793.7	1
298.15	10000	0.0983	828.1	0.9
298.15	10000	0.1991	853.7	0.8
298.15	10000	0.2954	872	0.7
298.15	10000	0.3901	885.7	0.7
298.15	10000	0.493	897.4	0.6
298.15	10000	0.598	906.7	0.6
298.15	10000	0.6981	913.8	0.6
298.15	10000	0.7967	919.3	0.6
298.15	10000	0.8898	923.6	0.6
298.15	10000	1	927.7	0.7
298.15	15000	0	797.8	1.2
298.15	15000	0.0983	832	1
298.15	15000	0.1991	857.5	0.9
298.15	15000	0.2954	875.7	0.8
298.15	15000	0.3901	889.4	0.8
298.15	15000	0.493	901.1	0.7
298.15	15000	0.598	910.3	0.7
298.15	15000	0.6981	917.3	0.7
298.15	15000	0.7967	922.7	0.7
298.15	15000	0.8898	927.1	0.7
298.15	15000	1	931.2	0.7
298.15	20000	0	801.5	1.4
298.15	20000	0.0983	835.5	1.2
298.15	20000	0.1991	861	1
298.15	20000	0.2954	879.1	0.9
298.15	20000	0.3901	892.7	0.9
298.15	20000	0.493	904.3	0.8
298.15	20000	0.598	913.5	0.8
298.15	20000	0.6981	920.4	0.8
298.15	20000	0.7967	925.9	0.8
298.15	20000	0.8898	930.2	0.8
298.15	20000	1	934.4	0.8
313.15	100	0	772	0.6
313.15	100	0.0983	807.2	0.6
313.15	100	0.1991	832.7	0.5
313.15	100	0.2954	851.2	0.5
313.15	100	0.3901	865	0.5
313.15	100	0.493	876.8	0.5
313.15	100	0.598	886.2	0.5
313.15	100	0.6981	893.3	0.5
313.15	100	0.7967	898.8	0.5
313.15	100	0.8898	903.2	0.5
313.15	100	1	907.3	0.6
313.15	5000	0	777	0.8
313.15	5000	0.0983	812	0.7
313.15	5000	0.1991	837.3	0.7
313.15	5000	0.2954	855.6	0.6
313.15	5000	0.3901	869.4	0.6
313.15	5000	0.493	881	0.6
313.15	5000	0.598	890.4	0.6
313.15	5000	0.6981	897.5	0.6
313.15	5000	0.7967	902.9	0.6
313.15	5000	0.8898	907.3	0.6
313.15	5000	1	911.4	0.6
313.15	10000	0	781.5	1
313.15	10000	0.0983	816.3	0.9
313.15	10000	0.1991	841.5	0.8
313.15	10000	0.2954	859.7	0.8
313.15	10000	0.3901	873.4	0.7
313.15	10000	0.493	884.9	0.7
313.15	10000	0.598	894.2	0.7
313.15	10000	0.6981	901.3	0.7
313.15	10000	0.7967	906.7	0.7
313.15	10000	0.8898	911	0.7
313.15	10000	1	915.2	0.7
313.15	15000	0	786	1.2
313.15	15000	0.0983	820.7	1.1
313.15	15000	0.1991	845.7	1
313.15	15000	0.2954	863.8	0.9
313.15	15000	0.3901	877.4	0.8
313.15	15000	0.493	888.9	0.8
313.15	15000	0.598	898.1	0.8
313.15	15000	0.6981	905.1	0.8
313.15	15000	0.7967	910.6	0.8
313.15	15000	0.8898	914.8	0.8
313.15	15000	1	919	0.8
313.15	20000	0	790.1	1.4
313.15	20000	0.0983	824.7	1.2
313.15	20000	0.1991	849.5	1.1
313.15	20000	0.2954	867.5	1
313.15	20000	0.3901	881.1	0.9
313.15	20000	0.493	892.5	0.9
313.15	20000	0.598	901.7	0.8
313.15	20000	0.6981	908.6	0.8
313.15	20000	0.7967	914.1	0.8
313.15	20000	0.8898	918.3	0.8
313.15	20000	1	922.5	0.8

System: hexane + hexan-1-ol; phases: Liquid
Property: Mass density, kg/m3 (Liquid); method: VIBTUB:UFactor:6
Temperature, K	Pressure, kPa	Mole fraction of hexan-1-ol	Mass density, kg/m3	uncertainty
278.15	100	0	670.8	1.3
278.15	100	0.1058	687.1	1.2
278.15	100	0.2097	703.3	1.2
278.15	100	0.3099	719.1	1.1
278.15	100	0.4149	735.7	1.1
278.15	100	0.4764	745.6	1.1
278.15	100	0.611	767.1	1
278.15	100	0.7116	783.2	1
278.15	100	0.8055	798.1	1
278.15	100	0.9039	813.6	1
278.15	100	1	829.2	0.9
278.15	5000	0	675.9	1.7
278.15	5000	0.1058	691.8	1.7
278.15	5000	0.2097	708	1.6
278.15	5000	0.3099	723.6	1.5
278.15	5000	0.4149	740	1.5
278.15	5000	0.4764	749.8	1.4
278.15	5000	0.611	771	1.4
278.15	5000	0.7116	786.9	1.3
278.15	5000	0.8055	801.6	1.3
278.15	5000	0.9039	817	1.2
278.15	5000	1	832.2	1.2
278.15	10000	0	680.5	2.2
278.15	10000	0.1058	696.3	2.1
278.15	10000	0.2097	712.2	2
278.15	10000	0.3099	727.7	1.9
278.15	10000	0.4149	744	1.8
278.15	10000	0.4764	753.6	1.8
278.15	10000	0.611	774.6	1.7
278.15	10000	0.7116	790.3	1.6
278.15	10000	0.8055	804.9	1.5
278.15	10000	0.9039	820.2	1.5
278.15	10000	1	835.1	1.4
278.15	15000	0	683.5	2.6
278.15	15000	0.1058	699.2	2.5
278.15	15000	0.2097	715.2	2.4
278.15	15000	0.3099	730.6	2.3
278.15	15000	0.4149	746.8	2.2
278.15	15000	0.4764	756.4	2.1
278.15	15000	0.611	777.4	2
278.15	15000	0.7116	793	1.9
278.15	15000	0.8055	807.5	1.8
278.15	15000	0.9039	822.8	1.7
278.15	15000	1	837.8	1.6
278.15	20000	0	688.7	3.1
278.15	20000	0.1058	704.2	2.9
278.15	20000	0.2097	719.9	2.8
278.15	20000	0.3099	735.1	2.7
278.15	20000	0.4149	751.1	2.6
278.15	20000	0.4764	760.6	2.5
278.15	20000	0.611	781.3	2.3
278.15	20000	0.7116	796.6	2.2
278.15	20000	0.8055	811	2.1
278.15	20000	0.9039	826	2
278.15	20000	1	840.7	1.9
283.15	100	0	667.5	1.3
283.15	100	0.1058	683.8	1.2
283.15	100	0.2097	699.9	1.2
283.15	100	0.3099	715.6	1.2
283.15	100	0.4149	732.4	1.1
283.15	100	0.4764	742.2	1.1
283.15	100	0.611	763.9	1.1
283.15	100	0.7116	780	1
283.15	100	0.8055	794.9	1
283.15	100	0.9039	810.3	1
283.15	100	1	825.8	0.9
283.15	5000	0	671.8	1.7
283.15	5000	0.1058	687.8	1.7
283.15	5000	0.2097	703.9	1.6
283.15	5000	0.3099	719.6	1.6
283.15	5000	0.4149	736.2	1.5
283.15	5000	0.4764	745.9	1.5
283.15	5000	0.611	767.3	1.4
283.15	5000	0.7116	783.3	1.3
283.15	5000	0.8055	798	1.3
283.15	5000	0.9039	813.3	1.2
283.15	5000	1	828.7	1.2
283.15	10000	0	676.2	2.2
283.15	10000	0.1058	692	2.1
283.15	10000	0.2097	708	2
283.15	10000	0.3099	723.5	2
283.15	10000	0.4149	740	1.9
283.15	10000	0.4764	749.7	1.8
283.15	10000	0.611	770.8	1.7
283.15	10000	0.7116	786.6	1.6
283.15	10000	0.8055	801.2	1.6
283.15	10000	0.9039	816.4	1.5
283.15	10000	1	831.6	1.4
283.15	15000	0	680.7	2.7
283.15	15000	0.1058	696.3	2.6
283.15	15000	0.2097	712.2	2.4
283.15	15000	0.3099	727.5	2.3
283.15	15000	0.4149	743.8	2.2
283.15	15000	0.4764	753.4	2.2
283.15	15000	0.611	774.3	2
283.15	15000	0.7116	789.9	1.9
283.15	15000	0.8055	804.3	1.8
283.15	15000	0.9039	819.6	1.7
283.15	15000	1	834.5	1.7
283.15	20000	0	684.4	3.1
283.15	20000	0.1058	699.9	3
283.15	20000	0.2097	715.7	2.8
283.15	20000	0.3099	731	2.7
283.15	20000	0.4149	747.1	2.6
283.15	20000	0.4764	756.6	2.5
283.15	20000	0.611	777.5	2.3
283.15	20000	0.7116	793	2.2
283.15	20000	0.8055	807.5	2.1
283.15	20000	0.9039	822.6	2
283.15	20000	1	837.4	1.9
288.15	100	0	664	1.3
288.15	100	0.1058	680.2	1.2
288.15	100	0.2097	696.3	1.2
288.15	100	0.3099	712.1	1.2
288.15	100	0.4149	728.8	1.1
288.15	100	0.4764	738.7	1.1
288.15	100	0.611	760.4	1.1
288.15	100	0.7116	776.5	1
288.15	100	0.8055	791.4	1
288.15	100	0.9039	806.9	1
288.15	100	1	822.1	1
288.15	5000	0	668.5	1.8
288.15	5000	0.1058	684.5	1.7
288.15	5000	0.2097	700.6	1.6
288.15	5000	0.3099	716.3	1.6
288.15	5000	0.4149	732.9	1.5
288.15	5000	0.4764	742.6	1.5
288.15	5000	0.611	764	1.4
288.15	5000	0.7116	779.9	1.3
288.15	5000	0.8055	794.6	1.3
288.15	5000	0.9039	810.1	1.2
288.15	5000	1	825.2	1.2
288.15	10000	0	672.9	2.2
288.15	10000	0.1058	688.7	2.1
288.15	10000	0.2097	704.7	2.1
288.15	10000	0.3099	720.2	2
288.15	10000	0.4149	736.6	1.9
288.15	10000	0.4764	746.3	1.8
288.15	10000	0.611	767.5	1.7
288.15	10000	0.7116	783.3	1.7
288.15	10000	0.8055	797.9	1.6
288.15	10000	0.9039	813.2	1.5
288.15	10000	1	828.2	1.4
288.15	15000	0	677.6	2.7
288.15	15000	0.1058	693.3	2.6
288.15	15000	0.2097	709.1	2.5
288.15	15000	0.3099	724.4	2.4
288.15	15000	0.4149	740.6	2.3
288.15	15000	0.4764	750.2	2.2
288.15	15000	0.611	771.2	2.1
288.15	15000	0.7116	786.8	2
288.15	15000	0.8055	801.2	1.9
288.15	15000	0.9039	816.4	1.8
288.15	15000	1	831.3	1.7
288.15	20000	0	681.3	3.1
288.15	20000	0.1058	696.8	3
288.15	20000	0.2097	712.6	2.9
288.15	20000	0.3099	727.8	2.7
288.15	20000	0.4149	743.9	2.6
288.15	20000	0.4764	753.4	2.5
288.15	20000	0.611	774.3	2.4
288.15	20000	0.7116	789.8	2.2
288.15	20000	0.8055	804.2	2.1
288.15	20000	0.9039	819.2	2
288.15	20000	1	834	1.9
293.15	100	0	658.8	1.3
293.15	100	0.1058	675	1.3
293.15	100	0.2097	691.4	1.2
293.15	100	0.3099	707.4	1.2
293.15	100	0.4149	724.3	1.1
293.15	100	0.4764	734.3	1.1
293.15	100	0.611	756.1	1.1
293.15	100	0.7116	772.4	1
293.15	100	0.8055	787.6	1
293.15	100	0.9039	803.2	1
293.15	100	1	818.7	1
293.15	5000	0	663.7	1.8
293.15	5000	0.1058	679.7	1.7
293.15	5000	0.2097	696.1	1.7
293.15	5000	0.3099	711.9	1.6
293.15	5000	0.4149	728.5	1.5
293.15	5000	0.4764	738.4	1.5
293.15	5000	0.611	760	2
293.15	5000	0.7116	776.1	1.4
293.15	5000	0.8055	791	1.3
293.15	5000	0.9039	806.5	1.3
293.15	5000	1	821.9	1.2
293.15	10000	0	668.8	2.3
293.15	10000	0.1058	684.5	2.2
293.15	10000	0.2097	700.7	2.1
293.15	10000	0.3099	716.3	2
293.15	10000	0.4149	732.8	1.9
293.15	10000	0.4764	742.6	1.9
293.15	10000	0.611	763.9	1.8
293.15	10000	0.7116	779.7	1.7
293.15	10000	0.8055	794.4	1.6
293.15	10000	0.9039	809.8	1.5
293.15	10000	1	824.9	1.5
293.15	15000	0	672.8	2.7
293.15	15000	0.1058	688.5	2.6
293.15	15000	0.2097	704.4	2.5
293.15	15000	0.3099	719.9	2.4
293.15	15000	0.4149	736.3	2.3
293.15	15000	0.4764	746	2.2
293.15	15000	0.611	767.2	2.1
293.15	15000	0.7116	782.8	2
293.15	15000	0.8055	797.5	1.9
293.15	15000	0.9039	812.8	1.8
293.15	15000	1	827.9	1.7
293.15	20000	0	677.4	3.2
293.15	20000	0.1058	692.8	3
293.15	20000	0.2097	708.7	2.9
293.15	20000	0.3099	724	2.8
293.15	20000	0.4149	740.1	2.6
293.15	20000	0.4764	749.7	2.6
293.15	20000	0.611	770.7	2.4
293.15	20000	0.7116	786.2	2.3
293.15	20000	0.8055	800.8	2.2
293.15	20000	0.9039	816	2.1
293.15	20000	1	830.7	1.9
298.15	100	0	654.2	1.3
298.15	100	0.1058	670.5	1.3
298.15	100	0.2097	687	1.2
298.15	100	0.3099	703	1.2
298.15	100	0.4149	720.1	1.2
298.15	100	0.4764	730.1	1.1
298.15	100	0.611	752.1	1.1
298.15	100	0.7116	768.5	1.1
298.15	100	0.8055	783.7	1
298.15	100	0.9039	799.5	1
298.15	100	1	815.1	1
298.15	5000	0	659.5	1.8
298.15	5000	0.1058	675.5	1.7
298.15	5000	0.2097	691.8	1.7
298.15	5000	0.3099	707.7	1.6
298.15	5000	0.4149	724.6	1.5
298.15	5000	0.4764	734.5	1.5
298.15	5000	0.611	756.2	1.4
298.15	5000	0.7116	772.3	1.4
298.15	5000	0.8055	787.3	1.3
298.15	5000	0.9039	802.9	1.3
298.15	5000	1	818.3	1.2
298.15	10000	0	664.7	2.3
298.15	10000	0.1058	680.5	2.2
298.15	10000	0.2097	696.7	2.1
298.15	10000	0.3099	712.4	2
298.15	10000	0.4149	729	1.9
298.15	10000	0.4764	738.8	1.9
298.15	10000	0.611	760.2	1.8
298.15	10000	0.7116	776.2	1.7
298.15	10000	0.8055	791	1.6
298.15	10000	0.9039	806.4	1.6
298.15	10000	1	821.5	1.5
298.15	15000	0	669.2	2.7
298.15	15000	0.1058	685	2.6
298.15	15000	0.2097	700.9	2.5
298.15	15000	0.3099	716.4	2.4
298.15	15000	0.4149	732.9	2.3
298.15	15000	0.4764	742.6	2.2
298.15	15000	0.611	763.8	2.1
298.15	15000	0.7116	779.6	2
298.15	15000	0.8055	794.2	1.9
298.15	15000	0.9039	809.6	1.8
298.15	15000	1	824.6	1.7
298.15	20000	0	673.2	3.2
298.15	20000	0.1058	688.7	3.1
298.15	20000	0.2097	704.7	2.9
298.15	20000	0.3099	720.1	2.8
298.15	20000	0.4149	736.4	2.7
298.15	20000	0.4764	746	2.6
298.15	20000	0.611	767.1	2.4
298.15	20000	0.7116	782.8	2.3
298.15	20000	0.8055	797.3	2.2
298.15	20000	0.9039	812.7	2.1
298.15	20000	1	827.5	2
303.15	100	0	649.8	1.3
303.15	100	0.1058	666.1	1.3
303.15	100	0.2097	682.8	1.2
303.15	100	0.3099	698.8	1.2
303.15	100	0.4149	715.9	1.2
303.15	100	0.4764	726	1.1
303.15	100	0.611	748.1	1.1
303.15	100	0.7116	764.6	1.1
303.15	100	0.8055	779.9	1
303.15	100	0.9039	795.9	1
303.15	100	1	811.4	1
303.15	5000	0	655.5	1.8
303.15	5000	0.1058	671.6	1.8
303.15	5000	0.2097	688	1.7
303.15	5000	0.3099	704	1.6
303.15	5000	0.4149	720.8	1.6
303.15	5000	0.4764	730.7	1.5
303.15	5000	0.611	752.4	1.4
303.15	5000	0.7116	768.6	1.4
303.15	5000	0.8055	783.7	1.3
303.15	5000	0.9039	799.4	1.3
303.15	5000	1	814.8	1.2
303.15	10000	0	660.2	2.3
303.15	10000	0.1058	676	2.2
303.15	10000	0.2097	692.4	2.1
303.15	10000	0.3099	708.2	2
303.15	10000	0.4149	724.8	2
303.15	10000	0.4764	734.7	1.9
303.15	10000	0.611	756.2	1.8
303.15	10000	0.7116	772.2	1.7
303.15	10000	0.8055	787.1	1.6
303.15	10000	0.9039	802.8	1.6
303.15	10000	1	818	1.5
303.15	15000	0	664.9	2.8
303.15	15000	0.1058	680.7	2.7
303.15	15000	0.2097	696.9	2.6
303.15	15000	0.3099	712.4	2.5
303.15	15000	0.4149	728.8	2.3
303.15	15000	0.4764	738.6	2.3
303.15	15000	0.611	759.9	2.1
303.15	15000	0.7116	775.8	2
303.15	15000	0.8055	790.5	1.9
303.15	15000	0.9039	806	1.8
303.15	15000	1	821.1	1.8
303.15	20000	0	669.3	3.2
303.15	20000	0.1058	684.8	3.1
303.15	20000	0.2097	700.9	3
303.15	20000	0.3099	716.3	2.8
303.15	20000	0.4149	732.7	2.7
303.15	20000	0.4764	742.3	2.6
303.15	20000	0.611	763.5	2.5
303.15	20000	0.7116	779.2	2.3
303.15	20000	0.8055	793.9	2.2
303.15	20000	0.9039	809.3	2.1
303.15	20000	1	824.2	2
308.15	100	0	645.1	1.3
308.15	100	0.1058	661.5	1.3
308.15	100	0.2097	678.3	1.3
308.15	100	0.3099	694.5	1.2
308.15	100	0.4149	711.7	1.2
308.15	100	0.4764	721.8	1.2
308.15	100	0.611	744.1	1.1
308.15	100	0.7116	760.8	1.1
308.15	100	0.8055	776.3	1
308.15	100	0.9039	792.2	1
308.15	100	1	808	1
308.15	5000	0	651.1	1.8
308.15	5000	0.1058	667.1	1.8
308.15	5000	0.2097	683.7	1.7
308.15	5000	0.3099	699.7	1.6
308.15	5000	0.4149	716.7	1.6
308.15	5000	0.4764	726.6	1.5
308.15	5000	0.611	748.5	1.5
308.15	5000	0.7116	764.8	1.4
308.15	5000	0.8055	780	1.4
308.15	5000	0.9039	795.8	1.3
308.15	5000	1	811.3	1.3
308.15	10000	0	656.3	2.3
308.15	10000	0.1058	672.1	2.2
308.15	10000	0.2097	688.4	2.2
308.15	10000	0.3099	704.3	2.1
308.15	10000	0.4149	721	2
308.15	10000	0.4764	730.9	1.9
308.15	10000	0.611	752.6	1.8
308.15	10000	0.7116	768.7	1.7
308.15	10000	0.8055	783.7	1.7
308.15	10000	0.9039	799.4	1.6
308.15	10000	1	814.6	1.5
308.15	15000	0	661.2	2.8
308.15	15000	0.1058	676.8	2.7
308.15	15000	0.2097	693.1	2.6
308.15	15000	0.3099	708.6	2.5
308.15	15000	0.4149	725.2	2.4
308.15	15000	0.4764	735	2.3
308.15	15000	0.611	756.4	2.2
308.15	15000	0.7116	772.4	2.1
308.15	15000	0.8055	787.1	2
308.15	15000	0.9039	802.7	1.9
308.15	15000	1	817.8	1.8
308.15	20000	0	666	3.3
308.15	20000	0.1058	681.5	3.1
308.15	20000	0.2097	697.6	3
308.15	20000	0.3099	713.1	2.9
308.15	20000	0.4149	729.3	2.7
308.15	20000	0.4764	739	2.7
308.15	20000	0.611	760.2	2.5
308.15	20000	0.7116	776	2.4
308.15	20000	0.8055	790.6	2.3
308.15	20000	0.9039	806	2.1
308.15	20000	1	820.9	2
313.15	100	0	641.3	1.4
313.15	100	0.1058	657.6	1.3
313.15	100	0.2097	674.2	1.3
313.15	100	0.3099	690.6	1.2
313.15	100	0.4149	707.9	1.2
313.15	100	0.4764	718	1.2
313.15	100	0.611	740.4	1.1
313.15	100	0.7116	757	1.1
313.15	100	0.8055	772.5	1.1
313.15	100	0.9039	788.6	1
313.15	100	1	804.2	1
313.15	5000	0	647.3	1.9
313.15	5000	0.1058	663.3	1.8
313.15	5000	0.2097	679.7	1.7
313.15	5000	0.3099	695.8	1.7
313.15	5000	0.4149	712.9	1.6
313.15	5000	0.4764	722.9	1.6
313.15	5000	0.611	744.9	1.5
313.15	5000	0.7116	761.2	1.4
313.15	5000	0.8055	776.3	1.4
313.15	5000	0.9039	792.1	1.3
313.15	5000	1	807.6	1.3
313.15	10000	0	652.8	2.4
313.15	10000	0.1058	668.5	2.3
313.15	10000	0.2097	684.8	2.2
313.15	10000	0.3099	700.7	2.1
313.15	10000	0.4149	717.5	2
313.15	10000	0.4764	727.4	1.9
313.15	10000	0.611	749.1	1.8
313.15	10000	0.7116	765.2	1.8
313.15	10000	0.8055	780.2	1.7
313.15	10000	0.9039	795.8	1.6
313.15	10000	1	811	1.5
313.15	15000	0	657.4	2.8
313.15	15000	0.1058	673	2.7
313.15	15000	0.2097	689.2	2.6
313.15	15000	0.3099	704.9	2.5
313.15	15000	0.4149	721.5	2.4
313.15	15000	0.4764	731.3	2.3
313.15	15000	0.611	752.8	2.2
313.15	15000	0.7116	768.8	2.1
313.15	15000	0.8055	783.6	2
313.15	15000	0.9039	799.1	1.9
313.15	15000	1	814.3	1.8
313.15	20000	0	662.5	3.3
313.15	20000	0.1058	678.1	3.2
313.15	20000	0.2097	694.1	3
313.15	20000	0.3099	709.6	2.9
313.15	20000	0.4149	725.9	2.8
313.15	20000	0.4764	735.6	2.7
313.15	20000	0.611	756.8	2.5
313.15	20000	0.7116	772.6	2.4
313.15	20000	0.8055	787.3	2.3
313.15	20000	0.9039	802.6	2.2
313.15	20000	1	817.6	2.1
