Measured thermophysical data. Isobaric Vapor-Liquid Equilibrium for Ethyl Acetate + Ethanol + 1-Ethyl-3-methylimidazolium Tetrafluoroborate
Source: J. Chem. Eng. Data, 2009, 10.1021/je800175s
Compound 1: ethanol, C2H6O, InChI=1S/C2H6O/c1-2-3/h3H,2H2,1H3
Compound 2: ethyl acetate, C4H8O2, InChI=1S/C4H8O2/c1-3-6-4(2)5/h3H2,1-2H3
Compound 3: 1-ethyl-3-methylimidazolium tetrafluoroborate, C6H11BF4N2, InChI=1S/C6H11N2.BF4/c1-3-8-5-4-7(2)6-8;2-1(3,4)5/h4-6H,3H2,1-2H3;/q+1;-1

System: ethanol + ethyl acetate; phases: Liquid, Gas
Fixed: Pressure, kPa = 101.32
Property: Boiling temperature at pressure P, K (Liquid); method: Ebulliometric method (Recirculating still)
Mole fraction of ethyl acetate	Boiling temperature at pressure P, K	uncertainty
0	351.46	0.22
0.049	350.13	0.33
0.107	348.85	0.3
0.195	347.04	0.25
0.323	346.13	0.23
0.418	345.46	0.23
0.517	345.06	0.22
0.61	345	0.22
0.709	345.36	0.22
0.805	345.94	0.24
0.913	347.55	0.28
0.962	348.86	0.38
1	350.25	0.22

System: ethanol + ethyl acetate; phases: Gas, Liquid
Fixed: Pressure, kPa = 101.32
Property: Mole fraction of ethyl acetate (Gas); method: CHROM:UFactor:4
Mole fraction of ethyl acetate	Mole fraction of ethyl acetate	uncertainty
0	0	0.001
0.049	0.106	0.009
0.107	0.192	0.009
0.195	0.299	0.012
0.323	0.389	0.015
0.418	0.468	0.018
0.517	0.53	0.018
0.61	0.592	0.015
0.709	0.654	0.013
0.805	0.73	0.011
0.913	0.836	0.008
0.962	0.924	0.009
1	1	0.001

System: ethanol + ethyl acetate + 1-ethyl-3-methylimidazolium tetrafluoroborate; phases: Liquid, Gas
Fixed: Pressure, kPa = 101.32
Property: Boiling temperature at pressure P, K (Liquid); method: Ebulliometric method (Recirculating still)
Mole fraction of 1-ethyl-3-methylimidazolium tetrafluoroborate	Mole fraction of ethyl acetate	Boiling temperature at pressure P, K	uncertainty
0.007099	0.764	347.8	0.95
0.007144	0.732	346.94	0.86
0.007157	0.607	346.36	0.35
0.007174	0.696	346.5	0.87
0.007176	0.195	348.6	0.71
0.007176	0.51	346.3	0.44
0.007178	0.309	347.35	0.68
0.00718	0.95	350.15	1.36
0.00719	0.893	349.24	1.12
0.007198	0.102	350.25	0.96
0.007232	0.415	346.55	0.54
0.007235	0.653	346.44	0.41
0.019938	0.65	347.55	0.72
0.020012	0.903	353	1.28
0.020094	0.948	354.46	1.44
0.02011	0.092	353.45	1.27
0.020125	0.619	347.27	0.62
0.020126	0.717	349.5	1.18
0.020135	0.192	351.05	1.15
0.020244	0.291	349.73	1.04
0.02026	0.517	347.65	0.7
0.020262	0.41	348.35	0.78
0.020577	0.681	348.25	0.94
0.02751	0.91	356.15	1.63
0.0276	0.872	355.55	1.62
0.028003	0.774	354.54	1.53
0.028065	0.705	351.75	1.75
0.028193	0.628	350.15	1.31
0.028198	0.613	349.66	1.31
0.028516	0.53	349.95	1.21
0.028982	0.412	350.75	1.43
0.029497	0.326	353.1	1.62
0.029748	0.213	354.84	1.89
0.029862	0.098	357.54	1.75

System: ethanol + ethyl acetate + 1-ethyl-3-methylimidazolium tetrafluoroborate; phases: Gas, Liquid
Fixed: Pressure, kPa = 101.32
Property: Mole fraction of ethyl acetate (Gas); method: CHROM:UFactor:4
Mole fraction of 1-ethyl-3-methylimidazolium tetrafluoroborate	Mole fraction of ethyl acetate	Mole fraction of ethyl acetate	uncertainty
0.007099	0.764	0.771	0.017
0.007144	0.732	0.744	0.017
0.007157	0.607	0.641	0.022
0.007174	0.696	0.714	0.018
0.007176	0.195	0.315	0.015
0.007176	0.51	0.57	0.023
0.007178	0.309	0.431	0.02
0.00718	0.95	0.941	0.008
0.00719	0.893	0.881	0.009
0.007198	0.102	0.191	0.009
0.007232	0.415	0.51	0.023
0.007235	0.653	0.674	0.02
0.019938	0.65	0.725	0.02
0.020012	0.903	0.915	0.01
0.020094	0.948	0.953	0.008
0.02011	0.092	0.18	0.01
0.020125	0.619	0.704	0.021
0.020126	0.717	0.775	0.018
0.020135	0.192	0.324	0.014
0.020244	0.291	0.444	0.019
0.02026	0.517	0.631	0.022
0.020262	0.41	0.545	0.022
0.020577	0.681	0.749	0.018
0.02751	0.91	0.937	0.011
0.0276	0.872	0.911	0.011
0.028003	0.774	0.844	0.018
0.028065	0.705	0.8	0.02
0.028193	0.628	0.747	0.021
0.028198	0.613	0.737	0.021
0.028516	0.53	0.673	0.019
0.028982	0.412	0.577	0.02
0.029497	0.326	0.495	0.02
0.029748	0.213	0.369	0.015
0.029862	0.098	0.207	0.012
