Measured thermophysical data. Densities, Excess Molar Volumes, Viscosity, and Refractive Indices of Binary and Ternary Liquid Mixtures of Methanol (1) + Ethanol (2) + 1,2-Propanediol (3) at P = 81.5 kPa
Source: J. Chem. Eng. Data, 2009, 10.1021/je800633a
Compound 1: ethanol, C2H6O, InChI=1S/C2H6O/c1-2-3/h3H,2H2,1H3, purity 99.8%
Compound 2: 1,2-propanediol, C3H8O2, InChI=1S/C3H8O2/c1-3(5)2-4/h3-5H,2H2,1H3, purity 99.5%
Compound 3: methanol, CH4O, InChI=1S/CH4O/c1-2/h2H,1H3, purity 99.8%

System: ethanol; phases: Liquid
Property: Refractive index (Na D-line) (Liquid); method: Standard Abbe refractometry
Temperature, K	Pressure, kPa	Refractive index (Na D-line)	uncertainty
298.15	101.325	1.3595	0.0007

System: ethanol; phases: Liquid
Property: Viscosity, Pa*s (Liquid); method: Capillary tube (Ostwald; Ubbelohde) method
Temperature, K	Pressure, kPa	Viscosity, Pa*s	uncertainty
303.15	81.5	0.000994	9e-06

System: ethanol; phases: Liquid
Fixed: Pressure, kPa = 81.5
Property: Mass density, kg/m3 (Liquid); method: VIBTUB::UFactor:3
Temperature, K	Mass density, kg/m3	uncertainty
298.15	785.18	0.45
303.15	780.87	0.46
308.15	776.52	0.47

System: 1,2-propanediol; phases: Liquid
Property: Refractive index (Na D-line) (Liquid); method: Standard Abbe refractometry
Temperature, K	Pressure, kPa	Refractive index (Na D-line)	uncertainty
298.15	101.325	1.4323	0.0007

System: 1,2-propanediol; phases: Liquid
Property: Viscosity, Pa*s (Liquid); method: Capillary tube (Ostwald; Ubbelohde) method
Temperature, K	Pressure, kPa	Viscosity, Pa*s	uncertainty
303.15	81.5	0.033878	0.00058

System: 1,2-propanediol; phases: Liquid
Fixed: Pressure, kPa = 81.5
Property: Mass density, kg/m3 (Liquid); method: VIBTUB:UFactor:3
Temperature, K	Mass density, kg/m3	uncertainty
298.15	1032.61	0.24
303.15	1028.9	0.23
308.15	1025.16	0.23

System: methanol; phases: Liquid
Property: Refractive index (Na D-line) (Liquid); method: Standard Abbe refractometry
Temperature, K	Pressure, kPa	Refractive index (Na D-line)	uncertainty
298.15	101.325	1.327	0.0007

System: methanol; phases: Liquid
Property: Viscosity, Pa*s (Liquid); method: Capillary tube (Ostwald; Ubbelohde) method
Temperature, K	Pressure, kPa	Viscosity, Pa*s	uncertainty
303.15	81.5	0.000525	7e-06

System: methanol; phases: Liquid
Fixed: Pressure, kPa = 81.5
Property: Mass density, kg/m3 (Liquid); method: VIBTUB::UFactor:3
Temperature, K	Mass density, kg/m3	uncertainty
298.15	786.57	0.45
303.15	781.85	0.46
308.15	777.1	0.47

System: 1,2-propanediol + methanol; phases: Liquid
Fixed: Temperature, K = 303.15
Fixed: Pressure, kPa = 81.5
Property: Viscosity, Pa*s (Liquid); method: Capillary tube (Ostwald; Ubbelohde) method
Mole fraction of methanol	Viscosity, Pa*s	uncertainty
0.0688	0.02551	0.00038
0.1545	0.01849	0.00024
0.2606	0.01231	0.00014
0.3086	0.01021	0.00011
0.3666	0.00811	8e-05
0.4494	0.00581	5e-05
0.51	0.00454	4e-05
0.6098	0.00299	2e-05
0.6811	0.00221	2e-05
0.7687	0.00151	1e-05
0.8363	0.00111	1e-05
0.9225	0.00075	1e-05

System: 1,2-propanediol + methanol; phases: Liquid
Fixed: Temperature, K = 303.15
Fixed: Pressure, kPa = 81.5
Property: Refractive index (Na D-line) (Liquid); method: ABBE:UFactor:2
Mole fraction of methanol	Refractive index (Na D-line)	uncertainty
0.0688	1.4262	0.0008
0.1545	1.422	0.0008
0.2606	1.4155	0.0008
0.3086	1.4129	0.0008
0.3666	1.4096	0.0008
0.4494	1.4029	0.0008
0.51	1.3983	0.0008
0.6098	1.3883	0.0008
0.6811	1.3783	0.0008
0.7687	1.3665	0.0008
0.8363	1.3571	0.0008
0.9225	1.3404	0.0008

System: 1,2-propanediol + methanol; phases: Liquid
Fixed: Pressure, kPa = 81.5
Property: Mass density, kg/m3 (Liquid); method: VIBTUB:UFactor:3
Temperature, K	Mole fraction of methanol	Mass density, kg/m3	uncertainty
298.15	0	1032.61	0.24
298.15	0.0533	1026.26	0.22
298.15	0.1319	1016.21	0.2
298.15	0.2246	1003.13	0.18
298.15	0.282	994.24	0.17
298.15	0.3841	976.76	0.19
298.15	0.4496	964.21	0.21
298.15	0.53	947.16	0.23
298.15	0.6083	928.51	0.25
298.15	0.7006	903.39	0.29
298.15	0.7601	884.96	0.31
298.15	0.8454	855.03	0.35
298.15	0.9133	827.35	0.39
298.15	1	786.57	0.45
303.15	0	1028.9	0.23
303.15	0.0533	1022.52	0.22
303.15	0.1319	1012.45	0.2
303.15	0.2246	999.31	0.17
303.15	0.282	990.39	0.18
303.15	0.3841	972.84	0.2
303.15	0.4496	960.26	0.21
303.15	0.53	943.12	0.24
303.15	0.6083	924.41	0.26
303.15	0.7006	899.17	0.29
303.15	0.7601	880.67	0.32
303.15	0.8454	850.61	0.36
303.15	0.9133	823.02	0.4
303.15	1	781.85	0.46
308.15	0	1025.16	0.23
308.15	0.0533	1018.75	0.21
308.15	0.1319	1008.64	0.19
308.15	0.2246	995.47	0.18
308.15	0.282	986.48	0.19
308.15	0.3841	968.91	0.21
308.15	0.4496	956.25	0.22
308.15	0.53	939.07	0.24
308.15	0.6083	920.25	0.27
308.15	0.7006	894.96	0.3
308.15	0.7601	876.35	0.33
308.15	0.8454	846.16	0.37
308.15	0.9133	818.45	0.41
308.15	1	777.1	0.47

System: 1,2-propanediol + ethanol; phases: Liquid
Fixed: Temperature, K = 303.15
Fixed: Pressure, kPa = 81.5
Property: Viscosity, Pa*s (Liquid); method: Capillary tube (Ostwald; Ubbelohde) method
Mole fraction of ethanol	Viscosity, Pa*s	uncertainty
0.0738	0.02501	0.00037
0.1285	0.02047	0.00028
0.2099	0.0152	0.00018
0.2725	0.01214	0.00013
0.3701	0.00855	8e-05
0.4389	0.00668	6e-05
0.5193	0.00503	4e-05
0.5871	0.00398	3e-05
0.678	0.0029	2e-05
0.7554	0.00223	2e-05
0.8185	0.0018	1e-05
0.9171	0.00129	1e-05

System: 1,2-propanediol + ethanol; phases: Liquid
Fixed: Temperature, K = 303.15
Fixed: Pressure, kPa = 81.5
Property: Refractive index (Na D-line) (Liquid); method: ABBE:UFactor:2
Mole fraction of ethanol	Refractive index (Na D-line)	uncertainty
0.0738	1.426	0.0008
0.1285	1.4233	0.0008
0.2099	1.4187	0.0008
0.2725	1.4153	0.0008
0.3701	1.4093	0.0008
0.4389	1.4052	0.0008
0.5193	1.3998	0.0008
0.5871	1.3946	0.0008
0.678	1.3876	0.0008
0.7554	1.3817	0.0008
0.8185	1.3765	0.0008
0.9171	1.3672	0.0008

System: 1,2-propanediol + ethanol; phases: Liquid
Fixed: Pressure, kPa = 81.5
Property: Mass density, kg/m3 (Liquid); method: VIBTUB:UFactor:3
Temperature, K	Mole fraction of ethanol	Mass density, kg/m3	uncertainty
298.15	0.0492	1023.64	0.22
298.15	0.122	1009.9	0.19
298.15	0.2072	993.05	0.18
298.15	0.2706	979.89	0.2
298.15	0.3633	959.86	0.22
298.15	0.4478	940.7	0.24
298.15	0.5261	921.85	0.27
298.15	0.6103	900.63	0.29
298.15	0.677	882.99	0.32
298.15	0.7613	859.54	0.35
298.15	0.8332	838.49	0.38
298.15	0.9232	810.57	0.42
298.15	1	785.18	0.45
303.15	0.0492	1019.91	0.21
303.15	0.122	1006.14	0.19
303.15	0.2072	989.22	0.19
303.15	0.2706	976.03	0.2
303.15	0.3633	955.92	0.22
303.15	0.4478	936.73	0.25
303.15	0.5261	917.81	0.27
303.15	0.6103	896.55	0.3
303.15	0.677	878.84	0.32
303.15	0.7613	855.37	0.35
303.15	0.8332	834.25	0.38
303.15	0.9232	806.3	0.42
303.15	1	780.87	0.46
308.15	0.0492	1016.16	0.21
308.15	0.122	1002.31	0.18
308.15	0.2072	985.36	0.19
308.15	0.2706	972.12	0.21
308.15	0.3633	951.97	0.23
308.15	0.4478	932.7	0.25
308.15	0.5261	913.76	0.28
308.15	0.6103	892.41	0.31
308.15	0.677	874.69	0.33
308.15	0.7613	851.13	0.36
308.15	0.8332	829.99	0.39
308.15	0.9232	801.98	0.43
308.15	1	776.52	0.47

System: ethanol + methanol; phases: Liquid
Fixed: Temperature, K = 303.15
Fixed: Pressure, kPa = 81.5
Property: Viscosity, Pa*s (Liquid); method: Capillary tube (Ostwald; Ubbelohde) method
Mole fraction of methanol	Viscosity, Pa*s	uncertainty
0.0417	0.000968	9e-06
0.1476	0.000906	8e-06
0.2214	0.000865	8e-06
0.2952	0.000828	8e-06
0.3644	0.000793	8e-06
0.4488	0.000753	8e-06
0.529	0.000717	8e-06
0.5995	0.000685	7e-06
0.6859	0.000648	7e-06
0.7442	0.000624	7e-06
0.832	0.000588	7e-06
0.9166	0.000556	7e-06

System: ethanol + methanol; phases: Liquid
Fixed: Temperature, K = 303.15
Fixed: Pressure, kPa = 81.5
Property: Refractive index (Na D-line) (Liquid); method: ABBE:UFactor:2
Mole fraction of methanol	Refractive index (Na D-line)	uncertainty
0.0417	1.3567	0.0008
0.1476	1.3541	0.0008
0.2214	1.3522	0.0008
0.2952	1.3502	0.0008
0.3644	1.3485	0.0008
0.4488	1.3462	0.0008
0.529	1.3437	0.0008
0.5995	1.3415	0.0008
0.6859	1.3385	0.0008
0.7442	1.3363	0.0008
0.832	1.3328	0.0008
0.9166	1.3286	0.0008

System: 1,2-propanediol + ethanol + methanol; phases: Liquid
Fixed: Temperature, K = 303.15
Fixed: Pressure, kPa = 81.5
Property: Viscosity, Pa*s (Liquid); method: Capillary tube (Ostwald; Ubbelohde) method
Mole fraction of methanol	Mole fraction of ethanol	Viscosity, Pa*s	uncertainty
0.0985	0.7025	0.001838	1.4e-05
0.0998	0.1981	0.010979	0.000117
0.0998	0.7983	0.001319	1e-05
0.1015	0.502	0.003649	2.9e-05
0.1137	0.5922	0.002539	1.9e-05
0.1165	0.2946	0.007225	6.7e-05
0.1194	0.3955	0.004976	4.2e-05
0.1224	0.0956	0.014508	0.000171
0.195	0.7041	0.001247	1e-05
0.1974	0.3126	0.004949	4.2e-05
0.1987	0.5014	0.002503	1.8e-05
0.2002	0.102	0.010673	0.000112
0.2003	0.398	0.003577	2.8e-05
0.2012	0.5964	0.001777	1.3e-05
0.2018	0.2013	0.007348	6.8e-05
0.2986	0.4021	0.0024	1.8e-05
0.301	0.5985	0.001182	1e-05
0.308	0.1272	0.006358	5.7e-05
0.317	0.1955	0.004752	4e-05
0.3269	0.4802	0.001623	1.2e-05
0.3276	0.2919	0.003215	2.5e-05
0.395	0.5033	0.00112	9e-06
0.3966	0.2144	0.003218	2.5e-05
0.4005	0.2993	0.002328	1.7e-05
0.4026	0.0993	0.004838	4.1e-05
0.4031	0.397	0.001585	1.2e-05
0.4979	0.3006	0.001539	1.2e-05
0.4985	0.4055	0.001039	9e-06
0.5029	0.114	0.003025	2.3e-05
0.5109	0.1904	0.002199	1.6e-05
0.5902	0.2136	0.001442	1.1e-05
0.5999	0.1055	0.002086	1.5e-05
0.6	0.2986	0.001005	9e-06
0.695	0.1018	0.001397	1.1e-05
0.7024	0.202	0.000924	8e-06
0.7944	0.1021	0.000903	8e-06

System: 1,2-propanediol + ethanol + methanol; phases: Liquid
Fixed: Pressure, kPa = 81.5
Property: Mass density, kg/m3 (Liquid); method: VIBTUB:UFactor:3
Temperature, K	Mole fraction of methanol	Mole fraction of ethanol	Mass density, kg/m3	uncertainty
298.15	0.0985	0.7025	849.96	0.36
298.15	0.0998	0.1981	979.83	0.19
298.15	0.0998	0.7983	819.81	0.4
298.15	0.1015	0.502	906.4	0.29
298.15	0.1137	0.5922	878.57	0.32
298.15	0.1165	0.2946	954.96	0.22
298.15	0.1194	0.3955	930.45	0.25
298.15	0.1224	0.0956	998.04	0.17
298.15	0.195	0.7041	820.55	0.4
298.15	0.1974	0.3126	935.08	0.25
298.15	0.1987	0.5014	883.18	0.31
298.15	0.2002	0.102	984.62	0.19
298.15	0.2003	0.398	911.83	0.28
298.15	0.2012	0.5964	853.74	0.36
298.15	0.2018	0.2013	961.54	0.21
298.15	0.2986	0.4021	886.78	0.31
298.15	0.301	0.5985	822.04	0.4
298.15	0.308	0.1272	959.42	0.21
298.15	0.317	0.1955	940.19	0.24
298.15	0.3269	0.4802	853.96	0.35
298.15	0.3276	0.2919	911.76	0.28
298.15	0.395	0.5033	823.64	0.4
298.15	0.3966	0.2144	916.85	0.27
298.15	0.4005	0.2993	890.44	0.3
298.15	0.4026	0.0993	947.42	0.23
298.15	0.4031	0.397	857.96	0.35
298.15	0.4979	0.3006	861.86	0.34
298.15	0.4985	0.4055	823.55	0.4
298.15	0.5029	0.114	920.55	0.26
298.15	0.5109	0.1904	894.82	0.3
298.15	0.5902	0.2136	862.88	0.34
298.15	0.5999	0.1055	897.44	0.29
298.15	0.6	0.2986	827.63	0.39
298.15	0.695	0.1018	868.61	0.33
298.15	0.7024	0.202	827.01	0.39
298.15	0.7944	0.1021	832.42	0.39
303.15	0.0985	0.7025	845.72	0.37
303.15	0.0998	0.1981	975.94	0.2
303.15	0.0998	0.7983	815.51	0.41
303.15	0.1015	0.502	902.3	0.29
303.15	0.1137	0.5922	874.4	0.33
303.15	0.1165	0.2946	950.99	0.23
303.15	0.1194	0.3955	926.43	0.26
303.15	0.1224	0.0956	994.22	0.18
303.15	0.195	0.7041	816.24	0.41
303.15	0.1974	0.3126	931.05	0.25
303.15	0.1987	0.5014	879.01	0.32
303.15	0.2002	0.102	980.75	0.19
303.15	0.2003	0.398	907.74	0.28
303.15	0.2012	0.5964	849.5	0.36
303.15	0.2018	0.2013	957.59	0.22
303.15	0.2986	0.4021	882.61	0.32
303.15	0.301	0.5985	817.7	0.41
303.15	0.308	0.1272	955.56	0.22
303.15	0.317	0.1955	936.16	0.25
303.15	0.3269	0.4802	849.69	0.36
303.15	0.3276	0.2919	907.64	0.28
303.15	0.395	0.5033	819.27	0.4
303.15	0.3966	0.2144	912.74	0.28
303.15	0.4005	0.2993	886.25	0.31
303.15	0.4026	0.0993	943.4	0.24
303.15	0.4031	0.397	853.66	0.36
303.15	0.4979	0.3006	857.56	0.35
303.15	0.4985	0.4055	819.15	0.4
303.15	0.5029	0.114	916.44	0.27
303.15	0.5109	0.1904	890.62	0.31
303.15	0.5902	0.2136	858.57	0.35
303.15	0.5999	0.1055	893.23	0.3
303.15	0.6	0.2986	823.22	0.4
303.15	0.695	0.1018	864.28	0.34
303.15	0.7024	0.202	822.55	0.4
303.15	0.7944	0.1021	827.94	0.39
308.15	0.0985	0.7025	841.45	0.37
308.15	0.0998	0.1981	972.02	0.21
308.15	0.0998	0.7983	811.18	0.42
308.15	0.1015	0.502	898.17	0.3
308.15	0.1137	0.5922	870.21	0.34
308.15	0.1165	0.2946	946.99	0.24
308.15	0.1194	0.3955	922.37	0.27
308.15	0.1224	0.0956	990.35	0.19
308.15	0.195	0.7041	811.9	0.42
308.15	0.1974	0.3126	926.99	0.26
308.15	0.1987	0.5014	874.81	0.33
308.15	0.2002	0.102	976.83	0.2
308.15	0.2003	0.398	903.62	0.29
308.15	0.2012	0.5964	845.22	0.37
308.15	0.2018	0.2013	953.6	0.23
308.15	0.2986	0.4021	878.4	0.33
308.15	0.301	0.5985	813.33	0.41
308.15	0.308	0.1272	951.55	0.23
308.15	0.317	0.1955	932.09	0.25
308.15	0.3269	0.4802	845.38	0.37
308.15	0.3276	0.2919	903.49	0.29
308.15	0.395	0.5033	814.89	0.41
308.15	0.3966	0.2144	908.6	0.28
308.15	0.4005	0.2993	882.03	0.32
308.15	0.4026	0.0993	939.35	0.24
308.15	0.4031	0.397	849.35	0.36
308.15	0.4979	0.3006	853.24	0.36
308.15	0.4985	0.4055	814.72	0.41
308.15	0.5029	0.114	912.29	0.28
308.15	0.5109	0.1904	886.39	0.31
308.15	0.5902	0.2136	854.23	0.36
308.15	0.5999	0.1055	889	0.31
308.15	0.6	0.2986	818.77	0.41
308.15	0.695	0.1018	859.93	0.35
308.15	0.7024	0.202	818.06	0.41
308.15	0.7944	0.1021	823.44	0.4
