Measured thermophysical data. Densities, Excess Molar Volumes, Speeds of Sound, and Isothermal Compressibilities for 2-(2-Hexyloxyethoxy)ethanol + n-Alkylamine at Temperatures Between 288.15 K and 308.15 K
Source: J. Chem. Eng. Data, 2008, 10.1021/je800026p
Compound 1: 1-butanamine, C4H11N, InChI=1S/C4H11N/c1-2-3-4-5/h2-5H2,1H3
Compound 2: dibutylamine, C8H19N, InChI=1S/C8H19N/c1-3-5-7-9-8-6-4-2/h9H,3-8H2,1-2H3
Compound 3: tributylamine, C12H27N, InChI=1S/C12H27N/c1-4-7-10-13(11-8-5-2)12-9-6-3/h4-12H2,1-3H3
Compound 4: 2-(2-hexyloxyethoxy)ethanol, C10H22O3, InChI=1S/C10H22O3/c1-2-3-4-5-7-12-9-10-13-8-6-11/h11H,2-10H2,1H3

System: 1-butanamine; phases: Liquid
Fixed: Pressure, kPa = 101.325
Property: Speed of sound, m/s (Liquid); method: Sing-around technique in a fixed-path interferometer
Temperature, K	Speed of sound, m/s	uncertainty
288.15	1296.08	2.22
293.15	1273.56	2.22
298.15	1249.96	2.21
303.15	1228.92	2.2
308.15	1205.72	2.2

System: 1-butanamine; phases: Liquid
Fixed: Pressure, kPa = 101.325
Property: Mass density, kg/m3 (Liquid); method: Vibrating tube method
Temperature, K	Mass density, kg/m3	uncertainty
288.15	742.865	0.58
293.15	738.096	0.576
298.15	733.301	0.573
303.15	728.477	0.569
308.15	723.625	0.565

System: dibutylamine; phases: Liquid
Fixed: Pressure, kPa = 101.325
Property: Speed of sound, m/s (Liquid); method: Sing-around technique in a fixed-path interferometer
Temperature, K	Speed of sound, m/s	uncertainty
288.15	1289.23	2.21
293.15	1269.47	2.21
298.15	1246.69	2.2
303.15	1226.7	2.2
308.15	1206.97	2.19

System: dibutylamine; phases: Liquid
Fixed: Pressure, kPa = 101.325
Property: Mass density, kg/m3 (Liquid); method: Vibrating tube method
Temperature, K	Mass density, kg/m3	uncertainty
288.15	766.115	2.098
293.15	762.022	2.078
298.15	757.784	2.059
303.15	752.284	2.033
308.15	748.17	2.014

System: tributylamine; phases: Liquid
Fixed: Pressure, kPa = 101.325
Property: Speed of sound, m/s (Liquid); method: Sing-around technique in a fixed-path interferometer
Temperature, K	Speed of sound, m/s	uncertainty
288.15	1285.04	2.2
293.15	1266.37	2.2
298.15	1247.64	2.2
303.15	1228.98	2.19
308.15	1210.42	2.19

System: tributylamine; phases: Liquid
Fixed: Pressure, kPa = 101.325
Property: Mass density, kg/m3 (Liquid); method: Vibrating tube method
Temperature, K	Mass density, kg/m3	uncertainty
288.15	781.336	0.611
293.15	777.632	0.608
298.15	773.913	0.605
303.15	770.183	0.602
308.15	766.44	0.599

System: 2-(2-hexyloxyethoxy)ethanol; phases: Liquid
Fixed: Pressure, kPa = 101.325
Property: Speed of sound, m/s (Liquid); method: Sing-around technique in a fixed-path interferometer
Temperature, K	Speed of sound, m/s	uncertainty
288.15	1405.17	2.22
293.15	1388.08	2.22
298.15	1371.14	2.21
303.15	1354.3	2.21
308.15	1337.65	2.21

System: 2-(2-hexyloxyethoxy)ethanol; phases: Liquid
Fixed: Pressure, kPa = 101.325
Property: Mass density, kg/m3 (Liquid); method: Vibrating tube method
Temperature, K	Mass density, kg/m3	uncertainty
288.15	936.901	0.765
293.15	932.917	0.76
298.15	928.926	0.756
303.15	924.931	0.752
308.15	920.933	0.747

System: 1-butanamine + 2-(2-hexyloxyethoxy)ethanol; phases: Liquid
Fixed: Pressure, kPa = 101
Property: Speed of sound, m/s (Liquid); method: Sing-around technique in a fixed-path interferometer
Mole fraction of 2-(2-hexyloxyethoxy)ethanol	Temperature, K	Speed of sound, m/s	uncertainty
0.1165	288.15	1322.97	2.15
0.1165	293.15	1302.22	2.15
0.1165	298.15	1281.5	2.14
0.1165	303.15	1260.84	2.14
0.1165	308.15	1240.34	2.14
0.1587	288.15	1332.27	2.15
0.1587	293.15	1311.99	2.15
0.1587	298.15	1291.67	2.14
0.1587	303.15	1271.49	2.14
0.1587	308.15	1251.29	2.14
0.1943	288.15	1339.54	2.15
0.1943	293.15	1319.68	2.15
0.1943	298.15	1299.68	2.14
0.1943	303.15	1279.79	2.14
0.1943	308.15	1259.85	2.14
0.2403	288.15	1348.18	2.15
0.2403	293.15	1328.73	2.15
0.2403	298.15	1309.11	2.14
0.2403	303.15	1289.63	2.14
0.2403	308.15	1270	2.14
0.2974	288.15	1357.78	2.15
0.2974	293.15	1338.75	2.14
0.2974	298.15	1319.61	2.14
0.2974	303.15	1300.56	2.14
0.2974	308.15	1281.34	2.14
0.3403	288.15	1364.21	2.15
0.3403	293.15	1345.54	2.14
0.3403	298.15	1326.64	2.14
0.3403	303.15	1307.87	2.14
0.3403	308.15	1288.93	2.14
0.3916	288.15	1371.09	2.15
0.3916	293.15	1352.63	2.14
0.3916	298.15	1334.08	2.14
0.3916	303.15	1315.65	2.14
0.3916	308.15	1297.07	2.14
0.4568	288.15	1378.62	2.15
0.4568	293.15	1360.44	2.14
0.4568	298.15	1342.25	2.14
0.4568	303.15	1324.16	2.14
0.4568	308.15	1306	2.14
0.5105	288.15	1383.9	2.15
0.5105	293.15	1365.88	2.14
0.5105	298.15	1348	2.14
0.5105	303.15	1330.09	2.14
0.5105	308.15	1312.26	2.14
0.5658	288.15	1388.52	2.15
0.5658	293.15	1370.68	2.14
0.5658	298.15	1353.01	2.14
0.5658	303.15	1335.29	2.14
0.5658	308.15	1317.75	2.14
0.6081	288.15	1391.55	2.15
0.6081	293.15	1373.87	2.14
0.6081	298.15	1356.27	2.14
0.6081	303.15	1338.75	2.14
0.6081	308.15	1321.25	2.14
0.6559	288.15	1394.49	2.15
0.6559	293.15	1376.94	2.14
0.6559	298.15	1359.49	2.14
0.6559	303.15	1342.08	2.14
0.6559	308.15	1324.9	2.14
0.6977	288.15	1396.68	2.15
0.6977	293.15	1379.21	2.14
0.6977	298.15	1361.85	2.14
0.6977	303.15	1344.55	2.14
0.6977	308.15	1327.53	2.14
0.7402	288.15	1398.57	2.15
0.7402	293.15	1381.2	2.14
0.7402	298.15	1363.91	2.14
0.7402	303.15	1346.71	2.14
0.7402	308.15	1329.8	2.14
0.8029	288.15	1400.81	2.15
0.8029	293.15	1383.52	2.14
0.8029	298.15	1366.38	2.14
0.8029	303.15	1349.31	2.14
0.8029	308.15	1332.55	2.14
0.8675	288.15	1402.53	2.15
0.8675	293.15	1385.39	2.14
0.8675	298.15	1368.32	2.14
0.8675	303.15	1351.36	2.14
0.8675	308.15	1334.62	2.14
0.9082	288.15	1403.37	2.15
0.9082	293.15	1386.3	2.14
0.9082	298.15	1369.33	2.14
0.9082	303.15	1352.42	2.14
0.9082	308.15	1335.69	2.14
0.9635	288.15	1404.26	2.15
0.9635	293.15	1387.36	2.14
0.9635	298.15	1370.39	2.14
0.9635	303.15	1353.58	2.14
0.9635	308.15	1336.81	2.14

System: 1-butanamine + 2-(2-hexyloxyethoxy)ethanol; phases: Liquid
Fixed: Pressure, kPa = 101
Property: Mass density, kg/m3 (Liquid); method: Vibrating tube method
Mole fraction of 2-(2-hexyloxyethoxy)ethanol	Temperature, K	Mass density, kg/m3	uncertainty
0.1165	288.15	788.964	0.621
0.1165	293.15	784.34	0.617
0.1165	298.15	779.774	0.613
0.1165	303.15	775.186	0.609
0.1165	308.15	770.602	0.605
0.1587	288.15	803.568	0.633
0.1587	293.15	799.044	0.629
0.1587	298.15	794.52	0.625
0.1587	303.15	790	0.622
0.1587	308.15	785.486	0.618
0.1943	288.15	814.988	0.643
0.1943	293.15	810.552	0.639
0.1943	298.15	806.078	0.635
0.1943	303.15	801.606	0.631
0.1943	308.15	797.118	0.627
0.2403	288.15	828.571	0.655
0.2403	293.15	824.179	0.651
0.2403	298.15	819.765	0.647
0.2403	303.15	815.333	0.643
0.2403	308.15	810.88	0.639
0.2974	288.15	843.631	0.669
0.2974	293.15	839.297	0.665
0.2974	298.15	834.939	0.661
0.2974	303.15	830.566	0.657
0.2974	308.15	826.173	0.653
0.3403	288.15	853.769	0.678
0.3403	293.15	849.458	0.674
0.3403	298.15	845.129	0.67
0.3403	303.15	840.783	0.666
0.3403	308.15	836.421	0.662
0.3916	288.15	864.666	0.689
0.3916	293.15	860.386	0.685
0.3916	298.15	856.092	0.681
0.3916	303.15	851.78	0.676
0.3916	308.15	847.457	0.673
0.4568	288.15	876.866	0.701
0.4568	293.15	872.668	0.697
0.4568	298.15	868.407	0.693
0.4568	303.15	864.132	0.688
0.4568	308.15	859.843	0.684
0.5105	288.15	885.772	0.71
0.5105	293.15	881.607	0.706
0.5105	298.15	877.388	0.702
0.5105	303.15	873.158	0.697
0.5105	308.15	868.903	0.693
0.5658	288.15	894.125	0.719
0.5658	293.15	889.991	0.714
0.5658	298.15	885.768	0.71
0.5658	303.15	881.571	0.706
0.5658	308.15	877.355	0.702
0.6081	288.15	900.031	0.725
0.6081	293.15	895.896	0.72
0.6081	298.15	891.728	0.716
0.6081	303.15	887.547	0.712
0.6081	308.15	883.355	0.708
0.6559	288.15	906.287	0.731
0.6559	293.15	902.162	0.727
0.6559	298.15	898.025	0.723
0.6559	303.15	893.876	0.718
0.6559	308.15	889.716	0.714
0.6977	288.15	911.396	0.737
0.6977	293.15	907.303	0.732
0.6977	298.15	903.194	0.728
0.6977	303.15	899.074	0.724
0.6977	308.15	894.942	0.719
0.7402	288.15	916.322	0.742
0.7402	293.15	912.248	0.738
0.7402	298.15	908.162	0.733
0.7402	303.15	904.067	0.729
0.7402	308.15	899.964	0.725
0.8029	288.15	923	0.749
0.8029	293.15	918.949	0.745
0.8029	298.15	914.893	0.741
0.8029	303.15	910.805	0.736
0.8029	308.15	906.755	0.732
0.8675	288.15	928.954	0.756
0.8675	293.15	924.929	0.751
0.8675	298.15	920.91	0.747
0.8675	303.15	916.89	0.743
0.8675	308.15	912.833	0.738
0.9082	288.15	932.126	0.759
0.9082	293.15	928.121	0.755
0.9082	298.15	924.113	0.75
0.9082	303.15	920.095	0.746
0.9082	308.15	916.07	0.742
0.9635	288.15	935.472	0.763
0.9635	293.15	931.477	0.758
0.9635	298.15	927.494	0.754
0.9635	303.15	923.492	0.75
0.9635	308.15	919.484	0.745

System: dibutylamine + 2-(2-hexyloxyethoxy)ethanol; phases: Liquid
Fixed: Pressure, kPa = 101
Property: Speed of sound, m/s (Liquid); method: Sing-around technique in a fixed-path interferometer
Mole fraction of 2-(2-hexyloxyethoxy)ethanol	Temperature, K	Speed of sound, m/s	uncertainty
0.0974	288.15	1301.44	2.14
0.0974	293.15	1282.29	2.14
0.0974	298.15	1262.9	2.14
0.0974	303.15	1243.68	2.13
0.0974	308.15	1225.28	2.13
0.1441	288.15	1308.12	2.14
0.1441	293.15	1289.17	2.14
0.1441	298.15	1270.55	2.14
0.1441	303.15	1250.97	2.13
0.1441	308.15	1232.23	2.13
0.1908	288.15	1314.8	2.14
0.1908	293.15	1295.95	2.14
0.1908	298.15	1277.82	2.14
0.1908	303.15	1258.2	2.14
0.1908	308.15	1239.18	2.13
0.253	288.15	1323.47	2.14
0.253	293.15	1304.81	2.14
0.253	298.15	1287.05	2.14
0.253	303.15	1267.67	2.14
0.253	308.15	1248.65	2.13
0.2986	288.15	1329.78	2.14
0.2986	293.15	1311.25	2.14
0.2986	298.15	1293.6	2.14
0.2986	303.15	1274.45	2.14
0.2986	308.15	1255.53	2.13
0.3606	288.15	1338.03	2.14
0.3606	293.15	1319.71	2.14
0.3606	298.15	1302.12	2.14
0.3606	303.15	1283.44	2.14
0.3606	308.15	1264.84	2.13
0.4018	288.15	1343.36	2.14
0.4018	293.15	1325.25	2.14
0.4018	298.15	1307.6	2.14
0.4018	303.15	1289.3	2.14
0.4018	308.15	1270.93	2.13
0.4584	288.15	1350.4	2.14
0.4584	293.15	1332.64	2.14
0.4584	298.15	1314.96	2.14
0.4584	303.15	1297.05	2.14
0.4584	308.15	1279.08	2.13
0.5091	288.15	1356.69	2.14
0.5091	293.15	1339.01	2.14
0.5091	298.15	1321.35	2.14
0.5091	303.15	1303.79	2.14
0.5091	308.15	1286.18	2.13
0.5435	288.15	1360.77	2.14
0.5435	293.15	1343.21	2.14
0.5435	298.15	1325.65	2.14
0.5435	303.15	1308.19	2.14
0.5435	308.15	1290.82	2.13
0.587	288.15	1365.8	2.14
0.587	293.15	1348.42	2.14
0.587	298.15	1330.88	2.14
0.587	303.15	1313.63	2.14
0.587	308.15	1296.48	2.13
0.6097	288.15	1368.36	2.14
0.6097	293.15	1351.05	2.14
0.6097	298.15	1333.56	2.14
0.6097	303.15	1316.39	2.14
0.6097	308.15	1299.36	2.13
0.6572	288.15	1373.58	2.14
0.6572	293.15	1356.39	2.14
0.6572	298.15	1339.05	2.14
0.6572	303.15	1321.98	2.14
0.6572	308.15	1305.05	2.13
0.7023	288.15	1378.35	2.14
0.7023	293.15	1361.27	2.14
0.7023	298.15	1344.12	2.14
0.7023	303.15	1327	2.14
0.7023	308.15	1310.12	2.13
0.7451	288.15	1382.71	2.14
0.7451	293.15	1365.7	2.14
0.7451	298.15	1348.64	2.14
0.7451	303.15	1331.58	2.14
0.7451	308.15	1314.55	2.14
0.8144	288.15	1389.39	2.14
0.8144	293.15	1372.42	2.14
0.8144	298.15	1355.55	2.14
0.8144	303.15	1338.46	2.14
0.8144	308.15	1320.88	2.14
0.8675	288.15	1394.19	2.14
0.8675	293.15	1377.16	2.14
0.8675	298.15	1360.35	2.14
0.8675	303.15	1343.32	2.14
0.8675	308.15	1325.02	2.14
0.9083	288.15	1397.68	2.15
0.9083	293.15	1380.58	2.14
0.9083	298.15	1363.7	2.14
0.9083	303.15	1346.75	2.14
0.9083	308.15	1327.65	2.14
0.9414	288.15	1400.38	2.15
0.9414	293.15	1383.16	2.14
0.9414	298.15	1366.18	2.14
0.9414	303.15	1349.33	2.14
0.9414	308.15	1329.46	2.15

System: dibutylamine + 2-(2-hexyloxyethoxy)ethanol; phases: Liquid
Fixed: Pressure, kPa = 101
Property: Mass density, kg/m3 (Liquid); method: Vibrating tube method
Mole fraction of 2-(2-hexyloxyethoxy)ethanol	Temperature, K	Mass density, kg/m3	uncertainty
0.0974	288.15	787.886	0.617
0.0974	293.15	783.751	0.614
0.0974	298.15	779.614	0.61
0.0974	303.15	775.187	0.606
0.0974	308.15	771.079	0.603
0.1441	288.15	798.114	0.625
0.1441	293.15	793.988	0.623
0.1441	298.15	789.859	0.619
0.1441	303.15	785.667	0.615
0.1441	308.15	781.545	0.614
0.1908	288.15	808.103	0.635
0.1908	293.15	804	0.631
0.1908	298.15	799.885	0.628
0.1908	303.15	795.785	0.624
0.1908	308.15	791.662	0.621
0.253	288.15	820.984	0.647
0.253	293.15	816.934	0.643
0.253	298.15	812.825	0.639
0.253	303.15	808.731	0.636
0.253	308.15	804.6	0.632
0.2986	288.15	830.092	0.655
0.2986	293.15	826.059	0.652
0.2986	298.15	821.948	0.648
0.2986	303.15	817.838	0.644
0.2986	308.15	813.671	0.64
0.3606	288.15	842	0.667
0.3606	293.15	837.97	0.663
0.3606	298.15	833.834	0.659
0.3606	303.15	829.692	0.655
0.3606	308.15	825.52	0.651
0.4018	288.15	849.578	0.674
0.4018	293.15	845.585	0.67
0.4018	298.15	841.423	0.666
0.4018	303.15	837.274	0.662
0.4018	308.15	833.078	0.658
0.4584	288.15	859.635	0.684
0.4584	293.15	855.602	0.68
0.4584	298.15	851.46	0.676
0.4584	303.15	847.291	0.672
0.4584	308.15	843.095	0.668
0.5091	288.15	868.247	0.692
0.5091	293.15	864.218	0.688
0.5091	298.15	860.074	0.684
0.5091	303.15	855.914	0.68
0.5091	308.15	851.724	0.676
0.5435	288.15	873.936	0.698
0.5435	293.15	869.891	0.694
0.5435	298.15	865.751	0.69
0.5435	303.15	861.602	0.686
0.5435	308.15	857.401	0.682
0.587	288.15	880.891	0.705
0.587	293.15	876.847	0.701
0.587	298.15	872.72	0.697
0.587	303.15	868.58	0.693
0.587	308.15	864.406	0.688
0.6097	288.15	884.459	0.709
0.6097	293.15	880.409	0.705
0.6097	298.15	876.278	0.7
0.6097	303.15	872.165	0.696
0.6097	308.15	867.972	0.692
0.6572	288.15	891.716	0.716
0.6572	293.15	887.648	0.712
0.6572	298.15	883.547	0.708
0.6572	303.15	879.461	0.704
0.6572	308.15	875.302	0.699
0.7023	288.15	898.412	0.723
0.7023	293.15	894.343	0.719
0.7023	298.15	890.259	0.715
0.7023	303.15	886.201	0.71
0.7023	308.15	882.052	0.706
0.7451	288.15	904.586	0.73
0.7451	293.15	900.53	0.725
0.7451	298.15	896.459	0.721
0.7451	303.15	892.397	0.717
0.7451	308.15	888.281	0.713
0.8144	288.15	914.195	0.74
0.8144	293.15	910.151	0.736
0.8144	298.15	906.103	0.731
0.8144	303.15	902.062	0.727
0.8144	308.15	897.98	0.723
0.8675	288.15	921.188	0.747
0.8675	293.15	917.168	0.743
0.8675	298.15	913.137	0.739
0.8675	303.15	909.095	0.734
0.8675	308.15	905.045	0.73
0.9083	288.15	926.329	0.753
0.9083	293.15	922.317	0.749
0.9083	298.15	918.3	0.744
0.9083	303.15	914.27	0.74
0.9083	308.15	910.231	0.736
0.9414	288.15	930.322	0.757
0.9414	293.15	926.329	0.753
0.9414	298.15	922.323	0.749
0.9414	303.15	918.281	0.744
0.9414	308.15	914.269	0.74

System: tributylamine + 2-(2-hexyloxyethoxy)ethanol; phases: Liquid
Fixed: Pressure, kPa = 101
Property: Speed of sound, m/s (Liquid); method: Sing-around technique in a fixed-path interferometer
Mole fraction of 2-(2-hexyloxyethoxy)ethanol	Temperature, K	Speed of sound, m/s	uncertainty
0.1168	288.15	1294	2.14
0.1168	293.15	1274.86	2.14
0.1168	298.15	1255.97	2.13
0.1168	303.15	1237.35	2.13
0.1168	308.15	1219.04	2.13
0.1659	288.15	1298.17	2.14
0.1659	293.15	1279.15	2.14
0.1659	298.15	1260.3	2.13
0.1659	303.15	1241.7	2.13
0.1659	308.15	1223.38	2.13
0.2092	288.15	1302.06	2.14
0.2092	293.15	1283.1	2.14
0.2092	298.15	1264.34	2.13
0.2092	303.15	1245.84	2.13
0.2092	308.15	1227.47	2.13
0.2589	288.15	1306.8	2.14
0.2589	293.15	1287.92	2.14
0.2589	298.15	1269.25	2.13
0.2589	303.15	1250.78	2.13
0.2589	308.15	1232.48	2.13
0.3155	288.15	1312.56	2.14
0.3155	293.15	1293.77	2.14
0.3155	298.15	1275.16	2.13
0.3155	303.15	1256.82	2.13
0.3155	308.15	1238.57	2.13
0.3564	288.15	1316.92	2.14
0.3564	293.15	1298.2	2.14
0.3564	298.15	1279.68	2.14
0.3564	303.15	1261.41	2.13
0.3564	308.15	1243.23	2.13
0.383	288.15	1319.83	2.14
0.383	293.15	1301.19	2.14
0.383	298.15	1282.7	2.14
0.383	303.15	1264.51	2.13
0.383	308.15	1246.36	2.13
0.4544	288.15	1328.05	2.14
0.4544	293.15	1309.53	2.14
0.4544	298.15	1291.2	2.14
0.4544	303.15	1273.2	2.13
0.4544	308.15	1255.19	2.13
0.5108	288.15	1334.89	2.14
0.5108	293.15	1316.53	2.14
0.5108	298.15	1298.27	2.14
0.5108	303.15	1280.4	2.13
0.5108	308.15	1262.57	2.13
0.5568	288.15	1340.69	2.14
0.5568	293.15	1322.44	2.14
0.5568	298.15	1304.29	2.14
0.5568	303.15	1286.52	2.13
0.5568	308.15	1268.83	2.13
0.6107	288.15	1347.74	2.14
0.6107	293.15	1329.59	2.14
0.6107	298.15	1311.58	2.14
0.6107	303.15	1293.98	2.13
0.6107	308.15	1276.38	2.13
0.6683	288.15	1355.56	2.14
0.6683	293.15	1337.54	2.14
0.6683	298.15	1319.68	2.14
0.6683	303.15	1302.25	2.13
0.6683	308.15	1284.77	2.13
0.6924	288.15	1358.91	2.14
0.6924	293.15	1340.94	2.14
0.6924	298.15	1323.16	2.14
0.6924	303.15	1305.8	2.14
0.6924	308.15	1288.36	2.13
0.7544	288.15	1367.76	2.14
0.7544	293.15	1349.97	2.14
0.7544	298.15	1332.33	2.14
0.7544	303.15	1315.15	2.14
0.7544	308.15	1297.81	2.13
0.7963	288.15	1373.92	2.14
0.7963	293.15	1356.22	2.14
0.7963	298.15	1338.74	2.14
0.7963	303.15	1321.64	2.14
0.7963	308.15	1304.36	2.13
0.858	288.15	1383.21	2.15
0.858	293.15	1365.72	2.14
0.858	298.15	1348.35	2.14
0.858	303.15	1331.46	2.14
0.858	308.15	1314.21	2.14
0.9079	288.15	1390.94	2.15
0.9079	293.15	1373.58	2.14
0.9079	298.15	1356.38	2.14
0.9079	303.15	1339.62	2.14
0.9079	308.15	1322.35	2.14
0.9553	288.15	1398.43	2.15
0.9553	293.15	1381.26	2.14
0.9553	298.15	1364.2	2.14
0.9553	303.15	1347.56	2.14
0.9553	308.15	1330.18	2.14

System: tributylamine + 2-(2-hexyloxyethoxy)ethanol; phases: Liquid
Fixed: Pressure, kPa = 101
Property: Mass density, kg/m3 (Liquid); method: Vibrating tube method
Mole fraction of 2-(2-hexyloxyethoxy)ethanol	Temperature, K	Mass density, kg/m3	uncertainty
0.1168	288.15	797.427	0.625
0.1168	293.15	793.696	0.621
0.1168	298.15	789.759	0.618
0.1168	303.15	785.812	0.614
0.1168	308.15	782.055	0.611
0.1659	288.15	804.49	0.631
0.1659	293.15	800.716	0.628
0.1659	298.15	796.756	0.624
0.1659	303.15	792.8	0.621
0.1659	308.15	788.975	0.617
0.2092	288.15	810.815	0.637
0.2092	293.15	806.993	0.633
0.2092	298.15	803.027	0.63
0.2092	303.15	799.078	0.626
0.2092	308.15	795.2	0.623
0.2589	288.15	818.158	0.644
0.2589	293.15	814.291	0.64
0.2589	298.15	810.334	0.636
0.2589	303.15	806.371	0.633
0.2589	308.15	802.458	0.629
0.3155	288.15	826.596	0.651
0.3155	293.15	822.69	0.648
0.3155	298.15	818.738	0.644
0.3155	303.15	814.795	0.641
0.3155	308.15	810.825	0.637
0.3564	288.15	832.755	0.657
0.3564	293.15	828.829	0.654
0.3564	298.15	824.867	0.65
0.3564	303.15	820.924	0.646
0.3564	308.15	816.944	0.643
0.383	288.15	836.791	0.661
0.383	293.15	832.842	0.657
0.383	298.15	828.881	0.654
0.383	303.15	824.93	0.65
0.383	308.15	820.957	0.646
0.4544	288.15	847.683	0.672
0.4544	293.15	843.729	0.668
0.4544	298.15	839.761	0.664
0.4544	303.15	835.783	0.66
0.4544	308.15	831.821	0.657
0.5108	288.15	856.418	0.68
0.5108	293.15	852.463	0.676
0.5108	298.15	848.467	0.673
0.5108	303.15	844.479	0.669
0.5108	308.15	840.528	0.665
0.5568	288.15	863.63	0.687
0.5568	293.15	859.691	0.684
0.5568	298.15	855.668	0.68
0.5568	303.15	851.665	0.676
0.5568	308.15	847.701	0.672
0.6107	288.15	872.206	0.696
0.6107	293.15	868.299	0.692
0.6107	298.15	864.217	0.688
0.6107	303.15	860.198	0.684
0.6107	308.15	856.228	0.68
0.6683	288.15	881.543	0.706
0.6683	293.15	877.641	0.702
0.6683	298.15	873.531	0.698
0.6683	303.15	869.475	0.693
0.6683	308.15	865.486	0.689
0.6924	288.15	885.505	0.71
0.6924	293.15	881.587	0.706
0.6924	298.15	877.468	0.702
0.6924	303.15	873.41	0.697
0.6924	308.15	869.396	0.693
0.7544	288.15	895.808	0.721
0.7544	293.15	891.893	0.716
0.7544	298.15	887.746	0.712
0.7544	303.15	883.674	0.708
0.7544	308.15	879.592	0.704
0.7963	288.15	902.873	0.728
0.7963	293.15	898.935	0.724
0.7963	298.15	894.791	0.72
0.7963	303.15	890.73	0.715
0.7963	308.15	886.574	0.711
0.858	288.15	913.335	0.739
0.858	293.15	909.366	0.735
0.858	298.15	905.245	0.731
0.858	303.15	901.206	0.726
0.858	308.15	896.983	0.722
0.9079	288.15	921.784	0.748
0.9079	293.15	917.773	0.744
0.9079	298.15	913.7	0.74
0.9079	303.15	909.674	0.735
0.9079	308.15	905.434	0.731
0.9553	288.15	929.676	0.757
0.9553	293.15	925.674	0.753
0.9553	298.15	921.63	0.748
0.9553	303.15	917.622	0.744
0.9553	308.15	913.46	0.74
