Measured thermophysical data. Thermophysical Properties of Isoamyl Acetate or Methyl Benzoate + Hydrocarbon Binary Mixtures, at (303.15 and 313.15) K
Source: J. Chem. Eng. Data, 2009, 10.1021/je800325d
Compound 1: 3-methylbutyl ethanoate, C7H14O2, InChI=1S/C7H14O2/c1-6(2)4-5-9-7(3)8/h6H,4-5H2,1-3H3, purity 99%
Compound 2: methyl benzoate, C8H8O2, InChI=1S/C8H8O2/c1-10-8(9)7-5-3-2-4-6-7/h2-6H,1H3, purity 99%
Compound 3: 1,2-dimethylbenzene, C8H10, InChI=1S/C8H10/c1-7-5-3-4-6-8(7)2/h3-6H,1-2H3, purity 98%
Compound 4: 1,3-dimethylbenzene, C8H10, InChI=1S/C8H10/c1-7-4-3-5-8(2)6-7/h3-6H,1-2H3, purity 98%
Compound 5: 1,4-dimethylbenzene, C8H10, InChI=1S/C8H10/c1-7-3-5-8(2)6-4-7/h3-6H,1-2H3, purity 98%
Compound 6: ethylbenzene, C8H10, InChI=1S/C8H10/c1-2-8-6-4-3-5-7-8/h3-7H,2H2,1H3, purity 99%

System: 3-methylbutyl ethanoate; phases: Liquid
Fixed: Pressure, kPa = 101.325
Property: Viscosity, Pa*s (Liquid); method: Capillary tube (Ostwald; Ubbelohde) method
Temperature, K	Viscosity, Pa*s	uncertainty
303.15	0.000741	1.3e-05
313.15	0.000649	1.3e-05

System: 3-methylbutyl ethanoate; phases: Liquid
Fixed: Pressure, kPa = 101.325
Property: Refractive index (Na D-line) (Liquid); method: Standard Abbe refractometry
Temperature, K	Refractive index (Na D-line)	uncertainty
303.15	1.3959	0.0006
313.15	1.3945	0.0006

System: 3-methylbutyl ethanoate; phases: Liquid
Fixed: Pressure, kPa = 101.325
Property: Mass density, kg/m3 (Liquid); method: Pycnometric method
Temperature, K	Mass density, kg/m3	uncertainty
303.15	862.3	0.5
313.15	852.8	0.5

System: methyl benzoate; phases: Liquid
Fixed: Pressure, kPa = 101.325
Property: Viscosity, Pa*s (Liquid); method: Capillary tube (Ostwald; Ubbelohde) method
Temperature, K	Viscosity, Pa*s	uncertainty
303.15	0.001679	1.7e-05
313.15	0.001414	1.6e-05

System: methyl benzoate; phases: Liquid
Fixed: Pressure, kPa = 101.325
Property: Refractive index (Na D-line) (Liquid); method: Standard Abbe refractometry
Temperature, K	Refractive index (Na D-line)	uncertainty
303.15	1.5127	0.0006
313.15	1.5083	0.0006

System: methyl benzoate; phases: Liquid
Fixed: Pressure, kPa = 101.325
Property: Mass density, kg/m3 (Liquid); method: Pycnometric method
Temperature, K	Mass density, kg/m3	uncertainty
303.15	1078.8	0.6
313.15	1069.2	0.6

System: 1,2-dimethylbenzene; phases: Liquid
Fixed: Pressure, kPa = 101.325
Property: Viscosity, Pa*s (Liquid); method: Capillary tube (Ostwald; Ubbelohde) method
Temperature, K	Viscosity, Pa*s	uncertainty
303.15	0.000695	1.4e-05
313.15	0.000621	1.4e-05

System: 1,2-dimethylbenzene; phases: Liquid
Fixed: Pressure, kPa = 101.325
Property: Refractive index (Na D-line) (Liquid); method: Standard Abbe refractometry
Temperature, K	Refractive index (Na D-line)	uncertainty
303.15	1.5001	0.0007
313.15	1.4981	0.0007

System: 1,2-dimethylbenzene; phases: Liquid
Fixed: Pressure, kPa = 101.325
Property: Mass density, kg/m3 (Liquid); method: Pycnometric method
Temperature, K	Mass density, kg/m3	uncertainty
303.15	871.5	0.9
313.15	863.3	0.9

System: 1,3-dimethylbenzene; phases: Liquid
Fixed: Pressure, kPa = 101.325
Property: Viscosity, Pa*s (Liquid); method: Capillary tube (Ostwald; Ubbelohde) method
Temperature, K	Viscosity, Pa*s	uncertainty
303.15	0.000557	1.3e-05
313.15	0.000508	1.3e-05

System: 1,3-dimethylbenzene; phases: Liquid
Fixed: Pressure, kPa = 101.325
Property: Refractive index (Na D-line) (Liquid); method: Standard Abbe refractometry
Temperature, K	Refractive index (Na D-line)	uncertainty
303.15	1.492	0.0007
313.15	1.4901	0.0007

System: 1,3-dimethylbenzene; phases: Liquid
Fixed: Pressure, kPa = 101.325
Property: Mass density, kg/m3 (Liquid); method: Pycnometric method
Temperature, K	Mass density, kg/m3	uncertainty
303.15	855.3	0.8
313.15	847.1	0.8

System: 1,4-dimethylbenzene; phases: Liquid
Fixed: Pressure, kPa = 101.325
Property: Viscosity, Pa*s (Liquid); method: Capillary tube (Ostwald; Ubbelohde) method
Temperature, K	Viscosity, Pa*s	uncertainty
303.15	0.000566	1.4e-05
313.15	0.000517	1.3e-05

System: 1,4-dimethylbenzene; phases: Liquid
Fixed: Pressure, kPa = 101.325
Property: Refractive index (Na D-line) (Liquid); method: Standard Abbe refractometry
Temperature, K	Refractive index (Na D-line)	uncertainty
303.15	1.4911	0.0007
313.15	1.4902	0.0007

System: 1,4-dimethylbenzene; phases: Liquid
Fixed: Pressure, kPa = 101.325
Property: Mass density, kg/m3 (Liquid); method: Pycnometric method
Temperature, K	Mass density, kg/m3	uncertainty
303.15	852.1	0.8
313.15	843.5	0.8

System: ethylbenzene; phases: Liquid
Fixed: Pressure, kPa = 101.325
Property: Viscosity, Pa*s (Liquid); method: Capillary tube (Ostwald; Ubbelohde) method
Temperature, K	Viscosity, Pa*s	uncertainty
303.15	0.000597	1.3e-05
313.15	0.000538	1.3e-05

System: ethylbenzene; phases: Liquid
Fixed: Pressure, kPa = 101.325
Property: Refractive index (Na D-line) (Liquid); method: Standard Abbe refractometry
Temperature, K	Refractive index (Na D-line)	uncertainty
303.15	1.491	0.0006
313.15	1.4891	0.0006

System: ethylbenzene; phases: Liquid
Fixed: Pressure, kPa = 101.325
Property: Mass density, kg/m3 (Liquid); method: PYCNOM:UFactor:16
Temperature, K	Mass density, kg/m3	uncertainty
303.15	857.6	3.5
313.15	849.2	3.9

System: 1,2-dimethylbenzene + 3-methylbutyl ethanoate; phases: Liquid
Fixed: Pressure, kPa = 101
Property: Viscosity, Pa*s (Liquid); method: CAPTUB:UFactor:2
Temperature, K	Mole fraction of 3-methylbutyl ethanoate	Viscosity, Pa*s	uncertainty
303.15	0.0856	0.000705	1.6e-05
303.15	0.1739	0.000707	1.6e-05
303.15	0.2554	0.000709	1.6e-05
303.15	0.3538	0.000712	1.6e-05
303.15	0.445	0.000714	1.6e-05
303.15	0.5481	0.000718	1.5e-05
303.15	0.6564	0.000722	1.5e-05
303.15	0.7531	0.000726	1.5e-05
303.15	0.8542	0.000731	1.5e-05
303.15	0.9538	0.000738	1.5e-05
313.15	0.0856	0.000622	1.5e-05
313.15	0.1739	0.000623	1.5e-05
313.15	0.2554	0.000623	1.5e-05
313.15	0.3538	0.000624	1.5e-05
313.15	0.445	0.000625	1.5e-05
313.15	0.5481	0.000627	1.5e-05
313.15	0.6564	0.000631	1.5e-05
313.15	0.7531	0.000635	1.5e-05
313.15	0.8542	0.00064	1.5e-05
313.15	0.9538	0.000646	1.5e-05

System: 1,2-dimethylbenzene + 3-methylbutyl ethanoate; phases: Liquid
Fixed: Pressure, kPa = 101
Property: Refractive index (Na D-line) (Liquid); method: ABBE:UFactor:2
Temperature, K	Mole fraction of 3-methylbutyl ethanoate	Refractive index (Na D-line)	uncertainty
303.15	0.0856	1.4903	0.0008
303.15	0.1739	1.4806	0.0008
303.15	0.2554	1.4721	0.0008
303.15	0.3538	1.462	0.0008
303.15	0.445	1.453	0.0008
303.15	0.5481	1.4436	0.0008
303.15	0.6564	1.4319	0.0008
303.15	0.7531	1.4217	0.0008
303.15	0.8542	1.4113	0.0008
303.15	0.9538	1.4018	0.0008
313.15	0.0856	1.488	0.0008
313.15	0.1739	1.4779	0.0008
313.15	0.2554	1.4695	0.0008
313.15	0.3538	1.458	0.0008
313.15	0.445	1.4486	0.0008
313.15	0.5481	1.4375	0.0008
313.15	0.6564	1.4258	0.0008
313.15	0.7531	1.4157	0.0008
313.15	0.8542	1.4062	0.0008
313.15	0.9538	1.3961	0.0008

System: 1,2-dimethylbenzene + 3-methylbutyl ethanoate; phases: Liquid
Fixed: Pressure, kPa = 101
Property: Mass density, kg/m3 (Liquid); method: PYCNOM:UFactor:16
Temperature, K	Mole fraction of 3-methylbutyl ethanoate	Mass density, kg/m3	uncertainty
303.15	0.0856	869.7	4
303.15	0.1739	869.5	4
303.15	0.2554	868.2	3.9
303.15	0.3538	867.8	3.8
303.15	0.445	867.4	3.8
303.15	0.5481	866	3.7
303.15	0.6564	865	3.7
303.15	0.7531	864.1	3.7
303.15	0.8542	863.7	3.6
303.15	0.9538	863.2	3.6
313.15	0.0856	861.4	4.3
313.15	0.1739	860.8	4.3
313.15	0.2554	859.8	4.2
313.15	0.3538	859.1	4.2
313.15	0.445	858.4	4.1
313.15	0.5481	856.7	4.1
313.15	0.6564	855.8	4
313.15	0.7531	855.1	4
313.15	0.8542	854.7	3.9
313.15	0.9538	853.9	3.9

System: 1,3-dimethylbenzene + 3-methylbutyl ethanoate; phases: Liquid
Fixed: Pressure, kPa = 101
Property: Viscosity, Pa*s (Liquid); method: CAPTUB:UFactor:2
Temperature, K	Mole fraction of 3-methylbutyl ethanoate	Viscosity, Pa*s	uncertainty
303.15	0.0877	0.000561	1.5e-05
303.15	0.1726	0.000572	1.5e-05
303.15	0.3736	0.000605	1.5e-05
303.15	0.4421	0.000619	1.5e-05
303.15	0.5478	0.000643	1.5e-05
303.15	0.657	0.000666	1.5e-05
303.15	0.7478	0.000687	1.5e-05
303.15	0.8501	0.000708	1.5e-05
303.15	0.9465	0.000727	1.5e-05
313.15	0.0877	0.000502	1.4e-05
313.15	0.1726	0.00051	1.4e-05
313.15	0.3736	0.000538	1.4e-05
313.15	0.4421	0.000549	1.4e-05
313.15	0.5478	0.000568	1.4e-05
313.15	0.657	0.000587	1.4e-05
313.15	0.7478	0.000603	1.4e-05
313.15	0.8501	0.000623	1.4e-05
313.15	0.9465	0.000638	1.4e-05

System: 1,3-dimethylbenzene + 3-methylbutyl ethanoate; phases: Liquid
Fixed: Pressure, kPa = 101
Property: Refractive index (Na D-line) (Liquid); method: Standard Abbe refractometry
Temperature, K	Mole fraction of 3-methylbutyl ethanoate	Refractive index (Na D-line)	uncertainty
303.15	0.0877	1.483	0.0007
303.15	0.1726	1.4745	0.0007
303.15	0.3736	1.4549	0.0006
303.15	0.4421	1.4487	0.0006
303.15	0.5478	1.4398	0.0006
303.15	0.657	1.4297	0.0006
303.15	0.7478	1.4207	0.0006
303.15	0.8501	1.4101	0.0006
303.15	0.9465	1.4014	0.0006
313.15	0.0877	1.4811	0.0007
313.15	0.1726	1.4724	0.0007
313.15	0.3736	1.452	0.0006
313.15	0.4421	1.4456	0.0006
313.15	0.5478	1.435	0.0006
313.15	0.657	1.4248	0.0006
313.15	0.7478	1.4157	0.0006
313.15	0.8501	1.4056	0.0006
313.15	0.9465	1.3985	0.0006

System: 1,3-dimethylbenzene + 3-methylbutyl ethanoate; phases: Liquid
Fixed: Pressure, kPa = 101
Property: Mass density, kg/m3 (Liquid); method: PYCNOM:UFactor:16
Temperature, K	Mole fraction of 3-methylbutyl ethanoate	Mass density, kg/m3	uncertainty
303.15	0.0877	855.8	3.9
303.15	0.1726	856.5	3.9
303.15	0.3736	858.2	3.8
303.15	0.4421	858.4	3.8
303.15	0.5478	858.8	3.7
303.15	0.657	859.3	3.7
303.15	0.7478	860.1	3.6
303.15	0.8501	861	3.6
303.15	0.9465	861.9	3.6
313.15	0.0877	847.3	4.2
313.15	0.1726	848.2	4.2
313.15	0.3736	849.5	4.1
313.15	0.4421	849.6	4.1
313.15	0.5478	849.8	4
313.15	0.657	850.3	4
313.15	0.7478	851.1	4
313.15	0.8501	851.9	3.9
313.15	0.9465	852.8	3.9

System: 1,4-dimethylbenzene + 3-methylbutyl ethanoate; phases: Liquid
Fixed: Pressure, kPa = 101
Property: Viscosity, Pa*s (Liquid); method: CAPTUB:UFactor:2
Temperature, K	Mole fraction of 3-methylbutyl ethanoate	Viscosity, Pa*s	uncertainty
303.15	0.096	0.000573	1.5e-05
303.15	0.1713	0.000584	1.5e-05
303.15	0.2823	0.0006	1.5e-05
303.15	0.3819	0.000617	1.5e-05
303.15	0.4503	0.000628	1.5e-05
303.15	0.5438	0.000645	1.5e-05
303.15	0.6472	0.000664	1.5e-05
303.15	0.7467	0.000684	1.5e-05
303.15	0.8487	0.000704	1.5e-05
303.15	0.9398	0.000722	1.5e-05
313.15	0.096	0.000517	1.4e-05
313.15	0.1713	0.000525	1.4e-05
313.15	0.2823	0.000537	1.4e-05
313.15	0.3819	0.000549	1.4e-05
313.15	0.4503	0.000556	1.4e-05
313.15	0.5438	0.00057	1.4e-05
313.15	0.6472	0.000584	1.4e-05
313.15	0.7467	0.0006	1.4e-05
313.15	0.8487	0.000615	1.4e-05
313.15	0.9398	0.000634	1.4e-05

System: 1,4-dimethylbenzene + 3-methylbutyl ethanoate; phases: Liquid
Fixed: Pressure, kPa = 101
Property: Refractive index (Na D-line) (Liquid); method: Standard Abbe refractometry
Temperature, K	Mole fraction of 3-methylbutyl ethanoate	Refractive index (Na D-line)	uncertainty
303.15	0.096	1.4821	0.0007
303.15	0.1713	1.4749	0.0007
303.15	0.2823	1.4645	0.0007
303.15	0.3819	1.4554	0.0006
303.15	0.4503	1.4495	0.0006
303.15	0.5438	1.4397	0.0006
303.15	0.6472	1.4293	0.0006
303.15	0.7467	1.4193	0.0006
303.15	0.8487	1.41	0.0006
303.15	0.9398	1.4017	0.0006
313.15	0.096	1.4811	0.0007
313.15	0.1713	1.474	0.0007
313.15	0.2823	1.4621	0.0007
313.15	0.3819	1.4523	0.0006
313.15	0.4503	1.4454	0.0006
313.15	0.5438	1.4356	0.0006
313.15	0.6472	1.4248	0.0006
313.15	0.7467	1.4147	0.0006
313.15	0.8487	1.4056	0.0006
313.15	0.9398	1.3984	0.0006

System: 1,4-dimethylbenzene + 3-methylbutyl ethanoate; phases: Liquid
Fixed: Pressure, kPa = 101
Property: Mass density, kg/m3 (Liquid); method: PYCNOM:UFactor:16
Temperature, K	Mole fraction of 3-methylbutyl ethanoate	Mass density, kg/m3	uncertainty
303.15	0.096	852.4	3.9
303.15	0.1713	853.6	3.9
303.15	0.2823	854.5	3.8
303.15	0.3819	856.7	3.8
303.15	0.4503	857.8	3.7
303.15	0.5438	858.1	3.7
303.15	0.6472	858.7	3.7
303.15	0.7467	859.7	3.6
303.15	0.8487	860.1	3.6
303.15	0.9398	861	3.6
313.15	0.096	844.8	4.2
313.15	0.1713	845.9	4.2
313.15	0.2823	846.3	4.1
313.15	0.3819	847.5	4.1
313.15	0.4503	848.7	4.1
313.15	0.5438	849.6	4
313.15	0.6472	850.1	4
313.15	0.7467	850.7	4
313.15	0.8487	851.3	3.9
313.15	0.9398	851.6	3.9

System: ethylbenzene + 3-methylbutyl ethanoate; phases: Liquid
Fixed: Pressure, kPa = 101
Property: Viscosity, Pa*s (Liquid); method: CAPTUB:UFactor:2
Temperature, K	Mole fraction of 3-methylbutyl ethanoate	Viscosity, Pa*s	uncertainty
303.15	0.0851	0.000597	1.4e-05
303.15	0.1684	0.000605	1.4e-05
303.15	0.2613	0.000615	1.4e-05
303.15	0.3719	0.000629	1.4e-05
303.15	0.4584	0.000639	1.4e-05
303.15	0.538	0.000649	1.5e-05
303.15	0.6532	0.000666	1.5e-05
303.15	0.7513	0.000681	1.5e-05
303.15	0.8475	0.000703	1.5e-05
303.15	0.9401	0.000726	1.5e-05
313.15	0.0851	0.000533	1.4e-05
313.15	0.1684	0.000541	1.4e-05
313.15	0.2613	0.000549	1.4e-05
313.15	0.3719	0.000559	1.4e-05
313.15	0.4584	0.000567	1.4e-05
313.15	0.538	0.000575	1.4e-05
313.15	0.6532	0.000588	1.4e-05
313.15	0.7513	0.0006	1.4e-05
313.15	0.8475	0.000619	1.4e-05
313.15	0.9401	0.000638	1.4e-05

System: ethylbenzene + 3-methylbutyl ethanoate; phases: Liquid
Fixed: Pressure, kPa = 101
Property: Refractive index (Na D-line) (Liquid); method: Standard Abbe refractometry
Temperature, K	Mole fraction of 3-methylbutyl ethanoate	Refractive index (Na D-line)	uncertainty
303.15	0.0851	1.4802	0.0006
303.15	0.1684	1.4701	0.0006
303.15	0.2613	1.4593	0.0006
303.15	0.3719	1.4471	0.0006
303.15	0.4584	1.4376	0.0006
303.15	0.538	1.4291	0.0006
303.15	0.6532	1.4177	0.0006
303.15	0.7513	1.4112	0.0006
303.15	0.8475	1.4041	0.0006
303.15	0.9401	1.3983	0.0006
313.15	0.0851	1.4781	0.0006
313.15	0.1684	1.4676	0.0006
313.15	0.2613	1.4565	0.0006
313.15	0.3719	1.4425	0.0006
313.15	0.4584	1.4342	0.0006
313.15	0.538	1.4276	0.0006
313.15	0.6532	1.4168	0.0006
313.15	0.7513	1.4099	0.0006
313.15	0.8475	1.4035	0.0006
313.15	0.9401	1.3965	0.0006

System: ethylbenzene + 3-methylbutyl ethanoate; phases: Liquid
Fixed: Pressure, kPa = 101
Property: Mass density, kg/m3 (Liquid); method: PYCNOM:UFactor:16
Temperature, K	Mole fraction of 3-methylbutyl ethanoate	Mass density, kg/m3	uncertainty
303.15	0.0851	856.9	3.5
303.15	0.1684	858	3.5
303.15	0.2613	858.4	3.5
303.15	0.3719	859	3.5
303.15	0.4584	859.6	3.5
303.15	0.538	860.1	3.5
303.15	0.6532	861.1	3.6
303.15	0.7513	861.6	3.6
303.15	0.8475	862	3.6
303.15	0.9401	862.3	3.6
313.15	0.0851	848.8	3.9
313.15	0.1684	849.1	3.9
313.15	0.2613	849.7	3.9
313.15	0.3719	850.3	3.9
313.15	0.4584	850.9	3.9
313.15	0.538	851.3	3.9
313.15	0.6532	851.6	3.9
313.15	0.7513	851.8	3.9
313.15	0.8475	852.1	3.9
313.15	0.9401	852.3	3.9

System: methyl benzoate + 1,2-dimethylbenzene; phases: Liquid
Fixed: Pressure, kPa = 101
Property: Viscosity, Pa*s (Liquid); method: CAPTUB:UFactor:2
Temperature, K	Mole fraction of methyl benzoate	Viscosity, Pa*s	uncertainty
303.15	0.0879	0.000757	1.6e-05
303.15	0.1997	0.000842	1.7e-05
303.15	0.3008	0.000908	1.7e-05
303.15	0.3925	0.000975	1.8e-05
303.15	0.4928	0.00106	1.9e-05
303.15	0.5939	0.00116	1.9e-05
303.15	0.6852	0.001252	2e-05
303.15	0.798	0.001395	2.1e-05
303.15	0.8981	0.001506	2.2e-05
303.15	0.9485	0.001593	2.2e-05
313.15	0.0879	0.000664	1.6e-05
313.15	0.1997	0.00072	1.6e-05
313.15	0.3008	0.000785	1.6e-05
313.15	0.3925	0.000836	1.7e-05
313.15	0.4928	0.00091	1.7e-05
313.15	0.5939	0.000992	1.8e-05
313.15	0.6852	0.00107	1.8e-05
313.15	0.798	0.001171	1.9e-05
313.15	0.8981	0.00129	2e-05
313.15	0.9485	0.001351	2e-05

System: methyl benzoate + 1,2-dimethylbenzene; phases: Liquid
Fixed: Pressure, kPa = 101
Property: Refractive index (Na D-line) (Liquid); method: Standard Abbe refractometry
Temperature, K	Mole fraction of methyl benzoate	Refractive index (Na D-line)	uncertainty
303.15	0.0879	1.5006	0.0007
303.15	0.1997	1.5007	0.0007
303.15	0.3008	1.501	0.0006
303.15	0.3925	1.5012	0.0006
303.15	0.4928	1.5016	0.0006
303.15	0.5939	1.5022	0.0006
303.15	0.6852	1.5055	0.0006
303.15	0.798	1.5083	0.0006
303.15	0.8981	1.511	0.0006
303.15	0.9485	1.5115	0.0006
313.15	0.0879	1.497	0.0007
313.15	0.1997	1.4971	0.0007
313.15	0.3008	1.498	0.0006
313.15	0.3925	1.4996	0.0006
313.15	0.4928	1.5002	0.0006
313.15	0.5939	1.5017	0.0006
313.15	0.6852	1.5038	0.0006
313.15	0.798	1.5062	0.0006
313.15	0.8981	1.5085	0.0006
313.15	0.9485	1.5101	0.0006

System: methyl benzoate + 1,2-dimethylbenzene; phases: Liquid
Fixed: Pressure, kPa = 101
Property: Mass density, kg/m3 (Liquid); method: PYCNOM:UFactor:16
Temperature, K	Mole fraction of methyl benzoate	Mass density, kg/m3	uncertainty
303.15	0.0879	890.4	4.1
303.15	0.1997	911.4	4.2
303.15	0.3008	931.3	4.3
303.15	0.3925	951.2	4.3
303.15	0.4928	970.9	4.4
303.15	0.5939	991.7	4.4
303.15	0.6852	1009.5	4.5
303.15	0.798	1031.6	4.6
303.15	0.8981	1052.1	4.6
303.15	0.9485	1056.3	4.6
313.15	0.0879	882.3	4.5
313.15	0.1997	902.1	4.5
313.15	0.3008	922.8	4.6
313.15	0.3925	942.6	4.6
313.15	0.4928	962.4	4.7
313.15	0.5939	983	4.8
313.15	0.6852	1000.7	4.8
313.15	0.798	1022.5	4.9
313.15	0.8981	1042.8	4.9
313.15	0.9485	1046.7	4.9

System: methyl benzoate + 1,3-dimethylbenzene; phases: Liquid
Fixed: Pressure, kPa = 101
Property: Viscosity, Pa*s (Liquid); method: CAPTUB:UFactor:2
Temperature, K	Mole fraction of methyl benzoate	Viscosity, Pa*s	uncertainty
303.15	0.1071	0.000609	1.5e-05
303.15	0.203	0.000672	1.5e-05
303.15	0.3034	0.000739	1.6e-05
303.15	0.3924	0.000824	1.7e-05
303.15	0.4909	0.000923	1.7e-05
303.15	0.5978	0.001023	1.8e-05
303.15	0.6867	0.001134	1.9e-05
303.15	0.8125	0.001316	2e-05
303.15	0.8734	0.001403	2.1e-05
303.15	0.9518	0.001565	2.2e-05
313.15	0.1071	0.000544	1.5e-05
313.15	0.203	0.000598	1.5e-05
313.15	0.3034	0.000654	1.5e-05
313.15	0.3924	0.000729	1.6e-05
313.15	0.4909	0.000804	1.6e-05
313.15	0.5978	0.000892	1.7e-05
313.15	0.6867	0.000978	1.7e-05
313.15	0.8125	0.001122	1.8e-05
313.15	0.8734	0.001191	1.9e-05
313.15	0.9518	0.001317	2e-05

System: methyl benzoate + 1,3-dimethylbenzene; phases: Liquid
Fixed: Pressure, kPa = 101
Property: Refractive index (Na D-line) (Liquid); method: Standard Abbe refractometry
Temperature, K	Mole fraction of methyl benzoate	Refractive index (Na D-line)	uncertainty
303.15	0.1071	1.4933	0.0007
303.15	0.203	1.4943	0.0007
303.15	0.3034	1.4954	0.0006
303.15	0.3924	1.4962	0.0006
303.15	0.4909	1.4973	0.0006
303.15	0.5978	1.5004	0.0006
303.15	0.6867	1.5033	0.0006
303.15	0.8125	1.5069	0.0006
303.15	0.8734	1.5093	0.0006
303.15	0.9518	1.5107	0.0006
313.15	0.1071	1.4911	0.0007
313.15	0.203	1.4919	0.0007
313.15	0.3034	1.4927	0.0006
313.15	0.3924	1.4933	0.0006
313.15	0.4909	1.4941	0.0006
313.15	0.5978	1.496	0.0006
313.15	0.6867	1.4987	0.0006
313.15	0.8125	1.502	0.0006
313.15	0.8734	1.504	0.0006
313.15	0.9518	1.5064	0.0006

System: methyl benzoate + 1,3-dimethylbenzene; phases: Liquid
Fixed: Pressure, kPa = 101
Property: Mass density, kg/m3 (Liquid); method: PYCNOM:UFactor:16
Temperature, K	Mole fraction of methyl benzoate	Mass density, kg/m3	uncertainty
303.15	0.1071	878.7	4.1
303.15	0.203	900.2	4.1
303.15	0.3034	922.3	4.2
303.15	0.3924	941.4	4.3
303.15	0.4909	962.7	4.3
303.15	0.5978	985.7	4.4
303.15	0.6867	1004.6	4.5
303.15	0.8125	1029.6	4.5
303.15	0.8734	1043.8	4.6
303.15	0.9518	1059.6	4.6
313.15	0.1071	870.6	4.4
313.15	0.203	891.9	4.4
313.15	0.3034	914.2	4.5
313.15	0.3924	933.2	4.6
313.15	0.4909	954.4	4.7
313.15	0.5978	977.1	4.7
313.15	0.6867	995.8	4.8
313.15	0.8125	1021.9	4.9
313.15	0.8734	1034.8	4.9
313.15	0.9518	1050.7	5

System: methyl benzoate + 1,4-dimethylbenzene; phases: Liquid
Fixed: Pressure, kPa = 101
Property: Viscosity, Pa*s (Liquid); method: CAPTUB:UFactor:2
Temperature, K	Mole fraction of methyl benzoate	Viscosity, Pa*s	uncertainty
303.15	0.0958	0.000616	1.5e-05
303.15	0.2055	0.000693	1.6e-05
303.15	0.3011	0.000759	1.6e-05
303.15	0.399	0.000839	1.7e-05
303.15	0.4951	0.000922	1.7e-05
303.15	0.5988	0.001033	1.8e-05
303.15	0.6973	0.001152	1.9e-05
303.15	0.7846	0.001269	2e-05
303.15	0.9027	0.00145	2.1e-05
303.15	0.948	0.001561	2.2e-05
313.15	0.0958	0.000551	1.5e-05
313.15	0.2055	0.000609	1.5e-05
313.15	0.3011	0.00067	1.5e-05
313.15	0.399	0.000728	1.6e-05
313.15	0.4951	0.000803	1.6e-05
313.15	0.5988	0.000889	1.7e-05
313.15	0.6973	0.000992	1.7e-05
313.15	0.7846	0.001093	1.8e-05
313.15	0.9027	0.001253	1.9e-05
313.15	0.948	0.001322	2e-05

System: methyl benzoate + 1,4-dimethylbenzene; phases: Liquid
Fixed: Pressure, kPa = 101
Property: Refractive index (Na D-line) (Liquid); method: Standard Abbe refractometry
Temperature, K	Mole fraction of methyl benzoate	Refractive index (Na D-line)	uncertainty
303.15	0.0958	1.492	0.0007
303.15	0.2055	1.4939	0.0007
303.15	0.3011	1.4947	0.0006
303.15	0.399	1.4959	0.0006
303.15	0.4951	1.4969	0.0006
303.15	0.5988	1.4982	0.0006
303.15	0.6973	1.5012	0.0006
303.15	0.7846	1.5055	0.0006
303.15	0.9027	1.5122	0.0006
303.15	0.948	1.5104	0.0006
313.15	0.0958	1.4913	0.0007
313.15	0.2055	1.4922	0.0007
313.15	0.3011	1.4932	0.0006
313.15	0.399	1.4945	0.0006
313.15	0.4951	1.4952	0.0006
313.15	0.5988	1.4961	0.0006
313.15	0.6973	1.4989	0.0006
313.15	0.7846	1.5014	0.0006
313.15	0.9027	1.5088	0.0006
313.15	0.948	1.509	0.0006

System: methyl benzoate + 1,4-dimethylbenzene; phases: Liquid
Fixed: Pressure, kPa = 101
Property: Mass density, kg/m3 (Liquid); method: PYCNOM:UFactor:16
Temperature, K	Mole fraction of methyl benzoate	Mass density, kg/m3	uncertainty
303.15	0.0958	873	4
303.15	0.2055	898.1	4.1
303.15	0.3011	919.3	4.2
303.15	0.399	940.9	4.3
303.15	0.4951	961.9	4.3
303.15	0.5988	984.4	4.4
303.15	0.6973	1006.2	4.5
303.15	0.7846	1024.4	4.5
303.15	0.9027	1056	4.6
303.15	0.948	1059.2	4.6
313.15	0.0958	864.7	4.3
313.15	0.2055	889.5	4.4
313.15	0.3011	911.1	4.5
313.15	0.399	932.3	4.6
313.15	0.4951	953.1	4.6
313.15	0.5988	975.7	4.7
313.15	0.6973	1000.4	4.8
313.15	0.7846	1013	4.8
313.15	0.9027	1047.3	5
313.15	0.948	1050.3	5

System: methyl benzoate + ethylbenzene; phases: Liquid
Fixed: Pressure, kPa = 101
Property: Viscosity, Pa*s (Liquid); method: CAPTUB:UFactor:4
Temperature, K	Mole fraction of methyl benzoate	Viscosity, Pa*s	uncertainty
303.15	0.1033	0.000656	2e-05
303.15	0.1927	0.000701	2.1e-05
303.15	0.2952	0.000784	2.2e-05
303.15	0.3974	0.000857	2.3e-05
303.15	0.4947	0.000947	2.5e-05
303.15	0.5866	0.001043	2.7e-05
303.15	0.6963	0.00117	2.9e-05
303.15	0.7953	0.001308	3.2e-05
303.15	0.9016	0.001464	3.5e-05
303.15	0.951	0.001566	3.8e-05
313.15	0.1033	0.000583	1.9e-05
313.15	0.1927	0.000641	2e-05
313.15	0.2952	0.000687	2e-05
313.15	0.3974	0.00075	2.2e-05
313.15	0.4947	0.000824	2.3e-05
313.15	0.5866	0.000925	2.5e-05
313.15	0.6963	0.001048	2.7e-05
313.15	0.7953	0.001165	2.9e-05
313.15	0.9016	0.001287	3.1e-05
313.15	0.951	0.001346	3.3e-05

System: methyl benzoate + ethylbenzene; phases: Liquid
Fixed: Pressure, kPa = 101
Property: Refractive index (Na D-line) (Liquid); method: Standard Abbe refractometry
Temperature, K	Mole fraction of methyl benzoate	Refractive index (Na D-line)	uncertainty
303.15	0.1033	1.4911	0.0006
303.15	0.1927	1.4933	0.0006
303.15	0.2952	1.4945	0.0006
303.15	0.3974	1.4958	0.0006
303.15	0.4947	1.4968	0.0006
303.15	0.5866	1.4978	0.0006
303.15	0.6963	1.5022	0.0006
303.15	0.7953	1.5054	0.0006
303.15	0.9016	1.509	0.0006
303.15	0.951	1.5092	0.0006
313.15	0.1033	1.4888	0.0006
313.15	0.1927	1.49	0.0006
313.15	0.2952	1.4918	0.0006
313.15	0.3974	1.4928	0.0006
313.15	0.4947	1.4937	0.0006
313.15	0.5866	1.4955	0.0006
313.15	0.6963	1.4985	0.0006
313.15	0.7953	1.5014	0.0006
313.15	0.9016	1.5044	0.0006
313.15	0.951	1.5064	0.0006

System: methyl benzoate + ethylbenzene; phases: Liquid
Fixed: Pressure, kPa = 101
Property: Mass density, kg/m3 (Liquid); method: PYCNOM:UFactor:16
Temperature, K	Mole fraction of methyl benzoate	Mass density, kg/m3	uncertainty
303.15	0.1033	877.9	3.6
303.15	0.1927	898.9	3.8
303.15	0.2952	921.6	3.9
303.15	0.3974	943.6	4
303.15	0.4947	963.3	4.1
303.15	0.5866	982.3	4.2
303.15	0.6963	1000.3	4.3
303.15	0.7953	1023.3	4.4
303.15	0.9016	1053.3	4.6
303.15	0.951	1056.8	4.6
313.15	0.1033	870.2	4
313.15	0.1927	890.3	4.1
313.15	0.2952	912.7	4.2
313.15	0.3974	935	4.3
313.15	0.4947	954.1	4.4
313.15	0.5866	973.7	4.5
313.15	0.6963	992	4.6
313.15	0.7953	1010.3	4.7
313.15	0.9016	1043.3	4.9
313.15	0.951	1047.4	4.9
