Measured thermophysical data. Liquid Viscosities of Cyclohexane, Cyclohexane + Tetradecane, and Cyclohexane + Benzene from (313 to 393) K and Pressures Up to 60 MPa
Source: J. Chem. Eng. Data, 2009, 10.1021/je800882f
Compound 1: cyclohexane, C6H12, InChI=1S/C6H12/c1-2-4-6-5-3-1/h1-6H2, purity 99.9%
Compound 2: tetradecane, C14H30, InChI=1S/C14H30/c1-3-5-7-9-11-13-14-12-10-8-6-4-2/h3-14H2,1-2H3, purity 99%
Compound 3: benzene, C6H6, InChI=1S/C6H6/c1-2-4-6-5-3-1/h1-6H, purity 99.9%

System: cyclohexane; phases: Liquid
Property: Viscosity, Pa*s (Liquid); method: Falling or rolling sphere viscometry
Pressure, kPa	Temperature, K	Viscosity, Pa*s	uncertainty
690	313.2	0.000723	2.9e-05
690	333.2	0.00054	2.2e-05
690	353.2	0.000424	1.7e-05
690	373.2	0.000323	1.3e-05
690	393.2	0.000248	1e-05
5000	313.2	0.000772	3.1e-05
5000	333.2	0.000576	2.3e-05
5000	353.2	0.00045	1.8e-05
5000	373.2	0.000349	1.4e-05
5000	393.2	0.000262	1.1e-05
10000	313.2	0.000825	3.4e-05
10000	333.2	0.000616	2.5e-05
10000	353.2	0.00048	2e-05
10000	373.2	0.000371	1.5e-05
10000	393.2	0.000284	1.2e-05
20000	313.2	0.000926	3.8e-05
20000	333.2	0.000692	2.8e-05
20000	353.2	0.00054	2.2e-05
20000	373.2	0.00042	1.7e-05
20000	393.2	0.000329	1.3e-05
30000	313.2	0.001018	4.1e-05
30000	333.2	0.000762	3.1e-05
30000	353.2	0.000597	2.4e-05
30000	373.2	0.000461	1.9e-05
30000	393.2	0.000369	1.5e-05
40000	313.2	0.001111	4.5e-05
40000	333.2	0.000837	3.4e-05
40000	353.2	0.000651	2.7e-05
40000	373.2	0.000504	2.1e-05
40000	393.2	0.000414	1.7e-05
50000	313.2	0.00124	5e-05
50000	333.2	0.000912	3.7e-05
50000	353.2	0.000703	2.9e-05
50000	373.2	0.000557	2.3e-05
50000	393.2	0.000453	1.8e-05
60000	313.2	0.001347	5.5e-05
60000	333.2	0.000994	4.1e-05
60000	353.2	0.000752	3.1e-05
60000	373.2	0.000608	2.5e-05
60000	393.2	0.000492	2e-05

System: cyclohexane + tetradecane; phases: Liquid
Property: Viscosity, Pa*s (Liquid); method: Falling or rolling sphere viscometry
Mole fraction of cyclohexane	Pressure, kPa	Temperature, K	Viscosity, Pa*s	uncertainty
0.204	690	313.2	0.001412	5.8e-05
0.204	690	333.2	0.001049	4.3e-05
0.204	690	353.2	0.000828	3.4e-05
0.204	690	393.2	0.000496	2e-05
0.204	5000	313.2	0.001494	6.1e-05
0.204	5000	333.2	0.001114	4.6e-05
0.204	5000	353.2	0.000877	3.6e-05
0.204	5000	393.2	0.000526	2.2e-05
0.204	10000	313.2	0.001589	6.5e-05
0.204	10000	333.2	0.001186	4.9e-05
0.204	10000	353.2	0.000931	3.8e-05
0.204	10000	393.2	0.000565	2.3e-05
0.204	20000	313.2	0.001782	7.3e-05
0.204	20000	333.2	0.001326	5.4e-05
0.204	20000	353.2	0.001029	4.2e-05
0.204	20000	393.2	0.000639	2.6e-05
0.204	30000	313.2	0.001982	8.1e-05
0.204	30000	333.2	0.001462	6e-05
0.204	30000	353.2	0.001125	4.6e-05
0.204	30000	393.2	0.00071	2.9e-05
0.204	40000	313.2	0.002195	9e-05
0.204	40000	333.2	0.001599	6.5e-05
0.204	40000	353.2	0.001216	5e-05
0.204	40000	393.2	0.000786	3.2e-05
0.204	50000	313.2	0.002424	9.9e-05
0.204	50000	333.2	0.00174	7.1e-05
0.204	50000	353.2	0.001311	5.4e-05
0.204	50000	393.2	0.000855	3.5e-05
0.204	60000	313.2	0.002672	0.000109
0.204	60000	333.2	0.001888	7.7e-05
0.204	60000	353.2	0.001403	5.7e-05
0.204	60000	393.2	0.000925	3.8e-05
0.405	690	313.2	0.001303	5.3e-05
0.405	690	333.2	0.000968	4e-05
0.405	690	353.2	0.00076	3.1e-05
0.405	690	393.2	0.000447	1.8e-05
0.405	5000	313.2	0.001365	5.6e-05
0.405	5000	333.2	0.001018	4.2e-05
0.405	5000	353.2	0.000803	3.3e-05
0.405	5000	393.2	0.000481	2e-05
0.405	10000	313.2	0.001447	5.9e-05
0.405	10000	333.2	0.001077	4.4e-05
0.405	10000	353.2	0.000854	3.5e-05
0.405	10000	393.2	0.000515	2.1e-05
0.405	20000	313.2	0.001612	6.6e-05
0.405	20000	333.2	0.001199	4.9e-05
0.405	20000	353.2	0.00095	3.9e-05
0.405	20000	393.2	0.000591	2.4e-05
0.405	30000	313.2	0.001787	7.3e-05
0.405	30000	333.2	0.001315	5.4e-05
0.405	30000	353.2	0.001043	4.3e-05
0.405	30000	393.2	0.000661	2.7e-05
0.405	40000	313.2	0.001981	8.1e-05
0.405	40000	333.2	0.001435	5.9e-05
0.405	40000	353.2	0.001129	4.6e-05
0.405	40000	393.2	0.000731	3e-05
0.405	50000	313.2	0.002185	8.9e-05
0.405	50000	333.2	0.001563	6.4e-05
0.405	50000	353.2	0.001219	5e-05
0.405	50000	393.2	0.000793	3.2e-05
0.405	60000	313.2	0.002422	9.9e-05
0.405	60000	333.2	0.001698	6.9e-05
0.405	60000	353.2	0.001305	5.3e-05
0.405	60000	393.2	0.000855	3.5e-05
0.6	690	313.2	0.001123	4.6e-05
0.6	690	333.2	0.000878	3.6e-05
0.6	690	353.2	0.000661	2.7e-05
0.6	690	393.2	0.000404	1.7e-05
0.6	5000	313.2	0.001182	4.8e-05
0.6	5000	333.2	0.000924	3.8e-05
0.6	5000	353.2	0.000703	2.9e-05
0.6	5000	393.2	0.000429	1.8e-05
0.6	10000	313.2	0.001256	5.1e-05
0.6	10000	333.2	0.000981	4e-05
0.6	10000	353.2	0.000749	3.1e-05
0.6	10000	393.2	0.000461	1.9e-05
0.6	20000	313.2	0.001397	5.7e-05
0.6	20000	333.2	0.001092	4.5e-05
0.6	20000	353.2	0.00084	3.4e-05
0.6	20000	393.2	0.000521	2.1e-05
0.6	30000	313.2	0.001545	6.3e-05
0.6	30000	333.2	0.001194	4.9e-05
0.6	30000	353.2	0.000932	3.8e-05
0.6	30000	393.2	0.000585	2.4e-05
0.6	40000	313.2	0.001701	6.9e-05
0.6	40000	333.2	0.001301	5.3e-05
0.6	40000	353.2	0.001025	4.2e-05
0.6	40000	393.2	0.000644	2.6e-05
0.6	50000	313.2	0.00186	7.6e-05
0.6	50000	333.2	0.001408	5.7e-05
0.6	50000	353.2	0.001113	4.5e-05
0.6	50000	393.2	0.000703	2.9e-05
0.6	60000	313.2	0.002038	8.3e-05
0.6	60000	333.2	0.001517	6.2e-05
0.6	60000	353.2	0.001203	4.9e-05
0.6	60000	393.2	0.000761	3.1e-05
0.8	690	313.2	0.000935	3.8e-05
0.8	690	333.2	0.000711	2.9e-05
0.8	690	353.2	0.00054	2.2e-05
0.8	690	393.2	0.000339	1.4e-05
0.8	5000	313.2	0.000986	4e-05
0.8	5000	333.2	0.000754	3.1e-05
0.8	5000	353.2	0.00058	2.4e-05
0.8	5000	393.2	0.000359	1.5e-05
0.8	10000	313.2	0.001044	4.3e-05
0.8	10000	333.2	0.000805	3.3e-05
0.8	10000	353.2	0.000621	2.5e-05
0.8	10000	393.2	0.000386	1.6e-05
0.8	20000	313.2	0.001164	4.7e-05
0.8	20000	333.2	0.000905	3.7e-05
0.8	20000	353.2	0.000705	2.9e-05
0.8	20000	393.2	0.000439	1.8e-05
0.8	30000	313.2	0.001291	5.3e-05
0.8	30000	333.2	0.001005	4.1e-05
0.8	30000	353.2	0.000789	3.2e-05
0.8	30000	393.2	0.000496	2e-05
0.8	40000	313.2	0.001424	5.8e-05
0.8	40000	333.2	0.001102	4.5e-05
0.8	40000	353.2	0.00087	3.5e-05
0.8	40000	393.2	0.000549	2.2e-05
0.8	50000	313.2	0.001569	6.4e-05
0.8	50000	333.2	0.001201	4.9e-05
0.8	50000	353.2	0.000952	3.9e-05
0.8	50000	393.2	0.000604	2.5e-05
0.8	60000	313.2	0.00172	7e-05
0.8	60000	333.2	0.001298	5.3e-05
0.8	60000	353.2	0.00103	4.2e-05
0.8	60000	393.2	0.000666	2.7e-05

System: benzene + cyclohexane; phases: Liquid
Property: Viscosity, Pa*s (Liquid); method: Falling or rolling sphere viscometry
Mole fraction of cyclohexane	Pressure, kPa	Temperature, K	Viscosity, Pa*s	uncertainty
0.195	690	313.2	0.0005	2e-05
0.195	690	333.2	0.0004	1.6e-05
0.195	690	353.2	0.000328	1.3e-05
0.195	690	373.2	0.000282	1.1e-05
0.195	690	393.2	0.000254	1e-05
0.195	5000	313.2	0.000521	2.1e-05
0.195	5000	333.2	0.000418	1.7e-05
0.195	5000	353.2	0.000342	1.4e-05
0.195	5000	373.2	0.000293	1.2e-05
0.195	5000	393.2	0.000262	1.1e-05
0.195	10000	313.2	0.000547	2.2e-05
0.195	10000	333.2	0.000439	1.8e-05
0.195	10000	353.2	0.000358	1.5e-05
0.195	10000	373.2	0.000305	1.2e-05
0.195	10000	393.2	0.000272	1.1e-05
0.195	20000	313.2	0.0006	2.4e-05
0.195	20000	333.2	0.000483	2e-05
0.195	20000	353.2	0.000393	1.6e-05
0.195	20000	373.2	0.000332	1.4e-05
0.195	20000	393.2	0.000293	1.2e-05
0.195	30000	313.2	0.000654	2.7e-05
0.195	30000	333.2	0.000529	2.2e-05
0.195	30000	353.2	0.00043	1.8e-05
0.195	30000	373.2	0.000362	1.5e-05
0.195	30000	393.2	0.000315	1.3e-05
0.195	40000	313.2	0.00071	2.9e-05
0.195	40000	333.2	0.000577	2.3e-05
0.195	40000	353.2	0.000469	1.9e-05
0.195	40000	373.2	0.000393	1.6e-05
0.195	40000	393.2	0.000339	1.4e-05
0.195	50000	313.2	0.000767	3.1e-05
0.195	50000	333.2	0.000626	2.5e-05
0.195	50000	353.2	0.000509	2.1e-05
0.195	50000	373.2	0.000425	1.7e-05
0.195	50000	393.2	0.000365	1.5e-05
0.195	60000	313.2	0.000824	3.4e-05
0.195	60000	333.2	0.000676	2.8e-05
0.195	60000	353.2	0.000551	2.2e-05
0.195	60000	373.2	0.00046	1.9e-05
0.195	60000	393.2	0.000393	1.6e-05
0.405	690	313.2	0.000499	2e-05
0.405	690	333.2	0.000405	1.6e-05
0.405	690	353.2	0.000333	1.4e-05
0.405	690	373.2	0.000284	1.2e-05
0.405	690	393.2	0.000252	1e-05
0.405	5000	313.2	0.000522	2.1e-05
0.405	5000	333.2	0.000423	1.7e-05
0.405	5000	353.2	0.000346	1.4e-05
0.405	5000	373.2	0.000294	1.2e-05
0.405	5000	393.2	0.000258	1.1e-05
0.405	10000	313.2	0.00055	2.2e-05
0.405	10000	333.2	0.000445	1.8e-05
0.405	10000	353.2	0.000363	1.5e-05
0.405	10000	373.2	0.000306	1.2e-05
0.405	10000	393.2	0.000267	1.1e-05
0.405	20000	313.2	0.000609	2.5e-05
0.405	20000	333.2	0.000493	2e-05
0.405	20000	353.2	0.000399	1.6e-05
0.405	20000	373.2	0.000333	1.4e-05
0.405	20000	393.2	0.000285	1.2e-05
0.405	30000	313.2	0.00067	2.7e-05
0.405	30000	333.2	0.000544	2.2e-05
0.405	30000	353.2	0.000439	1.8e-05
0.405	30000	373.2	0.000363	1.5e-05
0.405	30000	393.2	0.000307	1.3e-05
0.405	40000	313.2	0.000735	3e-05
0.405	40000	333.2	0.000598	2.4e-05
0.405	40000	353.2	0.000482	2e-05
0.405	40000	373.2	0.000397	1.6e-05
0.405	40000	393.2	0.000332	1.4e-05
0.405	50000	313.2	0.000802	3.3e-05
0.405	50000	333.2	0.000656	2.7e-05
0.405	50000	353.2	0.00053	2.2e-05
0.405	50000	373.2	0.000434	1.8e-05
0.405	50000	393.2	0.00036	1.5e-05
0.405	60000	313.2	0.000869	3.5e-05
0.405	60000	333.2	0.000715	2.9e-05
0.405	60000	353.2	0.000579	2.4e-05
0.405	60000	373.2	0.000474	1.9e-05
0.405	60000	393.2	0.000392	1.6e-05
0.6	690	313.2	0.000527	2.1e-05
0.6	690	333.2	0.000417	1.7e-05
0.6	690	353.2	0.000338	1.4e-05
0.6	690	373.2	0.000288	1.2e-05
0.6	690	393.2	0.000258	1.1e-05
0.6	5000	313.2	0.000557	2.3e-05
0.6	5000	333.2	0.000441	1.8e-05
0.6	5000	353.2	0.000355	1.4e-05
0.6	5000	373.2	0.000301	1.2e-05
0.6	5000	393.2	0.000267	1.1e-05
0.6	10000	313.2	0.000593	2.4e-05
0.6	10000	333.2	0.00047	1.9e-05
0.6	10000	353.2	0.000377	1.5e-05
0.6	10000	373.2	0.000316	1.3e-05
0.6	10000	393.2	0.000278	1.1e-05
0.6	20000	313.2	0.000665	2.7e-05
0.6	20000	333.2	0.000528	2.2e-05
0.6	20000	353.2	0.000422	1.7e-05
0.6	20000	373.2	0.000349	1.4e-05
0.6	20000	393.2	0.0003	1.2e-05
0.6	30000	313.2	0.000738	3e-05
0.6	30000	333.2	0.000589	2.4e-05
0.6	30000	353.2	0.000468	1.9e-05
0.6	30000	373.2	0.000384	1.6e-05
0.6	30000	393.2	0.000325	1.3e-05
0.6	40000	313.2	0.00081	3.3e-05
0.6	40000	333.2	0.000651	2.7e-05
0.6	40000	353.2	0.000517	2.1e-05
0.6	40000	373.2	0.00042	1.7e-05
0.6	40000	393.2	0.00035	1.4e-05
0.6	50000	313.2	0.000882	3.6e-05
0.6	50000	333.2	0.000713	2.9e-05
0.6	50000	353.2	0.000567	2.3e-05
0.6	50000	373.2	0.000458	1.9e-05
0.6	50000	393.2	0.000378	1.5e-05
0.6	60000	313.2	0.000951	3.9e-05
0.6	60000	333.2	0.000774	3.2e-05
0.6	60000	353.2	0.000617	2.5e-05
0.6	60000	373.2	0.000498	2e-05
0.6	60000	393.2	0.000407	1.7e-05
0.797	690	313.2	0.000602	2.5e-05
0.797	690	333.2	0.000449	1.8e-05
0.797	690	353.2	0.000346	1.4e-05
0.797	690	373.2	0.000289	1.2e-05
0.797	690	393.2	0.000262	1.1e-05
0.797	5000	313.2	0.000642	2.6e-05
0.797	5000	333.2	0.00048	2e-05
0.797	5000	353.2	0.000368	1.5e-05
0.797	5000	373.2	0.000304	1.2e-05
0.797	5000	393.2	0.000271	1.1e-05
0.797	10000	313.2	0.000689	2.8e-05
0.797	10000	333.2	0.000518	2.1e-05
0.797	10000	353.2	0.000395	1.6e-05
0.797	10000	373.2	0.000323	1.3e-05
0.797	10000	393.2	0.000283	1.2e-05
0.797	20000	313.2	0.000782	3.2e-05
0.797	20000	333.2	0.000594	2.4e-05
0.797	20000	353.2	0.000452	1.8e-05
0.797	20000	373.2	0.000361	1.5e-05
0.797	20000	393.2	0.000307	1.3e-05
0.797	30000	313.2	0.000874	3.6e-05
0.797	30000	333.2	0.000673	2.7e-05
0.797	30000	353.2	0.000511	2.1e-05
0.797	30000	373.2	0.000403	1.6e-05
0.797	30000	393.2	0.000333	1.4e-05
0.797	40000	313.2	0.000962	3.9e-05
0.797	40000	333.2	0.000751	3.1e-05
0.797	40000	353.2	0.000573	2.3e-05
0.797	40000	373.2	0.000447	1.8e-05
0.797	40000	393.2	0.000362	1.5e-05
0.797	50000	313.2	0.001047	4.3e-05
0.797	50000	333.2	0.000828	3.4e-05
0.797	50000	353.2	0.000635	2.6e-05
0.797	50000	373.2	0.000493	2e-05
0.797	50000	393.2	0.000391	1.6e-05
0.797	60000	313.2	0.001127	4.6e-05
0.797	60000	333.2	0.000901	3.7e-05
0.797	60000	353.2	0.000696	2.8e-05
0.797	60000	373.2	0.000539	2.2e-05
0.797	60000	393.2	0.000424	1.7e-05
