Measured thermophysical data. Viscosities and Densities of Binary Mixtures of (N-Acetylmorpholine + Alkanols) from (293.15 to 323.15) K
Source: J. Chem. Eng. Data, 2008, 10.1021/je8003194
Compound 1: ethanol, C2H6O, InChI=1S/C2H6O/c1-2-3/h3H,2H2,1H3, purity 99.8%
Compound 2: propan-1-ol, C3H8O, InChI=1S/C3H8O/c1-2-3-4/h4H,2-3H2,1H3, purity 99.8%
Compound 3: propan-2-ol, C3H8O, InChI=1S/C3H8O/c1-3(2)4/h3-4H,1-2H3, purity 99.5%
Compound 4: butan-1-ol, C4H10O, InChI=1S/C4H10O/c1-2-3-4-5/h5H,2-4H2,1H3, purity 99.8%
Compound 5: butan-2-ol, C4H10O, InChI=1S/C4H10O/c1-3-4(2)5/h4-5H,3H2,1-2H3, purity 99.5%
Compound 6: 4-acetylmorpholine, C6H11NO2, InChI=1S/C6H11NO2/c1-6(8)7-2-4-9-5-3-7/h2-5H2,1H3, purity 98%

System: ethanol; phases: Liquid, Air at 1 atmosphere
Property: Viscosity, Pa*s (Liquid); method: CAPTUB:UFactor:4
Temperature, K	Viscosity, Pa*s	uncertainty
293.15	0.001188	2.9e-05
303.15	0.000989	2.4e-05
313.15	0.000845	2.1e-05
323.15	0.000749	1.9e-05

System: ethanol; phases: Liquid, Air at 1 atmosphere
Property: Mass density, kg/m3 (Liquid); method: VIBTUB:UFactor:2
Temperature, K	Mass density, kg/m3	uncertainty
293.15	789.62	0.24
303.15	781.12	0.24
313.15	772.58	0.25
323.15	764.11	0.26

System: propan-1-ol; phases: Liquid, Air at 1 atmosphere
Property: Viscosity, Pa*s (Liquid); method: CAPTUB:UFactor:4
Temperature, K	Viscosity, Pa*s	uncertainty
293.15	0.002205	5e-05
303.15	0.001714	4e-05
313.15	0.001382	3.3e-05
323.15	0.001105	2.7e-05

System: propan-1-ol; phases: Liquid, Air at 1 atmosphere
Property: Mass density, kg/m3 (Liquid); method: VIBTUB:UFactor:2
Temperature, K	Mass density, kg/m3	uncertainty
293.15	803.56	0.22
303.15	795.58	0.23
313.15	787.79	0.24
323.15	778.92	0.24

System: propan-2-ol; phases: Liquid, Air at 1 atmosphere
Property: Viscosity, Pa*s (Liquid); method: CAPTUB:UFactor:4
Temperature, K	Viscosity, Pa*s	uncertainty
293.15	0.002384	5.4e-05
303.15	0.001752	4.1e-05
313.15	0.001335	3.2e-05
323.15	0.001038	2.6e-05

System: propan-2-ol; phases: Liquid, Air at 1 atmosphere
Property: Mass density, kg/m3 (Liquid); method: VIBTUB:UFactor:4
Temperature, K	Mass density, kg/m3	uncertainty
293.15	785.18	0.5
303.15	776.66	0.51
313.15	767.83	0.52
323.15	758.71	0.54

System: butan-1-ol; phases: Liquid, Air at 1 atmosphere
Property: Viscosity, Pa*s (Liquid); method: CAPTUB:UFactor:4
Temperature, K	Viscosity, Pa*s	uncertainty
293.15	0.002942	6.6e-05
303.15	0.002275	5.2e-05
313.15	0.001684	3.9e-05
323.15	0.001098	2.7e-05

System: butan-1-ol; phases: Liquid, Air at 1 atmosphere
Property: Mass density, kg/m3 (Liquid); method: VIBTUB:UFactor:2
Temperature, K	Mass density, kg/m3	uncertainty
293.15	809.52	0.22
303.15	801.91	0.23
313.15	796.13	0.23
323.15	786.13	0.24

System: butan-2-ol; phases: Liquid, Air at 1 atmosphere
Property: Viscosity, Pa*s (Liquid); method: CAPTUB:UFactor:4
Temperature, K	Viscosity, Pa*s	uncertainty
293.15	0.003625	8.1e-05
303.15	0.002489	5.7e-05
313.15	0.002006	4.6e-05
323.15	0.001717	4e-05

System: butan-2-ol; phases: Liquid, Air at 1 atmosphere
Property: Mass density, kg/m3 (Liquid); method: VIBTUB:UFactor:4
Temperature, K	Mass density, kg/m3	uncertainty
293.15	805.56	0.47
303.15	798.66	0.48
313.15	790.11	0.49
323.15	784.92	0.5

System: 4-acetylmorpholine; phases: Liquid, Air at 1 atmosphere
Property: Viscosity, Pa*s (Liquid); method: CAPTUB:UFactor:6
Temperature, K	Viscosity, Pa*s	uncertainty
293.15	0.008534	0.000259
303.15	0.007052	0.000222
313.15	0.005122	0.000173
323.15	0.003848	0.000133

System: 4-acetylmorpholine; phases: Liquid, Air at 1 atmosphere
Property: Mass density, kg/m3 (Liquid); method: VIBTUB:UFactor:8
Temperature, K	Mass density, kg/m3	uncertainty
293.15	1113.78	1.61
303.15	1105.94	1.57
313.15	1097.31	1.53
323.15	1088.68	1.49

System: ethanol + 4-acetylmorpholine; phases: Liquid
Fixed: Pressure, kPa = 101
Property: Viscosity, Pa*s (Liquid); method: CAPTUB:UFactor:4
Temperature, K	Mole fraction of 4-acetylmorpholine	Viscosity, Pa*s	uncertainty
293.15	0.0563	0.001847	4.3e-05
293.15	0.1288	0.002747	6.2e-05
293.15	0.2164	0.003689	8.2e-05
293.15	0.2843	0.004374	9.7e-05
293.15	0.3147	0.004656	0.000103
293.15	0.3944	0.005318	0.000116
293.15	0.4512	0.005718	0.000123
293.15	0.4957	0.006016	0.000129
293.15	0.5253	0.006179	0.000132
293.15	0.5832	0.006499	0.000138
293.15	0.6341	0.006728	0.000143
293.15	0.6813	0.006984	0.000148
293.15	0.7348	0.007169	0.000152
293.15	0.7921	0.007459	0.000159
293.15	0.8452	0.007653	0.000163
293.15	0.9127	0.008019	0.000172
293.15	0.9734	0.008395	0.000181
303.15	0.0563	0.001495	3.5e-05
303.15	0.1288	0.002302	5.3e-05
303.15	0.2164	0.003134	7.1e-05
303.15	0.2843	0.003728	8.3e-05
303.15	0.3147	0.003974	8.9e-05
303.15	0.3944	0.004533	0.000101
303.15	0.4512	0.004858	0.000108
303.15	0.4957	0.005101	0.000114
303.15	0.5253	0.005227	0.000116
303.15	0.5832	0.005472	0.000121
303.15	0.6341	0.005638	0.000124
303.15	0.6813	0.005832	0.000128
303.15	0.7348	0.005948	0.000131
303.15	0.7921	0.006164	0.000136
303.15	0.8452	0.006289	0.000139
303.15	0.9127	0.006569	0.000146
303.15	0.9734	0.006932	0.000154
313.15	0.0563	0.001153	2.8e-05
313.15	0.1288	0.001832	4.3e-05
313.15	0.2164	0.002511	5.7e-05
313.15	0.2843	0.002983	6.8e-05
313.15	0.3147	0.003174	7.2e-05
313.15	0.3944	0.003594	8.1e-05
313.15	0.4512	0.003819	8.6e-05
313.15	0.4957	0.003983	9e-05
313.15	0.5253	0.004056	9.2e-05
313.15	0.5832	0.004199	9.6e-05
313.15	0.6341	0.004275	9.8e-05
313.15	0.6813	0.004387	0.000101
313.15	0.7348	0.004407	0.000102
313.15	0.7921	0.004522	0.000105
313.15	0.8452	0.004554	0.000107
313.15	0.9127	0.004788	0.000113
313.15	0.9734	0.005046	0.00012
323.15	0.0563	0.000928	2.3e-05
323.15	0.1288	0.001518	3.6e-05
323.15	0.2164	0.002096	4.8e-05
323.15	0.2843	0.002484	5.7e-05
323.15	0.3147	0.002639	6e-05
323.15	0.3944	0.002966	6.8e-05
323.15	0.4512	0.003122	7.1e-05
323.15	0.4957	0.003232	7.4e-05
323.15	0.5253	0.003269	7.5e-05
323.15	0.5832	0.003343	7.7e-05
323.15	0.6341	0.003358	7.8e-05
323.15	0.6813	0.003413	8e-05
323.15	0.7348	0.003369	7.9e-05
323.15	0.7921	0.003417	8.1e-05
323.15	0.8452	0.003434	8.2e-05
323.15	0.9127	0.003615	8.7e-05
323.15	0.9734	0.003797	9.2e-05

System: ethanol + 4-acetylmorpholine; phases: Liquid
Fixed: Pressure, kPa = 101
Property: Mass density, kg/m3 (Liquid); method: VIBTUB:UFactor:8
Temperature, K	Mole fraction of 4-acetylmorpholine	Mass density, kg/m3	uncertainty
293.15	0.0563	824.41	0.81
293.15	0.1288	864.28	0.7
293.15	0.2164	906.09	0.61
293.15	0.2843	934.58	0.55
293.15	0.3147	946.4	0.53
293.15	0.3944	974.79	0.5
293.15	0.4512	993.02	0.49
293.15	0.4957	1006.31	0.53
293.15	0.5253	1014.69	0.58
293.15	0.5832	1030.13	0.68
293.15	0.6341	1042.74	0.78
293.15	0.6813	1053.71	0.87
293.15	0.7348	1065.37	0.98
293.15	0.7921	1077.06	1.1
293.15	0.8452	1087.26	1.22
293.15	0.9127	1099.33	1.38
293.15	0.9734	1109.5	1.54
303.15	0.0563	780.71	0.95
303.15	0.1288	855.84	0.73
303.15	0.2164	898.15	0.63
303.15	0.2843	926.93	0.57
303.15	0.3147	938.8	0.55
303.15	0.3944	967.37	0.52
303.15	0.4512	985.63	0.51
303.15	0.4957	998.95	0.51
303.15	0.5253	1007.34	0.55
303.15	0.5832	1022.67	0.65
303.15	0.6341	1035.23	0.75
303.15	0.6813	1045.98	0.84
303.15	0.7348	1057.59	0.95
303.15	0.7921	1069.04	1.07
303.15	0.8452	1079.1	1.19
303.15	0.9127	1091.2	1.35
303.15	0.9734	1101.4	1.5
313.15	0.0563	772.58	0.97
313.15	0.1288	847.85	0.76
313.15	0.2164	890.35	0.65
313.15	0.2843	919.34	0.6
313.15	0.3147	931.3	0.58
313.15	0.3944	960.05	0.54
313.15	0.4512	978.41	0.53
313.15	0.4957	991.71	0.53
313.15	0.5253	1000.03	0.52
313.15	0.5832	1015.37	0.63
313.15	0.6341	1027.7	0.72
313.15	0.6813	1038.45	0.81
313.15	0.7348	1049.81	0.92
313.15	0.7921	1061.14	1.04
313.15	0.8452	1071.13	1.15
313.15	0.9127	1082.96	1.31
313.15	0.9734	1093.09	1.46
323.15	0.0563	764.11	1
323.15	0.1288	839.85	0.78
323.15	0.2164	882.59	0.68
323.15	0.2843	911.7	0.62
323.15	0.3147	923.61	0.6
323.15	0.3944	952.45	0.56
323.15	0.4512	970.79	0.55
323.15	0.4957	984.08	0.55
323.15	0.5253	992.42	0.54
323.15	0.5832	1007.74	0.6
323.15	0.6341	1020.07	0.69
323.15	0.6813	1030.83	0.78
323.15	0.7348	1042.12	0.88
323.15	0.7921	1053.25	1
323.15	0.8452	1062.99	1.12
323.15	0.9127	1074.6	1.27
323.15	0.9734	1084.54	1.42

System: propan-1-ol + 4-acetylmorpholine; phases: Liquid
Fixed: Pressure, kPa = 101
Property: Viscosity, Pa*s (Liquid); method: CAPTUB:UFactor:4
Temperature, K	Mole fraction of 4-acetylmorpholine	Viscosity, Pa*s	uncertainty
293.15	0.0542	0.003211	7.2e-05
293.15	0.1279	0.004268	9.4e-05
293.15	0.2156	0.005382	0.000115
293.15	0.2811	0.006079	0.000127
293.15	0.3166	0.006397	0.000132
293.15	0.3902	0.006922	0.000142
293.15	0.4533	0.007294	0.000149
293.15	0.5022	0.007478	0.000153
293.15	0.5437	0.007679	0.000157
293.15	0.5983	0.007857	0.000161
293.15	0.6341	0.007889	0.000162
293.15	0.6883	0.008018	0.000166
293.15	0.7442	0.008069	0.000168
293.15	0.7912	0.008099	0.00017
293.15	0.8542	0.008178	0.000173
293.15	0.9165	0.008328	0.000178
293.15	0.9776	0.008508	0.000183
303.15	0.0542	0.002607	5.9e-05
303.15	0.1279	0.003591	8e-05
303.15	0.2156	0.004614	0.000101
303.15	0.2811	0.005246	0.000114
303.15	0.3166	0.005529	0.000119
303.15	0.3902	0.005978	0.000127
303.15	0.4533	0.006294	0.000132
303.15	0.5022	0.006414	0.000135
303.15	0.5437	0.006578	0.000138
303.15	0.5983	0.006703	0.000141
303.15	0.6341	0.006699	0.000142
303.15	0.6883	0.006776	0.000144
303.15	0.7442	0.006769	0.000146
303.15	0.7912	0.006748	0.000146
303.15	0.8542	0.006766	0.000148
303.15	0.9165	0.006851	0.000151
303.15	0.9776	0.007001	0.000155
313.15	0.0542	0.002089	4.8e-05
313.15	0.1279	0.002958	6.7e-05
313.15	0.2156	0.003842	8.5e-05
313.15	0.2811	0.004369	9.7e-05
313.15	0.3166	0.004598	0.000102
313.15	0.3902	0.004928	0.000109
313.15	0.4533	0.005142	0.000114
313.15	0.5022	0.005189	0.000115
313.15	0.5437	0.005289	0.000117
313.15	0.5983	0.005329	0.000119
313.15	0.6341	0.005267	0.000118
313.15	0.6883	0.005259	0.000119
313.15	0.7442	0.005161	0.000118
313.15	0.7912	0.005069	0.000117
313.15	0.8542	0.004986	0.000117
313.15	0.9165	0.004972	0.000117
313.15	0.9776	0.005093	0.000121
323.15	0.0542	0.001678	3.9e-05
323.15	0.1279	0.002472	5.6e-05
323.15	0.2156	0.003268	7.3e-05
323.15	0.2811	0.003728	8.3e-05
323.15	0.3166	0.003925	8.8e-05
323.15	0.3902	0.004183	9.4e-05
323.15	0.4533	0.004331	9.7e-05
323.15	0.5022	0.004331	9.8e-05
323.15	0.5437	0.004388	9.9e-05
323.15	0.5983	0.004375	0.0001
323.15	0.6341	0.004277	9.8e-05
323.15	0.6883	0.004214	9.7e-05
323.15	0.7442	0.004062	9.5e-05
323.15	0.7912	0.003922	9.2e-05
323.15	0.8542	0.003776	8.9e-05
323.15	0.9165	0.003702	8.9e-05
323.15	0.9776	0.003823	9.2e-05

System: propan-1-ol + 4-acetylmorpholine; phases: Liquid
Fixed: Pressure, kPa = 101
Property: Mass density, kg/m3 (Liquid); method: VIBTUB:UFactor:8
Temperature, K	Mole fraction of 4-acetylmorpholine	Mass density, kg/m3	uncertainty
293.15	0.0542	829.08	0.8
293.15	0.1279	861.58	0.71
293.15	0.2156	897.24	0.63
293.15	0.2811	921.89	0.59
293.15	0.3166	934.62	0.57
293.15	0.3902	959.64	0.54
293.15	0.4533	979.69	0.53
293.15	0.5022	994.44	0.53
293.15	0.5437	1006.44	0.56
293.15	0.5983	1021.51	0.66
293.15	0.6341	1031.01	0.73
293.15	0.6883	1044.85	0.84
293.15	0.7442	1058.43	0.96
293.15	0.7912	1069.41	1.07
293.15	0.8542	1083.48	1.22
293.15	0.9165	1096.79	1.38
293.15	0.9776	1109.32	1.54
303.15	0.0542	821.08	0.82
303.15	0.1279	853.65	0.73
303.15	0.2156	889.39	0.65
303.15	0.2811	914.15	0.61
303.15	0.3166	926.86	0.59
303.15	0.3902	951.91	0.56
303.15	0.4533	971.96	0.55
303.15	0.5022	986.69	0.54
303.15	0.5437	998.68	0.54
303.15	0.5983	1013.77	0.63
303.15	0.6341	1023.23	0.7
303.15	0.6883	1037.03	0.81
303.15	0.7442	1050.9	0.93
303.15	0.7912	1061.46	1.04
303.15	0.8542	1075.48	1.19
303.15	0.9165	1088.74	1.34
303.15	0.9776	1101.11	1.5
313.15	0.0542	813.19	0.84
313.15	0.1279	845.84	0.76
313.15	0.2156	881.6	0.68
313.15	0.2811	906.3	0.63
313.15	0.3166	919.01	0.61
313.15	0.3902	944	0.58
313.15	0.4533	964.05	0.57
313.15	0.5022	978.8	0.57
313.15	0.5437	990.79	0.56
313.15	0.5983	1005.87	0.6
313.15	0.6341	1015.34	0.67
313.15	0.6883	1029.15	0.78
313.15	0.7442	1042.72	0.9
313.15	0.7912	1053.61	1
313.15	0.8542	1067.57	1.15
313.15	0.9165	1080.69	1.3
313.15	0.9776	1092.86	1.46
323.15	0.0542	804.86	0.87
323.15	0.1279	837.52	0.78
323.15	0.2156	873.31	0.7
323.15	0.2811	897.98	0.65
323.15	0.3166	910.67	0.63
323.15	0.3902	935.63	0.6
323.15	0.4533	955.67	0.59
323.15	0.5022	970.42	0.59
323.15	0.5437	982.41	0.58
323.15	0.5983	997.5	0.59
323.15	0.6341	1006.98	0.64
323.15	0.6883	1020.81	0.75
323.15	0.7442	1034.4	0.86
323.15	0.7912	1045.31	0.97
323.15	0.8542	1059.18	1.11
323.15	0.9165	1072.16	1.26
323.15	0.9776	1084.17	1.42

System: propan-2-ol + 4-acetylmorpholine; phases: Liquid
Fixed: Pressure, kPa = 101
Property: Viscosity, Pa*s (Liquid); method: CAPTUB:UFactor:4
Temperature, K	Mole fraction of 4-acetylmorpholine	Viscosity, Pa*s	uncertainty
293.15	0.0522	0.003709	8.3e-05
293.15	0.1274	0.004822	0.000106
293.15	0.2153	0.006051	0.000127
293.15	0.2813	0.006792	0.00014
293.15	0.3169	0.007055	0.000144
293.15	0.3909	0.007575	0.000154
293.15	0.4569	0.007956	0.000161
293.15	0.4999	0.008044	0.000164
293.15	0.5444	0.008301	0.000169
293.15	0.6113	0.008421	0.000172
293.15	0.6342	0.008356	0.000172
293.15	0.6888	0.008479	0.000175
293.15	0.7522	0.008573	0.000178
293.15	0.7976	0.008575	0.000179
293.15	0.8555	0.008612	0.000181
293.15	0.9231	0.008559	0.000182
293.15	0.9812	0.008649	0.000186
303.15	0.0522	0.002981	6.7e-05
303.15	0.1274	0.004027	9e-05
303.15	0.2153	0.00518	0.000113
303.15	0.2813	0.005862	0.000125
303.15	0.3169	0.006069	0.000128
303.15	0.3909	0.006548	0.000137
303.15	0.4569	0.006872	0.000143
303.15	0.4999	0.006922	0.000145
303.15	0.5444	0.00714	0.000149
303.15	0.6113	0.007202	0.000151
303.15	0.6342	0.007116	0.00015
303.15	0.6888	0.007191	0.000153
303.15	0.7522	0.007229	0.000155
303.15	0.7976	0.007191	0.000155
303.15	0.8555	0.007176	0.000156
303.15	0.9231	0.007065	0.000155
303.15	0.9812	0.007104	0.000158
313.15	0.0522	0.002398	5.5e-05
313.15	0.1274	0.00333	7.5e-05
313.15	0.2153	0.00435	9.7e-05
313.15	0.2813	0.004934	0.00011
313.15	0.3169	0.005112	0.000113
313.15	0.3909	0.005454	0.000119
313.15	0.4569	0.00568	0.000124
313.15	0.4999	0.005666	0.000124
313.15	0.5444	0.005816	0.000127
313.15	0.6113	0.005778	0.000127
313.15	0.6342	0.005656	0.000126
313.15	0.6888	0.005651	0.000126
313.15	0.7522	0.005593	0.000126
313.15	0.7976	0.005487	0.000125
313.15	0.8555	0.005389	0.000124
313.15	0.9231	0.005172	0.000121
313.15	0.9812	0.005163	0.000122
323.15	0.0522	0.002058	4.8e-05
323.15	0.1274	0.002819	6.4e-05
323.15	0.2153	0.003754	8.4e-05
323.15	0.2813	0.004274	9.6e-05
323.15	0.3169	0.004418	9.9e-05
323.15	0.3909	0.004686	0.000105
323.15	0.4569	0.00485	0.000109
323.15	0.4999	0.004794	0.000108
323.15	0.5444	0.004903	0.000111
323.15	0.6113	0.004799	0.00011
323.15	0.6342	0.004656	0.000107
323.15	0.6888	0.004597	0.000106
323.15	0.7522	0.004478	0.000104
323.15	0.7976	0.004328	0.000102
323.15	0.8555	0.004174	9.9e-05
323.15	0.9231	0.003892	9.3e-05
323.15	0.9812	0.003893	9.4e-05

System: propan-2-ol + 4-acetylmorpholine; phases: Liquid
Fixed: Pressure, kPa = 101
Property: Mass density, kg/m3 (Liquid); method: VIBTUB:UFactor:8
Temperature, K	Mole fraction of 4-acetylmorpholine	Mass density, kg/m3	uncertainty
293.15	0.0522	810.61	0.88
293.15	0.1274	845.07	0.8
293.15	0.2153	882.36	0.73
293.15	0.2813	908.41	0.68
293.15	0.3169	921.81	0.66
293.15	0.3909	948.34	0.63
293.15	0.4569	970.55	0.62
293.15	0.4999	984.33	0.62
293.15	0.5444	998.07	0.61
293.15	0.6113	1017.75	0.73
293.15	0.6342	1024.24	0.77
293.15	0.6888	1039.23	0.88
293.15	0.7522	1055.83	1.02
293.15	0.7976	1067.21	1.12
293.15	0.8555	1081.19	1.25
293.15	0.9231	1096.84	1.41
293.15	0.9812	1109.73	1.56
303.15	0.0522	802.23	0.91
303.15	0.1274	836.83	0.83
303.15	0.2153	874.08	0.75
303.15	0.2813	900.12	0.71
303.15	0.3169	913.53	0.69
303.15	0.3909	940.01	0.66
303.15	0.4569	962.22	0.64
303.15	0.4999	976.03	0.64
303.15	0.5444	989.79	0.63
303.15	0.6113	1009.55	0.7
303.15	0.6342	1016.09	0.74
303.15	0.6888	1031.12	0.85
303.15	0.7522	1047.8	0.98
303.15	0.7976	1059.28	1.08
303.15	0.8555	1073.23	1.21
303.15	0.9231	1088.86	1.37
303.15	0.9812	1101.5	1.52
313.15	0.0522	793.47	0.94
313.15	0.1274	828.15	0.85
313.15	0.2153	865.5	0.77
313.15	0.2813	891.54	0.73
313.15	0.3169	904.96	0.71
313.15	0.3909	931.48	0.68
313.15	0.4569	953.73	0.66
313.15	0.4999	967.56	0.66
313.15	0.5444	981.36	0.65
313.15	0.6113	1001.18	0.66
313.15	0.6342	1007.75	0.71
313.15	0.6888	1022.83	0.82
313.15	0.7522	1039.58	0.95
313.15	0.7976	1051.06	1.05
313.15	0.8555	1065.09	1.18
313.15	0.9231	1080.63	1.33
313.15	0.9812	1093.25	1.48
323.15	0.0522	784.46	0.96
323.15	0.1274	819.27	0.88
323.15	0.2153	856.59	0.8
323.15	0.2813	882.62	0.75
323.15	0.3169	896.01	0.73
323.15	0.3909	922.58	0.7
323.15	0.4569	944.86	0.69
323.15	0.4999	958.72	0.68
323.15	0.5444	972.55	0.67
323.15	0.6113	992.43	0.68
323.15	0.6342	999.01	0.68
323.15	0.6888	1014.14	0.78
323.15	0.7522	1030.95	0.91
323.15	0.7976	1042.48	1.01
323.15	0.8555	1056.57	1.14
323.15	0.9231	1071.94	1.29
323.15	0.9812	1084.58	1.43

System: butan-1-ol + 4-acetylmorpholine; phases: Liquid
Fixed: Pressure, kPa = 101
Property: Viscosity, Pa*s (Liquid); method: CAPTUB:UFactor:6
Temperature, K	Mole fraction of 4-acetylmorpholine	Viscosity, Pa*s	uncertainty
293.15	0.0555	0.004367	0.000143
293.15	0.1321	0.005668	0.000179
293.15	0.2165	0.006805	0.000206
293.15	0.2844	0.00759	0.000225
293.15	0.3126	0.007757	0.000229
293.15	0.4042	0.008369	0.000244
293.15	0.4673	0.008697	0.000253
293.15	0.5033	0.008878	0.000258
293.15	0.5562	0.009001	0.000261
293.15	0.6237	0.009088	0.000265
293.15	0.6431	0.008989	0.000263
293.15	0.6903	0.009041	0.000265
293.15	0.7439	0.008864	0.000262
293.15	0.7911	0.008713	0.000259
293.15	0.8624	0.00888	0.000265
293.15	0.9222	0.008663	0.000261
293.15	0.9785	0.008737	0.000264
303.15	0.0555	0.003576	0.000119
303.15	0.1321	0.004813	0.000157
303.15	0.2165	0.005881	0.000184
303.15	0.2844	0.006613	0.000202
303.15	0.3126	0.006756	0.000205
303.15	0.4042	0.007294	0.000219
303.15	0.4673	0.00757	0.000226
303.15	0.5033	0.007734	0.00023
303.15	0.5562	0.007801	0.000233
303.15	0.6237	0.007833	0.000234
303.15	0.6431	0.007719	0.000232
303.15	0.6903	0.007732	0.000233
303.15	0.7439	0.007512	0.000228
303.15	0.7911	0.007322	0.000225
303.15	0.8624	0.007431	0.000229
303.15	0.9222	0.007164	0.000223
303.15	0.9785	0.007193	0.000225
313.15	0.0555	0.002739	9.2e-05
313.15	0.1321	0.003879	0.000128
313.15	0.2165	0.005042	0.000164
313.15	0.2844	0.005581	0.000177
313.15	0.3126	0.0056	0.000178
313.15	0.4042	0.006023	0.000189
313.15	0.4673	0.00622	0.000194
313.15	0.5033	0.00631	0.000196
313.15	0.5562	0.006341	0.000198
313.15	0.6237	0.00629	0.000197
313.15	0.6431	0.006152	0.000194
313.15	0.6903	0.006105	0.000193
313.15	0.7439	0.005819	0.000187
313.15	0.7911	0.005569	0.000182
313.15	0.8624	0.005591	0.000183
313.15	0.9222	0.005249	0.000175
313.15	0.9785	0.005209	0.000175
323.15	0.0555	0.001957	6.8e-05
323.15	0.1321	0.003051	0.000102
323.15	0.2165	0.00416	0.000137
323.15	0.2844	0.004657	0.000153
323.15	0.3126	0.004662	0.000153
323.15	0.4042	0.00503	0.000165
323.15	0.4673	0.005191	0.000169
323.15	0.5033	0.005257	0.000171
323.15	0.5562	0.005256	0.000172
323.15	0.6237	0.005164	0.00017
323.15	0.6431	0.005014	0.000167
323.15	0.6903	0.004937	0.000165
323.15	0.7439	0.00462	0.000155
323.15	0.7911	0.004342	0.000147
323.15	0.8624	0.00432	0.000147
323.15	0.9222	0.003943	0.000135
323.15	0.9785	0.003868	0.000133

System: butan-1-ol + 4-acetylmorpholine; phases: Liquid
Fixed: Pressure, kPa = 101
Property: Mass density, kg/m3 (Liquid); method: VIBTUB:UFactor:8
Temperature, K	Mole fraction of 4-acetylmorpholine	Mass density, kg/m3	uncertainty
293.15	0.0555	830.66	0.79
293.15	0.1321	858.9	0.72
293.15	0.2165	888.87	0.65
293.15	0.2844	911.99	0.61
293.15	0.3126	921.41	0.6
293.15	0.4042	950.97	0.57
293.15	0.4673	970.56	0.56
293.15	0.5033	981.45	0.56
293.15	0.5562	997.1	0.56
293.15	0.6237	1016.44	0.67
293.15	0.6431	1021.86	0.71
293.15	0.6903	1034.68	0.81
293.15	0.7439	1049.33	0.93
293.15	0.7911	1061.73	1.04
293.15	0.8624	1080.02	1.22
293.15	0.9222	1094.91	1.38
293.15	0.9785	1108.62	1.54
303.15	0.0555	823.07	0.81
303.15	0.1321	851.41	0.74
303.15	0.2165	881.36	0.68
303.15	0.2844	904.41	0.64
303.15	0.3126	913.8	0.62
303.15	0.4042	943.3	0.59
303.15	0.4673	962.85	0.58
303.15	0.5033	973.71	0.58
303.15	0.5562	989.33	0.58
303.15	0.6237	1008.64	0.64
303.15	0.6431	1014.06	0.68
303.15	0.6903	1027.04	0.77
303.15	0.7439	1041.5	0.89
303.15	0.7911	1053.88	1
303.15	0.8624	1072.17	1.18
303.15	0.9222	1086.95	1.34
303.15	0.9785	1100.43	1.5
313.15	0.0555	817.21	0.83
313.15	0.1321	845.34	0.76
313.15	0.2165	875.04	0.7
313.15	0.2844	898.1	0.65
313.15	0.3126	907.41	0.64
313.15	0.4042	936.67	0.61
313.15	0.4673	956.07	0.6
313.15	0.5033	966.85	0.6
313.15	0.5562	982.34	0.59
313.15	0.6237	1001.5	0.61
313.15	0.6431	1006.88	0.65
313.15	0.6903	1019.75	0.75
313.15	0.7439	1034.1	0.86
313.15	0.7911	1046.38	0.97
313.15	0.8624	1064.39	1.15
313.15	0.9222	1078.97	1.31
313.15	0.9785	1092.25	1.46
323.15	0.0555	807.84	0.86
323.15	0.1321	836.14	0.79
323.15	0.2165	865.84	0.72
323.15	0.2844	888.92	0.68
323.15	0.3126	898.24	0.67
323.15	0.4042	927.56	0.63
323.15	0.4673	947	0.62
323.15	0.5033	957.81	0.62
323.15	0.5562	973.36	0.62
323.15	0.6237	992.59	0.62
323.15	0.6431	997.99	0.63
323.15	0.6903	1010.93	0.71
323.15	0.7439	1025.34	0.83
323.15	0.7911	1037.69	0.94
323.15	0.8624	1055.8	1.11
323.15	0.9222	1070.4	1.27
323.15	0.9785	1083.56	1.42

System: butan-2-ol + 4-acetylmorpholine; phases: Liquid
Fixed: Pressure, kPa = 101
Property: Viscosity, Pa*s (Liquid); method: CAPTUB:UFactor:6
Temperature, K	Mole fraction of 4-acetylmorpholine	Viscosity, Pa*s	uncertainty
293.15	0.0516	0.005054	0.000165
293.15	0.1322	0.006732	0.000204
293.15	0.2217	0.008167	0.000239
293.15	0.2879	0.008981	0.000259
293.15	0.3188	0.009257	0.000265
293.15	0.3996	0.009785	0.000279
293.15	0.4597	0.010024	0.000286
293.15	0.5094	0.010203	0.000291
293.15	0.5496	0.010272	0.000293
293.15	0.6127	0.010291	0.000295
293.15	0.6444	0.01011	0.000291
293.15	0.6915	0.010114	0.000292
293.15	0.7516	0.009956	0.000289
293.15	0.7984	0.009588	0.000281
293.15	0.8599	0.009409	0.000278
293.15	0.9127	0.008959	0.000268
293.15	0.9843	0.008843	0.000267
303.15	0.0516	0.004116	0.000136
303.15	0.1322	0.005737	0.000181
303.15	0.2217	0.00711	0.000214
303.15	0.2879	0.007878	0.000232
303.15	0.3188	0.008132	0.000239
303.15	0.3996	0.008603	0.000251
303.15	0.4597	0.0088	0.000256
303.15	0.5094	0.008944	0.000261
303.15	0.5496	0.008985	0.000262
303.15	0.6127	0.00896	0.000263
303.15	0.6444	0.008757	0.000258
303.15	0.6915	0.008728	0.000258
303.15	0.7516	0.008527	0.000254
303.15	0.7984	0.008127	0.000245
303.15	0.8599	0.007905	0.000241
303.15	0.9127	0.007419	0.00023
303.15	0.9843	0.007252	0.000227
313.15	0.0516	0.003093	0.000104
313.15	0.1322	0.004626	0.000152
313.15	0.2217	0.005901	0.000185
313.15	0.2879	0.006596	0.000202
313.15	0.3188	0.006816	0.000208
313.15	0.3996	0.007199	0.000217
313.15	0.4597	0.00733	0.000221
313.15	0.5084	0.00742	0.000224
313.15	0.5496	0.007418	0.000224
313.15	0.6127	0.007323	0.000223
313.15	0.6444	0.007086	0.000217
313.15	0.6915	0.007005	0.000216
313.15	0.7516	0.006739	0.00021
313.15	0.7984	0.006288	0.0002
313.15	0.8599	0.005998	0.000193
313.15	0.9127	0.005454	0.000181
313.15	0.9843	0.005209	0.000175
323.15	0.0516	0.002101	7.2e-05
323.15	0.1322	0.003598	0.00012
323.15	0.2217	0.004833	0.000159
323.15	0.2879	0.005499	0.000176
323.15	0.3188	0.005706	0.000181
323.15	0.3996	0.006052	0.00019
323.15	0.4597	0.006157	0.000193
323.15	0.5094	0.006225	0.000195
323.15	0.5496	0.006204	0.000195
323.15	0.6127	0.006082	0.000193
323.15	0.6444	0.00583	0.000187
323.15	0.6915	0.005728	0.000185
323.15	0.7516	0.005436	0.000178
323.15	0.7984	0.004964	0.000167
323.15	0.8599	0.004647	0.000157
323.15	0.9127	0.004079	0.00014
323.15	0.9843	0.003918	0.000135

System: butan-2-ol + 4-acetylmorpholine; phases: Liquid
Fixed: Pressure, kPa = 101
Property: Mass density, kg/m3 (Liquid); method: VIBTUB:UFactor:8
Temperature, K	Mole fraction of 4-acetylmorpholine	Mass density, kg/m3	uncertainty
293.15	0.0516	825.38	0.84
293.15	0.1322	855.35	0.77
293.15	0.2217	887.31	0.71
293.15	0.2879	910.03	0.68
293.15	0.3188	920.4	0.67
293.15	0.3996	946.76	0.64
293.15	0.4597	965.69	0.63
293.15	0.5094	980.92	0.63
293.15	0.5496	992.98	0.63
293.15	0.6127	1011.42	0.7
293.15	0.6444	1020.47	0.77
293.15	0.6915	1033.69	0.86
293.15	0.7516	1050.14	0.99
293.15	0.7984	1062.63	1.1
293.15	0.8599	1078.7	1.24
293.15	0.9127	1092.14	1.37
293.15	0.9843	1109.96	1.56
303.15	0.0516	817.52	0.86
303.15	0.1322	847.54	0.8
303.15	0.2217	879.42	0.74
303.15	0.2879	902.08	0.7
303.15	0.3188	912.44	0.69
303.15	0.3996	938.75	0.66
303.15	0.4597	957.65	0.65
303.15	0.5094	972.86	0.65
303.15	0.5496	984.91	0.65
303.15	0.6127	1003.34	0.67
303.15	0.6444	1012.39	0.73
303.15	0.6915	1025.61	0.83
303.15	0.7516	1042.06	0.96
303.15	0.7984	1054.55	1.06
303.15	0.8599	1070.63	1.21
303.15	0.9127	1084.08	1.34
303.15	0.9843	1101.76	1.52
313.15	0.0516	809.81	0.89
313.15	0.1322	839.73	0.82
313.15	0.2217	871.54	0.76
313.15	0.2879	894.15	0.72
313.15	0.3188	904.49	0.71
313.15	0.3996	930.77	0.68
313.15	0.4597	949.64	0.67
313.15	0.5094	964.83	0.67
313.15	0.5496	976.87	0.67
313.15	0.6127	995.3	0.67
313.15	0.6444	1004.34	0.7
313.15	0.6915	1017.54	0.8
313.15	0.7516	1033.98	0.92
313.15	0.7984	1046.47	1.03
313.15	0.8599	1062.46	1.17
313.15	0.9127	1075.84	1.3
313.15	0.9843	1093.49	1.48
323.15	0.0516	804.44	0.9
323.15	0.1322	834.19	0.83
323.15	0.2217	865.66	0.77
323.15	0.2879	888.03	0.74
323.15	0.3188	898.25	0.73
323.15	0.3996	924.25	0.7
323.15	0.4597	942.89	0.69
323.15	0.5094	957.91	0.69
323.15	0.5496	969.82	0.68
323.15	0.6127	988.03	0.69
323.15	0.6444	996.96	0.69
323.15	0.6915	1010.11	0.77
323.15	0.7516	1026.24	0.89
323.15	0.7984	1038.57	0.99
323.15	0.8599	1054.37	1.13
323.15	0.9127	1067.51	1.26
323.15	0.9843	1084.84	1.44
