Measured thermophysical data. Solubility of the Antimicrobial Agent Triclosan in Organic Solvents of Different Hydrogen Bonding Capabilities at Several Temperatures
Source: J. Chem. Eng. Data, 2008, 10.1021/je800426w
Compound 1: 2,4,4'-trichloro-2'-hydroxydiphenyl ether, C12H7Cl3O2, InChI=1S/C12H7Cl3O2/c13-7-1-3-11(9(15)5-7)17-12-4-2-8(14)6-10(12)16/h1-6,16H
Compound 2: ethanol, C2H6O, InChI=1S/C2H6O/c1-2-3/h3H,2H2,1H3
Compound 3: octan-1-ol, C8H18O, InChI=1S/C8H18O/c1-2-3-4-5-6-7-8-9/h9H,2-8H2,1H3
Compound 4: 1-methylethyl tetradecanoate, C17H34O2, InChI=1S/C17H34O2/c1-4-5-6-7-8-9-10-11-12-13-14-15-17(18)19-16(2)3/h16H,4-15H2,1-3H3
Compound 5: trichloromethane, CHCl3, InChI=1S/CHCl3/c2-1(3)4/h1H
Compound 6: heptane, C7H16, InChI=1S/C7H16/c1-3-5-7-6-4-2/h3-7H2,1-2H3

System: ethanol + 2,4,4'-trichloro-2'-hydroxydiphenyl ether; phases: Liquid, Crystal
Fixed: Pressure, kPa = 101
Property: Mole fraction of 2,4,4'-trichloro-2'-hydroxydiphenyl ether (Liquid); method: UV Spectra calibration curves
Temperature, K	Mole fraction of 2,4,4'-trichloro-2'-hydroxydiphenyl ether	uncertainty
293.15	0.332	0.009
298.15	0.449	0.012
303.15	0.57	0.014
308.15	0.654	0.009
313.15	0.751	0.008

System: trichloromethane + 2,4,4'-trichloro-2'-hydroxydiphenyl ether; phases: Liquid, Crystal
Fixed: Pressure, kPa = 101
Property: Mole fraction of 2,4,4'-trichloro-2'-hydroxydiphenyl ether (Liquid); method: UV Spectra calibration curves
Temperature, K	Mole fraction of 2,4,4'-trichloro-2'-hydroxydiphenyl ether	uncertainty
293.15	0.33	0.005
298.15	0.412	0.009
303.15	0.501	0.01
308.15	0.561	0.011
313.15	0.633	0.006

System: 1-methylethyl tetradecanoate + 2,4,4'-trichloro-2'-hydroxydiphenyl ether; phases: Liquid, Crystal
Fixed: Pressure, kPa = 101
Property: Mole fraction of 2,4,4'-trichloro-2'-hydroxydiphenyl ether (Liquid); method: UV Spectra calibration curves
Temperature, K	Mole fraction of 2,4,4'-trichloro-2'-hydroxydiphenyl ether	uncertainty
293.15	0.0422	0.0003
298.15	0.0475	0.0005
303.15	0.0527	0.0005
308.15	0.0563	0.001
313.15	0.0594	0.0008

System: octan-1-ol + 2,4,4'-trichloro-2'-hydroxydiphenyl ether; phases: Liquid, Crystal
Fixed: Pressure, kPa = 101
Property: Mole fraction of 2,4,4'-trichloro-2'-hydroxydiphenyl ether (Liquid); method: UV Spectra calibration curves
Temperature, K	Mole fraction of 2,4,4'-trichloro-2'-hydroxydiphenyl ether	uncertainty
293.15	0.0089	0.0007
298.15	0.025	0.0015
303.15	0.0785	0.0031
308.15	0.157	0.005
313.15	0.285	0.007

System: heptane + 2,4,4'-trichloro-2'-hydroxydiphenyl ether; phases: Liquid, Crystal
Fixed: Pressure, kPa = 101
Property: Mole fraction of 2,4,4'-trichloro-2'-hydroxydiphenyl ether (Liquid); method: UV Spectra calibration curves
Temperature, K	Mole fraction of 2,4,4'-trichloro-2'-hydroxydiphenyl ether	uncertainty
293.15	0.0156	0.0006
298.15	0.0286	0.0008
303.15	0.0421	0.0007
308.15	0.0605	0.0013
313.15	0.0806	0.0015
