Measured thermophysical data. Density for (Water + Ethylenediamine) at Temperatures between (283 and 353) K
Source: J. Chem. Eng. Data, 2008, 10.1021/je8001199
Compound 1: ethane-1,2-diamine, C2H8N2, InChI=1S/C2H8N2/c3-1-2-4/h1-4H2, purity 99.8%
Compound 2: water, H2O, InChI=1S/H2O/h1H2

System: ethane-1,2-diamine; phases: Liquid
Fixed: Pressure, kPa = 200
Property: Mass density, kg/m3 (Liquid); method: VIBTUB:UFactor:2
Temperature, K	Mass density, kg/m3	uncertainty
283.55	905.993	0.165
293.06	897.168	0.17
302.4	888.38	0.175
312.67	878.632	0.181
323.15	868.618	0.187
332.78	859.342	0.192
342.77	849.651	0.198
352.69	839.921	0.205

System: ethane-1,2-diamine + water; phases: Liquid
Fixed: Pressure, kPa = 200
Property: Mass density, kg/m3 (Liquid); method: VIBTUB:UFactor:2
Temperature, K	Mole fraction of water	Mass density, kg/m3	uncertainty
282.78	0.3967	956.193	0.151
282.92	0.2017	929.116	0.154
282.96	0.301	942.071	0.151
283.11	0.8936	1000.804	0.117
283.13	0.1028	917.186	0.159
283.26	0.5026	973.123	0.153
283.4	1	999.862	0.116
283.47	0.7687	1005.972	0.119
283.55	0	905.993	0.165
283.69	0.6032	989.21	0.135
284.35	0.7026	1001.479	0.121
292.62	0.8936	996.472	0.118
292.67	0.5026	964.635	0.156
292.85	0.7026	994.548	0.124
292.93	0.2017	919.983	0.159
292.93	0.301	933.047	0.155
293.05	0.1028	908.064	0.164
293.06	0	897.168	0.17
293.09	0.3967	946.948	0.155
293.24	0.7687	998.968	0.118
293.28	1	998.365	0.116
293.29	0.6032	980.744	0.139
301.58	0.7026	987.238	0.128
302.39	0.6032	972.594	0.143
302.4	0	888.38	0.175
302.47	0.7687	992.107	0.12
302.62	1	995.966	0.117
302.85	0.3967	938.019	0.159
302.85	0.5026	955.328	0.16
302.96	0.301	923.821	0.16
302.97	0.8936	991.261	0.12
302.99	0.1028	898.81	0.169
303.1	0.2017	910.588	0.164
311.86	0.7026	978.33	0.132
312.13	1	992.723	0.119
312.55	0.6032	963.3	0.147
312.59	0.7687	984.36	0.124
312.67	0	878.632	0.181
312.77	0.5026	946.166	0.164
313	0.301	914.5	0.165
313.02	0.8936	985.719	0.122
313.11	0.1028	889.308	0.175
313.14	0.2017	901.221	0.169
313.98	0.3967	927.719	0.164
322.34	0.7687	976.647	0.127
322.65	0.6032	953.972	0.152
322.72	0.7026	968.66	0.137
322.73	1	988.284	0.121
322.86	0.301	905.205	0.17
322.88	0.5026	936.708	0.168
322.93	0.2017	891.98	0.174
323.04	0.1028	879.883	0.18
323.15	0	868.618	0.187
323.15	0.8936	979.69	0.125
323.75	0.3967	918.543	0.169
332.41	0.7026	960.004	0.141
332.77	0.7687	968.171	0.131
332.78	0	859.342	0.192
332.89	0.5026	927.173	0.173
332.94	1	983.292	0.123
332.96	0.301	895.557	0.175
333.02	0.6032	944.229	0.157
333.1	0.1028	870.208	0.186
333.11	0.2017	882.167	0.18
333.38	0.8936	973.322	0.128
333.53	0.3967	909.227	0.173
342.53	1	978.02	0.125
342.6	0.7687	959.937	0.136
342.64	0.5026	917.789	0.177
342.77	0	849.651	0.198
342.81	0.3967	900.276	0.178
342.98	0.301	885.862	0.181
343.04	0.1028	860.531	0.192
343.08	0.7026	950.214	0.147
343.09	0.8936	966.519	0.131
343.13	0.2017	872.529	0.186
352.14	0.7687	951.742	0.141
352.19	1	972.189	0.128
352.69	0	839.921	0.205
352.71	0.5026	907.894	0.182
352.83	0.301	876.2	0.186
352.9	0.8936	959.494	0.134
353.02	0.1028	850.773	0.198
353.03	0.2017	862.815	0.191
353.34	0.3967	889.949	0.184
353.48	0.7026	940.524	0.152
