Measured thermophysical data. Vapor Pressures and Evaporation Studies of Sugars and Sugar Alcohols
Source: J. Chem. Eng. Data, 2008, 10.1021/je800070y
Compound 1: D-sorbitol, C6H14O6, InChI=1S/C6H14O6/c7-1-3(9)5(11)6(12)4(10)2-8/h3-12H,1-2H2/t3-,4+,5-,6-/m1/s1
Compound 2: glycerol, C3H8O3, InChI=1S/C3H8O3/c4-1-3(6)2-5/h3-6H,1-2H2

System: D-sorbitol; phases: Liquid, Gas
Property: Vapor or sublimation pressure, kPa (Liquid); method: Rate of evaporation
Temperature, K	Vapor or sublimation pressure, kPa	uncertainty
523.15	1.31	0.1
548.15	4.49	0.35
573.15	12.3	1
598.15	30	2.3
623.15	65	5

System: glycerol; phases: Liquid, Gas
Property: Vapor or sublimation pressure, kPa (Liquid); method: Rate of evaporation
Temperature, K	Vapor or sublimation pressure, kPa	uncertainty
463.15	3.85	0.3
483.15	8.64	0.67
503.15	17.9	1.4
523.15	34.5	2.7
543.15	62.6	4.8
