Measured thermophysical data. Density, Speed of Sound, and Refractive Index for Binary Mixtures Containing Cycloalkanes and Aromatic Compounds at T = 313.15 K
Source: J. Chem. Eng. Data, 2009, 10.1021/je8009336
Compound 1: cyclopentane, C5H10, InChI=1S/C5H10/c1-2-4-5-3-1/h1-5H2
Compound 2: cyclohexane, C6H12, InChI=1S/C6H12/c1-2-4-6-5-3-1/h1-6H2
Compound 3: methylcyclohexane, C7H14, InChI=1S/C7H14/c1-7-5-3-2-4-6-7/h7H,2-6H2,1H3
Compound 4: benzene, C6H6, InChI=1S/C6H6/c1-2-4-6-5-3-1/h1-6H
Compound 5: toluene, C7H8, InChI=1S/C7H8/c1-7-5-3-2-4-6-7/h2-6H,1H3
Compound 6: ethylbenzene, C8H10, InChI=1S/C8H10/c1-2-8-6-4-3-5-7-8/h3-7H,2H2,1H3

System: cyclopentane; phases: Liquid
Property: Mass density, kg/m3 (Liquid); method: Vibrating tube method
Temperature, K	Pressure, kPa	Mass density, kg/m3	uncertainty
298.15	101.325	740	0.3

System: cyclopentane; phases: Liquid
Fixed: Pressure, kPa = 101.325
Property: Refractive index (Na D-line) (Liquid); method: Standard Abbe refractometry
Temperature, K	Refractive index (Na D-line)	uncertainty
298.15	1.40342	0.0007
313.15	1.39456	0.0007

System: cyclopentane; phases: Liquid
Property: Speed of sound, m/s (Liquid); method: OTHER::sMethod:Vibrating Tube Densimeter
Temperature, K	Pressure, kPa	Speed of sound, m/s	uncertainty
313.15	101	1130	2.3

System: cyclopentane; phases: Liquid
Property: Mass density, kg/m3 (Liquid); method: Vibrating tube method
Temperature, K	Pressure, kPa	Mass density, kg/m3	uncertainty
313.15	101	725	0.3

System: cyclohexane; phases: Liquid
Property: Mass density, kg/m3 (Liquid); method: Vibrating tube method
Temperature, K	Pressure, kPa	Mass density, kg/m3	uncertainty
298.15	101.325	773.8	0.2

System: cyclohexane; phases: Liquid
Fixed: Pressure, kPa = 101.325
Property: Refractive index (Na D-line) (Liquid); method: Standard Abbe refractometry
Temperature, K	Refractive index (Na D-line)	uncertainty
298.15	1.42353	0.00068
313.15	1.41513	0.00068

System: cyclohexane; phases: Liquid
Property: Speed of sound, m/s (Liquid); method: OTHER::sMethod:Vibrating Tube Densimeter
Temperature, K	Pressure, kPa	Speed of sound, m/s	uncertainty
313.15	101	1181.7	2.1

System: cyclohexane; phases: Liquid
Property: Mass density, kg/m3 (Liquid); method: Vibrating tube method
Temperature, K	Pressure, kPa	Mass density, kg/m3	uncertainty
313.15	101	759.6	0.2

System: methylcyclohexane; phases: Liquid
Property: Mass density, kg/m3 (Liquid); method: Vibrating tube method
Temperature, K	Pressure, kPa	Mass density, kg/m3	uncertainty
298.15	101.325	764.9	0.3

System: methylcyclohexane; phases: Liquid
Fixed: Pressure, kPa = 101.325
Property: Refractive index (Na D-line) (Liquid); method: Standard Abbe refractometry
Temperature, K	Refractive index (Na D-line)	uncertainty
298.15	1.42053	0.0007
313.15	1.41272	0.0007

System: methylcyclohexane; phases: Liquid
Property: Speed of sound, m/s (Liquid); method: OTHER::sMethod:Vibrating Tube Densimeter
Temperature, K	Pressure, kPa	Speed of sound, m/s	uncertainty
313.15	101	1149.6	2.3

System: methylcyclohexane; phases: Liquid
Property: Mass density, kg/m3 (Liquid); method: Vibrating tube method
Temperature, K	Pressure, kPa	Mass density, kg/m3	uncertainty
313.15	101	752	0.3

System: benzene; phases: Liquid
Property: Mass density, kg/m3 (Liquid); method: Vibrating tube method
Temperature, K	Pressure, kPa	Mass density, kg/m3	uncertainty
298.15	101.325	873.5	0.2

System: benzene; phases: Liquid
Fixed: Pressure, kPa = 101.325
Property: Refractive index (Na D-line) (Liquid); method: Standard Abbe refractometry
Temperature, K	Refractive index (Na D-line)	uncertainty
298.15	1.49775	0.00068
313.15	1.48777	0.00068

System: benzene; phases: Liquid
Property: Speed of sound, m/s (Liquid); method: OTHER::sMethod:Vibrating Tube Densimeter
Temperature, K	Pressure, kPa	Speed of sound, m/s	uncertainty
313.15	101	1230.5	2.1

System: benzene; phases: Liquid
Property: Mass density, kg/m3 (Liquid); method: Vibrating tube method
Temperature, K	Pressure, kPa	Mass density, kg/m3	uncertainty
313.15	101	857.5	0.2

System: toluene; phases: Liquid
Property: Mass density, kg/m3 (Liquid); method: Vibrating tube method
Temperature, K	Pressure, kPa	Mass density, kg/m3	uncertainty
298.15	101.325	862.1	0.2

System: toluene; phases: Liquid
Fixed: Pressure, kPa = 101.325
Property: Refractive index (Na D-line) (Liquid); method: Standard Abbe refractometry
Temperature, K	Refractive index (Na D-line)	uncertainty
298.15	1.49399	0.00068
313.15	1.48509	0.00068

System: toluene; phases: Liquid
Property: Speed of sound, m/s (Liquid); method: OTHER::sMethod:Vibrating Tube Densimeter
Temperature, K	Pressure, kPa	Speed of sound, m/s	uncertainty
313.15	101	1240.9	2.1

System: toluene; phases: Liquid
Property: Mass density, kg/m3 (Liquid); method: Vibrating tube method
Temperature, K	Pressure, kPa	Mass density, kg/m3	uncertainty
313.15	101	848.2	0.2

System: ethylbenzene; phases: Liquid
Property: Mass density, kg/m3 (Liquid); method: Vibrating tube method
Temperature, K	Pressure, kPa	Mass density, kg/m3	uncertainty
298.15	101.325	862.5	0.2

System: ethylbenzene; phases: Liquid
Fixed: Pressure, kPa = 101.325
Property: Refractive index (Na D-line) (Liquid); method: Standard Abbe refractometry
Temperature, K	Refractive index (Na D-line)	uncertainty
298.15	1.49304	0.00068
313.15	1.48538	0.00068

System: ethylbenzene; phases: Liquid
Property: Speed of sound, m/s (Liquid); method: OTHER::sMethod:Vibrating Tube Densimeter
Temperature, K	Pressure, kPa	Speed of sound, m/s	uncertainty
313.15	101	1257.3	2.1

System: ethylbenzene; phases: Liquid
Property: Mass density, kg/m3 (Liquid); method: Vibrating tube method
Temperature, K	Pressure, kPa	Mass density, kg/m3	uncertainty
313.15	101	849.3	0.2

System: benzene + cyclopentane; phases: Liquid
Fixed: Temperature, K = 313.15
Fixed: Pressure, kPa = 101
Property: Refractive index (Na D-line) (Liquid); method: Standard Abbe refractometry
Mole fraction of cyclopentane	Refractive index (Na D-line)	uncertainty
0	1.48777	0.00068
0.0366	1.48417	0.00068
0.0941	1.47833	0.00068
0.1945	1.46795	0.00068
0.2706	1.46049	0.00068
0.3937	1.44843	0.00069
0.4893	1.43934	0.00069
0.5917	1.42988	0.00069
0.6893	1.4211	0.00069
0.7983	1.41158	0.0007
0.8971	1.40315	0.0007
0.9471	1.39904	0.0007
1	1.39456	0.0007

System: benzene + cyclopentane; phases: Liquid
Fixed: Temperature, K = 313.15
Fixed: Pressure, kPa = 101
Property: Speed of sound, m/s (Liquid); method: Vibrating Tube Densimeter
Mole fraction of cyclopentane	Speed of sound, m/s	uncertainty
0	1230.5	2.1
0.0366	1224.4	2.1
0.0941	1215.7	2.1
0.1945	1200.6	2.1
0.2706	1190.2	2.1
0.3937	1175.5	2.1
0.4893	1165	2.1
0.5917	1155.3	2.2
0.6893	1147.2	2.2
0.7983	1139.7	2.2
0.8971	1134.2	2.3
0.9471	1132	2.3
1	1130	2.3

System: benzene + cyclopentane; phases: Liquid
Fixed: Temperature, K = 313.15
Fixed: Pressure, kPa = 101
Property: Mass density, kg/m3 (Liquid); method: Vibrating tube method
Mole fraction of cyclopentane	Mass density, kg/m3	uncertainty
0	857.5	0.2
0.0366	852	0.2
0.0941	843.4	0.2
0.1945	828.6	0.3
0.2706	817.8	0.3
0.3937	800.7	0.3
0.4893	787.8	0.3
0.5917	774.4	0.3
0.6893	762.1	0.3
0.7983	748.6	0.3
0.8971	736.8	0.3
0.9471	731	0.3
1	725	0.3

System: toluene + cyclopentane; phases: Liquid
Fixed: Temperature, K = 313.15
Fixed: Pressure, kPa = 101
Property: Refractive index (Na D-line) (Liquid); method: Standard Abbe refractometry
Mole fraction of cyclopentane	Refractive index (Na D-line)	uncertainty
0	1.48509	0.00068
0.0418	1.48201	0.00068
0.0924	1.47801	0.00068
0.1907	1.46979	0.00068
0.2717	1.46313	0.00068
0.3579	1.45562	0.00068
0.4944	1.44336	0.00069
0.5862	1.43503	0.00069
0.6895	1.42526	0.00069
0.7951	1.41512	0.0007
0.8958	1.40537	0.0007
0.9456	1.40037	0.0007
1	1.39456	0.0007

System: toluene + cyclopentane; phases: Liquid
Fixed: Temperature, K = 313.15
Fixed: Pressure, kPa = 101
Property: Speed of sound, m/s (Liquid); method: Vibrating Tube Densimeter
Mole fraction of cyclopentane	Speed of sound, m/s	uncertainty
0	1240.9	2.1
0.0418	1235.6	2.1
0.0924	1228.7	2.1
0.1907	1215.8	2.1
0.2717	1205.2	2.1
0.3579	1194.8	2.1
0.4944	1178.6	2.1
0.5862	1168.4	2.2
0.6895	1157.4	2.2
0.7951	1147.3	2.2
0.8958	1138.3	2.3
0.9456	1134.2	2.3
1	1130	2.3

System: toluene + cyclopentane; phases: Liquid
Fixed: Temperature, K = 313.15
Fixed: Pressure, kPa = 101
Property: Mass density, kg/m3 (Liquid); method: Vibrating tube method
Mole fraction of cyclopentane	Mass density, kg/m3	uncertainty
0	848.2	0.2
0.0418	843.6	0.2
0.0924	838	0.2
0.1907	826.8	0.2
0.2717	817.3	0.3
0.3579	807	0.3
0.4944	790.4	0.3
0.5862	778.9	0.3
0.6895	765.8	0.3
0.7951	752.2	0.3
0.8958	738.9	0.3
0.9456	732.3	0.3
1	725	0.3

System: ethylbenzene + cyclopentane; phases: Liquid
Fixed: Temperature, K = 313.15
Fixed: Pressure, kPa = 101
Property: Refractive index (Na D-line) (Liquid); method: Standard Abbe refractometry
Mole fraction of cyclopentane	Refractive index (Na D-line)	uncertainty
0	1.48538	0.00068
0.0393	1.48234	0.00068
0.083	1.47928	0.00068
0.1874	1.4714	0.00068
0.2847	1.46405	0.00068
0.3689	1.45715	0.00068
0.541	1.44226	0.00069
0.6281	1.43421	0.00069
0.687	1.42853	0.00069
0.7988	1.41702	0.0007
0.898	1.40651	0.0007
0.9475	1.40072	0.00071
1	1.39456	0.0007

System: ethylbenzene + cyclopentane; phases: Liquid
Fixed: Temperature, K = 313.15
Fixed: Pressure, kPa = 101
Property: Speed of sound, m/s (Liquid); method: Vibrating Tube Densimeter
Mole fraction of cyclopentane	Speed of sound, m/s	uncertainty
0	1257.3	2.1
0.0393	1251.9	2.1
0.083	1246.4	2.1
0.1874	1232.9	2.1
0.2847	1219.9	2.1
0.3689	1209.3	2.1
0.541	1186.8	2.2
0.6281	1175.5	2.2
0.687	1168	2.2
0.7988	1154	2.2
0.898	1141.9	2.3
0.9475	1135.9	2.3
1	1130	2.3

System: ethylbenzene + cyclopentane; phases: Liquid
Fixed: Temperature, K = 313.15
Fixed: Pressure, kPa = 101
Property: Mass density, kg/m3 (Liquid); method: Vibrating tube method
Mole fraction of cyclopentane	Mass density, kg/m3	uncertainty
0	849.3	0.2
0.0393	845.5	0.2
0.083	841.2	0.2
0.1874	830.5	0.2
0.2847	820	0.3
0.3689	810.5	0.3
0.541	789.9	0.3
0.6281	778.7	0.3
0.687	770.9	0.3
0.7988	755.3	0.3
0.898	740.8	0.3
0.9475	733.2	0.3
1	725	0.3

System: benzene + cyclohexane; phases: Liquid
Fixed: Temperature, K = 313.15
Fixed: Pressure, kPa = 101
Property: Refractive index (Na D-line) (Liquid); method: Standard Abbe refractometry
Mole fraction of cyclohexane	Refractive index (Na D-line)	uncertainty
0	1.48777	0.00068
0.0819	1.47958	0.00068
0.1282	1.47489	0.00068
0.2087	1.46761	0.00068
0.2898	1.46073	0.00068
0.4018	1.45171	0.00068
0.5047	1.44414	0.00068
0.6058	1.43724	0.00068
0.7	1.43118	0.00068
0.7989	1.42538	0.00068
0.9059	1.41966	0.00068
0.9505	1.41753	0.00068
1	1.41513	0.00068

System: benzene + cyclohexane; phases: Liquid
Fixed: Temperature, K = 313.15
Fixed: Pressure, kPa = 101
Property: Speed of sound, m/s (Liquid); method: Vibrating Tube Densimeter
Mole fraction of cyclohexane	Speed of sound, m/s	uncertainty
0	1230.5	2.1
0.0819	1218.9	2.1
0.1282	1213.2	2.1
0.2087	1204.5	2.1
0.2898	1197	2.1
0.4018	1188.6	2.1
0.5047	1183.3	2.1
0.6058	1179.8	2.1
0.7	1177.7	2.1
0.7989	1177.3	2.1
0.9059	1178.6	2.1
0.9505	1179.7	2.1
1	1181.7	2.1

System: benzene + cyclohexane; phases: Liquid
Fixed: Temperature, K = 313.15
Fixed: Pressure, kPa = 101
Property: Mass density, kg/m3 (Liquid); method: Vibrating tube method
Mole fraction of cyclohexane	Mass density, kg/m3	uncertainty
0	857.5	0.2
0.0819	846.2	0.2
0.1282	840.2	0.2
0.2087	830.1	0.2
0.2898	820.5	0.2
0.4018	808.5	0.2
0.5047	798.3	0.2
0.6058	789.1	0.2
0.7	780.9	0.2
0.7989	773.2	0.2
0.9059	765.7	0.2
0.9505	762.7	0.2
1	759.6	0.2

System: toluene + cyclohexane; phases: Liquid
Fixed: Temperature, K = 313.15
Fixed: Pressure, kPa = 101
Property: Refractive index (Na D-line) (Liquid); method: Standard Abbe refractometry
Mole fraction of cyclohexane	Refractive index (Na D-line)	uncertainty
0	1.48509	0.00068
0.0377	1.48212	0.00068
0.0967	1.47761	0.00068
0.1945	1.47007	0.00068
0.2433	1.46621	0.00068
0.3985	1.45475	0.00068
0.5672	1.44276	0.00068
0.5965	1.44073	0.00068
0.7019	1.43356	0.00068
0.7958	1.4276	0.00068
0.9011	1.42097	0.00068
0.95	1.41807	0.00068
1	1.41513	0.00068

System: toluene + cyclohexane; phases: Liquid
Fixed: Temperature, K = 313.15
Fixed: Pressure, kPa = 101
Property: Speed of sound, m/s (Liquid); method: Vibrating Tube Densimeter
Mole fraction of cyclohexane	Speed of sound, m/s	uncertainty
0	1240.9	2.1
0.0377	1236.8	2.1
0.0967	1230	2.1
0.1945	1220.1	2.1
0.2433	1215.4	2.1
0.3985	1202.3	2.1
0.5672	1191.4	2.1
0.5965	1189.8	2.1
0.7019	1185.1	2.1
0.7958	1182.2	2.1
0.9011	1181.2	2.1
0.95	1180.9	2.1
1	1181.7	2.1

System: toluene + cyclohexane; phases: Liquid
Fixed: Temperature, K = 313.15
Fixed: Pressure, kPa = 101
Property: Mass density, kg/m3 (Liquid); method: Vibrating tube method
Mole fraction of cyclohexane	Mass density, kg/m3	uncertainty
0	848.2	0.2
0.0377	844.4	0.2
0.0967	838.2	0.2
0.1945	828.5	0.2
0.2433	823.4	0.2
0.3985	808.6	0.2
0.5672	793.4	0.2
0.5965	790.9	0.2
0.7019	781.9	0.2
0.7958	774.4	0.2
0.9011	766.5	0.2
0.95	763	0.2
1	759.6	0.2

System: ethylbenzene + cyclohexane; phases: Liquid
Fixed: Temperature, K = 313.15
Fixed: Pressure, kPa = 101
Property: Refractive index (Na D-line) (Liquid); method: Standard Abbe refractometry
Mole fraction of cyclohexane	Refractive index (Na D-line)	uncertainty
0	1.48538	0.00068
0.0515	1.4814	0.00068
0.0976	1.47828	0.00068
0.2494	1.46788	0.00068
0.3647	1.45999	0.00068
0.3855	1.45831	0.00068
0.5028	1.45026	0.00068
0.6009	1.44349	0.00068
0.7005	1.43614	0.00068
0.7976	1.42925	0.00068
0.9017	1.42208	0.00068
0.9504	1.41865	0.00068
1	1.41513	0.00068

System: ethylbenzene + cyclohexane; phases: Liquid
Fixed: Temperature, K = 313.15
Fixed: Pressure, kPa = 101
Property: Speed of sound, m/s (Liquid); method: Vibrating Tube Densimeter
Mole fraction of cyclohexane	Speed of sound, m/s	uncertainty
0	1257.3	2.1
0.0515	1251.8	2.1
0.0976	1247	2.1
0.2494	1231.8	2.1
0.3647	1221.3	2.1
0.3855	1219.3	2.1
0.5028	1209.4	2.1
0.6009	1201.9	2.1
0.7005	1195	2.1
0.7976	1189.2	2.1
0.9017	1184.5	2.1
0.9504	1182.8	2.1
1	1181.7	2.1

System: ethylbenzene + cyclohexane; phases: Liquid
Fixed: Temperature, K = 313.15
Fixed: Pressure, kPa = 101
Property: Mass density, kg/m3 (Liquid); method: Vibrating tube method
Mole fraction of cyclohexane	Mass density, kg/m3	uncertainty
0	849.3	0.2
0.0515	844.7	0.2
0.0976	840.5	0.2
0.2494	826.7	0.2
0.3647	816.2	0.2
0.3855	814.3	0.2
0.5028	803.6	0.2
0.6009	794.6	0.2
0.7005	785.6	0.2
0.7976	776.9	0.2
0.9017	768	0.2
0.9504	763.8	0.2
1	759.6	0.2

System: benzene + methylcyclohexane; phases: Liquid
Fixed: Temperature, K = 313.15
Fixed: Pressure, kPa = 101
Property: Refractive index (Na D-line) (Liquid); method: Standard Abbe refractometry
Mole fraction of methylcyclohexane	Refractive index (Na D-line)	uncertainty
0	1.48777	0.00068
0.0486	1.48201	0.00068
0.0982	1.47621	0.00068
0.1995	1.46566	0.00068
0.2999	1.45619	0.00068
0.4038	1.44745	0.00068
0.4998	1.44043	0.00069
0.612	1.43297	0.00069
0.7053	1.42729	0.00069
0.7994	1.42214	0.0007
0.8991	1.41728	0.0007
0.953	1.4148	0.0007
1	1.41272	0.0007

System: benzene + methylcyclohexane; phases: Liquid
Fixed: Temperature, K = 313.15
Fixed: Pressure, kPa = 101
Property: Speed of sound, m/s (Liquid); method: Vibrating Tube Densimeter
Mole fraction of methylcyclohexane	Speed of sound, m/s	uncertainty
0	1230.5	2.1
0.0486	1220.3	2.1
0.0982	1211.2	2.1
0.1995	1195.3	2.1
0.2999	1182.5	2.1
0.4038	1172	2.1
0.4998	1164.6	2.1
0.612	1158.1	2.2
0.7053	1154.2	2.2
0.7994	1151.5	2.2
0.8991	1149.9	2.3
0.953	1149.5	2.3
1	1149.6	2.3

System: benzene + methylcyclohexane; phases: Liquid
Fixed: Temperature, K = 313.15
Fixed: Pressure, kPa = 101
Property: Mass density, kg/m3 (Liquid); method: Vibrating tube method
Mole fraction of methylcyclohexane	Mass density, kg/m3	uncertainty
0	857.5	0.2
0.0486	849.3	0.3
0.0982	841.3	0.2
0.1995	826.7	0.3
0.2999	813.5	0.3
0.4038	801.3	0.3
0.4998	791.3	0.3
0.612	780.7	0.3
0.7053	772.6	0.3
0.7994	765.3	0.3
0.8991	758.4	0.3
0.953	754.8	0.3
1	752	0.3

System: methylcyclohexane + toluene; phases: Liquid
Fixed: Temperature, K = 313.15
Fixed: Pressure, kPa = 101
Property: Refractive index (Na D-line) (Liquid); method: Standard Abbe refractometry
Mole fraction of methylcyclohexane	Refractive index (Na D-line)	uncertainty
0	1.48509	0.00068
0.0488	1.48065	0.00068
0.0977	1.4763	0.00068
0.1967	1.4675	0.00068
0.2969	1.45909	0.00068
0.3751	1.45314	0.00068
0.5049	1.44348	0.00069
0.5986	1.43702	0.00069
0.7022	1.43008	0.00069
0.8016	1.42397	0.0007
0.9003	1.41817	0.0007
0.9487	1.41549	0.0007
1	1.41272	0.0007

System: methylcyclohexane + toluene; phases: Liquid
Fixed: Temperature, K = 313.15
Fixed: Pressure, kPa = 101
Property: Speed of sound, m/s (Liquid); method: Vibrating Tube Densimeter
Mole fraction of methylcyclohexane	Speed of sound, m/s	uncertainty
0	1240.9	2.1
0.0488	1233.3	2.1
0.0977	1226	2.1
0.1967	1212.4	2.1
0.2969	1200.1	2.1
0.3751	1191.7	2.1
0.5049	1179.2	2.1
0.5986	1171.5	2.2
0.7022	1164	2.2
0.8016	1158.1	2.2
0.9003	1153.2	2.3
0.9487	1151.2	2.3
1	1149.6	2.3

System: methylcyclohexane + toluene; phases: Liquid
Fixed: Temperature, K = 313.15
Fixed: Pressure, kPa = 101
Property: Mass density, kg/m3 (Liquid); method: Vibrating tube method
Mole fraction of methylcyclohexane	Mass density, kg/m3	uncertainty
0	848.2	0.2
0.0488	842.1	0.2
0.0977	836.1	0.2
0.1967	824.6	0.2
0.2969	813.6	0.3
0.3751	805.5	0.3
0.5049	792.7	0.3
0.5986	784	0.3
0.7022	774.9	0.3
0.8016	766.8	0.3
0.9003	759.1	0.3
0.9487	755.5	0.3
1	752	0.3

System: ethylbenzene + methylcyclohexane; phases: Liquid
Fixed: Temperature, K = 313.15
Fixed: Pressure, kPa = 101
Property: Refractive index (Na D-line) (Liquid); method: Standard Abbe refractometry
Mole fraction of methylcyclohexane	Refractive index (Na D-line)	uncertainty
0	1.48538	0.00068
0.0509	1.48108	0.00068
0.0975	1.4774	0.00068
0.1957	1.46965	0.00068
0.2794	1.46339	0.00068
0.4006	1.45428	0.00068
0.4962	1.44736	0.00069
0.5977	1.44003	0.00069
0.6968	1.43303	0.00069
0.7988	1.42601	0.0007
0.8973	1.41941	0.0007
0.9483	1.41609	0.0007
1	1.41272	0.0007

System: ethylbenzene + methylcyclohexane; phases: Liquid
Fixed: Temperature, K = 313.15
Fixed: Pressure, kPa = 101
Property: Speed of sound, m/s (Liquid); method: Vibrating Tube Densimeter
Mole fraction of methylcyclohexane	Speed of sound, m/s	uncertainty
0	1257.3	2.1
0.0509	1249.9	2.1
0.0975	1243.4	2.1
0.1957	1230.3	2.1
0.2794	1219.8	2.1
0.4006	1205.4	2.1
0.4962	1194.9	2.1
0.5977	1184.5	2.2
0.6968	1174.9	2.2
0.7988	1165.7	2.2
0.8973	1157.5	2.3
0.9483	1153.5	2.3
1	1149.6	2.3

System: ethylbenzene + methylcyclohexane; phases: Liquid
Fixed: Temperature, K = 313.15
Fixed: Pressure, kPa = 101
Property: Mass density, kg/m3 (Liquid); method: Vibrating tube method
Mole fraction of methylcyclohexane	Mass density, kg/m3	uncertainty
0	849.3	0.2
0.0509	843.8	0.2
0.0975	838.9	0.2
0.1957	828.6	0.2
0.2794	820	0.2
0.4006	807.9	0.3
0.4962	798.4	0.3
0.5977	788.6	0.3
0.6968	779.2	0.3
0.7988	769.7	0.3
0.8973	760.9	0.3
0.9483	756.4	0.3
1	752	0.3
