Measured thermophysical data. Solubility of (+)-(S)-2-(6-Methoxynaphthalen-2-yl) Propanoic Acid in Acetone, Methanol, Ethanol, Propan-2-ol, and Ethyl Ethanoate at Temperatures between (278 and 320) K
Source: J. Chem. Eng. Data, 2009, 10.1021/je8008039
Compound 1: (S)-(+)-naproxen, C14H14O3, InChI=1S/C14H14O3/c1-9(14(15)16)10-3-4-12-8-13(17-2)6-5-11(12)7-10/h3-9H,1-2H3,(H,15,16)/t9-/m0/s1
Compound 2: acetone, C3H6O, InChI=1S/C3H6O/c1-3(2)4/h1-2H3, purity 99.8%
Compound 3: methanol, CH4O, InChI=1S/CH4O/c1-2/h2H,1H3, purity 99.8%
Compound 4: ethanol, C2H6O, InChI=1S/C2H6O/c1-2-3/h3H,2H2,1H3, purity 99.8%
Compound 5: ethyl acetate, C4H8O2, InChI=1S/C4H8O2/c1-3-6-4(2)5/h3H2,1-2H3, purity 99.8%
Compound 6: propan-2-ol, C3H8O, InChI=1S/C3H8O/c1-3(2)4/h3-4H,1-2H3, purity 99.8%

System: (S)-(+)-naproxen; phases: Crystal, Liquid, Air at 1 atmosphere
Property: Normal melting temperature, K (Crystal); method: VISOBS
Normal melting temperature, K	uncertainty
428	1.1

System: acetone + (S)-(+)-naproxen; phases: Liquid, Crystal
Fixed: Pressure, kPa = 101
Property: Mole fraction of (S)-(+)-naproxen (Liquid); method: Laster monitoring observation technique
Temperature, K	Mole fraction of (S)-(+)-naproxen	uncertainty
278.25	0.000946	3.9e-05
283.6	0.001374	5.7e-05
288.3	0.001645	6.8e-05
293.05	0.002162	8.9e-05
298.45	0.002811	0.000116
303.2	0.003617	0.000149
308.7	0.00459	0.000189
313.45	0.005919	0.000244
318.1	0.007206	0.000297
320.15	0.008403	0.000349

System: propan-2-ol + (S)-(+)-naproxen; phases: Liquid, Crystal
Fixed: Pressure, kPa = 101
Property: Mole fraction of (S)-(+)-naproxen (Liquid); method: Laster monitoring observation technique
Temperature, K	Mole fraction of (S)-(+)-naproxen	uncertainty
278.15	0.005232	0.000215
283.6	0.006644	0.000273
288.35	0.00803	0.000329
293.75	0.00975	0.0004
298.5	0.01181	0.00048
303.25	0.01427	0.00059
308.65	0.01769	0.00073
313.4	0.02118	0.00087
318.8	0.02592	0.00106
320.15	0.02724	0.00112

System: methanol + (S)-(+)-naproxen; phases: Liquid, Crystal
Fixed: Pressure, kPa = 101
Property: Mole fraction of (S)-(+)-naproxen (Liquid); method: Laster monitoring observation technique
Temperature, K	Mole fraction of (S)-(+)-naproxen	uncertainty
278.2	0.006123	0.000263
283.6	0.007293	0.000314
288.15	0.008746	0.000376
293.1	0.01049	0.00045
298.15	0.01257	0.00054
303.9	0.0154	0.00066
308.65	0.01835	0.00079
313.4	0.02159	0.00093
318.8	0.02549	0.0011
320.15	0.02734	0.00118

System: ethanol + (S)-(+)-naproxen; phases: Liquid, Crystal
Fixed: Pressure, kPa = 101
Property: Mole fraction of (S)-(+)-naproxen (Liquid); method: Laster monitoring observation technique
Temperature, K	Mole fraction of (S)-(+)-naproxen	uncertainty
278.15	0.004872	0.000203
283.7	0.006067	0.000253
288.15	0.007569	0.000315
293.1	0.009228	0.000384
298.5	0.01178	0.00049
303.25	0.0143	0.00059
308.65	0.01719	0.00072
313.4	0.02119	0.00088
318.8	0.02461	0.00105
320.15	0.02793	0.00118

System: ethyl acetate + (S)-(+)-naproxen; phases: Liquid, Crystal
Fixed: Pressure, kPa = 101
Property: Mole fraction of (S)-(+)-naproxen (Liquid); method: Laster monitoring observation technique
Temperature, K	Mole fraction of (S)-(+)-naproxen	uncertainty
278.2	0.01447	0.00059
283.45	0.01716	0.0007
288.15	0.01964	0.0008
293.1	0.02294	0.00093
298.5	0.0271	0.0011
303.25	0.03065	0.00124
308.65	0.03603	0.00146
313.7	0.04149	0.00168
318.7	0.04756	0.00193
320.1	0.04986	0.00202
