Measured thermophysical data. Thermal Conductivity of Liquid Dimethyl Ether from (233 to 373) K at Pressures up to 30 MPa
Source: J. Chem. Eng. Data, 2009, 10.1021/je800964k
Compound 1: dimethyl ether, C2H6O, InChI=1S/C2H6O/c1-3-2/h1-2H3, purity 99.9%

System: dimethyl ether; phases: Liquid
Property: Thermal conductivity, W/m/K (Liquid); method: Hot wire method
Temperature, K	Pressure, kPa	Thermal conductivity, W/m/K	uncertainty
234.04	5100	0.1561	0.0033
234.2	600	0.1534	0.0031
234.29	600	0.153	0.0031
234.33	10000	0.16	0.0033
234.43	29800	0.1704	0.0035
234.44	30000	0.1709	0.0035
234.58	600	0.1538	0.0031
234.66	5300	0.1568	0.0033
234.7	20200	0.1655	0.0034
234.71	10400	0.1605	0.0033
234.72	5300	0.1562	0.0032
234.79	30100	0.1703	0.0035
235	20100	0.1654	0.0034
235.27	20200	0.1655	0.0034
235.32	10700	0.1598	0.0033
253.99	10200	0.1528	0.0031
254.02	600	0.1422	0.0029
254.11	20400	0.1582	0.0032
254.12	30200	0.1633	0.0033
254.16	600	0.1427	0.0029
254.2	20100	0.1579	0.0032
254.22	10400	0.1529	0.0031
254.34	30300	0.1643	0.0033
254.37	20100	0.1583	0.0032
254.42	600	0.1427	0.0029
254.42	5100	0.1467	0.003
254.81	10100	0.1522	0.0031
254.88	5100	0.1466	0.003
255.08	5000	0.1471	0.003
257.35	29900	0.164	0.0033
273.93	5000	0.1396	0.0029
274.08	5100	0.1396	0.0029
274.48	5000	0.1404	0.0029
274.56	29800	0.1585	0.0032
274.57	30400	0.1579	0.0032
274.6	20000	0.1523	0.0031
274.9	10500	0.1456	0.003
274.9	20300	0.1522	0.0031
275.12	20300	0.1523	0.0031
275.22	10200	0.1452	0.003
275.3	30600	0.1582	0.0032
275.31	700	0.1342	0.0028
275.74	700	0.1343	0.0028
276.02	10500	0.1459	0.003
276.44	700	0.1347	0.0028
293.79	5100	0.1305	0.0027
293.8	800	0.1249	0.0026
294.15	800	0.1252	0.0026
294.16	10000	0.1362	0.0028
294.22	10200	0.1364	0.0028
294.3	29800	0.1495	0.003
294.45	800	0.1248	0.0026
294.45	4900	0.1305	0.0027
294.59	29900	0.1486	0.003
294.68	20600	0.1417	0.0029
294.84	5200	0.1307	0.0027
295.13	20300	0.1417	0.0029
295.22	10000	0.1356	0.0028
296.32	20200	0.1415	0.0029
314.01	5100	0.1191	0.0024
314.06	1000	0.1143	0.0023
314.11	5200	0.1189	0.0024
314.39	1000	0.1145	0.0024
314.39	5100	0.1195	0.0024
314.43	10200	0.1242	0.0025
314.6	30100	0.1385	0.0028
314.66	1000	0.1137	0.0023
314.81	10200	0.1241	0.0025
314.88	30000	0.1382	0.0028
315.01	20400	0.1313	0.0027
315.06	10100	0.1242	0.0025
315.07	20100	0.1318	0.0027
315.37	30400	0.1384	0.0028
315.55	20000	0.1318	0.0027
333.73	1500	0.1079	0.0022
333.92	5200	0.1113	0.0023
334.03	1500	0.1075	0.0022
334.09	30000	0.1283	0.0028
334.31	20200	0.1229	0.0025
334.38	30100	0.1287	0.0027
334.47	1500	0.1078	0.0022
334.55	5100	0.1108	0.0023
334.7	10200	0.1156	0.0024
334.79	20200	0.1224	0.0025
334.85	5200	0.1116	0.0023
334.9	30200	0.1288	0.0027
334.91	10200	0.1154	0.0024
335.09	30400	0.1294	0.0027
335.29	20100	0.1228	0.0025
335.37	10100	0.1151	0.0024
335.72	20000	0.1223	0.0025
335.76	10300	0.1146	0.0023
353.73	10300	0.1059	0.0022
353.93	30500	0.1206	0.0025
353.97	30100	0.1208	0.0025
354.06	10200	0.1053	0.0022
354.1	20400	0.1145	0.0023
354.15	5800	0.0998	0.0021
354.21	2300	0.0973	0.002
354.29	5300	0.1005	0.0021
354.45	2300	0.097	0.002
354.59	30100	0.1208	0.0025
354.86	2300	0.0971	0.002
354.97	5200	0.1	0.0021
355.08	20000	0.1141	0.0023
355.18	2300	0.0971	0.002
355.36	20100	0.1142	0.0023
355.46	5200	0.1012	0.0021
374.25	10700	0.0988	0.002
374.25	20500	0.1071	0.0022
374.3	30400	0.1129	0.0023
374.62	30300	0.1133	0.0023
374.81	29900	0.1135	0.0023
374.85	3300	0.0871	0.0018
374.85	5100	0.0908	0.0019
374.91	5000	0.0908	0.0019
375.13	3300	0.0869	0.0019
375.27	5000	0.0911	0.0019
375.38	3300	0.0867	0.0018
375.68	20200	0.1065	0.0022
376.02	20000	0.1065	0.0022
376.38	10600	0.0976	0.002
