Measured thermophysical data. Vapor Liquid Equilibrium for the Systems 2-Methylpropane + Methanol, + 2-Propanol, + 2-Butanol, and + 2-Methyl-2-propanol at 364.5 K
Source: J. Chem. Eng. Data, 2008, 10.1021/je800021r
Compound 1: 2-methylpropane, C4H10, InChI=1S/C4H10/c1-4(2)3/h4H,1-3H3
Compound 2: methanol, CH4O, InChI=1S/CH4O/c1-2/h2H,1H3
Compound 3: propan-2-ol, C3H8O, InChI=1S/C3H8O/c1-3(2)4/h3-4H,1-2H3
Compound 4: butan-2-ol, C4H10O, InChI=1S/C4H10O/c1-3-4(2)5/h4-5H,3H2,1-2H3
Compound 5: 2-methylpropan-2-ol, C4H10O, InChI=1S/C4H10O/c1-4(2,3)5/h5H,1-3H3

System: 2-methylpropane; phases: Liquid, Gas
Property: Vapor or sublimation pressure, kPa (Liquid); method: Ebulliometric method (Recirculating still)
Temperature, K	Vapor or sublimation pressure, kPa	uncertainty
364.5	1685.6	7.4
364.51	1686.4	7.4
364.51	1686.3	7.4
364.52	1686.3	7.4

System: methanol; phases: Liquid, Gas
Property: Vapor or sublimation pressure, kPa (Liquid); method: Ebulliometric method (Recirculating still)
Temperature, K	Vapor or sublimation pressure, kPa	uncertainty
364.51	267.5	1.8

System: propan-2-ol; phases: Liquid, Gas
Property: Vapor or sublimation pressure, kPa (Liquid); method: Ebulliometric method (Recirculating still)
Temperature, K	Vapor or sublimation pressure, kPa	uncertainty
364.51	144.2	1.5

System: butan-2-ol; phases: Liquid, Gas
Property: Vapor or sublimation pressure, kPa (Liquid); method: Ebulliometric method (Recirculating still)
Temperature, K	Vapor or sublimation pressure, kPa	uncertainty
364.51	74.1	1.4

System: 2-methylpropan-2-ol; phases: Liquid, Gas
Property: Vapor or sublimation pressure, kPa (Liquid); method: Ebulliometric method (Recirculating still)
Temperature, K	Vapor or sublimation pressure, kPa	uncertainty
364.5	142.6	1.5

System: propan-2-ol + 2-methylpropane; phases: Liquid, Gas
Property: Vapor or sublimation pressure, kPa (Liquid); method: Ebulliometric method (Recirculating still)
Temperature, K	Mole fraction of 2-methylpropane	Vapor or sublimation pressure, kPa	uncertainty
364.5	0.0927	553.3	16.3
364.5	0.186	840.2	18.9
364.5	0.9474	1654.8	7.6
364.5	0.9691	1669.2	7.5
364.51	0	144.2	1.5
364.51	0.0323	304.2	10
364.51	0.0494	380.4	12.7
364.51	0.1382	705.9	18.1
364.51	0.2348	954.2	17
364.51	0.2862	1054.7	18.6
364.51	0.3898	1210	13.6
364.51	0.4429	1272.5	13.1
364.51	0.4955	1326.2	8.7
364.51	0.4975	1325	8.7
364.51	0.594	1409.7	10.3
364.51	0.6421	1446.6	10
364.51	0.6915	1482.4	9.6
364.51	0.7419	1517.2	9.1
364.51	0.8435	1585.4	8.3
364.51	0.8942	1619.5	7.9
364.51	0.9776	1674.4	7.4
364.51	0.9891	1680.7	7.4
364.51	1	1686.3	7.4
364.52	0.0152	221.8	7.1
364.52	0.3375	1138.2	15.8
364.52	0.5454	1369.4	11.4
364.52	0.7918	1551.3	8.7

System: 2-methylpropane + butan-2-ol; phases: Liquid, Gas
Property: Vapor or sublimation pressure, kPa (Liquid); method: Ebulliometric method (Recirculating still)
Temperature, K	Mole fraction of 2-methylpropane	Vapor or sublimation pressure, kPa	uncertainty
364.51	0	74.1	1.4
364.51	0.0517	272.4	10.2
364.51	0.0975	426.4	14.7
364.51	0.142	558	16.3
364.51	0.1899	682.3	17.8
364.51	0.2388	794	19.5
364.51	0.3924	1061.7	14.7
364.51	0.4447	1132	14.6
364.51	0.4968	1193.9	10.5
364.51	0.4981	1192.8	10.5
364.51	0.5931	1291.9	11.6
364.51	0.6414	1336.9	11.1
364.51	0.6903	1379.9	10.5
364.51	0.79	1463.5	9.4
364.51	0.8414	1507.2	8.9
364.51	0.8929	1554.2	8.3
364.51	0.9782	1653.8	7.8
364.51	0.989	1669.7	7.6
364.52	0.0343	208.5	3.9
364.52	0.2891	893.8	16.5
364.52	0.3407	983.4	17.9
364.52	0.5453	1244.3	12.5
364.52	0.7399	1421.9	9.9
364.52	0.9447	1609.8	8.2
364.52	0.9676	1639	7.8
364.52	1	1686.3	7.4
364.53	0.0181	146.5	1.5

System: methanol + 2-methylpropane; phases: Liquid, Gas
Property: Azeotropic pressure, kPa (Liquid); method: By P(X) extreme
Temperature, K	Azeotropic pressure, kPa	uncertainty
364.51	1821.8	8.6

System: methanol + 2-methylpropane; phases: Liquid, Gas
Property: Azeotropic composition: mole fraction of 2-methylpropane (Liquid); method: By T or P extreme
Temperature, K	Azeotropic composition: mole fraction of 2-methylpropane	uncertainty
364.51	0.871	0.003

System: methanol + 2-methylpropane; phases: Liquid, Gas
Property: Vapor or sublimation pressure, kPa (Liquid); method: Ebulliometric method (Recirculating still)
Temperature, K	Mole fraction of 2-methylpropane	Vapor or sublimation pressure, kPa	uncertainty
364.5	0.7473	1802.4	8.1
364.5	0.8497	1819.7	8
364.5	0.9007	1822.4	8
364.51	0	267.5	1.8
364.51	0.011	421.8	17
364.51	0.0726	1029.7	23.6
364.51	0.1139	1269.1	32.9
364.51	0.3249	1686.6	9.2
364.51	0.3815	1716.7	8.9
364.51	0.4378	1737.1	8.4
364.51	0.493	1753	7.8
364.51	0.4969	1752.5	7.8
364.51	0.5453	1763.7	8.1
364.51	0.595	1773.8	8.1
364.51	0.6446	1783.3	8.1
364.51	0.6962	1792.9	8.1
364.51	0.7976	1811.7	8.1
364.51	0.9518	1802.5	9.4
364.51	0.9709	1773.8	9.3
364.51	0.9821	1746.9	9.6
364.51	1	1686.4	7.4
364.52	0.0227	569.7	20
364.52	0.0363	719.3	26.6
364.52	0.1612	1445	17.2
364.52	0.2128	1563	16.3
364.52	0.2681	1638.9	14.8
364.52	0.9902	1721.4	10.1

System: 2-methylpropane + 2-methylpropan-2-ol; phases: Liquid, Gas
Property: Vapor or sublimation pressure, kPa (Liquid); method: Ebulliometric method (Recirculating still)
Temperature, K	Mole fraction of 2-methylpropane	Vapor or sublimation pressure, kPa	uncertainty
364.5	0	142.6	1.5
364.5	0.1902	673.9	15.6
364.5	0.2384	776	17.2
364.5	0.2873	869.2	17.1
364.5	0.3389	957.6	17.6
364.5	0.4964	1174.8	5.2
364.5	0.544	1231.4	14.2
364.5	0.7387	1430.5	10.7
364.5	0.9885	1673.1	7.5
364.5	1	1685.6	7.4
364.51	0.0158	196.8	5.5
364.51	0.0334	254.5	7.3
364.51	0.0503	307.7	8.5
364.51	0.097	443	12.9
364.51	0.1424	562	16
364.51	0.3907	1038	15.4
364.51	0.4433	1112.3	15.3
364.51	0.4953	1178.8	5.2
364.51	0.5917	1284.6	12.6
364.51	0.6405	1335.7	12.1
364.51	0.6893	1383.5	11.5
364.51	0.7896	1477.4	9.8
364.51	0.8405	1524.1	9.2
364.51	0.8942	1574.6	8.4
364.51	0.9677	1649.9	7.7
364.51	0.9785	1661.8	7.6
364.52	0.9464	1627.2	7.9
