Measured thermophysical data. Isobaric Vapor-Liquid Equilibria for Tetrahydropyran and Alcohol Systems
Source: J. Chem. Eng. Data, 2008, 10.1021/je800145h
Compound 1: methanol, CH4O, InChI=1S/CH4O/c1-2/h2H,1H3, purity 99.9%
Compound 2: ethanol, C2H6O, InChI=1S/C2H6O/c1-2-3/h3H,2H2,1H3, purity 99.9%
Compound 3: propan-1-ol, C3H8O, InChI=1S/C3H8O/c1-2-3-4/h4H,2-3H2,1H3, purity 99.9%
Compound 4: propan-2-ol, C3H8O, InChI=1S/C3H8O/c1-3(2)4/h3-4H,1-2H3, purity 99.9%
Compound 5: butan-1-ol, C4H10O, InChI=1S/C4H10O/c1-2-3-4-5/h5H,2-4H2,1H3, purity 99.9%
Compound 6: butan-2-ol, C4H10O, InChI=1S/C4H10O/c1-3-4(2)5/h4-5H,3H2,1-2H3, purity 99%
Compound 7: 2-methyl-1-propanol, C4H10O, InChI=1S/C4H10O/c1-4(2)3-5/h4-5H,3H2,1-2H3, purity 99.9%
Compound 8: 2-methylpropan-2-ol, C4H10O, InChI=1S/C4H10O/c1-4(2,3)5/h5H,1-3H3, purity 99%
Compound 9: tetrahydropyran, C5H10O, InChI=1S/C5H10O/c1-2-4-6-5-3-1/h1-5H2, purity 99.6%

System: methanol; phases: Liquid, Gas
Property: Vapor or sublimation pressure, kPa (Liquid); method: EBULLIO:UFactor:2
Temperature, K	Vapor or sublimation pressure, kPa	uncertainty
315.75	40	0.42
322.15	53.33	0.46
327.34	66.66	0.56
331.73	79.99	0.65
335.57	93.32	0.71
336.98	98.66	0.76

System: ethanol; phases: Liquid, Gas
Property: Vapor or sublimation pressure, kPa (Liquid); method: EBULLIO:UFactor:2
Temperature, K	Vapor or sublimation pressure, kPa	uncertainty
329.62	40	0.42
335.99	53.33	0.46
341.2	66.66	0.55
345.6	79.99	0.65
349.42	93.32	0.71
350.82	98.66	0.76

System: propan-1-ol; phases: Liquid, Gas
Property: Vapor or sublimation pressure, kPa (Liquid); method: EBULLIO:UFactor:2
Temperature, K	Vapor or sublimation pressure, kPa	uncertainty
347.55	40	0.4
354.18	53.33	0.44
359.56	66.66	0.54
364.11	79.99	0.63
368.08	93.32	0.68
369.55	98.66	0.73

System: propan-2-ol; phases: Liquid, Gas
Property: Vapor or sublimation pressure, kPa (Liquid); method: EBULLIO:UFactor:2
Temperature, K	Vapor or sublimation pressure, kPa	uncertainty
333.94	40	0.43
340.18	53.33	0.47
345.25	66.66	0.57
349.55	79.99	0.66
353.3	93.32	0.73
354.67	98.66	0.78

System: butan-1-ol; phases: Liquid, Gas
Property: Vapor or sublimation pressure, kPa (Liquid); method: EBULLIO:UFactor:2
Temperature, K	Vapor or sublimation pressure, kPa	uncertainty
366.76	40	0.38
373.74	53.33	0.42
379.43	66.66	0.51
384.26	79.99	0.59
388.49	93.32	0.64
390.04	98.66	0.69

System: butan-2-ol; phases: Liquid, Gas
Property: Vapor or sublimation pressure, kPa (Liquid); method: EBULLIO:UFactor:2
Temperature, K	Vapor or sublimation pressure, kPa	uncertainty
349.73	40	0.41
356.36	53.33	0.45
361.77	66.66	0.54
366.36	79.99	0.62
370.38	93.32	0.68
371.86	98.66	0.73

System: 2-methyl-1-propanol; phases: Liquid, Gas
Property: Vapor or sublimation pressure, kPa (Liquid); method: EBULLIO:UFactor:2
Temperature, K	Vapor or sublimation pressure, kPa	uncertainty
357.45	40	0.4
364.17	53.33	0.44
369.67	66.66	0.52
374.35	79.99	0.61
378.45	93.32	0.66
379.96	98.66	0.71

System: 2-methylpropan-2-ol; phases: Liquid, Gas
Property: Vapor or sublimation pressure, kPa (Liquid); method: EBULLIO:UFactor:2
Temperature, K	Vapor or sublimation pressure, kPa	uncertainty
333.9	40	0.43
340.13	53.33	0.47
345.21	66.66	0.57
349.53	79.99	0.66
353.32	93.32	0.73
354.61	98.66	0.83

System: tetrahydropyran; phases: Liquid
Property: Mass density, kg/m3 (Liquid); method: Vibrating tube method
Temperature, K	Pressure, kPa	Mass density, kg/m3	uncertainty
298.15	101.325	879	1

System: tetrahydropyran; phases: Liquid, Gas
Property: Vapor or sublimation pressure, kPa (Liquid); method: EBULLIO:UFactor:2
Temperature, K	Vapor or sublimation pressure, kPa	uncertainty
332.98	40	0.33
341.09	53.33	0.36
347.72	66.66	0.43
353.38	79.99	0.5
358.37	93.32	0.55
360.22	98.66	0.56
361.23	101.32	0.53

System: methanol + tetrahydropyran; phases: Liquid, Gas
Property: Boiling temperature at pressure P, K (Liquid); method: EBULLIO:UFactor:2
Mole fraction of tetrahydropyran	Pressure, kPa	Boiling temperature at pressure P, K	uncertainty
0	40	315.75	0.19
0	53.33	322.15	0.21
0	66.66	327.34	0.21
0	79.99	331.73	0.22
0	93.32	335.57	0.23
0	98.66	336.98	0.22
0.0495	40	315.24	0.19
0.0495	53.33	321.7	0.22
0.0495	66.66	326.92	0.21
0.0495	79.99	331.34	0.22
0.0495	93.32	335.19	0.23
0.0495	98.66	336.6	0.24
0.0972	40	314.96	0.19
0.0972	53.33	321.46	0.22
0.0972	66.66	326.73	0.22
0.0972	79.99	331.19	0.22
0.0972	93.32	335.06	0.23
0.0972	98.66	336.49	0.23
0.1478	40	314.8	0.19
0.1478	53.33	321.33	0.22
0.1478	66.66	326.61	0.22
0.1478	79.99	331.08	0.22
0.1478	93.32	334.97	0.23
0.1478	98.66	336.4	0.23
0.1956	40	314.74	0.19
0.1956	53.33	321.31	0.22
0.1956	66.66	326.63	0.22
0.1956	79.99	331.13	0.22
0.1956	93.32	335.05	0.23
0.1956	98.66	336.48	0.23
0.2554	40	314.78	0.19
0.2554	53.33	321.4	0.22
0.2554	66.66	326.74	0.22
0.2554	79.99	331.25	0.22
0.2554	93.32	335.18	0.23
0.2554	98.66	336.63	0.24
0.3108	40	314.93	0.19
0.3108	53.33	321.59	0.22
0.3108	66.66	326.98	0.22
0.3108	79.99	331.53	0.22
0.3108	93.32	335.5	0.24
0.3108	98.66	336.96	0.23
0.4101	40	315.31	0.19
0.4101	53.33	322.03	0.22
0.4101	66.66	327.47	0.22
0.4101	79.99	332.08	0.23
0.4101	93.32	336.1	0.24
0.4101	98.66	337.57	0.26
0.5136	40	316.02	0.2
0.5136	53.33	322.87	0.23
0.5136	66.66	328.4	0.23
0.5136	79.99	333.08	0.23
0.5136	93.32	337.16	0.24
0.5136	98.66	338.66	0.26
0.6073	40	316.94	0.2
0.6073	53.33	323.93	0.23
0.6073	66.66	329.58	0.23
0.6073	79.99	334.36	0.24
0.6073	93.32	338.56	0.25
0.6073	98.66	340.1	0.27
0.7108	40	318.4	0.2
0.7108	53.33	325.53	0.24
0.7108	66.66	331.46	0.24
0.7108	79.99	336.34	0.24
0.7108	93.32	340.62	0.26
0.7108	98.66	342.18	0.34
0.8032	40	320.77	0.2
0.8032	53.33	328.16	0.25
0.8032	66.66	334.24	0.25
0.8032	79.99	339.39	0.25
0.8032	93.32	343.94	0.28
0.8032	98.66	345.63	0.36
0.9022	40	324.93	0.19
0.9022	53.33	332.76	0.26
0.9022	66.66	339.05	0.26
0.9022	79.99	344.48	0.27
0.9022	93.32	349.28	0.31
0.9022	98.66	351.07	0.48
1	40	332.98	0.24
1	53.33	341.09	0.27
1	66.66	347.72	0.28
1	79.99	353.38	0.28
1	93.32	358.37	0.3
1	98.66	360.22	0.29

System: ethanol + tetrahydropyran; phases: Liquid, Gas
Property: Boiling temperature at pressure P, K (Liquid); method: EBULLIO:UFactor:2
Mole fraction of tetrahydropyran	Pressure, kPa	Boiling temperature at pressure P, K	uncertainty
0	40	329.62	0.19
0	53.33	335.99	0.21
0	66.66	341.2	0.21
0	79.99	345.6	0.22
0	93.32	349.42	0.23
0	98.66	350.82	0.22
0.0966	40	328.07	0.19
0.0966	53.33	334.67	0.22
0.0966	66.66	340	0.22
0.0966	79.99	344.5	0.22
0.0966	93.32	348.41	0.23
0.0966	98.66	349.86	0.25
0.1959	40	326.93	0.19
0.1959	53.33	333.66	0.22
0.1959	66.66	339.1	0.22
0.1959	79.99	343.71	0.23
0.1959	93.32	347.71	0.24
0.1959	98.66	349.2	0.26
0.2915	40	326.35	0.2
0.2915	53.33	333.21	0.23
0.2915	66.66	338.75	0.23
0.2915	79.99	343.43	0.23
0.2915	93.32	347.5	0.24
0.2915	98.66	349	0.24
0.3551	40	326.16	0.2
0.3551	53.33	333.04	0.23
0.3551	66.66	338.6	0.23
0.3551	79.99	343.3	0.23
0.3551	93.32	347.4	0.24
0.3551	98.66	348.91	0.25
0.4069	40	326.02	0.2
0.4069	53.33	332.97	0.23
0.4069	66.66	338.6	0.23
0.4069	79.99	343.36	0.23
0.4069	93.32	347.51	0.25
0.4069	98.66	349.04	0.24
0.4562	40	326.01	0.2
0.4562	53.33	332.99	0.23
0.4562	66.66	338.64	0.23
0.4562	79.99	343.43	0.24
0.4562	93.32	347.61	0.25
0.4562	98.66	349.14	0.25
0.5074	40	326.02	0.2
0.5074	53.33	333.08	0.24
0.5074	66.66	338.8	0.24
0.5074	79.99	343.65	0.24
0.5074	93.32	347.87	0.25
0.5074	98.66	349.43	0.25
0.6061	40	326.24	0.21
0.6061	53.33	333.43	0.24
0.6061	66.66	339.25	0.24
0.6061	79.99	344.19	0.24
0.6061	93.32	348.51	0.26
0.6061	98.66	350.1	0.27
0.7069	40	326.78	0.21
0.7069	53.33	334.12	0.25
0.7069	66.66	340.08	0.25
0.7069	79.99	345.14	0.25
0.7069	93.32	349.57	0.27
0.7069	98.66	351.21	0.3
0.799	40	327.78	0.21
0.799	53.33	335.28	0.25
0.799	66.66	341.42	0.25
0.799	79.99	346.64	0.26
0.799	93.32	351.22	0.28
0.799	98.66	352.92	0.32
0.9022	40	329.63	0.21
0.9022	53.33	337.45	0.26
0.9022	66.66	343.84	0.26
0.9022	79.99	349.29	0.27
0.9022	93.32	354.09	0.3
0.9022	98.66	355.87	0.37
1	40	332.98	0.24
1	53.33	341.09	0.27
1	66.66	347.72	0.28
1	79.99	353.38	0.28
1	93.32	358.37	0.3
1	98.66	360.22	0.29

System: propan-1-ol + tetrahydropyran; phases: Liquid, Gas
Property: Boiling temperature at pressure P, K (Liquid); method: EBULLIO:UFactor:2
Mole fraction of tetrahydropyran	Pressure, kPa	Boiling temperature at pressure P, K	uncertainty
0	40	347.55	0.19
0	53.33	354.18	0.22
0	66.66	359.56	0.22
0	79.99	364.11	0.22
0	93.32	368.08	0.23
0	98.66	369.55	0.23
0.0969	40	344.74	0.2
0.0969	53.33	351.67	0.23
0.0969	66.66	357.28	0.23
0.0969	79.99	362.02	0.23
0.0969	93.32	366.14	0.24
0.0969	98.66	367.64	0.25
0.1946	40	342.2	0.21
0.1946	53.33	349.38	0.24
0.1946	66.66	355.19	0.24
0.1946	79.99	360.08	0.24
0.1946	93.32	364.34	0.25
0.1946	98.66	365.9	0.26
0.2936	40	340.01	0.21
0.2936	53.33	347.37	0.25
0.2936	66.66	353.32	0.24
0.2936	79.99	358.34	0.25
0.2936	93.32	362.7	0.26
0.2936	98.66	364.31	0.27
0.3945	40	338.24	0.22
0.3945	53.33	345.76	0.25
0.3945	66.66	351.84	0.25
0.3945	79.99	356.96	0.25
0.3945	93.32	361.41	0.26
0.3945	98.66	363.05	0.27
0.5058	40	336.72	0.22
0.5058	53.33	344.29	0.25
0.5058	66.66	350.45	0.25
0.5058	79.99	355.66	0.26
0.5058	93.32	360.2	0.27
0.5058	98.66	361.86	0.28
0.6059	40	335.48	0.22
0.6059	53.33	343.16	0.26
0.6059	66.66	349.42	0.26
0.6059	79.99	354.73	0.26
0.6059	93.32	359.35	0.28
0.6059	98.66	361.04	0.29
0.7076	40	334.65	0.23
0.7076	53.33	342.45	0.26
0.7076	66.66	348.79	0.26
0.7076	79.99	354.17	0.26
0.7076	93.32	358.86	0.28
0.7076	98.66	360.58	0.28
0.8042	40	333.91	0.23
0.8042	53.33	341.79	0.26
0.8042	66.66	348.22	0.27
0.8042	79.99	353.68	0.27
0.8042	93.32	358.46	0.28
0.8042	98.66	360.22	0.27
0.8491	40	333.52	0.23
0.8491	53.33	341.42	0.26
0.8491	66.66	347.84	0.27
0.8491	79.99	353.33	0.27
0.8491	93.32	358.12	0.29
0.8491	98.66	359.9	0.3
0.9011	40	333.29	0.23
0.9011	53.33	341.25	0.27
0.9011	66.66	347.75	0.27
0.9011	79.99	353.28	0.27
0.9011	93.32	358.13	0.29
0.9011	98.66	359.92	0.29
0.95	40	333.09	0.23
0.95	53.33	341.13	0.27
0.95	66.66	347.69	0.27
0.95	79.99	353.28	0.28
0.95	93.32	358.19	0.29
0.95	98.66	359.99	0.29
1	40	332.98	0.24
1	53.33	341.09	0.27
1	66.66	347.72	0.28
1	79.99	353.38	0.28
1	93.32	358.37	0.3
1	98.66	360.22	0.29

System: propan-2-ol + tetrahydropyran; phases: Liquid, Gas
Property: Boiling temperature at pressure P, K (Liquid); method: EBULLIO:UFactor:2
Mole fraction of tetrahydropyran	Pressure, kPa	Boiling temperature at pressure P, K	uncertainty
0	40	333.94	0.18
0	53.33	340.18	0.21
0	66.66	345.25	0.21
0	79.99	349.55	0.21
0	93.32	353.3	0.22
0	98.66	354.67	0.22
0.1037	40	332.77	0.19
0.1037	53.33	339.26	0.22
0.1037	66.66	344.52	0.22
0.1037	79.99	348.97	0.22
0.1037	93.32	352.84	0.23
0.1037	98.66	354.27	0.23
0.1968	40	331.83	0.19
0.1968	53.33	338.51	0.22
0.1968	66.66	343.91	0.22
0.1968	79.99	348.48	0.22
0.1968	93.32	352.46	0.24
0.1968	98.66	353.92	0.24
0.2966	40	331.08	0.2
0.2966	53.33	337.93	0.23
0.2966	66.66	343.47	0.23
0.2966	79.99	348.15	0.23
0.2966	93.32	352.24	0.24
0.2966	98.66	353.74	0.25
0.4067	40	330.51	0.2
0.4067	53.33	337.52	0.23
0.4067	66.66	343.19	0.23
0.4067	79.99	348	0.24
0.4067	93.32	352.19	0.25
0.4067	98.66	353.73	0.26
0.508	40	330.2	0.21
0.508	53.33	337.35	0.24
0.508	66.66	343.15	0.24
0.508	79.99	348.07	0.24
0.508	93.32	352.36	0.26
0.508	98.66	353.94	0.26
0.6065	40	330.1	0.21
0.6065	53.33	337.4	0.24
0.6065	66.66	343.32	0.24
0.6065	79.99	348.34	0.25
0.6065	93.32	352.73	0.26
0.6065	98.66	354.34	0.27
0.7066	40	330.2	0.21
0.7066	53.33	337.66	0.25
0.7066	66.66	343.72	0.25
0.7066	79.99	348.88	0.25
0.7066	93.32	353.38	0.27
0.7066	98.66	355.05	0.28
0.8075	40	330.6	0.22
0.8075	53.33	338.24	0.26
0.8075	66.66	344.47	0.26
0.8075	79.99	349.78	0.26
0.8075	93.32	354.42	0.28
0.8075	98.66	356.13	0.3
0.9012	40	331.42	0.22
0.9012	53.33	339.27	0.26
0.9012	66.66	345.68	0.27
0.9012	79.99	351.16	0.27
0.9012	93.32	355.95	0.29
0.9012	98.66	357.72	0.32
1	40	332.98	0.24
1	53.33	341.09	0.27
1	66.66	347.72	0.28
1	79.99	353.38	0.28
1	93.32	358.37	0.3
1	98.66	360.22	0.29

System: butan-1-ol + tetrahydropyran; phases: Liquid, Gas
Property: Boiling temperature at pressure P, K (Liquid); method: EBULLIO:UFactor:2
Mole fraction of tetrahydropyran	Pressure, kPa	Boiling temperature at pressure P, K	uncertainty
0	40	366.76	0.2
0	53.33	373.74	0.23
0	66.66	379.43	0.23
0	79.99	384.26	0.24
0	93.32	388.49	0.25
0	98.66	390.04	0.24
0.0977	40	361.61	0.22
0.0977	53.33	369.07	0.25
0.0977	66.66	375.09	0.25
0.0977	79.99	380.16	0.25
0.0977	93.32	384.6	0.26
0.0977	98.66	386.24	0.25
0.1952	40	356.24	0.22
0.1952	53.33	364.14	0.26
0.1952	66.66	370.58	0.26
0.1952	79.99	375.96	0.26
0.1952	93.32	380.62	0.28
0.1952	98.66	382.31	0.28
0.2912	40	351.94	0.23
0.2912	53.33	360.08	0.27
0.2912	66.66	366.67	0.27
0.2912	79.99	372.17	0.27
0.2912	93.32	376.93	0.28
0.2912	98.66	378.71	0.29
0.391	40	347.88	0.24
0.391	53.33	356.2	0.28
0.391	66.66	362.88	0.27
0.391	79.99	368.52	0.28
0.391	93.32	373.39	0.29
0.391	98.66	375.22	0.31
0.4936	40	344.44	0.23
0.4936	53.33	352.72	0.28
0.4936	66.66	359.47	0.28
0.4936	79.99	365.17	0.28
0.4936	93.32	370.16	0.3
0.4936	98.66	371.99	0.31
0.6079	40	341.35	0.24
0.6079	53.33	349.64	0.28
0.6079	66.66	356.35	0.28
0.6079	79.99	362.06	0.28
0.6079	93.32	367.03	0.3
0.6079	98.66	368.86	0.3
0.7049	40	339.04	0.24
0.7049	53.33	347.23	0.28
0.7049	66.66	354	0.28
0.7049	79.99	359.68	0.28
0.7049	93.32	364.66	0.3
0.7049	98.66	366.48	0.3
0.805	40	336.8	0.24
0.805	53.33	344.99	0.27
0.805	66.66	351.66	0.28
0.805	79.99	357.35	0.28
0.805	93.32	362.33	0.3
0.805	98.66	364.17	0.31
0.9028	40	334.94	0.24
0.9028	53.33	343.07	0.27
0.9028	66.66	349.73	0.28
0.9028	79.99	355.41	0.28
0.9028	93.32	360.39	0.29
0.9028	98.66	362.23	0.28
0.9708	40	333.5	0.24
0.9708	53.33	341.61	0.27
0.9708	66.66	348.25	0.28
0.9708	79.99	353.91	0.28
0.9708	93.32	358.88	0.3
0.9708	98.66	360.71	0.3
1	40	332.98	0.24
1	53.33	341.09	0.27
1	66.66	347.72	0.28
1	79.99	353.38	0.28
1	93.32	358.37	0.3
1	98.66	360.22	0.29

System: butan-2-ol + tetrahydropyran; phases: Liquid, Gas
Property: Boiling temperature at pressure P, K (Liquid); method: EBULLIO:UFactor:2
Mole fraction of tetrahydropyran	Pressure, kPa	Boiling temperature at pressure P, K	uncertainty
0	40	349.73	0.2
0	53.33	356.36	0.23
0	66.66	361.77	0.23
0	79.99	366.36	0.23
0	93.32	370.38	0.24
0	98.66	371.86	0.24
0.0955	40	347.67	0.21
0.0955	53.33	354.58	0.24
0.0955	66.66	360.19	0.24
0.0955	79.99	364.94	0.24
0.0955	93.32	369.09	0.25
0.0955	98.66	370.62	0.24
0.1964	40	345.44	0.21
0.1964	53.33	352.62	0.24
0.1964	66.66	358.41	0.24
0.1964	79.99	363.32	0.25
0.1964	93.32	367.6	0.26
0.1964	98.66	369.18	0.26
0.2928	40	343.42	0.22
0.2928	53.33	350.79	0.25
0.2928	66.66	356.77	0.25
0.2928	79.99	361.82	0.25
0.2928	93.32	366.22	0.26
0.2928	98.66	367.83	0.26
0.392	40	341.46	0.22
0.392	53.33	349.02	0.26
0.392	66.66	355.14	0.26
0.392	79.99	360.31	0.26
0.392	93.32	364.83	0.27
0.392	98.66	366.49	0.27
0.5045	40	339.5	0.22
0.5045	53.33	347.18	0.26
0.5045	66.66	353.41	0.26
0.5045	79.99	358.69	0.26
0.5045	93.32	363.29	0.28
0.5045	98.66	364.99	0.29
0.6042	40	337.94	0.23
0.6042	53.33	345.75	0.26
0.6042	66.66	352.09	0.26
0.6042	79.99	357.46	0.27
0.6042	93.32	362.16	0.28
0.6042	98.66	363.9	0.28
0.705	40	336.5	0.23
0.705	53.33	344.38	0.27
0.705	66.66	350.82	0.27
0.705	79.99	356.28	0.27
0.705	93.32	361.05	0.29
0.705	98.66	362.81	0.28
0.803	40	335.25	0.23
0.803	53.33	343.2	0.27
0.803	66.66	349.69	0.27
0.803	79.99	355.22	0.27
0.803	93.32	360.06	0.29
0.803	98.66	361.84	0.29
0.9015	40	334.09	0.24
0.9015	53.33	342.14	0.27
0.9015	66.66	348.7	0.27
0.9015	79.99	354.31	0.28
0.9015	93.32	359.21	0.29
0.9015	98.66	361.02	0.28
0.9811	40	333.15	0.24
0.9811	53.33	341.24	0.27
0.9811	66.66	347.86	0.27
0.9811	79.99	353.5	0.28
0.9811	93.32	358.46	0.29
0.9811	98.66	360.28	0.29
1	40	332.98	0.24
1	53.33	341.09	0.27
1	66.66	347.72	0.28
1	79.99	353.38	0.28
1	93.32	358.37	0.3
1	98.66	360.22	0.29

System: 2-methyl-1-propanol + tetrahydropyran; phases: Liquid, Gas
Property: Boiling temperature at pressure P, K (Liquid); method: EBULLIO:UFactor:2
Mole fraction of tetrahydropyran	Pressure, kPa	Boiling temperature at pressure P, K	uncertainty
0	40	357.45	0.2
0	53.33	364.17	0.23
0	66.66	369.67	0.23
0	79.99	374.35	0.23
0	93.32	378.45	0.24
0	98.66	379.96	0.24
0.0973	40	354.26	0.21
0.0973	53.33	361.38	0.24
0.0973	66.66	367.15	0.24
0.0973	79.99	372.03	0.24
0.0973	93.32	376.29	0.25
0.0973	98.66	377.86	0.24
0.1968	40	350.92	0.22
0.1968	53.33	358.4	0.25
0.1968	66.66	364.41	0.25
0.1968	79.99	369.5	0.25
0.1968	93.32	373.91	0.26
0.1968	98.66	375.53	0.25
0.2956	40	347.8	0.22
0.2956	53.33	355.47	0.26
0.2956	66.66	361.69	0.26
0.2956	79.99	366.94	0.26
0.2956	93.32	371.49	0.27
0.2956	98.66	373.17	0.28
0.3939	40	345.03	0.23
0.3939	53.33	352.9	0.26
0.3939	66.66	359.27	0.26
0.3939	79.99	364.63	0.26
0.3939	93.32	369.28	0.28
0.3939	98.66	371.01	0.27
0.4941	40	342.4	0.23
0.4941	53.33	350.39	0.27
0.4941	66.66	356.84	0.27
0.4941	79.99	362.3	0.27
0.4941	93.32	367.06	0.28
0.4941	98.66	368.82	0.29
0.6054	40	339.93	0.23
0.6054	53.33	347.96	0.27
0.6054	66.66	354.5	0.27
0.6054	79.99	360.03	0.27
0.6054	93.32	364.86	0.29
0.6054	98.66	366.63	0.29
0.7033	40	337.94	0.23
0.7033	53.33	346	0.27
0.7033	66.66	352.58	0.27
0.7033	79.99	358.18	0.27
0.7033	93.32	363.05	0.29
0.7033	98.66	364.85	0.29
0.801	40	336.22	0.24
0.801	53.33	344.3	0.27
0.801	66.66	350.89	0.27
0.801	79.99	356.5	0.28
0.801	93.32	361.4	0.29
0.801	98.66	363.21	0.29
0.9029	40	334.49	0.23
0.9029	53.33	342.57	0.27
0.9029	66.66	349.18	0.27
0.9029	79.99	354.83	0.28
0.9029	93.32	359.76	0.29
0.9029	98.66	361.58	0.3
1	40	332.98	0.24
1	53.33	341.09	0.27
1	66.66	347.72	0.28
1	79.99	353.38	0.28
1	93.32	358.37	0.3
1	98.66	360.22	0.29

System: 2-methylpropan-2-ol + tetrahydropyran; phases: Liquid, Gas
Property: Boiling temperature at pressure P, K (Liquid); method: EBULLIO:UFactor:2
Mole fraction of tetrahydropyran	Pressure, kPa	Boiling temperature at pressure P, K	uncertainty
0	40	333.9	0.19
0	53.33	340.13	0.21
0	66.66	345.21	0.21
0	79.99	349.53	0.22
0	93.32	353.32	0.23
0	98.66	354.61	0.21
0.0965	40	333.59	0.19
0.0965	53.33	340.02	0.22
0.0965	66.66	345.24	0.22
0.0965	79.99	349.68	0.22
0.0965	93.32	353.57	0.24
0.0965	98.66	355	0.22
0.1961	40	333.25	0.2
0.1961	53.33	339.86	0.22
0.1961	66.66	345.24	0.23
0.1961	79.99	349.8	0.23
0.1961	93.32	353.79	0.24
0.1961	98.66	355.26	0.23
0.2923	40	332.86	0.2
0.2923	53.33	339.67	0.23
0.2923	66.66	345.19	0.23
0.2923	79.99	349.87	0.23
0.2923	93.32	353.96	0.25
0.2923	98.66	355.47	0.25
0.4064	40	332.51	0.21
0.4064	53.33	339.51	0.24
0.4064	66.66	345.2	0.24
0.4064	79.99	350.02	0.24
0.4064	93.32	354.23	0.25
0.4064	98.66	355.79	0.25
0.507	40	332.23	0.21
0.507	53.33	339.41	0.24
0.507	66.66	345.24	0.24
0.507	79.99	350.2	0.25
0.507	93.32	354.53	0.26
0.507	98.66	356.12	0.26
0.6074	40	332.07	0.21
0.6074	53.33	339.43	0.25
0.6074	66.66	345.42	0.25
0.6074	79.99	350.5	0.25
0.6074	93.32	354.95	0.27
0.6074	98.66	356.59	0.27
0.7079	40	332.04	0.22
0.7079	53.33	339.57	0.25
0.7079	66.66	345.71	0.26
0.7079	79.99	350.93	0.26
0.7079	93.32	355.5	0.27
0.7079	98.66	357.18	0.28
0.8028	40	332.1	0.22
0.8028	53.33	339.8	0.26
0.8028	66.66	346.1	0.26
0.8028	79.99	351.46	0.27
0.8028	93.32	356.16	0.28
0.8028	98.66	357.88	0.29
0.9035	40	332.39	0.23
0.9035	53.33	340.28	0.27
0.9035	66.66	346.74	0.27
0.9035	79.99	352.26	0.27
0.9035	93.32	357.1	0.29
0.9035	98.66	358.88	0.3
1	40	332.98	0.24
1	53.33	341.09	0.27
1	66.66	347.72	0.28
1	79.99	353.38	0.28
1	93.32	358.37	0.3
1	98.66	360.22	0.29
