Measured thermophysical data. Binary Liquid-Liquid Equilibrium (LLE) for Dibutyl Ether (DBE) + Water from (288.15 to 318.15) K and Ternary LLE for Systems of DBE + C1 !less thanless than C4 Alcohols + Water at 298.15 K
Source: J. Chem. Eng. Data, 2008, 10.1021/je800446c
Compound 1: butan-2-ol, C4H10O, InChI=1S/C4H10O/c1-3-4(2)5/h4-5H,3H2,1-2H3, purity 99.9%
Compound 2: water, H2O, InChI=1S/H2O/h1H2
Compound 3: ethanol, C2H6O, InChI=1S/C2H6O/c1-2-3/h3H,2H2,1H3, purity 99.9%
Compound 4: propan-1-ol, C3H8O, InChI=1S/C3H8O/c1-2-3-4/h4H,2-3H2,1H3, purity 99.9%
Compound 5: propan-2-ol, C3H8O, InChI=1S/C3H8O/c1-3(2)4/h3-4H,1-2H3, purity 99.9%
Compound 6: butan-1-ol, C4H10O, InChI=1S/C4H10O/c1-2-3-4-5/h5H,2-4H2,1H3, purity 99.9%
Compound 7: dibutyl ether, C8H18O, InChI=1S/C8H18O/c1-3-5-7-9-8-6-4-2/h3-8H2,1-2H3, purity 99.9%
Compound 8: methanol, CH4O, InChI=1S/CH4O/c1-2/h2H,1H3, purity 99.9%

System: butan-2-ol; phases: Liquid
Property: Mass density, kg/m3 (Liquid); method: Pycnometric method
Temperature, K	Pressure, kPa	Mass density, kg/m3	uncertainty
298.15	101.325	802	1

System: water; phases: Liquid
Property: Mass density, kg/m3 (Liquid); method: Pycnometric method
Temperature, K	Pressure, kPa	Mass density, kg/m3	uncertainty
298.15	101.325	997.21	0.93

System: ethanol; phases: Liquid
Property: Mass density, kg/m3 (Liquid); method: Pycnometric method
Temperature, K	Pressure, kPa	Mass density, kg/m3	uncertainty
298.15	101.325	785.35	0.71

System: propan-1-ol; phases: Liquid
Property: Mass density, kg/m3 (Liquid); method: Pycnometric method
Temperature, K	Pressure, kPa	Mass density, kg/m3	uncertainty
298.15	101.325	799.98	0.72

System: propan-2-ol; phases: Liquid
Property: Mass density, kg/m3 (Liquid); method: Pycnometric method
Temperature, K	Pressure, kPa	Mass density, kg/m3	uncertainty
298.15	101.325	781.35	0.7

System: butan-1-ol; phases: Liquid
Property: Mass density, kg/m3 (Liquid); method: Pycnometric method
Temperature, K	Pressure, kPa	Mass density, kg/m3	uncertainty
298.15	101.325	805.85	0.72

System: dibutyl ether; phases: Liquid
Property: Mass density, kg/m3 (Liquid); method: Pycnometric method
Temperature, K	Pressure, kPa	Mass density, kg/m3	uncertainty
298.15	101.325	764.23	0.69

System: methanol; phases: Liquid
Property: Mass density, kg/m3 (Liquid); method: Pycnometric method
Temperature, K	Pressure, kPa	Mass density, kg/m3	uncertainty
298.15	101.325	786.57	0.71

System: dibutyl ether + water; phases: Liquid mixture 1, Liquid mixture 2
Fixed: Pressure, kPa = 101.3
Property: Mole fraction of dibutyl ether (Liquid mixture 1); method: Chromatography
Temperature, K	Mole fraction of dibutyl ether	uncertainty
288.15	0.986	0.002
293.15	0.9832	0.002
298.15	0.9798	0.002
303.15	0.9749	0.002
308.15	0.9682	0.002
313.15	0.9628	0.002
318.15	0.9578	0.002

System: dibutyl ether + water; phases: Liquid mixture 2, Liquid mixture 1
Fixed: Pressure, kPa = 101.3
Property: Mole fraction of dibutyl ether (Liquid mixture 2); method: Chromatography
Temperature, K	Mole fraction of dibutyl ether	uncertainty
288.15	0	0.0001
293.15	0.0001	0.0001
298.15	0.0003	0.0003
303.15	0.0007	0.0007
308.15	0.0011	0.0011
313.15	0.0015	0.0015
318.15	0.002	0.002

System: methanol + dibutyl ether + water; phases: Liquid mixture 1, Liquid mixture 2
Fixed: Temperature, K = 298.15
Fixed: Pressure, kPa = 101.3
Property: Mole fraction of dibutyl ether (Liquid mixture 1); method: Chromatography
Property: Mole fraction of dibutyl ether (Liquid mixture 2); method: Chromatography
Property: Mole fraction of methanol (Liquid mixture 2); method: Chromatography
Mole fraction of methanol	Mole fraction of dibutyl ether	uncertainty	Mole fraction of dibutyl ether	uncertainty	Mole fraction of methanol	uncertainty
0.0049	0.9694	0.0119	0.0001	0.0001	0.0329	
0.0176	0.9529	0.0152	0.0001	0.0001	0.0914	
0.0409	0.9279	0.0141	0.0001	0.0001	0.1642	
0.0742	0.8965	0.0146	0.0005	0.0005	0.2839	
0.095	0.87	0.0148	0.0011	0.0011	0.3411	
0.1285	0.8368	0.0163	0.0024	0.002	0.4102	
0.1821	0.7598	0.016	0.0048	0.002	0.4766	
0.2438	0.6939	0.0146	0.0104	0.002	0.5558	
0.3056	0.6304	0.0152	0.0206	0.0021	0.6157	
0.3678	0.5562	0.016	0.0391	0.0023	0.6613	
0.4255	0.4862	0.0161	0.0556	0.0025	0.6829	

System: ethanol + dibutyl ether + water; phases: Liquid mixture 1, Liquid mixture 2
Fixed: Temperature, K = 298.15
Fixed: Pressure, kPa = 101.3
Property: Mole fraction of ethanol (Liquid mixture 1); method: Chromatography
Property: Mole fraction of dibutyl ether (Liquid mixture 2); method: Chromatography
Property: Mole fraction of ethanol (Liquid mixture 2); method: Chromatography
Mole fraction of dibutyl ether	Mole fraction of ethanol	uncertainty	Mole fraction of dibutyl ether	uncertainty	Mole fraction of ethanol	uncertainty
0.9542	0.0098	0.0098	0.0003	0.0003	0.0162	
0.9146	0.0288	0.012	0.0001	0.0001	0.0582	
0.8523	0.0758	0.0126	0.0002	0.0002	0.1199	
0.7715	0.1392	0.013	0.001	0.001	0.1798	
0.6962	0.2047	0.0124	0.0026	0.0026	0.2414	
0.6048	0.2605	0.0122	0.0069	0.0069	0.3031	
0.4999	0.3354	0.0119	0.0198	0.0105	0.3725	
0.3558	0.4118	0.0116	0.0493	0.0122	0.4362	
0.2703	0.4503	0.0114	0.087	0.019	0.4596	

System: propan-1-ol + dibutyl ether + water; phases: Liquid mixture 1, Liquid mixture 2
Fixed: Temperature, K = 298.15
Fixed: Pressure, kPa = 101.3
Property: Mole fraction of propan-1-ol (Liquid mixture 1); method: Chromatography
Property: Mole fraction of dibutyl ether (Liquid mixture 2); method: Chromatography
Property: Mole fraction of propan-1-ol (Liquid mixture 2); method: Chromatography
Mole fraction of dibutyl ether	Mole fraction of propan-1-ol	uncertainty	Mole fraction of dibutyl ether	uncertainty	Mole fraction of propan-1-ol	uncertainty
0.9311	0.0292	0.0136	0.0027	0.002	0.0102	
0.7867	0.1612	0.0127	0.0014	0.0014	0.0333	
0.611	0.2798	0.0122	0.001	0.001	0.0448	
0.4731	0.3696	0.0118	0.0003	0.0003	0.051	
0.3157	0.4459	0.0111	0.0003	0.0003	0.0579	
0.1764	0.4756	0.0106	0.0004	0.0004	0.0694	
0.0921	0.4401	0.0131	0.0007	0.0007	0.0824	
0.0467	0.3678	0.019	0.0021	0.002	0.0973	

System: propan-2-ol + dibutyl ether + water; phases: Liquid mixture 1, Liquid mixture 2
Fixed: Temperature, K = 298.15
Fixed: Pressure, kPa = 101.3
Property: Mole fraction of propan-2-ol (Liquid mixture 1); method: Chromatography
Property: Mole fraction of dibutyl ether (Liquid mixture 2); method: Chromatography
Property: Mole fraction of propan-2-ol (Liquid mixture 2); method: Chromatography
Mole fraction of dibutyl ether	Mole fraction of propan-2-ol	uncertainty	Mole fraction of dibutyl ether	uncertainty	Mole fraction of propan-2-ol	uncertainty
0.9083	0.046	0.0123	0.0001	0.0001	0.0252	
0.7865	0.1322	0.0123	0.0002	0.0002	0.0579	
0.5963	0.2666	0.012	0.0003	0.0003	0.0884	
0.3837	0.3891	0.0115	0.0008	0.0008	0.1131	
0.261	0.4333	0.0107	0.0016	0.0016	0.1377	
0.1743	0.4345	0.0112	0.0033	0.0033	0.1609	
0.0638	0.3547	0.0126	0.0183	0.0102	0.2401	

System: butan-1-ol + dibutyl ether + water; phases: Liquid mixture 1, Liquid mixture 2
Fixed: Temperature, K = 298.15
Fixed: Pressure, kPa = 101.3
Property: Mole fraction of butan-1-ol (Liquid mixture 1); method: Chromatography
Property: Mole fraction of dibutyl ether (Liquid mixture 2); method: Chromatography
Property: Mole fraction of butan-1-ol (Liquid mixture 2); method: Chromatography
Mole fraction of dibutyl ether	Mole fraction of butan-1-ol	uncertainty	Mole fraction of dibutyl ether	uncertainty	Mole fraction of butan-1-ol	uncertainty
0.776	0.1391	0.0134	0.0001	0.0001	0.0067	
0.6454	0.2541	0.0128	0	0.0001	0.0076	
0.5254	0.3341	0.0119	0	0.0001	0.0106	
0.3736	0.4202	0.0121	0	0.0001	0.012	
0.2951	0.4763	0.0118	0	0.0001	0.013	
0.1862	0.5216	0.0109	0.0001	0.0001	0.0131	
0.0865	0.5354	0.0106	0.0001	0.0001	0.0159	
0	0.4995	0.0106	0	0.0001	0.0187	

System: butan-2-ol + dibutyl ether + water; phases: Liquid mixture 1, Liquid mixture 2
Fixed: Temperature, K = 298.15
Fixed: Pressure, kPa = 101.3
Property: Mole fraction of butan-2-ol (Liquid mixture 1); method: Chromatography
Property: Mole fraction of dibutyl ether (Liquid mixture 2); method: Chromatography
Property: Mole fraction of butan-2-ol (Liquid mixture 2); method: Chromatography
Mole fraction of dibutyl ether	Mole fraction of butan-2-ol	uncertainty	Mole fraction of dibutyl ether	uncertainty	Mole fraction of butan-2-ol	uncertainty
0.862	0.0775	0.0132	0	0.0001	0.0096	
0.7541	0.1699	0.0129	0	0.0001	0.0137	
0.5925	0.2936	0.0124	0.0001	0.0001	0.0203	
0.3936	0.4219	0.012	0.0001	0.0001	0.0245	
0.2833	0.4729	0.0114	0.0001	0.0001	0.0268	
0.2144	0.4996	0.0111	0.0002	0.0002	0.0297	
0.1648	0.5098	0.0107	0.0001	0.0001	0.0298	
0.1136	0.5137	0.0106	0.0001	0.0001	0.0325	
0.0718	0.4974	0.0216	0.0002	0.0002	0.0359	
0	0.3105	0.0102	0	0.0001	0.0498	
