Measured thermophysical data. Heat Capacities of Some Liquid alpha,omega-Alkanediols within the Temperature Range between (293.15 and 353.15) K
Source: J. Chem. Eng. Data, 2008, 10.1021/je800356x
Compound 1: 1,2-ethanediol, C2H6O2, InChI=1S/C2H6O2/c3-1-2-4/h3-4H,1-2H2
Compound 2: propan-1,3-diol, C3H8O2, InChI=1S/C3H8O2/c4-2-1-3-5/h4-5H,1-3H2
Compound 3: 1,4-butanediol, C4H10O2, InChI=1S/C4H10O2/c5-3-1-2-4-6/h5-6H,1-4H2
Compound 4: 1,5-pentanediol, C5H12O2, InChI=1S/C5H12O2/c6-4-2-1-3-5-7/h6-7H,1-5H2
Compound 5: 1,6-hexanediol, C6H14O2, InChI=1S/C6H14O2/c7-5-3-1-2-4-6-8/h7-8H,1-6H2
Compound 6: 1,7-heptanediol, C7H16O2, InChI=1S/C7H16O2/c8-6-4-2-1-3-5-7-9/h8-9H,1-7H2
Compound 7: 1,8-octanediol, C8H18O2, InChI=1S/C8H18O2/c9-7-5-3-1-2-4-6-8-10/h9-10H,1-8H2
Compound 8: 1,9-nonanediol, C9H20O2, InChI=1S/C9H20O2/c10-8-6-4-2-1-3-5-7-9-11/h10-11H,1-9H2

System: 1,2-ethanediol; phases: Liquid
Fixed: Pressure, kPa = 101.325
Property: Molar heat capacity at constant pressure, J/K/mol (Liquid); method: Small sample (50 mg) DSC
Temperature, K	Molar heat capacity at constant pressure, J/K/mol	uncertainty
293.15	148.1	2.29
294.65	148.57	2.3
296.15	149.05	2.31
297.65	149.53	2.32
298.15	149.69	2.32
299.15	150.01	2.32
300.65	150.48	2.33
302.15	150.96	2.34
303.65	151.44	2.35
305.15	151.92	2.35
306.65	152.4	2.36
308.15	152.88	2.37
309.65	153.36	2.38
311.15	153.83	2.38
312.65	154.31	2.39
314.15	154.79	2.4
315.65	155.27	2.41
317.15	155.75	2.41
318.65	156.23	2.42
320.15	156.71	2.43
321.65	157.19	2.44
323.15	157.67	2.44
324.65	158.15	2.45
326.15	158.63	2.46
327.65	159.11	2.46
329.15	159.6	2.47
330.65	160.08	2.48
332.15	160.56	2.49
333.65	161.04	2.49
335.15	161.52	2.5
336.65	162	2.51
338.15	162.49	2.52
339.65	162.97	2.52
341.15	163.45	2.53
342.65	163.93	2.54
344.15	164.42	2.55
345.65	164.9	2.55
347.15	165.38	2.56
348.65	165.86	2.57
350.15	166.35	2.58
351.65	166.83	2.58
353.15	167.32	2.59

System: propan-1,3-diol; phases: Liquid
Fixed: Pressure, kPa = 101.325
Property: Molar heat capacity at constant pressure, J/K/mol (Liquid); method: Small sample (50 mg) DSC
Temperature, K	Molar heat capacity at constant pressure, J/K/mol	uncertainty
293.15	173.4	2.69
294.65	174.11	2.7
296.15	174.83	2.71
297.65	175.54	2.72
298.15	175.78	2.72
299.15	176.26	2.73
300.65	176.98	2.74
302.15	177.7	2.75
303.65	178.42	2.76
305.15	179.15	2.78
306.65	179.87	2.79
308.15	180.59	2.8
309.65	181.32	2.81
311.15	182.05	2.82
312.65	182.78	2.83
314.15	183.51	2.84
315.65	184.24	2.85
317.15	184.97	2.87
318.65	185.7	2.88
320.15	186.44	2.89
321.65	187.17	2.9
323.15	187.91	2.91
324.65	188.65	2.92
326.15	189.38	2.93
327.65	190.12	2.95
329.15	190.87	2.96
330.65	191.61	2.97
332.15	192.35	2.98
333.65	193.1	2.99
335.15	193.84	3
336.65	194.59	3.01
338.15	195.34	3.03
339.65	196.09	3.04
341.15	196.84	3.05
342.65	197.59	3.06
344.15	198.34	3.07
345.65	199.1	3.08
347.15	199.85	3.1
348.65	200.61	3.11
350.15	201.37	3.12
351.65	202.13	3.13
353.15	202.89	3.14

System: 1,4-butanediol; phases: Liquid
Fixed: Pressure, kPa = 101.325
Property: Molar heat capacity at constant pressure, J/K/mol (Liquid); method: Small sample (50 mg) DSC
Temperature, K	Molar heat capacity at constant pressure, J/K/mol	uncertainty
293.15	200.51	3.11
294.65	201.33	3.12
296.15	202.16	3.13
297.65	202.99	3.14
298.15	203.27	3.15
299.15	203.82	3.16
300.65	204.67	3.17
302.15	205.51	3.18
303.65	206.36	3.2
305.15	207.22	3.21
306.65	208.08	3.22
308.15	208.95	3.24
309.65	209.82	3.25
311.15	210.7	3.26
312.65	211.58	3.28
314.15	212.47	3.29
315.65	213.36	3.31
317.15	214.26	3.32
318.65	215.17	3.33
320.15	216.08	3.35
321.65	216.99	3.36
323.15	217.91	3.38
324.65	218.83	3.39
326.15	219.76	3.4
327.65	220.7	3.42
329.15	221.64	3.43
330.65	222.58	3.45
332.15	223.53	3.46
333.65	224.49	3.48
335.15	225.45	3.49
336.65	226.41	3.51
338.15	227.38	3.52
339.65	228.36	3.54
341.15	229.34	3.55
342.65	230.33	3.57
344.15	231.32	3.58
345.65	232.32	3.6
347.15	233.32	3.61
348.65	234.32	3.63
350.15	235.34	3.65
351.65	236.35	3.66
353.15	237.38	3.68

System: 1,5-pentanediol; phases: Liquid
Fixed: Pressure, kPa = 101.325
Property: Molar heat capacity at constant pressure, J/K/mol (Liquid); method: Small sample (50 mg) DSC
Temperature, K	Molar heat capacity at constant pressure, J/K/mol	uncertainty
293.15	229.04	3.55
294.65	230.06	3.56
296.15	231.1	3.58
297.65	232.14	3.6
298.15	232.49	3.6
299.15	233.19	3.61
300.65	234.25	3.63
302.15	235.31	3.65
303.65	236.39	3.66
305.15	237.47	3.68
306.65	238.56	3.7
308.15	239.66	3.71
309.65	240.77	3.73
311.15	241.89	3.75
312.65	243.01	3.76
314.15	244.14	3.78
315.65	245.28	3.8
317.15	246.43	3.82
318.65	247.59	3.84
320.15	248.76	3.85
321.65	249.93	3.87
323.15	251.11	3.89
324.65	252.3	3.91
326.15	253.5	3.93
327.65	254.7	3.95
329.15	255.92	3.96
330.65	257.14	3.98
332.15	258.37	4
333.65	259.61	4.02
335.15	260.86	4.04
336.65	262.11	4.06
338.15	263.38	4.08
339.65	264.65	4.1
341.15	265.93	4.12
342.65	267.22	4.14
344.15	268.51	4.16
345.65	269.82	4.18
347.15	271.13	4.2
348.65	272.45	4.22
350.15	273.78	4.24
351.65	275.12	4.26
353.15	276.46	4.28

System: 1,6-hexanediol; phases: Liquid
Fixed: Pressure, kPa = 101.325
Property: Molar heat capacity at constant pressure, J/K/mol (Liquid); method: Small sample (50 mg) DSC
Temperature, K	Molar heat capacity at constant pressure, J/K/mol	uncertainty
318.65	282.66	4.38
320.15	284.25	4.4
321.65	285.84	4.43
323.15	287.42	4.45
324.65	288.99	4.48
326.15	290.55	4.5
327.65	292.12	4.53
329.15	293.67	4.55
330.65	295.22	4.57
332.15	296.76	4.6
333.65	298.3	4.62
335.15	299.83	4.64
336.65	301.36	4.67
338.15	302.88	4.69
339.65	304.4	4.72
341.15	305.91	4.74
342.65	307.41	4.76
344.15	308.91	4.79
345.65	310.4	4.81
347.15	311.88	4.83
348.65	313.36	4.85
350.15	314.84	4.88
351.65	316.31	4.9
353.15	317.77	4.92

System: 1,7-heptanediol; phases: Liquid
Fixed: Pressure, kPa = 101.325
Property: Molar heat capacity at constant pressure, J/K/mol (Liquid); method: Small sample (50 mg) DSC
Temperature, K	Molar heat capacity at constant pressure, J/K/mol	uncertainty
293.15	292.06	4.52
294.65	293.4	4.55
296.15	294.75	4.57
297.65	296.11	4.59
299.15	297.48	4.61
300.65	298.87	4.63
302.15	300.26	4.65
303.65	301.67	4.67
305.15	303.09	4.7
306.65	304.51	4.72
308.15	305.95	4.74
309.65	307.41	4.76
311.15	308.87	4.79
312.65	310.34	4.81
314.15	311.83	4.83
315.65	313.33	4.85
317.15	314.83	4.88
318.65	316.35	4.9
320.15	317.88	4.92
321.65	319.43	4.95
323.15	320.98	4.97
324.65	322.54	5
326.15	324.12	5.02
327.65	325.71	5.05
329.15	327.31	5.07
330.65	328	5
332.15	330.54	5.12
333.65	332.17	5.15
335.15	333.81	5.17
336.65	335.47	5.2
338.15	337.13	5.22
339.65	338.81	5.25
341.15	340.5	5.28
342.65	342.2	5.3
344.15	343.91	5.33
345.65	345.63	5.35
347.15	347.37	5.38
348.65	349.11	5.41
350.15	350.87	5.44
351.65	352.64	5.46
353.15	354.42	5.49

System: 1,8-octanediol; phases: Liquid
Fixed: Pressure, kPa = 101.325
Property: Molar heat capacity at constant pressure, J/K/mol (Liquid); method: Small sample (50 mg) DSC
Temperature, K	Molar heat capacity at constant pressure, J/K/mol	uncertainty
333.65	371.35	5.75
335.15	373.24	5.78
336.65	375.13	5.81
338.15	377.03	5.84
339.65	378.93	5.87
341.15	380.83	5.9
342.65	382.74	5.93
344.15	384.65	5.96
345.65	386.56	5.99
347.15	388.48	6.02
348.65	390.4	6.05
350.15	392.32	6.08
351.65	394.24	6.11
353.15	396.17	6.14

System: 1,9-nonanediol; phases: Liquid
Fixed: Pressure, kPa = 101.325
Property: Molar heat capacity at constant pressure, J/K/mol (Liquid); method: Small sample (50 mg) DSC
Temperature, K	Molar heat capacity at constant pressure, J/K/mol	uncertainty
318.65	389.02	6.03
320.15	391.15	6.06
321.65	393.27	6.09
323.15	395.39	6.13
324.65	397.51	6.16
326.15	399.62	6.19
327.65	401.73	6.22
329.15	403.84	6.26
330.65	405.94	6.29
332.15	408.03	6.32
333.65	410.12	6.35
335.15	412.21	6.39
336.65	414.3	6.42
338.15	416.38	6.45
339.65	418.45	6.48
341.15	420.52	6.51
342.65	422.59	6.55
344.15	424.66	6.58
345.65	426.72	6.61
347.15	428.77	6.64
348.65	430.82	6.67
350.15	432.87	6.71
351.65	434.92	6.74
353.15	436.95	6.77
