Measured thermophysical data. Heat Capacities and Thermodynamic Functions of Propanoylferrocene and Propylferrocene
Source: J. Chem. Eng. Data, 2009, 10.1021/je800266e
Compound 1: propylferrocene, C13H16Fe, InChI=1S/C8H11.C5H5.Fe/c1-2-5-8-6-3-4-7-8;1-2-4-5-3-1;/h3-4,6-7H,2,5H2,1H3;1-5H;/q2*-1;+2, purity 99.24%
Compound 2: propanoylferrocene, C13H14FeO, InChI=1S/C8H9O.C5H5.Fe/c1-2-8(9)7-5-3-4-6-7;1-2-4-5-3-1;/h3-6H,2H2,1H3;1-5H;/q2*-1;+2, purity 98.93%

System: propylferrocene; phases: Crystal 1, Liquid, Gas
Property: Molar enthalpy of transition or fusion, kJ/mol (Crystal 1); method: Adiabatic calorimetry
Molar enthalpy of transition or fusion, kJ/mol	uncertainty
19.16	0.24

System: propylferrocene; phases: Crystal 1, Liquid, Air at 1 atmosphere
Property: Molar enthalpy of transition or fusion, kJ/mol (Crystal 1); method: DSC
Molar enthalpy of transition or fusion, kJ/mol	uncertainty
19.69	1

System: propylferrocene; phases: Crystal 2, Crystal 1, Gas
Property: Molar enthalpy of transition or fusion, kJ/mol (Crystal 2); method: Adiabatic calorimetry
Molar enthalpy of transition or fusion, kJ/mol	uncertainty
1.23	0.04

System: propylferrocene; phases: Crystal 2, Crystal 1, Gas
Property: Triple point temperature, K (Crystal 2); method: Adiabatic calorimetry
Triple point temperature, K	uncertainty
186.7	0.6

System: propylferrocene; phases: Crystal 1, Liquid, Gas
Property: Triple point temperature, K (Crystal 1); method: Adiabatic calorimetry
Triple point temperature, K	uncertainty
311.62	1.02

System: propylferrocene; phases: Crystal 1, Liquid, Air at 1 atmosphere
Property: Normal melting temperature, K (Crystal 1); method: DTA
Normal melting temperature, K	uncertainty
311.62	2

System: propylferrocene; phases: Crystal 2
Fixed: Pressure, kPa = 101.325
Property: Molar heat capacity at constant pressure, J/K/mol (Crystal 2); method: Small (less than 1 g) adiabatic calorimetry
Temperature, K	Molar heat capacity at constant pressure, J/K/mol	uncertainty
5	0.5339	0.0324
10	3.806	0.084
15	11.48	0.18
20	20.55	0.27
25	29.5	0.32
30	37.6	0.29
35	44.82	0.33
40	51.46	0.36
45	57.41	0.39
50	62.94	0.42
55	68.11	0.44
60	72.96	0.47
65	77.55	0.49
70	81.91	0.51
75	86.11	0.53
80	89.89	0.55
90	98.25	0.59
100	106.2	0.6
110	114.1	0.7
120	122	0.7
130	130.2	0.7
140	139.3	0.8
150	149.6	0.8
160	161.7	0.8
170	173.8	0.9
180	185.9	0.9
186.7	194	1

System: propylferrocene; phases: Crystal 1
Fixed: Pressure, kPa = 101.325
Property: Molar heat capacity at constant pressure, J/K/mol (Crystal 1); method: Small (less than 1 g) adiabatic calorimetry
Temperature, K	Molar heat capacity at constant pressure, J/K/mol	uncertainty
186.7	191.3	1
190	193.3	1
200	199.5	1
210	205.6	1
220	212.1	1
230	220.2	1.1
240	230.2	1.1
250	244.6	1.2
260	274.7	1.3
270	324	1.5
276.03	286.8	1.4

System: propylferrocene; phases: Liquid
Fixed: Pressure, kPa = 101.325
Property: Molar heat capacity at constant pressure, J/K/mol (Liquid); method: Small (less than 1 g) adiabatic calorimetry
Temperature, K	Molar heat capacity at constant pressure, J/K/mol	uncertainty
276.03	305.9	1.4
280	308.4	1.4
290	314.9	1.5
298.15	319.5	1.5
300	320.5	1.5
310	325.8	1.5
320	331.8	1.5
330	338.2	1.6
340	344.4	1.6
350	350.7	1.6
360	356.6	1.6
370	361.5	1.6

System: propylferrocene; phases: Crystal 2
Fixed: Pressure, kPa = 101.325
Property: Molar enthalpy, kJ/mol (Crystal 2); method: Small (less than 1 g) adiabatic calorimetry
Temperature, K	Molar enthalpy, kJ/mol	uncertainty
5	0.000668	0.000118
10	0.009802	0.000369
15	0.04748	0.00099
20	0.1273	0.002
25	0.2527	0.0031
30	0.4209	0.0052
35	0.6272	0.0067
40	0.8683	0.0084
45	1.14	0.01
50	1.441	0.012
55	1.769	0.014
60	2.122	0.017
65	2.498	0.019
70	2.897	0.022
75	3.317	0.024
80	3.758	0.027
90	4.699	0.037
100	5.721	0.043
110	6.823	0.049
120	8.003	0.056
130	9.263	0.063
140	10.61	0.07
150	12.05	0.08
160	13.61	0.09
170	15.29	0.1
180	17.08	0.1
186.7	18.36	0.11

System: propylferrocene; phases: Crystal 1
Fixed: Pressure, kPa = 101.325
Property: Molar enthalpy, kJ/mol (Crystal 1); method: Small (less than 1 g) adiabatic calorimetry
Temperature, K	Molar enthalpy, kJ/mol	uncertainty
186.7	19.59	0.12
190	20.22	0.12
200	22.19	0.13
210	24.21	0.14
220	26.3	0.15
230	28.46	0.16
240	30.71	0.17
250	33.08	0.18
260	35.65	0.19
270	38.64	0.21
276.03	40	0.22

System: propylferrocene; phases: Liquid
Fixed: Pressure, kPa = 101.325
Property: Molar enthalpy, kJ/mol (Liquid); method: Small (less than 1 g) adiabatic calorimetry
Temperature, K	Molar enthalpy, kJ/mol	uncertainty
276.03	52.74	0.27
280	53.96	0.27
290	57.08	0.29
298.15	59.67	0.3
300	60.26	0.3
310	63.49	0.32
320	66.78	0.33
330	70.13	0.35
340	73.54	0.36
350	77.02	0.38
360	80.55	0.39
370	84.14	0.41

System: propylferrocene; phases: Crystal 2
Fixed: Pressure, kPa = 101.325
Property: Molar entropy, J/K/mol (Crystal 2); method: Small (less than 1 g) adiabatic calorimetry
Temperature, K	Molar entropy, J/K/mol	uncertainty
5	0.178	0.0351
10	1.368	0.063
15	4.322	0.122
20	8.853	0.19
25	14.41	0.25
30	20.52	0.3
35	26.87	0.35
40	33.3	0.4
45	39.71	0.45
50	46.05	0.5
55	52.29	0.54
60	58.43	0.59
65	64.45	0.63
70	70.36	0.68
75	76.16	0.72
80	81.84	0.76
90	92.91	0.86
100	103.7	0.9
110	114.2	1
120	124.4	1
130	134.5	1.1
140	144.5	1.2
150	154.5	1.2
160	164.5	1.3
170	174.7	1.3
180	184.9	1.4
186.7	191.9	1.5

System: propylferrocene; phases: Crystal 1
Fixed: Pressure, kPa = 101.325
Property: Molar entropy, J/K/mol (Crystal 1); method: Small (less than 1 g) adiabatic calorimetry
Temperature, K	Molar entropy, J/K/mol	uncertainty
186.7	198.5	1.5
190	201.9	1.5
200	211.9	1.6
210	221.8	1.6
220	231.5	1.7
230	241.1	1.7
240	250.7	1.8
250	260.4	1.9
260	270.4	1.9
270	281.7	2
276.03	286.6	2

System: propylferrocene; phases: Liquid
Fixed: Pressure, kPa = 101.325
Property: Molar entropy, J/K/mol (Liquid); method: Small (less than 1 g) adiabatic calorimetry
Temperature, K	Molar entropy, J/K/mol	uncertainty
276.03	332.7	2.3
280	337.2	2.3
290	348.1	2.4
298.15	356.9	2.4
300	358.9	2.5
310	369.5	2.5
320	380	2.6
330	390.3	2.6
340	400.5	2.7
350	410.5	2.8
360	420.5	2.8
370	430.3	2.9

System: propanoylferrocene; phases: Crystal, Liquid, Gas
Property: Molar enthalpy of transition or fusion, kJ/mol (Crystal); method: Adiabatic calorimetry
Molar enthalpy of transition or fusion, kJ/mol	uncertainty
12.74	0.34

System: propanoylferrocene; phases: Crystal, Liquid, Air at 1 atmosphere
Property: Molar enthalpy of transition or fusion, kJ/mol (Crystal); method: DSC
Molar enthalpy of transition or fusion, kJ/mol	uncertainty
14.67	1

System: propanoylferrocene; phases: Crystal, Liquid, Gas
Property: Triple point temperature, K (Crystal); method: Adiabatic calorimetry
Triple point temperature, K	uncertainty
276.83	1

System: propanoylferrocene; phases: Crystal, Liquid, Air at 1 atmosphere
Property: Normal melting temperature, K (Crystal); method: DTA
Normal melting temperature, K	uncertainty
278.2	2

System: propanoylferrocene; phases: Crystal
Fixed: Pressure, kPa = 101.325
Property: Molar heat capacity at constant pressure, J/K/mol (Crystal); method: Small (less than 1 g) adiabatic calorimetry
Temperature, K	Molar heat capacity at constant pressure, J/K/mol	uncertainty
10	4.607	0.097
15	11.25	0.18
20	18.61	0.25
25	26.27	0.28
30	34.16	0.27
35	42.07	0.31
40	49.63	0.35
45	56.35	0.38
50	61.76	0.41
55	66.08	0.43
60	70.11	0.45
65	74.36	0.47
70	79.11	0.5
75	84.35	0.52
80	89.8	0.55
90	99.79	0.6
100	108.7	0.6
110	116.7	0.7
120	124.2	0.7
130	131.6	0.7
140	138.9	0.8
150	146.4	0.8
160	154	0.8
170	161.9	0.8
180	170	0.9
190	178.3	0.9
200	186.8	0.9
210	195.4	1
220	204.1	1
230	212.9	1.1
240	221.9	1.1
250	231	1.1
260	240.3	1.2
270	250.1	1.2
280	260.5	1.2
290	271.7	1.3
298.15	280.7	1.3
300	282.7	1.3
310	293.8	1.4
311.13	295	1.4

System: propanoylferrocene; phases: Liquid
Fixed: Pressure, kPa = 101.325
Property: Molar heat capacity at constant pressure, J/K/mol (Liquid); method: Small (less than 1 g) adiabatic calorimetry
Temperature, K	Molar heat capacity at constant pressure, J/K/mol	uncertainty
311.13	347.6	1.6
320	353.3	1.6
330	359.7	1.6
340	365.7	1.7
350	372.9	1.7
360	378.5	1.7
370	381.9	1.7

System: propanoylferrocene; phases: Crystal
Fixed: Pressure, kPa = 101.325
Property: Molar enthalpy, kJ/mol (Crystal); method: Small (less than 1 g) adiabatic calorimetry
Temperature, K	Molar enthalpy, kJ/mol	uncertainty
10	0.01261	0.00043
15	0.05079	0.00104
20	0.1253	0.0019
25	0.2374	0.0029
30	0.3884	0.005
35	0.579	0.0065
40	0.8085	0.0081
45	1.074	0.01
50	1.37	0.012
55	1.69	0.014
60	2.03	0.016
65	2.391	0.019
70	2.775	0.021
75	3.183	0.023
80	3.618	0.026
90	4.567	0.036
100	5.61	0.042
110	6.737	0.049
120	7.942	0.056
130	9.222	0.063
140	10.58	0.07
150	12	0.08
160	13.5	0.09
170	15.08	0.09
180	16.74	0.1
190	18.48	0.11
200	20.31	0.12
210	22.22	0.13
220	24.22	0.14
230	26.3	0.15
240	28.47	0.16
250	30.74	0.17
260	33.09	0.18
270	35.55	0.2
280	38.1	0.21
290	40.76	0.22
298.15	43.01	0.23
300	43.53	0.23
310	46.41	0.25
311.13	46.75	0.25

System: propanoylferrocene; phases: Liquid
Fixed: Pressure, kPa = 101.325
Property: Molar enthalpy, kJ/mol (Liquid); method: Small (less than 1 g) adiabatic calorimetry
Temperature, K	Molar enthalpy, kJ/mol	uncertainty
311.13	65.91	0.33
320	69.01	0.34
330	72.58	0.36
340	76.21	0.37
350	79.9	0.39
360	83.66	0.41
370	87.46	0.42

System: propanoylferrocene; phases: Crystal
Fixed: Pressure, kPa = 101.325
Property: Molar entropy, J/K/mol (Crystal); method: Small (less than 1 g) adiabatic calorimetry
Temperature, K	Molar entropy, J/K/mol	uncertainty
10	1.703	0.072
15	4.709	0.13
20	8.946	0.192
25	13.92	0.24
30	19.4	0.3
35	25.27	0.34
40	31.38	0.39
45	37.63	0.43
50	43.86	0.48
55	49.95	0.53
60	55.87	0.57
65	61.65	0.61
70	67.33	0.66
75	72.97	0.7
80	78.59	0.74
90	89.75	0.84
100	100.8	0.9
110	111.5	1
120	122	1
130	132.2	1.1
140	142.2	1.2
150	152.1	1.2
160	161.8	1.3
170	171.3	1.3
180	180.8	1.4
190	190.2	1.4
200	199.6	1.5
210	208.9	1.6
220	218.2	1.6
230	227.5	1.7
240	236.7	1.7
250	246	1.8
260	255.2	1.8
270	264.4	1.9
280	273.7	1.9
290	283.1	2
298.15	290.7	2
300	292.5	2.1
310	301.9	2.1
311.13	303	2.1

System: propanoylferrocene; phases: Liquid
Fixed: Pressure, kPa = 101.325
Property: Molar entropy, J/K/mol (Liquid); method: Small (less than 1 g) adiabatic calorimetry
Temperature, K	Molar entropy, J/K/mol	uncertainty
311.13	364.6	2.5
320	374.4	2.5
330	385.4	2.6
340	396.2	2.7
350	406.9	2.7
360	417.5	2.8
370	427.9	2.9
