Measured thermophysical data. Effect of Cationic and Anionic Chain Lengths on Volumetric, Transport, and  Surface Properties of 1-Alkyl-3-methylimidazolium Alkylsulfate Ionic Liquids at  (298.15 and 313.15) K
Source: J. Chem. Eng. Data, 2009, 10.1021/je800863c
Compound 1: 1,3-dimethylimidazolium methylsulfate, C6H12N2O4S, InChI=1S/C5H9N2.CH4O4S/c1-6-3-4-7(2)5-6;1-5-6(2,3)4/h3-5H,1-2H3;1H3,(H,2,3,4)/q+1;/p-1
Compound 2: 1-butyl-3-methylimidazolium methyl sulfate, C9H18N2O4S, InChI=1S/C8H15N2.CH4O4S/c1-3-4-5-10-7-6-9(2)8-10;1-5-6(2,3)4/h6-8H,3-5H2,1-2H3;1H3,(H,2,3,4)/q+1;/p-1
Compound 3: 1-ethyl-3-methylimidazolium ethyl sulfate, C8H16N2O4S, InChI=1S/C6H11N2.C2H6O4S/c1-3-8-5-4-7(2)6-8;1-2-6-7(3,4)5/h4-6H,3H2,1-2H3;2H2,1H3,(H,3,4,5)/q+1;/p-1
Compound 4: 1-methyl-3-octylimidazolium methyl sulfate, C13H26N2O4S, InChI=1S/C12H23N2.CH4O4S/c1-3-4-5-6-7-8-9-14-11-10-13(2)12-14;1-5-6(2,3)4/h10-12H,3-9H2,1-2H3;1H3,(H,2,3,4)/q+1;/p-1
Compound 5: 1-butyl-3-methyl-1H-imidazolium ethyl sulfate, C10H20N2O4S, InChI=1S/C8H15N2.C2H6O4S/c1-3-4-5-10-7-6-9(2)8-10;1-2-6-7(3,4)5/h6-8H,3-5H2,1-2H3;2H2,1H3,(H,3,4,5)/q+1;/p-1
Compound 6: 1-methyl-3-octylimidazolium ethyl sulfate, C14H28N2O4S, InChI=1S/C12H23N2.C2H6O4S/c1-3-4-5-6-7-8-9-14-11-10-13(2)12-14;1-2-6-7(3,4)5/h10-12H,3-9H2,1-2H3;2H2,1H3,(H,3,4,5)/q+1;/p-1
Compound 7: 1-hexyl-3-methylimidazolium methyl sulfate, C11H22N2O4S, InChI=1S/C10H19N2.CH4O4S/c1-3-4-5-6-7-12-9-8-11(2)10-12;1-5-6(2,3)4/h8-10H,3-7H2,1-2H3;1H3,(H,2,3,4)/q+1;/p-1
Compound 8: 1-hexyl-3-methylimidazolium ethyl sulfate, C12H24N2O4S, InChI=1S/C10H19N2.C2H6O4S/c1-3-4-5-6-7-12-9-8-11(2)10-12;1-2-6-7(3,4)5/h8-10H,3-7H2,1-2H3;2H2,1H3,(H,3,4,5)/q+1;/p-1

System: 1,3-dimethylimidazolium methylsulfate; phases: Liquid
Fixed: Pressure, kPa = 101.325
Property: Mass density, kg/m3 (Liquid); method: Vibrating tube method
Temperature, K	Mass density, kg/m3	uncertainty
298.15	1328.38	1.59
313.15	1317.85	1.56

System: 1,3-dimethylimidazolium methylsulfate; phases: Liquid
Fixed: Pressure, kPa = 101.325
Property: Viscosity, Pa*s (Liquid); method: Falling or rolling sphere viscometry
Temperature, K	Viscosity, Pa*s	uncertainty
298.15	0.0755	0.0047
313.15	0.0408	0.0025

System: 1,3-dimethylimidazolium methylsulfate; phases: Liquid, Air at 1 atmosphere
Property: Surface tension liquid-gas, N/m (Liquid); method: Pendant drop shape
Temperature, K	Surface tension liquid-gas, N/m	uncertainty
298.15	0.05942	0.0008
313.15	0.05899	0.0008

System: 1-butyl-3-methylimidazolium methyl sulfate; phases: Liquid
Fixed: Pressure, kPa = 101.325
Property: Mass density, kg/m3 (Liquid); method: Vibrating tube method
Temperature, K	Mass density, kg/m3	uncertainty
298.15	1212.95	8.01
313.15	1199.75	7.83

System: 1-butyl-3-methylimidazolium methyl sulfate; phases: Liquid
Property: Viscosity, Pa*s (Liquid); method: Falling or rolling sphere viscometry
Temperature, K	Pressure, kPa	Viscosity, Pa*s	uncertainty
313.15	101.325	0.1042	0.0077

System: 1-butyl-3-methylimidazolium methyl sulfate; phases: Liquid, Air at 1 atmosphere
Property: Surface tension liquid-gas, N/m (Liquid); method: Pendant drop shape
Temperature, K	Surface tension liquid-gas, N/m	uncertainty
298.15	0.0433	0.00116
313.15	0.04209	0.00113

System: 1-ethyl-3-methylimidazolium ethyl sulfate; phases: Liquid
Fixed: Pressure, kPa = 101.325
Property: Mass density, kg/m3 (Liquid); method: Vibrating tube method
Temperature, K	Mass density, kg/m3	uncertainty
298.15	1236.26	8.32
313.15	1226.79	8.19

System: 1-ethyl-3-methylimidazolium ethyl sulfate; phases: Liquid
Fixed: Pressure, kPa = 101.325
Property: Viscosity, Pa*s (Liquid); method: Falling or rolling sphere viscometry
Temperature, K	Viscosity, Pa*s	uncertainty
298.15	0.0918	0.0062
313.15	0.0485	0.0032

System: 1-ethyl-3-methylimidazolium ethyl sulfate; phases: Liquid, Air at 1 atmosphere
Property: Surface tension liquid-gas, N/m (Liquid); method: Pendant drop shape
Temperature, K	Surface tension liquid-gas, N/m	uncertainty
313.15	0.04678	0.00125

System: 1-methyl-3-octylimidazolium methyl sulfate; phases: Liquid
Fixed: Pressure, kPa = 101.325
Property: Mass density, kg/m3 (Liquid); method: Vibrating tube method
Temperature, K	Mass density, kg/m3	uncertainty
298.15	1114.47	1.08
313.15	1104.64	1.06

System: 1-methyl-3-octylimidazolium methyl sulfate; phases: Liquid
Property: Viscosity, Pa*s (Liquid); method: Falling or rolling sphere viscometry
Temperature, K	Pressure, kPa	Viscosity, Pa*s	uncertainty
313.15	101.325	0.1806	0.0146

System: 1-methyl-3-octylimidazolium methyl sulfate; phases: Liquid, Air at 1 atmosphere
Property: Surface tension liquid-gas, N/m (Liquid); method: Pendant drop shape
Temperature, K	Surface tension liquid-gas, N/m	uncertainty
298.15	0.03041	0.00044
313.15	0.03003	0.00043

System: 1-butyl-3-methyl-1H-imidazolium ethyl sulfate; phases: Liquid
Fixed: Pressure, kPa = 101.325
Property: Mass density, kg/m3 (Liquid); method: Vibrating tube method
Temperature, K	Mass density, kg/m3	uncertainty
298.15	1198.93	1.27
313.15	1188.69	1.25

System: 1-butyl-3-methyl-1H-imidazolium ethyl sulfate; phases: Liquid
Fixed: Pressure, kPa = 101.325
Property: Viscosity, Pa*s (Liquid); method: Falling or rolling sphere viscometry
Temperature, K	Viscosity, Pa*s	uncertainty
298.15	0.3791	0.0331
313.15	0.164	0.012

System: 1-butyl-3-methyl-1H-imidazolium ethyl sulfate; phases: Liquid, Air at 1 atmosphere
Property: Surface tension liquid-gas, N/m (Liquid); method: Pendant drop shape
Temperature, K	Surface tension liquid-gas, N/m	uncertainty
298.15	0.03638	0.00051
313.15	0.03391	0.00048

System: 1-methyl-3-octylimidazolium ethyl sulfate; phases: Liquid
Fixed: Pressure, kPa = 101.325
Property: Mass density, kg/m3 (Liquid); method: Vibrating tube method
Temperature, K	Mass density, kg/m3	uncertainty
298.15	1115.93	1.08
313.15	1106.2	1.06

System: 1-methyl-3-octylimidazolium ethyl sulfate; phases: Liquid
Property: Viscosity, Pa*s (Liquid); method: Falling or rolling sphere viscometry
Temperature, K	Pressure, kPa	Viscosity, Pa*s	uncertainty
313.15	101.325	0.2752	0.0252

System: 1-methyl-3-octylimidazolium ethyl sulfate; phases: Liquid, Air at 1 atmosphere
Property: Surface tension liquid-gas, N/m (Liquid); method: Pendant drop shape
Temperature, K	Surface tension liquid-gas, N/m	uncertainty
298.15	0.02867	0.00041
313.15	0.02794	0.00041

System: 1-hexyl-3-methylimidazolium methyl sulfate; phases: Liquid
Fixed: Pressure, kPa = 101.325
Property: Mass density, kg/m3 (Liquid); method: Vibrating tube method
Temperature, K	Mass density, kg/m3	uncertainty
298.15	1168.83	1.2
313.15	1158.87	1.18

System: 1-hexyl-3-methylimidazolium methyl sulfate; phases: Liquid
Fixed: Pressure, kPa = 101.325
Property: Viscosity, Pa*s (Liquid); method: Falling or rolling sphere viscometry
Temperature, K	Viscosity, Pa*s	uncertainty
298.15	0.383	0.0335
313.15	0.1643	0.012

System: 1-hexyl-3-methylimidazolium methyl sulfate; phases: Liquid, Air at 1 atmosphere
Property: Surface tension liquid-gas, N/m (Liquid); method: Pendant drop shape
Temperature, K	Surface tension liquid-gas, N/m	uncertainty
298.15	0.03359	0.00048
313.15	0.03354	0.00048

System: 1-hexyl-3-methylimidazolium ethyl sulfate; phases: Liquid
Fixed: Pressure, kPa = 101.325
Property: Mass density, kg/m3 (Liquid); method: Vibrating tube method
Temperature, K	Mass density, kg/m3	uncertainty
298.15	1150.6	1.16
313.15	1140.6	1.14

System: 1-hexyl-3-methylimidazolium ethyl sulfate; phases: Liquid
Fixed: Pressure, kPa = 101.325
Property: Viscosity, Pa*s (Liquid); method: Falling or rolling sphere viscometry
Temperature, K	Viscosity, Pa*s	uncertainty
298.15	0.589	0.0574
313.15	0.236	0.0188

System: 1-hexyl-3-methylimidazolium ethyl sulfate; phases: Liquid, Air at 1 atmosphere
Property: Surface tension liquid-gas, N/m (Liquid); method: Pendant drop shape
Temperature, K	Surface tension liquid-gas, N/m	uncertainty
298.15	0.03177	0.00045
313.15	0.02963	0.00043
