Measured thermophysical data. Liquid-Liquid Equilibria for Systems of 1-Butanol + Water + 2,6-Diaminopyridine and 1-Butanol + Water + 2-Aminopyridine
Source: J. Chem. Eng. Data, 2009, 10.1021/je8007843
Compound 1: pyridine-2,6-diamine, C5H7N3, InChI=1S/C5H7N3/c6-4-2-1-3-5(7)8-4/h1-3H,(H4,6,7,8), purity 99.8%
Compound 2: 2-pyridinamine, C5H6N2, InChI=1S/C5H6N2/c6-5-3-1-2-4-7-5/h1-4H,(H2,6,7), purity 99.8%
Compound 3: butan-1-ol, C4H10O, InChI=1S/C4H10O/c1-2-3-4-5/h5H,2-4H2,1H3, purity 99.9%
Compound 4: water, H2O, InChI=1S/H2O/h1H2

System: pyridine-2,6-diamine; phases: Crystal, Liquid, Air at 1 atmosphere
Property: Normal melting temperature, K (Crystal); method: VISOBS
Normal melting temperature, K	uncertainty
394.8	1.2

System: 2-pyridinamine; phases: Crystal, Liquid, Air at 1 atmosphere
Property: Normal melting temperature, K (Crystal); method: VISOBS
Normal melting temperature, K	uncertainty
330.7	0.6

System: butan-1-ol + pyridine-2,6-diamine + water; phases: Liquid mixture 1, Liquid mixture 2
Fixed: Pressure, kPa = 101
Property: Mole fraction of butan-1-ol (Liquid mixture 1); method: Chromatography
Property: Mole fraction of pyridine-2,6-diamine (Liquid mixture 2); method: Chromatography
Property: Mole fraction of butan-1-ol (Liquid mixture 2); method: Chromatography
Temperature, K	Mole fraction of pyridine-2,6-diamine	Mole fraction of butan-1-ol	uncertainty	Mole fraction of pyridine-2,6-diamine	uncertainty	Mole fraction of butan-1-ol	uncertainty
289.55	0	0.02098	0.00127	0	1e-05	0.4953	
289.55	0.00084	0.02152	0.0013	0.004	0.004	0.4864	
289.55	0.00237	0.02167	0.00131	0.0112	0.00786	0.4679	
289.55	0.00279	0.02185	0.00132	0.0129	0.00629	0.4538	
289.55	0.00377	0.02221	0.00134	0.01727	0.00692	0.4418	
289.55	0.00463	0.02257	0.00137	0.02088	0.00541	0.4235	
289.55	0.00595	0.02294	0.00139	0.0255	0.00532	0.402	
289.55	0.0066	0.02315	0.00141	0.02795	0.00548	0.3899	
289.55	0.00709	0.02336	0.00142	0.02915	0.00752	0.3861	
289.55	0.00848	0.0239	0.00147	0.03166	0.00442	0.368	
289.55	0.01051	0.02516	0.00156	0.0379	0.00441	0.337	
289.55	0.01217	0.02582	0.0016	0.04174	0.00299	0.3136	
289.55	0.01369	0.0267	0.00166	0.0425	0.00258	0.2846	
289.55	0.01681	0.028	0.00174	0.04279	0.00259	0.2484	
300.65	0	0.0182	0.0011	0	1e-05	0.4944	
300.65	0.0005	0.0196	0.00118	0.003	0.003	0.4873	
300.65	0.00194	0.02087	0.00126	0.00926	0.00652	0.461	
300.65	0.00336	0.0218	0.00132	0.01501	0.00632	0.4359	
300.65	0.00408	0.02215	0.00137	0.0173	0.00505	0.4272	
300.65	0.00463	0.02235	0.00135	0.01954	0.00785	0.4137	
300.65	0.00595	0.0226	0.00137	0.02439	0.00764	0.4034	
300.65	0.00723	0.02288	0.0014	0.02803	0.00517	0.3921	
300.65	0.00826	0.0239	0.00153	0.03042	0.00369	0.3746	
300.65	0.00994	0.02557	0.00166	0.03569	0.00346	0.3382	
300.65	0.01139	0.02732	0.00168	0.03666	0.00298	0.3265	
300.65	0.01214	0.02821	0.00217	0.03874	0.00292	0.3077	
300.65	0.01358	0.03064	0.00196	0.04174	0.00279	0.2745	
300.65	0.01567	0.03072	0.00196	0.04273	0.0026	0.2514	
317.05	0	0.01652	0.001	0	1e-05	0.4713	
317.05	0.0007	0.0166	0.001	0.0033	0.0033	0.4591	
317.05	0.00134	0.01692	0.00102	0.00559	0.00559	0.4466	
317.05	0.0033	0.01779	0.0011	0.01208	0.00584	0.421	
317.05	0.00501	0.02133	0.00139	0.01828	0.00521	0.3914	
317.05	0.00582	0.02203	0.00135	0.02077	0.00971	0.3813	
317.05	0.0076	0.02303	0.00142	0.02771	0.00583	0.3687	
317.05	0.00941	0.02418	0.00151	0.03123	0.00338	0.3429	
317.05	0.01051	0.02491	0.00154	0.03354	0.00262	0.326	
317.05	0.01205	0.02557	0.00158	0.03485	0.00226	0.3014	
317.05	0.01345	0.02625	0.00182	0.0361	0.00251	0.2704	
317.05	0.01445	0.02833	0.00222	0.03842	0.00638	0.2623	
317.05	0.01544	0.02949	0.00186	0.04047	0.00413	0.2596	
317.05	0.01696	0.02988	0.00182	0.04095	0.00267	0.2523	

System: butan-1-ol + 2-pyridinamine + water; phases: Liquid mixture 1, Liquid mixture 2
Fixed: Pressure, kPa = 101
Property: Mole fraction of butan-1-ol (Liquid mixture 1); method: Chromatography
Property: Mole fraction of 2-pyridinamine (Liquid mixture 2); method: Chromatography
Property: Mole fraction of butan-1-ol (Liquid mixture 2); method: Chromatography
Temperature, K	Mole fraction of 2-pyridinamine	Mole fraction of butan-1-ol	uncertainty	Mole fraction of 2-pyridinamine	uncertainty	Mole fraction of butan-1-ol	uncertainty
295.85	0	0.01962	0.00119	0	1e-05	0.4902	
295.85	0.0012	0.02144	0.0013	0.01608	0.01206	0.4648	
295.85	0.00216	0.02177	0.00132	0.02535	0.00913	0.4323	
295.85	0.00334	0.02211	0.00134	0.03605	0.01291	0.4078	
295.85	0.0049	0.02221	0.00134	0.05128	0.01267	0.3824	
295.85	0.0072	0.02301	0.00139	0.06785	0.00897	0.3487	
295.85	0.00933	0.02329	0.00141	0.07892	0.00641	0.3103	
295.85	0.01081	0.02347	0.00142	0.08329	0.00537	0.2806	
295.85	0.01262	0.02392	0.0016	0.08553	0.00578	0.2506	
295.85	0.01469	0.02694	0.00176	0.09238	0.00655	0.2302	
295.85	0.01712	0.02742	0.00168	0.09719	0.00594	0.2042	
295.85	0.02073	0.02865	0.00175	0.09704	0.00587	0.1673	
295.85	0.02433	0.02906	0.00176	0.09616	0.00582	0.1392	
295.85	0.02781	0.02924	0.00177	0.09552	0.00578	0.1172	
307.15	0	0.01742	0.00105	0	1e-05	0.4776	
307.15	0.00335	0.02167	0.00132	0.02131	0.01278	0.4417	
307.15	0.00551	0.02198	0.00133	0.03488	0.00917	0.404	
307.15	0.00709	0.02217	0.00135	0.04226	0.00771	0.3917	
307.15	0.00905	0.02321	0.00146	0.05321	0.00607	0.3487	
307.15	0.01083	0.02483	0.00152	0.06117	0.00439	0.3162	
307.15	0.01484	0.02534	0.00157	0.06933	0.00483	0.2464	
307.15	0.01711	0.02729	0.00186	0.07274	0.0044	0.2222	
307.15	0.0194	0.02912	0.00187	0.07102	0.00431	0.1829	
307.15	0.02229	0.03002	0.00228	0.06762	0.0045	0.1553	
307.15	0.02702	0.03761	0.00277	0.06612	0.004	0.1234	
307.15	0.03048	0.0378	0.00231	0.06451	0.00454	0.09949	
307.15	0.03166	0.0386	0.00244	0.05736	0.00621	0.08755	
307.15	0.03457	0.03942	0.00245	0.0511	0.00372	0.07412	
319.65	0	0.01661	0.001	0	1e-05	0.4599	
319.65	0.00291	0.02172	0.00133	0.0241	0.01174	0.4318	
319.65	0.00469	0.0218	0.00132	0.03357	0.00692	0.3886	
319.65	0.00641	0.02191	0.00132	0.04469	0.00826	0.3607	
319.65	0.00841	0.02211	0.00134	0.05616	0.00547	0.3262	
319.65	0.01003	0.02301	0.00141	0.06277	0.00531	0.2799	
319.65	0.01349	0.02419	0.00153	0.07526	0.00553	0.241	
319.65	0.0155	0.02629	0.00187	0.07707	0.00481	0.2121	
319.65	0.01741	0.02839	0.00203	0.08071	0.00488	0.1843	
319.65	0.01957	0.03051	0.00296	0.07734	0.00475	0.1608	
319.65	0.0226	0.03841	0.00329	0.07613	0.00463	0.1325	
319.65	0.0248	0.03921	0.00249	0.07417	0.00464	0.1135	
319.65	0.02583	0.04019	0.00318	0.07006	0.00475	0.09904	
319.65	0.02684	0.04191	0.00373	0.0636	0.00445	0.08442	
