Measured thermophysical data. Solubilities of 1,3,5-Benzenetricarboxylic Acid and 1,3-Benzenedicarboxylic Acid in Acetic Acid + Water Solvent Mixtures
Source: J. Chem. Eng. Data, 2008, 10.1021/je800353s
Compound 1: 1,3,5-benzenetricarboxylic acid, C9H6O6, InChI=1S/C9H6O6/c10-7(11)4-1-5(8(12)13)3-6(2-4)9(14)15/h1-3H,(H,10,11)(H,12,13)(H,14,15), purity 98%
Compound 2: 1,3-benzenedicarboxylic acid, C8H6O4, InChI=1S/C8H6O4/c9-7(10)5-2-1-3-6(4-5)8(11)12/h1-4H,(H,9,10)(H,11,12), purity 99%
Compound 3: acetic acid, C2H4O2, InChI=1S/C2H4O2/c1-2(3)4/h1H3,(H,3,4)
Compound 4: water, H2O, InChI=1S/H2O/h1H2

System: acetic acid + 1,3,5-benzenetricarboxylic acid; phases: Liquid, Crystal
Fixed: Pressure, kPa = 101
Property: Mass ratio of solute to solvent (Liquid); method: Gas Chromatography
Temperature, K	Mass ratio of solute to solvent	uncertainty
313.2	0.004203	0.000252
323.2	0.004695	0.000282
333.2	0.005929	0.000357
343.2	0.007012	0.000422
353.2	0.008731	0.000526
363.2	0.011138	0.00067

System: acetic acid + 1,3-benzenedicarboxylic acid; phases: Liquid, Crystal
Fixed: Pressure, kPa = 101
Property: Mass ratio of solute to solvent (Liquid); method: Gas Chromatography
Temperature, K	Mass ratio of solute to solvent	uncertainty
313.2	0.003272	0.000197
323.2	0.003978	0.000239
333.2	0.005126	0.00031
343.2	0.007073	0.000426
353.2	0.008728	0.000526
363.2	0.011738	0.000707

System: acetic acid + 1,3,5-benzenetricarboxylic acid + water; phases: Liquid, Crystal
Fixed: Pressure, kPa = 101
Property: Mass ratio of solute to solvent of 1,3,5-benzenetricarboxylic acid (Liquid); method: Gas Chromatography
Temperature, K	Solvent: Mole fraction of acetic acid	Mass ratio of solute to solvent of 1,3,5-benzenetricarboxylic acid	uncertainty
313.2	0.411	0.013319	0.000803
313.2	0.546	0.009345	0.000562
313.2	0.728	0.00653	0.000393
313.2	1	0.004203	0.000252
323.2	0.411	0.016519	0.000996
323.2	0.546	0.012042	0.000725
323.2	0.728	0.008238	0.000496
323.2	1	0.004695	0.000282
333.2	0.411	0.022196	0.001336
333.2	0.546	0.015573	0.000937
333.2	0.728	0.010389	0.000625
333.2	1	0.005929	0.000357
343.2	0.411	0.026862	0.001617
343.2	0.546	0.019645	0.001184
343.2	0.728	0.012383	0.000746
343.2	1	0.007012	0.000422
353.2	0.411	0.034768	0.002096
353.2	0.546	0.027057	0.00163
353.2	0.728	0.016805	0.001011
353.2	1	0.008731	0.000526
363.2	0.411	0.047318	0.002851
363.2	0.546	0.033177	0.001997
363.2	0.728	0.020345	0.001227
363.2	1	0.011138	0.00067

System: acetic acid + 1,3-benzenedicarboxylic acid + water; phases: Liquid, Crystal
Fixed: Pressure, kPa = 101
Property: Mass ratio of solute to solvent of 1,3-benzenedicarboxylic acid (Liquid); method: Gas Chromatography
Temperature, K	Solvent: Mole fraction of acetic acid	Mass ratio of solute to solvent of 1,3-benzenedicarboxylic acid	uncertainty
313.2	0.31	0.002824	0.000172
313.2	0.412	0.003016	0.000183
313.2	0.544	0.003069	0.000186
313.2	0.727	0.003086	0.000187
313.2	1	0.003272	0.000197
323.2	0.31	0.004224	0.000256
323.2	0.412	0.004169	0.000252
323.2	0.544	0.004211	0.000254
323.2	0.727	0.004159	0.000251
323.2	1	0.003978	0.000239
333.2	0.31	0.005772	0.000348
333.2	0.412	0.005679	0.000343
333.2	0.544	0.005757	0.000348
333.2	0.727	0.005561	0.000336
333.2	1	0.005126	0.00031
343.2	0.31	0.007361	0.000445
343.2	0.412	0.007873	0.000475
343.2	0.544	0.008089	0.000489
343.2	0.727	0.007669	0.000463
343.2	1	0.007073	0.000426
353.2	0.31	0.010635	0.000642
353.2	0.412	0.010893	0.000658
353.2	0.544	0.011216	0.000676
353.2	0.727	0.010553	0.000637
353.2	1	0.008728	0.000526
363.2	0.31	0.014001	0.000843
363.2	0.412	0.015021	0.000905
363.2	0.544	0.014965	0.000901
363.2	0.727	0.013499	0.000812
363.2	1	0.011738	0.000707
