Measured thermophysical data. Volumetric Properties of Binary and Ternary Liquid Mixtures of 1-Propanol (1) + 2-Propanol (2) + Water (3) at Different Temperatures and Ambient Pressure (81.5 kPa)
Source: J. Chem. Eng. Data, 2008, 10.1021/je800158z
Compound 1: propan-1-ol, C3H8O, InChI=1S/C3H8O/c1-2-3-4/h4H,2-3H2,1H3
Compound 2: propan-2-ol, C3H8O, InChI=1S/C3H8O/c1-3(2)4/h3-4H,1-2H3
Compound 3: water, H2O, InChI=1S/H2O/h1H2

System: propan-1-ol; phases: Liquid
Fixed: Pressure, kPa = 81.5
Property: Mass density, kg/m3 (Liquid); method: VIBTUB::UFactor:4
Temperature, K	Mass density, kg/m3	uncertainty
293.15	803.59	0.44
303.15	795.53	0.45
313.15	787.38	0.46
323.15	778.92	0.48

System: propan-2-ol; phases: Liquid
Fixed: Pressure, kPa = 81.5
Property: Mass density, kg/m3 (Liquid); method: VIBTUB:UFactor:4
Temperature, K	Mass density, kg/m3	uncertainty
293.15	785.1	0.49
303.15	776.63	0.5
313.15	767.84	0.52
323.15	758.68	0.53

System: propan-1-ol + water; phases: Liquid
Fixed: Pressure, kPa = 81.5
Property: Mass density, kg/m3 (Liquid); method: VIBTUB:UFactor:4
Mole fraction of propan-1-ol	Temperature, K	Mass density, kg/m3	uncertainty
0	293.15	998.2	0.13
0	303.15	995.64	0.13
0	313.15	992.21	0.14
0	323.15	988.03	0.15
0.0401	293.15	980.98	0.16
0.0401	303.15	976.93	0.16
0.0401	313.15	972.23	0.17
0.0401	323.15	966.91	0.18
0.1202	293.15	947.94	0.21
0.1202	303.15	941.35	0.22
0.1202	313.15	934.48	0.23
0.1202	323.15	927.31	0.24
0.2	293.15	918.86	0.26
0.2	303.15	911.37	0.27
0.2	313.15	903.85	0.28
0.2	323.15	896.05	0.29
0.2798	293.15	895.6	0.29
0.2798	303.15	887.91	0.3
0.2798	313.15	879.98	0.32
0.2798	323.15	871.78	0.33
0.3599	293.15	877.53	0.32
0.3599	303.15	869.57	0.33
0.3599	313.15	861.38	0.35
0.3599	323.15	852.93	0.36
0.4399	293.15	863	0.34
0.4399	303.15	854.86	0.36
0.4399	313.15	846.49	0.37
0.4399	323.15	837.86	0.38
0.5197	293.15	851.12	0.36
0.5197	303.15	842.87	0.37
0.5197	313.15	834.37	0.39
0.5197	323.15	825.64	0.4
0.5986	293.15	840.82	0.38
0.5986	303.15	832.48	0.39
0.5986	313.15	823.92	0.4
0.5986	323.15	815.16	0.42
0.6792	293.15	831.69	0.39
0.6792	303.15	823.34	0.41
0.6792	313.15	814.76	0.42
0.6792	323.15	805.95	0.43
0.7485	293.15	824.84	0.4
0.7485	303.15	816.47	0.42
0.7485	313.15	807.91	0.43
0.7485	323.15	799.13	0.44
0.8383	293.15	816.74	0.42
0.8383	303.15	808.45	0.43
0.8383	313.15	799.96	0.44
0.8383	323.15	791.25	0.46
0.9052	293.15	811.17	0.43
0.9052	303.15	802.94	0.44
0.9052	313.15	794.55	0.45
0.9052	323.15	785.94	0.46
1	293.15	803.59	0.44
1	303.15	795.53	0.45
1	313.15	787.38	0.46
1	323.15	778.92	0.48

System: propan-2-ol + water; phases: Liquid
Fixed: Pressure, kPa = 81.5
Property: Mass density, kg/m3 (Liquid); method: VIBTUB:UFactor:4
Mole fraction of propan-2-ol	Temperature, K	Mass density, kg/m3	uncertainty
0	293.15	998.2	0.13
0	303.15	995.64	0.13
0	313.15	992.21	0.14
0	323.15	988.03	0.15
0.0399	293.15	979.61	0.16
0.0399	303.15	976	0.17
0.0399	313.15	971.52	0.17
0.0399	323.15	966.2	0.18
0.1197	293.15	948.88	0.21
0.1197	303.15	941.64	0.22
0.1197	313.15	934.18	0.23
0.1197	323.15	926.48	0.24
0.2017	293.15	916.63	0.26
0.2017	303.15	908.64	0.27
0.2017	313.15	900.42	0.29
0.2017	323.15	891.98	0.3
0.28	293.15	891.87	0.3
0.28	303.15	883.56	0.32
0.28	313.15	875.01	0.33
0.28	323.15	866.23	0.34
0.359	293.15	871.15	0.34
0.359	303.15	862.65	0.35
0.359	313.15	853.89	0.36
0.359	323.15	844.85	0.38
0.4384	293.15	854.11	0.37
0.4384	303.15	845.46	0.38
0.4384	313.15	836.52	0.39
0.4384	323.15	827.31	0.41
0.5204	293.15	839.36	0.39
0.5204	303.15	830.58	0.4
0.5204	313.15	821.54	0.42
0.5204	323.15	812.2	0.43
0.5995	293.15	827.56	0.41
0.5995	303.15	818.72	0.42
0.5995	313.15	809.6	0.44
0.5995	323.15	800.16	0.45
0.6801	293.15	817.14	0.43
0.6801	303.15	808.26	0.44
0.6801	313.15	799.08	0.46
0.6801	323.15	789.6	0.47
0.7552	293.15	808.56	0.45
0.7552	303.15	799.67	0.46
0.7552	313.15	790.48	0.47
0.7552	323.15	780.98	0.49
0.8403	293.15	799.95	0.46
0.8403	303.15	791.1	0.48
0.8403	313.15	781.97	0.49
0.8403	323.15	772.47	0.5
0.9225	293.15	792.03	0.48
0.9225	303.15	783.34	0.49
0.9225	313.15	774.33	0.5
0.9225	323.15	764.97	0.52
1	293.15	785.1	0.49
1	303.15	776.63	0.5
1	313.15	767.84	0.52
1	323.15	758.68	0.53

System: propan-2-ol + propan-1-ol + water; phases: Liquid
Fixed: Pressure, kPa = 81.5
Property: Mass density, kg/m3 (Liquid); method: VIBTUB:UFactor:4
Mole fraction of propan-1-ol	Mole fraction of propan-2-ol	Temperature, K	Mass density, kg/m3	uncertainty
0.0995	0.3999	293.15	845.18	0.38
0.0995	0.3999	303.15	836.54	0.39
0.0995	0.3999	313.15	827.65	0.41
0.0995	0.3999	323.15	818.45	0.42
0.0996	0.5004	293.15	829.95	0.4
0.0996	0.5004	303.15	821.21	0.42
0.0996	0.5004	313.15	812.19	0.43
0.0996	0.5004	323.15	802.88	0.45
0.0996	0.7002	293.15	805.88	0.45
0.0996	0.7002	303.15	797.1	0.46
0.0996	0.7002	313.15	788.02	0.48
0.0996	0.7002	323.15	778.65	0.49
0.0997	0.1998	293.15	886.93	0.31
0.0997	0.1998	303.15	878.82	0.32
0.0997	0.1998	313.15	870.44	0.33
0.0997	0.1998	323.15	861.78	0.35
0.0997	0.8001	293.15	796.14	0.47
0.0997	0.8001	303.15	787.46	0.48
0.0997	0.8001	313.15	778.5	0.49
0.0997	0.8001	323.15	769.23	0.51
0.1001	0.0998	293.15	917.47	0.26
0.1001	0.0998	303.15	909.86	0.27
0.1001	0.0998	313.15	902.01	0.28
0.1001	0.0998	323.15	893.93	0.3
0.1002	0.3001	293.15	863.41	0.35
0.1002	0.3001	303.15	854.97	0.36
0.1002	0.3001	313.15	846.27	0.37
0.1002	0.3001	323.15	837.3	0.39
0.1047	0.5965	293.15	817.05	0.43
0.1047	0.5965	303.15	808.25	0.44
0.1047	0.5965	313.15	799.18	0.45
0.1047	0.5965	323.15	789.81	0.47
0.199	0.7013	293.15	798.08	0.46
0.199	0.7013	303.15	789.49	0.47
0.199	0.7013	313.15	780.61	0.49
0.199	0.7013	323.15	771.43	0.5
0.1996	0.4003	293.15	832.16	0.4
0.1996	0.4003	303.15	823.5	0.41
0.1996	0.4003	313.15	814.58	0.43
0.1996	0.4003	323.15	805.38	0.44
0.2	0.2	293.15	865.92	0.34
0.2	0.2	303.15	857.59	0.35
0.2	0.2	313.15	849.03	0.37
0.2	0.2	323.15	840.19	0.38
0.2001	0.5998	293.15	807.92	0.44
0.2001	0.5998	303.15	799.21	0.46
0.2001	0.5998	313.15	790.24	0.47
0.2001	0.5998	323.15	780.97	0.48
0.2002	0.3001	293.15	846.84	0.37
0.2002	0.3001	303.15	838.34	0.39
0.2002	0.3001	313.15	829.58	0.4
0.2002	0.3001	323.15	820.55	0.41
0.2002	0.4996	293.15	819.16	0.42
0.2002	0.4996	303.15	810.44	0.43
0.2002	0.4996	313.15	801.46	0.45
0.2002	0.4996	323.15	792.19	0.46
0.2008	0.1003	293.15	888.65	0.31
0.2008	0.1003	303.15	880.69	0.32
0.2008	0.1003	313.15	872.49	0.33
0.2008	0.1003	323.15	864.02	0.34
0.2997	0.4004	293.15	821.23	0.42
0.2997	0.4004	303.15	812.58	0.43
0.2997	0.4004	313.15	803.69	0.44
0.2997	0.4004	323.15	794.53	0.46
0.2998	0.2997	293.15	834.45	0.39
0.2998	0.2997	303.15	825.88	0.41
0.2998	0.2997	313.15	817.07	0.42
0.2998	0.2997	323.15	807.97	0.43
0.2998	0.5	293.15	809.48	0.44
0.2998	0.5	303.15	800.86	0.45
0.2998	0.5	313.15	791.98	0.46
0.2998	0.5	323.15	782.82	0.48
0.2999	0.2	293.15	849.5	0.37
0.2999	0.2	303.15	841.07	0.38
0.2999	0.2	313.15	832.4	0.39
0.2999	0.2	323.15	823.47	0.41
0.3002	0.1002	293.15	866.98	0.34
0.3002	0.1002	303.15	858.79	0.35
0.3002	0.1002	313.15	850.36	0.36
0.3002	0.1002	323.15	841.67	0.38
0.3023	0.598	293.15	800.13	0.45
0.3023	0.598	303.15	791.59	0.47
0.3023	0.598	313.15	782.79	0.48
0.3023	0.598	323.15	773.73	0.5
0.399	0.2016	293.15	836.27	0.39
0.399	0.2016	303.15	827.77	0.4
0.399	0.2016	313.15	819.04	0.42
0.399	0.2016	323.15	810.05	0.43
0.3992	0.4996	293.15	802.17	0.45
0.3992	0.4996	303.15	793.69	0.46
0.3992	0.4996	313.15	784.97	0.48
0.3992	0.4996	323.15	775.97	0.49
0.3998	0.3001	293.15	823.45	0.41
0.3998	0.3001	303.15	814.88	0.42
0.3998	0.3001	313.15	806.07	0.44
0.3998	0.3001	323.15	797.03	0.45
0.4	0.0999	293.15	851.73	0.36
0.4	0.0999	303.15	843.41	0.38
0.4	0.0999	313.15	834.85	0.39
0.4	0.0999	323.15	826.01	0.4
0.4	0.3999	293.15	812.14	0.43
0.4	0.3999	303.15	803.57	0.44
0.4	0.3999	313.15	794.76	0.46
0.4	0.3999	323.15	785.66	0.47
0.4975	0.1048	293.15	838.15	0.38
0.4975	0.1048	303.15	829.75	0.4
0.4975	0.1048	313.15	821.1	0.41
0.4975	0.1048	323.15	812.21	0.42
0.4995	0.4	293.15	804.07	0.44
0.4995	0.4	303.15	795.65	0.46
0.4995	0.4	313.15	787	0.47
0.4995	0.4	323.15	778.09	0.48
0.5	0.3004	293.15	813.92	0.43
0.5	0.3004	303.15	805.42	0.44
0.5	0.3004	313.15	796.7	0.45
0.5	0.3004	323.15	787.72	0.47
0.5003	0.1994	293.15	825.63	0.41
0.5003	0.1994	303.15	817.14	0.42
0.5003	0.1994	313.15	808.42	0.43
0.5003	0.1994	323.15	799.44	0.45
0.6001	0.3	293.15	805.93	0.44
0.6001	0.3	303.15	797.57	0.45
0.6001	0.3	313.15	788.99	0.46
0.6001	0.3	323.15	780.17	0.48
0.6002	0.2001	293.15	816.12	0.42
0.6002	0.2001	303.15	807.67	0.43
0.6002	0.2001	313.15	799.01	0.45
0.6002	0.2001	323.15	790.12	0.46
0.6004	0.0996	293.15	827.55	0.4
0.6004	0.0996	303.15	819.11	0.41
0.6004	0.0996	313.15	810.46	0.43
0.6004	0.0996	323.15	801.59	0.44
0.7005	0.0999	293.15	818.1	0.42
0.7005	0.0999	303.15	809.7	0.43
0.7005	0.0999	313.15	801.1	0.44
0.7005	0.0999	323.15	792.29	0.46
0.7788	0.1485	293.15	807.66	0.43
0.7788	0.1485	303.15	799.34	0.45
0.7788	0.1485	313.15	790.83	0.46
0.7788	0.1485	323.15	782.1	0.47
0.8021	0.1001	293.15	809.52	0.43
0.8021	0.1001	303.15	801.25	0.44
0.8021	0.1001	313.15	792.8	0.46
0.8021	0.1001	323.15	784.13	0.47
