Measured thermophysical data. Solubility of 1,6,6-Trimethyl-6,7,8,9-tetrahydrophenanthro[1,2-b]furan-10,11-dione in Four Organic Solvents from (283.2 to 323.3) K
Source: J. Chem. Eng. Data, 2008, 10.1021/je800238y
Compound 1: ethyl acetate, C4H8O2, InChI=1S/C4H8O2/c1-3-6-4(2)5/h3H2,1-2H3
Compound 2: phenanthro[1,2-b]furan-10,11-dione, 6,7,8,9-tetrahydro-1,6,6-trimethyl-, C19H18O3, InChI=1S/C19H18O3/c1-10-9-22-18-12-6-7-13-11(5-4-8-19(13,2)3)15(12)17(21)16(20)14(10)18/h6-7,9H,4-5,8H2,1-3H3
Compound 3: ethanol, C2H6O, InChI=1S/C2H6O/c1-2-3/h3H,2H2,1H3
Compound 4: methanol, CH4O, InChI=1S/CH4O/c1-2/h2H,1H3
Compound 5: acetone, C3H6O, InChI=1S/C3H6O/c1-3(2)4/h1-2H3

System: ethanol + phenanthro[1,2-b]furan-10,11-dione, 6,7,8,9-tetrahydro-1,6,6-trimethyl-; phases: Liquid, Crystal
Fixed: Pressure, kPa = 101
Property: Mole fraction of phenanthro[1,2-b]furan-10,11-dione, 6,7,8,9-tetrahydro-1,6,6-trimethyl- (Liquid); method: CHROM:UFactor:4
Temperature, K	Mole fraction of phenanthro[1,2-b]furan-10,11-dione, 6,7,8,9-tetrahydro-1,6,6-trimethyl-	uncertainty
283.2	0.00249	0.00015
293.3	0.00295	0.00018
303.1	0.00389	0.00023
308.2	0.00441	0.00027
318	0.00661	0.0004
323.3	0.00852	0.00052

System: methanol + phenanthro[1,2-b]furan-10,11-dione, 6,7,8,9-tetrahydro-1,6,6-trimethyl-; phases: Liquid, Crystal
Fixed: Pressure, kPa = 101
Property: Mole fraction of phenanthro[1,2-b]furan-10,11-dione, 6,7,8,9-tetrahydro-1,6,6-trimethyl- (Liquid); method: CHROM:UFactor:4
Temperature, K	Mole fraction of phenanthro[1,2-b]furan-10,11-dione, 6,7,8,9-tetrahydro-1,6,6-trimethyl-	uncertainty
283.2	0.00207	0.00018
293.3	0.00258	0.00022
303.1	0.00363	0.00031
308.2	0.00421	0.00036
318	0.0063	0.00054
323.3	0.00801	0.00069

System: acetone + phenanthro[1,2-b]furan-10,11-dione, 6,7,8,9-tetrahydro-1,6,6-trimethyl-; phases: Liquid, Crystal
Fixed: Pressure, kPa = 101
Property: Mole fraction of phenanthro[1,2-b]furan-10,11-dione, 6,7,8,9-tetrahydro-1,6,6-trimethyl- (Liquid); method: CHROM:UFactor:4
Temperature, K	Mole fraction of phenanthro[1,2-b]furan-10,11-dione, 6,7,8,9-tetrahydro-1,6,6-trimethyl-	uncertainty
283.2	0.0096	0.00046
293.3	0.01211	0.00058
303.1	0.01372	0.00066
308.2	0.01553	0.00075
318	0.01965	0.00095
323.3	0.02392	0.00117

System: ethyl acetate + phenanthro[1,2-b]furan-10,11-dione, 6,7,8,9-tetrahydro-1,6,6-trimethyl-; phases: Liquid, Crystal
Fixed: Pressure, kPa = 101
Property: Mole fraction of phenanthro[1,2-b]furan-10,11-dione, 6,7,8,9-tetrahydro-1,6,6-trimethyl- (Liquid); method: CHROM:UFactor:8
Temperature, K	Mole fraction of phenanthro[1,2-b]furan-10,11-dione, 6,7,8,9-tetrahydro-1,6,6-trimethyl-	uncertainty
283.2	0.00809	0.00051
293.3	0.01128	0.00071
303.1	0.01281	0.00081
308.2	0.01482	0.00094
318	0.01833	0.00116
323.3	0.02091	0.00133
