Measured thermophysical data. Paramagnetic Ionic Liquid 1-Butyl-3-methylimidazolium  Tetrabromidocobaltate(II): Activity Coefficients at Infinite Dilution of Organic  Solutes and Crystal Structure
Source: J. Chem. Eng. Data, 2009, 10.1021/je800846j
Compound 1: 3-butyl-1-methyl-1H-imidazolium tetrabromocobaltate(II), C16H30Br4CoN4, InChI=1S/2C8H15N2.4BrH.Co/c2*1-3-4-5-10-7-6-9(2)8-10;;;;;/h2*6-8H,3-5H2,1-2H3;4*1H;/q2*+1;;;;;+2/p-4
Compound 2: methanol, CH4O, InChI=1S/CH4O/c1-2/h2H,1H3, purity 99.9%
Compound 3: ethanol, C2H6O, InChI=1S/C2H6O/c1-2-3/h3H,2H2,1H3, purity 99.9%
Compound 4: propan-1-ol, C3H8O, InChI=1S/C3H8O/c1-2-3-4/h4H,2-3H2,1H3, purity 99.9%
Compound 5: butan-1-ol, C4H10O, InChI=1S/C4H10O/c1-2-3-4-5/h5H,2-4H2,1H3, purity 99.9%
Compound 6: pentan-1-ol, C5H12O, InChI=1S/C5H12O/c1-2-3-4-5-6/h6H,2-5H2,1H3, purity 99.9%
Compound 7: hexan-1-ol, C6H14O, InChI=1S/C6H14O/c1-2-3-4-5-6-7/h7H,2-6H2,1H3, purity 99.9%
Compound 8: benzene, C6H6, InChI=1S/C6H6/c1-2-4-6-5-3-1/h1-6H, purity 99.9%
Compound 9: toluene, C7H8, InChI=1S/C7H8/c1-7-5-3-2-4-6-7/h2-6H,1H3, purity 99.9%
Compound 10: ethylbenzene, C8H10, InChI=1S/C8H10/c1-2-8-6-4-3-5-7-8/h3-7H,2H2,1H3, purity 99.9%
Compound 11: propylbenzene, C9H12, InChI=1S/C9H12/c1-2-6-9-7-4-3-5-8-9/h3-5,7-8H,2,6H2,1H3, purity 99.9%
Compound 12: butylbenzene, C10H14, InChI=1S/C10H14/c1-2-3-7-10-8-5-4-6-9-10/h4-6,8-9H,2-3,7H2,1H3, purity 99.9%
Compound 13: pentylbenzene, C11H16, InChI=1S/C11H16/c1-2-3-5-8-11-9-6-4-7-10-11/h4,6-7,9-10H,2-3,5,8H2,1H3, purity 99.9%
Compound 14: octane, C8H18, InChI=1S/C8H18/c1-3-5-7-8-6-4-2/h3-8H2,1-2H3, purity 99.9%
Compound 15: nonane, C9H20, InChI=1S/C9H20/c1-3-5-7-9-8-6-4-2/h3-9H2,1-2H3, purity 99.9%
Compound 16: decane, C10H22, InChI=1S/C10H22/c1-3-5-7-9-10-8-6-4-2/h3-10H2,1-2H3, purity 99.9%
Compound 17: undecane, C11H24, InChI=1S/C11H24/c1-3-5-7-9-11-10-8-6-4-2/h3-11H2,1-2H3, purity 99.9%
Compound 18: dodecane, C12H26, InChI=1S/C12H26/c1-3-5-7-9-11-12-10-8-6-4-2/h3-12H2,1-2H3, purity 99.9%
Compound 19: oct-1-ene, C8H16, InChI=1S/C8H16/c1-3-5-7-8-6-4-2/h3H,1,4-8H2,2H3, purity 99.9%
Compound 20: 1-decene, C10H20, InChI=1S/C10H20/c1-3-5-7-9-10-8-6-4-2/h3H,1,4-10H2,2H3, purity 99.9%

System: methanol + 3-butyl-1-methyl-1H-imidazolium tetrabromocobaltate(II); phases: Liquid
Fixed: Pressure, kPa = 101
Fixed: Mole fraction of methanol = 0
Property: Activity coefficient of methanol (Liquid); method: Chromatography
Temperature, K	Activity coefficient of methanol	uncertainty
308.15	0.66	0.05
313.15	0.6	0.04
323.15	0.58	0.04
333.15	0.56	0.04

System: ethanol + 3-butyl-1-methyl-1H-imidazolium tetrabromocobaltate(II); phases: Liquid
Fixed: Pressure, kPa = 101
Fixed: Mole fraction of ethanol = 0
Property: Activity coefficient of ethanol (Liquid); method: Chromatography
Temperature, K	Activity coefficient of ethanol	uncertainty
308.15	0.93	0.06
313.15	0.86	0.06
323.15	0.79	0.05
333.15	0.75	0.05

System: propan-1-ol + 3-butyl-1-methyl-1H-imidazolium tetrabromocobaltate(II); phases: Liquid
Fixed: Pressure, kPa = 101
Fixed: Mole fraction of propan-1-ol = 0
Property: Activity coefficient of propan-1-ol (Liquid); method: Chromatography
Temperature, K	Activity coefficient of propan-1-ol	uncertainty
323.15	1.32	0.09
333.15	1.16	0.07
353.15	1	0.06
373.15	0.8	0.05

System: butan-1-ol + 3-butyl-1-methyl-1H-imidazolium tetrabromocobaltate(II); phases: Liquid
Fixed: Pressure, kPa = 101
Fixed: Mole fraction of butan-1-ol = 0
Property: Activity coefficient of butan-1-ol (Liquid); method: Chromatography
Temperature, K	Activity coefficient of butan-1-ol	uncertainty
323.15	1.53	0.1
353.15	1.3	0.08
373.15	1.06	0.07
393.15	0.87	0.06

System: pentan-1-ol + 3-butyl-1-methyl-1H-imidazolium tetrabromocobaltate(II); phases: Liquid
Fixed: Pressure, kPa = 101
Fixed: Mole fraction of pentan-1-ol = 0
Property: Activity coefficient of pentan-1-ol (Liquid); method: Chromatography
Temperature, K	Activity coefficient of pentan-1-ol	uncertainty
353.15	1.91	0.13
373.15	1.56	0.1
393.15	1.34	0.09
413.15	1.18	0.08

System: hexan-1-ol + 3-butyl-1-methyl-1H-imidazolium tetrabromocobaltate(II); phases: Liquid
Fixed: Pressure, kPa = 101
Fixed: Mole fraction of hexan-1-ol = 0
Property: Activity coefficient of hexan-1-ol (Liquid); method: Chromatography
Temperature, K	Activity coefficient of hexan-1-ol	uncertainty
353.15	2.8	0.19
363.15	2.52	0.17
373.15	2.31	0.16
393.15	2.04	0.14

System: benzene + 3-butyl-1-methyl-1H-imidazolium tetrabromocobaltate(II); phases: Liquid
Fixed: Pressure, kPa = 101
Fixed: Mole fraction of benzene = 0
Property: Activity coefficient of benzene (Liquid); method: Chromatography
Temperature, K	Activity coefficient of benzene	uncertainty
308.15	1.57	0.1
313.15	1.66	0.11
323.15	1.79	0.12

System: toluene + 3-butyl-1-methyl-1H-imidazolium tetrabromocobaltate(II); phases: Liquid
Fixed: Pressure, kPa = 101
Fixed: Mole fraction of toluene = 0
Property: Activity coefficient of toluene (Liquid); method: Chromatography
Temperature, K	Activity coefficient of toluene	uncertainty
308.15	2.78	0.19
313.15	2.73	0.19
323.15	2.67	0.18
333.15	2.58	0.18

System: ethylbenzene + 3-butyl-1-methyl-1H-imidazolium tetrabromocobaltate(II); phases: Liquid
Fixed: Pressure, kPa = 101
Fixed: Mole fraction of ethylbenzene = 0
Property: Activity coefficient of ethylbenzene (Liquid); method: Chromatography
Temperature, K	Activity coefficient of ethylbenzene	uncertainty
323.15	4.69	0.32
333.15	4.54	0.31
353.15	4.28	0.29
373.15	3.96	0.27

System: propylbenzene + 3-butyl-1-methyl-1H-imidazolium tetrabromocobaltate(II); phases: Liquid
Fixed: Pressure, kPa = 101
Fixed: Mole fraction of propylbenzene = 0
Property: Activity coefficient of propylbenzene (Liquid); method: Chromatography
Temperature, K	Activity coefficient of propylbenzene	uncertainty
313.15	8.52	0.58
333.15	8.05	0.55
353.15	7.69	0.52
373.15	6.87	0.47

System: butylbenzene + 3-butyl-1-methyl-1H-imidazolium tetrabromocobaltate(II); phases: Liquid
Fixed: Pressure, kPa = 101
Fixed: Mole fraction of butylbenzene = 0
Property: Activity coefficient of butylbenzene (Liquid); method: Chromatography
Temperature, K	Activity coefficient of butylbenzene	uncertainty
313.15	13.74	0.94
333.15	12.47	0.85
353.15	11.83	0.81
373.15	10.89	0.74

System: pentylbenzene + 3-butyl-1-methyl-1H-imidazolium tetrabromocobaltate(II); phases: Liquid
Fixed: Pressure, kPa = 101
Fixed: Mole fraction of pentylbenzene = 0
Property: Activity coefficient of pentylbenzene (Liquid); method: Chromatography
Temperature, K	Activity coefficient of pentylbenzene	uncertainty
333.15	19.9	1.36
343.15	19.09	1.3
353.15	18.62	1.27
373.15	17.17	1.17

System: octane + 3-butyl-1-methyl-1H-imidazolium tetrabromocobaltate(II); phases: Liquid
Fixed: Pressure, kPa = 101
Fixed: Mole fraction of octane = 0
Property: Activity coefficient of octane (Liquid); method: Chromatography
Temperature, K	Activity coefficient of octane	uncertainty
308.15	43.16	2.95
313.15	43.13	2.95
323.15	38.69	2.65
333.15	35.29	2.41

System: nonane + 3-butyl-1-methyl-1H-imidazolium tetrabromocobaltate(II); phases: Liquid
Fixed: Pressure, kPa = 101
Fixed: Mole fraction of nonane = 0
Property: Activity coefficient of nonane (Liquid); method: Chromatography
Temperature, K	Activity coefficient of nonane	uncertainty
308.15	57	3.9
313.15	54.47	3.73
323.15	50.03	3.43
333.15	45.14	3.09
343.15	40.79	2.79

System: decane + 3-butyl-1-methyl-1H-imidazolium tetrabromocobaltate(II); phases: Liquid
Fixed: Pressure, kPa = 101
Fixed: Mole fraction of decane = 0
Property: Activity coefficient of decane (Liquid); method: Chromatography
Temperature, K	Activity coefficient of decane	uncertainty
313.15	68.91	4.72
323.15	61.69	4.23
333.15	56.81	3.89
343.15	53.83	3.69
353.15	43.85	3

System: undecane + 3-butyl-1-methyl-1H-imidazolium tetrabromocobaltate(II); phases: Liquid
Fixed: Pressure, kPa = 101
Fixed: Mole fraction of undecane = 0
Property: Activity coefficient of undecane (Liquid); method: Chromatography
Temperature, K	Activity coefficient of undecane	uncertainty
333.15	70.22	4.81
343.15	66.33	4.54
353.15	59.23	4.06
363.15	51.29	3.51
373.15	43.59	2.98

System: dodecane + 3-butyl-1-methyl-1H-imidazolium tetrabromocobaltate(II); phases: Liquid
Fixed: Pressure, kPa = 101
Fixed: Mole fraction of dodecane = 0
Property: Activity coefficient of dodecane (Liquid); method: Chromatography
Temperature, K	Activity coefficient of dodecane	uncertainty
343.15	82.69	5.67
353.15	74.06	5.07
363.15	65.6	4.49
373.15	56.2	3.85
383.15	48.46	3.32

System: oct-1-ene + 3-butyl-1-methyl-1H-imidazolium tetrabromocobaltate(II); phases: Liquid
Fixed: Pressure, kPa = 101
Fixed: Mole fraction of oct-1-ene = 0
Property: Activity coefficient of oct-1-ene (Liquid); method: Chromatography
Temperature, K	Activity coefficient of oct-1-ene	uncertainty
313.15	23.68	1.62
323.15	21.46	1.47
333.15	20.03	1.37
343.15	19.46	1.33
353.15	18.08	1.24

System: 1-decene + 3-butyl-1-methyl-1H-imidazolium tetrabromocobaltate(II); phases: Liquid
Fixed: Pressure, kPa = 101
Fixed: Mole fraction of 1-decene = 0
Property: Activity coefficient of 1-decene (Liquid); method: Chromatography
Temperature, K	Activity coefficient of 1-decene	uncertainty
313.15	43.77	3
323.15	40.7	2.79
333.15	37.79	2.59
343.15	35.91	2.46
353.15	33.36	2.28
