Measured thermophysical data. Heat Capacities and Excess Enthalpies of 1-Ethyl-3-methylimidazolium-Based Ionic Liquids and Water
Source: J. Chem. Eng. Data, 2008, 10.1021/je800248w
Compound 1: water, H2O, InChI=1S/H2O/h1H2
Compound 2: 1-ethyl-3-methylimidazolium ethyl sulfate, C8H16N2O4S, InChI=1S/C6H11N2.C2H6O4S/c1-3-8-5-4-7(2)6-8;1-2-6-7(3,4)5/h4-6H,3H2,1-2H3;2H2,1H3,(H,3,4,5)/q+1;/p-1
Compound 3: 1-ethyl-3-methylimidazolium trifluoromethanesulfonate, C7H11F3N2O3S, InChI=1S/C6H11N2.CHF3O3S/c1-3-8-5-4-7(2)6-8;2-1(3,4)8(5,6)7/h4-6H,3H2,1-2H3;(H,5,6,7)/q+1;/p-1
Compound 4: 1-ethyl-3-methylimidazolium trifluoroacetate, C8H11F3N2O2, InChI=1S/C6H11N2.C2HF3O2/c1-3-8-5-4-7(2)6-8;3-2(4,5)1(6)7/h4-6H,3H2,1-2H3;(H,6,7)/q+1;/p-1

System: water; phases: Liquid
Fixed: Pressure, kPa = 101.3
Property: Molar heat capacity at constant pressure, J/K/mol (Liquid); method: Small sample (50 mg) DSC
Temperature, K	Molar heat capacity at constant pressure, J/K/mol	uncertainty
283.15	75	6
293.15	75	6
303.15	75	6
313.15	75	6
323.15	75	6
333.15	75	6
343.15	75	6

System: 1-ethyl-3-methylimidazolium ethyl sulfate; phases: Liquid
Fixed: Pressure, kPa = 101.3
Property: Molar heat capacity at constant pressure, J/K/mol (Liquid); method: Small sample (50 mg) DSC
Temperature, K	Molar heat capacity at constant pressure, J/K/mol	uncertainty
283.15	365	30
293.15	371	30
303.15	380	31
313.15	386	31
323.15	392	32
333.15	397	32
343.15	403	33

System: 1-ethyl-3-methylimidazolium trifluoromethanesulfonate; phases: Liquid
Fixed: Pressure, kPa = 101.3
Property: Molar heat capacity at constant pressure, J/K/mol (Liquid); method: Small sample (50 mg) DSC
Temperature, K	Molar heat capacity at constant pressure, J/K/mol	uncertainty
283.15	353	29
293.15	358	29
303.15	366	30
313.15	371	30
323.15	376	31
333.15	380	31
343.15	384	31

System: 1-ethyl-3-methylimidazolium trifluoroacetate; phases: Liquid
Fixed: Pressure, kPa = 101.3
Property: Molar heat capacity at constant pressure, J/K/mol (Liquid); method: Small sample (50 mg) DSC
Temperature, K	Molar heat capacity at constant pressure, J/K/mol	uncertainty
283.15	308	25
293.15	313	25
303.15	320	26
313.15	324	26
323.15	328	27
333.15	332	27
343.15	337	27

System: water + 1-ethyl-3-methylimidazolium ethyl sulfate; phases: Liquid
Fixed: Pressure, kPa = 101.3
Property: Molar heat capacity at constant pressure, J/K/mol (Liquid); method: Small sample (50 mg) DSC
Temperature, K	Mole fraction of water	Molar heat capacity at constant pressure, J/K/mol	uncertainty
283.15	0	365	30
283.15	0.212	294	24
283.15	0.4079	235	19
283.15	0.5925	179	15
283.15	0.766	142	12
283.15	0.8495	115	9
283.15	0.9282	95	8
283.15	0.9684	83	7
283.15	0.9916	78	6
283.15	1	75	6
293.15	0	371	30
293.15	0.212	297	24
293.15	0.4079	239	19
293.15	0.5925	184	15
293.15	0.766	145	12
293.15	0.8495	118	10
293.15	0.9282	96	8
293.15	0.9684	85	7
293.15	0.9916	78	6
293.15	1	75	6
303.15	0	380	31
303.15	0.212	304	25
303.15	0.4079	245	20
303.15	0.5925	190	15
303.15	0.766	149	12
303.15	0.8495	122	10
303.15	0.9282	98	8
303.15	0.9684	86	7
303.15	0.9916	79	6
303.15	1	75	6
313.15	0	386	31
313.15	0.212	309	25
313.15	0.4079	249	20
313.15	0.5925	193	16
313.15	0.766	152	12
313.15	0.8495	124	10
313.15	0.9282	100	8
313.15	0.9684	87	7
313.15	0.9916	79	6
313.15	1	75	6
323.15	0	392	32
323.15	0.212	314	26
323.15	0.4079	253	21
323.15	0.5925	197	16
323.15	0.766	154	13
323.15	0.8495	126	10
323.15	0.9282	101	8
323.15	0.9684	88	7
323.15	0.9916	79	6
323.15	1	75	6
333.15	0	397	32
333.15	0.212	319	26
333.15	0.4079	256	21
333.15	0.5925	201	16
333.15	0.766	157	13
333.15	0.8495	127	10
333.15	0.9282	102	8
333.15	0.9684	88	7
333.15	0.9916	80	7
333.15	1	75	6
343.15	0	403	33
343.15	0.212	324	26
343.15	0.4079	260	21
343.15	0.5925	204	17
343.15	0.766	158	13
343.15	0.8495	129	10
343.15	0.9282	103	8
343.15	0.9684	89	7
343.15	0.9916	80	7
343.15	1	75	6

System: water + 1-ethyl-3-methylimidazolium ethyl sulfate; phases: Liquid
Fixed: Pressure, kPa = 101
Property: Excess molar enthalpy (molar enthalpy of mixing), kJ/mol (Liquid); method: Calvet calorimetry
Temperature, K	Mole fraction of water	Excess molar enthalpy (molar enthalpy of mixing), kJ/mol	uncertainty
313.14	0.2496	-0.457	0.019
313.14	0.2497	-0.459	0.019
313.14	0.4936	-0.767	0.031
313.14	0.4951	-0.77	0.031
313.14	0.7491	-0.967	0.039
313.14	0.7495	-0.975	0.04
323.12	0.2425	-0.486	0.02
323.12	0.2486	-0.478	0.02
323.12	0.4979	-0.79	0.032
323.12	0.4991	-0.791	0.032
323.12	0.7464	-0.923	0.038
323.12	0.7481	-0.945	0.039
333.11	0.2483	-0.496	0.02
333.11	0.2496	-0.505	0.021
333.11	0.496	-0.8	0.033
333.11	0.4974	-0.79	0.032
333.11	0.7476	-0.912	0.037
333.11	0.7484	-0.911	0.037
348.12	0.2492	-0.523	0.021
348.12	0.2499	-0.524	0.021
348.12	0.4948	-0.798	0.033
348.12	0.498	-0.798	0.033
348.12	0.7477	-0.832	0.034
348.12	0.7483	-0.834	0.034

System: water + 1-ethyl-3-methylimidazolium trifluoromethanesulfonate; phases: Liquid
Fixed: Pressure, kPa = 101.3
Property: Molar heat capacity at constant pressure, J/K/mol (Liquid); method: Small sample (50 mg) DSC
Temperature, K	Mole fraction of water	Molar heat capacity at constant pressure, J/K/mol	uncertainty
283.15	0	353	29
283.15	0.2259	283	23
283.15	0.4351	226	18
283.15	0.6152	181	15
283.15	0.7835	135	11
283.15	0.8614	114	9
283.15	0.9353	94	8
283.15	0.9712	80	7
283.15	0.9924	76	6
283.15	1	75	6
293.15	0	358	29
293.15	0.2259	287	23
293.15	0.4351	230	19
293.15	0.6152	184	15
293.15	0.7835	137	11
293.15	0.8614	115	9
293.15	0.9353	95	8
293.15	0.9712	81	7
293.15	0.9924	77	6
293.15	1	75	6
303.15	0	366	30
303.15	0.2259	294	24
303.15	0.4351	236	19
303.15	0.6152	189	15
303.15	0.7835	140	11
303.15	0.8614	118	10
303.15	0.9353	97	8
303.15	0.9712	83	7
303.15	0.9924	78	6
303.15	1	75	6
313.15	0	371	30
313.15	0.2259	298	24
313.15	0.4351	239	19
313.15	0.6152	191	16
313.15	0.7835	142	12
313.15	0.8614	120	10
313.15	0.9353	98	8
313.15	0.9712	83	7
313.15	0.9924	78	6
313.15	1	75	6
323.15	0	376	31
323.15	0.2259	302	25
323.15	0.4351	242	20
323.15	0.6152	193	16
323.15	0.7835	144	12
323.15	0.8614	122	10
323.15	0.9353	99	8
323.15	0.9712	84	7
323.15	0.9924	78	6
323.15	1	75	6
333.15	0	380	31
333.15	0.2259	306	25
333.15	0.4351	245	20
333.15	0.6152	195	16
333.15	0.7835	146	12
333.15	0.8614	123	10
333.15	0.9353	99	8
333.15	0.9712	85	7
333.15	0.9924	79	6
333.15	1	75	6
343.15	0	384	31
343.15	0.2259	311	25
343.15	0.4351	249	20
343.15	0.6152	197	16
343.15	0.7835	148	12
343.15	0.8614	125	10
343.15	0.9353	100	8
343.15	0.9712	85	7
343.15	0.9924	79	6
343.15	1	75	6

System: water + 1-ethyl-3-methylimidazolium trifluoromethanesulfonate; phases: Liquid
Fixed: Pressure, kPa = 101
Property: Excess molar enthalpy (molar enthalpy of mixing), kJ/mol (Liquid); method: Calvet calorimetry
Temperature, K	Mole fraction of water	Excess molar enthalpy (molar enthalpy of mixing), kJ/mol	uncertainty
313.13	0.2487	0.702	0.029
313.13	0.2495	0.703	0.029
313.13	0.4958	1.124	0.046
313.13	0.4972	1.127	0.046
313.13	0.7477	1.011	0.041
313.13	0.7477	1.011	0.041
323.12	0.2476	0.694	0.028
323.12	0.2495	0.7	0.029
323.12	0.4959	1.153	0.047
323.12	0.4969	1.152	0.047
323.12	0.7471	1.082	0.044
323.12	0.7474	1.081	0.044
333.13	0.2482	0.698	0.028
333.13	0.2485	0.698	0.028
333.13	0.495	1.184	0.048
333.13	0.4986	1.19	0.048
333.13	0.7477	1.157	0.047
333.13	0.7479	1.156	0.047
348.12	0.2497	0.701	0.029
348.12	0.2514	0.707	0.029
348.12	0.4967	1.244	0.051
348.12	0.4985	1.248	0.051
348.12	0.748	1.287	0.052
348.12	0.7481	1.286	0.052

System: water + 1-ethyl-3-methylimidazolium trifluoroacetate; phases: Liquid
Fixed: Pressure, kPa = 101.3
Property: Molar heat capacity at constant pressure, J/K/mol (Liquid); method: Small sample (50 mg) DSC
Temperature, K	Mole fraction of water	Molar heat capacity at constant pressure, J/K/mol	uncertainty
283.15	0	308	25
283.15	0.2025	264	21
283.15	0.3973	226	18
283.15	0.5817	182	15
283.15	0.7562	139	11
283.15	0.842	117	10
283.15	0.9256	99	8
283.15	0.9668	87	7
283.15	0.9912	78	6
283.15	1	75	6
293.15	0	313	25
293.15	0.2025	269	22
293.15	0.3973	231	19
293.15	0.5817	186	15
293.15	0.7562	143	12
293.15	0.842	120	10
293.15	0.9256	100	8
293.15	0.9668	90	7
293.15	0.9912	80	7
293.15	1	75	6
303.15	0	320	26
303.15	0.2025	274	22
303.15	0.3973	238	19
303.15	0.5817	191	16
303.15	0.7562	147	12
303.15	0.842	122	10
303.15	0.9256	102	8
303.15	0.9668	91	7
303.15	0.9912	80	7
303.15	1	75	6
313.15	0	324	26
313.15	0.2025	276	22
313.15	0.3973	241	20
313.15	0.5817	194	16
313.15	0.7562	150	12
313.15	0.842	124	10
313.15	0.9256	103	8
313.15	0.9668	92	7
313.15	0.9912	81	7
313.15	1	75	6
323.15	0	328	27
323.15	0.2025	280	23
323.15	0.3973	245	20
323.15	0.5817	198	16
323.15	0.7562	153	12
323.15	0.842	126	10
323.15	0.9256	104	8
323.15	0.9668	92	7
323.15	0.9912	81	7
323.15	1	75	6
333.15	0	332	27
333.15	0.2025	285	23
333.15	0.3973	251	20
333.15	0.5817	201	16
333.15	0.7562	155	13
333.15	0.842	127	10
333.15	0.9256	104	8
333.15	0.9668	92	7
333.15	0.9912	81	7
333.15	1	75	6
343.15	0	337	27
343.15	0.2025	290	24
343.15	0.3973	254	21
343.15	0.5817	204	17
343.15	0.7562	157	13
343.15	0.842	129	10
343.15	0.9256	105	9
343.15	0.9668	92	7
343.15	0.9912	81	7
343.15	1	75	6

System: water + 1-ethyl-3-methylimidazolium trifluoroacetate; phases: Liquid
Fixed: Pressure, kPa = 101
Property: Excess molar enthalpy (molar enthalpy of mixing), kJ/mol (Liquid); method: Calvet calorimetry
Temperature, K	Mole fraction of water	Excess molar enthalpy (molar enthalpy of mixing), kJ/mol	uncertainty
313.04	0.2499	-1.319	0.054
313.04	0.25	-1.32	0.054
313.04	0.498	-2.137	0.087
313.04	0.4981	-2.137	0.087
313.04	0.7483	-2.052	0.083
313.04	0.7484	-2.05	0.083
323.04	0.2474	-1.306	0.053
323.04	0.2485	-1.31	0.053
323.04	0.4967	-2.097	0.085
323.04	0.4993	-2.102	0.086
323.04	0.7472	-1.961	0.08
323.04	0.7482	-1.959	0.08
333.06	0.2464	-1.302	0.053
333.06	0.2477	-1.307	0.053
333.06	0.4934	-2.06	0.084
333.06	0.4966	-2.067	0.084
333.06	0.7466	-1.878	0.076
333.06	0.7476	-1.876	0.076
348.06	0.2486	-1.304	0.053
348.06	0.2489	-1.303	0.053
348.06	0.4979	-2.001	0.081
348.06	0.4994	-2.002	0.081
348.06	0.748	-1.722	0.07
348.06	0.7484	-1.72	0.07
