Measured thermophysical data. Densities and Viscosities of the Ternary Mixtures 2-Methyl-1-propanol (or 2-Methyl-2-propanol) + N-Hexane + 1-Chlorobutane at 298.15 K
Source: J. Chem. Eng. Data, 2008, 10.1021/je800048f
Compound 1: 2-methyl-1-propanol, C4H10O, InChI=1S/C4H10O/c1-4(2)3-5/h4-5H,3H2,1-2H3
Compound 2: hexane, C6H14, InChI=1S/C6H14/c1-3-5-6-4-2/h3-6H2,1-2H3
Compound 3: 1-chlorobutane, C4H9Cl, InChI=1S/C4H9Cl/c1-2-3-4-5/h2-4H2,1H3
Compound 4: 2-methylpropan-2-ol, C4H10O, InChI=1S/C4H10O/c1-4(2,3)5/h5H,1-3H3

System: 2-methyl-1-propanol; phases: Liquid
Property: Mass density, kg/m3 (Liquid); method: VIBTUB:UFactor:4
Temperature, K	Pressure, kPa	Mass density, kg/m3	uncertainty
298.15	101.325	797.77	0.62

System: 2-methyl-1-propanol; phases: Liquid
Property: Viscosity, Pa*s (Liquid); method: Capillary tube (Ostwald; Ubbelohde) method
Temperature, K	Pressure, kPa	Viscosity, Pa*s	uncertainty
298.15	101.325	0.0033528	2.72e-05

System: hexane; phases: Liquid
Property: Mass density, kg/m3 (Liquid); method: VIBTUB:UFactor:4
Temperature, K	Pressure, kPa	Mass density, kg/m3	uncertainty
298.15	101.325	655.07	0.98

System: hexane; phases: Liquid
Property: Viscosity, Pa*s (Liquid); method: Capillary tube (Ostwald; Ubbelohde) method
Temperature, K	Pressure, kPa	Viscosity, Pa*s	uncertainty
298.15	101.325	0.0002949	4.8e-06

System: 1-chlorobutane; phases: Liquid
Property: Mass density, kg/m3 (Liquid); method: VIBTUB:UFactor:4
Temperature, K	Pressure, kPa	Mass density, kg/m3	uncertainty
298.15	101.325	880.69	0.61

System: 1-chlorobutane; phases: Liquid
Property: Viscosity, Pa*s (Liquid); method: Capillary tube (Ostwald; Ubbelohde) method
Temperature, K	Pressure, kPa	Viscosity, Pa*s	uncertainty
298.15	101.325	0.0004235	5.4e-06

System: 2-methylpropan-2-ol; phases: Liquid
Property: Mass density, kg/m3 (Liquid); method: VIBTUB:UFactor:4
Temperature, K	Pressure, kPa	Mass density, kg/m3	uncertainty
298.15	101.325	780.78	0.65

System: 2-methylpropan-2-ol; phases: Liquid
Property: Viscosity, Pa*s (Liquid); method: Capillary tube (Ostwald; Ubbelohde) method
Temperature, K	Pressure, kPa	Viscosity, Pa*s	uncertainty
298.15	101.325	0.0043839	3.76e-05

System: 2-methyl-1-propanol + 1-chlorobutane + hexane; phases: Liquid
Fixed: Temperature, K = 298.115
Fixed: Pressure, kPa = 101
Property: Kinematic viscosity, m2/s (Liquid); method: Capillary tube (Ostwald; Ubbelohde) method
Mole fraction of 2-methyl-1-propanol	Mole fraction of hexane	Kinematic viscosity, m2/s	uncertainty
0.0509	0.8589	4.594e-07	7.2e-09
0.0513	0.0997	4.816e-07	7.3e-09
0.0518	0.0469	4.853e-07	7.3e-09
0.0535	0.8917	4.596e-07	7.2e-09
0.0903	0.304	4.982e-07	7.3e-09
0.0905	0.8169	4.705e-07	7.2e-09
0.0906	0.8564	4.71e-07	7.2e-09
0.0915	0.6114	4.99e-07	7.3e-09
0.0917	0.7099	4.741e-07	7.2e-09
0.0931	0.0474	5.015e-07	7.3e-09
0.0935	0.2002	4.912e-07	7.3e-09
0.0938	0.5067	4.949e-07	7.3e-09
0.0948	0.0995	4.984e-07	7.3e-09
0.0956	0.4024	4.988e-07	7.3e-09
0.193	0.2001	5.683e-07	7.5e-09
0.194	0.7097	5.249e-07	7.4e-09
0.195	0.4032	5.332e-07	7.4e-09
0.1955	0.6088	5.248e-07	7.4e-09
0.1958	0.0982	5.592e-07	7.5e-09
0.1969	0.3016	5.491e-07	7.5e-09
0.1981	0.5045	5.298e-07	7.4e-09
0.2969	0.4027	6.119e-07	7.7e-09
0.2973	0.6105	6.033e-07	7.6e-09
0.2974	0.1973	6.299e-07	7.7e-09
0.2978	0.0957	6.44e-07	7.8e-09
0.2987	0.3033	6.208e-07	7.7e-09
0.2988	0.5058	6.076e-07	7.6e-09
0.397	0.2009	7.381e-07	8.1e-09
0.3972	0.507	7.169e-07	8e-09
0.4006	0.3014	7.318e-07	8.1e-09
0.4009	0.4035	7.446e-07	8.1e-09
0.4026	0.0951	7.612e-07	8.2e-09
0.4996	0.0986	9.15e-07	8.8e-09
0.4998	0.3032	8.903e-07	8.7e-09
0.4999	0.4053	8.853e-07	8.6e-09
0.5005	0.2003	9.008e-07	8.7e-09
0.5989	0.3045	1.1257e-06	9.6e-09
0.6	0.0989	1.1464e-06	9.7e-09
0.6006	0.1998	1.1359e-06	9.7e-09
0.7022	0.0979	1.5005e-06	1.13e-08
0.7045	0.1988	1.4947e-06	1.13e-08
0.7591	0.0928	1.7826e-06	1.26e-08
0.8507	0.0953	2.4425e-06	1.58e-08
0.8534	0.0467	2.4817e-06	1.6e-08
0.9007	0.0475	2.9193e-06	1.84e-08

System: 2-methyl-1-propanol + 1-chlorobutane + hexane; phases: Liquid
Fixed: Temperature, K = 298.15
Fixed: Pressure, kPa = 101
Property: Mass density, kg/m3 (Liquid); method: VIBTUB:UFactor:5
Mole fraction of 2-methyl-1-propanol	Mole fraction of hexane	Mass density, kg/m3	uncertainty
0.0512	0.0457	863.32	0.57
0.052	0.1032	847.47	0.59
0.052	0.89	670.58	0.88
0.0588	0.8475	677.96	0.87
0.0973	0.0987	844.8	0.59
0.0987	0.5006	745.68	0.75
0.0989	0.5963	724.85	0.79
0.099	0.6987	703.62	0.82
0.1001	0.8025	683.04	0.86
0.1016	0.2005	817.47	0.63
0.1041	0.3969	768.94	0.71
0.1045	0.8432	674.9	0.87
0.1049	0.295	793.4	0.67
0.1064	0.0506	857.37	0.57
0.1981	0.705	694.12	0.83
0.1986	0.1	836.19	0.59
0.1998	0.6018	715.31	0.8
0.2014	0.3023	783.58	0.68
0.2022	0.4965	737.98	0.76
0.2026	0.2015	808.98	0.64
0.2038	0.4007	759.77	0.72
0.2571	0.2556	790.74	0.66
0.2923	0.605	707.18	0.8
0.2963	0.2016	801.48	0.64
0.2969	0.5036	728.82	0.76
0.2999	0.3973	752.9	0.72
0.3007	0.0999	828.2	0.59
0.3944	0.2042	793.14	0.64
0.3954	0.1012	820.49	0.59
0.3958	0.3031	767.97	0.69
0.3971	0.4012	744.27	0.73
0.4512	0.4576	726.76	0.75
0.4953	0.3007	760.64	0.69
0.4957	0.2035	785.24	0.65
0.4973	0.0994	812.9	0.6
0.498	0.4053	735.11	0.73
0.5946	0.1032	804.04	0.6
0.5959	0.3059	751.02	0.7
0.5975	0.2049	776.66	0.65
0.7002	0.1011	795.83	0.61
0.7024	0.2009	768.74	0.66
0.7978	0.1016	787.12	0.62
0.8494	0.0514	796.65	0.6
0.8507	0.0993	782.97	0.62

System: 2-methylpropan-2-ol + 1-chlorobutane + hexane; phases: Liquid
Fixed: Temperature, K = 298.115
Fixed: Pressure, kPa = 101
Property: Kinematic viscosity, m2/s (Liquid); method: Capillary tube (Ostwald; Ubbelohde) method
Mole fraction of 2-methylpropan-2-ol	Mole fraction of hexane	Kinematic viscosity, m2/s	uncertainty
0.0402	0.061	4.862e-07	7.3e-09
0.048	0.8632	4.553e-07	7.2e-09
0.0503	0.8963	4.557e-07	7.2e-09
0.0505	0.098	4.793e-07	7.3e-09
0.0901	0.7145	4.373e-07	7.1e-09
0.0907	0.8616	4.657e-07	7.2e-09
0.0918	0.4055	4.467e-07	7.1e-09
0.092	0.8116	4.66e-07	7.2e-09
0.0921	0.3025	4.781e-07	7.2e-09
0.0922	0.0976	4.899e-07	7.3e-09
0.0935	0.6078	4.264e-07	7.1e-09
0.0944	0.0462	4.942e-07	7.3e-09
0.0946	0.5022	4.175e-07	7e-09
0.0979	0.1982	4.839e-07	7.3e-09
0.1915	0.5093	5.024e-07	7.3e-09
0.192	0.606	5.029e-07	7.3e-09
0.1928	0.2012	5.231e-07	7.4e-09
0.193	0.1018	5.318e-07	7.4e-09
0.1942	0.7048	4.608e-07	7.1e-09
0.1952	0.3027	5.164e-07	7.3e-09
0.1955	0.4087	5.079e-07	7.3e-09
0.2532	0.268	5.621e-07	7.5e-09
0.288	0.5135	5.53e-07	7.4e-09
0.2899	0.4065	5.628e-07	7.5e-09
0.2936	0.0988	5.917e-07	7.6e-09
0.2951	0.6141	5.52e-07	7.4e-09
0.2955	0.205	5.842e-07	7.6e-09
0.3892	0.4095	7.017e-07	8e-09
0.392	0.2048	7.172e-07	8e-09
0.3924	0.508	6.524e-07	7.8e-09
0.3963	0.096	6.718e-07	7.8e-09
0.4352	0.2871	7.948e-07	8.3e-09
0.4942	0.4128	7.748e-07	8.2e-09
0.4955	0.1009	7.786e-07	8.2e-09
0.4957	0.3169	8.433e-07	8.5e-09
0.497	0.2116	7.991e-07	8.3e-09
0.5871	0.0986	9.281e-07	8.8e-09
0.5922	0.3062	8.754e-07	8.5e-09
0.597	0.2042	9.067e-07	8.7e-09
0.6768	0.2331	9.147e-07	8.6e-09
0.7065	0.098	1.0386e-06	9.1e-09
0.8047	0.1097	1.4319e-06	1.09e-08
0.8556	0.1002	1.9672e-06	1.35e-08
0.8585	0.0588	2.0265e-06	1.4e-08
0.9056	0.0459	2.7711e-06	1.76e-08

System: 2-methylpropan-2-ol + 1-chlorobutane + hexane; phases: Liquid
Fixed: Temperature, K = 298.15
Fixed: Pressure, kPa = 101
Property: Mass density, kg/m3 (Liquid); method: VIBTUB:UFactor:5
Mole fraction of 2-methylpropan-2-ol	Mole fraction of hexane	Mass density, kg/m3	uncertainty
0.049	0.0506	860.51	0.57
0.0625	0.099	845.74	0.59
0.0665	0.8392	677.54	0.87
0.0991	0.3002	790.15	0.68
0.101	0.1991	815.2	0.64
0.1015	0.8488	672.04	0.88
0.1017	0.4987	743.86	0.76
0.1027	0.6989	701.36	0.83
0.1047	0.6016	721.19	0.79
0.1128	0.3938	766.48	0.72
0.1137	0.0485	853.72	0.57
0.1175	0.0963	840.41	0.59
0.1202	0.7866	682.01	0.86
0.1849	0.3571	767.49	0.71
0.1925	0.6063	711.1	0.8
0.1985	0.3054	778.31	0.69
0.2016	0.1997	804.37	0.64
0.2062	0.6934	691.91	0.83
0.2078	0.098	830.29	0.6
0.2117	0.4959	732.99	0.76
0.2939	0.2018	794.17	0.65
0.2955	0.1049	819.34	0.61
0.2967	0.4034	745.13	0.73
0.2968	0.3039	768.51	0.69
0.2986	0.6032	701.12	0.81
0.3034	0.4998	722.83	0.77
0.3961	0.5071	711.91	0.78
0.3963	0.4018	735.36	0.74
0.3976	0.2042	783.05	0.66
0.3991	0.1013	809.76	0.61
0.4048	0.2928	760.23	0.7
0.4956	0.2032	773.42	0.67
0.496	0.408	723.77	0.76
0.4963	0.1012	800	0.62
0.4968	0.3046	748.01	0.71
0.5927	0.3065	737.86	0.72
0.5958	0.1031	789.55	0.63
0.5995	0.2013	763.28	0.68
0.6988	0.2025	753.41	0.69
0.699	0.0987	780.54	0.64
0.798	0.1028	770.02	0.65
0.8487	0.0503	779.82	0.63
0.8512	0.0978	766.46	0.65
0.8926	0.0532	774.97	0.63
