Measured thermophysical data. Measurement and Correlation of the Solubilities of m-Phthalic Acid in Monobasic Alcohols
Source: J. Chem. Eng. Data, 2009, 10.1021/je800520w
Compound 1: 1,3-benzenedicarboxylic acid, C8H6O4, InChI=1S/C8H6O4/c9-7(10)5-2-1-3-6(4-5)8(11)12/h1-4H,(H,9,10)(H,11,12), purity 99.8%
Compound 2: methanol, CH4O, InChI=1S/CH4O/c1-2/h2H,1H3
Compound 3: propan-1-ol, C3H8O, InChI=1S/C3H8O/c1-2-3-4/h4H,2-3H2,1H3
Compound 4: propan-2-ol, C3H8O, InChI=1S/C3H8O/c1-3(2)4/h3-4H,1-2H3
Compound 5: butan-1-ol, C4H10O, InChI=1S/C4H10O/c1-2-3-4-5/h5H,2-4H2,1H3
Compound 6: butan-2-ol, C4H10O, InChI=1S/C4H10O/c1-3-4(2)5/h4-5H,3H2,1-2H3
Compound 7: pentan-1-ol, C5H12O, InChI=1S/C5H12O/c1-2-3-4-5-6/h6H,2-5H2,1H3
Compound 8: hexan-1-ol, C6H14O, InChI=1S/C6H14O/c1-2-3-4-5-6-7/h7H,2-6H2,1H3

System: methanol; phases: Liquid
Property: Refractive index (Na D-line) (Liquid); method: Standard Abbe refractometry
Temperature, K	Pressure, kPa	Refractive index (Na D-line)	uncertainty
293.15	101.325	1.3291	0.0005

System: methanol; phases: Liquid
Property: Mass density, kg/m3 (Liquid); method: Pycnometric method
Temperature, K	Pressure, kPa	Mass density, kg/m3	uncertainty
293.15	101.325	791.7	0.5

System: propan-1-ol; phases: Liquid
Property: Refractive index (Na D-line) (Liquid); method: Standard Abbe refractometry
Temperature, K	Pressure, kPa	Refractive index (Na D-line)	uncertainty
293.15	101.325	1.3853	0.0005

System: propan-1-ol; phases: Liquid
Property: Mass density, kg/m3 (Liquid); method: Pycnometric method
Temperature, K	Pressure, kPa	Mass density, kg/m3	uncertainty
293.15	101.325	803.8	0.5

System: propan-2-ol; phases: Liquid
Property: Refractive index (Na D-line) (Liquid); method: Standard Abbe refractometry
Temperature, K	Pressure, kPa	Refractive index (Na D-line)	uncertainty
293.15	101.325	1.378	0.0005

System: propan-2-ol; phases: Liquid
Property: Mass density, kg/m3 (Liquid); method: Pycnometric method
Temperature, K	Pressure, kPa	Mass density, kg/m3	uncertainty
293.15	101.325	784.9	0.5

System: butan-1-ol; phases: Liquid
Property: Refractive index (Na D-line) (Liquid); method: Standard Abbe refractometry
Temperature, K	Pressure, kPa	Refractive index (Na D-line)	uncertainty
293.15	101.325	1.3997	0.0005

System: butan-1-ol; phases: Liquid
Property: Mass density, kg/m3 (Liquid); method: Pycnometric method
Temperature, K	Pressure, kPa	Mass density, kg/m3	uncertainty
293.15	101.325	810.3	0.5

System: butan-2-ol; phases: Liquid
Property: Refractive index (Na D-line) (Liquid); method: Standard Abbe refractometry
Temperature, K	Pressure, kPa	Refractive index (Na D-line)	uncertainty
293.15	101.325	1.3955	0.0005

System: butan-2-ol; phases: Liquid
Property: Mass density, kg/m3 (Liquid); method: Pycnometric method
Temperature, K	Pressure, kPa	Mass density, kg/m3	uncertainty
293.15	101.325	802.6	0.5

System: pentan-1-ol; phases: Liquid
Property: Refractive index (Na D-line) (Liquid); method: Standard Abbe refractometry
Temperature, K	Pressure, kPa	Refractive index (Na D-line)	uncertainty
293.15	101.325	1.4092	0.0005

System: pentan-1-ol; phases: Liquid
Property: Mass density, kg/m3 (Liquid); method: Pycnometric method
Temperature, K	Pressure, kPa	Mass density, kg/m3	uncertainty
293.15	101.325	812.9	0.5

System: hexan-1-ol; phases: Liquid
Property: Refractive index (Na D-line) (Liquid); method: Standard Abbe refractometry
Temperature, K	Pressure, kPa	Refractive index (Na D-line)	uncertainty
293.15	101.325	1.4175	0.0005

System: hexan-1-ol; phases: Liquid
Property: Mass density, kg/m3 (Liquid); method: Pycnometric method
Temperature, K	Pressure, kPa	Mass density, kg/m3	uncertainty
293.15	101.325	813.8	0.5

System: methanol + 1,3-benzenedicarboxylic acid; phases: Liquid, Crystal
Fixed: Pressure, kPa = 101
Property: Mole fraction of 1,3-benzenedicarboxylic acid (Liquid); method: gravimetric
Temperature, K	Mole fraction of 1,3-benzenedicarboxylic acid	uncertainty
278.15	0.00253	0.000105
283.25	0.002755	0.000115
288.05	0.003142	0.000131
293.25	0.003455	0.000144
298.75	0.003787	0.000158
302.65	0.00411	0.000171
307.95	0.004555	0.00019
313.45	0.005118	0.000214
318.25	0.005784	0.000242
323.25	0.006589	0.000275
328.25	0.007144	0.000298
333.15	0.007913	0.000331
337.25	0.008823	0.000369

System: propan-1-ol + 1,3-benzenedicarboxylic acid; phases: Liquid, Crystal
Fixed: Pressure, kPa = 101
Property: Mole fraction of 1,3-benzenedicarboxylic acid (Liquid); method: gravimetric
Temperature, K	Mole fraction of 1,3-benzenedicarboxylic acid	uncertainty
278.15	0.001685	7e-05
280.84	0.001901	7.9e-05
283.34	0.002198	9e-05
288.17	0.002493	0.000101
293.15	0.002677	0.000109
298.35	0.003205	0.000131
304.05	0.003769	0.000154
308.25	0.004248	0.000173
313.15	0.004731	0.000193
317.55	0.005281	0.000215
320.17	0.005636	0.000231
323.5	0.006461	0.000264
328.2	0.007128	0.000292
333.15	0.008576	0.000351
338.15	0.009711	0.000395
342.65	0.01047	0.00043
349.05	0.01215	0.00053
349.37	0.01245	0.00054
353.55	0.0148	0.00061
358.75	0.01744	0.00071

System: propan-2-ol + 1,3-benzenedicarboxylic acid; phases: Liquid, Crystal
Fixed: Pressure, kPa = 101
Property: Mole fraction of 1,3-benzenedicarboxylic acid (Liquid); method: gravimetric
Temperature, K	Mole fraction of 1,3-benzenedicarboxylic acid	uncertainty
278.55	0.002185	8.9e-05
279.87	0.00226	9.3e-05
283.25	0.00255	0.000104
288.15	0.00291	0.000119
293.15	0.003253	0.000133
298.15	0.003961	0.000162
303.05	0.004594	0.000188
308.25	0.005346	0.000218
313.15	0.006074	0.000247
318.25	0.006754	0.000275
319.56	0.007035	0.000288
323.95	0.008105	0.000331
328.15	0.00911	0.000371
333.15	0.0102	0.00041
338.35	0.01105	0.00045
343.25	0.01343	0.00055
348.15	0.01477	0.0006
349.87	0.01513	0.00062
353.15	0.01715	0.0007

System: butan-1-ol + 1,3-benzenedicarboxylic acid; phases: Liquid, Crystal
Fixed: Pressure, kPa = 101
Property: Mole fraction of 1,3-benzenedicarboxylic acid (Liquid); method: gravimetric
Temperature, K	Mole fraction of 1,3-benzenedicarboxylic acid	uncertainty
278.06	0.001872	7.6e-05
283.11	0.002157	8.7e-05
288.27	0.002339	9.5e-05
293.3	0.002649	0.000108
298.06	0.003149	0.000128
303.66	0.003664	0.000148
308.36	0.00386	0.000157
312.66	0.004736	0.000193
317.94	0.0052	0.00021
322.25	0.005661	0.000229
328.54	0.006333	0.000257
334.57	0.007655	0.000311
337.96	0.008166	0.000397
338.64	0.008924	0.000423
343.2	0.009537	0.000387
347.67	0.01106	0.00045
353.44	0.01304	0.00053
358.67	0.01437	0.00058

System: butan-2-ol + 1,3-benzenedicarboxylic acid; phases: Liquid, Crystal
Fixed: Pressure, kPa = 101
Property: Mole fraction of 1,3-benzenedicarboxylic acid (Liquid); method: gravimetric
Temperature, K	Mole fraction of 1,3-benzenedicarboxylic acid	uncertainty
283.05	0.001455	6e-05
288.05	0.001721	7e-05
293.15	0.002085	8.5e-05
298.25	0.002349	9.5e-05
303.45	0.002625	0.000107
308.25	0.003113	0.000127
313.25	0.003457	0.00014
318.15	0.00391	0.000158
322.95	0.004134	0.000168
327.95	0.005035	0.000205
332.65	0.005634	0.00023
337.55	0.006785	0.000276
342.25	0.007479	0.000304
347.35	0.008695	0.000354
350.65	0.009585	0.00039
352.65	0.01023	0.00042

System: pentan-1-ol + 1,3-benzenedicarboxylic acid; phases: Liquid, Crystal
Fixed: Pressure, kPa = 101
Property: Mole fraction of 1,3-benzenedicarboxylic acid (Liquid); method: gravimetric
Temperature, K	Mole fraction of 1,3-benzenedicarboxylic acid	uncertainty
303.05	0.004081	0.000171
308.05	0.005323	0.000217
313.15	0.005935	0.00024
318.15	0.006513	0.000264
323.05	0.007402	0.0003
328.15	0.008232	0.000333
334.95	0.0094	0.000379
340.35	0.01028	0.00042
344.25	0.01173	0.00047
348.85	0.01232	0.0005

System: hexan-1-ol + 1,3-benzenedicarboxylic acid; phases: Liquid, Crystal
Fixed: Pressure, kPa = 101
Property: Mole fraction of 1,3-benzenedicarboxylic acid (Liquid); method: gravimetric
Temperature, K	Mole fraction of 1,3-benzenedicarboxylic acid	uncertainty
298.48	0.002435	0.000104
302.97	0.003204	0.000131
308.15	0.003617	0.000147
312.7	0.004235	0.000172
317.67	0.004766	0.000194
320.84	0.005439	0.00022
326.96	0.00593	0.00024
332.56	0.007372	0.0003
337.65	0.00857	0.000346
343.76	0.009458	0.000381
349.25	0.01042	0.00042
353.94	0.01159	0.00047
