Measured thermophysical data. Densities and Viscosities of Aqueous Solutions of N-Methylmorpholine from (293.15 to 343.15) K
Source: J. Chem. Eng. Data, 2008, 10.1021/je800197t
Compound 1: N-methylmorpholine, C5H11NO, InChI=1S/C5H11NO/c1-6-2-4-7-5-3-6/h2-5H2,1H3, purity 98%
Compound 2: water, H2O, InChI=1S/H2O/h1H2

System: N-methylmorpholine; phases: Liquid, Gas
Property: Viscosity, Pa*s (Liquid); method: CAPTUB:UFactor:16
Temperature, K	Viscosity, Pa*s	uncertainty
293.15	0.001028	0.000102
303.15	0.000959	9.6e-05
313.15	0.000858	8.7e-05
323.15	0.000754	7.8e-05
333.15	0.000626	6.7e-05
343.15	0.000498	5.6e-05

System: N-methylmorpholine; phases: Liquid, Gas
Property: Mass density, kg/m3 (Liquid); method: VIBTUB:UFactor:12
Temperature, K	Mass density, kg/m3	uncertainty
293.15	918.74	1.44
303.15	909.54	1.47
313.15	902.37	1.5
323.15	893.32	1.53
333.15	884.36	1.56
343.15	876.52	1.59

System: N-methylmorpholine + water; phases: Liquid
Fixed: Pressure, kPa = 101
Property: Viscosity, Pa*s (Liquid); method: CAPTUB:UFactor:16
Temperature, K	Mole fraction of N-methylmorpholine	Viscosity, Pa*s	uncertainty
293.15	0.0452	0.001898	0.000175
293.15	0.0942	0.002577	0.000233
293.15	0.1267	0.003048	0.000272
293.15	0.1763	0.003562	0.000315
293.15	0.2022	0.003777	0.000333
293.15	0.2538	0.004115	0.000361
293.15	0.2843	0.004238	0.000371
293.15	0.3275	0.004395	0.000384
293.15	0.3754	0.004439	0.000388
293.15	0.4033	0.004429	0.000387
293.15	0.4286	0.004406	0.000386
293.15	0.4689	0.004331	0.00038
293.15	0.4983	0.004241	0.000372
293.15	0.5433	0.004065	0.000358
293.15	0.5983	0.003798	0.000336
293.15	0.6438	0.003544	0.000315
293.15	0.6942	0.003187	0.000285
293.15	0.7587	0.002792	0.000252
293.15	0.8163	0.002323	0.000212
293.15	0.8869	0.001791	0.000167
293.15	0.9244	0.001503	0.000142
293.15	0.9812	0.001166	0.000113
303.15	0.0452	0.001594	0.000149
303.15	0.0942	0.002036	0.000187
303.15	0.1267	0.002451	0.000222
303.15	0.1763	0.002922	0.000262
303.15	0.2022	0.003065	0.000274
303.15	0.2538	0.003386	0.000301
303.15	0.2843	0.003497	0.00031
303.15	0.3275	0.003619	0.00032
303.15	0.3754	0.003669	0.000324
303.15	0.4033	0.003636	0.000322
303.15	0.4286	0.003635	0.000322
303.15	0.4689	0.003562	0.000316
303.15	0.4983	0.003521	0.000312
303.15	0.5433	0.003363	0.000299
303.15	0.5983	0.003128	0.00028
303.15	0.6438	0.002878	0.000259
303.15	0.6942	0.002588	0.000234
303.15	0.7587	0.002262	0.000207
303.15	0.8163	0.001857	0.000172
303.15	0.8869	0.001489	0.000141
303.15	0.9244	0.001359	0.00013
303.15	0.9812	0.001091	0.000107
313.15	0.0452	0.001327	0.000127
313.15	0.0942	0.001715	0.00016
313.15	0.1267	0.001968	0.000181
313.15	0.1763	0.002348	0.000213
313.15	0.2022	0.002482	0.000225
313.15	0.2538	0.002703	0.000243
313.15	0.2843	0.002838	0.000255
313.15	0.3275	0.002908	0.000261
313.15	0.3754	0.002901	0.00026
313.15	0.4033	0.002869	0.000258
313.15	0.4286	0.002869	0.000258
313.15	0.4689	0.002798	0.000252
313.15	0.4983	0.002758	0.000248
313.15	0.5433	0.002602	0.000235
313.15	0.5983	0.002388	0.000217
313.15	0.6438	0.002244	0.000205
313.15	0.6942	0.002031	0.000187
313.15	0.7587	0.001764	0.000164
313.15	0.8163	0.001495	0.000142
313.15	0.8869	0.001222	0.000118
313.15	0.9244	0.001077	0.000106
313.15	0.9812	0.000952	9.5e-05
323.15	0.0452	0.001119	0.000109
323.15	0.0942	0.001334	0.000127
323.15	0.1267	0.001539	0.000145
323.15	0.1763	0.001761	0.000164
323.15	0.2022	0.001858	0.000172
323.15	0.2538	0.002023	0.000186
323.15	0.2843	0.002113	0.000194
323.15	0.3275	0.002183	0.0002
323.15	0.3754	0.002176	0.000199
323.15	0.4033	0.002143	0.000196
323.15	0.4286	0.002144	0.000196
323.15	0.4689	0.002073	0.00019
323.15	0.4983	0.002033	0.000187
323.15	0.5433	0.001948	0.00018
323.15	0.5983	0.001783	0.000166
323.15	0.6438	0.001677	0.000157
323.15	0.6942	0.001536	0.000145
323.15	0.7587	0.001362	0.00013
323.15	0.8163	0.001158	0.000113
323.15	0.8869	0.000954	9.5e-05
323.15	0.9244	0.000939	9.4e-05
323.15	0.9812	0.000841	8.5e-05
333.15	0.0452	0.000708	7.4e-05
333.15	0.0942	0.000998	9.9e-05
333.15	0.1267	0.001111	0.000108
333.15	0.1763	0.001251	0.00012
333.15	0.2022	0.001297	0.000124
333.15	0.2538	0.001396	0.000133
333.15	0.2843	0.001425	0.000135
333.15	0.3275	0.001477	0.00014
333.15	0.3754	0.001468	0.000139
333.15	0.4033	0.001434	0.000136
333.15	0.4286	0.001433	0.000136
333.15	0.4689	0.001361	0.00013
333.15	0.4983	0.001319	0.000126
333.15	0.5433	0.001232	0.000119
333.15	0.5983	0.001126	0.00011
333.15	0.6438	0.001033	0.000102
333.15	0.6942	0.000935	9.3e-05
333.15	0.7587	0.000837	8.5e-05
333.15	0.8163	0.000809	8.3e-05
333.15	0.8869	0.000719	7.5e-05
333.15	0.9244	0.000703	7.3e-05
333.15	0.9812	0.000709	7.4e-05
343.15	0.0452	0.000499	5.6e-05
343.15	0.0942	0.000564	6.1e-05
343.15	0.1267	0.000653	6.9e-05
343.15	0.1763	0.000691	7.2e-05
343.15	0.2022	0.000704	7.3e-05
343.15	0.2538	0.000729	7.5e-05
343.15	0.2843	0.000757	7.8e-05
343.15	0.3275	0.000771	7.9e-05
343.15	0.3754	0.000793	8.1e-05
343.15	0.4033	0.000757	7.8e-05
343.15	0.4286	0.000755	7.8e-05
343.15	0.4689	0.000773	7.9e-05
343.15	0.4983	0.000718	7.5e-05
343.15	0.5433	0.000701	7.3e-05
343.15	0.5983	0.000661	7e-05
343.15	0.6438	0.000629	6.7e-05
343.15	0.6942	0.000598	6.4e-05
343.15	0.7587	0.000569	6.2e-05
343.15	0.8163	0.000566	6.2e-05
343.15	0.8869	0.000556	6.1e-05
343.15	0.9244	0.000551	6e-05
343.15	0.9812	0.000535	5.9e-05

System: N-methylmorpholine + water; phases: Liquid
Fixed: Pressure, kPa = 101
Property: Mass density, kg/m3 (Liquid); method: VIBTUB:UFactor:32
Temperature, K	Mole fraction of N-methylmorpholine	Mass density, kg/m3	uncertainty
293.15	0.0452	1002.38	1.04
293.15	0.0942	1005.32	1.09
293.15	0.1267	1003.31	1.07
293.15	0.1763	1000.27	1.05
293.15	0.2022	996.93	1.09
293.15	0.2538	991.88	1.18
293.15	0.2843	988.53	1.23
293.15	0.3275	983.61	1.32
293.15	0.3754	977.87	1.41
293.15	0.4033	974.29	1.47
293.15	0.4286	971.29	1.53
293.15	0.4689	966.09	1.62
293.15	0.4983	962.76	1.68
293.15	0.5433	957.25	1.78
293.15	0.5983	950.09	1.91
293.15	0.6438	945.88	2
293.15	0.6942	941.06	2.1
293.15	0.7587	934.53	2.24
293.15	0.8163	929.89	2.35
293.15	0.8869	924.9	2.49
293.15	0.9244	922.59	2.56
293.15	0.9812	919.88	2.65
303.15	0.0452	990.98	1.12
303.15	0.0942	993.65	1.1
303.15	0.1267	991.58	1.13
303.15	0.1763	988.46	1.19
303.15	0.2022	985.14	1.24
303.15	0.2538	980.12	1.32
303.15	0.2843	976.81	1.38
303.15	0.3275	971.96	1.46
303.15	0.3754	966.31	1.56
303.15	0.4033	962.77	1.62
303.15	0.4286	959.83	1.67
303.15	0.4689	954.72	1.76
303.15	0.4983	951.45	1.82
303.15	0.5433	946.05	1.91
303.15	0.5983	939.74	2.03
303.15	0.6438	934.89	2.13
303.15	0.6942	931.06	2.22
303.15	0.7587	924.36	2.36
303.15	0.8163	920.39	2.46
303.15	0.8869	915.52	2.59
303.15	0.9244	913.29	2.66
303.15	0.9812	910.58	2.76
313.15	0.0452	985.04	1.19
313.15	0.0942	982.32	1.24
313.15	0.1267	980.45	1.27
313.15	0.1763	977.58	1.32
313.15	0.2022	974.42	1.37
313.15	0.2538	969.64	1.45
313.15	0.2843	966.47	1.5
313.15	0.3275	961.8	1.58
313.15	0.3754	956.33	1.68
313.15	0.4033	952.91	1.74
313.15	0.4286	950.06	1.79
313.15	0.4689	945.1	1.87
313.15	0.4983	941.92	1.93
313.15	0.5433	936.67	2.03
313.15	0.5983	930.57	2.14
313.15	0.6438	925.8	2.24
313.15	0.6942	922.05	2.32
313.15	0.7587	916.24	2.45
313.15	0.8163	912.31	2.55
313.15	0.8869	907.94	2.68
313.15	0.9244	905.91	2.74
313.15	0.9812	903.31	2.84
323.15	0.0452	978.13	1.28
323.15	0.0942	972.37	1.36
323.15	0.1267	968.24	1.42
323.15	0.1763	965.46	1.47
323.15	0.2022	962.36	1.52
323.15	0.2538	957.73	1.6
323.15	0.2843	954.64	1.65
323.15	0.3275	950.07	1.73
323.15	0.3754	944.75	1.82
323.15	0.4033	941.43	1.88
323.15	0.4286	938.65	1.92
323.15	0.4689	933.8	2.01
323.15	0.4983	930.71	2.07
323.15	0.5433	925.57	2.16
323.15	0.5983	919.96	2.27
323.15	0.6438	916.85	2.34
323.15	0.6942	913.49	2.42
323.15	0.7587	906.16	2.57
323.15	0.8163	902.37	2.67
323.15	0.8869	898.07	2.79
323.15	0.9244	896.15	2.85
323.15	0.9812	894.06	2.94
333.15	0.0452	968.24	1.4
333.15	0.0942	961.01	1.51
333.15	0.1267	955.3	1.58
333.15	0.1763	951.37	1.65
333.15	0.2022	947.34	1.71
333.15	0.2538	942.51	1.79
333.15	0.2843	939.75	1.83
333.15	0.3275	935.6	1.91
333.15	0.3754	930.7	1.99
333.15	0.4033	927.59	2.04
333.15	0.4286	925	2.09
333.15	0.4689	920.44	2.17
333.15	0.4983	917.56	2.23
333.15	0.5433	912.67	2.32
333.15	0.5983	907.35	2.42
333.15	0.6438	904.17	2.49
333.15	0.6942	900.9	2.57
333.15	0.7587	894.82	2.7
333.15	0.8163	891.64	2.79
333.15	0.8869	888.89	2.9
333.15	0.9244	886.87	2.96
333.15	0.9812	884.98	3.04
343.15	0.0452	962.12	1.48
343.15	0.0942	954.33	1.59
343.15	0.1267	948.38	1.67
343.15	0.1763	944.12	1.74
343.15	0.2022	939.98	1.8
343.15	0.2538	934.96	1.88
343.15	0.2843	932.11	1.93
343.15	0.3275	927.87	2
343.15	0.3754	922.89	2.09
343.15	0.4033	919.76	2.14
343.15	0.4286	917.15	2.19
343.15	0.4689	912.58	2.27
343.15	0.4983	909.69	2.32
343.15	0.5433	904.8	2.41
343.15	0.5983	899.49	2.51
343.15	0.6438	896.3	2.59
343.15	0.6942	893.02	2.67
343.15	0.7587	886.99	2.79
343.15	0.8163	883.81	2.88
343.15	0.8869	881.05	2.99
343.15	0.9244	879.04	3.05
343.15	0.9812	877.14	3.13
