Measured thermophysical data. Molecular Interactions in Glycylglycine-MnCl2 Aqueous Solutions at (288.15, 293.15, 298.15, 303.15, 308.15, 313.15, and 318.15) K
Source: J. Chem. Eng. Data, 2009, 10.1021/je800732f
Compound 1: glycylglycine, C4H8N2O3, InChI=1S/C4H8N2O3/c5-1-3(7)6-2-4(8)9/h1-2,5H2,(H,6,7)(H,8,9)
Compound 2: manganese chloride, Cl2Mn, InChI=1S/2ClH.Mn/h2*1H;/q;;+2/p-2
Compound 3: sodium chloride, ClNa, InChI=1S/ClH.Na/h1H;/q;+1/p-1
Compound 4: water, H2O, InChI=1S/H2O/h1H2

System: glycylglycine + water; phases: Liquid
Fixed: Amount concentration (molarity), mol/dm3 of glycylglycine = 0.025
Fixed: Pressure, kPa = 101
Property: Viscosity, Pa*s (Liquid); method: Concentric cylinders viscometry
Temperature, K	Viscosity, Pa*s	uncertainty
293.15	0.001019	7.1e-06
298.15	0.0009026	6.7e-06
303.15	0.0008068	6.4e-06

System: sodium chloride + water; phases: Liquid
Fixed: Temperature, K = 298.15
Fixed: Pressure, kPa = 101
Property: Mass density, kg/m3 (Liquid); method: Vibrating tube method
Amount concentration (molarity), mol/dm3 of sodium chloride	Mass density, kg/m3	uncertainty
0.2091	1005.459	0.056
0.5066	1015.258	0.065
1.01276	1034.19	0.085
1.50258	1049.726	0.114
1.97404	1074.453	0.151
2.44956	1088.006	0.188

System: glycylglycine + water + manganese chloride; phases: Liquid
Fixed: Pressure, kPa = 101
Fixed: Amount concentration (molarity), mol/dm3 of manganese chloride = 0.25
Property: Viscosity, Pa*s (Liquid); method: CONCYL:UFactor:16
Temperature, K	Amount concentration (molarity), mol/dm3 of glycylglycine	Viscosity, Pa*s	uncertainty
288.15	0.005	0.00116	0.00015
288.15	0.007	0.00133	0.00017
288.15	0.01	0.0015	0.00018
288.15	0.02	0.00168	0.00019
288.15	0.03	0.00185	0.0002
288.15	0.05	0.002	0.00021
288.15	0.1	0.00219	0.00022
293.15	0.005	0.00105	0.00015
293.15	0.007	0.00114	0.00015
293.15	0.01	0.00125	0.00016
293.15	0.02	0.00137	0.00017
293.15	0.03	0.00144	0.00017
293.15	0.05	0.00155	0.00018
293.15	0.1	0.00166	0.00019
298.15	0.005	0.00094	0.00014
298.15	0.007	0.00102	0.00015
298.15	0.01	0.0011	0.00015
298.15	0.02	0.00117	0.00015
298.15	0.03	0.00126	0.00016
298.15	0.05	0.00135	0.00017
298.15	0.1	0.00147	0.00017
303.15	0.005	0.00083	0.00013
303.15	0.007	0.00091	0.00014
303.15	0.01	0.00099	0.00014
303.15	0.02	0.00104	0.00015
303.15	0.03	0.00111	0.00015
303.15	0.05	0.00119	0.00016
303.15	0.1	0.00128	0.00016
308.15	0.005	0.00074	0.00013
308.15	0.007	0.0008	0.00013
308.15	0.01	0.00087	0.00014
308.15	0.02	0.00093	0.00014
308.15	0.03	0.001	0.00014
308.15	0.05	0.00108	0.00015
308.15	0.1	0.0012	0.00016
313.15	0.005	0.00062	0.00012
313.15	0.007	0.00065	0.00012
313.15	0.01	0.00069	0.00012
313.15	0.02	0.00073	0.00013
313.15	0.03	0.00077	0.00013
313.15	0.05	0.00082	0.00013
313.15	0.1	0.00086	0.00014
318.15	0.005	0.0005	0.00011
318.15	0.007	0.00056	0.00012
318.15	0.01	0.0006	0.00012
318.15	0.02	0.00065	0.00012
318.15	0.03	0.00071	0.00013
318.15	0.05	0.00077	0.00013
318.15	0.1	0.00086	0.00014

System: glycylglycine + water + manganese chloride; phases: Liquid
Fixed: Pressure, kPa = 101
Fixed: Amount concentration (molarity), mol/dm3 of glycylglycine = 0.02
Property: Viscosity, Pa*s (Liquid); method: CONCYL:UFactor:16
Temperature, K	Amount concentration (molarity), mol/dm3 of manganese chloride	Viscosity, Pa*s	uncertainty
288.15	0.005	0.0011	0.00015
288.15	0.01	0.0012	0.00016
288.15	0.03	0.00132	0.00016
288.15	0.05	0.00143	0.00017
288.15	0.1	0.00156	0.00018
288.15	0.25	0.00169	0.00019
288.15	0.5	0.00183	0.0002
293.15	0.005	0.00099	0.00014
293.15	0.01	0.00105	0.00015
293.15	0.03	0.00112	0.00015
293.15	0.05	0.0012	0.00016
293.15	0.1	0.00127	0.00016
293.15	0.25	0.00136	0.00017
293.15	0.5	0.00147	0.00017
298.15	0.005	0.0009	0.00014
298.15	0.01	0.00095	0.00014
298.15	0.03	0.00099	0.00014
298.15	0.05	0.00104	0.00015
298.15	0.1	0.00112	0.00015
298.15	0.25	0.00117	0.00015
298.15	0.5	0.00123	0.00016
303.15	0.005	0.00081	0.00013
303.15	0.01	0.00084	0.00013
303.15	0.03	0.00088	0.00014
303.15	0.05	0.00093	0.00014
303.15	0.1	0.00099	0.00014
303.15	0.25	0.00104	0.00015
303.15	0.5	0.00109	0.00015
308.15	0.005	0.00071	0.00013
308.15	0.01	0.00073	0.00013
308.15	0.03	0.00077	0.00013
308.15	0.05	0.00082	0.00013
308.15	0.1	0.00088	0.00014
308.15	0.25	0.00093	0.00014
308.15	0.5	0.00097	0.00014
313.15	0.005	0.00066	0.00012
313.15	0.01	0.00069	0.00012
313.15	0.03	0.00073	0.00013
313.15	0.05	0.00076	0.00013
313.15	0.1	0.00079	0.00013
313.15	0.25	0.00083	0.00013
313.15	0.5	0.00088	0.00014
318.15	0.005	0.00047	0.00011
318.15	0.01	0.0005	0.00011
318.15	0.03	0.00053	0.00011
318.15	0.05	0.00057	0.00012
318.15	0.1	0.00062	0.00012
318.15	0.25	0.00064	0.00012
318.15	0.5	0.00069	0.00012

System: glycylglycine + water + manganese chloride; phases: Liquid
Fixed: Pressure, kPa = 101
Fixed: Amount concentration (molarity), mol/dm3 of manganese chloride = 0.25
Property: Refractive index (Na D-line) (Liquid); method: ABBE:UFactor:6
Temperature, K	Amount concentration (molarity), mol/dm3 of glycylglycine	Refractive index (Na D-line)	uncertainty
288.15	0.005	1.334	0.0024
288.15	0.007	1.3349	0.0024
288.15	0.01	1.3356	0.0024
288.15	0.02	1.3364	0.0024
288.15	0.03	1.3373	0.0024
288.15	0.05	1.338	0.0024
288.15	0.1	1.3386	0.0024
293.15	0.005	1.3327	0.0024
293.15	0.007	1.3336	0.0024
293.15	0.01	1.3348	0.0024
293.15	0.02	1.3359	0.0024
293.15	0.03	1.3367	0.0024
293.15	0.05	1.3378	0.0024
293.15	0.1	1.3389	0.0024
298.15	0.005	1.332	0.0024
298.15	0.007	1.3329	0.0024
298.15	0.01	1.3339	0.0024
298.15	0.02	1.3348	0.0024
298.15	0.03	1.3356	0.0024
298.15	0.05	1.3364	0.0024
298.15	0.1	1.3378	0.0024
303.15	0.005	1.3313	0.0024
303.15	0.007	1.3328	0.0024
303.15	0.01	1.3343	0.0024
303.15	0.02	1.3356	0.0024
303.15	0.03	1.337	0.0024
303.15	0.05	1.3384	0.0024
303.15	0.1	1.3399	0.0024
308.15	0.005	1.3303	0.0024
308.15	0.007	1.3312	0.0024
308.15	0.01	1.3324	0.0024
308.15	0.02	1.3334	0.0024
308.15	0.03	1.3342	0.0024
308.15	0.05	1.3354	0.0024
308.15	0.1	1.3366	0.0024
313.15	0.005	1.3296	0.0024
313.15	0.007	1.3304	0.0024
313.15	0.01	1.3313	0.0024
313.15	0.02	1.3321	0.0024
313.15	0.03	1.333	0.0024
313.15	0.05	1.3338	0.0024
313.15	0.1	1.335	0.0024
318.15	0.005	1.329	0.0024
318.15	0.007	1.3301	0.0024
318.15	0.01	1.3311	0.0024
318.15	0.02	1.3321	0.0024
318.15	0.03	1.333	0.0024
318.15	0.05	1.3339	0.0024
318.15	0.1	1.3352	0.0024

System: glycylglycine + water + manganese chloride; phases: Liquid
Fixed: Pressure, kPa = 101
Fixed: Amount concentration (molarity), mol/dm3 of glycylglycine = 0.02
Property: Refractive index (Na D-line) (Liquid); method: ABBE:UFactor:6
Temperature, K	Amount concentration (molarity), mol/dm3 of manganese chloride	Refractive index (Na D-line)	uncertainty
288.15	0.005	1.3331	0.0024
288.15	0.01	1.3332	0.0024
288.15	0.03	1.3336	0.0024
288.15	0.05	1.3342	0.0024
288.15	0.1	1.3351	0.0024
288.15	0.25	1.3363	0.0024
288.15	0.5	1.3378	0.0024
293.15	0.005	1.3328	0.0024
293.15	0.01	1.3332	0.0024
293.15	0.03	1.3338	0.0024
293.15	0.05	1.3345	0.0024
293.15	0.1	1.3351	0.0024
293.15	0.25	1.3359	0.0024
293.15	0.5	1.3368	0.0024
298.15	0.005	1.3324	0.0024
298.15	0.01	1.3327	0.0024
298.15	0.03	1.3331	0.0024
298.15	0.05	1.3336	0.0024
298.15	0.1	1.3343	0.0024
298.15	0.25	1.3348	0.0024
298.15	0.5	1.3354	0.0024
303.15	0.005	1.3317	0.0024
303.15	0.01	1.3324	0.0024
303.15	0.03	1.3332	0.0024
303.15	0.05	1.334	0.0024
303.15	0.1	1.3349	0.0024
303.15	0.25	1.3357	0.0024
303.15	0.5	1.3364	0.0024
308.15	0.005	1.331	0.0024
308.15	0.01	1.3313	0.0024
308.15	0.03	1.3318	0.0024
308.15	0.05	1.3322	0.0024
308.15	0.1	1.3328	0.0024
308.15	0.25	1.3333	0.0024
308.15	0.5	1.3339	0.0024
313.15	0.005	1.3302	0.0024
313.15	0.01	1.3304	0.0024
313.15	0.03	1.3308	0.0024
313.15	0.05	1.3312	0.0024
313.15	0.1	1.3317	0.0024
313.15	0.25	1.3321	0.0024
313.15	0.5	1.3327	0.0024
318.15	0.005	1.3295	0.0024
318.15	0.01	1.3299	0.0024
318.15	0.03	1.3304	0.0024
318.15	0.05	1.3309	0.0024
318.15	0.1	1.3317	0.0024
318.15	0.25	1.3321	0.0024
318.15	0.5	1.3327	0.0024

System: glycylglycine + water + manganese chloride; phases: Liquid
Fixed: Pressure, kPa = 101
Fixed: Amount concentration (molarity), mol/dm3 of manganese chloride = 0.25
Property: Speed of sound, m/s (Liquid); method: LVPAI:UFactor:8
Temperature, K	Amount concentration (molarity), mol/dm3 of glycylglycine	Speed of sound, m/s	uncertainty
288.15	0.005	1042.01	12.34
288.15	0.007	1050.12	12.4
288.15	0.01	1057.16	12.46
288.15	0.02	1065.33	12.53
288.15	0.03	1072.99	12.59
288.15	0.05	1080.28	12.65
288.15	0.1	1087.57	12.7
293.15	0.005	1103.15	12.83
293.15	0.007	1111.85	12.9
293.15	0.01	1121.56	12.98
293.15	0.02	1132.27	13.06
293.15	0.03	1140.23	13.13
293.15	0.05	1148.73	13.19
293.15	0.1	1159.66	13.28
298.15	0.005	1184.32	13.48
298.15	0.007	1193.35	13.55
298.15	0.01	1200.65	13.61
298.15	0.02	1208.41	13.67
298.15	0.03	1215.1	13.72
298.15	0.05	1223.53	13.79
298.15	0.1	1234.66	13.88
303.15	0.005	1257.16	14.06
303.15	0.007	1266.4	14.13
303.15	0.01	1274.32	14.2
303.15	0.02	1284.2	14.28
303.15	0.03	1293.81	14.35
303.15	0.05	1302.56	14.42
303.15	0.1	1315.27	14.53
308.15	0.005	1321.07	14.57
308.15	0.007	1329.16	14.64
308.15	0.01	1335.43	14.69
308.15	0.02	1340.27	14.73
308.15	0.03	1346.15	14.77
308.15	0.05	1354.83	14.84
308.15	0.1	1363.06	14.91
313.15	0.005	1406.31	15.25
313.15	0.007	1414.56	15.32
313.15	0.01	1425.92	15.41
313.15	0.02	1435.81	15.49
313.15	0.03	1444.43	15.56
313.15	0.05	1455.18	15.65
313.15	0.1	1468.39	15.75
318.15	0.005	1490.56	15.93
318.15	0.007	1498.31	15.99
318.15	0.01	1505.63	16.05
318.15	0.02	1512.18	16.1
318.15	0.03	1520.27	16.17
318.15	0.05	1527.84	16.23
318.15	0.1	1538.11	16.31

System: glycylglycine + water + manganese chloride; phases: Liquid
Fixed: Pressure, kPa = 101
Fixed: Amount concentration (molarity), mol/dm3 of glycylglycine = 0.02
Property: Speed of sound, m/s (Liquid); method: LVPAI:UFactor:8
Temperature, K	Amount concentration (molarity), mol/dm3 of manganese chloride	Speed of sound, m/s	uncertainty
288.15	0.005	1035.2	12.29
288.15	0.01	1040.36	12.33
288.15	0.03	1045.15	12.36
288.15	0.05	1050.28	12.41
288.15	0.1	1057.01	12.46
288.15	0.25	1065.33	12.53
288.15	0.5	1071	12.57
293.15	0.005	1105.1	12.84
293.15	0.01	1110.22	12.89
293.15	0.03	1115.18	12.93
293.15	0.05	1120.31	12.97
293.15	0.1	1125.15	13
293.15	0.25	1132.27	13.06
293.15	0.5	1137.38	13.1
298.15	0.005	1180.15	13.44
298.15	0.01	1184.23	13.48
298.15	0.03	1189.1	13.52
298.15	0.05	1197.36	13.58
298.15	0.1	1203.29	13.63
298.15	0.25	1208.41	13.67
298.15	0.5	1213.32	13.71
303.15	0.005	1250.1	14
303.15	0.01	1256.21	14.05
303.15	0.03	1263.29	14.11
303.15	0.05	1271.34	14.17
303.15	0.1	1278.16	14.23
303.15	0.25	1284.2	14.28
303.15	0.5	1290.06	14.32
308.15	0.005	1316	14.53
308.15	0.01	1320.15	14.56
308.15	0.03	1325.07	14.6
308.15	0.05	1329.23	14.64
308.15	0.1	1335.18	14.68
308.15	0.25	1340.27	14.73
308.15	0.5	1347.36	14.78
313.15	0.005	1400.05	15.2
313.15	0.01	1407.17	15.26
313.15	0.03	1413.23	15.31
313.15	0.05	1420.28	15.37
313.15	0.1	1428.16	15.43
313.15	0.25	1435.81	15.49
313.15	0.5	1442.08	15.54
318.15	0.005	1483.31	15.87
318.15	0.01	1487.14	15.9
318.15	0.03	1492.1	15.94
318.15	0.05	1496.22	15.97
318.15	0.1	1506.29	16.05
318.15	0.25	1512.18	16.1
318.15	0.5	1519.37	16.16

System: glycylglycine + water + manganese chloride; phases: Liquid
Fixed: Pressure, kPa = 101
Fixed: Amount concentration (molarity), mol/dm3 of manganese chloride = 0.25
Property: Mass density, kg/m3 (Liquid); method: VIBTUB:UFactor:64
Temperature, K	Amount concentration (molarity), mol/dm3 of glycylglycine	Mass density, kg/m3	uncertainty
288.15	0.005	999.8	10
288.15	0.007	1003.3	10
288.15	0.01	1006.8	10
288.15	0.02	1010.4	10
288.15	0.03	1014	10
288.15	0.05	1017.3	10
288.15	0.1	1020.1	10
293.15	0.005	998.9	2.1
293.15	0.007	999.8	2
293.15	0.01	1000.7	2
293.15	0.02	1001.6	2
293.15	0.03	1002.6	2.1
293.15	0.05	1003.5	2.1
293.15	0.1	1004.5	2.1
298.15	0.005	997.6	2.1
298.15	0.007	998.4	2.1
298.15	0.01	999.5	2
298.15	0.02	1000.4	2
298.15	0.03	1001.3	2
298.15	0.05	1002.3	2
298.15	0.1	1003.5	2.1
303.15	0.005	996.1	2.1
303.15	0.007	997	2.1
303.15	0.01	997.7	2
303.15	0.02	998.5	2
303.15	0.03	999.4	2
303.15	0.05	999.9	2
303.15	0.1	1000.9	2
308.15	0.005	994.6	2.2
308.15	0.007	995.4	2.1
308.15	0.01	996.1	2.1
308.15	0.02	996.9	2.1
308.15	0.03	997.7	2
308.15	0.05	998.4	2
308.15	0.1	999.2	2
313.15	0.005	992.4	2.2
313.15	0.007	993.1	2.2
313.15	0.01	993.8	2.1
313.15	0.02	994.5	2.1
313.15	0.03	995.1	2.1
313.15	0.05	995.8	2.1
313.15	0.1	996.9	2.1
318.15	0.005	990.7	2.3
318.15	0.007	991.5	2.2
318.15	0.01	992	2.2
318.15	0.02	992.8	2.2
318.15	0.03	993.5	2.2
318.15	0.05	994.3	2.1
318.15	0.1	995.3	2.1

System: glycylglycine + water + manganese chloride; phases: Liquid
Fixed: Pressure, kPa = 101
Fixed: Amount concentration (molarity), mol/dm3 of glycylglycine = 0.02
Property: Mass density, kg/m3 (Liquid); method: VIBTUB:UFactor:64
Temperature, K	Amount concentration (molarity), mol/dm3 of manganese chloride	Mass density, kg/m3	uncertainty
288.15	0.005	999	10
288.15	0.01	999.3	10
288.15	0.03	999.9	10
288.15	0.05	1003	10
288.15	0.1	1007.6	10
288.15	0.25	1010.2	10
288.15	0.5	1012.1	10
293.15	0.005	998.2	2
293.15	0.01	998.7	2
293.15	0.03	999.3	2
293.15	0.05	999.9	2
293.15	0.1	1000.7	2
293.15	0.25	1001.6	2
293.15	0.5	1002.5	2.1
298.15	0.005	997	2.1
298.15	0.01	997.5	2
298.15	0.03	998.1	2
298.15	0.05	998.8	2
298.15	0.1	999.6	2
298.15	0.25	1000.4	2
298.15	0.5	1000.8	2
303.15	0.005	995.7	2.1
303.15	0.01	996.3	2.1
303.15	0.03	996.8	2.1
303.15	0.05	997.4	2.1
303.15	0.1	997.9	2
303.15	0.25	998.5	2
303.15	0.5	999.1	2
308.15	0.005	994	2.1
308.15	0.01	994.6	2.1
308.15	0.03	995.2	2.1
308.15	0.05	995.8	2.1
308.15	0.1	996.4	2.1
308.15	0.25	996.9	2.1
308.15	0.5	997.5	2.1
313.15	0.005	992.2	2.2
313.15	0.01	992.5	2.2
313.15	0.03	993.1	2.2
313.15	0.05	993.4	2.2
313.15	0.1	994	2.1
313.15	0.25	994.5	2.1
313.15	0.5	995.1	2.1
318.15	0.005	990.4	2.2
318.15	0.01	990.8	2.2
318.15	0.03	991.3	2.2
318.15	0.05	991.7	2.2
318.15	0.1	992.4	2.2
318.15	0.25	992.8	2.2
318.15	0.5	993.3	2.2
