Measured thermophysical data. Isothermal Vapor-Liquid Equilibria and Excess Enthalpy Data for the Binary System (Butyric Acid + Toluene)
Source: J. Chem. Eng. Data, 2009, 10.1021/je800888n
Compound 1: butanoic acid, C4H8O2, InChI=1S/C4H8O2/c1-2-3-4(5)6/h2-3H2,1H3,(H,5,6)
Compound 2: toluene, C7H8, InChI=1S/C7H8/c1-7-5-3-2-4-6-7/h2-6H,1H3

System: butanoic acid; phases: Liquid, Gas
Property: Vapor or sublimation pressure, kPa (Liquid); method: Closed cell (Static) method
Temperature, K	Vapor or sublimation pressure, kPa	uncertainty
273.15	0.0137	0.0017
283.15	0.0324	0.0036
293.15	0.0725	0.0077
293.29	0.072	0.0073
298.15	0.1063	0.0112
298.25	0.1052	0.0107
303.15	0.1541	0.0159
303.28	0.1545	0.0156
313.15	0.3128	0.007
313.22	0.3155	0.0045
323.15	0.6084	0.0122
323.2	0.6183	0.0082
333.15	1.1383	0.0198
333.18	1.1534	0.0103
343.15	2.0555	0.0224
343.18	2.0734	0.0134
353.1	3.5818	0.0195
353.15	3.5928	0.0294
363.08	5.9732	0.0295
363.15	6.0946	0.0419

System: toluene; phases: Liquid, Gas
Property: Vapor or sublimation pressure, kPa (Liquid); method: Closed cell (Static) method
Temperature, K	Vapor or sublimation pressure, kPa	uncertainty
253.83	0.2392	0.0036
263.64	0.4837	0.0065
273.15	0.9082	0.0174
273.47	0.9254	0.012
283.15	1.6658	0.0208
283.32	1.68	0.0118
293.15	2.9106	0.0255
293.24	2.9255	0.0165
293.26	2.9255	0.0165
298.15	3.7846	0.0296
298.25	3.8029	0.0201
303.15	4.8715	0.0348
303.23	4.8943	0.0248
313.15	7.8478	0.0492
313.19	7.8715	0.0373
313.22	7.8741	0.0373
323.15	12.2185	0.0709
323.22	12.244	0.0561
333.15	18.4504	0.102
333.2	18.574	0.0833
343.15	27.1048	0.1454
343.16	27.202	0.1205
353.13	38.837	0.1705
353.15	38.8414	0.2044
363.08	54.133	0.2357
363.15	54.4207	0.2821

System: butanoic acid + toluene; phases: Liquid
Fixed: Temperature, K = 323.15
Fixed: Pressure, kPa = 101
Property: Excess molar enthalpy (molar enthalpy of mixing), kJ/mol (Liquid); method: Flow calorimetry
Mole fraction of butanoic acid	Excess molar enthalpy (molar enthalpy of mixing), kJ/mol	uncertainty
0.0289	0.02756	0.0041
0.0576	0.02775	0.0041
0.1144	0.01539	0.00408
0.1702	-0.00151	0.00406
0.2251	-0.01811	0.00409
0.2792	-0.03059	0.00411
0.3325	-0.04364	0.00413
0.3849	-0.0541	0.0041
0.4366	-0.0624	0.0042
0.4874	-0.0684	0.0042
0.5375	-0.0729	0.0042
0.5869	-0.0737	0.0042
0.6355	-0.0707	0.0042
0.6834	-0.0674	0.0042
0.7306	-0.0615	0.0042
0.7771	-0.0542	0.0041
0.823	-0.0448	0.0041
0.8682	-0.0334	0.0041
0.9127	-0.0228	0.0041
0.9567	-0.0105	0.0041
0.9784	-0.00478	0.00407

System: butanoic acid + toluene; phases: Liquid, Gas
Property: Vapor or sublimation pressure, kPa (Liquid); method: Closed cell (Static) method
Temperature, K	Mole fraction of butanoic acid	Vapor or sublimation pressure, kPa	uncertainty
273.15	0	0.9082	0.0174
273.15	0.0115	0.9011	0.0172
273.15	0.0386	0.8958	0.0171
273.15	0.0572	0.8747	0.0168
273.15	0.1041	0.8552	0.0164
273.15	0.2134	0.8133	0.0157
273.15	0.3565	0.7069	0.0139
273.15	0.4791	0.6077	0.0122
273.15	0.6072	0.5076	0.0104
273.15	0.7324	0.4471	0.0094
273.15	0.8926	0.2241	0.0056
273.15	1	0.0137	0.0017
283.15	0	1.6658	0.0208
283.15	0.0115	1.6552	0.0208
283.15	0.0386	1.6469	0.0208
283.15	0.0572	1.6129	0.0207
283.15	0.1041	1.572	0.0205
283.15	0.2134	1.4858	0.0203
283.15	0.3565	1.3003	0.0197
283.15	0.4791	1.1154	0.0194
283.15	0.6072	0.9254	0.0177
283.15	0.7324	0.7895	0.0153
283.15	0.8926	0.3978	0.0086
283.15	1	0.0324	0.0036
293.15	0	2.9106	0.0255
293.15	0.0115	2.8952	0.0255
293.15	0.0386	2.8821	0.0254
293.15	0.0572	2.829	0.0252
293.15	0.1041	2.752	0.0249
293.15	0.2134	2.5904	0.0242
293.15	0.3565	2.2801	0.0229
293.15	0.4791	1.9547	0.0218
293.15	0.6072	1.6151	0.0207
293.15	0.7324	1.3469	0.0199
293.15	0.8926	0.6848	0.0136
293.15	1	0.0725	0.0077
298.15	0	3.7846	0.0296
298.15	0.0115	3.7662	0.0295
298.15	0.0386	3.7497	0.0295
298.15	0.0572	3.6842	0.0292
298.15	0.1041	3.5818	0.0287
298.15	0.2134	3.3665	0.0278
298.15	0.3565	2.9706	0.026
298.15	0.4791	2.5471	0.0241
298.15	0.6072	2.1022	0.0224
298.15	0.7324	1.7383	0.0212
298.15	0.8926	0.8887	0.0172
298.15	1	0.1063	0.0112
303.15	0	4.8715	0.0348
303.15	0.0115	4.8497	0.0348
303.15	0.0386	4.8288	0.0347
303.15	0.0572	4.7484	0.0343
303.15	0.1041	4.6148	0.0337
303.15	0.2134	4.3325	0.0324
303.15	0.3565	3.8318	0.0301
303.15	0.4791	3.2868	0.0276
303.15	0.6072	2.711	0.025
303.15	0.7324	2.2267	0.023
303.15	0.8926	1.1456	0.0202
303.15	1	0.1541	0.0159
313.15	0	7.8478	0.0492
313.15	0.0115	7.8174	0.0492
313.15	0.0386	7.7835	0.0489
313.15	0.0572	7.6646	0.0485
313.15	0.1041	7.4474	0.0474
313.15	0.2134	6.9826	0.0453
313.15	0.3565	6.2004	0.0416
313.15	0.4791	5.3266	0.0375
313.15	0.6072	4.3941	0.033
313.15	0.7324	3.5769	0.0293
313.15	0.8926	1.8668	0.0222
313.15	1	0.3128	0.007
323.15	0	12.2185	0.0709
323.15	0.0115	12.1766	0.0708
323.15	0.0386	12.121	0.0705
323.15	0.0572	11.9486	0.0698
323.15	0.1041	11.6148	0.0682
323.15	0.2134	10.8866	0.0647
323.15	0.3565	9.6992	0.0591
323.15	0.4791	8.3512	0.0526
323.15	0.6072	6.9004	0.0455
323.15	0.7324	5.5964	0.0394
323.15	0.8926	2.9688	0.0272
323.15	1	0.6084	0.0122
333.15	0	18.4504	0.102
333.15	0.0115	18.3926	0.1019
333.15	0.0386	18.3018	0.1014
333.15	0.0572	18.0558	0.1004
333.15	0.1041	17.5671	0.0981
333.15	0.2134	16.4743	0.0929
333.15	0.3565	14.7181	0.0846
333.15	0.4791	12.7089	0.0748
333.15	0.6072	10.531	0.0641
333.15	0.7324	8.5466	0.0546
333.15	0.8926	4.6163	0.0359
333.15	1	1.1383	0.0198
343.15	0	27.1048	0.1454
343.15	0.0115	27.0248	0.1453
343.15	0.0386	26.8777	0.1445
343.15	0.0572	26.5319	0.1431
343.15	0.1041	25.8466	0.1398
343.15	0.2134	24.2678	0.1324
343.15	0.3565	21.7302	0.1203
343.15	0.4791	18.8262	0.1063
343.15	0.6072	15.66	0.0906
343.15	0.7324	12.7642	0.0767
343.15	0.8926	7.0293	0.049
343.15	1	2.0555	0.0224
353.15	0	38.8414	0.2044
353.15	0.0115	38.7301	0.2041
353.15	0.0386	38.4961	0.2029
353.15	0.0572	38.0157	0.201
353.15	0.1041	37.0924	0.1966
353.15	0.2134	34.8869	0.1863
353.15	0.3565	31.2978	0.1692
353.15	0.4791	27.2152	0.1495
353.15	0.6072	22.743	0.1274
353.15	0.7324	18.6747	0.1078
353.15	0.8926	10.4968	0.0681
353.15	1	3.5928	0.0294
363.15	0	54.4207	0.2821
363.15	0.0115	54.2652	0.2815
363.15	0.0386	53.9006	0.28
363.15	0.0572	53.2408	0.277
363.15	0.1041	52.0424	0.2714
363.15	0.2134	49.054	0.2576
363.15	0.3565	44.075	0.2341
363.15	0.4791	38.4779	0.2071
363.15	0.6072	32.3244	0.1769
363.15	0.7324	26.8069	0.15
363.15	0.8926	15.3929	0.0948
363.15	1	6.0946	0.0419
