Measured thermophysical data. Solubility of D(-)-p-Hydroxyphenylglycine Dane Salt in Eight Alcohols between (293 and 343) K
Source: J. Chem. Eng. Data, 2008, 10.1021/je800506q
Compound 1: potassium (R,E)-2-(4-hydroxyphenyl)-2-((4-methoxy-4-oxobut-2-en-2-yl)amino)acetate, C13H14KNO5, InChI=1S/C13H15NO5.K/c1-8(7-11(16)19-2)14-12(13(17)18)9-3-5-10(15)6-4-9;/h3-7,12,14-15H,1-2H3,(H,17,18);/q;+1/p-1/b8-7+;/t12-;/m1./s1
Compound 2: methanol, CH4O, InChI=1S/CH4O/c1-2/h2H,1H3
Compound 3: ethanol, C2H6O, InChI=1S/C2H6O/c1-2-3/h3H,2H2,1H3
Compound 4: propan-1-ol, C3H8O, InChI=1S/C3H8O/c1-2-3-4/h4H,2-3H2,1H3
Compound 5: propan-2-ol, C3H8O, InChI=1S/C3H8O/c1-3(2)4/h3-4H,1-2H3
Compound 6: butan-1-ol, C4H10O, InChI=1S/C4H10O/c1-2-3-4-5/h5H,2-4H2,1H3
Compound 7: butan-2-ol, C4H10O, InChI=1S/C4H10O/c1-3-4(2)5/h4-5H,3H2,1-2H3
Compound 8: pentan-1-ol, C5H12O, InChI=1S/C5H12O/c1-2-3-4-5-6/h6H,2-5H2,1H3
Compound 9: pentan-2-ol, C5H12O, InChI=1S/C5H12O/c1-3-4-5(2)6/h5-6H,3-4H2,1-2H3

System: methanol + potassium (R,E)-2-(4-hydroxyphenyl)-2-((4-methoxy-4-oxobut-2-en-2-yl)amino)acetate; phases: Liquid, Crystal
Fixed: Pressure, kPa = 101
Property: Mole fraction of potassium (R,E)-2-(4-hydroxyphenyl)-2-((4-methoxy-4-oxobut-2-en-2-yl)amino)acetate (Liquid); method: laser monitoring observation technique
Temperature, K	Mole fraction of potassium (R,E)-2-(4-hydroxyphenyl)-2-((4-methoxy-4-oxobut-2-en-2-yl)amino)acetate	uncertainty
293.15	0.00346	0.000125
298.22	0.003703	0.000134
303.15	0.003958	0.000143
308.19	0.004237	0.000153
313.35	0.004542	0.000164
318.27	0.00485	0.000175
323.35	0.005187	0.000188
328.16	0.005524	0.0002
333.35	0.005996	0.000217

System: ethanol + potassium (R,E)-2-(4-hydroxyphenyl)-2-((4-methoxy-4-oxobut-2-en-2-yl)amino)acetate; phases: Liquid, Crystal
Fixed: Pressure, kPa = 101
Property: Mole fraction of potassium (R,E)-2-(4-hydroxyphenyl)-2-((4-methoxy-4-oxobut-2-en-2-yl)amino)acetate (Liquid); method: laser monitoring observation technique
Temperature, K	Mole fraction of potassium (R,E)-2-(4-hydroxyphenyl)-2-((4-methoxy-4-oxobut-2-en-2-yl)amino)acetate	uncertainty
293.25	0.0004045	1.34e-05
298.26	0.0004373	1.45e-05
303.25	0.000478	1.58e-05
308.19	0.0005195	1.72e-05
313.09	0.0005596	1.85e-05
318.26	0.0006292	2.08e-05
323.11	0.0006814	2.26e-05
328.18	0.0007531	2.49e-05
333.41	0.000834	2.76e-05
338.31	0.0009163	3.03e-05
343.35	0.00104	3.4e-05

System: propan-1-ol + potassium (R,E)-2-(4-hydroxyphenyl)-2-((4-methoxy-4-oxobut-2-en-2-yl)amino)acetate; phases: Liquid, Crystal
Fixed: Pressure, kPa = 101
Property: Mole fraction of potassium (R,E)-2-(4-hydroxyphenyl)-2-((4-methoxy-4-oxobut-2-en-2-yl)amino)acetate (Liquid); method: laser monitoring observation technique
Temperature, K	Mole fraction of potassium (R,E)-2-(4-hydroxyphenyl)-2-((4-methoxy-4-oxobut-2-en-2-yl)amino)acetate	uncertainty
293.15	0.0001779	5.7e-06
298.23	0.0001913	6.1e-06
303.05	0.0002057	6.6e-06
308.18	0.0002275	7.2e-06
313.05	0.0002562	8.2e-06
318.29	0.0002795	8.9e-06
323.05	0.0003058	9.7e-06
328.21	0.0003452	1.1e-05
333.25	0.0003823	1.22e-05
338.34	0.0004275	1.36e-05
343.35	0.0004755	1.51e-05

System: propan-2-ol + potassium (R,E)-2-(4-hydroxyphenyl)-2-((4-methoxy-4-oxobut-2-en-2-yl)amino)acetate; phases: Liquid, Crystal
Fixed: Pressure, kPa = 101
Property: Mole fraction of potassium (R,E)-2-(4-hydroxyphenyl)-2-((4-methoxy-4-oxobut-2-en-2-yl)amino)acetate (Liquid); method: laser monitoring observation technique
Temperature, K	Mole fraction of potassium (R,E)-2-(4-hydroxyphenyl)-2-((4-methoxy-4-oxobut-2-en-2-yl)amino)acetate	uncertainty
293.25	5.74e-05	1.8e-06
298.23	6.38e-05	2e-06
303.05	7.22e-05	2.3e-06
308.41	8.4e-05	2.7e-06
313.15	9.66e-05	3.1e-06
318.26	0.0001125	3.6e-06
323.15	0.0001299	4.1e-06
328.19	0.0001502	4.8e-06
333.35	0.0001733	5.5e-06
338.27	0.0001977	6.3e-06
343.25	0.0002245	7.2e-06

System: butan-1-ol + potassium (R,E)-2-(4-hydroxyphenyl)-2-((4-methoxy-4-oxobut-2-en-2-yl)amino)acetate; phases: Liquid, Crystal
Fixed: Pressure, kPa = 101
Property: Mole fraction of potassium (R,E)-2-(4-hydroxyphenyl)-2-((4-methoxy-4-oxobut-2-en-2-yl)amino)acetate (Liquid); method: laser monitoring observation technique
Temperature, K	Mole fraction of potassium (R,E)-2-(4-hydroxyphenyl)-2-((4-methoxy-4-oxobut-2-en-2-yl)amino)acetate	uncertainty
293.15	9.97e-05	3.1e-06
298.31	0.0001101	3.4e-06
302.95	0.0001223	3.8e-06
308.19	0.0001393	4.4e-06
312.95	0.0001578	4.9e-06
318.16	0.0001812	5.7e-06
323.25	0.0002074	6.5e-06
328.29	0.0002365	7.4e-06
333.17	0.0002678	8.4e-06
338.32	0.000304	9.5e-06
342.95	0.0003394	1.06e-05

System: butan-2-ol + potassium (R,E)-2-(4-hydroxyphenyl)-2-((4-methoxy-4-oxobut-2-en-2-yl)amino)acetate; phases: Liquid, Crystal
Fixed: Pressure, kPa = 101
Property: Mole fraction of potassium (R,E)-2-(4-hydroxyphenyl)-2-((4-methoxy-4-oxobut-2-en-2-yl)amino)acetate (Liquid); method: laser monitoring observation technique
Temperature, K	Mole fraction of potassium (R,E)-2-(4-hydroxyphenyl)-2-((4-methoxy-4-oxobut-2-en-2-yl)amino)acetate	uncertainty
293.35	3.51e-05	1.1e-06
298.24	4.38e-05	1.4e-06
303.05	5.87e-05	1.8e-06
308.17	6.64e-05	2.1e-06
313.05	8.11e-05	2.5e-06
318.36	9.62e-05	3e-06
323.23	0.0001128	3.5e-06
328.26	0.0001316	4.1e-06
333.15	0.0001514	4.7e-06
338.28	0.0001739	5.4e-06
343.23	0.0001973	6.2e-06

System: pentan-1-ol + potassium (R,E)-2-(4-hydroxyphenyl)-2-((4-methoxy-4-oxobut-2-en-2-yl)amino)acetate; phases: Liquid, Crystal
Fixed: Pressure, kPa = 101
Property: Mole fraction of potassium (R,E)-2-(4-hydroxyphenyl)-2-((4-methoxy-4-oxobut-2-en-2-yl)amino)acetate (Liquid); method: laser monitoring observation technique
Temperature, K	Mole fraction of potassium (R,E)-2-(4-hydroxyphenyl)-2-((4-methoxy-4-oxobut-2-en-2-yl)amino)acetate	uncertainty
293.05	8.48e-05	2.6e-06
298.25	0.0001017	3.1e-06
303.25	0.0001192	3.7e-06
308.19	0.0001337	4.1e-06
313.07	0.0001523	4.7e-06
318.26	0.0001699	5.2e-06
323.25	0.0001896	5.9e-06
328.17	0.0002091	6.5e-06
333.25	0.0002259	7e-06
338.13	0.0002523	7.8e-06
343.35	0.0002789	8.6e-06

System: pentan-2-ol + potassium (R,E)-2-(4-hydroxyphenyl)-2-((4-methoxy-4-oxobut-2-en-2-yl)amino)acetate; phases: Liquid, Crystal
Fixed: Pressure, kPa = 101
Property: Mole fraction of potassium (R,E)-2-(4-hydroxyphenyl)-2-((4-methoxy-4-oxobut-2-en-2-yl)amino)acetate (Liquid); method: laser monitoring observation technique
Temperature, K	Mole fraction of potassium (R,E)-2-(4-hydroxyphenyl)-2-((4-methoxy-4-oxobut-2-en-2-yl)amino)acetate	uncertainty
293.25	6.22e-05	1.9e-06
298.28	7.86e-05	2.4e-06
303.35	9.99e-05	3.1e-06
308.19	0.0001167	3.6e-06
313.15	0.000141	4.4e-06
318.29	0.0001686	5.2e-06
323.15	0.0001962	6.1e-06
328.34	0.0002332	7.2e-06
333.05	0.000267	8.2e-06
338.24	0.0003096	9.6e-06
343.26	0.0003543	1.09e-05
