Measured thermophysical data. Excess Molar Enthalpies of N,N-Dimethylethanolamine with (Methanol, Ethanol, 1-Propanol, and 2-Propanol) at T ) (298.2, 313.2, and 328.2) K and p ) (0.1 and 10.0) MPa
Source: J. Chem. Eng. Data, 2008, 10.1021/je800334m
Compound 1: 2-(N,N-dimethylamino)ethanol, C4H11NO, InChI=1S/C4H11NO/c1-5(2)3-4-6/h6H,3-4H2,1-2H3, purity 99%
Compound 2: methanol, CH4O, InChI=1S/CH4O/c1-2/h2H,1H3, purity 99.85%
Compound 3: ethanol, C2H6O, InChI=1S/C2H6O/c1-2-3/h3H,2H2,1H3, purity 99.85%
Compound 4: propan-1-ol, C3H8O, InChI=1S/C3H8O/c1-2-3-4/h4H,2-3H2,1H3, purity 99.85%
Compound 5: propan-2-ol, C3H8O, InChI=1S/C3H8O/c1-3(2)4/h3-4H,1-2H3, purity 99.85%

System: 2-(N,N-dimethylamino)ethanol; phases: Liquid
Property: Molar volume, m3/mol (Liquid); method: VIBTUB:UFactor:4
Temperature, K	Pressure, kPa	Molar volume, m3/mol	uncertainty
298.15	100	0.00010094	5e-08
298.15	10000	0.00010094	7e-08
313.15	100	0.00010243	5e-08
313.15	10000	0.00010243	8e-08
328.15	100	0.0001039	5e-08
328.15	10000	0.0001039	9e-08

System: methanol; phases: Liquid
Property: Molar volume, m3/mol (Liquid); method: PYCNOM:UFactor:4
Temperature, K	Pressure, kPa	Molar volume, m3/mol	uncertainty
298.15	100	4.073e-05	5e-08
298.15	10000	4.024e-05	5e-08
313.15	100	4.146e-05	6e-08
313.15	10000	4.096e-05	6e-08
328.15	100	4.221e-05	7e-08
328.15	10000	4.17e-05	7e-08

System: ethanol; phases: Liquid
Property: Molar volume, m3/mol (Liquid); method: VIBTUB:UFactor:4
Temperature, K	Pressure, kPa	Molar volume, m3/mol	uncertainty
298.15	100	5.867e-05	4e-08
298.15	10000	5.803e-05	7e-08
313.15	100	5.964e-05	5e-08
313.15	10000	5.899e-05	8e-08
328.15	100	6.067e-05	5e-08
328.15	10000	6.001e-05	9e-08

System: propan-1-ol; phases: Liquid
Property: Molar volume, m3/mol (Liquid); method: VIBTUB:UFactor:4
Temperature, K	Pressure, kPa	Molar volume, m3/mol	uncertainty
298.15	100	7.514e-05	5e-08
298.15	10000	7.452e-05	9e-08
313.15	100	7.632e-05	6e-08
313.15	10000	7.569e-05	9e-08
328.15	100	7.759e-05	6e-08
328.15	10000	7.694e-05	1e-07

System: propan-2-ol; phases: Liquid
Property: Molar volume, m3/mol (Liquid); method: VIBTUB:UFactor:4
Temperature, K	Pressure, kPa	Molar volume, m3/mol	uncertainty
298.15	100	7.694e-05	6e-08
298.15	10000	7.594e-05	1e-07
313.15	100	7.822e-05	6e-08
313.15	10000	7.72e-05	1e-07
328.15	100	7.962e-05	7e-08
328.15	10000	7.857e-05	1.1e-07

System: methanol + 2-(N,N-dimethylamino)ethanol; phases: Liquid
Property: Excess molar enthalpy (molar enthalpy of mixing), kJ/mol (Liquid); method: Flow calorimetry
Temperature, K	Pressure, kPa	Mole fraction of 2-(N,N-dimethylamino)ethanol	Excess molar enthalpy (molar enthalpy of mixing), kJ/mol	uncertainty
298.2	100	0.0499	-0.2518	0.007
298.2	100	0.099	-0.4528	0.0105
298.2	100	0.1495	-0.603	0.0133
298.2	100	0.1981	-0.7192	0.0156
298.2	100	0.2479	-0.8057	0.0174
298.2	100	0.2982	-0.8648	0.0186
298.2	100	0.3481	-0.8961	0.0193
298.2	100	0.3968	-0.9063	0.0195
298.2	100	0.4466	-0.8972	0.0193
298.2	100	0.4972	-0.8673	0.0187
298.2	100	0.5483	-0.8256	0.0178
298.2	100	0.5992	-0.767	0.0166
298.2	100	0.6494	-0.7006	0.0152
298.2	100	0.6981	-0.622	0.0136
298.2	100	0.7506	-0.5322	0.0117
298.2	100	0.8007	-0.4382	0.0098
298.2	100	0.8477	-0.3433	0.0078
298.2	100	0.8977	-0.236	0.0057
298.2	100	0.9512	-0.113	0.0028
298.2	10000	0.05	-0.2757	0.0073
298.2	10000	0.0993	-0.4687	0.0108
298.2	10000	0.1479	-0.6126	0.0135
298.2	10000	0.1986	-0.731	0.0159
298.2	10000	0.2485	-0.8126	0.0175
298.2	10000	0.2961	-0.8654	0.0186
298.2	10000	0.3458	-0.8962	0.0193
298.2	10000	0.3976	-0.9057	0.0195
298.2	10000	0.4474	-0.8951	0.0192
298.2	10000	0.4981	-0.8674	0.0187
298.2	10000	0.5447	-0.827	0.0178
298.2	10000	0.5952	-0.7715	0.0167
298.2	10000	0.645	-0.7047	0.0153
298.2	10000	0.6988	-0.6213	0.0135
298.2	10000	0.7452	-0.5409	0.0119
298.2	10000	0.7948	-0.4508	0.01
298.2	10000	0.8481	-0.3423	0.0078
298.2	10000	0.898	-0.2351	0.0057
313.2	100	0.0499	-0.2594	0.007
313.2	100	0.099	-0.4565	0.0106
313.2	100	0.1495	-0.6213	0.0137
313.2	100	0.1981	-0.7397	0.0161
313.2	100	0.2479	-0.8227	0.0178
313.2	100	0.2982	-0.8805	0.0189
313.2	100	0.3481	-0.9086	0.0195
313.2	100	0.3968	-0.9166	0.0197
313.2	100	0.4466	-0.9091	0.0195
313.2	100	0.4972	-0.8814	0.019
313.2	100	0.5483	-0.8339	0.018
313.2	100	0.5992	-0.7814	0.0169
313.2	100	0.6494	-0.7102	0.0154
313.2	100	0.6981	-0.632	0.0137
313.2	100	0.7506	-0.5449	0.012
313.2	100	0.8007	-0.4454	0.0099
313.2	100	0.8477	-0.3477	0.0079
313.2	100	0.8977	-0.2367	0.0057
313.2	100	0.9512	-0.1173	0.0029
313.2	10000	0.0502	-0.2609	0.0071
313.2	10000	0.0996	-0.4633	0.0107
313.2	10000	0.1484	-0.6177	0.0136
313.2	10000	0.1992	-0.7424	0.0161
313.2	10000	0.2491	-0.8291	0.0179
313.2	10000	0.2968	-0.884	0.019
313.2	10000	0.3465	-0.9176	0.0197
313.2	10000	0.3983	-0.9279	0.0199
313.2	10000	0.4482	-0.9171	0.0197
313.2	10000	0.4989	-0.89	0.0191
313.2	10000	0.5455	-0.8511	0.0183
313.2	10000	0.596	-0.7947	0.0172
313.2	10000	0.6457	-0.7272	0.0157
313.2	10000	0.6995	-0.64	0.0139
313.2	10000	0.7458	-0.5585	0.0122
313.2	10000	0.7953	-0.4639	0.0103
313.2	10000	0.8485	-0.3543	0.0081
313.2	10000	0.8983	-0.2417	0.0059
328.2	100	0.1479	-0.5919	0.0131
328.2	100	0.1972	-0.7142	0.0156
328.2	100	0.2469	-0.8026	0.0173
328.2	100	0.2976	-0.8599	0.0185
328.2	100	0.3469	-0.8941	0.0192
328.2	100	0.3974	-0.9026	0.0194
328.2	100	0.4466	-0.8949	0.0192
328.2	100	0.4956	-0.8653	0.0186
328.2	100	0.5465	-0.8224	0.0177
328.2	100	0.5963	-0.7659	0.0165
328.2	100	0.6473	-0.6999	0.0152
328.2	10000	0.1487	-0.5927	0.0131
328.2	10000	0.1983	-0.7172	0.0156
328.2	10000	0.2481	-0.8099	0.0175
328.2	10000	0.2973	-0.8679	0.0187
328.2	10000	0.3465	-0.903	0.0194
328.2	10000	0.397	-0.9111	0.0196
328.2	10000	0.446	-0.9061	0.0195
328.2	10000	0.4972	-0.8798	0.0189
328.2	10000	0.5455	-0.8396	0.0181
328.2	10000	0.5979	-0.7828	0.0169
328.2	10000	0.6457	-0.7202	0.0156
328.2	10000	0.6973	-0.6422	0.014

System: ethanol + 2-(N,N-dimethylamino)ethanol; phases: Liquid
Property: Excess molar enthalpy (molar enthalpy of mixing), kJ/mol (Liquid); method: Flow calorimetry
Temperature, K	Pressure, kPa	Mole fraction of 2-(N,N-dimethylamino)ethanol	Excess molar enthalpy (molar enthalpy of mixing), kJ/mol	uncertainty
298.2	100	0.0717	-0.1466	0.0037
298.2	100	0.1392	-0.2421	0.0056
298.2	100	0.2054	-0.3193	0.0071
298.2	100	0.2665	-0.3657	0.008
298.2	100	0.3264	-0.3924	0.0086
298.2	100	0.3845	-0.4078	0.0089
298.2	100	0.4399	-0.4114	0.009
298.2	100	0.4916	-0.4044	0.0088
298.2	100	0.5427	-0.3904	0.0086
298.2	100	0.5925	-0.3709	0.0081
298.2	100	0.6409	-0.3438	0.0076
298.2	100	0.6874	-0.3117	0.0069
298.2	100	0.7314	-0.2783	0.0062
298.2	100	0.7727	-0.2476	0.0056
298.2	100	0.8157	-0.2036	0.0047
298.2	100	0.8553	-0.1682	0.004
298.2	100	0.8911	-0.1298	0.0033
298.2	100	0.9281	-0.085	0.0025
298.2	100	0.9663	-0.0372	0.0018
298.2	10000	0.0721	-0.1553	0.0039
298.2	10000	0.1399	-0.2565	0.0059
298.2	10000	0.2039	-0.321	0.0071
298.2	10000	0.2678	-0.3672	0.0081
298.2	10000	0.3279	-0.3996	0.0088
298.2	10000	0.3829	-0.4134	0.009
298.2	10000	0.4381	-0.4173	0.0091
298.2	10000	0.4933	-0.4096	0.009
298.2	10000	0.5443	-0.3951	0.0087
298.2	10000	0.5941	-0.3726	0.0082
298.2	10000	0.6383	-0.3492	0.0077
298.2	10000	0.6845	-0.319	0.0071
298.2	10000	0.7283	-0.2861	0.0064
298.2	10000	0.7739	-0.2471	0.0056
298.2	10000	0.8118	-0.2114	0.0049
298.2	10000	0.8511	-0.1712	0.0041
298.2	10000	0.8917	-0.1278	0.0032
298.2	10000	0.9285	-0.0847	0.0025
298.2	10000	0.9665	-0.0378	0.0017
313.2	100	0.0717	-0.1543	0.0039
313.2	100	0.1392	-0.2599	0.0059
313.2	100	0.2028	-0.3288	0.0073
313.2	100	0.2665	-0.3812	0.0084
313.2	100	0.3264	-0.4094	0.009
313.2	100	0.3845	-0.4246	0.0093
313.2	100	0.4399	-0.4264	0.0093
313.2	100	0.4916	-0.4188	0.0091
313.2	100	0.5427	-0.4031	0.0088
313.2	100	0.5925	-0.3813	0.0084
313.2	100	0.6409	-0.3539	0.0078
313.2	100	0.683	-0.3249	0.0072
313.2	100	0.727	-0.2907	0.0065
313.2	100	0.7727	-0.2517	0.0057
313.2	100	0.8108	-0.2146	0.0049
313.2	100	0.8553	-0.168	0.004
313.2	100	0.8911	-0.1294	0.0032
313.2	100	0.9281	-0.0875	0.0025
313.2	100	0.9663	-0.0412	0.0018
313.2	10000	0.0699	-0.1546	0.0039
313.2	10000	0.1399	-0.2649	0.006
313.2	10000	0.2039	-0.3357	0.0074
313.2	10000	0.265	-0.3838	0.0084
313.2	10000	0.3249	-0.4138	0.009
313.2	10000	0.3829	-0.4283	0.0093
313.2	10000	0.4381	-0.4305	0.0094
313.2	10000	0.4933	-0.4224	0.0092
313.2	10000	0.5443	-0.4068	0.0089
313.2	10000	0.5902	-0.3863	0.0085
313.2	10000	0.6383	-0.3582	0.0079
313.2	10000	0.6845	-0.3271	0.0072
313.2	10000	0.7283	-0.2931	0.0065
313.2	10000	0.7739	-0.253	0.0057
313.2	10000	0.8118	-0.2164	0.005
313.2	10000	0.8511	-0.1758	0.0042
313.2	10000	0.8917	-0.1302	0.0033
313.2	10000	0.9285	-0.088	0.0025
313.2	10000	0.9665	-0.0414	0.0018
328.2	100	0.2034	-0.3113	0.0069
328.2	100	0.2654	-0.3572	0.0079
328.2	100	0.3253	-0.3851	0.0084
328.2	100	0.3839	-0.3986	0.0087
328.2	100	0.4385	-0.4025	0.0088
328.2	100	0.4924	-0.3931	0.0086
328.2	100	0.5427	-0.382	0.0084
328.2	100	0.591	-0.3585	0.0079
328.2	100	0.6393	-0.3342	0.0074
328.2	100	0.6848	-0.3042	0.0067
328.2	100	0.7296	-0.2718	0.006
328.2	10000	0.2044	-0.3148	0.007
328.2	10000	0.2667	-0.3599	0.0079
328.2	10000	0.3267	-0.3876	0.0085
328.2	10000	0.3835	-0.4026	0.0088
328.2	10000	0.4381	-0.4038	0.0088
328.2	10000	0.4919	-0.3953	0.0087
328.2	10000	0.5421	-0.3805	0.0084
328.2	10000	0.5926	-0.359	0.0079
328.2	10000	0.6383	-0.3325	0.0074

System: propan-1-ol + 2-(N,N-dimethylamino)ethanol; phases: Liquid
Property: Excess molar enthalpy (molar enthalpy of mixing), kJ/mol (Liquid); method: Flow calorimetry
Temperature, K	Pressure, kPa	Mole fraction of 2-(N,N-dimethylamino)ethanol	Excess molar enthalpy (molar enthalpy of mixing), kJ/mol	uncertainty
298.2	100	0.2007	-0.1914	0.0044
298.2	100	0.2509	-0.2138	0.0048
298.2	100	0.3008	-0.2309	0.0052
298.2	100	0.3505	-0.2438	0.0055
298.2	100	0.3999	-0.2508	0.0056
298.2	100	0.4507	-0.2519	0.0056
298.2	100	0.499	-0.2537	0.0057
298.2	100	0.5509	-0.245	0.0055
298.2	100	0.6	-0.2344	0.0053
298.2	100	0.6505	-0.2193	0.0049
298.2	10000	0.2001	-0.1911	0.0044
298.2	10000	0.2503	-0.2139	0.0048
298.2	10000	0.3004	-0.2312	0.0052
298.2	10000	0.3502	-0.2434	0.0055
298.2	10000	0.3995	-0.2517	0.0056
298.2	10000	0.4504	-0.2547	0.0057
298.2	10000	0.5007	-0.253	0.0057
298.2	10000	0.5504	-0.2454	0.0055
298.2	10000	0.5994	-0.2344	0.0053
298.2	10000	0.6497	-0.2205	0.005
313.2	100	0.2984	-0.2512	0.0056
313.2	100	0.3505	-0.2669	0.006
313.2	100	0.4012	-0.2762	0.0062
313.2	100	0.4501	-0.2794	0.0062
313.2	100	0.5004	-0.2771	0.0062
313.2	100	0.5488	-0.2686	0.006
313.2	100	0.5985	-0.2565	0.0057
313.2	100	0.6497	-0.2389	0.0054
313.2	100	0.6986	-0.2167	0.0049
313.2	100	0.7488	-0.1904	0.0044
313.2	100	0.8005	-0.1578	0.0037
313.2	100	0.8495	-0.1244	0.003
313.2	10000	0.2492	-0.2313	0.0052
313.2	10000	0.2998	-0.2555	0.0057
313.2	10000	0.3489	-0.2701	0.006
313.2	10000	0.3995	-0.2792	0.0062
313.2	10000	0.4484	-0.282	0.0063
313.2	10000	0.4986	-0.2802	0.0062
313.2	10000	0.5504	-0.2718	0.0061
313.2	10000	0.6001	-0.2584	0.0058
313.2	10000	0.6512	-0.2396	0.0054
313.2	10000	0.7	-0.2166	0.0049
313.2	10000	0.7501	-0.1894	0.0044
313.2	10000	0.8015	-0.1567	0.0037
313.2	10000	0.8503	-0.1228	0.0031
328.2	100	0.2007	-0.2644	0.006
328.2	100	0.2509	-0.2912	0.0065
328.2	100	0.3008	-0.3129	0.007
328.2	100	0.3505	-0.3269	0.0072
328.2	100	0.3999	-0.333	0.0074
328.2	100	0.4507	-0.3333	0.0074
328.2	100	0.499	-0.3269	0.0072
328.2	100	0.5509	-0.3133	0.0069
328.2	100	0.6	-0.2957	0.0066
328.2	100	0.6505	-0.2721	0.0061
328.2	100	0.7001	-0.2448	0.0055
328.2	10000	0.2001	-0.2636	0.006
328.2	10000	0.2503	-0.2932	0.0066
328.2	10000	0.3004	-0.3167	0.007
328.2	10000	0.3502	-0.3306	0.0073
328.2	10000	0.3995	-0.3382	0.0075
328.2	10000	0.4504	-0.3393	0.0075
328.2	10000	0.5007	-0.3318	0.0073
328.2	10000	0.5504	-0.3195	0.0071
328.2	10000	0.5994	-0.3022	0.0067
328.2	10000	0.6497	-0.2792	0.0062

System: propan-2-ol + 2-(N,N-dimethylamino)ethanol; phases: Liquid
Property: Excess molar enthalpy (molar enthalpy of mixing), kJ/mol (Liquid); method: FLOW:UFactor:2
Temperature, K	Pressure, kPa	Mole fraction of 2-(N,N-dimethylamino)ethanol	Excess molar enthalpy (molar enthalpy of mixing), kJ/mol	uncertainty
298.2	100	0.1008	0.0162	0.0019
298.2	100	0.1502	0.0279	0.0021
298.2	100	0.1994	0.0372	0.0022
298.2	100	0.2501	0.0433	0.0023
298.2	100	0.3005	0.0467	0.0024
298.2	100	0.3504	0.048	0.0024
298.2	100	0.3999	0.0476	0.0024
298.2	100	0.4507	0.0454	0.0023
298.2	100	0.501	0.042	0.0023
298.2	100	0.5505	0.0373	0.0022
298.2	100	0.5993	0.0328	0.0021
298.2	10000	0.0998	0.0136	0.0018
298.2	10000	0.2005	0.0345	0.0022
298.2	10000	0.2496	0.0401	0.0023
298.2	10000	0.3	0.0433	0.0023
298.2	10000	0.35	0.0447	0.0023
298.2	10000	0.3995	0.0446	0.0023
298.2	10000	0.4504	0.0431	0.0023
298.2	10000	0.5006	0.0406	0.0022
298.2	10000	0.5501	0.0372	0.0022
298.2	10000	0.6009	0.033	0.0021
313.2	100	0.0496	-0.0169	0.0018
313.2	100	0.1008	-0.0173	0.0019
313.2	100	0.1502	-0.0127	0.0018
313.2	100	0.1994	-0.007	0.0018
313.2	100	0.2501	-0.0027	0.0017
313.2	100	0.3005	0.0009	0.0017
313.2	100	0.3504	0.0029	0.0017
313.2	100	0.3999	0.0034	0.0017
313.2	100	0.4507	0.003	0.0017
313.2	100	0.501	0.002	0.0017
313.2	100	0.5505	-0.0005	0.0017
313.2	100	0.5993	-0.0012	0.0017
313.2	10000	0.0499	-0.0184	0.0019
313.2	10000	0.0998	-0.0194	0.0019
313.2	10000	0.1494	-0.0191	0.0021
313.2	10000	0.2005	-0.0099	0.0018
313.2	10000	0.2496	-0.0056	0.0018
313.2	10000	0.3	-0.0025	0.0017
313.2	10000	0.35	-0.0007	0.0017
313.2	10000	0.3995	-0.0001	0.0017
313.2	10000	0.4504	-0.0004	0.0017
313.2	10000	0.5006	-0.0013	0.0017
313.2	10000	0.5501	-0.0026	0.0017
328.2	100	0.0499	-0.0359	0.0021
328.2	100	0.1014	-0.0511	0.0024
328.2	100	0.1511	-0.0566	0.0025
328.2	100	0.2005	-0.0574	0.0026
328.2	100	0.2513	-0.0566	0.0026
328.2	100	0.3018	-0.0553	0.0026
328.2	100	0.3519	-0.0543	0.0026
328.2	100	0.4015	-0.0533	0.0025
328.2	100	0.4524	-0.0518	0.0025
328.2	100	0.5026	-0.0501	0.0024
328.2	100	0.5522	-0.0481	0.0024
328.2	100	0.6009	-0.0458	0.0023
328.2	100	0.6508	-0.0429	0.0023
328.2	10000	0.0499	-0.0392	0.0022
328.2	10000	0.0998	-0.0539	0.0025
328.2	10000	0.2005	-0.0607	0.0027
328.2	10000	0.2496	-0.0598	0.0027
328.2	10000	0.3	-0.0583	0.0026
328.2	10000	0.35	-0.0566	0.0026
328.2	10000	0.3995	-0.055	0.0026
328.2	10000	0.4504	-0.0532	0.0025
328.2	10000	0.5006	-0.0513	0.0025
328.2	10000	0.5501	-0.0492	0.0024
328.2	10000	0.6009	-0.0466	0.0024
328.2	10000	0.6508	-0.0457	0.0023
