Measured thermophysical data. Solubility of Indinavir Sulfate in Different Solvents from (278.35 to 314.15) K
Source: J. Chem. Eng. Data, 2009, 10.1021/je800689a
Compound 1: indinavir sulfate, C36H49N5O8S, InChI=1S/C36H47N5O4.H2O4S/c1-36(2,3)39-35(45)31-24-40(22-26-12-9-15-37-21-26)16-17-41(31)23-29(42)19-28(18-25-10-5-4-6-11-25)34(44)38-33-30-14-8-7-13-27(30)20-32(33)43;1-5(2,3)4/h4-15,21,28-29,31-33,42-43H,16-20,22-24H2,1-3H3,(H,38,44)(H,39,45);(H2,1,2,3,4)/t28-,29+,31+,32-,33+;/m1./s1
Compound 2: ethanol, C2H6O, InChI=1S/C2H6O/c1-2-3/h3H,2H2,1H3, purity 99.5%
Compound 3: propan-1-ol, C3H8O, InChI=1S/C3H8O/c1-2-3-4/h4H,2-3H2,1H3, purity 99.5%
Compound 4: propan-2-ol, C3H8O, InChI=1S/C3H8O/c1-3(2)4/h3-4H,1-2H3, purity 99.5%
Compound 5: butan-1-ol, C4H10O, InChI=1S/C4H10O/c1-2-3-4-5/h5H,2-4H2,1H3, purity 99.5%
Compound 6: 2-methyl-1-propanol, C4H10O, InChI=1S/C4H10O/c1-4(2)3-5/h4-5H,3H2,1-2H3, purity 99.5%

System: ethanol + indinavir sulfate; phases: Liquid, Crystal
Fixed: Pressure, kPa = 101
Property: Amount concentration (molarity), mol/dm3 (Liquid); method: SPECTR
Temperature, K	Amount concentration (molarity), mol/dm3	uncertainty
278.35	0.745	0.035
284.05	1.04	0.048
288.75	1.377	0.064
293.15	1.714	0.08
298.15	2.67	0.125
303.35	3.428	0.159
308.15	4.327	0.201
313.15	5.76	0.268

System: propan-1-ol + indinavir sulfate; phases: Liquid, Crystal
Fixed: Pressure, kPa = 101
Property: Amount concentration (molarity), mol/dm3 (Liquid); method: SPECTR
Temperature, K	Amount concentration (molarity), mol/dm3	uncertainty
278.45	0.351	0.016
283.45	0.393	0.018
288.25	0.45	0.021
293.35	0.548	0.025
297.85	0.702	0.033
303.25	0.9	0.042
308.85	1.034	0.048
314.15	1.23	0.057

System: propan-2-ol + indinavir sulfate; phases: Liquid, Crystal
Fixed: Pressure, kPa = 101
Property: Amount concentration (molarity), mol/dm3 (Liquid); method: SPECTR
Temperature, K	Amount concentration (molarity), mol/dm3	uncertainty
278.35	0.176	0.008
283.45	0.211	0.01
288.25	0.27	0.013
293.75	0.309	0.014
298.45	0.365	0.017
303.25	0.457	0.021
308.15	0.534	0.025
313.15	0.646	0.03

System: butan-1-ol + indinavir sulfate; phases: Liquid, Crystal
Fixed: Pressure, kPa = 101
Property: Amount concentration (molarity), mol/dm3 (Liquid); method: SPECTR
Temperature, K	Amount concentration (molarity), mol/dm3	uncertainty
278.35	0.133	0.006
283.65	0.155	0.007
288.35	0.19	0.009
293.65	0.239	0.011
297.85	0.281	0.013
303.45	0.365	0.017
308.15	0.478	0.022
313.45	0.548	0.025

System: 2-methyl-1-propanol + indinavir sulfate; phases: Liquid, Crystal
Fixed: Pressure, kPa = 101
Property: Amount concentration (molarity), mol/dm3 (Liquid); method: SPECTR
Temperature, K	Amount concentration (molarity), mol/dm3	uncertainty
278.35	0.091	0.004
283.62	0.112	0.005
288.35	0.126	0.006
292.95	0.147	0.007
297.85	0.183	0.009
302.45	0.225	0.01
307.75	0.295	0.014
314.05	0.365	0.017
