Measured thermophysical data. Ebulliometric Determination of Vapor
Source: J. Chem. Eng. Data, 2008, 10.1021/je800290k
Compound 1: N-methyl-1,3-diaminopropane, C4H12N2, InChI=1S/C4H12N2/c1-6-4-2-3-5/h6H,2-5H2,1H3
Compound 2: 2-aminoethan-1-ol, C2H7NO, InChI=1S/C2H7NO/c3-1-2-4/h4H,1-3H2
Compound 3: N-methyldiethanolamine, C5H13NO2, InChI=1S/C5H13NO2/c1-6(2-4-7)3-5-8/h7-8H,2-5H2,1H3
Compound 4: water, H2O, InChI=1S/H2O/h1H2, purity 99.9%

System: N-methyl-1,3-diaminopropane; phases: Liquid, Gas
Property: Vapor or sublimation pressure, kPa (Liquid); method: Ebulliometric method (Recirculating still)
Temperature, K	Vapor or sublimation pressure, kPa	uncertainty
326.81	3.46	0.6
331.62	4.47	0.6
337.36	5.97	0.6
343.91	7.97	0.6
353.78	12.48	0.6
365.76	20.47	0.61
372.77	27.96	0.61
383.53	39.97	0.62
397.99	64.98	0.63
404.7	79.98	0.66
412.5	101.27	0.67

System: 2-aminoethan-1-ol; phases: Liquid, Gas
Property: Vapor or sublimation pressure, kPa (Liquid); method: Ebulliometric method (Recirculating still)
Temperature, K	Vapor or sublimation pressure, kPa	uncertainty
357.46	2.98	0.6
362.99	3.98	0.6
369.33	5.48	0.6
374.29	6.98	0.6
378.41	8.47	0.6
384.07	10.97	0.6
391.14	14.96	0.6
398.01	19.97	0.61
403.43	24.97	0.61
408.19	29.97	0.61
415.78	39.98	0.62
415.81	39.95	0.62
424.61	54.95	0.63
429.44	64.95	0.64
431.61	69.95	0.65
435.61	79.95	0.66

System: N-methyldiethanolamine; phases: Liquid, Gas
Property: Vapor or sublimation pressure, kPa (Liquid); method: Ebulliometric method (Recirculating still)
Temperature, K	Vapor or sublimation pressure, kPa	uncertainty
409.69	2.48	0.6
413.43	2.98	0.6
416.72	3.48	0.6
421.96	4.48	0.6
426.65	5.48	0.6
430.48	6.48	0.6
435.5	7.98	0.6

System: water; phases: Liquid, Gas
Property: Vapor or sublimation pressure, kPa (Liquid); method: Ebulliometric method (Recirculating still)
Temperature, K	Vapor or sublimation pressure, kPa	uncertainty
311.63	6.78	0.6
313.24	7.38	0.6
314.99	8.11	0.6
323.11	12.28	0.6
323.14	12.28	0.6
323.15	12.27	0.6
325.47	13.78	0.6
325.61	13.8	0.6
332.76	19.84	0.6
332.85	19.84	0.6
333.13	19.58	0.62
333.17	19.88	0.6
333.17	19.88	0.6
333.17	19.88	0.62
333.18	19.88	0.6
333.18	19.88	0.62
333.19	19.87	0.6
340.41	27.6	0.61
340.44	27.58	0.61
340.47	27.6	0.61
348.8	39.83	0.62
348.84	39.83	0.62
349.91	41.4	0.62
349.94	41.39	0.62
349.97	41.4	0.62
353.14	47.18	0.63
353.14	47.19	0.63
353.14	47.18	0.63
353.15	47.18	0.63
357.02	55.17	0.64
357.07	55.18	0.64
357.08	55.17	0.64
358.87	59.88	0.65
358.92	59.88	0.65
362.55	68.92	0.6
362.59	68.92	0.6
362.8	69	0.65
362.83	69	0.6
362.83	68.98	0.6
362.89	69.83	0.67
362.93	69.83	0.88
367.48	82.79	0.73
367.49	82.79	0.73
367.67	82.79	0.73
367.69	82.79	0.73
367.69	82.78	0.6
371.67	96.51	0.6
371.7	96.51	0.6
371.9	96.47	0.67
371.91	96.58	0.67
371.91	96.58	0.67
372.69	99.28	0.89
372.86	100.59	0.69
372.89	100.59	0.69
373.16	100.98	0.62
373.16	100.98	0.66

System: 2-aminoethan-1-ol + water; phases: Gas, Liquid
Property: Vapor or sublimation pressure, kPa (Gas); method: Ebulliometric method (Recirculating still)
Mole fraction of 2-aminoethan-1-ol	Temperature, K	Vapor or sublimation pressure, kPa	uncertainty
0	333.18	19.88	0.62
0.0121	313.17	7.28	0.61
0.0131	333.13	19.57	0.62
0.0136	333.17	19.57	0.62
0.0137	333.17	19.58	0.62
0.0143	373.16	99.57	0.77
0.0146	353.12	46.45	0.67
0.0297	313.23	7.18	0.61
0.0305	353.16	45.8	0.66
0.0315	333.16	19.19	0.62
0.0321	373.14	97.68	0.76
0.0424	353.14	45.18	0.66
0.0447	373.18	96.58	0.76
0.0477	313.08	6.98	0.61
0.0489	333.18	18.85	0.62
0.0491	333.15	18.76	0.62
0.0495	353.13	44.77	0.66
0.05	333.12	18.78	0.62
0.0534	373.15	95.69	0.76
0.0606	373.18	95.26	0.76
0.0678	313.25	6.88	0.61
0.0703	353.14	43.89	0.66
0.0718	333.25	18.37	0.62
0.0727	373.13	93.68	0.75
0.0749	373.17	93.47	0.75
0.0826	373.17	92.88	0.75
0.085	333.2	17.98	0.62
0.0907	353.13	42.86	0.69
0.0922	332.26	17.98	0.61
0.0928	313.24	6.67	0.61
0.0932	353.19	42.68	0.69
0.0955	373.15	91.51	0.75
0.0962	373.14	91.08	0.75
0.1	333.09	17.68	0.61
0.1016	333.17	17.88	0.62
0.1033	333.17	17.28	0.61
0.1039	373.15	90.28	0.74
0.1106	373.12	89.57	0.74
0.1119	333.2	17.48	0.62
0.1129	353.16	41.58	0.65
0.1167	333.21	17.46	0.61
0.1167	353.18	41.69	0.66
0.1173	373.15	89.3	0.74
0.1192	313.03	6.38	0.61
0.1212	333.27	16.97	0.61
0.1293	333.17	16.98	0.61
0.1387	353.16	40.18	0.65
0.1395	373.17	86.38	0.73
0.1412	333.2	16.77	0.61
0.1412	373.18	86.16	0.73
0.1486	313.19	6.18	0.6
0.1492	353.15	39.58	0.65
0.1533	333.13	16.26	0.61
0.1554	373.17	84.68	0.73
0.1672	333.11	16.06	0.61
0.1938	373.15	79.98	0.72
0.1952	353.16	36.98	0.64
0.1957	373.18	79.78	0.72
0.1963	373.17	79.88	0.72
0.1974	353.22	36.78	0.65
0.1986	333.28	15.67	0.66
0.1995	333.15	15.18	0.66
0.2281	333.14	14.58	0.62
0.2351	373.15	75.06	0.71
0.2493	333.27	14.48	0.61
0.2685	373.18	70.69	0.7
0.2778	353.14	31.67	0.63
0.2833	373.14	68.78	0.69
0.3015	333.21	12.08	0.61
0.3059	373.16	66.17	0.69
0.3256	333.26	12.08	0.61
0.3395	373.16	62.19	0.68
0.3489	353.14	27.37	0.63
0.363	373.14	58.78	0.67
0.3713	353.14	26.07	0.63
0.373	333.19	10.37	0.61
0.381	373.14	57.28	0.67
0.3966	333.23	9.88	0.61
0.4066	373.14	53.68	0.66
0.419	353.11	23.18	0.62
0.431	373.13	50.98	0.66
0.4315	353.17	22.27	0.62
0.4584	333.17	8.27	0.61
0.4773	373.14	45.97	0.65
0.4899	333.09	7.87	0.61
0.5249	333.15	6.88	0.61
0.5663	333.15	6.07	0.61

System: 2-aminoethan-1-ol + water; phases: Gas, Liquid
Property: Mole fraction of 2-aminoethan-1-ol (Gas); method: Titration method
Mole fraction of 2-aminoethan-1-ol	Temperature, K	Mole fraction of 2-aminoethan-1-ol	uncertainty
0	333.18	0	0.0001
0.0121	313.17	0.0001	0.0001
0.0131	333.13	0.0001	0.0001
0.0136	333.17	0.0003	0.0003
0.0137	333.17	0.0001	0.0001
0.0143	373.16	0.0005	0.0005
0.0146	353.12	0.0003	0.0003
0.0297	313.23	0.0002	0.0002
0.0305	353.16	0.0006	0.0006
0.0315	333.16	0.0007	0.0007
0.0321	373.14	0.0012	0.001
0.0424	353.14	0.0009	0.0009
0.0447	373.18	0.0018	0.001
0.0477	313.08	0.0003	0.0003
0.0489	333.18	0.0007	0.0007
0.0491	333.15	0.0008	0.0008
0.0495	353.13	0.001	0.001
0.05	333.12	0.0005	0.0005
0.0534	373.15	0.0019	0.001
0.0606	373.18	0.002	0.001
0.0678	313.25	0.0005	0.0005
0.0703	353.14	0.0014	0.001
0.0718	333.25	0.001	0.001
0.0727	373.13	0.0027	0.001
0.0749	373.17	0.0025	0.001
0.0826	373.17	0.0033	0.001
0.085	333.2	0.0011	0.001
0.0907	353.13	0.002	0.001
0.0922	332.26	0.0013	0.001
0.0928	313.24	0.0007	0.0007
0.0932	353.19	0.002	0.001
0.0955	373.15	0.004	0.001
0.0962	373.14	0.0038	0.001
0.1	333.09	0.0016	0.001
0.1016	333.17	0.0013	0.001
0.1033	333.17	0.002	0.001
0.1039	373.15	0.0044	0.001
0.1106	373.12	0.0043	0.001
0.1119	333.2	0.0015	0.001
0.1129	353.16	0.0023	0.001
0.1167	333.21	0.0017	0.001
0.1167	353.18	0.0025	0.001
0.1173	373.15	0.0045	0.001
0.1192	313.03	0.0009	0.0009
0.1212	333.27	0.0021	0.001
0.1293	333.17	0.0021	0.001
0.1387	353.16	0.0036	0.001
0.1395	373.17	0.0065	0.001
0.1412	333.2	0.0024	0.001
0.1412	373.18	0.0064	0.001
0.1486	313.19	0.0016	0.001
0.1492	353.15	0.0037	0.001
0.1533	333.13	0.0025	0.001
0.1554	373.17	0.0068	0.001
0.1672	333.11	0.0032	0.001
0.1938	373.15	0.0096	0.001
0.1952	353.16	0.0064	0.001
0.1957	373.18	0.0103	0.001
0.1963	373.17	0.0099	0.001
0.1974	353.22	0.0071	0.001
0.1986	333.28	0.0044	0.001
0.1995	333.15	0.0042	0.001
0.2281	333.14	0.0053	0.001
0.2351	373.15	0.0128	0.0013
0.2493	333.27	0.0049	0.001
0.2685	373.18	0.018	0.0018
0.2778	353.14	0.0122	0.0012
0.2833	373.14	0.0183	0.0018
0.3015	333.21	0.0109	0.0011
0.3059	373.16	0.0205	0.0021
0.3256	333.26	0.0124	0.0012
0.3395	373.16	0.0265	0.0027
0.3489	353.14	0.0191	0.0019
0.363	373.14	0.0284	0.0028
0.3713	353.14	0.0242	0.0024
0.373	333.19	0.0168	0.0017
0.381	373.14	0.0356	0.0036
0.3966	333.23	0.0192	0.0019
0.4066	373.14	0.0389	0.0039
0.419	353.11	0.0301	0.003
0.431	373.13	0.049	0.0049
0.4315	353.17	0.0348	0.0035
0.4584	333.17	0.0304	0.003
0.4773	373.14	0.0555	0.0056
0.4899	333.09	0.0324	0.0032
0.5249	333.15	0.0463	0.0046
0.5663	333.15	0.0576	0.0058

System: N-methyldiethanolamine + water; phases: Gas, Liquid
Property: Vapor or sublimation pressure, kPa (Gas); method: Ebulliometric method (Recirculating still)
Mole fraction of N-methyldiethanolamine	Temperature, K	Vapor or sublimation pressure, kPa	uncertainty
0	333.13	19.58	0.62
0	333.17	19.88	0.62
0	353.14	47.19	0.67
0.0047	333.17	19.77	0.62
0.0056	353.15	46.98	0.67
0.0059	373.15	100.4	0.77
0.0076	313.02	7.27	0.61
0.0113	373.16	99.88	0.77
0.012	373.15	99.8	0.77
0.0142	353.16	46.59	0.67
0.0169	333.11	19.47	0.62
0.0188	313.24	7.27	0.61
0.0217	353.17	46.29	0.67
0.0232	373.16	98.8	0.77
0.0239	373.15	98.67	0.77
0.0292	313.18	7.17	0.61
0.039	353.15	45.48	0.68
0.0403	313.15	7.08	0.61
0.0461	373.16	96.96	0.76
0.0475	353.17	45.09	0.68
0.0533	373.23	96.18	0.72
0.0537	373.15	96.21	0.72
0.054	313.2	6.98	0.61
0.0547	353.14	44.77	0.66
0.0693	312.99	6.78	0.61
0.0699	333.14	18.48	0.62
0.0723	373.16	94.48	0.76
0.0742	353.17	43.89	0.68
0.0753	373.16	94	0.75
0.0757	353.15	43.88	0.68
0.085	313.1	6.67	0.61
0.0878	333.2	18.1	0.61
0.0903	373.14	92.77	0.75
0.0973	353.17	42.58	0.66
0.0989	373.13	91.97	0.75
0.0991	373.15	91.66	0.75
0.104	353.12	42.57	0.66
0.1047	333.16	17.77	0.61
0.1074	313.1	6.47	0.61
0.1329	333.13	17.07	0.62
0.1391	353.18	40.68	0.65
0.1391	373.15	88.38	0.74
0.148	353.14	40.47	0.65
0.1537	333.16	16.67	0.62
0.1743	353.16	38.68	0.67
0.1867	373.25	83.68	0.73
0.1882	373.18	83.08	0.73
0.1947	333.18	15.67	0.62
0.2045	333.1	15.37	0.62
0.2196	353.15	36.2	0.64
0.2262	333.2	14.87	0.62
0.2277	373.05	78.77	0.72
0.2333	333.12	14.66	0.62
0.26	373.2	74.68	0.71
0.2622	333.14	13.98	0.62
0.29	373.13	71.67	0.7
0.2902	333.19	13.38	0.61
0.3045	333.2	12.87	0.61
0.3063	353.11	31.97	0.63
0.3194	373.25	68.97	0.69
0.3573	373.15	64.18	0.69

System: N-methyldiethanolamine + water; phases: Gas, Liquid
Property: Mole fraction of N-methyldiethanolamine (Gas); method: Titration method
Mole fraction of N-methyldiethanolamine	Temperature, K	Mole fraction of N-methyldiethanolamine	uncertainty
0	333.13	0	0.0001
0	333.17	0	0.0001
0	353.14	0	0.0001
0.0047	333.17	0	0.0001
0.0056	353.15	0	0.0001
0.0059	373.15	0	0.0001
0.0076	313.02	0	0.0001
0.0113	373.16	0.0001	0.0001
0.012	373.15	0.0001	0.0001
0.0142	353.16	0	0.0001
0.0169	333.11	0	0.0001
0.0188	313.24	0	0.0001
0.0217	353.17	0	0.0001
0.0232	373.16	0.0001	0.0001
0.0239	373.15	0.0001	0.0001
0.0292	313.18	0	0.0001
0.039	353.15	0.0001	0.0001
0.0403	313.15	0	0.0001
0.0461	373.16	0.0002	0.0002
0.0475	353.17	0.0001	0.0001
0.0533	373.23	0.0002	0.0002
0.0537	373.15	0.0002	0.0002
0.054	313.2	0	0.0001
0.0547	353.14	0.0001	0.0001
0.0693	312.99	0	0.0001
0.0699	333.14	0.0001	0.0001
0.0723	373.16	0.0003	0.0003
0.0742	353.17	0.0002	0.0002
0.0753	373.16	0.0003	0.0003
0.0757	353.15	0.0001	0.0001
0.085	313.1	0	0.0001
0.0878	333.2	0.0001	0.0001
0.0903	373.14	0.0004	0.0004
0.0973	353.17	0.0001	0.0001
0.0989	373.13	0.0003	0.0003
0.0991	373.15	0.0005	0.0004
0.104	353.12	0.0001	0.0001
0.1047	333.16	0.0001	0.0001
0.1074	313.1	0	0.0001
0.1329	333.13	0.0001	0.0001
0.1391	353.18	0.0002	0.0002
0.1391	373.15	0.0005	0.0004
0.148	353.14	0.0002	0.0002
0.1537	333.16	0.0002	0.0002
0.1743	353.16	0.0003	0.0003
0.1867	373.25	0.0007	0.0004
0.1882	373.18	0.0005	0.0004
0.1947	333.18	0.0002	0.0002
0.2045	333.1	0.0002	0.0002
0.2196	353.15	0.0005	0.0004
0.2262	333.2	0.0002	0.0002
0.2277	373.05	0.0007	0.0004
0.2333	333.12	0.0002	0.0002
0.26	373.2	0.001	0.0004
0.2622	333.14	0.0003	0.0003
0.29	373.13	0.001	0.0004
0.2902	333.19	0.0003	0.0003
0.3045	333.2	0.0004	0.0004
0.3063	353.11	0.0007	0.0004
0.3194	373.25	0.0011	0.0004
0.3573	373.15	0.0014	0.0004

System: N-methyl-1,3-diaminopropane + water; phases: Gas, Liquid
Property: Vapor or sublimation pressure, kPa (Gas); method: Ebulliometric method (Recirculating still)
Mole fraction of N-methyl-1,3-diaminopropane	Temperature, K	Vapor or sublimation pressure, kPa	uncertainty
0	333.17	19.88	0.63
0	353.14	47.18	0.67
0	373.16	100.98	0.77
0.0025	333.15	19.77	0.62
0.0053	353.15	49.66	0.67
0.0053	353.15	49.66	4
0.0059	373.14	100.38	0.77
0.0095	333.14	19.68	0.62
0.0099	313.06	7.28	0.61
0.0099	353.17	46.78	0.67
0.0116	373.15	99.87	0.77
0.0138	333.14	19.57	0.62
0.0149	353.13	46.47	0.66
0.018	373.15	99.27	0.77
0.0191	333.15	19.47	0.62
0.02	353.15	46.27	0.67
0.0203	313.02	7.18	0.61
0.0224	373.16	98.88	0.77
0.032	313.26	7.17	0.61
0.0459	333.16	18.87	0.62
0.046	313.1	6.98	0.61
0.051	353.13	44.68	0.66
0.0557	373.14	95.58	0.76
0.0623	313.02	6.78	0.61
0.0741	333.09	17.97	0.62
0.075	353.15	43.28	0.66
0.0758	373.14	93.17	0.75
0.081	313.09	6.58	0.61
0.0908	333.12	17.57	0.61
0.0979	373.14	90.7	0.75
0.0997	353.18	41.87	0.66
0.1006	313.03	6.28	0.61
0.1051	353.19	41.47	0.65
0.1111	373.16	89.34	0.74
0.1115	333.13	16.77	0.61
0.1228	313.1	5.98	0.61
0.1393	333.14	15.98	0.61
0.1437	373.16	85.06	0.73
0.1495	353.16	38.27	0.65
0.1577	333.17	15.28	0.62
0.1671	373.13	82.48	0.73
0.1872	333.12	14.38	0.62
0.1932	373.13	79.38	0.72
0.1967	353.17	35.28	0.65
0.1973	353.15	35.37	0.65
0.2113	333.18	13.58	0.62
0.232	373.15	75.29	0.71
0.238	373.16	74.67	0.71
0.2412	353.17	32.88	0.64
0.243	333.18	12.87	0.61
0.2535	353.14	31.97	0.64
0.2635	333.16	11.87	0.61
0.2756	353.12	30.97	0.64
0.2822	373.14	70.28	0.7
0.3044	373.12	69.28	0.69
0.3165	353.18	29.37	0.63
0.3199	332.65	10.78	0.61
0.328	373.18	67.28	0.69
0.3458	353.19	28.28	0.63
0.3647	333.2	10.37	0.61
0.3746	373.15	64.48	0.68
0.3891	353.14	27.08	0.63
0.4167	333.2	9.78	0.61
0.4262	373.14	61.58	0.68
0.4506	333.24	9.27	0.61

System: N-methyl-1,3-diaminopropane + water; phases: Gas, Liquid
Property: Mole fraction of N-methyl-1,3-diaminopropane (Gas); method: Titration method
Mole fraction of N-methyl-1,3-diaminopropane	Temperature, K	Mole fraction of N-methyl-1,3-diaminopropane	uncertainty
0	333.17	0	0.0001
0	353.14	0	0.0001
0	373.16	0	0.0001
0.0025	333.15	0.0001	0.0001
0.0053	353.15	0.0002	0.0002
0.0053	353.15	0.0002	0.0002
0.0059	373.14	0.0008	0.0008
0.0095	333.14	0.0002	0.0002
0.0099	313.06	0.0001	0.0001
0.0099	353.17	0.0005	0.0005
0.0116	373.15	0.0014	0.001
0.0138	333.14	0.0003	0.0003
0.0149	353.13	0.0006	0.0006
0.018	373.15	0.0021	0.001
0.0191	333.15	0.0004	0.0004
0.02	353.15	0.0008	0.0008
0.0203	313.02	0.0002	0.0002
0.0224	373.16	0.0016	0.001
0.032	313.26	0.0003	0.0003
0.0459	333.16	0.0011	0.001
0.046	313.1	0.0005	0.0005
0.051	353.13	0.0024	0.001
0.0557	373.14	0.0057	0.001
0.0623	313.02	0.0007	0.0007
0.0741	333.09	0.0022	0.001
0.075	353.15	0.004	0.001
0.0758	373.14	0.0082	0.001
0.081	313.09	0.0013	0.001
0.0908	333.12	0.003	0.001
0.0979	373.14	0.0107	0.0011
0.0997	353.18	0.0066	0.001
0.1006	313.03	0.0019	0.001
0.1051	353.19	0.0072	0.001
0.1111	373.16	0.014	0.0014
0.1115	333.13	0.0045	0.001
0.1228	313.1	0.003	0.001
0.1393	333.14	0.0106	0.0011
0.1437	373.16	0.0198	0.002
0.1495	353.16	0.0145	0.0015
0.1577	333.17	0.0109	0.0011
0.1671	373.13	0.0269	0.0027
0.1872	333.12	0.0194	0.0019
0.1932	373.13	0.0318	0.0032
0.1967	353.17	0.0279	0.0028
0.1973	353.15	0.0249	0.0025
0.2113	333.18	0.0248	0.0025
0.232	373.15	0.0495	0.005
0.238	373.16	0.0486	0.0049
0.2412	353.17	0.0411	0.0041
0.243	333.18	0.0346	0.0035
0.2535	353.14	0.0474	0.0047
0.2635	333.16	0.0407	0.0041
0.2756	353.12	0.0569	0.0057
0.2822	373.14	0.0665	0.0067
0.3044	373.12	0.0757	0.0076
0.3165	353.18	0.0746	0.0075
0.3199	332.65	0.0672	0.0067
0.328	373.18	0.0825	0.0083
0.3458	353.19	0.0943	0.0094
0.3647	333.2	0.0883	0.0088
0.3746	373.15	0.1083	0.0108
0.3891	353.14	0.1264	0.0126
0.4167	333.2	0.1209	0.0121
0.4262	373.14	0.1401	0.014
0.4506	333.24	0.1623	0.0162

System: N-methyldiethanolamine + 2-aminoethan-1-ol + water; phases: Liquid, Gas
Property: Mole fraction of N-methyldiethanolamine (Liquid); method: Chromatography
Property: Mole fraction of N-methyldiethanolamine (Gas); method: Chromatography
Property: Mole fraction of 2-aminoethan-1-ol (Gas); method: Chromatography
Temperature, K	Pressure, kPa	Mole fraction of 2-aminoethan-1-ol	Mole fraction of N-methyldiethanolamine	uncertainty	Mole fraction of N-methyldiethanolamine	uncertainty	Mole fraction of 2-aminoethan-1-ol	uncertainty
313.12	6.48	0.04038	0.06438	0.00645	2.5e-05	2.5e-05	0.00036	
333.19	17.47	0.04487	0.07322	0.00734	4.7e-05	4.7e-05	0.000645	
353.13	41.79	0.04425	0.07308	0.00733	0.000127	0.000127	0.000982	
373.15	90.3	0.04163	0.06792	0.00681	0.000473	0.0002	0.001634	
313.12	6.18	0.08607	0.04688	0.0047	1.9e-05	1.9e-05	0.000877	
333.24	16.97	0.08696	0.04691	0.0047	3.5e-05	3.5e-05	0.001402	
353.16	40.78	0.08038	0.04798	0.00481	0.000198	0.000198	0.002499	
373.16	87.98	0.08286	0.04581	0.00459	0.000397	0.0002	0.003547	
313.09	5.98	0.12581	0.02522	0.00253	1.3e-05	1.3e-05	0.001394	
333.14	16.37	0.12906	0.02454	0.00246	2e-05	2e-05	0.002203	
353.15	39.68	0.11616	0.02037	0.00204	6.2e-05	6.2e-05	0.003308	
373.17	85.58	0.11809	0.02231	0.00224	9.4e-05	9.4e-05	0.004833	

System: N-methyldiethanolamine + N-methyl-1,3-diaminopropane + water; phases: Liquid, Gas
Property: Mole fraction of N-methyldiethanolamine (Liquid); method: Chromatography
Property: Mole fraction of N-methyldiethanolamine (Gas); method: Chromatography
Property: Mole fraction of N-methyl-1,3-diaminopropane (Gas); method: Chromatography
Temperature, K	Pressure, kPa	Mole fraction of N-methyl-1,3-diaminopropane	Mole fraction of N-methyldiethanolamine	uncertainty	Mole fraction of N-methyldiethanolamine	uncertainty	Mole fraction of N-methyl-1,3-diaminopropane	uncertainty
333.06	18.37	0.02691	0.04535	0.00455	0.00029	0.0002	0.00057	
353.18	43.58	0.02853	0.04456	0.00447	0.00035	0.0002	0.00118	
373.15	93.48	0.03008	0.0548	0.00549	0.00082	0.0002	0.00234	
333.12	17.98	0.0395	0.04678	0.00469	0	1e-05	0.00091	
333.11	17.87	0.03914	0.04714	0.00473	0	1e-05	0.00092	
353.18	42.58	0.04456	0.05102	0.00511	0.00035	0.0002	0.00231	
373.15	91.6	0.04514	0.05108	0.00512	0.00152	0.0002	0.0042	
333.16	17.48	0.05696	0.05548	0.00556	0.00024	0.0002	0.00167	
353.15	41.98	0.0629	0.05702	0.00572	0.00023	0.0002	0.00295	
353.19	41.49	0.0646	0.06211	0.00623	0.00022	0.0002	0.00322	
353.17	42.19	0.05662	0.05571	0.00558	0.00033	0.0002	0.00271	
373.15	90.83	0.05662	0.05483	0.0055	0.00105	0.0002	0.00557	
373.14	88.89	0.06711	0.06502	0.00652	0.00066	0.0002	0.00646	
373.15	90.5	0.05855	0.05602	0.00562	0.0003	0.0002	0.00469	
