Measured thermophysical data. Vapor Pressures of Solid and Liquid Xanthene and Phenoxathiin from Effusion and Static Studies
Source: J. Chem. Eng. Data, 2008, 10.1021/je800333q
Compound 1: 10H-9-oxaanthracene, C13H10O, InChI=1S/C13H10O/c1-3-7-12-10(5-1)9-11-6-2-4-8-13(11)14-12/h1-8H,9H2
Compound 2: phenoxathiin, C12H8OS, InChI=1S/C12H8OS/c1-3-7-11-9(5-1)13-10-6-2-4-8-12(10)14-11/h1-8H

System: 10H-9-oxaanthracene; phases: Crystal, Liquid, Air at 1 atmosphere
Property: Molar enthalpy of transition or fusion, kJ/mol (Crystal); method: DSC
Molar enthalpy of transition or fusion, kJ/mol	uncertainty
20.67	0.79

System: 10H-9-oxaanthracene; phases: Crystal, Liquid, Air at 1 atmosphere
Property: Normal melting temperature, K (Crystal); method: DTA
Normal melting temperature, K	uncertainty
374.56	0.39

System: 10H-9-oxaanthracene; phases: Crystal, Gas
Property: Vapor or sublimation pressure, kPa (Crystal); method: KNUDSEN:UFactor:2
Temperature, K	Vapor or sublimation pressure, kPa	uncertainty
308.14	0.000143	2.2e-05
308.14	0.000124	2.2e-05
308.14	0.000118	2.2e-05
310.23	0.000182	2.4e-05
310.23	0.000159	2.3e-05
310.23	0.000152	2.3e-05
312.3	0.000228	2.6e-05
312.3	0.000204	2.5e-05
312.3	0.000196	2.4e-05
314.29	0.000279	2.8e-05
314.29	0.000254	2.7e-05
314.29	0.00024	2.6e-05
316.22	0.000362	3.3e-05
316.22	0.000313	3e-05
316.22	0.000294	2.9e-05
318.21	0.000443	3.7e-05
318.21	0.00038	3.4e-05
318.21	0.000358	3.2e-05
320.2	0.00057	4.5e-05
320.2	0.000474	3.9e-05
320.2	0.000446	3.7e-05
322.28	0.000711	5.5e-05
322.28	0.000637	4.9e-05
322.28	0.000612	4.8e-05
324.16	0.00088	6.8e-05
324.16	0.000753	5.8e-05
324.16	0.000706	5.5e-05
326.15	0.001071	0.000168
326.15	0.000884	6.8e-05
326.15	0.000848	6.6e-05

System: 10H-9-oxaanthracene; phases: Crystal, Gas
Property: Vapor or sublimation pressure, kPa (Crystal); method: CCELL:UFactor:0.5
Temperature, K	Vapor or sublimation pressure, kPa	uncertainty
318.05	0.000459	0.000107
318.06	0.000461	0.000107
323.03	0.000803	0.000109
323.04	0.000799	0.000109
328.01	0.001351	0.000113
328.01	0.001358	0.000113
332.97	0.002229	0.00012
332.97	0.002236	0.00012
332.98	0.002254	0.00012
337.94	0.003592	0.000134
337.95	0.00365	0.000134
342.95	0.005854	0.000163
342.95	0.005814	0.000162
342.97	0.005855	0.000163
347.94	0.00922	0.000215
347.95	0.00948	0.00022
347.96	0.009392	0.000218
352.95	0.01466	0.00029
352.97	0.01472	0.00029
352.98	0.01462	0.00029
352.99	0.01466	0.00029
357.95	0.0228	0.00035
357.97	0.02278	0.00035
362.94	0.03417	0.00044
362.94	0.03409	0.00044
367.91	0.05114	0.00058
367.94	0.05137	0.00058
370.92	0.06472	0.00069
370.92	0.06471	0.00069

System: 10H-9-oxaanthracene; phases: Liquid, Gas
Property: Vapor or sublimation pressure, kPa (Liquid); method: CCELL:UFactor:0.5
Temperature, K	Vapor or sublimation pressure, kPa	uncertainty
357.97	0.03044	0.00041
357.98	0.03042	0.00041
360.96	0.0368	0.00046
360.97	0.03689	0.00046
362.96	0.04168	0.0005
362.96	0.04186	0.0005
366.93	0.05355	0.0006
366.94	0.05355	0.0006
368.93	0.06043	0.00066
368.93	0.06048	0.00066
370.91	0.06797	0.00072
370.92	0.06813	0.00072
372.9	0.07643	0.00079
372.9	0.07664	0.0008
372.92	0.07657	0.00079
374.9	0.08567	0.00087
374.9	0.08555	0.00087
374.91	0.08578	0.00087
375.9	0.09102	0.00092
375.9	0.09091	0.00092
377.87	0.1019	0.001
377.88	0.102	0.001
379.86	0.114	0.0011
379.87	0.1141	0.0011
381.85	0.1272	0.0012
381.85	0.1271	0.0012

System: phenoxathiin; phases: Crystal, Liquid, Air at 1 atmosphere
Property: Molar enthalpy of transition or fusion, kJ/mol (Crystal); method: DSC
Molar enthalpy of transition or fusion, kJ/mol	uncertainty
19.43	0.62

System: phenoxathiin; phases: Crystal, Liquid, Air at 1 atmosphere
Property: Normal melting temperature, K (Crystal); method: DTA
Normal melting temperature, K	uncertainty
329.58	0.44

System: phenoxathiin; phases: Crystal, Gas
Property: Vapor or sublimation pressure, kPa (Crystal); method: Calculated from knudsen effusion weight loss
Temperature, K	Vapor or sublimation pressure, kPa	uncertainty
308.14	0.000157	2.1e-05
308.14	0.000154	2.1e-05
308.14	0.000152	2.1e-05
310.12	0.000197	2.1e-05
310.12	0.000191	2.1e-05
310.12	0.000191	2.1e-05
312.15	0.000252	2.2e-05
312.15	0.000247	2.2e-05
312.15	0.000245	2.2e-05
314.16	0.000313	2.3e-05
314.16	0.000308	2.3e-05
314.16	0.000306	2.3e-05
316.14	0.00039	2.4e-05
316.14	0.000387	2.4e-05
316.14	0.00038	2.4e-05
318.15	0.000494	2.7e-05
318.15	0.000492	2.7e-05
318.15	0.000488	2.6e-05
320.17	0.000634	3e-05
320.17	0.000624	3e-05
320.17	0.000615	3e-05
321.88	0.000758	3.3e-05
321.88	0.000743	3.3e-05
321.88	0.000739	3.3e-05
324.14	0.000975	4e-05
324.14	0.000959	3.9e-05
324.14	0.000954	3.9e-05

System: phenoxathiin; phases: Crystal, Gas
Property: Vapor or sublimation pressure, kPa (Crystal); method: CCELL:UFactor:0.5
Temperature, K	Vapor or sublimation pressure, kPa	uncertainty
318.05	0.000452	0.000107
318.06	0.000452	0.000107
320.04	0.000571	0.000107
320.05	0.000572	0.000107
321.04	0.000643	0.000108
321.04	0.000642	0.000108
322.02	0.000719	0.000109
322.03	0.000724	0.000109
323.02	0.000802	0.000109
323.06	0.000807	0.000109
324.02	0.000898	0.00011
324.02	0.000898	0.00011
324.96	0.000998	0.00011
324.99	0.000999	0.00011
325.99	0.001115	0.000111
326.01	0.001119	0.000111
326.99	0.001233	0.000112
326.99	0.001239	0.000112
327.48	0.001294	0.000112
327.5	0.001298	0.000113
327.51	0.001295	0.000112
327.99	0.001374	0.000113
328	0.001368	0.000113

System: phenoxathiin; phases: Liquid, Gas
Property: Vapor or sublimation pressure, kPa (Liquid); method: CCELL:UFactor:0.5
Temperature, K	Vapor or sublimation pressure, kPa	uncertainty
318.06	0.000586	0.000107
318.07	0.000588	0.000107
323.03	0.000924	0.00011
323.04	0.000927	0.00011
327.99	0.00141	0.000113
328	0.001405	0.000113
329.98	0.00168	0.000115
332.96	0.002154	0.000119
332.96	0.002151	0.000119
337.94	0.003204	0.00013
337.95	0.003216	0.00013
337.97	0.003217	0.00013
342.94	0.004728	0.000148
342.95	0.004719	0.000148
347.95	0.006844	0.000178
347.95	0.006838	0.000178
347.96	0.006843	0.000178
352.94	0.009729	0.000224
352.94	0.009728	0.000224
352.95	0.009763	0.000225
352.95	0.00974	0.000224
357.94	0.0137	0.00028
357.94	0.01369	0.00028
362.92	0.01905	0.00032
362.93	0.01906	0.00032
372.86	0.03566	0.00045
372.87	0.03567	0.00045
