Measured thermophysical data. Solubility of Pyoluteorin in Water, Dichloromethane, Chloroform, and Carbon Tetrachloride from (278.2 to 333.2) K
Source: J. Chem. Eng. Data, 2008, 10.1021/je800369k
Compound 1: Pyoluteorin, C11H7Cl2NO3, InChI=1S/C11H7Cl2NO3/c12-5-4-6(14-11(5)13)10(17)9-7(15)2-1-3-8(9)16/h1-4,14-16H
Compound 2: dichloromethane, CH2Cl2, InChI=1S/CH2Cl2/c2-1-3/h1H2
Compound 3: trichloromethane, CHCl3, InChI=1S/CHCl3/c2-1(3)4/h1H
Compound 4: tetrachloromethane, CCl4, InChI=1S/CCl4/c2-1(3,4)5
Compound 5: water, H2O, InChI=1S/H2O/h1H2

System: water + Pyoluteorin; phases: Liquid, Crystal
Fixed: Pressure, kPa = 101
Property: Amount concentration (molarity), mol/dm3 (Liquid); method: reverse-phase HPLC
Temperature, K	Amount concentration (molarity), mol/dm3	uncertainty
278.2	0.00053	6e-05
283.2	0.00056	6e-05
288.2	0.00063	6e-05
293.2	0.00075	6e-05
298.2	0.00079	6e-05
303.2	0.00096	6e-05
308.2	0.00099	6e-05
313.2	0.00115	8e-05
318.2	0.00129	6e-05
323.2	0.0015	0.0001
328.2	0.00159	6e-05
333.2	0.00173	8e-05

System: dichloromethane + Pyoluteorin; phases: Liquid, Crystal
Fixed: Pressure, kPa = 101
Property: Amount concentration (molarity), mol/dm3 (Liquid); method: reverse-phase HPLC
Temperature, K	Amount concentration (molarity), mol/dm3	uncertainty
278.2	0.01076	0.00034
283.2	0.01152	0.00078
288.2	0.01249	0.00056
293.2	0.01382	0.00025
298.2	0.01553	0.00049
303.2	0.01765	0.00026
308.2	0.0211	0.00075

System: trichloromethane + Pyoluteorin; phases: Liquid, Crystal
Fixed: Pressure, kPa = 101
Property: Amount concentration (molarity), mol/dm3 (Liquid); method: reverse-phase HPLC
Temperature, K	Amount concentration (molarity), mol/dm3	uncertainty
278.2	0.0757	0.0062
283.2	0.0788	0.0088
288.2	0.0813	0.0044
293.2	0.0901	0.0062
298.2	0.094	0.0039
303.2	0.1007	0.014
308.2	0.1075	0.0092
313.2	0.122	0.0048
318.2	0.1348	0.0086
323.2	0.1567	0.0058
328.2	0.1708	0.0166

System: tetrachloromethane + Pyoluteorin; phases: Liquid, Crystal
Fixed: Pressure, kPa = 101
Property: Amount concentration (molarity), mol/dm3 (Liquid); method: reverse-phase HPLC
Temperature, K	Amount concentration (molarity), mol/dm3	uncertainty
278.2	0.00035	0.00016
283.2	0.00046	0.00016
288.2	0.00052	0.00016
293.2	0.00088	0.00016
298.2	0.00125	0.00016
303.2	0.00163	0.00016
308.2	0.00239	0.00016
313.2	0.00297	0.00016
318.2	0.00376	0.00016
323.2	0.00452	0.00016
328.2	0.00574	0.00017
333.2	0.00674	0.00017
