Measured thermophysical data. Densities and Viscosities of 1-Butyl-3-methylimidazolium Trifluoromethanesulfonate + H2O Binary Mixtures at T ) (303.15 to 343.15) K
Source: J. Chem. Eng. Data, 2008, 10.1021/je8003832
Compound 1: 1-butyl-3-methylimidazolium trifluoromethanesulfonate, C9H15F3N2O3S, InChI=1S/C8H15N2.CHF3O3S/c1-3-4-5-10-7-6-9(2)8-10;2-1(3,4)8(5,6)7/h6-8H,3-5H2,1-2H3;(H,5,6,7)/q+1;/p-1
Compound 2: water, H2O, InChI=1S/H2O/h1H2

System: 1-butyl-3-methylimidazolium trifluoromethanesulfonate; phases: Liquid
Fixed: Pressure, kPa = 101
Property: Viscosity, Pa*s (Liquid); method: CAPTUB:UFactor:16
Temperature, K	Viscosity, Pa*s	uncertainty
303.15	0.06319	0.00412
308.15	0.051729	0.003557
313.15	0.042458	0.002763
318.15	0.035174	0.00231
323.15	0.029553	0.001961
333.15	0.021609	0.001467
343.15	0.016376	0.001142

System: 1-butyl-3-methylimidazolium trifluoromethanesulfonate; phases: Liquid
Fixed: Pressure, kPa = 101
Property: Mass density, kg/m3 (Liquid); method: PYCNOM:UFactor:8
Temperature, K	Mass density, kg/m3	uncertainty
303.15	1298.4	4
308.15	1294.9	4.1
313.15	1291.4	4.2
318.15	1287.8	4.3
323.15	1284.4	4.5
333.15	1277.4	4.7
343.15	1270.5	4.9

System: water + 1-butyl-3-methylimidazolium trifluoromethanesulfonate; phases: Liquid
Fixed: Pressure, kPa = 101
Property: Viscosity, Pa*s (Liquid); method: CAPTUB:UFactor:16
Temperature, K	Mole fraction of water	Viscosity, Pa*s	uncertainty
303.15	0	0.06319	0.00412
303.15	0.1032	0.045696	0.002963
303.15	0.1939	0.035415	0.002323
303.15	0.2987	0.028969	0.001922
303.15	0.3999	0.023248	0.001566
303.15	0.501	0.019187	0.001314
303.15	0.5923	0.015467	0.001083
303.15	0.7023	0.011556	0.00084
303.15	0.799	0.0082063	0.0006326
303.15	0.901	0.0045521	0.0003971
303.15	1	0.0007977	8.13e-05
308.15	0	0.051729	0.000557
308.15	0.1032	0.037227	0.002437
308.15	0.1939	0.02927	0.001942
308.15	0.2987	0.024276	0.001631
308.15	0.3999	0.019951	0.001362
308.15	0.501	0.016805	0.001166
308.15	0.5923	0.013202	0.000943
308.15	0.7023	0.01013	0.000752
308.15	0.799	0.006932	0.0005536
308.15	0.901	0.0038692	0.0003407
308.15	1	0.000719	7.45e-05
313.15	0	0.042458	0.002763
313.15	0.1032	0.030927	0.002045
313.15	0.1939	0.024463	0.001643
313.15	0.2987	0.020532	0.001398
313.15	0.3999	0.01688	0.001171
313.15	0.501	0.013948	0.000989
313.15	0.5923	0.01121	0.000819
313.15	0.7023	0.0086049	0.0006574
313.15	0.799	0.005989	0.0004952
313.15	0.901	0.0033759	0.0002997
313.15	1	0.0006532	6.89e-05
318.15	0	0.035174	0.00231
318.15	0.1032	0.025041	0.00168
318.15	0.1939	0.020791	0.001415
318.15	0.2987	0.017549	0.001213
318.15	0.3999	0.014377	0.001016
318.15	0.501	0.012001	0.000868
318.15	0.5923	0.0099072	0.0007383
318.15	0.7023	0.007465	0.0005867
318.15	0.799	0.0053393	0.0004549
318.15	0.901	0.0031563	0.0002813
318.15	1	0.0006001	6.43e-05
323.15	0	0.029553	0.001961
323.15	0.1032	0.021507	0.00146
323.15	0.1939	0.018108	0.001248
323.15	0.2987	0.015173	0.001066
323.15	0.3999	0.012618	0.000907
323.15	0.501	0.010423	0.00077
323.15	0.5923	0.0085157	0.000652
323.15	0.7023	0.0065763	0.0005316
323.15	0.799	0.0045704	0.0003986
323.15	0.901	0.0030054	0.0002687
323.15	1	0.000547	5.97e-05
333.15	0	0.021609	0.001467
333.15	0.1032	0.016069	0.001122
333.15	0.1939	0.013507	0.000963
333.15	0.2987	0.011613	0.000845
333.15	0.3999	0.00988	0.0007369
333.15	0.501	0.0081008	0.0006263
333.15	0.5923	0.0067021	0.0005395
333.15	0.7023	0.0051369	0.0004424
333.15	0.799	0.0036181	0.0003199
333.15	0.901	0.0020992	0.0001924
333.15	1	0.0004665	5.28e-05
343.15	0	0.016376	0.001142
343.15	0.1032	0.012443	0.000897
343.15	0.1939	0.010545	0.000779
343.15	0.2987	0.0091368	0.000691
343.15	0.3999	0.0078156	0.0006088
343.15	0.501	0.0066122	0.000534
343.15	0.5923	0.0053842	0.0004578
343.15	0.7023	0.0042397	0.0003714
343.15	0.799	0.0029364	0.0002629
343.15	0.901	0.0017141	0.0001597
343.15	1	0.000404	4.76e-05

System: water + 1-butyl-3-methylimidazolium trifluoromethanesulfonate; phases: Liquid
Fixed: Pressure, kPa = 101
Property: Mass density, kg/m3 (Liquid); method: PYCNOM:UFactor:8
Temperature, K	Mole fraction of water	Mass density, kg/m3	uncertainty
303.15	0	1298.4	4
303.15	0.1032	1294.5	3.9
303.15	0.1939	1291.2	3.9
303.15	0.2987	1286.5	3.8
303.15	0.3999	1280.8	3.7
303.15	0.501	1272.8	3.6
303.15	0.5923	1263	3.6
303.15	0.7023	1246.2	3.5
303.15	0.799	1220.1	3.4
303.15	0.901	1164.6	3.3
303.15	1	995.7	2.6
308.15	0	1294.9	4.1
308.15	0.1032	1291	4
308.15	0.1939	1287.7	4
308.15	0.2987	1283	3.9
308.15	0.3999	1277.3	3.8
308.15	0.501	1269.3	3.7
308.15	0.5923	1259.5	3.7
308.15	0.7023	1242.5	3.6
308.15	0.799	1216.6	3.5
308.15	0.901	1160.6	3.3
308.15	1	994	2.7
313.15	0	1291.4	4.2
313.15	0.1032	1287.5	4.2
313.15	0.1939	1284.1	4.1
313.15	0.2987	1279.4	4
313.15	0.3999	1273.8	3.9
313.15	0.501	1265.7	3.9
313.15	0.5923	1255.9	3.8
313.15	0.7023	1238.8	3.7
313.15	0.799	1212.9	3.6
313.15	0.901	1156.7	3.4
313.15	1	992.2	2.9
318.15	0	1287.8	4.3
318.15	0.1032	1283.8	4.3
318.15	0.1939	1280.4	4.2
318.15	0.2987	1275.8	4.1
318.15	0.3999	1270.2	4
318.15	0.501	1262	4
318.15	0.5923	1252.2	3.9
318.15	0.7023	1234.9	3.8
318.15	0.799	1208.9	3.7
318.15	0.901	1153	3.5
318.15	1	990.2	3
323.15	0	1284.4	4.5
323.15	0.1032	1280.3	4.4
323.15	0.1939	1276.8	4.3
323.15	0.2987	1272.2	4.2
323.15	0.3999	1266.5	4.1
323.15	0.501	1258.3	4.1
323.15	0.5923	1248.5	4
323.15	0.7023	1231.1	3.9
323.15	0.799	1205.2	3.8
323.15	0.901	1150	3.6
323.15	1	988.1	3.1
333.15	0	1277.4	4.7
333.15	0.1032	1273.1	4.6
333.15	0.1939	1269.7	4.5
333.15	0.2987	1265	4.4
333.15	0.3999	1259.3	4.4
333.15	0.501	1251.1	4.3
333.15	0.5923	1241.3	4.2
333.15	0.7023	1223.4	4.1
333.15	0.799	1197.2	4
333.15	0.901	1142.6	3.8
333.15	1	983.2	3.3
343.15	0	1270.5	4.9
343.15	0.1032	1266	4.8
343.15	0.1939	1262.6	4.7
343.15	0.2987	1257.9	4.6
343.15	0.3999	1252.2	4.6
343.15	0.501	1244	4.5
343.15	0.5923	1233.9	4.4
343.15	0.7023	1215.6	4.3
343.15	0.799	1189.3	4.2
343.15	0.901	1134.3	4.1
343.15	1	977.8	3.5
