Measured thermophysical data. Solubility of Novel CO2-Soluble Pyridine Derivatives in Supercritical Carbon  Dioxide
Source: J. Chem. Eng. Data, 2009, 10.1021/je800737d
Compound 1: carbon dioxide, CO2, InChI=1S/CO2/c2-1-3
Compound 2: 2,2,3,3,4,4,5,5,6,6,7,7,8,8,8-pentadecafluoro-N-hexyl-N-(pyridin-4-yl)octanamide, C19H17F15N2O, InChI=1S/C19H17F15N2O/c1-2-3-4-5-10-36(11-6-8-35-9-7-11)12(37)13(20,21)14(22,23)15(24,25)16(26,27)17(28,29)18(30,31)19(32,33)34/h6-9H,2-5,10H2,1H3
Compound 3: N-hexyl-N-(pyridin-4-yl)octanamide, C19H32N2O, InChI=1S/C19H32N2O/c1-3-5-7-9-10-12-19(22)21(17-11-8-6-4-2)18-13-15-20-16-14-18/h13-16H,3-12,17H2,1-2H3
Compound 4: 2,2,3,3,4,4,5,5,6,6,7,7,8,8,8-pentadecafluoro-N-(pyridin-4-yl)octanamide, C13H5F15N2O, InChI=1S/C13H5F15N2O/c14-7(15,6(31)30-5-1-3-29-4-2-5)8(16,17)9(18,19)10(20,21)11(22,23)12(24,25)13(26,27)28/h1-4H,(H,29,30,31)

System: carbon dioxide + 2,2,3,3,4,4,5,5,6,6,7,7,8,8,8-pentadecafluoro-N-hexyl-N-(pyridin-4-yl)octanamide; phases: Gas, Liquid
Property: Mole fraction of 2,2,3,3,4,4,5,5,6,6,7,7,8,8,8-pentadecafluoro-N-hexyl-N-(pyridin-4-yl)octanamide (Gas); method: Phase equilibration
Temperature, K	Pressure, kPa	Mole fraction of 2,2,3,3,4,4,5,5,6,6,7,7,8,8,8-pentadecafluoro-N-hexyl-N-(pyridin-4-yl)octanamide	uncertainty
313	9300	0.00186	0.00012
313	9100	0.00161	0.00011
313	9000	0.00142	9e-05
313	8900	0.00129	9e-05
313	8800	0.00121	8e-05
323	10800	0.00216	0.00014
323	10500	0.00188	0.00012
323	10200	0.00172	0.00011
323	10100	0.00152	0.0001
323	10000	0.00137	9e-05
343	14400	0.00211	0.00014
343	13700	0.00184	0.00012
343	13100	0.00167	0.00011
343	12600	0.00155	0.0001
343	12400	0.00139	9e-05
343	12300	0.0013	0.0001

System: carbon dioxide + 2,2,3,3,4,4,5,5,6,6,7,7,8,8,8-pentadecafluoro-N-(pyridin-4-yl)octanamide; phases: Gas, Liquid
Property: Mole fraction of 2,2,3,3,4,4,5,5,6,6,7,7,8,8,8-pentadecafluoro-N-(pyridin-4-yl)octanamide (Gas); method: Phase equilibration
Temperature, K	Pressure, kPa	Mole fraction of 2,2,3,3,4,4,5,5,6,6,7,7,8,8,8-pentadecafluoro-N-(pyridin-4-yl)octanamide	uncertainty
313	9800	0.00157	9e-05
313	9600	0.00131	8e-05
313	9500	0.00112	7e-05
313	9400	0.000986	5.9e-05
313	9300	0.000886	5.3e-05
323	12200	0.00164	0.0001
323	11700	0.0014	0.0001
323	11300	0.00124	7e-05
323	11100	0.00111	7e-05
323	11000	0.000991	5.9e-05
333	13400	0.00182	0.00011
333	12900	0.00155	9e-05
333	12600	0.00136	8e-05
333	12300	0.00123	7e-05
333	12100	0.00111	7e-05

System: carbon dioxide + N-hexyl-N-(pyridin-4-yl)octanamide; phases: Fluid (supercritical or subcritical phases), Crystal
Property: Mole fraction of N-hexyl-N-(pyridin-4-yl)octanamide (Fluid (supercritical or subcritical phases)); method: Phase equilibration
Temperature, K	Pressure, kPa	Mole fraction of N-hexyl-N-(pyridin-4-yl)octanamide	uncertainty
313	16000	0.000566	3.4e-05
313	13600	0.00048	3e-05
313	12100	0.000422	2.5e-05
313	11000	0.000382	2.3e-05
313	10500	0.000347	2.1e-05
313	10200	0.000319	1.9e-05
323	20300	0.00057	3e-05
323	17000	0.000488	2.9e-05
323	15200	0.000431	2.6e-05
323	14200	0.000384	2.3e-05
323	13500	0.000349	2.1e-05
323	13200	0.000318	1.9e-05
333	24900	0.000572	3.4e-05
333	21000	0.00049	3e-05
333	19000	0.000429	2.6e-05
333	17400	0.000387	2.3e-05
333	16400	0.000353	2.1e-05
333	16000	0.000323	1.9e-05
