Measured thermophysical data. Volumetric Properties of Tripeptides with Polar Side-Chains: Partial Molar Volumes at (288.15 to 313.15) K and Partial Molar Expansions at 298.15 K of Some Peptides of Sequence Gly-X-Gly in Aqueous Solution
Source: J. Chem. Eng. Data, 2009, 10.1021/je800527p
Compound 1: water, H2O, InChI=1S/H2O/h1H2
Compound 2: glycyl-L-serylglycine, C7H13N3O5, InChI=1S/C7H13N3O5/c8-1-5(12)10-4(3-11)7(15)9-2-6(13)14/h4,11H,1-3,8H2,(H,9,15)(H,10,12)(H,13,14)/t4-/m0/s1
Compound 3: glycyl-L-threonylglycine, C8H15N3O5, InChI=1S/C8H15N3O5/c1-4(12)7(11-5(13)2-9)8(16)10-3-6(14)15/h4,7,12H,2-3,9H2,1H3,(H,10,16)(H,11,13)(H,14,15)/t4?,7-/m0/s1
Compound 4: L-aspartoylbisglycine, C8H13N3O6, InChI=1S/C8H13N3O6/c9-4(8(17)11-3-7(15)16)1-5(12)10-2-6(13)14/h4H,1-3,9H2,(H,10,12)(H,11,17)(H,13,14)(H,15,16)/t4-/m0/s1
Compound 5: L-glutamoylbisglycine, C9H15N3O6, InChI=1S/C9H15N3O6/c10-3-6(13)12-5(1-2-7(14)15)9(18)11-4-8(16)17/h5H,1-4,10H2,(H,11,18)(H,12,13)(H,14,15)(H,16,17)/t5-/m0/s1
Compound 6: glycyl-L-cysteinylglycine, C7H13N3O4S, InChI=1S/C7H13N3O4S/c8-1-5(11)10-4(3-15)7(14)9-2-6(12)13/h4,15H,1-3,8H2,(H,9,14)(H,10,11)(H,12,13)/t4-/m0/s1
Compound 7: glycyl-L-histidylglycine, C10H15N5O4, InChI=1S/C10H15N5O4/c11-2-8(16)15-7(1-6-3-12-5-14-6)10(19)13-4-9(17)18/h3,5,7H,1-2,4,11H2,(H,12,14)(H,13,19)(H,15,16)(H,17,18)/t7-/m0/s1
Compound 8: glycyl-L-tyrosylglycine, C13H17N3O5, InChI=1S/C13H17N3O5/c14-6-11(18)16-10(13(21)15-7-12(19)20)5-8-1-3-9(17)4-2-8/h1-4,10,17H,5-7,14H2,(H,15,21)(H,16,18)(H,19,20)/t10-/m0/s1

System: glycyl-L-serylglycine + water; phases: Liquid
Fixed: Pressure, kPa = 101
Property: Mass density, kg/m3 (Liquid); method: VIBTUB:UFactor:6
Molality, mol/kg of glycyl-L-serylglycine	Temperature, K	Mass density, kg/m3	uncertainty
0.025	298.15	999.264	0.209
0.02533	303.15	997.881	0.211
0.02969	313.15	994.793	0.216
0.02992	303.15	998.289	0.21
0.03014	288.15	1001.815	0.21
0.0306	298.15	999.768	0.207
0.03329	313.15	995.098	0.216
0.03496	303.15	998.733	0.211
0.03505	298.15	1000.158	0.207
0.03542	288.15	1002.284	0.211
0.03976	313.15	995.655	0.215
0.04024	298.15	1000.613	0.205
0.04107	288.15	1002.788	0.213
0.04401	313.15	996.025	0.214
0.04521	298.15	1001.047	0.209
0.0453	303.15	999.64	0.206
0.04543	288.15	1003.183	0.214
0.04969	313.15	996.506	0.213
0.05003	303.15	1000.051	0.205
0.05019	288.15	1003.609	0.214
0.05166	298.15	1001.615	0.211
0.05419	313.15	996.891	0.211
0.05493	298.15	1001.905	0.21
0.05524	288.15	1004.055	0.215
0.0555	303.15	1000.528	0.209
0.05935	313.15	997.32	0.211
0.0598	298.15	1002.335	0.21
0.06026	288.15	1004.509	0.216
0.06095	303.15	1001.005	0.21
0.06473	303.15	1001.336	0.195
0.06498	313.15	997.808	0.211
0.06526	288.15	1004.947	0.216
0.06564	298.15	1002.841	0.203

System: water + glycyl-L-threonylglycine; phases: Liquid
Fixed: Pressure, kPa = 101
Property: Mass density, kg/m3 (Liquid); method: VIBTUB:UFactor:6
Molality, mol/kg of glycyl-L-threonylglycine	Temperature, K	Mass density, kg/m3	uncertainty
0.02019	303.15	997.395	0.224
0.02134	288.15	1000.987	0.208
0.02395	313.15	994.263	0.218
0.02986	288.15	1001.736	0.21
0.02986	313.15	994.77	0.216
0.03031	303.15	998.267	0.211
0.03395	288.15	1002.098	0.21
0.03494	313.15	995.189	0.215
0.04017	288.15	1002.641	0.211
0.04187	313.15	995.778	0.214
0.04506	303.15	999.529	0.203
0.04925	288.15	1003.435	0.213
0.04964	313.15	996.431	0.212
0.05146	303.15	1000.078	0.212
0.05481	303.15	1000.357	0.259
0.05602	288.15	1004.03	0.214
0.05962	288.15	1004.342	0.215
0.06044	313.15	997.339	0.21
0.06908	303.15	1001.574	0.249
0.07023	288.15	1005.256	0.217
0.07099	303.15	1001.73	0.249
0.07257	313.15	998.353	0.208
0.07941	288.15	1006.047	0.218
0.08055	303.15	1002.544	0.21
0.08221	313.15	999.148	0.206
0.09131	288.15	1007.08	0.221
0.09143	303.15	1003.46	0.199
0.09325	313.15	1000.066	0.205

System: water + L-aspartoylbisglycine; phases: Liquid
Fixed: Pressure, kPa = 101
Property: Mass density, kg/m3 (Liquid); method: VIBTUB:UFactor:6
Molality, mol/kg of L-aspartoylbisglycine	Temperature, K	Mass density, kg/m3	uncertainty
0.02228	303.15	997.821	0.236
0.02228	313.15	994.368	0.221
0.02287	298.15	999.295	0.212
0.02484	298.15	999.489	0.209
0.02508	303.15	998.095	0.215
0.02508	313.15	994.635	0.221
0.02634	288.15	1001.735	0.214
0.02783	303.15	998.36	0.215
0.02783	313.15	994.898	0.221
0.02795	298.15	999.79	0.215
0.03159	298.15	1000.147	0.204
0.0319	303.15	998.757	0.214
0.0319	313.15	995.29	0.219
0.03248	288.15	1002.34	0.216
0.0337	298.15	1000.352	0.224
0.03757	298.15	1000.729	0.211
0.03772	303.15	999.316	0.211
0.03772	313.15	995.842	0.218
0.03979	288.15	1003.071	0.217
0.04282	298.15	1001.244	0.211
0.0429	303.15	999.814	0.211
0.0429	313.15	996.336	0.217
0.04516	288.15	1003.597	0.218
0.0486	298.15	1001.8	0.21
0.04971	303.15	1000.473	0.212
0.04971	313.15	996.987	0.216
0.05155	288.15	1004.231	0.219
0.05367	298.15	1002.289	0.214
0.0554	303.15	1001.019	0.214
0.0554	313.15	997.526	0.215
0.05892	298.15	1002.802	0.204
0.05974	288.15	1005.028	0.221
0.06187	303.15	1001.639	0.209
0.06187	313.15	998.14	0.213
0.06457	288.15	1005.5	0.222
0.06951	288.15	1005.982	0.223

System: water + L-glutamoylbisglycine; phases: Liquid
Fixed: Pressure, kPa = 101
Property: Mass density, kg/m3 (Liquid); method: VIBTUB:UFactor:6
Molality, mol/kg of L-glutamoylbisglycine	Temperature, K	Mass density, kg/m3	uncertainty
0.02725	288.15	1001.836	0.216
0.03003	303.15	998.601	0.281
0.03003	313.15	995.134	0.221
0.03159	288.15	1002.275	0.216
0.03193	303.15	998.782	0.231
0.03193	313.15	995.319	0.219
0.03622	303.15	999.207	0.212
0.03622	313.15	995.724	0.219
0.04087	303.15	999.656	0.19
0.04216	288.15	1003.333	0.218
0.04323	303.15	999.88	0.21
0.04323	313.15	996.398	0.218
0.04429	303.15	999.99	0.384
0.04626	288.15	1003.744	0.219
0.05226	303.15	1000.764	0.212
0.05226	313.15	997.267	0.216
0.05656	303.15	1001.186	0.19
0.05656	313.15	997.683	0.215
0.0578	288.15	1004.881	0.221
0.06734	288.15	1005.83	0.223

System: water + glycyl-L-cysteinylglycine; phases: Liquid
Fixed: Pressure, kPa = 101
Property: Mass density, kg/m3 (Liquid); method: VIBTUB:UFactor:6
Molality, mol/kg of glycyl-L-cysteinylglycine	Temperature, K	Mass density, kg/m3	uncertainty
0.01633	288.15	1000.629	0.21
0.02087	288.15	1001.053	0.21
0.02094	313.15	994.099	0.219
0.02103	303.15	997.568	0.281
0.02497	303.15	997.92	0.237
0.02582	288.15	1001.513	0.211
0.02788	303.15	998.184	0.191
0.02984	288.15	1001.884	0.212
0.03046	303.15	998.417	0.214
0.03109	313.15	995.001	0.217
0.03394	303.15	998.731	0.195
0.03474	288.15	1002.336	0.213
0.03597	313.15	995.437	0.216
0.0374	303.15	999.043	0.205
0.03941	313.15	995.739	0.216
0.0395	288.15	1002.783	0.214
0.04008	303.15	999.279	0.225
0.04097	288.15	1002.915	0.214
0.04358	303.15	999.593	0.206
0.04442	288.15	1003.233	0.215
0.04508	313.15	996.242	0.214
0.04953	288.15	1003.707	0.216
0.05002	313.15	996.672	0.214
0.05003	303.15	1000.168	0.201
0.05218	313.15	996.867	0.213
0.05296	303.15	1000.429	0.236
0.05751	313.15	997.331	0.212

System: water + glycyl-L-histidylglycine; phases: Liquid
Fixed: Pressure, kPa = 101
Property: Mass density, kg/m3 (Liquid); method: VIBTUB:UFactor:6
Molality, mol/kg of glycyl-L-histidylglycine	Temperature, K	Mass density, kg/m3	uncertainty
0.004009	298.15	997.442	0.243
0.004019	288.15	999.501	0.212
0.00404	303.15	996.046	0.219
0.00498	303.15	996.138	0.219
0.00501	288.15	999.6	0.213
0.005108	313.15	992.711	0.226
0.006051	313.15	992.804	0.226
0.006072	288.15	999.708	0.211
0.006103	303.15	996.247	0.219
0.006936	313.15	992.89	0.225
0.007051	288.15	999.802	0.211
0.00711	303.15	996.346	0.214
0.007226	298.15	997.762	0.207
0.007975	303.15	996.427	0.226
0.008041	298.15	997.838	0.221
0.008127	288.15	999.911	0.213
0.0082	313.15	993.012	0.225
0.00901	288.15	1000.003	0.212
0.00901	298.15	997.939	0.298
0.01009	298.15	998.038	0.2
0.010119	288.15	1000.112	0.212
0.010224	313.15	993.207	0.223
0.010884	288.15	1000.191	0.212
0.011058	303.15	996.73	0.21
0.011091	298.15	998.142	0.223
0.011384	313.15	993.309	0.222
0.01205	288.15	1000.307	0.212
0.012247	303.15	996.842	0.195
0.012267	298.15	998.254	0.193
0.012322	313.15	993.4	0.224

System: glycyl-L-tyrosylglycine + water; phases: Liquid
Fixed: Pressure, kPa = 101
Property: Mass density, kg/m3 (Liquid); method: VIBTUB:UFactor:6
Molality, mol/kg of glycyl-L-tyrosylglycine	Temperature, K	Mass density, kg/m3	uncertainty
0.01685	303.15	997.325	0.495
0.017	313.15	993.889	0.223
0.01708	288.15	1000.848	0.214
0.01781	303.15	997.42	0.283
0.01785	313.15	993.972	0.221
0.01889	313.15	994.065	0.222
0.019	303.15	997.535	0.227
0.01938	288.15	1001.081	0.214
0.02086	313.15	994.259	0.223
0.02087	303.15	997.719	0.215
0.02117	288.15	1001.261	0.215
0.0216	313.15	994.332	0.222
0.02288	313.15	994.456	0.223
0.023	288.15	1001.449	0.215
0.02301	303.15	997.932	0.198
0.02376	313.15	994.546	0.222
0.02384	288.15	1001.531	0.214
0.02396	303.15	998.023	0.259
0.02492	313.15	994.655	0.22
0.02501	303.15	998.127	0.22
0.02504	288.15	1001.65	0.215
0.02575	288.15	1001.724	0.215
0.02586	313.15	994.742	0.221
0.02604	303.15	998.224	0.259
0.02688	313.15	994.842	0.221
0.02701	303.15	998.323	0.225
0.02705	288.15	1001.853	0.217
0.02763	313.15	994.913	0.22
0.0279	288.15	1001.946	0.215
0.02792	303.15	998.415	0.261
0.02882	303.15	998.496	0.467
0.02902	313.15	995.047	0.22
0.02909	288.15	1002.058	0.213
