Measured thermophysical data. Solubility of Carbon Dioxide in Two Pentaerythritol Ester Oils between (283 and 333) K
Source: J. Chem. Eng. Data, 2008, 10.1021/je800178x
Compound 1: carbon dioxide, CO2, InChI=1S/CO2/c2-1-3
Compound 2: pentaerythritol tetrapentanoate, C25H44O8, InChI=1S/C25H44O8/c1-5-9-13-21(26)30-17-25(18-31-22(27)14-10-6-2,19-32-23(28)15-11-7-3)20-33-24(29)16-12-8-4/h5-20H2,1-4H3
Compound 3: pentaerythritol tetra(2-ethylhexanoate), C37H68O8, InChI=1S/C37H68O8/c1-9-17-21-29(13-5)33(38)42-25-37(26-43-34(39)30(14-6)22-18-10-2,27-44-35(40)31(15-7)23-19-11-3)28-45-36(41)32(16-8)24-20-12-4/h29-32H,9-28H2,1-8H3

System: carbon dioxide + pentaerythritol tetrapentanoate; phases: Liquid, Gas
Property: Mole fraction of carbon dioxide (Liquid); method: Calculated from the degassed mass introduced in the equilibrium cell.
Temperature, K	Pressure, kPa	Mole fraction of carbon dioxide	uncertainty
283.12	4329	0.913	0.037
283.13	2357	0.685	0.028
283.14	887	0.389	0.016
283.15	1498	0.533	0.022
283.15	3210	0.788	0.032
283.18	2339	0.678	0.028
293.15	738	0.277	0.012
293.15	938	0.339	0.014
293.15	2519	0.639	0.026
293.15	4822	0.86	0.035
293.16	3486	0.737	0.03
293.17	1581	0.484	0.02
293.19	2501	0.626	0.026
298.12	2571	0.61	0.025
298.12	2599	0.615	0.025
298.14	5034	0.841	0.034
298.15	960	0.323	0.013
298.15	1621	0.462	0.019
298.15	3605	0.72	0.029
298.16	753	0.272	0.011
303.12	983	0.304	0.012
303.14	2647	0.586	0.024
303.14	2671	0.596	0.025
303.14	4300	0.744	0.03
303.15	771	0.255	0.01
303.15	1661	0.441	0.018
303.15	3724	0.702	0.028
313.12	1028	0.273	0.011
313.13	1738	0.4	0.016
313.14	2790	0.548	0.023
313.15	806	0.227	0.009
313.15	3956	0.668	0.027
313.15	5637	0.793	0.032
313.16	2818	0.559	0.023
313.16	4590	0.708	0.028
323.12	1812	0.369	0.015
323.13	1071	0.243	0.01
323.13	4180	0.636	0.026
323.13	6016	0.769	0.031
323.14	841	0.199	0.008
323.14	2958	0.526	0.021
323.15	2928	0.516	0.021
323.16	4859	0.683	0.027
333.12	1885	0.342	0.014
333.13	872	0.183	0.007
333.14	3060	0.491	0.02
333.15	1113	0.222	0.009
333.15	4396	0.61	0.025
333.16	3095	0.498	0.02
333.16	5129	0.66	0.027
333.16	6387	0.751	0.03

System: carbon dioxide + pentaerythritol tetra(2-ethylhexanoate); phases: Liquid, Gas
Property: Mole fraction of carbon dioxide (Liquid); method: Calculated from the degassed mass introduced in the equilibrium cell.
Temperature, K	Pressure, kPa	Mole fraction of carbon dioxide	uncertainty
283.15	703	0.319	0.013
283.15	4098	0.885	0.036
283.15	4380	0.91	0.037
283.16	1940	0.639	0.026
283.17	3605	0.839	0.034
283.2	1235	0.491	0.02
283.23	388	0.242	0.011
293.15	414	0.155	0.007
293.15	3891	0.794	0.032
293.15	4509	0.831	0.034
293.15	4853	0.856	0.034
293.16	1294	0.447	0.018
293.17	736	0.288	0.012
293.21	2048	0.591	0.024
293.22	2890	0.691	0.028
298.12	752	0.269	0.011
298.13	4021	0.781	0.032
298.15	4680	0.821	0.033
298.19	1324	0.419	0.017
298.22	2100	0.57	0.023
303.13	5252	0.833	0.033
303.15	430	0.147	0.006
303.15	769	0.251	0.01
303.15	4844	0.815	0.033
303.17	2151	0.55	0.022
303.21	1350	0.417	0.017
303.21	4157	0.759	0.031
303.23	3055	0.659	0.027
313.09	2251	0.513	0.021
313.12	4409	0.73	0.029
313.13	801	0.223	0.009
313.15	1406	0.385	0.016
313.15	5184	0.789	0.032
313.16	448	0.121	0.005
313.16	5643	0.815	0.033
313.2	3217	0.626	0.025
322.92	2347	0.478	0.019
323.01	1461	0.352	0.014
323.08	4655	0.706	0.028
323.1	3374	0.599	0.024
323.14	6012	0.798	0.032
323.15	464	0.108	0.004
323.15	5510	0.769	0.031
323.16	832	0.194	0.008
333.04	2444	0.456	0.019
333.11	862	0.179	0.007
333.13	4897	0.685	0.028
333.14	1518	0.309	0.013
333.14	3529	0.574	0.023
333.15	481	0.093	0.004
333.15	5829	0.753	0.03
333.16	6379	0.786	0.032
