Measured thermophysical data. Conductivities of Binary Mixtures of Ionic Liquids with Polar Solvents
Source: J. Chem. Eng. Data, 2009, 10.1021/je800468h
Compound 1: 1-butyl-3-methylimidazolium tetrafluoroborate, C8H15BF4N2, InChI=1S/C8H15N2.BF4/c1-3-4-5-10-7-6-9(2)8-10;2-1(3,4)5/h6-8H,3-5H2,1-2H3;/q+1;-1
Compound 2: 1-butyl-3-methylimidazolium hexafluorophosphate, C8H15F6N2P, InChI=1S/C8H15N2.F6P/c1-3-4-5-10-7-6-9(2)8-10;1-7(2,3,4,5)6/h6-8H,3-5H2,1-2H3;/q+1;-1
Compound 3: 1-butyl-3-methylimidazolium dicyanamide, C10H15N5, InChI=1S/C8H15N2.C2N3/c1-3-4-5-10-7-6-9(2)8-10;3-1-5-2-4/h6-8H,3-5H2,1-2H3;/q+1;-1
Compound 4: 1-hexyl-3-methylimidazolium tetrafluoroborate, C10H19BF4N2, InChI=1S/C10H19N2.BF4/c1-3-4-5-6-7-12-9-8-11(2)10-12;2-1(3,4)5/h8-10H,3-7H2,1-2H3;/q+1;-1
Compound 5: dichloromethane, CH2Cl2, InChI=1S/CH2Cl2/c2-1-3/h1H2
Compound 6: 1-ethyl-3-methylimidazolium tetrafluoroborate, C6H11BF4N2, InChI=1S/C6H11N2.BF4/c1-3-8-5-4-7(2)6-8;2-1(3,4)5/h4-6H,3H2,1-2H3;/q+1;-1
Compound 7: water, H2O, InChI=1S/H2O/h1H2
Compound 8: acetonitrile, C2H3N, InChI=1S/C2H3N/c1-2-3/h1H3
Compound 9: methanol, CH4O, InChI=1S/CH4O/c1-2/h2H,1H3
Compound 10: dimethyl sulfoxide, C2H6OS, InChI=1S/C2H6OS/c1-4(2)3/h1-2H3
Compound 11: 4-methyl-1,3-dioxolan-2-one, C4H6O3, InChI=1S/C4H6O3/c1-3-2-6-4(5)7-3/h3H,2H2,1H3

System: 1-butyl-3-methylimidazolium tetrafluoroborate; phases: Liquid
Property: Electrical conductivity, S/m (Liquid); method: Alternating current cell with electrodes
Temperature, K	Pressure, kPa	Electrical conductivity, S/m	uncertainty
298.15	101	0.353	0.004

System: 1-butyl-3-methylimidazolium tetrafluoroborate; phases: Liquid
Property: Mass density, kg/m3 (Liquid); method: Vibrating tube method
Temperature, K	Pressure, kPa	Mass density, kg/m3	uncertainty
298.15	101	1202.19	7.86

System: 1-butyl-3-methylimidazolium hexafluorophosphate; phases: Liquid
Property: Electrical conductivity, S/m (Liquid); method: Alternating current cell with electrodes
Temperature, K	Pressure, kPa	Electrical conductivity, S/m	uncertainty
298.15	101	0.1469	0.0015

System: 1-butyl-3-methylimidazolium hexafluorophosphate; phases: Liquid
Property: Mass density, kg/m3 (Liquid); method: Vibrating tube method
Temperature, K	Pressure, kPa	Mass density, kg/m3	uncertainty
298.15	101	1368.32	10.22

System: 1-butyl-3-methylimidazolium dicyanamide; phases: Liquid
Property: Electrical conductivity, S/m (Liquid); method: Alternating current cell with electrodes
Temperature, K	Pressure, kPa	Electrical conductivity, S/m	uncertainty
298.15	101	1.139	0.011

System: 1-butyl-3-methylimidazolium dicyanamide; phases: Liquid
Property: Mass density, kg/m3 (Liquid); method: Vibrating tube method
Temperature, K	Pressure, kPa	Mass density, kg/m3	uncertainty
298.15	101	1059.12	6.07

System: 1-hexyl-3-methylimidazolium tetrafluoroborate; phases: Liquid
Property: Electrical conductivity, S/m (Liquid); method: Alternating current cell with electrodes
Temperature, K	Pressure, kPa	Electrical conductivity, S/m	uncertainty
298.15	101	0.1228	0.0012

System: 1-hexyl-3-methylimidazolium tetrafluoroborate; phases: Liquid
Property: Mass density, kg/m3 (Liquid); method: Vibrating tube method
Temperature, K	Pressure, kPa	Mass density, kg/m3	uncertainty
298.15	101	1146.34	7.14

System: 1-ethyl-3-methylimidazolium tetrafluoroborate; phases: Liquid
Property: Electrical conductivity, S/m (Liquid); method: Alternating current cell with electrodes
Temperature, K	Pressure, kPa	Electrical conductivity, S/m	uncertainty
298.15	101	1.553	0.016

System: 1-ethyl-3-methylimidazolium tetrafluoroborate; phases: Liquid
Property: Mass density, kg/m3 (Liquid); method: Vibrating tube method
Temperature, K	Pressure, kPa	Mass density, kg/m3	uncertainty
298.15	101	1283.7	1.47

System: 1-ethyl-3-methylimidazolium tetrafluoroborate; phases: Liquid
Property: Electrical conductivity, S/m (Liquid); method: Alternating current cell with electrodes
Temperature, K	Pressure, kPa	Electrical conductivity, S/m	uncertainty
298.15	101	1.553	0.016

System: 1-ethyl-3-methylimidazolium tetrafluoroborate; phases: Liquid
Fixed: Temperature, K = 298.15
Fixed: Pressure, kPa = 101
Property: Mass density, kg/m3 (Liquid); method: Vibrating tube method
Mass density, kg/m3	uncertainty
1283.7	8.98
1280.38	8.93

System: water + 1-ethyl-3-methylimidazolium tetrafluoroborate; phases: Liquid
Fixed: Temperature, K = 298.15
Fixed: Pressure, kPa = 101
Property: Electrical conductivity, S/m (Liquid); method: Alternating current cell with electrodes
Mole fraction of 1-ethyl-3-methylimidazolium tetrafluoroborate	Electrical conductivity, S/m	uncertainty
0.004746	1.874	0.019
0.01001	3.26	0.03
0.02226	5.35	0.05
0.03637	6.81	0.07
0.05733	8.08	0.08
0.08102	8.84	0.09
0.115	9.24	0.09
0.174	9.08	0.09
0.2564	8.13	0.08
0.419	5.99	0.06
1	1.553	0.016

System: water + 1-ethyl-3-methylimidazolium tetrafluoroborate; phases: Liquid
Fixed: Temperature, K = 298.15
Fixed: Pressure, kPa = 101
Property: Mass density, kg/m3 (Liquid); method: Vibrating tube method
Mole fraction of 1-ethyl-3-methylimidazolium tetrafluoroborate	Mass density, kg/m3	uncertainty
0.004746	1007.69	0.12
0.01001	1018.31	0.12
0.02226	1040.22	0.13
0.03637	1061.36	0.14
0.05733	1087.31	0.16
0.08102	1110.93	0.18
0.115	1136.45	0.22
0.174	1168.6	0.35
0.2564	1198.61	0.64
0.419	1233.28	1.55
1	1283.7	8.98

System: water + 1-butyl-3-methylimidazolium tetrafluoroborate; phases: Liquid
Fixed: Temperature, K = 298.15
Fixed: Pressure, kPa = 101
Property: Electrical conductivity, S/m (Liquid); method: Alternating current cell with electrodes
Mole fraction of 1-butyl-3-methylimidazolium tetrafluoroborate	Electrical conductivity, S/m	uncertainty
0.005053	1.72	0.017
0.008751	2.47	0.03
0.01927	3.59	0.04
0.03304	4.46	0.04
0.04969	4.9	0.05
0.07385	5.17	0.05
0.1053	5.21	0.05
0.1566	4.93	0.05
0.1991	4.55	0.05
0.2824	3.71	0.04
0.414	2.57	0.03
0.4919	2.04	0.02
0.5749	1.574	0.016
0.6838	1.098	0.011
0.7594	0.846	0.008
0.8931	0.527	0.005
1	0.353	0.004

System: water + 1-butyl-3-methylimidazolium tetrafluoroborate; phases: Liquid
Fixed: Temperature, K = 298.15
Fixed: Pressure, kPa = 101
Property: Mass density, kg/m3 (Liquid); method: Vibrating tube method
Mole fraction of 1-butyl-3-methylimidazolium tetrafluoroborate	Mass density, kg/m3	uncertainty
0.005053	1007	0.12
0.008751	1013.47	0.12
0.01927	1030.78	0.12
0.03304	1047.81	0.13
0.04969	1065.19	0.14
0.07385	1084.47	0.16
0.1053	1103.47	0.19
0.1566	1124.77	0.28
0.1991	1137.3	0.39
0.2824	1154.46	0.68
0.414	1171.08	1.36
0.4919	1177.86	1.88
0.5749	1183.94	2.55
0.6838	1190.14	3.61
0.7594	1193.53	4.46
0.8931	1198.74	6.22
1	1202.19	7.86

System: water + 1-butyl-3-methylimidazolium dicyanamide; phases: Liquid
Fixed: Temperature, K = 298.15
Fixed: Pressure, kPa = 101
Property: Electrical conductivity, S/m (Liquid); method: Alternating current cell with electrodes
Mole fraction of 1-butyl-3-methylimidazolium dicyanamide	Electrical conductivity, S/m	uncertainty
0.009639	2.02	0.02
0.02791	3.49	0.04
0.05432	4.43	0.04
0.07995	4.8	0.05
0.1112	4.9	0.05
0.1933	4.47	0.05
0.3214	3.55	0.04
0.4686	2.71	0.03
0.6386	2	0.02
0.8742	1.366	0.014
1	1.139	0.011

System: water + 1-butyl-3-methylimidazolium dicyanamide; phases: Liquid
Fixed: Temperature, K = 298.15
Fixed: Pressure, kPa = 101
Property: Mass density, kg/m3 (Liquid); method: Vibrating tube method
Mole fraction of 1-butyl-3-methylimidazolium dicyanamide	Mass density, kg/m3	uncertainty
0.009639	1003.22	0.12
0.02791	1011.25	0.12
0.05432	1019.63	0.13
0.07995	1025.43	0.14
0.1112	1031.05	0.16
0.1933	1040.01	0.29
0.3214	1047.31	0.67
0.4686	1051.86	1.34
0.6386	1055.38	2.45
0.8742	1058.33	4.61
1	1059.12	6.07

System: water + 1-hexyl-3-methylimidazolium tetrafluoroborate; phases: Liquid
Fixed: Temperature, K = 298.15
Fixed: Pressure, kPa = 101
Property: Electrical conductivity, S/m (Liquid); method: Alternating current cell with electrodes
Mole fraction of 1-hexyl-3-methylimidazolium tetrafluoroborate	Electrical conductivity, S/m	uncertainty
0.0007116	0.327	0.003
0.001428	0.567	0.006
0.001482	0.608	0.006
0.002238	0.854	0.009
0.00296	1.049	0.011
0.00296	1.064	0.011
0.003642	1.225	0.012
0.00447	1.411	0.014
0.004747	1.466	0.015
0.2816	2.03	0.02
0.314	1.829	0.018
0.3441	1.655	0.017
0.3813	1.456	0.015
0.4148	1.293	0.013
0.5139	0.898	0.009
0.5161	0.885	0.009
0.7069	0.417	0.004
1	0.1228	0.0012

System: water + 1-hexyl-3-methylimidazolium tetrafluoroborate; phases: Liquid
Fixed: Temperature, K = 298.15
Fixed: Pressure, kPa = 101
Property: Mass density, kg/m3 (Liquid); method: Vibrating tube method
Mole fraction of 1-hexyl-3-methylimidazolium tetrafluoroborate	Mass density, kg/m3	uncertainty
0.0007116	998.06	0.12
0.001428	999.52	0.12
0.001482	999.64	0.12
0.002238	1001.24	0.12
0.00296	1002.63	0.12
0.00296	1002.7	0.12
0.003642	1003.94	0.12
0.00447	1005.24	0.12
0.004747	1005.61	0.12
0.2816	1113.63	0.62
0.314	1116.76	0.75
0.3441	1119.43	0.88
0.3813	1122.43	1.06
0.4148	1124.75	1.24
0.5139	1130.58	1.87
0.5161	1130.73	1.89
0.7069	1138.7	3.51
1	1146.34	7.14

System: methanol + 1-butyl-3-methylimidazolium tetrafluoroborate; phases: Liquid
Fixed: Temperature, K = 298.15
Fixed: Pressure, kPa = 101
Property: Electrical conductivity, S/m (Liquid); method: Alternating current cell with electrodes
Mole fraction of 1-butyl-3-methylimidazolium tetrafluoroborate	Electrical conductivity, S/m	uncertainty
0.007409	0.867	0.009
0.01543	1.451	0.015
0.02435	1.97	0.02
0.03355	2.4	0.02
0.05717	3.3	0.03
0.08589	3.81	0.04
0.1242	4.18	0.04
0.1755	4.26	0.04
0.248	3.92	0.04
0.3624	3.09	0.03
0.5583	1.76	0.018

System: methanol + 1-butyl-3-methylimidazolium tetrafluoroborate; phases: Liquid
Fixed: Temperature, K = 298.15
Fixed: Pressure, kPa = 101
Property: Mass density, kg/m3 (Liquid); method: Vibrating tube method
Mole fraction of 1-butyl-3-methylimidazolium tetrafluoroborate	Mass density, kg/m3	uncertainty
0.007409	802.48	0.15
0.01543	818.28	0.15
0.02435	834.29	0.15
0.03355	849.76	0.15
0.05717	885.02	0.16
0.08589	921.13	0.18
0.1242	961.01	0.2
0.1755	1002.48	0.26
0.248	1046.31	0.45
0.3624	1094.85	0.92
0.5583	1145.28	2.25

System: 4-methyl-1,3-dioxolan-2-one + 1-butyl-3-methylimidazolium tetrafluoroborate; phases: Liquid
Fixed: Temperature, K = 298.15
Fixed: Pressure, kPa = 101
Property: Electrical conductivity, S/m (Liquid); method: Alternating current cell with electrodes
Mole fraction of 1-butyl-3-methylimidazolium tetrafluoroborate	Electrical conductivity, S/m	uncertainty
0.02318	0.537	0.005
0.04836	0.873	0.009
0.1028	1.23	0.012
0.1601	1.346	0.013
0.2277	1.332	0.013
0.3056	1.229	0.012
0.407	1.055	0.011
0.5126	0.875	0.009
0.6192	0.715	0.007
0.7173	0.593	0.006
0.8497	0.463	0.005

System: 4-methyl-1,3-dioxolan-2-one + 1-butyl-3-methylimidazolium tetrafluoroborate; phases: Liquid
Fixed: Temperature, K = 298.15
Fixed: Pressure, kPa = 101
Property: Mass density, kg/m3 (Liquid); method: Vibrating tube method
Mole fraction of 1-butyl-3-methylimidazolium tetrafluoroborate	Mass density, kg/m3	uncertainty
0.02318	1201.32	0.16
0.04836	1202.51	0.17
0.1028	1204.3	0.22
0.1601	1205.43	0.32
0.2277	1206.17	0.52
0.3056	1206.51	0.83
0.407	1206.44	1.37
0.5126	1206.03	2.11
0.6192	1205.48	3.03
0.7173	1204.39	4.04
0.8497	1203.39	5.66

System: dimethyl sulfoxide + 1-butyl-3-methylimidazolium tetrafluoroborate; phases: Liquid
Fixed: Temperature, K = 298.15
Fixed: Pressure, kPa = 101
Property: Electrical conductivity, S/m (Liquid); method: Alternating current cell with electrodes
Mole fraction of 1-butyl-3-methylimidazolium tetrafluoroborate	Electrical conductivity, S/m	uncertainty
0.01925	0.687	0.007
0.03427	1.029	0.01
0.07837	1.558	0.016
0.1247	1.715	0.017
0.1866	1.672	0.017
0.2554	1.502	0.015
0.3251	1.31	0.013
0.4423	1.015	0.01
0.5246	0.854	0.009
0.6132	0.711	0.007
0.7494	0.543	0.005

System: dimethyl sulfoxide + 1-butyl-3-methylimidazolium tetrafluoroborate; phases: Liquid
Fixed: Temperature, K = 298.15
Fixed: Pressure, kPa = 101
Property: Mass density, kg/m3 (Liquid); method: Vibrating tube method
Mole fraction of 1-butyl-3-methylimidazolium tetrafluoroborate	Mass density, kg/m3	uncertainty
0.01925	1101.56	0.13
0.03427	1106.21	0.14
0.07837	1117.8	0.16
0.1247	1128.31	0.2
0.1866	1139.5	0.32
0.2554	1150.71	0.53
0.3251	1159.4	0.81
0.4423	1171.71	1.47
0.5246	1178.2	2.06
0.6132	1184.27	2.83
0.7494	1192.13	4.28

System: dichloromethane + 1-butyl-3-methylimidazolium tetrafluoroborate; phases: Liquid
Fixed: Temperature, K = 298.15
Fixed: Pressure, kPa = 101
Property: Electrical conductivity, S/m (Liquid); method: Alternating current cell with electrodes
Mole fraction of 1-butyl-3-methylimidazolium tetrafluoroborate	Electrical conductivity, S/m	uncertainty
0.00755	0.0602	0.0006
0.01921	0.2	0.002
0.02714	0.31	0.003
0.03878	0.436	0.004
0.07987	0.98	0.01
0.1395	1.427	0.014
0.194	1.55	0.016
0.2674	1.607	0.016
0.3355	1.53	0.015
0.4787	1.209	0.012
0.6019	0.93	0.009
0.773	0.62	0.006
0.8496	0.511	0.005
0.9107	0.441	0.004
1	0.353	0.004

System: dichloromethane + 1-butyl-3-methylimidazolium tetrafluoroborate; phases: Liquid
Fixed: Temperature, K = 298.15
Fixed: Pressure, kPa = 101
Property: Mass density, kg/m3 (Liquid); method: Vibrating tube method
Mole fraction of 1-butyl-3-methylimidazolium tetrafluoroborate	Mass density, kg/m3	uncertainty
0.00755	1316.6	0.18
0.01921	1314.92	0.19
0.02714	1313.4	0.19
0.03878	1311.8	0.19
0.07987	1304.97	0.22
0.1395	1294.06	0.32
0.194	1284.29	0.46
0.2674	1271.96	0.72
0.3355	1261.43	1.04
0.4787	1242.95	1.93
0.6019	1230.33	2.95
0.773	1216.18	4.75
0.8496	1211.19	5.71
0.9107	1207.46	6.54
1	1202.19	7.86

System: acetonitrile + 1-ethyl-3-methylimidazolium tetrafluoroborate; phases: Liquid
Fixed: Temperature, K = 298.15
Fixed: Pressure, kPa = 101
Property: Electrical conductivity, S/m (Liquid); method: Alternating current cell with electrodes
Mole fraction of 1-ethyl-3-methylimidazolium tetrafluoroborate	Electrical conductivity, S/m	uncertainty
0.01082	1.9	0.02
0.01646	2.55	0.03
0.02252	3.13	0.03
0.04929	4.89	0.05
0.08059	6.03	0.06
0.1218	6.72	0.07
0.1736	6.92	0.07
0.2371	6.65	0.07
0.3264	5.9	0.06
0.4565	4.64	0.05
0.652	3.1	0.03
0.8336	2.11	0.02
1	1.553	0.016

System: acetonitrile + 1-ethyl-3-methylimidazolium tetrafluoroborate; phases: Liquid
Fixed: Temperature, K = 298.15
Fixed: Pressure, kPa = 101
Property: Electrical conductivity, S/m (Liquid); method: Alternating current cell with electrodes
Mole fraction of 1-ethyl-3-methylimidazolium tetrafluoroborate	Electrical conductivity, S/m	uncertainty
0.008411	1.585	0.016
0.01528	2.46	0.03
0.02253	3.14	0.03
0.04942	4.94	0.05
0.1007	6.5	0.07
0.1433	6.94	0.07
0.2043	6.91	0.07
0.2778	6.41	0.06
0.384	5.41	0.05
0.4888	4.44	0.04
0.6478	3.2	0.03
0.759	2.54	0.03
0.8902	1.95	0.02
1	1.553	0.016

System: acetonitrile + 1-ethyl-3-methylimidazolium tetrafluoroborate; phases: Liquid
Fixed: Temperature, K = 298.15
Fixed: Pressure, kPa = 101
Property: Mass density, kg/m3 (Liquid); method: Vibrating tube method
Mole fraction of 1-ethyl-3-methylimidazolium tetrafluoroborate	Mass density, kg/m3	uncertainty
0.01082	795.48	0.15
0.01646	804.68	0.15
0.02252	814.3	0.15
0.04929	853.38	0.15
0.08059	893.87	0.16
0.1218	939.88	0.18
0.1736	988.57	0.2
0.2371	1038.16	0.22
0.3264	1093.25	0.27
0.4565	1153.25	0.38
0.652	1215.55	0.65
0.8336	1255.87	1.03
1	1283.7	1.47

System: acetonitrile + 1-ethyl-3-methylimidazolium tetrafluoroborate; phases: Liquid
Fixed: Temperature, K = 298.15
Fixed: Pressure, kPa = 101
Property: Mass density, kg/m3 (Liquid); method: Vibrating tube method
Mole fraction of 1-ethyl-3-methylimidazolium tetrafluoroborate	Mass density, kg/m3	uncertainty
0.008411	791.26	0.15
0.01528	802.59	0.15
0.02253	813.87	0.15
0.04942	854.17	0.16
0.1007	916.26	0.19
0.1433	960.07	0.23
0.2043	1012.5	0.33
0.2778	1063.36	0.56
0.384	1120.11	1.09
0.4888	1163.04	1.82
0.6478	1211.72	3.37
0.759	1237.95	4.8
0.8902	1263.01	6.87
1	1280.38	8.93

System: acetonitrile + 1-butyl-3-methylimidazolium hexafluorophosphate; phases: Liquid
Fixed: Temperature, K = 298.15
Fixed: Pressure, kPa = 101
Property: Electrical conductivity, S/m (Liquid); method: Alternating current cell with electrodes
Mole fraction of 1-butyl-3-methylimidazolium hexafluorophosphate	Electrical conductivity, S/m	uncertainty
0.007571	1.485	0.015
0.01576	2.54	0.03
0.02489	3.39	0.03
0.03448	4.05	0.04
0.05838	5	0.05
0.08779	5.39	0.05
0.1261	5.27	0.05
0.1772	4.68	0.05
0.2521	3.63	0.04
0.3649	2.3	0.02
0.5591	0.995	0.01
0.7291	0.469	0.005
0.8729	0.253	0.003
1	0.1469	0.0015

System: acetonitrile + 1-butyl-3-methylimidazolium hexafluorophosphate; phases: Liquid
Fixed: Temperature, K = 298.15
Fixed: Pressure, kPa = 101
Property: Mass density, kg/m3 (Liquid); method: Vibrating tube method
Mole fraction of 1-butyl-3-methylimidazolium hexafluorophosphate	Mass density, kg/m3	uncertainty
0.007571	795.63	0.15
0.01576	815.17	0.15
0.02489	835.56	0.15
0.03448	855.89	0.16
0.05838	901.77	0.17
0.08779	950.71	0.2
0.1261	1004.47	0.23
0.1772	1062.7	0.32
0.2521	1128.61	0.57
0.3649	1199.71	1.16
0.5591	1278.14	2.85
0.7291	1321.97	5.08
0.8729	1349.76	7.56
1	1368.32	10.22

System: acetonitrile + 1-hexyl-3-methylimidazolium tetrafluoroborate; phases: Liquid
Fixed: Temperature, K = 298.15
Fixed: Pressure, kPa = 101
Property: Electrical conductivity, S/m (Liquid); method: Alternating current cell with electrodes
Mole fraction of 1-hexyl-3-methylimidazolium tetrafluoroborate	Electrical conductivity, S/m	uncertainty
0.004117	0.838	0.008
0.008445	1.442	0.014
0.01744	2.35	0.02
0.03816	3.51	0.04
0.06486	4.13	0.04
0.09763	4.25	0.04
0.1399	3.96	0.04
0.1943	3.37	0.03
0.2712	2.53	0.03
0.3907	1.543	0.015
0.5902	0.656	0.007
0.7435	0.344	0.003
0.8889	0.192	0.002
1	0.1228	0.0012

System: acetonitrile + 1-hexyl-3-methylimidazolium tetrafluoroborate; phases: Liquid
Fixed: Temperature, K = 298.15
Fixed: Pressure, kPa = 101
Property: Mass density, kg/m3 (Liquid); method: Vibrating tube method
Mole fraction of 1-hexyl-3-methylimidazolium tetrafluoroborate	Mass density, kg/m3	uncertainty
0.004117	784.24	0.15
0.008445	791.63	0.15
0.01744	806.26	0.15
0.03816	836.42	0.15
0.06486	869.76	0.16
0.09763	903.86	0.18
0.1399	939.67	0.21
0.1943	975.94	0.28
0.2712	1014.86	0.47
0.3907	1056.74	0.97
0.5902	1100.45	2.3
0.7435	1122.12	3.77
0.8889	1137.2	5.53
1	1146.34	7.14
