Measured thermophysical data. Excess Molar Enthalpies of Five Binary Systems Containing Ethyl Acetoacetate at Different Temperatures
Source: J. Chem. Eng. Data, 2009, 10.1021/je800889y
Compound 1: ethyl 3-oxobutanoate, C6H10O3, InChI=1S/C6H10O3/c1-3-9-6(8)4-5(2)7/h3-4H2,1-2H3, purity 99.5%
Compound 2: butan-1-ol, C4H10O, InChI=1S/C4H10O/c1-2-3-4-5/h5H,2-4H2,1H3, purity 99.7%
Compound 3: butan-2-ol, C4H10O, InChI=1S/C4H10O/c1-3-4(2)5/h4-5H,3H2,1-2H3, purity 99.7%
Compound 4: pentan-1-ol, C5H12O, InChI=1S/C5H12O/c1-2-3-4-5-6/h6H,2-5H2,1H3, purity 99.7%
Compound 5: water, H2O, InChI=1S/H2O/h1H2, purity 99.9%
Compound 6: ethyl acetate, C4H8O2, InChI=1S/C4H8O2/c1-3-6-4(2)5/h3H2,1-2H3, purity 99.5%

System: butan-1-ol + ethyl 3-oxobutanoate; phases: Liquid
Fixed: Pressure, kPa = 101.3
Property: Excess molar enthalpy (molar enthalpy of mixing), kJ/mol (Liquid); method: Flow calorimetry
Temperature, K	Mole fraction of ethyl 3-oxobutanoate	Excess molar enthalpy (molar enthalpy of mixing), kJ/mol	uncertainty
298.15	0.1003	0.913	0.02
298.15	0.2002	1.408	0.031
298.15	0.3	1.707	0.037
298.15	0.3502	1.811	0.039
298.15	0.3999	1.877	0.04
298.15	0.45	1.92	0.041
298.15	0.5005	1.935	0.041
298.15	0.5501	1.92	0.041
298.15	0.5999	1.877	0.04
298.15	0.6499	1.802	0.039
298.15	0.7	1.688	0.036
298.15	0.8005	1.345	0.029
298.15	0.9007	0.767	0.018
313.15	0.1003	1.001	0.022
313.15	0.2002	1.564	0.034
313.15	0.3	1.938	0.042
313.15	0.3502	2.066	0.044
313.15	0.3999	2.154	0.046
313.15	0.45	2.221	0.048
313.15	0.5005	2.224	0.048
313.15	0.5501	2.192	0.047
313.15	0.5999	2.122	0.045
313.15	0.6499	2.017	0.043
313.15	0.7	1.863	0.04
313.15	0.8005	1.415	0.031
313.15	0.9007	0.799	0.018
328.15	0.1003	1.117	0.025
328.15	0.2002	1.812	0.039
328.15	0.3	2.254	0.048
328.15	0.3502	2.384	0.051
328.15	0.3999	2.471	0.053
328.15	0.45	2.512	0.054
328.15	0.5005	2.507	0.054
328.15	0.5501	2.466	0.053
328.15	0.5999	2.374	0.051
328.15	0.6499	2.245	0.048
328.15	0.7	2.065	0.044
328.15	0.8005	1.551	0.034
328.15	0.9007	0.841	0.019
338.15	0.1003	1.135	0.025
338.15	0.2002	1.861	0.04
338.15	0.3	2.313	0.049
338.15	0.3502	2.452	0.052
338.15	0.3999	2.533	0.054
338.15	0.45	2.575	0.055
338.15	0.5005	2.563	0.055
338.15	0.5501	2.509	0.053
338.15	0.5999	2.415	0.052
338.15	0.6499	2.271	0.049
338.15	0.7	2.078	0.045
338.15	0.8005	1.555	0.034
338.15	0.9007	0.842	0.019
348.15	0.1003	1.16	0.026
348.15	0.2002	1.901	0.041
348.15	0.3	2.352	0.05
348.15	0.3502	2.492	0.053
348.15	0.3999	2.575	0.055
348.15	0.45	2.607	0.056
348.15	0.5005	2.591	0.055
348.15	0.5501	2.531	0.054
348.15	0.5999	2.418	0.052
348.15	0.6499	2.272	0.049
348.15	0.7	2.082	0.045
348.15	0.8005	1.558	0.034
348.15	0.9007	0.847	0.02

System: butan-2-ol + ethyl 3-oxobutanoate; phases: Liquid
Fixed: Pressure, kPa = 101.3
Property: Excess molar enthalpy (molar enthalpy of mixing), kJ/mol (Liquid); method: Flow calorimetry
Temperature, K	Mole fraction of ethyl 3-oxobutanoate	Excess molar enthalpy (molar enthalpy of mixing), kJ/mol	uncertainty
298.15	0.1002	0.98	0.022
298.15	0.2008	1.519	0.033
298.15	0.3009	1.837	0.04
298.15	0.4011	2.019	0.043
298.15	0.4512	2.061	0.044
298.15	0.5017	2.075	0.045
298.15	0.5512	2.059	0.044
298.15	0.6009	2.008	0.043
298.15	0.6507	1.925	0.041
298.15	0.7007	1.801	0.039
298.15	0.8005	1.415	0.031
298.15	0.8999	0.805	0.018
313.15	0.1002	1.126	0.025
313.15	0.1997	1.76	0.038
313.15	0.2998	2.164	0.046
313.15	0.3999	2.38	0.051
313.15	0.45	2.438	0.052
313.15	0.5004	2.439	0.052
313.15	0.5499	2.408	0.051
313.15	0.5995	2.324	0.05
313.15	0.6493	2.207	0.047
313.15	0.7007	2.034	0.044
313.15	0.8005	1.548	0.034
313.15	0.8999	0.872	0.02
328.15	0.1002	1.2	0.027
328.15	0.1997	1.938	0.042
328.15	0.2998	2.375	0.051
328.15	0.3999	2.608	0.056
328.15	0.45	2.641	0.056
328.15	0.5004	2.632	0.056
328.15	0.5499	2.579	0.055
328.15	0.5995	2.475	0.053
328.15	0.6493	2.329	0.05
328.15	0.7007	2.12	0.045
328.15	0.8005	1.59	0.035
328.15	0.8999	0.882	0.02
338.15	0.1002	1.225	0.027
338.15	0.1997	1.974	0.043
338.15	0.2998	2.44	0.052
338.15	0.3999	2.666	0.057
338.15	0.45	2.702	0.058
338.15	0.5004	2.681	0.057
338.15	0.5499	2.61	0.056
338.15	0.5995	2.5	0.053
338.15	0.6493	2.335	0.05
338.15	0.7007	2.124	0.046
338.15	0.8005	1.594	0.035
338.15	0.8999	0.885	0.02
348.15	0.1002	1.229	0.027
348.15	0.1997	1.983	0.043
348.15	0.2998	2.442	0.052
348.15	0.3999	2.673	0.057
348.15	0.45	2.709	0.058
348.15	0.5004	2.693	0.057
348.15	0.5499	2.618	0.056
348.15	0.5995	2.512	0.054
348.15	0.6493	2.342	0.05
348.15	0.7007	2.125	0.046
348.15	0.8005	1.601	0.035
348.15	0.8999	0.889	0.02

System: pentan-1-ol + ethyl 3-oxobutanoate; phases: Liquid
Fixed: Pressure, kPa = 101.3
Property: Excess molar enthalpy (molar enthalpy of mixing), kJ/mol (Liquid); method: Flow calorimetry
Temperature, K	Mole fraction of ethyl 3-oxobutanoate	Excess molar enthalpy (molar enthalpy of mixing), kJ/mol	uncertainty
298.15	0.0998	0.913	0.02
298.15	0.1996	1.384	0.03
298.15	0.3006	1.711	0.037
298.15	0.3505	1.809	0.039
298.15	0.4001	1.879	0.04
298.15	0.4504	1.926	0.041
298.15	0.5003	1.945	0.042
298.15	0.5498	1.939	0.042
298.15	0.6	1.904	0.041
298.15	0.6497	1.842	0.04
298.15	0.7002	1.744	0.038
298.15	0.7995	1.431	0.031
298.15	0.9004	0.851	0.019
313.15	0.0998	1.05	0.023
313.15	0.1996	1.669	0.036
313.15	0.3006	2.052	0.044
313.15	0.3505	2.181	0.047
313.15	0.4001	2.265	0.049
313.15	0.4504	2.318	0.05
313.15	0.5003	2.332	0.05
313.15	0.5498	2.307	0.049
313.15	0.6	2.258	0.048
313.15	0.6497	2.164	0.046
313.15	0.7002	2.02	0.043
313.15	0.7995	1.593	0.035
313.15	0.9004	0.898	0.021
328.15	0.0998	1.125	0.025
328.15	0.1996	1.854	0.04
328.15	0.3006	2.301	0.049
328.15	0.3505	2.456	0.052
328.15	0.4001	2.545	0.054
328.15	0.4504	2.598	0.055
328.15	0.5003	2.603	0.056
328.15	0.5498	2.56	0.055
328.15	0.6	2.492	0.053
328.15	0.6497	2.355	0.05
328.15	0.7002	2.181	0.047
328.15	0.7995	1.666	0.036
328.15	0.9004	0.928	0.021
338.15	0.0998	1.181	0.026
338.15	0.1996	1.924	0.042
338.15	0.3006	2.39	0.051
338.15	0.3505	2.535	0.054
338.15	0.4001	2.632	0.056
338.15	0.4504	2.682	0.057
338.15	0.5003	2.683	0.057
338.15	0.5498	2.634	0.056
338.15	0.6	2.541	0.054
338.15	0.6497	2.396	0.051
338.15	0.7002	2.201	0.047
338.15	0.7995	1.669	0.036
338.15	0.9004	0.93	0.021
348.15	0.0998	1.184	0.026
348.15	0.1996	1.928	0.042
348.15	0.3006	2.393	0.051
348.15	0.3505	2.537	0.054
348.15	0.4001	2.644	0.056
348.15	0.4504	2.695	0.057
348.15	0.5003	2.694	0.057
348.15	0.5498	2.644	0.056
348.15	0.6	2.551	0.054
348.15	0.6497	2.404	0.051
348.15	0.7002	2.206	0.047
348.15	0.7995	1.67	0.036
348.15	0.9004	0.933	0.021

System: ethyl 3-oxobutanoate + water; phases: Liquid
Fixed: Pressure, kPa = 101.3
Property: Excess molar enthalpy (molar enthalpy of mixing), kJ/mol (Liquid); method: Flow calorimetry
Temperature, K	Mole fraction of ethyl 3-oxobutanoate	Excess molar enthalpy (molar enthalpy of mixing), kJ/mol	uncertainty
298.15	0.1502	0.175	0.005
298.15	0.2994	0.428	0.01
298.15	0.4491	0.684	0.015
298.15	0.6014	0.923	0.02
298.15	0.7001	1.078	0.024
298.15	0.7514	1.128	0.024
298.15	0.8474	0.87	0.019
298.15	0.9034	0.6	0.014
298.15	0.9496	0.32	0.009
313.15	0.1502	0.276	0.007
313.15	0.2994	0.597	0.013
313.15	0.4491	0.92	0.02
313.15	0.6014	1.232	0.027
313.15	0.7001	1.401	0.03
313.15	0.7514	1.32	0.028
313.15	0.8474	0.998	0.022
313.15	0.9034	0.696	0.016
313.15	0.9496	0.385	0.011
328.15	0.1502	0.386	0.009
328.15	0.2994	0.783	0.017
328.15	0.4491	1.185	0.026
328.15	0.6014	1.57	0.034
328.15	0.7001	1.584	0.034
328.15	0.7514	1.466	0.032
328.15	0.8474	1.074	0.024
328.15	0.9034	0.736	0.017
328.15	0.9496	0.39	0.011
338.15	0.1502	0.472	0.011
338.15	0.2994	0.929	0.02
338.15	0.4491	1.398	0.03
338.15	0.6014	1.823	0.039
338.15	0.6499	1.787	0.038
338.15	0.7001	1.698	0.036
338.15	0.7514	1.564	0.034
338.15	0.797	1.383	0.03
338.15	0.9034	0.778	0.018
348.15	0.1502	0.558	0.013
348.15	0.2994	1.087	0.024
348.15	0.4491	1.616	0.035
348.15	0.6014	1.932	0.041
348.15	0.6499	1.892	0.04
348.15	0.7001	1.786	0.038
348.15	0.7514	1.615	0.035
348.15	0.797	1.412	0.031
348.15	0.9034	0.786	0.018

System: ethyl acetate + ethyl 3-oxobutanoate; phases: Liquid
Fixed: Pressure, kPa = 101.3
Property: Excess molar enthalpy (molar enthalpy of mixing), kJ/mol (Liquid); method: Flow calorimetry
Temperature, K	Mole fraction of ethyl 3-oxobutanoate	Excess molar enthalpy (molar enthalpy of mixing), kJ/mol	uncertainty
298.15	0.1005	0.025	0.001
298.15	0.1995	0.041	0.001
298.15	0.2996	0.052	0.002
298.15	0.3495	0.054	0.002
298.15	0.3995	0.056	0.002
298.15	0.4496	0.057	0.002
298.15	0.4998	0.056	0.002
298.15	0.55	0.055	0.002
298.15	0.6001	0.052	0.002
298.15	0.6502	0.049	0.002
298.15	0.7001	0.046	0.001
298.15	0.7994	0.035	0.001
298.15	0.9004	0.019	0.001
313.15	0.1005	0.025	0.001
313.15	0.1995	0.042	0.001
313.15	0.2996	0.053	0.002
313.15	0.3495	0.057	0.002
313.15	0.3995	0.059	0.002
313.15	0.4496	0.061	0.002
313.15	0.4998	0.061	0.002
313.15	0.55	0.06	0.002
313.15	0.6001	0.058	0.002
313.15	0.6502	0.056	0.002
313.15	0.7001	0.052	0.002
313.15	0.7994	0.042	0.001
313.15	0.9004	0.028	0.001
328.15	0.1005	0.021	0.001
328.15	0.1995	0.035	0.001
328.15	0.2996	0.044	0.001
328.15	0.3495	0.047	0.002
328.15	0.3995	0.048	0.002
328.15	0.4496	0.049	0.002
328.15	0.4998	0.048	0.002
328.15	0.55	0.047	0.002
328.15	0.6001	0.044	0.001
328.15	0.6502	0.041	0.001
328.15	0.7001	0.037	0.001
328.15	0.7994	0.027	0.001
328.15	0.9004	0.018	0.001
338.15	0.1005	0.019	0.001
338.15	0.1995	0.033	0.001
338.15	0.2996	0.041	0.001
338.15	0.3495	0.044	0.001
338.15	0.3995	0.046	0.001
338.15	0.4496	0.047	0.002
338.15	0.4998	0.046	0.001
338.15	0.55	0.045	0.001
338.15	0.6001	0.043	0.001
338.15	0.6502	0.041	0.001
338.15	0.7001	0.037	0.001
338.15	0.7994	0.029	0.001
338.15	0.9004	0.017	0.001
348.15	0.1005	0.017	0.001
348.15	0.1995	0.029	0.001
348.15	0.2996	0.036	0.001
348.15	0.3495	0.039	0.001
348.15	0.3995	0.041	0.001
348.15	0.4496	0.042	0.001
348.15	0.4998	0.042	0.001
348.15	0.55	0.041	0.001
348.15	0.6001	0.039	0.001
348.15	0.6502	0.038	0.001
348.15	0.7001	0.035	0.001
348.15	0.7994	0.027	0.001
348.15	0.9004	0.017	0.001
