Measured thermophysical data. Temperature Dependence of Speeds of Sound for Solutions of Some Tetraalkylammonium Bromides in H2O and D2O at Temperatures in the Range (283.15 to 338.15) K
Source: J. Chem. Eng. Data, 2009, 10.1021/je800908h
Compound 1: tetramethylammonium bromide, C4H12BrN, InChI=1S/C4H12N.BrH/c1-5(2,3)4;/h1-4H3;1H/q+1;/p-1
Compound 2: tetrabutylammonium bromide, C16H36BrN, InChI=1S/C16H36N.BrH/c1-5-9-13-17(14-10-6-2,15-11-7-3)16-12-8-4;/h5-16H2,1-4H3;1H/q+1;/p-1
Compound 3: water, H2O, InChI=1S/H2O/h1H2
Compound 4: water-d2, D2O, InChI=1S/H2O/h1H2/i/hD2, purity 99.9%

System: tetramethylammonium bromide + water; phases: Liquid
Fixed: Pressure, kPa = 101
Property: Speed of sound, m/s (Liquid); method: Linear variable-path acoustic interferometer
Molality, mol/kg of tetramethylammonium bromide	Temperature, K	Speed of sound, m/s	uncertainty
0.05	283.15	1451	1.7
0.05	298.15	1499.7	1.8
0.05	318.15	1538.7	1.9
0.05	338.15	1555.6	1.8
0.075	283.15	1452.9	1.7
0.075	298.15	1500.3	1.7
0.075	318.15	1540	1.8
0.075	338.15	1556.2	1.8
0.1	283.15	1455	1.7
0.1	298.15	1502.5	1.7
0.1	318.15	1541.1	1.8
0.1	338.15	1556.9	1.8
0.2	283.15	1462.1	1.7
0.2	298.15	1508.1	1.7
0.2	318.15	1545.8	1.8
0.2	338.15	1560.9	1.8
0.3	283.15	1469.5	1.7
0.3	298.15	1513.7	1.8
0.3	318.15	1550.4	1.8
0.3	338.15	1564.6	1.8
0.5	283.15	1483.1	1.7
0.5	298.15	1524.7	1.8
0.5	318.15	1559.3	1.8
0.5	338.15	1571	1.8
0.75	283.15	1499.8	1.7
0.75	298.15	1537.9	1.8
0.75	318.15	1569.3	1.8
0.75	338.15	1579.2	1.8
1	283.15	1515.7	1.8
1	298.15	1550.8	1.8
1	318.15	1578.6	1.8
1	338.15	1587.3	1.8
1.5	283.15	1544.7	1.8
1.5	298.15	1575.1	1.8
1.5	318.15	1596.6	1.8
1.5	338.15	1602	1.8
2	283.15	1571.1	1.8
2	298.15	1597.2	1.8
2	318.15	1613.1	1.8
2	338.15	1615.7	1.8
2.5	283.15	1595.4	1.8
2.5	298.15	1617	1.8
2.5	318.15	1628.8	1.8
2.5	338.15	1628.9	1.8
3	283.15	1617.4	1.8
3	298.15	1633.7	1.9
3	318.15	1644.7	1.9
3	338.15	1641.3	1.9

System: tetramethylammonium bromide + water-d2; phases: Liquid
Fixed: Pressure, kPa = 101
Property: Speed of sound, m/s (Liquid); method: Linear variable-path acoustic interferometer
Molality, mol/kg of tetramethylammonium bromide	Temperature, K	Speed of sound, m/s	uncertainty
0.05	283.15	1352	1.7
0.05	298.15	1403	1.9
0.05	318.15	1443.9	1.9
0.05	338.15	1462.3	1.7
0.075	283.15	1354.7	1.7
0.075	298.15	1405.2	1.7
0.075	318.15	1445.4	1.7
0.075	338.15	1463.6	1.8
0.1	283.15	1357.5	1.7
0.1	298.15	1407.4	1.7
0.1	318.15	1447.1	1.7
0.1	338.15	1465.1	1.7
0.2	283.15	1366.7	2
0.2	298.15	1414.7	1.7
0.2	318.15	1452.9	1.7
0.2	338.15	1469.8	1.9
0.3	283.15	1376.5	1.7
0.3	298.15	1422.2	1.7
0.3	318.15	1458.6	1.7
0.3	338.15	1474.5	1.7
0.5	283.15	1393.7	1.7
0.5	298.15	1436.4	1.7
0.5	318.15	1469.8	1.7
0.5	338.15	1484.1	1.7
0.75	283.15	1414.4	1.7
0.75	298.15	1453.8	1.7
0.75	318.15	1483.7	1.7
0.75	338.15	1495.7	1.7
1	283.15	1433.4	1.7
1	298.15	1470.2	1.7
1	318.15	1496.9	1.7
1	338.15	1506.9	1.8
1.5	283.15	1469.8	1.7
1.5	298.15	1500.5	1.8
1.5	318.15	1521.2	1.8
1.5	338.15	1527.4	1.8
2	283.15	1502.4	1.8
2	298.15	1528	1.8
2	318.15	1543.6	1.8
2	338.15	1546.4	1.8
2.5	283.15	1532.1	1.8
2.5	298.15	1552.9	1.8
2.5	318.15	1564.3	1.8
2.5	338.15	1564.2	1.8
3	283.15	1560.4	1.8
3	298.15	1575.5	1.8
3	318.15	1583.5	1.8
3	338.15	1580.8	1.8

System: tetrabutylammonium bromide + water; phases: Liquid
Fixed: Pressure, kPa = 101
Property: Speed of sound, m/s (Liquid); method: Linear variable-path acoustic interferometer
Molality, mol/kg of tetrabutylammonium bromide	Temperature, K	Speed of sound, m/s	uncertainty
0.05	283.15	1463	1.8
0.05	298.15	1508.4	2
0.05	318.15	1544.6	2
0.05	338.15	1558.6	1.8
0.075	283.15	1470.4	1.9
0.075	298.15	1514.2	1.8
0.075	318.15	1548.4	1.8
0.075	338.15	1561.2	1.8
0.1	283.15	1477.8	1.8
0.1	298.15	1520.2	1.8
0.1	318.15	1552.9	1.8
0.1	338.15	1564.2	1.8
0.2	283.15	1506.2	2.4
0.2	298.15	1541.4	1.8
0.2	318.15	1567.4	1.8
0.2	338.15	1573.6	1.8
0.3	283.15	1532.5	1.8
0.3	298.15	1561	1.8
0.3	318.15	1580.7	1.8
0.3	338.15	1582.4	1.8
0.5	283.15	1579	1.9
0.5	298.15	1596.3	1.9
0.5	318.15	1604.7	1.8
0.5	338.15	1597	1.8
0.75	283.15	1628.2	1.9
0.75	298.15	1632.7	1.9
0.75	318.15	1627.3	1.9
0.75	338.15	1610.3	1.9
1	283.15	1667.1	1.9
1	298.15	1661.2	1.9
1	318.15	1644.1	1.9
1	338.15	1619.5	1.9
1.5	283.15	1718.2	2
1.5	298.15	1697.4	2
1.5	318.15	1663.3	2
1.5	338.15	1626.6	1.9
2	283.15	1743.4	2.1
2	298.15	1713.7	2
2	318.15	1669.5	2
2	338.15	1625	2
2.5	283.15	1752.2	2.1
2.5	298.15	1718	2.1
2.5	318.15	1668.5	2.1
2.5	338.15	1619.5	2
3	283.15	1753.9	2.1
3	298.15	1717.6	2.1
3	318.15	1668.3	2.1
3	338.15	1615.4	2.1

System: tetrabutylammonium bromide + water-d2; phases: Liquid
Fixed: Pressure, kPa = 101
Property: Speed of sound, m/s (Liquid); method: Linear variable-path acoustic interferometer
Molality, mol/kg of tetrabutylammonium bromide	Temperature, K	Speed of sound, m/s	uncertainty
0.05	283.15	1366.8	1.8
0.05	298.15	1414	2
0.05	318.15	1451.5	2
0.05	338.15	1466.8	1.7
0.075	283.15	1375.9	3.5
0.075	298.15	1421.1	1.8
0.075	318.15	1456.5	1.8
0.075	338.15	1470.5	1.7
0.1	283.15	1384.4	1.8
0.1	298.15	1427.4	1.8
0.1	318.15	1461.4	1.8
0.1	338.15	1474.3	1.7
0.2	283.15	1419.1	1.8
0.2	298.15	1453.9	1.8
0.2	318.15	1479.9	1.8
0.2	338.15	1486.6	1.8
0.3	283.15	1450.2	1.8
0.3	298.15	1478.2	1.8
0.3	318.15	1497.1	1.8
0.3	338.15	1498.1	1.8
0.5	283.15	1506	1.8
0.5	298.15	1519.9	1.8
0.5	318.15	1525.8	1.8
0.5	338.15	1518.2	1.8
0.75	283.15	1562.5	1.9
0.75	298.15	1562.4	1.9
0.75	318.15	1554.8	1.8
0.75	338.15	1536.6	1.8
1	283.15	1605.4	1.9
1	298.15	1594.2	1.9
1	318.15	1576.2	1.9
1	338.15	1550.2	1.9
1.5	283.15	1658.6	2
1.5	298.15	1634.9	2
1.5	318.15	1601	1.9
1.5	338.15	1563.5	1.9
2	283.15	1680.5	2
2	298.15	1652.1	2
2	318.15	1610	2
2	338.15	1566.4	2
2.5	283.15	1686.3	2.1
2.5	298.15	1657	2.1
2.5	318.15	1611.3	2
2.5	338.15	1563.7	2
3	283.15	1688.9	2.1
3	298.15	1661.4	2.1
3	318.15	1615.2	2.1
3	338.15	1564	2.1
