Measured thermophysical data. Enthalpy of Dilution of Aqueous [C4mim][Gly] at 298.15 K
Source: J. Chem. Eng. Data, 2009, 10.1021/je8009539
Compound 1: 1-butyl-3-methylimidazolium glycinate, C10H19N3O2, InChI=1S/C8H15N2.C2H5NO2/c1-3-4-5-10-7-6-9(2)8-10;3-1-2(4)5/h6-8H,3-5H2,1-2H3;1,3H2,(H,4,5)/q+1;/p-1
Compound 2: water, H2O, InChI=1S/H2O/h1H2

System: 1-butyl-3-methylimidazolium glycinate; phases: Glass, Liquid, Air at 1 atmosphere
Property: Triple point temperature, K (Glass); method: DTA
Triple point temperature, K	uncertainty
230.85	3

System: water + 1-butyl-3-methylimidazolium glycinate; phases: Liquid
Fixed: Temperature, K = 298.15
Fixed: Pressure, kPa = 101.3
Property: Molar enthalpy of dilution, kJ/mol (Liquid); method: Heat conduction microcalorimeter
Initial molality of solute, mol/kg	Final molality of solute, mol/kg	Molar enthalpy of dilution, kJ/mol	uncertainty
3.6583	0.1427	-8.232	0.073
3.3535	0.1357	-7.369	0.073
3.0403	0.1282	-6.391	0.069
2.738	0.12	-5.521	0.057
2.4575	0.1112	-4.914	0.059
2.3031	0.1065	-4.313	0.085
2.1528	0.1017	-4.072	0.06
1.9008	0.0936	-3.321	0.049
1.7189	0.0861	-3.02	0.068
1.4568	0.0764	-2.356	0.098
1.2612	0.0675	-2.083	0.052
1.041	0.0564	-1.591	0.088
0.7932	0.0461	-1.204	0.027
0.5322	0.0393	-0.796	0.052
