Measured thermophysical data. In Situ Determination of Phase Equilibria of Methyl Benzoate + Alkane Mixtures Using an Infrared Absorption Method. Comparison with Polar GC-SAFT Predictions
Source: J. Chem. Eng. Data, 2009, 10.1021/je800757j
Compound 1: methyl benzoate, C8H8O2, InChI=1S/C8H8O2/c1-10-8(9)7-5-3-2-4-6-7/h2-6H,1H3
Compound 2: butane, C4H10, InChI=1S/C4H10/c1-3-4-2/h3-4H2,1-2H3
Compound 3: pentane, C5H12, InChI=1S/C5H12/c1-3-5-4-2/h3-5H2,1-2H3
Compound 4: hexane, C6H14, InChI=1S/C6H14/c1-3-5-6-4-2/h3-6H2,1-2H3
Compound 5: heptane, C7H16, InChI=1S/C7H16/c1-3-5-7-6-4-2/h3-7H2,1-2H3

System: butane; phases: Liquid, Gas
Property: Vapor or sublimation pressure, kPa (Liquid); method: CCELL:UFactor:8
Temperature, K	Vapor or sublimation pressure, kPa	uncertainty
353.15	1039	27
373.15	1586	39
393.15	2265	56
413.15	3156	78

System: pentane; phases: Liquid, Gas
Property: Vapor or sublimation pressure, kPa (Liquid); method: CCELL:UFactor:8
Temperature, K	Vapor or sublimation pressure, kPa	uncertainty
373.15	600	20
423.15	1620	40

System: hexane; phases: Liquid, Gas
Property: Vapor or sublimation pressure, kPa (Liquid); method: CCELL:UFactor:8
Temperature, K	Vapor or sublimation pressure, kPa	uncertainty
393.15	410	17
413.15	633	20
433.15	918	25
453.15	1301	33

System: heptane; phases: Liquid, Gas
Property: Vapor or sublimation pressure, kPa (Liquid); method: CCELL:UFactor:8
Temperature, K	Vapor or sublimation pressure, kPa	uncertainty
433.15	477	18
443.15	587	19
453.15	703	21

System: methyl benzoate + butane; phases: Liquid, Gas
Property: Vapor or sublimation pressure, kPa (Liquid); method: CCELL:UFactor:8
Temperature, K	Mole fraction of butane	Vapor or sublimation pressure, kPa	uncertainty
353.15	0.1321	245	16
353.15	0.1686	324	17
353.15	0.2393	455	19
353.15	0.3485	598	21
353.15	0.4386	698	22
353.15	0.5898	789	24
353.15	0.6944	841	25
353.15	0.7721	878	26
353.15	0.813	912	28
353.15	1	1039	27
373.15	0.1332	335	17
373.15	0.1685	415	19
373.15	0.2294	561	22
373.15	0.3273	793	27
373.15	0.4223	967	28
373.15	0.5646	1124	31
373.15	0.6876	1215	33
373.15	0.7684	1293	36
373.15	0.8172	1335	39
373.15	1	1586	39
393.15	0.135	414	19
393.15	0.1644	517	22
393.15	0.2198	723	26
393.15	0.3067	982	32
393.15	0.3983	1236	36
393.15	0.5458	1509	41
393.15	0.6778	1673	46
393.15	0.764	1804	51
393.15	0.8141	1876	56
393.15	1	2265	56
413.15	0.1368	500	22
413.15	0.1645	628	24
413.15	0.2189	845	30
413.15	0.3	1176	38
413.15	0.3937	1517	45
413.15	0.5555	1974	56
413.15	0.6855	2226	63
413.15	0.7756	2463	73
413.15	0.827	2582	83
413.15	1	3156	78

System: methyl benzoate + pentane; phases: Liquid, Gas
Property: Vapor or sublimation pressure, kPa (Liquid); method: CCELL:UFactor:8
Temperature, K	Mole fraction of pentane	Vapor or sublimation pressure, kPa	uncertainty
373.15	0.17	221	15
373.15	0.2896	283	15
373.15	0.4777	394	17
373.15	0.5972	428	17
373.15	0.7851	481	18
373.15	0.792	495	18
373.15	0.84	512	18
373.15	0.8442	522	18
373.15	1	600	20
393.15	0.1803	332	16
393.15	0.3001	441	17
393.15	0.4808	578	19
393.15	0.5957	637	20
393.15	0.8349	772	23
423.15	0.1972	507	18
423.15	0.3189	691	21
423.15	0.4974	949	26
423.15	0.6111	1059	28
423.15	0.8427	1349	34
423.15	0.8471	1364	34
423.15	1	1620	40
453.15	0.2057	738	22
453.15	0.3119	979	26
453.15	0.4974	1425	36
453.15	0.6093	1630	41
453.15	0.8443	2114	53
453.15	0.845	2133	53

System: methyl benzoate + hexane; phases: Liquid, Gas
Property: Vapor or sublimation pressure, kPa (Liquid); method: CCELL:UFactor:8
Temperature, K	Mole fraction of hexane	Vapor or sublimation pressure, kPa	uncertainty
393.15	0.0884	92	14
393.15	0.1621	136	14
393.15	0.3089	204	15
393.15	0.4736	260	16
393.15	0.6648	320	16
393.15	0.8611	365	17
393.15	1	410	17
413.15	0.0962	139	14
413.15	0.172	203	15
413.15	0.3274	324	16
413.15	0.498	392	17
413.15	0.6842	484	19
413.15	0.8669	569	21
413.15	1	633	20
433.15	0.1061	209	15
433.15	0.1771	293	16
433.15	0.3306	427	18
433.15	0.4973	551	20
433.15	0.68	685	23
433.15	0.8661	830	27
433.15	1	918	25
453.15	0.115	314	16
453.15	0.1841	406	17
453.15	0.3314	594	21
453.15	0.4967	761	25
453.15	0.6781	971	30
453.15	0.8651	1149	35
453.15	1	1301	33

System: methyl benzoate + heptane; phases: Liquid, Gas
Property: Vapor or sublimation pressure, kPa (Liquid); method: CCELL:UFactor:8
Temperature, K	Mole fraction of heptane	Vapor or sublimation pressure, kPa	uncertainty
433.15	0.3173	255	15
433.15	0.5012	307	16
433.15	0.679	369	17
433.15	0.8942	440	18
433.15	1	477	18
443.15	0.3202	298	16
443.15	0.5004	367	17
443.15	0.6783	440	18
443.15	0.8932	527	20
443.15	1	587	19
453.15	0.33	357	17
453.15	0.499	443	18
453.15	0.6774	532	20
453.15	0.894	645	22
453.15	1	703	21
