Measured thermophysical data. Synthesis and Physical Properties of 1-Ethyl 3-methylpyridinium Ethylsulfate and Its Binary Mixtures with Ethanol and Water at Several Temperatures
Source: J. Chem. Eng. Data, 2008, 10.1021/je800159w
Compound 1: ethanol, C2H6O, InChI=1S/C2H6O/c1-2-3/h3H,2H2,1H3
Compound 2: water, H2O, InChI=1S/H2O/h1H2
Compound 3: 1-ethyl-3-methylpyridinium ethylsulfate, C10H17NO4S, InChI=1S/C8H12N.C2H6O4S/c1-3-9-6-4-5-8(2)7-9;1-2-6-7(3,4)5/h4-7H,3H2,1-2H3;2H2,1H3,(H,3,4,5)/q+1;/p-1

System: ethanol; phases: Liquid
Property: Refractive index (Na D-line) (Liquid); method: Standard Abbe refractometry
Temperature, K	Pressure, kPa	Refractive index (Na D-line)	uncertainty
298.15	101.325	1.36023	0.00031

System: ethanol; phases: Liquid
Fixed: Pressure, kPa = 101
Property: Viscosity, Pa*s (Liquid); method: CAPTUB::UFactor:8
Temperature, K	Viscosity, Pa*s	uncertainty
298.15	0.001082	0.000403
313.15	0.000827	0.000402
328.15	0.000641	0.000401

System: ethanol; phases: Liquid
Fixed: Pressure, kPa = 101
Property: Mass density, kg/m3 (Liquid); method: VIBTUB:UFactor:12
Temperature, K	Mass density, kg/m3	uncertainty
298.15	785.46	1.38
313.15	772	1.45
328.15	758.55	1.51

System: 1-ethyl-3-methylpyridinium ethylsulfate; phases: Liquid
Fixed: Pressure, kPa = 101.325
Property: Viscosity, Pa*s (Liquid); method: CAPTUB:UFactor:8
Temperature, K	Viscosity, Pa*s	uncertainty
298.15	0.1614	0.0259
303.15	0.1236	0.0154
308.15	0.0969	0.0089
313.15	0.0771	0.0048
318.15	0.0622	0.0021
323.15	0.05055	0.00086
328.15	0.04232	0.00151
333.15	0.03552	0.00128
338.15	0.03011	0.00109
343.15	0.02569	0.00096

System: 1-ethyl-3-methylpyridinium ethylsulfate; phases: Liquid
Fixed: Pressure, kPa = 101.325
Property: Refractive index (Na D-line) (Liquid); method: Standard Abbe refractometry
Temperature, K	Refractive index (Na D-line)	uncertainty
298.15	1.50666	0.00068
303.15	1.50525	0.00068
308.15	1.50386	0.00068
313.15	1.50246	0.00068
318.15	1.50106	0.00068
323.15	1.49965	0.00068
328.15	1.49825	0.00068
333.15	1.49683	0.00068
338.15	1.4954	0.00068
343.15	1.49361	0.00068

System: 1-ethyl-3-methylpyridinium ethylsulfate; phases: Liquid
Fixed: Pressure, kPa = 101.325
Property: Mass density, kg/m3 (Liquid); method: VIBTUB:UFactor:12
Temperature, K	Mass density, kg/m3	uncertainty
298.15	1222.26	4.2
303.15	1219.02	4.17
308.15	1215.78	4.14
313.15	1212.54	4.11
318.15	1209.39	4.09
323.15	1206.13	4.06
328.15	1202.86	4.03
333.15	1199.63	4
338.15	1196.43	3.97
343.15	1193.25	3.94

System: ethanol + 1-ethyl-3-methylpyridinium ethylsulfate; phases: Liquid
Fixed: Pressure, kPa = 101
Fixed: Temperature, K = 298.15
Property: Refractive index (Na D-line) (Liquid); method: Standard Abbe refractometry
Mole fraction of ethanol	Refractive index (Na D-line)	uncertainty
0.0609	1.50392	0.00065
0.1108	1.50181	0.00062
0.2066	1.4973	0.00058
0.3083	1.49126	0.00053
0.4004	1.48469	0.00049
0.4998	1.476	0.00045
0.6034	1.46448	0.00041
0.7034	1.45003	0.00038
0.8452	1.41977	0.00034
0.9389	1.38864	0.00032
1	1.36023	0.00031

System: ethanol + 1-ethyl-3-methylpyridinium ethylsulfate; phases: Liquid
Fixed: Pressure, kPa = 101
Property: Viscosity, Pa*s (Liquid); method: CAPTUB:UFactor:8
Temperature, K	Mole fraction of ethanol	Viscosity, Pa*s	uncertainty
298.15	0.0609	0.1167	0.0136
298.15	0.1108	0.0969	0.0089
298.15	0.2066	0.068	0.003
298.15	0.3083	0.04535	0.00155
298.15	0.4004	0.03111	0.00107
298.15	0.4998	0.02004	0.00076
298.15	0.6034	0.01217	0.000572
298.15	0.7034	0.007452	0.000483
298.15	0.8452	0.003322	0.000422
298.15	0.9389	0.001812	0.000407
298.15	1	0.001082	0.000403
313.15	0.0609	0.0552	0.0011
313.15	0.1108	0.04857	0.0017
313.15	0.2066	0.03625	0.00126
313.15	0.3083	0.02591	0.00093
313.15	0.4004	0.01888	0.00074
313.15	0.4998	0.012922	0.000591
313.15	0.6034	0.008317	0.000498
313.15	0.7034	0.005332	0.000451
313.15	0.8452	0.002502	0.000413
313.15	0.9389	0.001388	0.000405
313.15	1	0.000827	0.000402
328.15	0.0609	0.0312	0.00112
328.15	0.1108	0.02812	0.00101
328.15	0.2066	0.02186	0.00083
328.15	0.3083	0.01641	0.00068
328.15	0.4004	0.012518	0.000585
328.15	0.4998	0.008971	0.000512
328.15	0.6034	0.006023	0.000462
328.15	0.7034	0.00399	0.000431
328.15	0.8452	0.001943	0.000408
328.15	0.9389	0.001086	0.000403
328.15	1	0.000641	0.000401

System: ethanol + 1-ethyl-3-methylpyridinium ethylsulfate; phases: Liquid
Fixed: Pressure, kPa = 101
Property: Mass density, kg/m3 (Liquid); method: VIBTUB:UFactor:12
Temperature, K	Mole fraction of ethanol	Mass density, kg/m3	uncertainty
298.15	0.0609	1214.93	3.8
298.15	0.1108	1208.33	3.51
298.15	0.2066	1193.93	2.98
298.15	0.3083	1175.71	2.47
298.15	0.4004	1155.73	2.05
298.15	0.4998	1129.53	1.64
298.15	0.6034	1094.96	1.24
298.15	0.7034	1051.68	0.86
298.15	0.8452	961.67	0.64
298.15	0.9389	870.77	1
298.15	1	785.46	1.38
313.15	0.0609	1205.03	3.72
313.15	0.1108	1198.38	3.43
313.15	0.2066	1183.86	2.91
313.15	0.3083	1165.53	2.4
313.15	0.4004	1145.51	1.99
313.15	0.4998	1119.07	1.58
313.15	0.6034	1084.3	1.18
313.15	0.7034	1040.72	0.81
313.15	0.8452	950.09	0.69
313.15	0.9389	858.52	1.06
313.15	1	772	1.45
328.15	0.0609	1195.2	3.63
328.15	0.1108	1188.52	3.35
328.15	0.2066	1173.91	2.83
328.15	0.3083	1155.46	2.34
328.15	0.4004	1135.36	1.93
328.15	0.4998	1108.74	1.52
328.15	0.6034	1073.73	1.12
328.15	0.7034	1029.83	0.75
328.15	0.8452	938.48	0.74
328.15	0.9389	846.1	1.12
328.15	1	758.55	1.51

System: water + 1-ethyl-3-methylpyridinium ethylsulfate; phases: Liquid
Fixed: Pressure, kPa = 101
Fixed: Temperature, K = 298.15
Property: Refractive index (Na D-line) (Liquid); method: Standard Abbe refractometry
Mole fraction of water	Refractive index (Na D-line)	uncertainty
0.0526	1.50583	0.00065
0.1412	1.50427	0.00061
0.2445	1.50193	0.00057
0.3233	1.49986	0.00054
0.4174	1.49685	0.0005
0.4972	1.49329	0.00047
0.588	1.48806	0.00044
0.6975	1.47838	0.0004
0.7928	1.46398	0.00037
0.9005	1.42959	0.00035
0.9484	1.39796	0.00034
1	1.33251	0.00033

System: water + 1-ethyl-3-methylpyridinium ethylsulfate; phases: Liquid
Fixed: Pressure, kPa = 101
Property: Viscosity, Pa*s (Liquid); method: CAPTUB:UFactor:8
Temperature, K	Mole fraction of water	Viscosity, Pa*s	uncertainty
298.15	0.0526	0.1276	0.0164
298.15	0.1412	0.1021	0.0101
298.15	0.2445	0.0779	0.0049
298.15	0.3233	0.0623	0.002
298.15	0.4174	0.04687	0.00158
298.15	0.4972	0.03611	0.00122
298.15	0.588	0.02683	0.00093
298.15	0.6975	0.01772	0.0007
298.15	0.7928	0.011177	0.00055
298.15	0.9005	0.004927	0.000446
298.15	0.9484	0.002717	0.000415
298.15	1	0.00089	0.0004
313.15	0.0526	0.0605	0.0018
313.15	0.1412	0.05028	0.00078
313.15	0.2445	0.03991	0.00138
313.15	0.3233	0.03292	0.00114
313.15	0.4174	0.02486	0.00089
313.15	0.4972	0.02036	0.00077
313.15	0.588	0.015519	0.000648
313.15	0.6975	0.010495	0.000538
313.15	0.7928	0.006778	0.000472
313.15	0.9005	0.003161	0.00042
313.15	0.9484	0.001818	0.000407
313.15	1	0.000653	0.000401
328.15	0.0526	0.03493	0.00125
328.15	0.1412	0.02983	0.00106
328.15	0.2445	0.02349	0.00087
328.15	0.3233	0.01976	0.00077
328.15	0.4174	0.015511	0.000655
328.15	0.4972	0.012779	0.00059
328.15	0.588	0.009894	0.000528
328.15	0.6975	0.006847	0.000474
328.15	0.7928	0.004508	0.000439
328.15	0.9005	0.002197	0.00041
328.15	0.9484	0.001315	0.000404
328.15	1	0.000504	0.000401

System: water + 1-ethyl-3-methylpyridinium ethylsulfate; phases: Liquid
Fixed: Pressure, kPa = 101
Property: Mass density, kg/m3 (Liquid); method: VIBTUB:UFactor:12
Temperature, K	Mole fraction of water	Mass density, kg/m3	uncertainty
298.15	0.0526	1221.69	3.93
298.15	0.1412	1220.12	3.54
298.15	0.2445	1217.8	3.11
298.15	0.3233	1215.58	2.82
298.15	0.4174	1212.21	2.5
298.15	0.4972	1208.39	2.25
298.15	0.588	1202.53	2
298.15	0.6975	1191.35	1.72
298.15	0.7928	1174.05	1.47
298.15	0.9005	1129.44	1.12
298.15	0.9484	1086.2	0.9
298.15	1	997.2	0.4
313.15	0.0526	1211.82	3.85
313.15	0.1412	1210.22	3.46
313.15	0.2445	1207.83	3.04
313.15	0.3233	1205.62	2.75
313.15	0.4174	1202.21	2.44
313.15	0.4972	1198.31	2.19
313.15	0.588	1192.32	1.94
313.15	0.6975	1180.92	1.66
313.15	0.7928	1163.41	1.42
313.15	0.9005	1119.24	1.07
313.15	0.9484	1077.5	0.8
313.15	1	992.2	0.5
328.15	0.0526	1202.02	3.76
328.15	0.1412	1200.35	3.38
328.15	0.2445	1198.02	2.97
328.15	0.3233	1195.72	2.68
328.15	0.4174	1192.23	2.37
328.15	0.4972	1188.24	2.13
328.15	0.588	1182.14	1.88
328.15	0.6975	1170.42	1.6
328.15	0.7928	1152.61	1.36
328.15	0.9005	1108.66	1.02
328.15	0.9484	1068	0.8
328.15	1	985.7	0.5
