Measured thermophysical data. Solubility of Lamotrigine, Diazepam, Clonazepam, and Phenobarbital in Propylene Glycol + Water Mixtures at 298.15 K
Source: J. Chem. Eng. Data, 2009, 10.1021/je800931z
Compound 1: lamotrigine, C9H7Cl2N5, InChI=1S/C9H7Cl2N5/c10-5-3-1-2-4(6(5)11)7-8(12)14-9(13)16-15-7/h1-3H,(H4,12,13,14,16)
Compound 2: 7-chloro-1,3-dihydro-1-methyl-5-phenyl-2H-1,4-benzodiazepin-2-one, C16H13ClN2O, InChI=1S/C16H13ClN2O/c1-19-14-8-7-12(17)9-13(14)16(18-10-15(19)20)11-5-3-2-4-6-11/h2-9H,10H2,1H3
Compound 3: clonazepam, C15H10ClN3O3, InChI=1S/C15H10ClN3O3/c16-12-4-2-1-3-10(12)15-11-7-9(19(21)22)5-6-13(11)18-14(20)8-17-15/h1-7H,8H2,(H,18,20)
Compound 4: 5-ethyl-5-phenyl-2,4,6-(1H,3H,5H)pyrmidinetrione, C12H12N2O3, InChI=1S/C12H12N2O3/c1-2-12(8-6-4-3-5-7-8)9(15)13-11(17)14-10(12)16/h3-7H,2H2,1H3,(H2,13,14,15,16,17)
Compound 5: 1,2-propanediol, C3H8O2, InChI=1S/C3H8O2/c1-3(5)2-4/h3-5H,2H2,1H3
Compound 6: water, H2O, InChI=1S/H2O/h1H2

System: water + lamotrigine; phases: Liquid, Crystal
Property: Amount concentration (molarity), mol/dm3 (Liquid); method: SPECTR
Temperature, K	Pressure, kPa	Amount concentration (molarity), mol/dm3	uncertainty
298.15	101	0.00073	6e-05

System: water + lamotrigine; phases: Liquid, Crystal
Property: Mass density, kg/m3 (Liquid); method: PYCNOM::UFactor:8
Temperature, K	Pressure, kPa	Mass density, kg/m3	uncertainty
298.15	101	1000	4

System: 1,2-propanediol + lamotrigine; phases: Liquid, Crystal
Property: Amount concentration (molarity), mol/dm3 (Liquid); method: SPECTR
Temperature, K	Pressure, kPa	Amount concentration (molarity), mol/dm3	uncertainty
298.15	101	0.20419	0.01444

System: 1,2-propanediol + lamotrigine; phases: Liquid, Crystal
Property: Mass density, kg/m3 (Liquid); method: PYCNOM::UFactor:8
Temperature, K	Pressure, kPa	Mass density, kg/m3	uncertainty
298.15	101	1046	4

System: 7-chloro-1,3-dihydro-1-methyl-5-phenyl-2H-1,4-benzodiazepin-2-one + water; phases: Liquid, Crystal
Property: Amount concentration (molarity), mol/dm3 (Liquid); method: SPECTR
Temperature, K	Pressure, kPa	Amount concentration (molarity), mol/dm3	uncertainty
298.15	101	0.00015	1e-05

System: 7-chloro-1,3-dihydro-1-methyl-5-phenyl-2H-1,4-benzodiazepin-2-one + water; phases: Liquid, Crystal
Property: Mass density, kg/m3 (Liquid); method: PYCNOM::UFactor:8
Temperature, K	Pressure, kPa	Mass density, kg/m3	uncertainty
298.15	101	1002	4

System: 1,2-propanediol + 7-chloro-1,3-dihydro-1-methyl-5-phenyl-2H-1,4-benzodiazepin-2-one; phases: Liquid, Crystal
Property: Amount concentration (molarity), mol/dm3 (Liquid); method: SPECTR
Temperature, K	Pressure, kPa	Amount concentration (molarity), mol/dm3	uncertainty
298.15	101	0.04282	0.0016

System: 1,2-propanediol + 7-chloro-1,3-dihydro-1-methyl-5-phenyl-2H-1,4-benzodiazepin-2-one; phases: Liquid, Crystal
Property: Mass density, kg/m3 (Liquid); method: PYCNOM::UFactor:8
Temperature, K	Pressure, kPa	Mass density, kg/m3	uncertainty
298.15	101	1042	4

System: clonazepam + water; phases: Liquid, Crystal
Property: Amount concentration (molarity), mol/dm3 (Liquid); method: SPECTR
Temperature, K	Pressure, kPa	Amount concentration (molarity), mol/dm3	uncertainty
298.15	101	0.0001	1e-05

System: clonazepam + water; phases: Liquid, Crystal
Property: Mass density, kg/m3 (Liquid); method: PYCNOM::UFactor:8
Temperature, K	Pressure, kPa	Mass density, kg/m3	uncertainty
298.15	101	1004	4

System: 1,2-propanediol + clonazepam; phases: Liquid, Crystal
Property: Amount concentration (molarity), mol/dm3 (Liquid); method: SPECTR
Temperature, K	Pressure, kPa	Amount concentration (molarity), mol/dm3	uncertainty
298.15	101	0.01854	0.00527

System: 1,2-propanediol + clonazepam; phases: Liquid, Crystal
Property: Mass density, kg/m3 (Liquid); method: PYCNOM::UFactor:8
Temperature, K	Pressure, kPa	Mass density, kg/m3	uncertainty
298.15	101	1042	4

System: 5-ethyl-5-phenyl-2,4,6-(1H,3H,5H)pyrmidinetrione + water; phases: Liquid, Crystal
Property: Amount concentration (molarity), mol/dm3 (Liquid); method: SPECTR
Temperature, K	Pressure, kPa	Amount concentration (molarity), mol/dm3	uncertainty
298.15	101	0.00533	0.00051

System: 5-ethyl-5-phenyl-2,4,6-(1H,3H,5H)pyrmidinetrione + water; phases: Liquid, Crystal
Property: Mass density, kg/m3 (Liquid); method: PYCNOM::UFactor:8
Temperature, K	Pressure, kPa	Mass density, kg/m3	uncertainty
298.15	101	1004	4

System: 5-ethyl-5-phenyl-2,4,6-(1H,3H,5H)pyrmidinetrione + 1,2-propanediol; phases: Liquid, Crystal
Property: Amount concentration (molarity), mol/dm3 (Liquid); method: SPECTR
Temperature, K	Pressure, kPa	Amount concentration (molarity), mol/dm3	uncertainty
298.15	101	0.64226	0.04148

System: 5-ethyl-5-phenyl-2,4,6-(1H,3H,5H)pyrmidinetrione + 1,2-propanediol; phases: Liquid, Crystal
Property: Mass density, kg/m3 (Liquid); method: PYCNOM::UFactor:8
Temperature, K	Pressure, kPa	Mass density, kg/m3	uncertainty
298.15	101	1075	4

System: 1,2-propanediol + water + lamotrigine; phases: Liquid, Crystal
Fixed: Temperature, K = 298.15
Fixed: Pressure, kPa = 101
Property: Amount concentration (molarity), mol/dm3 of lamotrigine (Liquid); method: SPECTR
Solvent: Volume fraction of 1,2-propanediol	Amount concentration (molarity), mol/dm3 of lamotrigine	uncertainty
0	0.00073	6e-05
0.1	0.00125	0.00016
0.2	0.00201	0.00022
0.3	0.00311	0.00035
0.4	0.00732	0.00072
0.5	0.01267	0.00039
0.6	0.03533	0.0038
0.7	0.05994	0.00358
0.8	0.11219	0.00877
0.9	0.17438	0.02199
1	0.20419	0.01444

System: 1,2-propanediol + water + lamotrigine; phases: Liquid, Crystal
Fixed: Temperature, K = 298.15
Fixed: Pressure, kPa = 101
Property: Mass density, kg/m3 (Liquid); method: PYCNOM:UFactor:8
Solvent: Volume fraction of 1,2-propanediol	Mass density, kg/m3	uncertainty
0	1000	4
0.1	1012	4
0.2	1021	4
0.3	1025	4
0.4	1033	4
0.5	1040	4
0.6	1044	4
0.7	1054	4
0.8	1050	4
0.9	1050	4
1	1046	4

System: 1,2-propanediol + 7-chloro-1,3-dihydro-1-methyl-5-phenyl-2H-1,4-benzodiazepin-2-one + water; phases: Liquid, Crystal
Fixed: Temperature, K = 298.15
Fixed: Pressure, kPa = 101
Property: Amount concentration (molarity), mol/dm3 of 7-chloro-1,3-dihydro-1-methyl-5-phenyl-2H-1,4-benzodiazepin-2-one (Liquid); method: SPECTR
Solvent: Volume fraction of 1,2-propanediol	Amount concentration (molarity), mol/dm3 of 7-chloro-1,3-dihydro-1-methyl-5-phenyl-2H-1,4-benzodiazepin-2-one	uncertainty
0	0.00015	1e-05
0.1	0.00044	2e-05
0.2	0.00052	2e-05
0.3	0.00094	4e-05
0.4	0.00171	7e-05
0.5	0.00285	9e-05
0.6	0.00552	0.00031
0.7	0.01168	0.00032
0.8	0.02164	0.00106
0.9	0.03494	0.00059
1	0.04282	0.0016

System: 1,2-propanediol + 7-chloro-1,3-dihydro-1-methyl-5-phenyl-2H-1,4-benzodiazepin-2-one + water; phases: Liquid, Crystal
Fixed: Temperature, K = 298.15
Fixed: Pressure, kPa = 101
Property: Mass density, kg/m3 (Liquid); method: PYCNOM:UFactor:8
Solvent: Volume fraction of 1,2-propanediol	Mass density, kg/m3	uncertainty
0	1002	4
0.1	1010	4
0.2	1019	4
0.3	1027	4
0.4	1033	4
0.5	1038	4
0.6	1046	4
0.7	1054	4
0.8	1048	4
0.9	1044	4
1	1042	4

System: 1,2-propanediol + clonazepam + water; phases: Liquid, Crystal
Fixed: Temperature, K = 298.15
Fixed: Pressure, kPa = 101
Property: Amount concentration (molarity), mol/dm3 of clonazepam (Liquid); method: SPECTR
Solvent: Volume fraction of 1,2-propanediol	Amount concentration (molarity), mol/dm3 of clonazepam	uncertainty
0	0.0001	1e-05
0.1	0.00011	5e-05
0.2	0.00018	4e-05
0.3	0.00028	0.0001
0.4	0.00058	0.00013
0.5	0.00098	0.00018
0.6	0.00274	0.00051
0.7	0.00469	0.00134
0.8	0.0089	0.00203
0.9	0.01173	0.00194
1	0.01854	0.00527

System: 1,2-propanediol + clonazepam + water; phases: Liquid, Crystal
Fixed: Temperature, K = 298.15
Fixed: Pressure, kPa = 101
Property: Mass density, kg/m3 (Liquid); method: PYCNOM:UFactor:8
Solvent: Volume fraction of 1,2-propanediol	Mass density, kg/m3	uncertainty
0	1004	4
0.1	1003.8	3.7
0.2	1017	4
0.3	1027	4
0.4	1035	4
0.5	1040	4
0.6	1048	4
0.7	1054	4
0.8	1054	4
0.9	1044	4
1	1042	4

System: 5-ethyl-5-phenyl-2,4,6-(1H,3H,5H)pyrmidinetrione + 1,2-propanediol + water; phases: Liquid, Crystal
Fixed: Temperature, K = 298.15
Fixed: Pressure, kPa = 101
Property: Amount concentration (molarity), mol/dm3 of 5-ethyl-5-phenyl-2,4,6-(1H,3H,5H)pyrmidinetrione (Liquid); method: SPECTR
Solvent: Volume fraction of 1,2-propanediol	Amount concentration (molarity), mol/dm3 of 5-ethyl-5-phenyl-2,4,6-(1H,3H,5H)pyrmidinetrione	uncertainty
0	0.00533	0.00051
0.1	0.00912	0.0011
0.2	0.01127	0.00111
0.3	0.01895	0.00197
0.4	0.03291	0.00409
0.5	0.0568	0.00378
0.6	0.08903	0.00927
0.7	0.16642	0.0066
0.8	0.25161	0.03194
0.9	0.51125	0.05284
1	0.64226	0.04148

System: 5-ethyl-5-phenyl-2,4,6-(1H,3H,5H)pyrmidinetrione + 1,2-propanediol + water; phases: Liquid, Crystal
Fixed: Temperature, K = 298.15
Fixed: Pressure, kPa = 101
Property: Mass density, kg/m3 (Liquid); method: PYCNOM:UFactor:8
Solvent: Volume fraction of 1,2-propanediol	Mass density, kg/m3	uncertainty
0	1004	4
0.1	1008	4
0.2	1015	4
0.3	1027	4
0.4	1035	4
0.5	1042	4
0.6	1046	4
0.7	1050	4
0.8	1056	4
0.9	1065	4
1	1075	4
