Measured thermophysical data. Density of the NaAlF4 + KAlF4 Electrolyte, Saturated with Alumina
Source: J. Chem. Eng. Data, 2010, 10.1021/je9007519
Compound 1: sodium tetrafluoroaluminate, AlF4Na, InChI=1S/Al.4FH.Na/h;4*1H;/q+3;;;;;+1/p-4
Compound 2: potassium tetrafluoroaluminate, AlF4K, InChI=1S/Al.4FH.K/h;4*1H;/q+3;;;;;+1/p-4
Compound 3: aluminum oxide (Al2O3), Al2O3, InChI=1S/2Al.3O/q2*+3;3*-2

System: aluminum oxide (Al2O3) + sodium tetrafluoroaluminate + potassium tetrafluoroaluminate; phases: Liquid, Crystal
Fixed: Pressure, kPa = 101
Fixed: Solvent: Mole fraction of sodium tetrafluoroaluminate = 0.5
Property: Mass density, kg/m3 (Liquid); method: Buoyancy - hydrostatic balance
Temperature, K	Mass density, kg/m3	uncertainty
620.5073	1936.553	10.069
620.7462	1938.78	10.082
621.0117	1935.902	10.066
621.7382	1935.214	10.062
621.8149	1937.467	10.074
622.1814	1934.573	10.059
622.779	1933.34	10.052
622.892	1936.153	10.067
623.5011	1932.652	10.053
624.011	1932.001	10.044
624.0483	1934.827	10.06
624.4785	1931.356	10.04
625.1571	1930.676	10.036
625.216	1934.065	10.055
625.7334	1930.013	10.041
626.2438	1929.362	10.029
626.4185	1932.731	10.048
626.8632	1928.692	10.03
627.6255	1927.999	10.021
627.7354	1931.378	10.04
628.2181	1927.333	10.027
628.7174	1926.684	10.014
629.0135	1929.466	10.029
629.2988	1926.021	10.01
630.0372	1925.332	10.007
630.3919	1928.103	10.023
630.639	1924	9.999
631.2319	1924	10.001
631.7405	1926.746	10.015
631.8119	1922.772	9.993
632.4703	1922.096	9.988
633.0972	1921.426	9.985
633.1921	1925.372	10.006
633.5976	1920.777	9.981
634.1802	1920.114	9.979
634.6403	1923.433	9.997
634.793	1919.447	9.974
635.4418	1918.773	9.97
636.0749	1918.102	9.966
636.1003	1922.059	9.988
636.6717	1917.437	9.97
637.2986	1916.767	9.959
637.5813	1920.115	9.978
637.9137	1916.1	9.955
638.5238	1915.433	9.951
639.082	1914.775	9.958
639.1152	1918.729	9.979
639.7153	1921.075	9.991
639.726	1914.103	9.956
640.1501	1913.467	9.949
640.6337	1916.781	9.959
640.9424	1912.77	9.936
641.424	1912.125	9.933
642.1418	1911.441	9.929
642.214	1915.388	9.951
642.3546	1916.676	9.958
642.5206	1921.206	10.012
642.7803	1910.77	9.925
643.1424	1920.537	9.996
643.242	1915.962	9.956
643.4694	1910.09	9.922
643.7915	1913.43	9.943
643.8022	1919.863	9.979
643.8501	1915.861	9.957
644.0179	1909.434	9.918
644.1525	1915.245	9.957
644.4199	1919.195	9.973
644.5594	1908.78	9.921
644.7429	1915.052	9.949
645.1467	1913.949	9.969
645.1487	1918.51	9.995
645.3125	1915.052	9.952
645.3369	1908.086	9.91
645.3799	1911.471	9.929
645.3808	1916.172	9.955
645.7407	1917.846	9.978
645.928	1914.255	9.945
645.9962	1907.412	9.937
646.0275	1915.401	9.979
646.1854	1912.646	9.941
646.4321	1917.167	9.968
646.5452	1906.756	9.941
646.6135	1915.401	9.952
646.7051	1914.255	9.944
647.023	1910.069	9.936
647.0434	1906.109	9.915
647.0698	1915.931	9.968
647.1409	1913.618	9.943
647.2111	1911.91	9.932
647.2774	1914.726	9.947
647.4178	1905.482	9.899
647.6205	1912.973	9.94
647.7862	1915.248	9.957
647.8797	1914.06	9.944
647.9285	1912.158	9.971
648.3777	1910.586	9.968
648.3913	1904.756	9.936
648.4147	1914.579	9.978
648.5658	1912.705	9.936
648.674	1908.101	9.91
648.8951	1904.108	9.895
649.0373	1913.689	9.947
649.1221	1912.158	9.933
649.2302	1912.705	9.949
649.5614	1909.259	9.932
649.6491	1911.505	9.941
649.6754	1903.415	9.894
649.7154	1913.689	9.959
649.8693	1912.034	9.932
649.8819	1910.902	9.926
650.326	1906.134	9.908
650.3337	1902.741	9.889
650.3882	1913.689	9.974
650.4565	1910.806	9.954
650.4799	1910.094	9.95
650.8041	1907.923	9.916
650.9755	1902.071	9.911
651.065	1911.882	9.96
651.0767	1910.031	9.951
651.3454	1910.094	9.922
651.4846	1901.422	9.875
651.7046	1910.646	9.955
651.7241	1910.031	9.921
651.796	1909.454	9.918
652.0121	1904.161	9.919
652.0608	1906.585	9.902
652.1289	1900.751	9.901
652.3411	1909.364	9.953
652.346	1909.411	9.953
652.3625	1908.795	9.949
652.8588	1900.066	9.872
653.0154	1908.687	9.943
653.0349	1908.614	9.942
653.2566	1908.082	9.949
653.4074	1905.232	9.92
653.4308	1899.408	9.862
653.6857	1907.446	9.907
653.7012	1902.753	9.88
653.7596	1908.614	9.914
653.851	1907.418	9.907
654.0397	1898.743	9.859
654.3246	1906.775	9.909
654.3441	1906.772	9.909
654.3772	1907.947	9.915
654.4764	1898.106	9.883
654.7856	1903.874	9.9
655.019	1906.095	9.926
655.087	1907.051	9.926
655.1074	1906.081	9.921
655.4244	1900.775	9.907
655.4778	1897.377	9.887
655.4828	1905.454	9.937
655.5887	1905.33	9.948
655.7092	1907.051	9.905
656.0475	1896.719	9.881
656.168	1902.516	9.946
656.2282	1904.766	9.895
656.2302	1905.33	9.898
656.3974	1907.051	9.907
656.6316	1896.059	9.849
656.8007	1904.106	9.923
656.929	1904.085	9.951
657.1018	1906.371	9.911
657.1447	1898.799	9.871
657.404	1895.367	9.891
657.5119	1902.859	9.881
657.5439	1903.418	9.89
657.6333	1901.144	9.879
657.744	1905.136	9.899
657.8373	1894.732	9.872
658.1093	1902.76	9.88
658.2064	1902.18	9.884
658.4366	1903.893	9.894
658.491	1894.06	9.838
658.6754	1901.537	9.91
658.8056	1902.081	9.877
658.8483	1896.825	9.853
659.0056	1899.224	9.881
659.1202	1903.216	9.883
659.2475	1893.372	9.828
659.2823	1900.873	9.87
659.6028	1901.384	9.877
659.8066	1902.539	9.915
659.8541	1892.708	9.827
659.8765	1900.21	9.869
660.1084	1900.172	9.887
660.2755	1892.074	9.823
660.4579	1897.855	9.853
660.52	1901.858	9.916
660.5278	1898.973	9.897
660.5957	1894.845	9.872
660.8752	1899.481	9.863
661.1342	1891.37	9.819
661.1382	1900.627	9.87
661.3536	1893.191	9.827
661.471	1898.16	9.858
661.4816	1890.748	9.818
661.6922	1892.571	9.839
661.8338	1899.385	9.861
661.989	1896.474	9.875
662.0395	1898.16	9.855
662.3595	1893.428	9.831
662.4517	1890.025	9.825
662.5031	1898.711	9.878
662.5041	1891.724	9.836
662.8067	1897.469	9.853
663.1548	1889.346	9.81
663.2061	1898.032	9.904
663.4117	1891.724	9.819
663.4195	1896.803	9.847
663.5077	1891.144	9.816
663.5251	1894.528	9.858
663.7947	1888.003	9.815
663.8975	1897.354	9.851
664.0894	1896.129	9.845
664.1737	1891.438	9.817
664.4606	1890.332	9.851
664.4722	1888.003	9.839
664.5537	1896.683	9.851
664.7301	1895.459	9.848
665.0082	1887.351	9.795
665.013	1890.332	9.812
665.0586	1893.147	9.852
665.2369	1895.889	9.875
665.3929	1894.786	9.848
665.5518	1889.58	9.807
665.8404	1886.651	9.827
665.9053	1889.463	9.845
665.9635	1895.889	9.875
666.1205	1894.102	9.833
666.1592	1889.58	9.818
666.3907	1885.997	9.794
666.6561	1891.192	9.827
666.6716	1895.104	9.848
666.8265	1888.775	9.851
666.8381	1893.42	9.876
666.9495	1885.342	9.802
667.3156	1895.104	9.838
667.4676	1892.752	9.846
667.6293	1888.775	9.806
667.7503	1884.648	9.796
667.76	1887.468	9.813
667.9808	1892.103	9.857
668.0117	1895.555	9.876
668.0523	1884.034	9.812
668.0834	1888.137	9.815
668.2053	1889.809	9.845
668.5896	1883.383	9.772
668.6041	1891.324	9.817
668.7309	1893.181	9.83
668.7368	1887.382	9.797
669.2439	1887.382	9.805
669.2942	1891.324	9.826
669.4625	1891.934	9.82
669.566	1885.481	9.794
669.777	1882.626	9.798
669.9221	1887.836	9.85
669.9704	1886.603	9.843
670.0575	1890.635	9.813
670.1021	1891.265	9.817
670.4416	1881.954	9.781
670.5596	1886.603	9.837
670.724	1889.961	9.819
670.8246	1889.907	9.809
671.0306	1881.294	9.761
671.2753	1885.869	9.799
671.3788	1883.494	9.773
671.402	1889.286	9.806
671.5218	1889.907	9.831
671.5354	1885.879	9.81
671.5721	1880.642	9.781
671.5973	1885.869	9.811
672.0855	1888.61	9.817
672.2305	1888.663	9.803
672.2344	1885.055	9.783
672.2499	1879.968	9.754
672.7815	1887.932	9.8
672.8811	1887.994	9.818
672.9062	1879.298	9.765
673.1304	1885.055	9.782
673.1865	1884.482	9.787
673.2367	1881.5	9.771
673.3787	1886.706	9.792
673.5788	1878.625	9.746
673.6368	1887.307	9.816
673.6802	1884.189	9.796
674.0281	1885.937	9.804
674.2754	1877.948	9.743
674.3469	1885.957	9.787
674.5092	1884.189	9.777
674.6376	1885.937	9.817
674.8656	1882.516	9.768
674.9757	1884.189	9.777
675.0124	1885.957	9.813
675.0684	1879.511	9.776
675.0974	1877.251	9.785
675.4412	1885.241	9.783
675.6044	1876.605	9.759
675.6179	1883.521	9.798
675.757	1884.708	9.78
676.0784	1884.009	9.784
676.2098	1882.768	9.771
676.2813	1875.932	9.732
676.4492	1884.032	9.811
676.5785	1880.545	9.757
676.65	1875.308	9.728
676.7736	1882.768	9.803
676.7919	1883.223	9.786
676.8768	1877.527	9.755
677.2011	1883.241	9.772
677.4067	1882.101	9.772
677.4414	1883.223	9.778
677.673	1874.579	9.73
677.8593	1883.241	9.809
677.9499	1881.339	9.808
678.1033	1882.551	9.791
678.25	1879.145	9.774
678.4082	1873.897	9.759
678.5645	1881.999	9.82
678.6262	1881.339	9.763
678.7382	1881.884	9.766
678.8144	1875.522	9.73
678.9976	1873.238	9.737
679.1674	1880.687	9.789
679.258	1881.323	9.803
679.3747	1880.653	9.766
679.7701	1872.549	9.713
679.908	1880.002	9.791
679.9687	1877.174	9.774
679.9783	1879.974	9.787
680.1181	1879.853	9.786
680.3534	1879.366	9.794
680.4054	1871.883	9.751
680.632	1879.974	9.754
680.6484	1873.535	9.719
680.8257	1879.853	9.753
680.8913	1871.241	9.736
681.0744	1878.555	9.747
681.3675	1879.292	9.778
681.5072	1878.615	9.746
681.6951	1870.548	9.702
681.7462	1875.194	9.727
681.8772	1878.555	9.792
682.0564	1878.617	9.769
682.2067	1877.721	9.742
682.3657	1869.876	9.698
682.4447	1877.899	9.743
682.5449	1871.538	9.708
682.6836	1869.262	9.696
682.8637	1877.721	9.745
682.8762	1877.358	9.744
682.9688	1877.25	9.746
683.5167	1873.78	9.755
683.537	1877.721	9.776
683.563	1876.12	9.767
683.6554	1876.575	9.735
683.7045	1868.534	9.69
684.111	1867.905	9.687
684.1321	1875.934	9.731
684.2187	1877.047	9.764
684.2698	1875.331	9.756
684.4334	1869.544	9.71
684.7907	1876.391	9.74
684.8474	1875.254	9.727
684.9668	1875.331	9.743
684.988	1867.2	9.698
685.1824	1871.819	9.776
685.5404	1875.476	9.751
685.5837	1874.455	9.747
685.678	1866.404	9.686
685.7473	1874.642	9.731
686.2131	1875.476	9.747
686.3044	1874.455	9.723
686.3372	1867.547	9.685
686.4392	1866.404	9.678
686.4796	1873.397	9.742
686.8586	1873.801	9.733
686.9125	1870.412	9.725
686.951	1875.476	9.757
686.9876	1865.752	9.705
687.1761	1872.038	9.709
687.3502	1872.595	9.714
687.6291	1864.523	9.686
687.6762	1873.669	9.74
687.9272	1872.038	9.709
687.9945	1871.927	9.709
688.2167	1865.555	9.688
688.3301	1872.999	9.715
688.6108	1871.365	9.732
688.6205	1863.717	9.693
688.7118	1868.431	9.699
688.931	1871.212	9.708
689.0501	1872.319	9.711
689.1386	1863.717	9.692
689.3058	1870.127	9.699
689.4058	1870.572	9.712
689.7431	1871.644	9.738
689.7739	1863.052	9.661
689.8498	1867.121	9.682
690.1179	1869.328	9.71
690.166	1863.552	9.676
690.387	1870.976	9.707
690.5089	1867.014	9.682
690.5417	1862.366	9.657
690.7137	1866.332	9.681
690.7799	1869.328	9.695
691.0201	1870.189	9.7
691.2449	1866.332	9.685
691.2746	1861.685	9.652
691.5158	1867.956	9.725
691.5954	1861.071	9.689
691.7702	1870.189	9.718
691.9585	1865.654	9.681
692.0602	1861.559	9.679
692.3099	1867.956	9.691
692.357	1865.027	9.674
692.3761	1864.901	9.674
692.5893	1860.348	9.65
692.5961	1869.493	9.7
693.005	1866.719	9.69
693.1346	1864.901	9.674
693.1644	1859.693	9.646
693.3468	1868.134	9.694
693.748	1866.037	9.685
693.8151	1864.228	9.669
693.937	1859.007	9.641
694.0378	1868.134	9.695
694.0406	1859.553	9.65
694.1463	1863.049	9.66
694.4591	1865.36	9.677
694.5531	1863.546	9.667
694.6001	1858.338	9.638
694.6394	1866.683	9.68
695.1344	1862.746	9.686
695.2621	1864.669	9.697
695.2908	1857.664	9.659
695.3388	1866.683	9.706
695.9114	1857.565	9.679
695.9593	1863.995	9.711
696.0015	1861.624	9.66
696.0284	1862.746	9.666
696.0495	1866.683	9.687
696.1079	1856.971	9.631
696.4417	1856.355	9.638
696.5414	1862.1	9.655
696.6986	1863.314	9.684
696.7044	1866.014	9.699
697.2566	1864.237	9.713
697.3601	1861.152	9.694
697.4416	1861.392	9.689
697.4627	1855.629	9.661
697.6333	1860.724	9.647
697.8566	1855.566	9.618
697.8825	1859.633	9.642
698.0138	1854.978	9.636
698.0971	1860.724	9.649
698.1115	1863.536	9.664
698.1949	1861.152	9.651
698.6913	1862.88	9.683
698.7755	1854.294	9.631
698.9404	1860.026	9.661
698.9404	1861.152	9.666
699.4366	1853.626	9.644
699.4912	1861.625	9.652
699.6665	1861.152	9.649
699.679	1857.656	9.63
699.7009	1859.341	9.639
699.7767	1853.571	9.607
700.2191	1858.695	9.658
700.2804	1852.928	9.604
700.3866	1860.919	9.67
700.4259	1859.786	9.65
700.8482	1852.275	9.64
700.8798	1860.277	9.689
700.9736	1858.011	9.667
701.1746	1859.786	9.641
701.4475	1851.617	9.597
701.5519	1856.23	9.642
701.7404	1859.576	9.644
701.751	1851.569	9.6
701.889	1857.301	9.66
701.9024	1858.986	9.669
702.1722	1850.939	9.592
702.3062	1856.671	9.636
702.3828	1858.713	9.636
702.6651	1858.986	9.65
702.7522	1856.037	9.621
702.9387	1858.713	9.676
702.9722	1850.249	9.6
703.4218	1857.632	9.636
703.441	1849.612	9.59
703.462	1854.236	9.617
703.6074	1858.713	9.662
703.704	1849.57	9.603
703.99	1855.276	9.625
704.1029	1857.632	9.638
704.3735	1854.652	9.617
704.3984	1848.812	9.586
704.4146	1858.021	9.662
704.8468	1854.014	9.613
704.8812	1857.631	9.632
704.9367	1848.812	9.624
705.1183	1856.669	9.624
705.3038	1852.253	9.604
705.5247	1848.156	9.609
705.5753	1853.335	9.606
705.6356	1857.631	9.629
705.6394	1847.575	9.574
705.8286	1856.669	9.632
706.4192	1856.382	9.637
706.4355	1847.449	9.589
706.489	1852.626	9.617
706.5521	1857.115	9.658
706.7671	1851.457	9.595
706.9725	1850.861	9.615
707.0776	1846.785	9.637
707.1636	1855.702	9.681
707.3279	1856.096	9.634
707.6174	1845.574	9.612
707.8199	1846.105	9.62
707.9556	1854.781	9.665
707.9565	1850.704	9.647
708.0033	1849.572	9.633
708.0186	1856.096	9.66
708.3996	1845.45	9.581
708.6231	1854.781	9.665
708.7778	1856.096	9.622
708.9325	1848.861	9.628
709.0413	1848.22	9.65
709.2313	1844.756	9.665
709.3994	1856.096	9.639
709.429	1848.22	9.6
709.4318	1854.781	9.633
709.6084	1843.572	9.552
709.6666	1844.125	9.56
710.0361	1855.432	9.618
710.1506	1847.542	9.577
710.2107	1852.971	9.607
710.7604	1846.883	9.612
710.8597	1843.374	9.596
710.8854	1846.863	9.613
710.8959	1854.17	9.648
710.9112	1852.169	9.637
711.4083	1842.725	9.622
711.4865	1852.951	9.654
711.496	1846.203	9.587
711.5838	1841.573	9.566
711.7259	1852.169	9.653
711.9596	1842.075	9.544
712.0445	1845.554	9.578
712.2906	1852.26	9.66
712.4794	1851.488	9.643
712.6435	1844.896	9.57
712.7235	1844.883	9.56
712.7445	1841.389	9.541
712.9677	1851.028	9.657
713.1908	1850.689	9.605
713.5331	1840.702	9.536
713.5807	1844.185	9.606
713.6074	1839.566	9.593
713.7581	1850.339	9.616
713.983	1850.689	9.662
714.1612	1840.041	9.58
714.208	1843.523	9.552
714.4434	1850.673	9.676
714.6168	1842.896	9.613
714.7064	1849.451	9.616
714.9408	1839.356	9.608
714.9856	1842.275	9.627
715.1895	1850.673	9.684
715.4067	1841.646	9.611
715.4677	1838.711	9.59
715.5287	1848.197	9.578
715.5591	1838.134	9.522
715.9336	1849.992	9.61
716.0688	1840.979	9.542
716.2059	1848.652	9.582
716.2688	1838.022	9.522
716.5098	1848.662	9.585
716.5622	1840.9	9.544
716.7574	1839.746	9.604
716.9803	1846.718	9.639
717.1002	1837.329	9.531
717.2221	1848.662	9.605
717.4734	1838.282	9.527
717.5639	1836.694	9.601
717.5658	1836.132	9.598
717.7847	1846.718	9.653
718.1027	1849.084	9.638
718.2673	1836.021	9.51
718.4254	1838.282	9.56
718.4558	1845.355	9.61
718.4711	1838.912	9.578
718.7394	1847.858	9.619
718.8955	1838.282	9.576
719.0258	1835.34	9.518
719.3075	1845.355	9.646
719.3722	1847.196	9.581
719.4998	1837.625	9.567
719.5435	1834.135	9.547
719.8641	1834.537	9.503
720.0753	1844.548	9.557
720.2636	1836.757	9.578
720.3511	1845.916	9.624
720.4006	1836.92	9.518
720.5556	1834.537	9.552
720.8657	1844.548	9.602
720.8979	1844.706	9.558
720.9046	1836.757	9.514
721.1965	1833.875	9.536
721.4314	1836.757	9.521
721.536	1832.136	9.496
721.5997	1844.995	9.622
721.6957	1844.017	9.627
721.9904	1833.188	9.514
722.2413	1845.455	9.636
722.3098	1835.962	9.537
722.3422	1834.928	9.533
722.5902	1843.206	9.602
722.6947	1832.516	9.598
722.9038	1835.962	9.509
723.0882	1843.076	9.66
723.2374	1831.869	9.525
723.263	1843.206	9.587
723.3638	1835.204	9.525
723.5453	1830.136	9.505
723.8208	1841.276	9.626
723.8474	1841.306	9.549
724.1409	1835.204	9.572
724.1922	1838.004	9.59
724.2359	1831.15	9.538
724.612	1839.467	9.548
724.6149	1841.306	9.559
724.877	1830.488	9.505
724.9073	1834.424	9.53
725.2569	1829.726	9.477
725.3461	1838.791	9.549
725.4847	1839.814	9.538
725.5246	1834.424	9.507
725.5274	1828.14	9.471
726.0136	1838.125	9.523
726.1028	1839.814	9.555
726.1522	1829.726	9.505
726.2006	1833.627	9.526
726.2518	1836.555	9.543
726.8593	1837.223	9.518
726.9219	1829.044	9.472
726.9419	1839.814	9.533
727.0111	1833.627	9.521
727.459	1838.454	9.544
727.5055	1826.146	9.455
727.5245	1828.388	9.468
727.5853	1837.223	9.517
727.7731	1832.882	9.504
728.1762	1832.882	9.501
728.1886	1837.223	9.526
728.2351	1835.118	9.505
728.3072	1827.704	9.464
728.4362	1838.454	9.523
728.9313	1831.998	9.6
729.065	1837.793	9.618
729.1769	1827.007	9.483
729.2158	1835.159	9.506
729.5031	1824.149	9.446
729.6719	1831.998	9.517
729.7269	1837.127	9.522
729.7705	1826.247	9.464
729.8454	1835.159	9.538
730.1563	1833.691	9.504
730.2161	1831.998	9.491
730.4446	1826.247	9.469
730.472	1836.448	9.519
730.6208	1835.159	9.548
730.871	1831.2	9.497
731.1867	1825.569	9.461
731.2946	1834.364	9.501
731.4634	1822.159	9.457
731.7144	1831.2	9.501
731.9589	1824.887	9.45
732.1086	1832.26	9.492
732.119	1834.364	9.543
732.1541	1830.57	9.518
732.623	1824.222	9.49
732.7366	1833.145	9.517
732.945	1829.779	9.499
733.3228	1823.552	9.443
733.3721	1832.485	9.49
733.4573	1820.164	9.422
733.6126	1829.779	9.499
734.0282	1830.274	9.478
734.0851	1822.31	9.47
734.157	1832.924	9.533
734.2896	1829.013	9.505
734.7241	1821.088	9.507
734.9105	1829.013	9.525
735.4443	1818.171	9.411
735.4575	1818.169	9.411
735.5626	1828.349	9.536
735.9363	1828.851	9.544
736.171	1815.814	9.453
736.3526	1827.563	9.592
736.94	1815.133	9.457
736.9929	1827.563	9.517
737.4763	1816.733	9.404
737.6295	1814.465	9.391
737.7826	1826.878	9.46
737.8961	1826.86	9.47
738.3735	1826.131	9.455
738.4227	1813.781	9.387
738.9653	1826.131	9.457
739.1269	1813.111	9.435
739.418	1814.748	9.393
739.6524	1825.462	9.508
739.7752	1812.449	9.438
739.8876	1824.864	9.531
740.3194	1824.796	9.494
740.6218	1811.633	9.379
741.0638	1824.018	9.517
741.3651	1812.763	9.425
741.4208	1811.633	9.375
741.7041	1824.018	9.444
741.96	1822.856	9.437
742.028	1810.978	9.372
742.3074	1823.362	9.44
742.3688	1810.364	9.37
743.0702	1822.591	9.499
743.2977	1809.66	9.389
743.308	1810.779	9.396
743.6487	1822.591	9.436
743.9394	1820.863	9.492
743.9601	1808.996	9.415
744.4498	1821.905	9.432
744.8385	1808.3	9.499
744.9894	1821.259	9.569
745.2913	1808.79	9.472
745.38	1807.518	9.415
745.8005	1820.572	9.425
745.9449	1818.868	9.503
746.2692	1807.518	9.436
746.4662	1819.828	9.421
746.947	1806.852	9.532
746.9715	1819.828	9.42
747.2911	1806.799	9.349
747.7019	1819.153	9.423
747.7114	1806.174	9.346
747.9356	1816.314	9.47
748.3569	1805.514	9.399
748.4662	1818.473	9.486
749.0606	1804.844	9.338
749.1793	1804.826	9.341
749.2358	1817.792	9.482
749.6766	1817.163	9.408
749.7586	1804.082	9.428
749.9393	1814.32	9.478
750.3687	1804.082	9.378
750.5712	1816.463	9.458
751.1954	1802.834	9.327
751.2301	1803.389	9.331
751.2471	1815.797	9.399
751.8165	1815.063	9.394
751.841	1802.734	9.327
751.9614	1812.324	9.38
752.3548	1815.063	9.394
752.7509	1802.034	9.474
753.0961	1801.42	9.399
753.1911	1814.373	9.443
753.2467	1801.29	9.392
753.9211	1813.616	9.463
753.9398	1801.29	9.382
753.9587	1810.332	9.442
754.4523	1813.616	9.39
754.5257	1800.64	9.38
755.0822	1799.434	9.4
755.3501	1799.953	9.329
755.524	1812.745	9.381
755.7299	1812.745	9.445
755.8897	1808.351	9.451
755.9367	1799.303	9.397
756.4431	1812.745	9.385
756.6987	1798.625	9.362
757.0313	1797.454	9.468
757.1797	1811.921	9.398
757.4419	1797.846	9.378
757.8758	1806.362	9.419
758.1246	1797.846	9.376
758.1359	1811.921	9.465
758.6797	1811.277	9.374
758.7012	1797.198	9.3
759.0063	1795.471	9.51
759.1415	1810.482	9.395
759.4503	1796.523	9.367
759.8596	1804.375	9.437
760.1881	1810.482	9.369
760.2087	1795.846	9.334
760.5053	1809.662	9.417
760.8797	1795.073	9.284
760.9585	1793.492	9.383
761.1029	1809.662	9.481
761.5955	1795.073	9.397
761.8356	1802.389	9.442
761.8572	1809.662	9.458
762.2511	1794.413	9.341
762.6205	1808.984	9.455
762.7537	1793.655	9.405
762.9759	1791.503	9.419
763.2863	1808.205	9.437
763.5422	1793.655	9.448
764.0268	1808.205	9.483
764.1168	1793.008	9.392
764.5619	1807.563	9.611
764.7775	1792.347	9.27
764.9442	1789.523	9.253
765.3087	1791.589	9.265
765.3528	1806.789	9.35
766.0712	1791.589	9.359
766.7521	1790.925	9.262
766.9262	1787.542	9.244
767.2961	1790.182	9.257
767.9542	1790.182	9.257
768.6281	1789.519	9.254
768.9153	1785.56	9.232
769.2775	1788.756	9.249
769.9623	1788.756	9.249
770.4739	1788.119	9.247
770.8965	1783.579	9.22
770.9593	1787.381	9.242
771.6437	1787.381	9.241
772.1457	1786.745	9.239
772.7746	1785.977	9.234
772.8644	1781.602	9.21
773.5091	1785.977	9.247
773.8239	1785.245	9.23
774.645	1785.245	9.23
774.8598	1779.621	9.199
775.1092	1784.537	9.226
775.6209	1784.537	9.226
776.2902	1783.876	9.245
776.6635	1783.186	9.219
776.8175	1777.647	9.19
777.1517	1783.186	9.219
777.6956	1782.363	9.214
778.248	1782.363	9.242
778.775	1775.673	9.177
778.885	1782.363	9.214
779.4324	1781.657	9.21
779.8501	1781.657	9.21
780.3582	1780.843	9.254
780.7385	1774.257	9.396
782.6906	1772.286	9.159
