Measured thermophysical data. Trans-Cinnamic Acid Solubility Enhancement in the Presence of Ethanol As a Supercritical CO2 Cosolvent
Source: J. Chem. Eng. Data, 2009, 10.1021/je900154x
Compound 1: (E)-cinnamic acid, C9H8O2, InChI=1S/C9H8O2/c10-9(11)7-6-8-4-2-1-3-5-8/h1-7H,(H,10,11)/b7-6+, purity 99%
Compound 2: ethanol, C2H6O, InChI=1S/C2H6O/c1-2-3/h3H,2H2,1H3, purity 99.9%
Compound 3: carbon dioxide, CO2, InChI=1S/CO2/c2-1-3

System: carbon dioxide + (E)-cinnamic acid; phases: Fluid (supercritical or subcritical phases), Crystal
Property: Mole fraction of (E)-cinnamic acid (Fluid (supercritical or subcritical phases)); method: UV-Spectrometry
Pressure, kPa	Temperature, K	Mole fraction of (E)-cinnamic acid	uncertainty
20000	313.15	0.0001595	2.21e-05
20000	323.15	0.000155	2.23e-05
20000	333.15	0.0001369	2.2e-05
20000	343.15	0.0001201	2e-05
20000	353.15	0.000101	2e-05
20000	313.15	0.0001595	2.21e-05
25000	313.15	0.0002526	2.24e-05
30000	313.15	0.0003558	2.3e-05
35000	313.15	0.0004738	2.28e-05
40000	313.15	0.0005716	2.29e-05

System: ethanol + carbon dioxide + (E)-cinnamic acid; phases: Fluid (supercritical or subcritical phases), Crystal
Property: Mole fraction of (E)-cinnamic acid (Fluid (supercritical or subcritical phases)); method: UV-Spectrometry
Pressure, kPa	Temperature, K	Solvent: Mass fraction of ethanol	Mole fraction of (E)-cinnamic acid	uncertainty
10000	313.15	0.02	0.0002309	2.2e-05
10000	313.15	0.04	0.0002922	2.21e-05
15000	313.15	0.02	0.0003213	2.18e-05
15000	313.15	0.04	0.0003851	2.21e-05
20000	313.15	0.02	0.0004046	2.13e-05
20000	313.15	0.04	0.0004789	2.2e-05
20000	323.15	0.02	0.0003552	2.13e-05
20000	323.15	0.04	0.0004401	2.17e-05
20000	333.15	0.02	0.0003424	2.17e-05
20000	333.15	0.04	0.0004188	2.18e-05
20000	343.15	0.02	0.0003284	2.15e-05
20000	343.15	0.04	0.0003843	2.25e-05
20000	353.15	0.02	0.0002995	2.2e-05
20000	353.15	0.04	0.0003476	2.28e-05
20000	313.15	0.02	0.0004046	2.13e-05
20000	313.15	0.04	0.0004789	2.2e-05
25000	313.15	0.02	0.0004629	2.15e-05
25000	313.15	0.04	0.0005635	2.23e-05
30000	313.15	0.02	0.0005612	2.15e-05
30000	313.15	0.04	0.0006725	2.17e-05
35000	313.15	0.02	0.0006156	2.1e-05
35000	313.15	0.04	0.000727	2.12e-05
40000	313.15	0.02	0.0006827	2.15e-05
40000	313.15	0.04	0.0008054	2.15e-05
