Measured thermophysical data. Vapor-Liquid Equilibria and Interfacial Tensions of the System Ethanol + 2-Methoxy-2-methylpropane
Source: J. Chem. Eng. Data, 2010, 10.1021/je9004068
Compound 1: ethanol, C2H6O, InChI=1S/C2H6O/c1-2-3/h3H,2H2,1H3, purity 99.9%
Compound 2: 2-methoxy-2-methylpropane, C5H12O, InChI=1S/C5H12O/c1-5(2,3)6-4/h1-4H3

System: ethanol; phases: Liquid
Property: Refractive index (Na D-line) (Liquid); method: Standard Abbe refractometry
Temperature, K	Pressure, kPa	Refractive index (Na D-line)	uncertainty
298.15	101.325	1.36068	0.00031

System: ethanol; phases: Liquid
Property: Mass density, kg/m3 (Liquid); method: VIBTUB:UFactor:2
Temperature, K	Pressure, kPa	Mass density, kg/m3	uncertainty
298.15	101.325	785.05	0.31

System: ethanol; phases: Liquid, Air at 1 atmosphere
Property: Surface tension liquid-gas, N/m (Liquid); method: Maximal bubble pressure
Temperature, K	Surface tension liquid-gas, N/m	uncertainty
303.15	0.0217	0.00026

System: ethanol; phases: Liquid, Gas
Property: Vapor or sublimation pressure, kPa (Liquid); method: EBULLIO:UFactor:4
Temperature, K	Vapor or sublimation pressure, kPa	uncertainty
310.89	16.01	0.08
318.88	24.01	0.08
323.51	30.01	0.09
328.54	38.01	0.1
332.24	45.01	0.11
334.57	50	0.11
335.05	51.01	0.11
338.38	59.01	0.13
341.01	66.01	0.14
343.4	73.01	0.14
344.02	75	0.15
345.61	80.01	0.15
347.66	87.01	0.16
349.56	94	0.17
349.58	94.01	0.17
351.65	102.07	0.18

System: 2-methoxy-2-methylpropane; phases: Liquid
Property: Refractive index (Na D-line) (Liquid); method: Standard Abbe refractometry
Temperature, K	Pressure, kPa	Refractive index (Na D-line)	uncertainty
298.15	101.325	1.36766	0.00031

System: 2-methoxy-2-methylpropane; phases: Liquid
Property: Mass density, kg/m3 (Liquid); method: VIBTUB:UFactor:2
Temperature, K	Pressure, kPa	Mass density, kg/m3	uncertainty
298.15	101.325	735.45	0.36

System: 2-methoxy-2-methylpropane; phases: Liquid, Air at 1 atmosphere
Property: Surface tension liquid-gas, N/m (Liquid); method: Maximal bubble pressure
Temperature, K	Surface tension liquid-gas, N/m	uncertainty
303.15	0.0187	0.00025

System: 2-methoxy-2-methylpropane; phases: Liquid, Gas
Property: Vapor or sublimation pressure, kPa (Liquid); method: EBULLIO:UFactor:5
Temperature, K	Vapor or sublimation pressure, kPa	uncertainty
308.3	50	0.12
319.39	75	0.13
325.98	94	0.15

System: ethanol + 2-methoxy-2-methylpropane; phases: Liquid, Air at 1 atmosphere
Fixed: Temperature, K = 303.15
Property: Surface tension liquid-gas, N/m (Liquid); method: Maximal bubble pressure
Mole fraction of ethanol	Surface tension liquid-gas, N/m	uncertainty
0.102	0.01839	0.00025
0.212	0.01838	0.00025
0.31	0.01854	0.00025
0.408	0.01884	0.00025
0.527	0.019	0.00025
0.623	0.01921	0.00025
0.721	0.01956	0.00025
0.826	0.02003	0.00025

System: ethanol + 2-methoxy-2-methylpropane; phases: Liquid, Gas
Property: Azeotropic temperature, K (Liquid); method: By X=Y
Pressure, kPa	Azeotropic temperature, K	uncertainty
75	319.32	0.3
94	325.77	0.3

System: ethanol + 2-methoxy-2-methylpropane; phases: Liquid, Gas
Property: Azeotropic composition: mole fraction of ethanol (Liquid); method: By X=Y
Pressure, kPa	Azeotropic composition: mole fraction of ethanol	uncertainty
75	0.037	0.002
94	0.062	0.002

System: ethanol + 2-methoxy-2-methylpropane; phases: Liquid, Gas
Property: Boiling temperature at pressure P, K (Liquid); method: EBULLIO:UFactor:5
Mole fraction of ethanol	Pressure, kPa	Boiling temperature at pressure P, K	uncertainty
0	50	308.3	0.52
0	75	319.39	0.67
0	94	325.98	0.7
0.045	94	325.88	0.7
0.046	50	308.4	0.51
0.046	75	319.37	0.66
0.082	94	325.92	0.69
0.083	50	308.58	0.51
0.083	75	319.47	0.66
0.145	50	308.96	0.5
0.153	75	319.79	0.65
0.153	94	326.16	0.68
0.213	50	309.47	0.5
0.216	75	320.18	0.64
0.216	94	326.53	0.67
0.268	50	309.94	0.5
0.271	75	320.66	0.64
0.272	94	326.86	0.66
0.314	50	310.41	0.48
0.314	75	320.64	0.63
0.318	94	327.15	0.68
0.368	50	310.93	0.47
0.368	75	320.92	0.62
0.368	94	327.25	0.71
0.413	50	311.26	0.46
0.416	75	321.4	0.64
0.416	94	328.29	0.71
0.464	50	312.14	0.49
0.471	94	328.7	0.64
0.472	75	322.8	0.62
0.515	50	312.9	0.49
0.516	94	329.42	0.63
0.517	75	323.42	0.63
0.56	50	313.62	0.49
0.561	94	329.9	0.64
0.562	75	324.14	0.62
0.608	50	314.44	0.47
0.608	75	324.53	0.64
0.608	94	331.27	0.7
0.655	50	315.54	0.49
0.659	75	326.14	0.63
0.659	94	332.32	0.67
0.71	50	316.99	0.48
0.714	75	327.54	0.63
0.715	94	333.75	0.67
0.783	50	319.54	0.45
0.794	75	329.79	0.61
0.797	94	336.14	0.72
0.834	50	321.92	0.47
0.838	75	332.22	0.62
0.847	94	338.76	0.64
0.885	50	324.74	0.46
0.889	75	334.68	0.6
0.891	94	340.65	0.67
0.928	94	343.32	0.65
0.929	75	337.38	0.6
0.93	50	327.9	0.46
0.957	75	339.48	0.61
0.957	94	345.39	0.68
0.96	50	330.45	0.47
1	50	334.57	0.44
1	75	344.02	0.56
1	94	349.56	0.59

System: ethanol + 2-methoxy-2-methylpropane; phases: Gas, Liquid
Property: Mole fraction of ethanol (Gas); method: Chromatography
Mole fraction of ethanol	Pressure, kPa	Mole fraction of ethanol	uncertainty
0	50	0	0.001
0	75	0	0.001
0	94	0	0.001
0.045	94	0.045	0.008
0.046	50	0.039	0.008
0.046	75	0.043	0.008
0.082	94	0.074	0.007
0.083	50	0.063	0.007
0.083	75	0.07	0.007
0.145	50	0.094	0.007
0.153	75	0.109	0.007
0.153	94	0.117	0.007
0.213	50	0.121	0.007
0.216	75	0.137	0.007
0.216	94	0.147	0.007
0.268	50	0.141	0.006
0.271	75	0.159	0.007
0.272	94	0.171	0.007
0.314	50	0.154	0.006
0.314	75	0.174	0.007
0.318	94	0.19	0.007
0.368	50	0.171	0.006
0.368	75	0.191	0.007
0.368	94	0.207	0.007
0.413	50	0.183	0.007
0.416	75	0.208	0.007
0.416	94	0.225	0.007
0.464	50	0.205	0.007
0.471	94	0.245	0.007
0.472	75	0.231	0.007
0.515	50	0.224	0.007
0.516	94	0.263	0.007
0.517	75	0.249	0.007
0.56	50	0.24	0.007
0.561	94	0.286	0.007
0.562	75	0.271	0.007
0.608	50	0.262	0.007
0.608	75	0.291	0.007
0.608	94	0.315	0.007
0.655	50	0.29	0.008
0.659	75	0.323	0.008
0.659	94	0.343	0.008
0.71	50	0.327	0.008
0.714	75	0.362	0.009
0.715	94	0.386	0.009
0.783	50	0.398	0.01
0.794	75	0.443	0.01
0.797	94	0.473	0.01
0.834	50	0.471	0.012
0.838	75	0.512	0.013
0.847	94	0.542	0.012
0.885	50	0.563	0.015
0.889	75	0.609	0.015
0.891	94	0.628	0.015
0.928	94	0.721	0.018
0.929	75	0.708	0.018
0.93	50	0.682	0.02
0.957	75	0.797	0.026
0.957	94	0.81	0.024
0.96	50	0.797	0.028
1	50	1	0.001
1	75	1	0.001
1	94	1	0.001
