Measured thermophysical data. Solubilities of 1,1-(Hexane-1,6-diyl)-bis(pyridinium) Dihexafluorophosphate in (Water + Acetone)
Source: J. Chem. Eng. Data, 2010, 10.1021/je9004855
Compound 1: acetone, C3H6O, InChI=1S/C3H6O/c1-3(2)4/h1-2H3, purity 99%
Compound 2: water, H2O, InChI=1S/H2O/h1H2
Compound 3: 1,1'-(hexane-1,6-diyl)bis(pyridin-1-ium) hexafluorophosphate, C16H22F12N2P2, InChI=1S/C16H22N2.2F6P/c1(5-11-17-13-7-3-8-14-17)2-6-12-18-15-9-4-10-16-18;2*1-7(2,3,4,5)6/h3-4,7-10,13-16H,1-2,5-6,11-12H2;;/q+2;2*-1, purity 99%

System: 1,1'-(hexane-1,6-diyl)bis(pyridin-1-ium) hexafluorophosphate; phases: Crystal, Liquid, Air at 1 atmosphere
Property: Normal melting temperature, K (Crystal); method: VISOBS
Normal melting temperature, K	uncertainty
507.65	0.87

System: acetone + water + 1,1'-(hexane-1,6-diyl)bis(pyridin-1-ium) hexafluorophosphate; phases: Liquid, Crystal
Fixed: Pressure, kPa = 101
Property: Solid-liquid equilibrium temperature, K (Liquid); method: Closed cell (Static) method
Solvent: Mass fraction of water	Mole fraction of 1,1'-(hexane-1,6-diyl)bis(pyridin-1-ium) hexafluorophosphate	Solid-liquid equilibrium temperature, K	uncertainty
0.1	0.007731	289.25	1.27
0.1	0.009183	295.15	1.65
0.1	0.010044	299.65	1.56
0.1	0.011346	303.65	1.49
0.1	0.012755	308.45	1.39
0.1	0.01471	312.85	1.3
0.1	0.017101	317.95	1.44
0.1	0.019272	322.35	1.51
0.1	0.021529	326.55	1.61
0.2	0.007128	288.15	1.48
0.2	0.008293	294.15	1.46
0.2	0.009285	298.45	1.43
0.2	0.01049	303.15	1.26
0.2	0.01228	308.65	1.38
0.2	0.014018	312.95	1.39
0.2	0.016204	318.25	1.49
0.2	0.018096	322.25	1.51
0.2	0.020982	328.15	1.73
0.3	0.004925	288.15	1.41
0.3	0.00577	294.15	1.48
0.3	0.006501	298.15	1.23
0.3	0.007675	303.15	1.21
0.3	0.009239	308.85	1.25
0.3	0.010542	312.75	1.17
0.3	0.01258	318.25	1.2
0.3	0.014657	322.45	1.1
0.3	0.017376	327.15	1.22
0.4	0.002788	288.75	0.77
0.4	0.003534	293.75	0.94
0.4	0.004312	298.65	0.93
0.4	0.005498	304.15	1.13
0.4	0.006154	307.65	1.08
0.4	0.007318	312.15	1.12
0.4	0.008794	317.65	1.27
0.4	0.0104	323.15	1.42
0.4	0.011909	328.15	1.59
0.5	0.001226	288.85	0.55
0.5	0.001715	293.95	0.7
0.5	0.002255	298.95	0.74
0.5	0.003005	304.15	0.87
0.5	0.003522	307.85	0.86
0.5	0.004287	312.15	1.02
0.5	0.005207	317.65	1.19
0.5	0.006101	322.35	1.31
0.5	0.007131	327.85	1.54
0.6	0.000257	291.35	0.28
0.6	0.000413	294.35	0.31
0.6	0.000786	299.15	0.36
0.6	0.001304	303.85	0.47
0.6	0.001917	308.45	0.51
0.6	0.002588	313.35	0.84
0.6	0.003111	317.95	1.39
0.6	0.003435	322.95	2.93
0.6	0.003552	328.05	6.2
0.7	8e-05	291.15	0.2
0.7	0.000148	294.15	0.29
0.7	0.000293	298.95	0.35
0.7	0.000511	303.65	0.37
0.7	0.000784	308.25	0.47
0.7	0.001119	313.25	0.62
0.7	0.001392	317.75	1.1
0.7	0.001611	322.85	1.99
0.7	0.001705	327.85	3.63
0.8	6.6e-05	288.85	0.28
0.8	9.6e-05	292.85	0.41
0.8	0.000146	298.35	0.63
0.8	0.000216	303.65	0.52
0.8	0.000283	308.15	0.76
0.8	0.000376	313.15	0.57
0.8	0.000456	317.15	0.83
0.8	0.000589	323.15	1.02
0.8	0.000703	328.15	1.79
0.9	3e-05	288.95	0.37
0.9	4e-05	292.95	0.42
0.9	5.8e-05	298.45	0.51
0.9	8.1e-05	303.85	0.71
0.9	0.000106	308.35	0.77
0.9	0.000144	313.35	0.71
0.9	0.000178	317.35	0.8
0.9	0.000244	323.35	0.79
0.9	0.000318	328.35	0.88
