Measured thermophysical data. Solubility of Anthracene in Sub- and Supercritical Propane
Source: J. Chem. Eng. Data, 2010, 10.1021/je900606g
Compound 1: propane, C3H8, InChI=1S/C3H8/c1-3-2/h3H2,1-2H3, purity 99.5%
Compound 2: anthracene, C14H10, InChI=1S/C14H10/c1-2-6-12-10-14-8-4-3-7-13(14)9-11(12)5-1/h1-10H, purity 99%

System: propane + anthracene; phases: Fluid (supercritical or subcritical phases), Crystal
Property: Mole fraction of anthracene (Fluid (supercritical or subcritical phases)); method: visual observation
Temperature, K	Pressure, kPa	Mole fraction of anthracene	uncertainty
298	8410	0.00014	1e-05
323	7467.7	0.00078	1e-05
333	5501.9	0.00097	1e-05
333	8004.7	0.00119	2e-05
333	11297.7	0.00121	2e-05
343	6930.6	0.00151	2e-05
370	4711.6	0.00081	1e-05
370	7569	0.00324	4e-05
370	9798.1	0.00403	5e-05
388	8045.2	0.00355	4e-05
396	7913.5	0.00438	5e-05
405	7589.2	0.0042	5e-05
405	8045.2	0.00571	7e-05
405	8511.3	0.00648	8e-05
405	9413.1	0.00659	8e-05
