Measured thermophysical data. Dynamic Viscosity of the Binary System 1-Propanol + Toluene as a Function of Temperature and Pressure
Source: J. Chem. Eng. Data, 2009, 10.1021/je9002477
Compound 1: propan-1-ol, C3H8O, InChI=1S/C3H8O/c1-2-3-4/h4H,2-3H2,1H3
Compound 2: toluene, C7H8, InChI=1S/C7H8/c1-7-5-3-2-4-6-7/h2-6H,1H3

System: propan-1-ol; phases: Liquid
Property: Viscosity, Pa*s (Liquid); method: Capillary tube (Ostwald; Ubbelohde) method
Pressure, kPa	Temperature, K	Viscosity, Pa*s	uncertainty
100	293.15	0.002204	6.2e-05
100	313.15	0.001383	4.3e-05
100	333.15	0.000913	2.7e-05
100	353.15	0.00063	1.9e-05
20000	293.15	0.002545	7.1e-05
20000	313.15	0.001603	5e-05
20000	333.15	0.001086	3.2e-05
20000	353.15	0.000734	2.3e-05
40000	293.15	0.002855	7.7e-05
40000	313.15	0.001871	5.6e-05
40000	333.15	0.001263	3.7e-05
40000	353.15	0.000845	2.7e-05
60000	293.15	0.003191	8.5e-05
60000	313.15	0.002146	6.3e-05
60000	333.15	0.001439	4.2e-05
60000	353.15	0.000962	3.1e-05
80000	293.15	0.003613	9.8e-05
80000	313.15	0.002401	7.1e-05
80000	333.15	0.001614	4.7e-05
80000	353.15	0.001092	3.4e-05
100000	293.15	0.004149	0.000115
100000	313.15	0.002618	8.1e-05
100000	333.15	0.001786	5.1e-05
100000	353.15	0.001242	3.8e-05

System: toluene; phases: Liquid
Property: Viscosity, Pa*s (Liquid); method: Capillary tube (Ostwald; Ubbelohde) method
Pressure, kPa	Temperature, K	Viscosity, Pa*s	uncertainty
100	293.15	0.00059	1.4e-05
100	313.15	0.000469	1.1e-05
100	333.15	0.00038	9e-06
100	353.15	0.000318	8e-06
20000	293.15	0.000687	1.6e-05
20000	313.15	0.000546	1.3e-05
20000	333.15	0.000446	1e-05
20000	353.15	0.000372	9e-06
40000	293.15	0.000791	1.9e-05
40000	313.15	0.000628	1.5e-05
40000	333.15	0.000513	1.2e-05
40000	353.15	0.000428	1e-05
60000	293.15	0.000903	2.1e-05
60000	313.15	0.000715	1.7e-05
60000	333.15	0.000584	1.4e-05
60000	353.15	0.000487	1.1e-05
80000	293.15	0.001024	2.4e-05
80000	313.15	0.000807	1.9e-05
80000	333.15	0.000657	1.5e-05
80000	353.15	0.000548	1.3e-05
100000	293.15	0.001156	2.7e-05
100000	313.15	0.000906	2.2e-05
100000	333.15	0.000735	1.7e-05
100000	353.15	0.000612	1.4e-05

System: propan-1-ol + toluene; phases: Liquid
Property: Viscosity, Pa*s (Liquid); method: Capillary tube (Ostwald; Ubbelohde) method
Mole fraction of propan-1-ol	Pressure, kPa	Temperature, K	Viscosity, Pa*s	uncertainty
0	100	293.15	0.00059	1.4e-05
0	100	313.15	0.000469	1.1e-05
0	100	333.15	0.00038	9e-06
0	100	353.15	0.000318	8e-06
0	20000	293.15	0.000687	1.6e-05
0	20000	313.15	0.000546	1.3e-05
0	20000	333.15	0.000446	1e-05
0	20000	353.15	0.000372	9e-06
0	40000	293.15	0.000791	1.9e-05
0	40000	313.15	0.000628	1.5e-05
0	40000	333.15	0.000513	1.2e-05
0	40000	353.15	0.000428	1e-05
0	60000	293.15	0.000903	2.1e-05
0	60000	313.15	0.000715	1.7e-05
0	60000	333.15	0.000584	1.4e-05
0	60000	353.15	0.000487	1.1e-05
0	80000	293.15	0.001024	2.4e-05
0	80000	313.15	0.000807	1.9e-05
0	80000	333.15	0.000657	1.5e-05
0	80000	353.15	0.000548	1.3e-05
0	100000	293.15	0.001156	2.7e-05
0	100000	313.15	0.000906	2.2e-05
0	100000	333.15	0.000735	1.7e-05
0	100000	353.15	0.000612	1.4e-05
0.125	100	293.15	0.000611	1.5e-05
0.125	100	313.15	0.000479	1.2e-05
0.125	100	333.15	0.000388	9e-06
0.125	100	353.15	0.000322	8e-06
0.125	20000	293.15	0.000698	1.7e-05
0.125	20000	313.15	0.000548	1.3e-05
0.125	20000	333.15	0.000443	1e-05
0.125	20000	353.15	0.000367	9e-06
0.125	40000	293.15	0.000799	1.9e-05
0.125	40000	313.15	0.000625	1.5e-05
0.125	40000	333.15	0.000512	1.2e-05
0.125	40000	353.15	0.000421	1e-05
0.125	60000	293.15	0.000905	2.2e-05
0.125	60000	313.15	0.000704	1.7e-05
0.125	60000	333.15	0.000581	1.4e-05
0.125	60000	353.15	0.000477	1.1e-05
0.125	80000	293.15	0.001018	2.5e-05
0.125	80000	313.15	0.000788	1.9e-05
0.125	80000	333.15	0.00065	1.5e-05
0.125	80000	353.15	0.000535	1.3e-05
0.125	100000	293.15	0.001137	2.8e-05
0.125	100000	313.15	0.000877	2.1e-05
0.125	100000	333.15	0.000719	1.7e-05
0.125	100000	353.15	0.000597	1.4e-05
0.25	100	293.15	0.000636	1.6e-05
0.25	100	313.15	0.000495	1.2e-05
0.25	100	333.15	0.000396	9e-06
0.25	100	353.15	0.000325	8e-06
0.25	20000	293.15	0.000742	1.8e-05
0.25	20000	313.15	0.00058	1.4e-05
0.25	20000	333.15	0.000457	1.1e-05
0.25	20000	353.15	0.000371	9e-06
0.25	40000	293.15	0.000849	2e-05
0.25	40000	313.15	0.000664	1.6e-05
0.25	40000	333.15	0.00053	1.3e-05
0.25	40000	353.15	0.00043	1e-05
0.25	60000	293.15	0.000964	2.3e-05
0.25	60000	313.15	0.00075	1.8e-05
0.25	60000	333.15	0.000601	1.4e-05
0.25	60000	353.15	0.000489	1.2e-05
0.25	80000	293.15	0.001091	2.7e-05
0.25	80000	313.15	0.00084	2e-05
0.25	80000	333.15	0.000671	1.6e-05
0.25	80000	353.15	0.00055	1.3e-05
0.25	100000	293.15	0.001231	3.1e-05
0.25	100000	313.15	0.000933	2.3e-05
0.25	100000	333.15	0.000739	1.7e-05
0.25	100000	353.15	0.000612	1.4e-05
0.375	100	293.15	0.000747	1.9e-05
0.375	100	313.15	0.000554	1.4e-05
0.375	100	333.15	0.000431	1.1e-05
0.375	100	353.15	0.000346	9e-06
0.375	20000	293.15	0.000834	2.1e-05
0.375	20000	313.15	0.000627	1.6e-05
0.375	20000	333.15	0.00049	1.2e-05
0.375	20000	353.15	0.000391	1e-05
0.375	40000	293.15	0.000959	2.4e-05
0.375	40000	313.15	0.00072	1.8e-05
0.375	40000	333.15	0.000568	1.4e-05
0.375	40000	353.15	0.000451	1.1e-05
0.375	60000	293.15	0.0011	2.7e-05
0.375	60000	313.15	0.00082	2.1e-05
0.375	60000	333.15	0.000647	1.6e-05
0.375	60000	353.15	0.000513	1.3e-05
0.375	80000	293.15	0.001264	3.2e-05
0.375	80000	313.15	0.000924	2.4e-05
0.375	80000	333.15	0.000727	1.8e-05
0.375	80000	353.15	0.000576	1.4e-05
0.375	100000	293.15	0.001456	3.7e-05
0.375	100000	313.15	0.001034	2.7e-05
0.375	100000	333.15	0.000807	2e-05
0.375	100000	353.15	0.00064	1.6e-05
0.5	100	293.15	0.000875	2.3e-05
0.5	100	313.15	0.000625	1.7e-05
0.5	100	333.15	0.000472	1.2e-05
0.5	100	353.15	0.000369	9e-06
0.5	20000	293.15	0.00101	2.6e-05
0.5	20000	313.15	0.000707	1.9e-05
0.5	20000	333.15	0.000537	1.4e-05
0.5	20000	353.15	0.000415	1.1e-05
0.5	40000	293.15	0.001159	3e-05
0.5	40000	313.15	0.000827	2.2e-05
0.5	40000	333.15	0.00062	1.6e-05
0.5	40000	353.15	0.000479	1.2e-05
0.5	60000	293.15	0.001312	3.3e-05
0.5	60000	313.15	0.00095	2.5e-05
0.5	60000	333.15	0.000704	1.8e-05
0.5	60000	353.15	0.000547	1.4e-05
0.5	80000	293.15	0.001483	3.8e-05
0.5	80000	313.15	0.001072	2.8e-05
0.5	80000	333.15	0.000789	2e-05
0.5	80000	353.15	0.000621	1.5e-05
0.5	100000	293.15	0.001677	4.4e-05
0.5	100000	313.15	0.001191	3.2e-05
0.5	100000	333.15	0.000876	2.2e-05
0.5	100000	353.15	0.000702	1.7e-05
0.625	100	293.15	0.001055	2.8e-05
0.625	100	313.15	0.000728	2e-05
0.625	100	333.15	0.000532	1.4e-05
0.625	100	353.15	0.000404	1.1e-05
0.625	20000	293.15	0.001217	3.2e-05
0.625	20000	313.15	0.000838	2.3e-05
0.625	20000	333.15	0.000606	1.6e-05
0.625	20000	353.15	0.000455	1.2e-05
0.625	40000	293.15	0.001391	3.6e-05
0.625	40000	313.15	0.000973	2.7e-05
0.625	40000	333.15	0.000706	1.9e-05
0.625	40000	353.15	0.000529	1.4e-05
0.625	60000	293.15	0.001575	4.1e-05
0.625	60000	313.15	0.001107	3e-05
0.625	60000	333.15	0.000804	2.1e-05
0.625	60000	353.15	0.000606	1.6e-05
0.625	80000	293.15	0.001787	4.7e-05
0.625	80000	313.15	0.001234	3.4e-05
0.625	80000	333.15	0.000901	2.3e-05
0.625	80000	353.15	0.000689	1.8e-05
0.625	100000	293.15	0.002036	5.5e-05
0.625	100000	313.15	0.001349	3.8e-05
0.625	100000	333.15	0.000997	2.5e-05
0.625	100000	353.15	0.000779	1.9e-05
0.75	100	293.15	0.001312	3.6e-05
0.75	100	313.15	0.000876	2.5e-05
0.75	100	333.15	0.000617	1.7e-05
0.75	100	353.15	0.000454	1.2e-05
0.75	20000	293.15	0.001524	4.1e-05
0.75	20000	313.15	0.001023	2.9e-05
0.75	20000	333.15	0.000717	2e-05
0.75	20000	353.15	0.00052	1.5e-05
0.75	40000	293.15	0.001708	4.5e-05
0.75	40000	313.15	0.001185	3.3e-05
0.75	40000	333.15	0.000837	2.3e-05
0.75	40000	353.15	0.000603	1.7e-05
0.75	60000	293.15	0.001908	5e-05
0.75	60000	313.15	0.001347	3.7e-05
0.75	60000	333.15	0.000955	2.6e-05
0.75	60000	353.15	0.000689	1.9e-05
0.75	80000	293.15	0.002152	5.8e-05
0.75	80000	313.15	0.001496	4.1e-05
0.75	80000	333.15	0.00107	2.9e-05
0.75	80000	353.15	0.000779	2.2e-05
0.75	100000	293.15	0.002452	7e-05
0.75	100000	313.15	0.001626	4.6e-05
0.75	100000	333.15	0.001183	3.1e-05
0.75	100000	353.15	0.000877	2.3e-05
0.875	100	293.15	0.001685	4.8e-05
0.875	100	313.15	0.001087	3.3e-05
0.875	100	333.15	0.00074	2.1e-05
0.875	100	353.15	0.000526	1.5e-05
0.875	20000	293.15	0.001922	5.4e-05
0.875	20000	313.15	0.001242	3.7e-05
0.875	20000	333.15	0.000859	2.4e-05
0.875	20000	353.15	0.000607	1.8e-05
0.875	40000	293.15	0.002169	5.9e-05
0.875	40000	313.15	0.001452	4.2e-05
0.875	40000	333.15	0.000999	2.8e-05
0.875	40000	353.15	0.000701	2.1e-05
0.875	60000	293.15	0.002445	6.6e-05
0.875	60000	313.15	0.001664	4.8e-05
0.875	60000	333.15	0.001137	3.2e-05
0.875	60000	353.15	0.000798	2.3e-05
0.875	80000	293.15	0.00279	7.6e-05
0.875	80000	313.15	0.00186	5.4e-05
0.875	80000	333.15	0.001274	3.6e-05
0.875	80000	353.15	0.000906	2.6e-05
0.875	100000	293.15	0.003229	9.2e-05
0.875	100000	313.15	0.002029	6.2e-05
0.875	100000	333.15	0.001407	3.9e-05
0.875	100000	353.15	0.001027	2.8e-05
1	100	293.15	0.002204	6.2e-05
1	100	313.15	0.001383	4.3e-05
1	100	333.15	0.000913	2.7e-05
1	100	353.15	0.00063	1.9e-05
1	20000	293.15	0.002545	7.1e-05
1	20000	313.15	0.001603	5e-05
1	20000	333.15	0.001086	3.2e-05
1	20000	353.15	0.000734	2.3e-05
1	40000	293.15	0.002855	7.7e-05
1	40000	313.15	0.001871	5.6e-05
1	40000	333.15	0.001263	3.7e-05
1	40000	353.15	0.000845	2.7e-05
1	60000	293.15	0.003191	8.5e-05
1	60000	313.15	0.002146	6.3e-05
1	60000	333.15	0.001439	4.2e-05
1	60000	353.15	0.000962	3.1e-05
1	80000	293.15	0.003613	9.8e-05
1	80000	313.15	0.002401	7.1e-05
1	80000	333.15	0.001614	4.7e-05
1	80000	353.15	0.001092	3.4e-05
1	100000	293.15	0.004149	0.000115
1	100000	313.15	0.002618	8.1e-05
1	100000	333.15	0.001786	5.1e-05
1	100000	353.15	0.001242	3.8e-05
