Measured thermophysical data. Stability and Thermodynamics of Thermochromic Cobalt(II) Chloride Complexes in Low-Melting Phase Change Materials
Source: J. Chem. Eng. Data, 2010, 10.1021/je9009267
Compound 1: ammonium chloride (NH4Cl), ClH4N, InChI=1S/ClH.H3N/h1H;1H3
Compound 2: ammonium nitrate, H4N2O3, InChI=1S/NO3.H3N/c2-1(3)4;/h;1H3/q-1;/p+1
Compound 3: calcium nitrate tetrahydrate, CaH8N2O10, InChI=1S/Ca.2NO3.4H2O/c;2*2-1(3)4;;;;/h;;;4*1H2/q+2;2*-1;;;;

System: ammonium nitrate + calcium nitrate tetrahydrate; phases: Liquid
Fixed: Pressure, kPa = 101.3
Property: Mass density, kg/m3 (Liquid); method: Pycnometric method
Mole fraction of calcium nitrate tetrahydrate	Temperature, K	Mass density, kg/m3	uncertainty
0.3	318.15	1637	35.4
0.3	328.15	1629.7	35.3
0.3	338.15	1622.4	35.1
0.4	318.15	1642.4	35.6
0.4	328.15	1634.1	35.4
0.4	338.15	1625.7	35.2
0.5	318.15	1707	37.2
0.5	328.15	1694.1	36.9
0.5	338.15	1688.3	36.8
0.6	318.15	1675.7	36.5
0.6	328.15	1668.9	36.2
0.6	338.15	1662.1	36.1
0.7	318.15	1714.3	37.4
0.7	328.15	1706	37.2
0.7	338.15	1697.7	37

System: ammonium nitrate + ammonium chloride (NH4Cl) + calcium nitrate tetrahydrate; phases: Liquid
Fixed: Pressure, kPa = 101
Property: Mass density, kg/m3 (Liquid); method: Pycnometric method
Molality, mol/kg of ammonium chloride (NH4Cl)	Solvent: Mole fraction of calcium nitrate tetrahydrate	Temperature, K	Mass density, kg/m3	uncertainty
0	0.3	318.15	1637	35.4
0	0.3	328.15	1629.7	35.3
0	0.3	338.15	1622.4	35.1
0	0.4	318.15	1642.4	35.6
0	0.4	328.15	1634.1	35.4
0	0.4	338.15	1625.7	35.2
0	0.5	318.15	1707	37.2
0	0.5	328.15	1694.1	36.9
0	0.5	338.15	1688.3	36.8
0	0.6	318.15	1675.7	36.5
0	0.6	328.15	1668.9	36.2
0	0.6	338.15	1662.1	36.1
0	0.7	318.15	1714.3	37.4
0	0.7	328.15	1706	37.2
0	0.7	338.15	1697.7	37
0.3002	0.3	318.15	1633.1	35.3
0.3002	0.3	328.15	1625.8	35.2
0.3002	0.3	338.15	1618.6	35
0.3544	0.4	318.15	1635.9	35.4
0.3544	0.4	328.15	1627.7	35.2
0.3544	0.4	338.15	1619.5	35
0.4159	0.5	318.15	1693.1	36.8
0.4159	0.5	328.15	1685.4	36.7
0.4159	0.5	338.15	1673.4	36.4
0.4785	0.6	318.15	1665	36.1
0.4785	0.6	328.15	1656.1	35.9
0.4785	0.6	338.15	1647.5	35.7
0.5091	0.7	318.15	1704.6	37.1
0.5091	0.7	328.15	1696.5	36.9
0.5091	0.7	338.15	1688.4	36.7
0.6876	0.3	318.15	1628.9	35.2
0.6876	0.3	328.15	1621.9	35.1
0.6876	0.3	338.15	1615	34.9
0.7705	0.4	318.15	1628.5	35.2
0.7705	0.4	328.15	1621.2	35.1
0.7705	0.4	338.15	1613.8	34.9
0.8234	0.5	318.15	1680.9	36.5
0.8234	0.5	328.15	1672.9	36.3
0.8234	0.5	338.15	1665.8	36.2
0.9722	0.6	318.15	1650.1	35.8
0.9722	0.6	328.15	1641.8	35.6
0.9722	0.6	338.15	1633.6	35.4
1.0362	0.7	318.15	1689.5	36.7
1.0362	0.7	328.15	1682.8	36.6
1.0362	0.7	338.15	1676.1	36.4
1.0365	0.3	318.15	1622	35.1
1.0365	0.3	328.15	1615.4	34.9
1.0365	0.3	338.15	1608.9	34.8
1.1446	0.4	318.15	1614.5	34.9
1.1446	0.4	328.15	1608.9	34.8
1.1446	0.4	338.15	1603.3	34.6
1.2533	0.5	318.15	1666.6	36.2
1.2533	0.5	328.15	1657.3	36
1.2533	0.5	338.15	1652.2	35.8
1.4483	0.6	318.15	1638.1	35.5
1.4483	0.6	328.15	1628.6	35.2
1.4483	0.6	338.15	1619.2	35
1.4725	0.7	318.15	1672.5	36.3
1.4725	0.7	328.15	1666.9	36.2
1.4725	0.7	338.15	1661.3	36.1
