Measured thermophysical data. Dependence against Temperature and Pressure of the Isobaric Thermal Expansivity of Room Temperature Ionic Liquids
Source: J. Chem. Eng. Data, 2010, 10.1021/je900482x
Compound 1: 1-butyl-3-methylpyridinium tetrafluoroborate, C10H16BF4N, InChI=1S/C10H16N.BF4/c1-3-4-7-11-8-5-6-10(2)9-11;2-1(3,4)5/h5-6,8-9H,3-4,7H2,1-2H3;/q+1;-1, purity 99%
Compound 2: 1-ethyl-3-methylimidazolium tetrafluoroborate, C6H11BF4N2, InChI=1S/C6H11N2.BF4/c1-3-8-5-4-7(2)6-8;2-1(3,4)5/h4-6H,3H2,1-2H3;/q+1;-1, purity 99%
Compound 3: 1-hexyl-3-methylimidazolium tetrafluoroborate, C10H19BF4N2, InChI=1S/C10H19N2.BF4/c1-3-4-5-6-7-12-9-8-11(2)10-12;2-1(3,4)5/h8-10H,3-7H2,1-2H3;/q+1;-1, purity 99%
Compound 4: 1-methyl-3-octylimidazolium tetrafluoroborate, C12H23BF4N2, InChI=1S/C12H23N2.BF4/c1-3-4-5-6-7-8-9-14-11-10-13(2)12-14;2-1(3,4)5/h10-12H,3-9H2,1-2H3;/q+1;-1, purity 99%
Compound 5: 1-ethyl-3-methylimidazolium bis((trifluoromethyl)sulfonyl)imide, C8H11F6N3O4S2, InChI=1S/C6H11N2.C2F6NO4S2/c1-3-8-5-4-7(2)6-8;3-1(4,5)14(10,11)9-15(12,13)2(6,7)8/h4-6H,3H2,1-2H3;/q+1;-1, purity 99%
Compound 6: 1-hexyl-3-methylimidazolium bis[(trifluoromethyl)sulfonyl]imide, C12H19F6N3O4S2, InChI=1S/C10H19N2.C2F6NO4S2/c1-3-4-5-6-7-12-9-8-11(2)10-12;3-1(4,5)14(10,11)9-15(12,13)2(6,7)8/h8-10H,3-7H2,1-2H3;/q+1;-1, purity 99%

System: 1-butyl-3-methylpyridinium tetrafluoroborate; phases: Liquid
Property: Isobaric coefficient of expansion, 1/K (Liquid); method: Microcalorimeter
Temperature, K	Pressure, kPa	Isobaric coefficient of expansion, 1/K	uncertainty
278.15	5000	0.00060729	1.488e-05
278.15	10000	0.0006008	1.472e-05
278.15	15000	0.0005958	1.459e-05
278.15	20000	0.00059121	1.448e-05
278.15	25000	0.00058403	1.431e-05
278.15	30000	0.00058107	1.423e-05
278.15	35000	0.0005758	1.41e-05
278.15	40000	0.0005703	1.397e-05
278.15	45000	0.00056572	1.386e-05
278.15	50000	0.00056026	1.372e-05
288.15	5000	0.0006004	1.471e-05
288.15	10000	0.00059295	1.452e-05
288.15	15000	0.00058756	1.439e-05
288.15	20000	0.00058474	1.432e-05
288.15	25000	0.00058121	1.424e-05
288.15	30000	0.00057513	1.409e-05
288.15	35000	0.00056939	1.395e-05
288.15	40000	0.00056384	1.381e-05
288.15	45000	0.00056205	1.377e-05
288.15	50000	0.00055761	1.366e-05
298.15	5000	0.00059416	1.455e-05
298.15	10000	0.00058929	1.443e-05
298.15	15000	0.00058231	1.426e-05
298.15	20000	0.00057742	1.414e-05
298.15	25000	0.00057245	1.402e-05
298.15	30000	0.00056629	1.387e-05
298.15	35000	0.00056043	1.373e-05
298.15	40000	0.00055557	1.361e-05
298.15	45000	0.00055113	1.35e-05
298.15	50000	0.00054868	1.344e-05
308.15	5000	0.00058819	1.441e-05
308.15	10000	0.00058188	1.425e-05
308.15	15000	0.00057617	1.411e-05
308.15	20000	0.00056897	1.394e-05
308.15	25000	0.00056295	1.379e-05
308.15	30000	0.00055975	1.371e-05
308.15	35000	0.0005554	1.36e-05
308.15	40000	0.00055125	1.35e-05
308.15	45000	0.00054516	1.335e-05
308.15	50000	0.00054055	1.324e-05
318.15	5000	0.000579669	1.4199e-05
318.15	10000	0.000578276	1.4165e-05
318.15	15000	0.000572684	1.4028e-05
318.15	20000	0.000565001	1.384e-05
318.15	25000	0.00055984	1.371e-05
318.15	30000	0.00055446	1.358e-05
318.15	35000	0.000550856	1.3493e-05
318.15	40000	0.000545244	1.3356e-05
318.15	45000	0.000538915	1.3201e-05
318.15	50000	0.00053525	1.311e-05
328.15	5000	0.00057537	1.409e-05
328.15	10000	0.00056988	1.396e-05
328.15	15000	0.00056763	1.39e-05
328.15	20000	0.00056003	1.372e-05
328.15	25000	0.00055373	1.356e-05
328.15	30000	0.0005493	1.346e-05
328.15	35000	0.00054455	1.334e-05
328.15	40000	0.00053862	1.319e-05
328.15	45000	0.00053487	1.31e-05
328.15	50000	0.00053111	1.301e-05
338.15	5000	0.00057149	1.4e-05
338.15	10000	0.00056729	1.39e-05
338.15	15000	0.00056224	1.377e-05
338.15	20000	0.00055428	1.358e-05
338.15	25000	0.00054883	1.344e-05
338.15	30000	0.00054525	1.336e-05
338.15	35000	0.00053912	1.321e-05
338.15	40000	0.00053562	1.312e-05
338.15	45000	0.00053042	1.299e-05
338.15	50000	0.00052885	1.295e-05
348.15	5000	0.00056787	1.391e-05
348.15	10000	0.00056246	1.378e-05
348.15	15000	0.00055742	1.365e-05
348.15	20000	0.00055394	1.357e-05
348.15	25000	0.00054757	1.341e-05
348.15	30000	0.00054209	1.328e-05
348.15	35000	0.00053956	1.322e-05
348.15	40000	0.00053369	1.307e-05
348.15	45000	0.00052922	1.296e-05
348.15	50000	0.00052615	1.289e-05

System: 1-ethyl-3-methylimidazolium tetrafluoroborate; phases: Liquid
Property: Isobaric coefficient of expansion, 1/K (Liquid); method: Microcalorimeter
Temperature, K	Pressure, kPa	Isobaric coefficient of expansion, 1/K	uncertainty
278.15	5000	0.00061317	1.502e-05
278.15	10000	0.00060496	1.482e-05
278.15	15000	0.00059588	1.46e-05
278.15	20000	0.00059105	1.448e-05
278.15	25000	0.00058464	1.432e-05
278.15	30000	0.00058038	1.422e-05
278.15	35000	0.00057357	1.405e-05
278.15	40000	0.00056747	1.39e-05
278.15	45000	0.00056031	1.372e-05
278.15	50000	0.00055477	1.359e-05
288.15	5000	0.00061379	1.503e-05
288.15	10000	0.00060236	1.475e-05
288.15	15000	0.00059093	1.447e-05
288.15	20000	0.0005874	1.439e-05
288.15	25000	0.00058144	1.424e-05
288.15	30000	0.00057443	1.407e-05
288.15	35000	0.00056909	1.394e-05
288.15	40000	0.0005614	1.375e-05
288.15	45000	0.00055579	1.361e-05
288.15	50000	0.00055365	1.356e-05
298.15	5000	0.00060087	1.472e-05
298.15	10000	0.00059563	1.459e-05
298.15	15000	0.00058737	1.439e-05
298.15	20000	0.00058049	1.422e-05
298.15	25000	0.0005752	1.409e-05
298.15	30000	0.00056752	1.39e-05
298.15	35000	0.00056145	1.375e-05
298.15	40000	0.00055354	1.356e-05
298.15	45000	0.00054927	1.345e-05
298.15	50000	0.00054498	1.335e-05
308.15	5000	0.00059667	1.462e-05
308.15	10000	0.0005889	1.443e-05
308.15	15000	0.0005808	1.423e-05
308.15	20000	0.00057282	1.403e-05
308.15	25000	0.00056615	1.387e-05
308.15	30000	0.00056073	1.374e-05
308.15	35000	0.00055444	1.358e-05
308.15	40000	0.00054986	1.347e-05
308.15	45000	0.00054176	1.327e-05
308.15	50000	0.00053695	1.315e-05
318.15	5000	0.00058905	1.443e-05
318.15	10000	0.0005847	1.432e-05
318.15	15000	0.00057627	1.412e-05
318.15	20000	0.00056879	1.393e-05
318.15	25000	0.0005629	1.379e-05
318.15	30000	0.00055605	1.362e-05
318.15	35000	0.00055007	1.347e-05
318.15	40000	0.0005438	1.332e-05
318.15	45000	0.00053698	1.315e-05
318.15	50000	0.00053155	1.302e-05
328.15	5000	0.00058457	1.432e-05
328.15	10000	0.00057823	1.416e-05
328.15	15000	0.00057283	1.403e-05
328.15	20000	0.00056555	1.385e-05
328.15	25000	0.00055686	1.364e-05
328.15	30000	0.0005503	1.348e-05
328.15	35000	0.00054428	1.333e-05
328.15	40000	0.00053706	1.316e-05
328.15	45000	0.00053257	1.305e-05
328.15	50000	0.00052767	1.293e-05
338.15	5000	0.00058245	1.427e-05
338.15	10000	0.00057354	1.405e-05
338.15	15000	0.00056928	1.394e-05
338.15	20000	0.00055984	1.371e-05
338.15	25000	0.0005528	1.354e-05
338.15	30000	0.0005487	1.344e-05
338.15	35000	0.0005396	1.322e-05
338.15	40000	0.00053436	1.309e-05
338.15	45000	0.00052891	1.296e-05
338.15	50000	0.00052477	1.285e-05
348.15	5000	0.00057854	1.417e-05
348.15	10000	0.0005741	1.406e-05
348.15	15000	0.00056601	1.386e-05
348.15	20000	0.00056166	1.376e-05
348.15	25000	0.00055402	1.357e-05
348.15	30000	0.00054639	1.338e-05
348.15	35000	0.00054	1.323e-05
348.15	40000	0.00053304	1.306e-05
348.15	45000	0.00052716	1.291e-05
348.15	50000	0.0005213	1.277e-05

System: 1-hexyl-3-methylimidazolium tetrafluoroborate; phases: Liquid
Property: Isobaric coefficient of expansion, 1/K (Liquid); method: Microcalorimeter
Temperature, K	Pressure, kPa	Isobaric coefficient of expansion, 1/K	uncertainty
278.15	5000	0.00062099	1.521e-05
278.15	10000	0.00061283	1.501e-05
278.15	15000	0.00060464	1.481e-05
278.15	20000	0.00059798	1.465e-05
278.15	25000	0.00059014	1.446e-05
278.15	30000	0.00058372	1.43e-05
278.15	35000	0.0005763	1.412e-05
278.15	40000	0.00057196	1.401e-05
278.15	45000	0.00056207	1.377e-05
278.15	50000	0.00055761	1.366e-05
288.15	5000	0.00061599	1.509e-05
288.15	10000	0.0006064	1.485e-05
288.15	15000	0.0005998	1.469e-05
288.15	20000	0.00059287	1.452e-05
288.15	25000	0.00058633	1.436e-05
288.15	30000	0.00057901	1.418e-05
288.15	35000	0.00057243	1.402e-05
288.15	40000	0.00056475	1.383e-05
288.15	45000	0.00055833	1.368e-05
288.15	50000	0.0005546	1.358e-05
298.15	5000	0.00061046	1.495e-05
298.15	10000	0.00060325	1.478e-05
298.15	15000	0.00059488	1.457e-05
298.15	20000	0.00058591	1.435e-05
298.15	25000	0.00057998	1.421e-05
298.15	30000	0.00057259	1.403e-05
298.15	35000	0.00056371	1.381e-05
298.15	40000	0.00055776	1.366e-05
298.15	45000	0.00055221	1.353e-05
298.15	50000	0.00054683	1.339e-05
308.15	5000	0.0006054	1.483e-05
308.15	10000	0.00059634	1.461e-05
308.15	15000	0.00058898	1.443e-05
308.15	20000	0.00057904	1.418e-05
308.15	25000	0.00057187	1.401e-05
308.15	30000	0.00056494	1.384e-05
308.15	35000	0.00055969	1.371e-05
308.15	40000	0.00055313	1.355e-05
308.15	45000	0.0005453	1.336e-05
308.15	50000	0.00054089	1.325e-05
318.15	5000	0.00059927	1.468e-05
318.15	10000	0.00059427	1.456e-05
318.15	15000	0.00058466	1.432e-05
318.15	20000	0.00057332	1.404e-05
318.15	25000	0.00056637	1.387e-05
318.15	30000	0.00056	1.372e-05
318.15	35000	0.00055368	1.356e-05
318.15	40000	0.00054487	1.335e-05
318.15	45000	0.00053727	1.316e-05
318.15	50000	0.00053214	1.303e-05
328.15	5000	0.00059407	1.455e-05
328.15	10000	0.00058667	1.437e-05
328.15	15000	0.00057968	1.42e-05
328.15	20000	0.00057199	1.401e-05
328.15	25000	0.00056175	1.376e-05
328.15	30000	0.00055487	1.359e-05
328.15	35000	0.00054901	1.345e-05
328.15	40000	0.00054022	1.323e-05
328.15	45000	0.00053587	1.313e-05
328.15	50000	0.00053079	1.3e-05
338.15	5000	0.00059147	1.449e-05
338.15	10000	0.00058378	1.43e-05
338.15	15000	0.00057546	1.41e-05
338.15	20000	0.00056744	1.39e-05
338.15	25000	0.00055799	1.367e-05
338.15	30000	0.000553	1.355e-05
338.15	35000	0.00054447	1.334e-05
338.15	40000	0.00053784	1.317e-05
338.15	45000	0.00053207	1.303e-05
338.15	50000	0.00052838	1.294e-05
348.15	5000	0.00058848	1.441e-05
348.15	10000	0.00058166	1.425e-05
348.15	15000	0.00057185	1.401e-05
348.15	20000	0.00056253	1.378e-05
348.15	25000	0.00055547	1.361e-05
348.15	30000	0.00054801	1.342e-05
348.15	35000	0.00054307	1.33e-05
348.15	40000	0.0005348	1.31e-05
348.15	45000	0.0005292	1.296e-05
348.15	50000	0.00052191	1.278e-05

System: 1-methyl-3-octylimidazolium tetrafluoroborate; phases: Liquid
Property: Isobaric coefficient of expansion, 1/K (Liquid); method: Microcalorimeter
Temperature, K	Pressure, kPa	Isobaric coefficient of expansion, 1/K	uncertainty
278.15	5000	0.00062099	1.242e-05
278.15	10000	0.00061283	1.226e-05
278.15	15000	0.00060464	1.209e-05
278.15	20000	0.00059798	1.196e-05
278.15	25000	0.00059014	1.18e-05
278.15	30000	0.00058372	1.167e-05
278.15	35000	0.0005763	1.153e-05
278.15	40000	0.00057196	1.144e-05
278.15	45000	0.00056207	1.124e-05
278.15	50000	0.00055761	1.115e-05
288.15	5000	0.00061599	1.232e-05
288.15	10000	0.0006064	1.213e-05
288.15	15000	0.0005998	1.2e-05
288.15	20000	0.00059287	1.186e-05
288.15	25000	0.00058633	1.173e-05
288.15	30000	0.00057901	1.158e-05
288.15	35000	0.00057243	1.145e-05
288.15	40000	0.00056475	1.13e-05
288.15	45000	0.00055833	1.117e-05
288.15	50000	0.0005546	1.109e-05
298.15	5000	0.00061046	1.221e-05
298.15	10000	0.00060325	1.207e-05
298.15	15000	0.00059488	1.19e-05
298.15	20000	0.00058591	1.172e-05
298.15	25000	0.00057998	1.16e-05
298.15	30000	0.00057259	1.145e-05
298.15	35000	0.00056371	1.127e-05
298.15	40000	0.00055776	1.116e-05
298.15	45000	0.00055221	1.104e-05
298.15	50000	0.00054683	1.094e-05
308.15	5000	0.0006054	1.211e-05
308.15	10000	0.00059634	1.193e-05
308.15	15000	0.00058898	1.178e-05
308.15	20000	0.00057904	1.158e-05
308.15	25000	0.00057187	1.144e-05
308.15	30000	0.00056494	1.13e-05
308.15	35000	0.00055969	1.119e-05
308.15	40000	0.00055313	1.106e-05
308.15	45000	0.0005453	1.091e-05
308.15	50000	0.00054089	1.082e-05
318.15	5000	0.00059927	1.199e-05
318.15	10000	0.00059427	1.189e-05
318.15	15000	0.00058466	1.169e-05
318.15	20000	0.00057332	1.147e-05
318.15	25000	0.00056637	1.133e-05
318.15	30000	0.00056	1.12e-05
318.15	35000	0.00055368	1.107e-05
318.15	40000	0.00054487	1.09e-05
318.15	45000	0.00053727	1.075e-05
318.15	50000	0.00053214	1.064e-05
328.15	5000	0.00059407	1.188e-05
328.15	10000	0.00058667	1.173e-05
328.15	15000	0.00057968	1.159e-05
328.15	20000	0.00057199	1.144e-05
328.15	25000	0.00056175	1.124e-05
328.15	30000	0.00055487	1.11e-05
328.15	35000	0.00054901	1.098e-05
328.15	40000	0.00054022	1.08e-05
328.15	45000	0.00053587	1.072e-05
328.15	50000	0.00053079	1.062e-05
338.15	5000	0.00059147	1.183e-05
338.15	10000	0.00058378	1.168e-05
338.15	15000	0.00057546	1.151e-05
338.15	20000	0.00056744	1.135e-05
338.15	25000	0.00055799	1.116e-05
338.15	30000	0.000553	1.106e-05
338.15	35000	0.00054447	1.089e-05
338.15	40000	0.00053784	1.076e-05
338.15	45000	0.00053207	1.064e-05
338.15	50000	0.00052838	1.057e-05
348.15	5000	0.00058848	1.177e-05
348.15	10000	0.00058166	1.163e-05
348.15	15000	0.00057185	1.144e-05
348.15	20000	0.00056253	1.125e-05
348.15	25000	0.00055547	1.111e-05
348.15	30000	0.00054801	1.096e-05
348.15	35000	0.00054307	1.086e-05
348.15	40000	0.0005348	1.07e-05
348.15	45000	0.0005292	1.058e-05
348.15	50000	0.00052191	1.044e-05

System: 1-ethyl-3-methylimidazolium bis((trifluoromethyl)sulfonyl)imide; phases: Liquid
Property: Isobaric coefficient of expansion, 1/K (Liquid); method: Microcalorimeter
Temperature, K	Pressure, kPa	Isobaric coefficient of expansion, 1/K	uncertainty
278.15	5000	0.00067002	1.641e-05
278.15	10000	0.00065894	1.614e-05
278.15	15000	0.00065071	1.594e-05
278.15	20000	0.00064531	1.581e-05
278.15	25000	0.00063416	1.553e-05
278.15	30000	0.00062773	1.538e-05
278.15	35000	0.00062296	1.526e-05
278.15	40000	0.00061217	1.5e-05
278.15	45000	0.00060567	1.484e-05
278.15	50000	0.00060011	1.47e-05
288.15	5000	0.00066372	1.626e-05
288.15	10000	0.00065285	1.599e-05
288.15	15000	0.00064581	1.582e-05
288.15	20000	0.00063972	1.567e-05
288.15	25000	0.0006307	1.545e-05
288.15	30000	0.00062259	1.525e-05
288.15	35000	0.0006157	1.508e-05
288.15	40000	0.00060611	1.485e-05
288.15	45000	0.00060051	1.471e-05
288.15	50000	0.00059678	1.462e-05
298.15	5000	0.0006586	1.613e-05
298.15	10000	0.00065095	1.594e-05
298.15	15000	0.0006412	1.571e-05
298.15	20000	0.00063297	1.55e-05
298.15	25000	0.00062448	1.53e-05
298.15	30000	0.00061657	1.51e-05
298.15	35000	0.00060647	1.486e-05
298.15	40000	0.00059992	1.469e-05
298.15	45000	0.00059475	1.457e-05
298.15	50000	0.00058885	1.442e-05
308.15	5000	0.00065632	1.608e-05
308.15	10000	0.00064432	1.578e-05
308.15	15000	0.00063656	1.559e-05
308.15	20000	0.00062717	1.536e-05
308.15	25000	0.00061815	1.514e-05
308.15	30000	0.00061147	1.498e-05
308.15	35000	0.00060473	1.481e-05
308.15	40000	0.00059681	1.462e-05
308.15	45000	0.00058886	1.442e-05
308.15	50000	0.00058119	1.424e-05
318.15	5000	0.00064883	1.589e-05
318.15	10000	0.00064375	1.577e-05
318.15	15000	0.00063448	1.554e-05
318.15	20000	0.00062293	1.526e-05
318.15	25000	0.00061536	1.507e-05
318.15	30000	0.00060653	1.486e-05
318.15	35000	0.00059869	1.466e-05
318.15	40000	0.00058956	1.444e-05
318.15	45000	0.00058205	1.426e-05
318.15	50000	0.00057635	1.412e-05
328.15	5000	0.00064492	1.58e-05
328.15	10000	0.00063482	1.555e-05
328.15	15000	0.00062811	1.539e-05
328.15	20000	0.00061976	1.518e-05
328.15	25000	0.00060923	1.492e-05
328.15	30000	0.00060122	1.473e-05
328.15	35000	0.00059258	1.452e-05
328.15	40000	0.00058386	1.43e-05
328.15	45000	0.00057613	1.411e-05
328.15	50000	0.00056997	1.396e-05
338.15	5000	0.00064253	1.574e-05
338.15	10000	0.00063324	1.551e-05
338.15	15000	0.00062435	1.529e-05
338.15	20000	0.0006143	1.505e-05
338.15	25000	0.00060388	1.479e-05
338.15	30000	0.00059808	1.465e-05
338.15	35000	0.00058826	1.441e-05
338.15	40000	0.00058181	1.425e-05
338.15	45000	0.00057353	1.405e-05
338.15	50000	0.0005692	1.394e-05
348.15	5000	0.00063993	1.568e-05
348.15	10000	0.00062931	1.541e-05
348.15	15000	0.00062012	1.519e-05
348.15	20000	0.00061169	1.498e-05
348.15	25000	0.00060181	1.474e-05
348.15	30000	0.00059453	1.456e-05
348.15	35000	0.00058753	1.439e-05
348.15	40000	0.00057892	1.418e-05
348.15	45000	0.00057178	1.401e-05
348.15	50000	0.00056548	1.385e-05

System: 1-hexyl-3-methylimidazolium bis[(trifluoromethyl)sulfonyl]imide; phases: Liquid
Property: Isobaric coefficient of expansion, 1/K (Liquid); method: Microcalorimeter
Temperature, K	Pressure, kPa	Isobaric coefficient of expansion, 1/K	uncertainty
278.15	5000	0.00067431	1.652e-05
278.15	10000	0.00066177	1.621e-05
278.15	15000	0.00065353	1.601e-05
278.15	20000	0.00064143	1.571e-05
278.15	25000	0.00063478	1.555e-05
278.15	30000	0.00062798	1.538e-05
278.15	35000	0.00061927	1.517e-05
278.15	40000	0.00061232	1.5e-05
278.15	45000	0.00060234	1.475e-05
278.15	50000	0.0005962	1.46e-05
288.15	5000	0.00066794	1.636e-05
288.15	10000	0.00065757	1.611e-05
288.15	15000	0.0006465	1.584e-05
288.15	20000	0.00063716	1.561e-05
288.15	25000	0.00063031	1.544e-05
288.15	30000	0.00062047	1.52e-05
288.15	35000	0.00061381	1.504e-05
288.15	40000	0.000604	1.479e-05
288.15	45000	0.0005971	1.463e-05
288.15	50000	0.00059218	1.451e-05
298.15	5000	0.00066371	1.626e-05
298.15	10000	0.00065421	1.602e-05
298.15	15000	0.00064267	1.574e-05
298.15	20000	0.00063259	1.55e-05
298.15	25000	0.00062635	1.534e-05
298.15	30000	0.00061526	1.507e-05
298.15	35000	0.00060538	1.483e-05
298.15	40000	0.00059616	1.46e-05
298.15	45000	0.00059012	1.445e-05
298.15	50000	0.0005837	1.43e-05
308.15	5000	0.00065853	1.613e-05
308.15	10000	0.00064762	1.586e-05
308.15	15000	0.00063719	1.561e-05
308.15	20000	0.0006281	1.539e-05
308.15	25000	0.00061752	1.513e-05
308.15	30000	0.00060928	1.492e-05
308.15	35000	0.0005996	1.469e-05
308.15	40000	0.00059404	1.455e-05
308.15	45000	0.00058474	1.432e-05
308.15	50000	0.00057662	1.412e-05
318.15	5000	0.00065396	1.602e-05
318.15	10000	0.000647	1.585e-05
318.15	15000	0.00063684	1.56e-05
318.15	20000	0.0006228	1.526e-05
318.15	25000	0.00061457	1.505e-05
318.15	30000	0.00060571	1.484e-05
318.15	35000	0.00059733	1.463e-05
318.15	40000	0.00058785	1.44e-05
318.15	45000	0.00057849	1.417e-05
318.15	50000	0.00057069	1.398e-05
328.15	5000	0.00065028	1.593e-05
328.15	10000	0.00063926	1.566e-05
328.15	15000	0.00063167	1.547e-05
328.15	20000	0.00062058	1.52e-05
328.15	25000	0.0006092	1.492e-05
328.15	30000	0.0005995	1.468e-05
328.15	35000	0.00059144	1.449e-05
328.15	40000	0.0005817	1.425e-05
328.15	45000	0.00057369	1.405e-05
328.15	50000	0.00056691	1.389e-05
338.15	5000	0.00064877	1.589e-05
338.15	10000	0.00063655	1.559e-05
338.15	15000	0.00062696	1.536e-05
338.15	20000	0.00061564	1.508e-05
338.15	25000	0.00060529	1.483e-05
338.15	30000	0.00059709	1.463e-05
338.15	35000	0.00058795	1.44e-05
338.15	40000	0.00057961	1.42e-05
338.15	45000	0.00057122	1.399e-05
338.15	50000	0.00056716	1.389e-05
348.15	5000	0.00064371	1.577e-05
348.15	10000	0.00063539	1.556e-05
348.15	15000	0.00062273	1.525e-05
348.15	20000	0.00061015	1.495e-05
348.15	25000	0.00060236	1.475e-05
348.15	30000	0.00059211	1.45e-05
348.15	35000	0.00058447	1.432e-05
348.15	40000	0.00057542	1.409e-05
348.15	45000	0.00056695	1.389e-05
348.15	50000	0.00055928	1.37e-05
