Measured thermophysical data. Compressibility Studies of Some Copper(I), Silver(I), and Tetrabutylammonium Salts in Acetonitrile + Adiponitrile Binary Mixtures
Source: J. Chem. Eng. Data, 2010, 10.1021/je900915p
Compound 1: acetonitrile, C2H3N, InChI=1S/C2H3N/c1-2-3/h1H3
Compound 2: hexanedinitrile, C6H8N2, InChI=1S/C6H8N2/c7-5-3-1-2-4-6-8/h1-4H2
Compound 3: tetraacetonitrile copper perchlorate, C8H12ClCuN4O4, InChI=1S/4C2H3N.ClHO4.Cu/c4*1-2-3;2-1(3,4)5;/h4*1H3;(H,2,3,4,5);/q;;;;;+1/p-1
Compound 4: tetrabenzonitrile copper perchlorate, C28H20ClCuN4O4, InChI=1S/4C7H5N.ClHO4.Cu/c4*8-6-7-4-2-1-3-5-7;2-1(3,4)5;/h4*1-5H;(H,2,3,4,5);/q;;;;;+1/p-1
Compound 5: bis-(2,9-dimethyl-1,10-phenanthroline) copper perchlorate, C28H24Cl2CuN4O8, InChI=1S/2C14H12N2.2ClHO4.Cu/c2*1-9-3-5-11-7-8-12-6-4-10(2)16-14(12)13(11)15-9;2*2-1(3,4)5;/h2*3-8H,1-2H3;2*(H,2,3,4,5);/q;;;;+2/p-2
Compound 6: tetrabutylammonium tetraphenylborate(1-), C40H56BN, InChI=1S/C24H20B.C16H36N/c1-5-13-21(14-6-1)25(22-15-7-2-8-16-22,23-17-9-3-10-18-23)24-19-11-4-12-20-24;1-5-9-13-17(14-10-6-2,15-11-7-3)16-12-8-4/h1-20H;5-16H2,1-4H3/q-1;+1
Compound 7: tetrabutylammonium perchlorate, C16H36ClNO4, InChI=1S/C16H36N.ClHO4/c1-5-9-13-17(14-10-6-2,15-11-7-3)16-12-8-4;2-1(3,4)5/h5-16H2,1-4H3;(H,2,3,4,5)/q+1;/p-1
Compound 8: silver nitrate, AgNO3, InChI=1S/Ag.NO3/c;2-1(3)4/q+1;-1
Compound 9: tetrabutylammonium nitrate, C16H36N2O3, InChI=1S/C16H36N.NO3/c1-5-9-13-17(14-10-6-2,15-11-7-3)16-12-8-4;2-1(3)4/h5-16H2,1-4H3;/q+1;-1

System: acetonitrile; phases: Liquid
Property: Mass density, kg/m3 (Liquid); method: VIBTUB:UFactor:4
Temperature, K	Pressure, kPa	Mass density, kg/m3	uncertainty
298.15	101.325	776.85	0.66

System: acetonitrile; phases: Liquid
Property: Viscosity, Pa*s (Liquid); method: Capillary tube (Ostwald; Ubbelohde) method
Temperature, K	Pressure, kPa	Viscosity, Pa*s	uncertainty
298.15	101.325	0.000341	4e-06

System: hexanedinitrile; phases: Liquid
Property: Mass density, kg/m3 (Liquid); method: VIBTUB:UFactor:4
Temperature, K	Pressure, kPa	Mass density, kg/m3	uncertainty
298.15	101.325	975.26	0.28

System: hexanedinitrile; phases: Liquid
Property: Viscosity, Pa*s (Liquid); method: Capillary tube (Ostwald; Ubbelohde) method
Temperature, K	Pressure, kPa	Viscosity, Pa*s	uncertainty
298.15	101.325	0.00599	6e-05

System: acetonitrile + hexanedinitrile; phases: Liquid
Fixed: Pressure, kPa = 101
Fixed: Temperature, K = 298.15
Property: Viscosity, Pa*s (Liquid); method: Capillary tube (Ostwald; Ubbelohde) method
Mole fraction of acetonitrile	Viscosity, Pa*s	uncertainty
0.5	0.00161	1.2e-05
0.6	0.00141	1e-05
0.7	0.001057	8e-06
0.8	0.000684	5e-06
0.9	0.000506	4e-06
1	0.000341	3e-06

System: acetonitrile + hexanedinitrile; phases: Liquid
Fixed: Pressure, kPa = 101
Fixed: Temperature, K = 298.15
Property: Mass density, kg/m3 (Liquid); method: VIBTUB:UFactor:4
Mole fraction of acetonitrile	Mass density, kg/m3	uncertainty
0.5	892.51	0.34
0.6	880	0.36
0.7	870	0.37
0.8	848.59	0.4
0.9	818.58	0.44
1	776.85	0.5

System: acetonitrile + tetrabutylammonium tetraphenylborate(1-); phases: Liquid
Fixed: Temperature, K = 298.15
Fixed: Pressure, kPa = 101
Property: Speed of sound, m/s (Liquid); method: Pulse-echo method
Molality, mol/kg of tetrabutylammonium tetraphenylborate(1-)	Speed of sound, m/s	uncertainty
0.02541	1272.16	0.99
0.03943	1273.12	1.01
0.06096	1276.07	1.05
0.09374	1278.17	1.09
0.14285	1279.56	1.17

System: acetonitrile + tetrabutylammonium tetraphenylborate(1-); phases: Liquid
Fixed: Pressure, kPa = 101
Fixed: Temperature, K = 298.15
Property: Mass density, kg/m3 (Liquid); method: VIBTUB:UFactor:4
Molality, mol/kg of tetrabutylammonium tetraphenylborate(1-)	Mass density, kg/m3	uncertainty
0.02541	786.4	0.5
0.03943	791.67	0.5
0.06096	800.13	0.5
0.09374	813.28	0.49
0.14285	833.5	0.49

System: acetonitrile + tetrabutylammonium perchlorate; phases: Liquid
Fixed: Temperature, K = 298.15
Fixed: Pressure, kPa = 101
Property: Speed of sound, m/s (Liquid); method: Pulse-echo method
Molality, mol/kg of tetrabutylammonium perchlorate	Speed of sound, m/s	uncertainty
0.02616	1272.36	0.98
0.04068	1273.17	0.99
0.06312	1275.21	1.01
0.09762	1276.78	1.04
0.15016	1278.23	1.09

System: acetonitrile + tetrabutylammonium perchlorate; phases: Liquid
Fixed: Pressure, kPa = 101
Fixed: Temperature, K = 298.15
Property: Mass density, kg/m3 (Liquid); method: VIBTUB:FP:UFactor:4
Molality, mol/kg of tetrabutylammonium perchlorate	Mass density, kg/m3	uncertainty
0.02616	783.32	0.5
0.04068	786.97	0.5
0.06312	792.62	0.5
0.09762	801.31	0.49
0.15016	814.61	0.49

System: acetonitrile + tetraacetonitrile copper perchlorate; phases: Liquid
Fixed: Temperature, K = 298.15
Fixed: Pressure, kPa = 101
Property: Speed of sound, m/s (Liquid); method: Pulse-echo method
Molality, mol/kg of tetraacetonitrile copper perchlorate	Speed of sound, m/s	uncertainty
0.02538	1272.13	0.98
0.03962	1273.68	0.99
0.0589	1274.96	1.01
0.08537	1276.69	1.03
0.12538	1278.45	1.06

System: acetonitrile + tetraacetonitrile copper perchlorate; phases: Liquid
Fixed: Pressure, kPa = 101
Fixed: Temperature, K = 298.15
Property: Mass density, kg/m3 (Liquid); method: VIBTUB:FP:UFactor:4
Molality, mol/kg of tetraacetonitrile copper perchlorate	Mass density, kg/m3	uncertainty
0.02538	787.25	0.5
0.03962	793.19	0.49
0.0589	801.28	0.49
0.08537	812.53	0.48
0.12538	828.76	0.46

System: acetonitrile + tetrabenzonitrile copper perchlorate; phases: Liquid
Fixed: Temperature, K = 298.15
Fixed: Pressure, kPa = 101
Property: Speed of sound, m/s (Liquid); method: Pulse-echo method
Molality, mol/kg of tetrabenzonitrile copper perchlorate	Speed of sound, m/s	uncertainty
0.02433	1273.56	0.99
0.03778	1274.25	1.01
0.05712	1275.23	1.04
0.08272	1277.09	1.08
0.11642	1279.18	1.13

System: acetonitrile + tetrabenzonitrile copper perchlorate; phases: Liquid
Fixed: Pressure, kPa = 101
Fixed: Temperature, K = 298.15
Property: Mass density, kg/m3 (Liquid); method: VIBTUB:FP:UFactor:4
Molality, mol/kg of tetrabenzonitrile copper perchlorate	Mass density, kg/m3	uncertainty
0.02433	791.66	0.51
0.03778	799.95	0.5
0.05712	811.96	0.49
0.08272	828.09	0.48
0.11642	849.54	0.47

System: acetonitrile + bis-(2,9-dimethyl-1,10-phenanthroline) copper perchlorate; phases: Liquid
Fixed: Temperature, K = 298.15
Fixed: Pressure, kPa = 101
Property: Speed of sound, m/s (Liquid); method: Pulse-echo method
Molality, mol/kg of bis-(2,9-dimethyl-1,10-phenanthroline) copper perchlorate	Speed of sound, m/s	uncertainty
0.02474	1273.25	0.99
0.03841	1274.51	1.01
0.05937	1275.86	1.05
0.08169	1277.35	1.08
0.12183	1279.66	1.14

System: acetonitrile + bis-(2,9-dimethyl-1,10-phenanthroline) copper perchlorate; phases: Liquid
Fixed: Pressure, kPa = 101
Fixed: Temperature, K = 298.15
Property: Mass density, kg/m3 (Liquid); method: VIBTUB:FP:UFactor:4
Molality, mol/kg of bis-(2,9-dimethyl-1,10-phenanthroline) copper perchlorate	Mass density, kg/m3	uncertainty
0.02474	792.91	0.51
0.03841	801.84	0.5
0.05937	815.69	0.49
0.08169	830.27	0.48
0.12183	857.14	0.46

System: acetonitrile + tetrabutylammonium nitrate; phases: Liquid
Fixed: Temperature, K = 298.15
Fixed: Pressure, kPa = 101
Property: Speed of sound, m/s (Liquid); method: Pulse-echo method
Molality, mol/kg of tetrabutylammonium nitrate	Speed of sound, m/s	uncertainty
0.02174	1272.73	0.97
0.04144	1273.68	0.99
0.06482	1275.22	1.01
0.08753	1276.59	1.03
0.11385	1279.35	1.05

System: acetonitrile + tetrabutylammonium nitrate; phases: Liquid
Fixed: Pressure, kPa = 101
Fixed: Temperature, K = 298.15
Property: Mass density, kg/m3 (Liquid); method: VIBTUB:FP:UFactor:4
Molality, mol/kg of tetrabutylammonium nitrate	Mass density, kg/m3	uncertainty
0.02174	781.56	0.5
0.04144	785.96	0.5
0.06482	791.21	0.5
0.08753	796.37	0.49
0.11385	802.45	0.49

System: acetonitrile + silver nitrate; phases: Liquid
Fixed: Temperature, K = 298.15
Fixed: Pressure, kPa = 101
Property: Speed of sound, m/s (Liquid); method: Pulse-echo method
Molality, mol/kg of silver nitrate	Speed of sound, m/s	uncertainty
0.0283	1272.02	0.97
0.04474	1273.54	0.98
0.06947	1275.33	0.99
0.09727	1277.68	1
0.12847	1279.51	1.01

System: acetonitrile + silver nitrate; phases: Liquid
Fixed: Pressure, kPa = 101
Fixed: Temperature, K = 298.15
Property: Mass density, kg/m3 (Liquid); method: VIBTUB:FP:UFactor:4
Molality, mol/kg of silver nitrate	Mass density, kg/m3	uncertainty
0.0283	785.04	0.5
0.04474	789.86	0.49
0.06947	797.11	0.48
0.09727	805.38	0.48
0.12847	814.46	0.47

System: acetonitrile + hexanedinitrile + tetraacetonitrile copper perchlorate; phases: Liquid
Fixed: Temperature, K = 298.15
Fixed: Pressure, kPa = 101
Property: Speed of sound, m/s (Liquid); method: Pulse-echo method
Solvent: Mole fraction of acetonitrile	Molality, mol/kg of tetraacetonitrile copper perchlorate	Speed of sound, m/s	uncertainty
0.5	0.01347	1469.96	2.19
0.5	0.02436	1471.46	2.19
0.5	0.03671	1473.05	2.19
0.5	0.04953	1474.79	2.19
0.5	0.07285	1476.41	2.19
0.6	0.02014	1447.24	2.19
0.6	0.0356	1449.32	2.19
0.6	0.05362	1451.57	2.19
0.6	0.07307	1453.91	2.19
0.6	0.09325	1456.09	2.19
0.7	0.0143	1407.98	2.18
0.7	0.02513	1408.91	2.18
0.7	0.04128	1410.27	2.18
0.7	0.05826	1411.73	2.18
0.7	0.08011	1412.25	2.18
0.8	0.01849	1381.49	2.17
0.8	0.02879	1383.01	2.17
0.8	0.04475	1384.85	2.18
0.8	0.0696	1387.88	2.18
0.8	0.09572	1390.26	2.18
0.9	0.02456	1322.62	2.17
0.9	0.03843	1323.81	2.17
0.9	0.05861	1325.32	2.17
0.9	0.08361	1326.76	2.17
0.9	0.11073	1328.19	2.17

System: acetonitrile + hexanedinitrile + tetraacetonitrile copper perchlorate; phases: Liquid
Fixed: Pressure, kPa = 101
Fixed: Temperature, K = 298.15
Property: Mass density, kg/m3 (Liquid); method: VIBTUB:FP:UFactor:4
Solvent: Mole fraction of acetonitrile	Molality, mol/kg of tetraacetonitrile copper perchlorate	Mass density, kg/m3	uncertainty
0.5	0.01347	902.61	0.95
0.5	0.02436	910.63	0.95
0.5	0.03671	919.57	0.94
0.5	0.04953	928.21	0.94
0.5	0.07285	943.35	0.94
0.6	0.02014	893.84	0.95
0.6	0.0356	904.53	0.94
0.6	0.05362	916.76	0.94
0.6	0.07307	929.66	0.94
0.6	0.09325	942.31	0.94
0.7	0.0143	878.89	0.96
0.7	0.02513	885.64	0.94
0.7	0.04128	895.78	0.94
0.7	0.05826	906.17	0.94
0.7	0.08011	919.54	0.94
0.8	0.01849	858.89	0.95
0.8	0.02879	864.64	0.95
0.8	0.04475	873.63	0.94
0.8	0.0696	886.59	0.94
0.8	0.09572	902.68	0.94
0.9	0.02236	833.96	0.96
0.9	0.03468	842.5	0.95
0.9	0.05352	855.63	0.95
0.9	0.07619	871.5	0.95
0.9	0.10217	889.91	0.95

System: acetonitrile + hexanedinitrile + tetrabenzonitrile copper perchlorate; phases: Liquid
Fixed: Temperature, K = 298.15
Fixed: Pressure, kPa = 101
Property: Speed of sound, m/s (Liquid); method: Pulse-echo method
Solvent: Mole fraction of acetonitrile	Molality, mol/kg of tetrabenzonitrile copper perchlorate	Speed of sound, m/s	uncertainty
0.5	0.01128	1470.12	2.19
0.5	0.02438	1471.79	2.19
0.5	0.03825	1473.37	2.19
0.5	0.05248	1474.94	2.19
0.5	0.06436	1476.87	2.19
0.6	0.01553	1447.13	2.19
0.6	0.02861	1448.24	2.19
0.6	0.04138	1449.53	2.18
0.6	0.05427	1450.87	2.18
0.6	0.06801	1452.39	2.19
0.7	0.0185	1406.54	2.18
0.7	0.02961	1407.96	2.18
0.7	0.04538	1409.37	2.18
0.7	0.06517	1410.72	2.18
0.7	0.08369	1412.29	2.18
0.8	0.01726	1380.39	2.17
0.8	0.02634	1381.95	2.17
0.8	0.0433	1383.4	2.17
0.8	0.06628	1385.12	2.18
0.8	0.08953	1387.47	2.18
0.9	0.02236	1322.25	2.17
0.9	0.03468	1323.54	2.17
0.9	0.05352	1324.69	2.17
0.9	0.07619	1325.92	2.17
0.9	0.10217	1326.96	2.17

System: acetonitrile + hexanedinitrile + tetrabenzonitrile copper perchlorate; phases: Liquid
Fixed: Pressure, kPa = 101
Fixed: Temperature, K = 298.15
Property: Mass density, kg/m3 (Liquid); method: VIBTUB:FP:UFactor:4
Solvent: Mole fraction of acetonitrile	Molality, mol/kg of tetrabenzonitrile copper perchlorate	Mass density, kg/m3	uncertainty
0.5	0.01128	903.69	0.95
0.5	0.02438	916.53	0.95
0.5	0.03825	929.83	0.95
0.5	0.05248	942.89	0.95
0.5	0.06436	952.96	0.95
0.6	0.01553	894.21	0.95
0.6	0.02861	906.14	0.95
0.6	0.04138	917.44	0.95
0.6	0.05427	928.52	0.95
0.6	0.06801	939.57	0.95
0.7	0.0185	885.77	0.97
0.7	0.02961	895.28	0.95
0.7	0.04538	908.72	0.95
0.7	0.06517	925.62	0.95
0.7	0.08369	940.81	0.95
0.8	0.01726	861.88	0.95
0.8	0.02634	868.84	0.95
0.8	0.0433	881.85	0.95
0.8	0.06628	899.59	0.95
0.8	0.08953	917.36	0.95
0.9	0.02236	833.96	0.96
0.9	0.03468	842.5	0.95
0.9	0.05352	855.63	0.95
0.9	0.07619	871.5	0.95
0.9	0.10217	889.91	0.95

System: acetonitrile + hexanedinitrile + bis-(2,9-dimethyl-1,10-phenanthroline) copper perchlorate; phases: Liquid
Fixed: Temperature, K = 298.15
Fixed: Pressure, kPa = 101
Property: Speed of sound, m/s (Liquid); method: Pulse-echo method
Mole fraction of acetonitrile	Molality, mol/kg of bis-(2,9-dimethyl-1,10-phenanthroline) copper perchlorate	Speed of sound, m/s	uncertainty
0.5	0.01219	1470	2.19
0.5	0.0213	1471.36	2.19
0.5	0.03424	1472.69	2.19
0.5	0.04717	1474.13	2.19
0.5	0.06123	1476.22	2.19
0.6	0.01431	1447.26	2.19
0.6	0.02617	1448.92	2.19
0.6	0.03842	1450.35	2.19
0.6	0.05163	1451.97	2.19
0.6	0.06837	1453.42	2.19
0.7	0.02216	1407.94	2.18
0.7	0.03435	1409.27	2.18
0.7	0.05281	1410.84	2.18
0.7	0.07326	1412.53	2.18
0.7	0.09486	1414.11	2.18
0.8	0.01923	1380.78	2.18
0.8	0.02762	1382.34	2.18
0.8	0.04375	1383.87	2.18
0.8	0.06513	1385.14	2.18
0.8	0.08528	1387.72	2.18
0.9	0.02136	1322.23	2.17
0.9	0.03277	1324.29	2.17
0.9	0.04882	1325.61	2.17
0.9	0.07026	1327.15	2.17
0.9	0.09682	1328.78	2.17

System: acetonitrile + hexanedinitrile + bis-(2,9-dimethyl-1,10-phenanthroline) copper perchlorate; phases: Liquid
Fixed: Pressure, kPa = 101
Fixed: Temperature, K = 298.15
Property: Mass density, kg/m3 (Liquid); method: VIBTUB:FP:UFactor:4
Solvent: Mole fraction of acetonitrile	Molality, mol/kg of bis-(2,9-dimethyl-1,10-phenanthroline) copper perchlorate	Mass density, kg/m3	uncertainty
0.5	0.01219	905.11	0.96
0.5	0.0213	914.41	0.96
0.5	0.03424	927.57	0.95
0.5	0.04717	939.86	0.95
0.5	0.06123	952.61	0.95
0.6	0.01431	893.91	0.96
0.6	0.02617	905.51	0.95
0.6	0.03842	917.29	0.95
0.6	0.05163	929.7	0.95
0.6	0.06837	945.01	0.95
0.7	0.02216	889.04	0.97
0.7	0.03435	900.81	0.95
0.7	0.05281	917.51	0.95
0.7	0.07326	935.66	0.95
0.7	0.09486	953.28	0.95
0.8	0.01923	864.39	0.96
0.8	0.02762	871.33	0.95
0.8	0.04375	884.61	0.95
0.8	0.06513	902.19	0.95
0.8	0.08528	917.93	0.95
0.9	0.02136	834.31	0.96
0.9	0.03277	842.74	0.96
0.9	0.04882	854.72	0.95
0.9	0.07026	870.38	0.95
0.9	0.09682	889.86	0.95

System: acetonitrile + hexanedinitrile + tetrabutylammonium tetraphenylborate(1-); phases: Liquid
Fixed: Temperature, K = 298.15
Fixed: Pressure, kPa = 101
Property: Speed of sound, m/s (Liquid); method: Pulse-echo method
Solvent: Mole fraction of acetonitrile	Molality, mol/kg of tetrabutylammonium tetraphenylborate(1-)	Speed of sound, m/s	uncertainty
0.5	0.0245	1470.12	2.19
0.5	0.04515	1471.64	2.19
0.5	0.07167	1473.39	2.19
0.5	0.09605	1475.72	2.19
0.5	0.12034	1480.03	2.19
0.6	0.02436	1447.24	2.19
0.6	0.04553	1449.17	2.18
0.6	0.06729	1451.35	2.18
0.6	0.08582	1453.81	2.18
0.6	0.10286	1456.45	2.19
0.7	0.02361	1407.27	2.18
0.7	0.03854	1409.16	2.18
0.7	0.05208	1411.76	2.18
0.7	0.07493	1413.89	2.18
0.7	0.10162	1416.32	2.18
0.8	0.02408	1380.34	2.18
0.8	0.03746	1381.29	2.18
0.8	0.05787	1382.63	2.18
0.8	0.08621	1383.85	2.18
0.8	0.12053	1385.37	2.18
0.9	0.02435	1321.64	2.17
0.9	0.03779	1323.08	2.17
0.9	0.05846	1324.87	2.17
0.9	0.08993	1327.53	2.17
0.9	0.13721	1329.18	2.17

System: acetonitrile + hexanedinitrile + tetrabutylammonium tetraphenylborate(1-); phases: Liquid
Fixed: Pressure, kPa = 101
Fixed: Temperature, K = 298.15
Property: Mass density, kg/m3 (Liquid); method: VIBTUB:FP:UFactor:4
Solvent: Mole fraction of acetonitrile	Molality, mol/kg of tetrabutylammonium tetraphenylborate(1-)	Mass density, kg/m3	uncertainty
0.5	0.0245	898.57	0.94
0.5	0.04515	904.71	0.94
0.5	0.07167	914.5	0.94
0.5	0.09605	925.56	0.94
0.5	0.12034	939.46	0.94
0.6	0.02436	887.38	0.94
0.6	0.04553	894.11	0.94
0.6	0.06729	902.61	0.94
0.6	0.08582	911.41	0.94
0.6	0.10286	921.46	0.94
0.7	0.02361	877.84	0.95
0.7	0.03854	883.45	0.94
0.7	0.05208	889.17	0.94
0.7	0.07493	899.65	0.94
0.7	0.10162	913.22	0.94
0.8	0.02408	857.14	0.95
0.8	0.03746	862.37	0.94
0.8	0.05787	870.79	0.94
0.8	0.08621	883.19	0.94
0.8	0.12053	899.61	0.94
0.9	0.02435	827.59	0.95
0.9	0.03779	832.91	0.95
0.9	0.05846	841.43	0.95
0.9	0.08993	854.69	0.95
0.9	0.13721	875.93	0.94

System: acetonitrile + hexanedinitrile + tetrabutylammonium perchlorate; phases: Liquid
Fixed: Temperature, K = 298.15
Fixed: Pressure, kPa = 101
Property: Speed of sound, m/s (Liquid); method: Pulse-echo method
Solvent: Mole fraction of acetonitrile	Molality, mol/kg of tetrabutylammonium perchlorate	Speed of sound, m/s	uncertainty
0.5	0.02108	1469.87	2.19
0.5	0.03983	1471.04	2.19
0.5	0.05734	1472.29	2.19
0.5	0.07826	1473.75	2.19
0.5	0.10109	1475.12	2.19
0.6	0.02595	1446.63	2.18
0.6	0.04012	1448.58	2.18
0.6	0.05734	1450.73	2.18
0.6	0.07857	1452.89	2.18
0.6	0.10237	1455.42	2.19
0.7	0.01955	1407.69	2.18
0.7	0.03089	1409.43	2.18
0.7	0.04757	1411.38	2.18
0.7	0.07352	1413.54	2.18
0.7	0.10341	1415.81	2.18
0.8	0.02369	1381.89	2.18
0.8	0.03876	1382.96	2.18
0.8	0.05735	1383.08	2.18
0.8	0.08517	1384.51	2.18
0.8	0.11862	1385.79	2.18
0.9	0.02508	1322.97	2.17
0.9	0.03882	1323.82	2.17
0.9	0.06032	1324.79	2.17
0.9	0.0933	1326.45	2.17
0.9	0.12826	1328.39	2.17

System: acetonitrile + hexanedinitrile + tetrabutylammonium perchlorate; phases: Liquid
Fixed: Pressure, kPa = 101
Fixed: Temperature, K = 298.15
Property: Mass density, kg/m3 (Liquid); method: VIBTUB:FP:UFactor:4
Solvent: Mole fraction of acetonitrile	Molality, mol/kg of tetrabutylammonium perchlorate	Mass density, kg/m3	uncertainty
0.5	0.02108	896.78	0.94
0.5	0.03983	901.07	0.94
0.5	0.05734	905.6	0.94
0.5	0.07826	911.53	0.94
0.5	0.10109	919.1	0.94
0.6	0.02595	885.71	0.94
0.6	0.04012	889.21	0.94
0.6	0.05734	893.78	0.94
0.6	0.07857	899.74	0.94
0.6	0.10237	906.96	0.94
0.7	0.01955	874.61	0.94
0.7	0.03089	877.49	0.94
0.7	0.04757	881.93	0.94
0.7	0.07352	888.92	0.94
0.7	0.10341	897.61	0.94
0.8	0.02369	854.33	0.95
0.8	0.03876	858.31	0.94
0.8	0.05735	863.28	0.94
0.8	0.08517	870.85	0.94
0.8	0.11862	880.24	0.94
0.9	0.02508	824.89	0.95
0.9	0.03882	828.44	0.95
0.9	0.06032	834.09	0.95
0.9	0.0933	842.87	0.95
0.9	0.12826	852.3	0.94

System: acetonitrile + hexanedinitrile + tetrabutylammonium nitrate; phases: Liquid
Fixed: Temperature, K = 298.15
Fixed: Pressure, kPa = 101
Property: Speed of sound, m/s (Liquid); method: Pulse-echo method
Solvent: Mole fraction of acetonitrile	Molality, mol/kg of tetrabutylammonium nitrate	Speed of sound, m/s	uncertainty
0.5	0.01972	1470.31	2.19
0.5	0.04159	1472.48	2.19
0.5	0.06392	1473.84	2.19
0.5	0.08779	1475.37	2.19
0.5	0.10751	1477.92	2.19
0.6	0.03179	1446.87	2.19
0.6	0.05316	1448.18	2.19
0.6	0.07689	1449.76	2.19
0.6	0.10261	1451.35	2.19
0.6	0.12879	1453.09	2.19
0.7	0.03124	1407.31	2.18
0.7	0.05633	1408.65	2.18
0.7	0.0788	1410.12	2.18
0.7	0.09176	1411.42	2.18
0.7	0.11426	1412.83	2.18
0.8	0.02214	1380.92	2.18
0.8	0.03994	1381.8	2.18
0.8	0.06275	1383.56	2.18
0.8	0.08476	1385.73	2.18
0.8	0.10434	1388.09	2.18
0.9	0.02848	1321.88	2.17
0.9	0.04533	1323.57	2.17
0.9	0.06416	1325.67	2.17
0.9	0.08461	1327.92	2.17
0.9	0.10328	1330.32	2.17

System: acetonitrile + hexanedinitrile + tetrabutylammonium nitrate; phases: Liquid
Fixed: Pressure, kPa = 101
Fixed: Temperature, K = 298.15
Property: Mass density, kg/m3 (Liquid); method: VIBTUB:FP:UFactor:4
Solvent: Mole fraction of acetonitrile	Molality, mol/kg of tetrabutylammonium nitrate	Mass density, kg/m3	uncertainty
0.5	0.01972	896.01	0.94
0.5	0.04159	900.42	0.94
0.5	0.06392	905.4	0.94
0.5	0.08779	911.83	0.94
0.5	0.10751	918.37	0.94
0.6	0.03179	886.12	0.94
0.6	0.05316	890.63	0.94
0.6	0.07689	895.96	0.94
0.6	0.10261	902.34	0.94
0.6	0.12879	909.61	0.94
0.7	0.03124	876.57	0.94
0.7	0.05633	882.19	0.94
0.7	0.0788	887.55	0.94
0.7	0.09176	891.15	0.94
0.7	0.11426	897.39	0.94
0.8	0.02214	853.42	0.95
0.8	0.03994	857.55	0.94
0.8	0.06275	862.97	0.94
0.8	0.08476	868.52	0.94
0.8	0.10434	873.86	0.94
0.9	0.02848	824.89	0.95
0.9	0.04533	828.73	0.95
0.9	0.06416	833.18	0.95
0.9	0.08461	838.07	0.95
0.9	0.10328	842.83	0.95

System: acetonitrile + hexanedinitrile + silver nitrate; phases: Liquid
Fixed: Temperature, K = 298.15
Fixed: Pressure, kPa = 101
Property: Speed of sound, m/s (Liquid); method: Pulse-echo method
Solvent: Mole fraction of acetonitrile	Molality, mol/kg of silver nitrate	Speed of sound, m/s	uncertainty
0.5	0.01526	1469.64	2.19
0.5	0.02839	1471.13	2.19
0.5	0.04319	1472.71	2.19
0.5	0.05987	1474.22	2.19
0.5	0.08068	1476.45	2.19
0.6	0.01429	1446.61	2.18
0.6	0.02219	1447.94	2.19
0.6	0.03451	1449.26	2.19
0.6	0.04927	1450.77	2.19
0.6	0.06252	1452.19	2.19
0.7	0.02017	1407.66	2.18
0.7	0.03494	1408.92	2.18
0.7	0.05408	1410.47	2.18
0.7	0.07845	1412.37	2.18
0.7	0.10419	1414.09	2.18
0.8	0.02578	1381.07	2.18
0.8	0.04358	1383.21	2.17
0.8	0.06895	1385.41	2.18
0.8	0.09273	1387.39	2.18
0.8	0.11632	1389.46	2.18
0.9	0.03026	1321.7	2.17
0.9	0.05281	1323.08	2.17
0.9	0.07243	1324.96	2.17
0.9	0.10265	1326.71	2.17
0.9	0.13424	1328.75	2.17

System: acetonitrile + hexanedinitrile + silver nitrate; phases: Liquid
Fixed: Pressure, kPa = 101
Fixed: Temperature, K = 298.15
Property: Mass density, kg/m3 (Liquid); method: VIBTUB:FP:UFactor:4
Solvent: Mole fraction of acetonitrile	Molality, mol/kg of silver nitrate	Mass density, kg/m3	uncertainty
0.5	0.01526	901.93	0.94
0.5	0.02839	910.12	0.94
0.5	0.04319	918.34	0.94
0.5	0.05987	927.27	0.94
0.5	0.08068	938.3	0.94
0.6	0.01429	887.88	0.94
0.6	0.02219	892.03	0.94
0.6	0.03451	898.44	0.94
0.6	0.04927	905.69	0.94
0.6	0.06252	911.23	0.94
0.7	0.02017	879.82	0.94
0.7	0.03494	887.02	0.94
0.7	0.05408	896.18	0.94
0.7	0.07845	907.74	0.94
0.7	0.10419	919.35	0.94
0.8	0.02578	859.49	0.95
0.8	0.04358	866.94	0.94
0.8	0.06895	877.52	0.94
0.8	0.09273	887.58	0.94
0.8	0.11632	897.08	0.94
0.9	0.03026	829.25	0.95
0.9	0.05281	837.27	0.95
0.9	0.07243	844.26	0.95
0.9	0.10265	855.12	0.94
0.9	0.13424	867.02	0.94
