Measured thermophysical data. Physical Properties of Selected Ionic Liquids for Use as Electrolytes and Other Industrial Applications
Source: J. Chem. Eng. Data, 2010, 10.1021/je900405j
Compound 1: 1-ethyl-3-methylimidazolium dicyanamide, C8H11N5, InChI=1S/C6H11N2.C2N3/c1-3-8-5-4-7(2)6-8;3-1-5-2-4/h4-6H,3H2,1-2H3;/q+1;-1
Compound 2: 1,2-dimethyl-3-propylimidazolium bis[(trifluoromethyl)sulfonyl]imide, C10H15F6N3O4S2, InChI=1S/C8H15N2.C2F6NO4S2/c1-4-5-10-7-6-9(3)8(10)2;3-1(4,5)14(10,11)9-15(12,13)2(6,7)8/h6-7H,4-5H2,1-3H3;/q+1;-1
Compound 3: 1-butyl-1-methylpyrrolidinium tris(pentafluoroethyl)trifluorophosphate, C15H20F18NP, InChI=1S/C9H20N.C6F18P/c1-3-4-7-10(2)8-5-6-9-10;7-1(8,9)4(16,17)25(22,23,24,5(18,19)2(10,11)12)6(20,21)3(13,14)15/h3-9H2,1-2H3;/q+1;-1
Compound 4: 1-ethyl-3-methylimidazolium tetrafluoroborate, C6H11BF4N2, InChI=1S/C6H11N2.BF4/c1-3-8-5-4-7(2)6-8;2-1(3,4)5/h4-6H,3H2,1-2H3;/q+1;-1

System: 1-ethyl-3-methylimidazolium dicyanamide; phases: Glass, Liquid, Air at 1 atmosphere
Property: Triple point temperature, K (Glass); method: DTA
Triple point temperature, K	uncertainty
177	3

System: 1-ethyl-3-methylimidazolium dicyanamide; phases: Crystal, Liquid, Air at 1 atmosphere
Property: Normal melting temperature, K (Crystal); method: DTA
Normal melting temperature, K	uncertainty
255	2

System: 1-ethyl-3-methylimidazolium dicyanamide; phases: Liquid, Air at 1 atmosphere
Property: Surface tension liquid-gas, N/m (Liquid); method: RINGTE:UFactor:8
Temperature, K	Surface tension liquid-gas, N/m	uncertainty
293	0.064	0.009

System: 1-ethyl-3-methylimidazolium dicyanamide; phases: Liquid
Fixed: Pressure, kPa = 101.325
Property: Viscosity, Pa*s (Liquid); method: Cone and plate viscometry
Temperature, K	Viscosity, Pa*s	uncertainty
290	0.024	0.013
295	0.021	0.013
300	0.019	0.013
305	0.018	0.013
310	0.017	0.013
315	0.016	0.013
320	0.015	0.013
325	0.015	0.013
330	0.014	0.013
335	0.014	0.013
340	0.013	0.013
345	0.013	0.013
350	0.012	0.013
355	0.012	0.013
360	0.012	0.013
365	0.012	0.013

System: 1,2-dimethyl-3-propylimidazolium bis[(trifluoromethyl)sulfonyl]imide; phases: Glass, Liquid, Air at 1 atmosphere
Property: Triple point temperature, K (Glass); method: DTA
Triple point temperature, K	uncertainty
164	20

System: 1,2-dimethyl-3-propylimidazolium bis[(trifluoromethyl)sulfonyl]imide; phases: Crystal, Liquid, Air at 1 atmosphere
Property: Normal melting temperature, K (Crystal); method: DTA
Normal melting temperature, K	uncertainty
281	2

System: 1,2-dimethyl-3-propylimidazolium bis[(trifluoromethyl)sulfonyl]imide; phases: Liquid, Air at 1 atmosphere
Property: Surface tension liquid-gas, N/m (Liquid); method: RINGTE:UFactor:8
Temperature, K	Surface tension liquid-gas, N/m	uncertainty
293	0.041	0.006

System: 1,2-dimethyl-3-propylimidazolium bis[(trifluoromethyl)sulfonyl]imide; phases: Liquid
Fixed: Pressure, kPa = 101.325
Property: Viscosity, Pa*s (Liquid); method: Cone and plate viscometry
Temperature, K	Viscosity, Pa*s	uncertainty
290	0.131	0.01
295	0.106	0.01
300	0.085	0.01
305	0.069	0.01
310	0.058	0.01
315	0.049	0.01
320	0.042	0.01
325	0.037	0.01
330	0.033	0.01
335	0.029	0.01
340	0.027	0.01
345	0.024	0.01
350	0.023	0.01
355	0.021	0.01
360	0.02	0.01
365	0.019	0.01

System: 1-butyl-1-methylpyrrolidinium tris(pentafluoroethyl)trifluorophosphate; phases: Glass, Liquid, Air at 1 atmosphere
Property: Triple point temperature, K (Glass); method: DTA
Triple point temperature, K	uncertainty
157	3

System: 1-butyl-1-methylpyrrolidinium tris(pentafluoroethyl)trifluorophosphate; phases: Crystal, Liquid, Air at 1 atmosphere
Property: Normal melting temperature, K (Crystal); method: DTA
Normal melting temperature, K	uncertainty
277	2

System: 1-butyl-1-methylpyrrolidinium tris(pentafluoroethyl)trifluorophosphate; phases: Liquid, Air at 1 atmosphere
Property: Surface tension liquid-gas, N/m (Liquid); method: RINGTE:UFactor:8
Temperature, K	Surface tension liquid-gas, N/m	uncertainty
293	0.038	0.005

System: 1-butyl-1-methylpyrrolidinium tris(pentafluoroethyl)trifluorophosphate; phases: Liquid
Fixed: Pressure, kPa = 101.325
Property: Viscosity, Pa*s (Liquid); method: Cone and plate viscometry
Temperature, K	Viscosity, Pa*s	uncertainty
290	0.355	0.017
295	0.272	0.014
300	0.209	0.012
305	0.163	0.011
310	0.129	0.01
315	0.105	0.01
320	0.087	0.01
325	0.072	0.01
330	0.062	0.01
335	0.053	0.01
340	0.047	0.01
345	0.041	0.01
350	0.037	0.01
355	0.034	0.01
360	0.03	0.01
365	0.028	0.01

System: 1-ethyl-3-methylimidazolium tetrafluoroborate; phases: Liquid, Air at 1 atmosphere
Property: Surface tension liquid-gas, N/m (Liquid); method: RINGTE:UFactor:8
Temperature, K	Surface tension liquid-gas, N/m	uncertainty
293	0.053	0.007

System: 1-ethyl-3-methylimidazolium tetrafluoroborate; phases: Liquid
Fixed: Pressure, kPa = 101.325
Property: Viscosity, Pa*s (Liquid); method: Cone and plate viscometry
Temperature, K	Viscosity, Pa*s	uncertainty
290	0.046	0.01
295	0.041	0.01
300	0.032	0.01
305	0.031	0.01
310	0.027	0.01
315	0.024	0.01
320	0.022	0.01
325	0.021	0.01
330	0.019	0.01
335	0.018	0.01
340	0.018	0.01
345	0.016	0.01
350	0.015	0.01
355	0.015	0.01
360	0.015	0.01
365	0.013	0.01
