Measured thermophysical data. Experimental Measurement and Correlation of the Solubilities of 2,4-Dichloro-5-methoxypyrimidine in Ethyl Ethanoate, Methanol, Ethanol, Acetone, Tetrachloromethane, and Heptane at Temperatures between (295 and 320) K
Source: J. Chem. Eng. Data, 2010, 10.1021/je9005689
Compound 1: 2,4-dichloro-5-methoxypyrimidine, C5H4Cl2N2O, InChI=1S/C5H4Cl2N2O/c1-10-3-2-8-5(7)9-4(3)6/h2H,1H3, purity 99.8%
Compound 2: ethanol, C2H6O, InChI=1S/C2H6O/c1-2-3/h3H,2H2,1H3
Compound 3: methanol, CH4O, InChI=1S/CH4O/c1-2/h2H,1H3
Compound 4: acetone, C3H6O, InChI=1S/C3H6O/c1-3(2)4/h1-2H3
Compound 5: .alpha.-cyano-3-phenoxybenzyl 2-(4-chlorophenyl)isovalerate, C25H22ClNO3, InChI=1S/C25H22ClNO3/c1-17(2)24(18-11-13-20(26)14-12-18)25(28)30-23(16-27)19-7-6-10-22(15-19)29-21-8-4-3-5-9-21/h3-15,17,23-24H,1-2H3
Compound 6: ethyl acetate, C4H8O2, InChI=1S/C4H8O2/c1-3-6-4(2)5/h3H2,1-2H3
Compound 7: heptane, C7H16, InChI=1S/C7H16/c1-3-5-7-6-4-2/h3-7H2,1-2H3

System: 2,4-dichloro-5-methoxypyrimidine; phases: Crystal, Liquid, Air at 1 atmosphere
Property: Molar enthalpy of transition or fusion, kJ/mol (Crystal); method: DSC
Molar enthalpy of transition or fusion, kJ/mol	uncertainty
17.674	0.42

System: 2,4-dichloro-5-methoxypyrimidine; phases: Crystal, Liquid, Air at 1 atmosphere
Property: Normal melting temperature, K (Crystal); method: DTA
Normal melting temperature, K	uncertainty
342.15	0.5

System: methanol + 2,4-dichloro-5-methoxypyrimidine; phases: Liquid, Crystal
Fixed: Pressure, kPa = 101
Property: Solid-liquid equilibrium temperature, K (Liquid); method: Laser detecting system
Mole fraction of 2,4-dichloro-5-methoxypyrimidine	Solid-liquid equilibrium temperature, K	uncertainty
0.059768	302.37	0.2
0.065849	303.78	0.2
0.07338	305.44	0.2
0.080301	306.57	0.2
0.08933	308.12	0.2
0.101529	309.67	0.2
0.114333	311.15	0.2
0.129692	312.43	0.2
0.145772	313.55	0.2
0.162754	314.81	0.2
0.181459	315.8	0.2
0.202267	316.95	0.2

System: ethanol + 2,4-dichloro-5-methoxypyrimidine; phases: Liquid, Crystal
Fixed: Pressure, kPa = 101
Property: Solid-liquid equilibrium temperature, K (Liquid); method: Laser detecting system
Mole fraction of 2,4-dichloro-5-methoxypyrimidine	Solid-liquid equilibrium temperature, K	uncertainty
0.04743	299.44	0.2
0.052663	301.27	0.2
0.058388	303.17	0.2
0.065536	305.17	0.2
0.074514	307.06	0.2
0.085507	309.05	0.2
0.097207	310.73	0.2
0.110429	312.58	0.2
0.125425	314	0.2
0.141072	315.47	0.2
0.15762	316.61	0.2

System: acetone + 2,4-dichloro-5-methoxypyrimidine; phases: Liquid, Crystal
Fixed: Pressure, kPa = 101
Property: Solid-liquid equilibrium temperature, K (Liquid); method: Laser detecting system
Mole fraction of 2,4-dichloro-5-methoxypyrimidine	Solid-liquid equilibrium temperature, K	uncertainty
0.347708	297.35	0.2
0.367653	299.36	0.2
0.386052	301.17	0.2
0.403382	303.13	0.2
0.420093	304.54	0.2
0.435828	306.18	0.2
0.450358	307.53	0.2
0.465911	308.97	0.2
0.481048	310.25	0.2
0.492259	311.37	0.2

System: 2,4-dichloro-5-methoxypyrimidine + .alpha.-cyano-3-phenoxybenzyl 2-(4-chlorophenyl)isovalerate; phases: Liquid, Crystal
Fixed: Pressure, kPa = 101
Property: Solid-liquid equilibrium temperature, K (Liquid); method: Laser detecting system
Mole fraction of 2,4-dichloro-5-methoxypyrimidine	Solid-liquid equilibrium temperature, K	uncertainty
0.122757	298.6	0.2
0.130116	299.42	0.2
0.143352	300.63	0.2
0.159083	301.97	0.2
0.177674	303.35	0.2
0.195902	304.82	0.2
0.214272	305.8	0.2
0.236581	306.87	0.2
0.261097	308.2	0.2
0.287659	309.57	0.2
0.314932	310.9	0.2
0.343237	312.15	0.2

System: ethyl acetate + 2,4-dichloro-5-methoxypyrimidine; phases: Liquid, Crystal
Fixed: Pressure, kPa = 101
Property: Solid-liquid equilibrium temperature, K (Liquid); method: Laser detecting system
Mole fraction of 2,4-dichloro-5-methoxypyrimidine	Solid-liquid equilibrium temperature, K	uncertainty
0.288299	295.6	0.2
0.294935	296.53	0.2
0.311078	298.25	0.2
0.330114	300.66	0.2
0.347297	302.28	0.2
0.36453	304.15	0.2
0.381766	305.62	0.2
0.400654	307.47	0.2
0.421626	309.19	0.2
0.443518	311.16	0.2
0.46747	313.07	0.2
0.490372	314.57	0.2
0.512758	316.39	0.2

System: heptane + 2,4-dichloro-5-methoxypyrimidine; phases: Liquid, Crystal
Fixed: Pressure, kPa = 101
Property: Solid-liquid equilibrium temperature, K (Liquid); method: laser detection
Mole fraction of 2,4-dichloro-5-methoxypyrimidine	Solid-liquid equilibrium temperature, K	uncertainty
0.009404	298.1	0.2
0.010393	299.83	0.2
0.011621	302.1	0.2
0.012845	303.81	0.2
0.014146	305.72	0.2
0.015655	307.55	0.2
0.01737	309.57	0.2
0.01921	310.97	0.2
0.021384	312.89	0.2
0.023911	315.04	0.2
0.026788	317.15	0.2
0.029596	318.83	0.2
0.032413	320.08	0.2
