Measured thermophysical data. Viscosity Measurements of Diisodecyl Phthalate Using a Vibrating Wire Instrument Operated In Free Decay Mode: Comparison with Results Obtained with the Forced Mode of Operation
Source: J. Chem. Eng. Data, 2009, 10.1021/je900113f
Compound 1: 3-methylnonyl 1,2-benzenedioate, C28H46O4, InChI=1S/C28H46O4/c1-23(2)17-11-7-5-9-15-21-31-27(29)25-19-13-14-20-26(25)28(30)32-22-16-10-6-8-12-18-24(3)4/h13-14,19-20,23-24H,5-12,15-18,21-22H2,1-4H3

System: 3-methylnonyl 1,2-benzenedioate; phases: Liquid
Fixed: Pressure, kPa = 101.325
Property: Viscosity, Pa*s (Liquid); method: Vibrating wire viscometry
Temperature, K	Viscosity, Pa*s	uncertainty
283.03	0.26488	0.00864
288.23	0.17635	0.00494
288.36	0.17392	0.00485
293.23	0.12234	0.0026
293.93	0.11651	0.00242
298.13	0.08776	0.00161
298.58	0.0853	0.00154
303.18	0.06451	0.00107
303.5	0.06325	0.00104
