Measured thermophysical data. (Liquid + Liquid) Equilibria of (Cyclohexane + Dimethyl Sulfoxide + Cyclohexanone) and (Cyclohexane + Dimethyl Sulfoxide + Cyclohexanol) at T = 303.2 K
Source: J. Chem. Eng. Data, 2010, 10.1021/je900549r
Compound 1: cyclohexane, C6H12, InChI=1S/C6H12/c1-2-4-6-5-3-1/h1-6H2
Compound 2: cyclohexanone, C6H10O, InChI=1S/C6H10O/c7-6-4-2-1-3-5-6/h1-5H2
Compound 3: cyclohexanol, C6H12O, InChI=1S/C6H12O/c7-6-4-2-1-3-5-6/h6-7H,1-5H2
Compound 4: dimethyl sulfoxide, C2H6OS, InChI=1S/C2H6OS/c1-4(2)3/h1-2H3

System: dimethyl sulfoxide + cyclohexanone + cyclohexane; phases: Liquid mixture 1, Liquid mixture 2
Fixed: Temperature, K = 303.2
Fixed: Pressure, kPa = 101
Property: Mole fraction of cyclohexanone (Liquid mixture 1); method: Chromatography
Property: Mole fraction of cyclohexanone (Liquid mixture 2); method: Chromatography
Property: Mole fraction of cyclohexane (Liquid mixture 2); method: Chromatography
Mole fraction of cyclohexane	Mole fraction of cyclohexanone	uncertainty	Mole fraction of cyclohexanone	uncertainty	Mole fraction of cyclohexane	uncertainty
0.9663	0.023	0.0003	0.06	0.0007	0.0642	
0.9106	0.0654	0.0005	0.1435	0.0012	0.0941	
0.8579	0.1017	0.0008	0.198	0.0016	0.1278	
0.7969	0.1407	0.0011	0.241	0.0019	0.1765	
0.6943	0.1966	0.0015	0.2715	0.0021	0.2383	
0.5923	0.2321	0.0018	0.2844	0.0022	0.3087	
0.5568	0.2428	0.0019	0.2794	0.0022	0.3598	

System: dimethyl sulfoxide + cyclohexanol + cyclohexane; phases: Liquid mixture 1, Liquid mixture 2
Fixed: Temperature, K = 303.2
Fixed: Pressure, kPa = 101
Property: Mole fraction of cyclohexanol (Liquid mixture 1); method: Chromatography
Property: Mole fraction of cyclohexanol (Liquid mixture 2); method: Chromatography
Property: Mole fraction of cyclohexane (Liquid mixture 2); method: Chromatography
Mole fraction of cyclohexane	Mole fraction of cyclohexanol	uncertainty	Mole fraction of cyclohexanol	uncertainty	Mole fraction of cyclohexane	uncertainty
0.9843	0.0044	0.0002	0.045	0.0005	0.0817	
0.9655	0.0138	0.0002	0.1082	0.0009	0.1194	
0.9449	0.0233	0.0003	0.144	0.0011	0.1495	
0.9192	0.0348	0.0003	0.1723	0.0013	0.1847	
0.8852	0.0503	0.0004	0.1943	0.0015	0.2285	
0.8117	0.0794	0.0006	0.2055	0.0016	0.3079	
0.7853	0.0917	0.0007	0.2099	0.0016	0.3311	
