Measured thermophysical data. New Highly CO2-Philic Diglycolic Acid Esters: Synthesis and Solubility in Supercritical Carbon Dioxide
Source: J. Chem. Eng. Data, 2010, 10.1021/je900893e
Compound 1: dibutyl 2,2'-oxydiacetate, C12H22O5, InChI=1S/C12H22O5/c1-3-5-7-16-11(13)9-15-10-12(14)17-8-6-4-2/h3-10H2,1-2H3, purity 99%
Compound 2: dihexyl 2,2'-oxydiacetate, C16H30O5, InChI=1S/C16H30O5/c1-3-5-7-9-11-20-15(17)13-19-14-16(18)21-12-10-8-6-4-2/h3-14H2,1-2H3, purity 99%
Compound 3: dioctyl 2,2'-oxydiacetate, C20H38O5, InChI=1S/C20H38O5/c1-3-5-7-9-11-13-15-24-19(21)17-23-18-20(22)25-16-14-12-10-8-6-4-2/h3-18H2,1-2H3, purity 99%
Compound 4: didecyl 2,2'-oxydiacetate, C24H46O5, InChI=1S/C24H46O5/c1-3-5-7-9-11-13-15-17-19-28-23(25)21-27-22-24(26)29-20-18-16-14-12-10-8-6-4-2/h3-22H2,1-2H3, purity 99%
Compound 5: didodecyl 2,2'-oxydiacetate, C28H54O5, InChI=1S/C28H54O5/c1-3-5-7-9-11-13-15-17-19-21-23-32-27(29)25-31-26-28(30)33-24-22-20-18-16-14-12-10-8-6-4-2/h3-26H2,1-2H3, purity 99%
Compound 6: ditetradecyl 2,2'-oxydiacetate, C32H62O5, InChI=1S/C32H62O5/c1-3-5-7-9-11-13-15-17-19-21-23-25-27-36-31(33)29-35-30-32(34)37-28-26-24-22-20-18-16-14-12-10-8-6-4-2/h3-30H2,1-2H3, purity 99%
Compound 7: dihexadecyl 2,2'-oxydiacetate, C36H70O5, InChI=1S/C36H70O5/c1-3-5-7-9-11-13-15-17-19-21-23-25-27-29-31-40-35(37)33-39-34-36(38)41-32-30-28-26-24-22-20-18-16-14-12-10-8-6-4-2/h3-34H2,1-2H3, purity 99%
Compound 8: carbon dioxide, CO2, InChI=1S/CO2/c2-1-3, purity 99.99%

System: carbon dioxide + dibutyl 2,2'-oxydiacetate; phases: Gas, Liquid
Property: Mole fraction of dibutyl 2,2'-oxydiacetate (Gas); method: static analytical
Temperature, K	Pressure, kPa	Mole fraction of dibutyl 2,2'-oxydiacetate	uncertainty
313	8600	0.002334	0.00014
313	8800	0.004077	0.000245
313	8900	0.00573	0.000344
313	9200	0.009909	0.000595
313	9300	0.015984	0.000959
323	9800	0.002446	0.000147
323	10200	0.004322	0.000259
323	10500	0.005944	0.000357
323	10800	0.007345	0.000441
323	10900	0.008976	0.000539
333	11000	0.002475	0.000149
333	11500	0.004473	0.000268
333	12000	0.006112	0.000367
333	12400	0.007626	0.000458
333	12700	0.009118	0.000547

System: carbon dioxide + dihexyl 2,2'-oxydiacetate; phases: Gas, Liquid
Property: Mole fraction of dihexyl 2,2'-oxydiacetate (Gas); method: static analytical
Temperature, K	Pressure, kPa	Mole fraction of dihexyl 2,2'-oxydiacetate	uncertainty
313	8400	0.001907	0.000114
313	8600	0.002821	0.00017
313	8800	0.004927	0.000302
313	8900	0.006925	0.000427
313	9100	0.008308	0.000514
323	9500	0.001945	0.000173
323	9900	0.002865	0.000173
323	10400	0.004925	0.000301
323	10700	0.006819	0.000421
323	10900	0.008679	0.000538
333	10600	0.001952	0.000131
333	11100	0.00293	0.000192
333	11900	0.005013	0.00031
333	12100	0.005808	0.000353
333	12400	0.006912	0.000416

System: carbon dioxide + dioctyl 2,2'-oxydiacetate; phases: Gas, Liquid
Property: Mole fraction of dioctyl 2,2'-oxydiacetate (Gas); method: static analytical
Temperature, K	Pressure, kPa	Mole fraction of dioctyl 2,2'-oxydiacetate	uncertainty
313	8800	0.001235	7.4e-05
313	9000	0.001821	0.00011
313	9300	0.003228	0.000197
313	9500	0.004606	0.000284
313	9600	0.006022	0.000373
323	10200	0.001309	0.000123
323	10500	0.002001	0.000145
323	11100	0.00348	0.000213
323	11500	0.004882	0.000301
323	11900	0.006183	0.000383
333	11400	0.001382	9.3e-05
333	11800	0.002133	0.000139
333	12600	0.003736	0.000229
333	13100	0.005243	0.000315
333	13700	0.006552	0.000393

System: didecyl 2,2'-oxydiacetate + carbon dioxide; phases: Fluid (supercritical or subcritical phases), Crystal
Property: Mole fraction of didecyl 2,2'-oxydiacetate (Fluid (supercritical or subcritical phases)); method: static analytical
Temperature, K	Pressure, kPa	Mole fraction of didecyl 2,2'-oxydiacetate	uncertainty
313	9300	0.00114	0.00114
313	9700	0.001764	0.001166
313	10200	0.002474	0.00016
313	10500	0.00316	0.001696
313	10600	0.003362	0.001723
323	10900	0.00085	0.00085
323	11500	0.001399	0.001251
323	11800	0.001862	0.00119
323	12300	0.002757	0.001375
323	13200	0.003518	0.001205
333	13500	0.001323	0.001232
333	13900	0.001813	0.001246
333	14200	0.002372	0.001171
333	14800	0.00292	0.001243
333	15200	0.003424	0.001259

System: carbon dioxide + didodecyl 2,2'-oxydiacetate; phases: Fluid (supercritical or subcritical phases), Crystal
Property: Mole fraction of didodecyl 2,2'-oxydiacetate (Fluid (supercritical or subcritical phases)); method: static analytical
Temperature, K	Pressure, kPa	Mole fraction of didodecyl 2,2'-oxydiacetate	uncertainty
313	9200	0.000654	0.000654
313	9500	0.000956	0.000239
313	9800	0.00132	0.000493
313	10000	0.001625	0.000827
313	10500	0.001873	0.000946
323	11200	0.00064	0.00064
323	11400	0.000917	0.000586
323	11700	0.001078	0.000599
323	11900	0.00139	0.000808
323	12800	0.001732	0.000605
333	12800	0.000681	0.000681
333	13400	0.001014	0.000736
333	14100	0.001567	0.000689
333	14200	0.00163	0.000686
333	14500	0.00182	0.000742

System: carbon dioxide + ditetradecyl 2,2'-oxydiacetate; phases: Fluid (supercritical or subcritical phases), Crystal
Property: Mole fraction of ditetradecyl 2,2'-oxydiacetate (Fluid (supercritical or subcritical phases)); method: static analytical
Temperature, K	Pressure, kPa	Mole fraction of ditetradecyl 2,2'-oxydiacetate	uncertainty
313	10300	0.000478	0.000478
313	10700	0.00076	0.000375
313	11200	0.001057	0.000294
313	11700	0.001308	0.0006
313	12500	0.001428	0.000301
323	13000	0.000479	0.000479
323	13600	0.000775	0.000148
323	14000	0.000999	0.000393
323	14300	0.001404	0.000718
323	14600	0.001538	0.00067
333	15100	0.000513	0.000513
333	15700	0.000981	0.000413
333	16100	0.001168	0.000517
333	16600	0.001335	0.000555
333	16900	0.00147	0.000419

System: carbon dioxide + dihexadecyl 2,2'-oxydiacetate; phases: Fluid (supercritical or subcritical phases), Crystal
Property: Mole fraction of dihexadecyl 2,2'-oxydiacetate (Fluid (supercritical or subcritical phases)); method: static analytical
Temperature, K	Pressure, kPa	Mole fraction of dihexadecyl 2,2'-oxydiacetate	uncertainty
313	13400	0.000416	0.000193
313	14500	0.000626	0.000181
313	15100	0.000795	0.000188
313	16200	0.00091	0.000137
313	18100	0.001161	0.000153
323	15600	0.000516	0.000447
323	16000	0.000702	0.000348
323	16900	0.001095	0.000365
323	17600	0.001254	0.000178
323	18400	0.001482	0.000172
333	17300	0.000543	0.00041
333	17900	0.000762	0.00043
333	18200	0.001203	0.000163
333	19300	0.001359	0.000147
333	20400	0.001585	0.000231
