Measured thermophysical data. Solid-Liquid-Gas Equilibrium of the Ternaries Ibuprofen + Myristic Acid + CO2 and Ibuprofen + Tripalmitin + CO2
Source: J. Chem. Eng. Data, 2010, 10.1021/je900342a
Compound 1: tetradecanoic acid, C14H28O2, InChI=1S/C14H28O2/c1-2-3-4-5-6-7-8-9-10-11-12-13-14(15)16/h2-13H2,1H3,(H,15,16)
Compound 2: ibuprofen, C13H18O2, InChI=1S/C13H18O2/c1-9(2)8-11-4-6-12(7-5-11)10(3)13(14)15/h4-7,9-10H,8H2,1-3H3,(H,14,15)
Compound 3: 1,2,3-propanetriyl tri(hexadecanoate), C51H98O6, InChI=1S/C51H98O6/c1-4-7-10-13-16-19-22-25-28-31-34-37-40-43-49(52)55-46-48(57-51(54)45-42-39-36-33-30-27-24-21-18-15-12-9-6-3)47-56-50(53)44-41-38-35-32-29-26-23-20-17-14-11-8-5-2/h48H,4-47H2,1-3H3

System: tetradecanoic acid; phases: Crystal, Liquid, Air at 1 atmosphere
Property: Molar enthalpy of transition or fusion, kJ/mol (Crystal); method: DSC
Molar enthalpy of transition or fusion, kJ/mol	uncertainty
45.75	1.25

System: tetradecanoic acid; phases: Crystal, Liquid, Air at 1 atmosphere
Property: Normal melting temperature, K (Crystal); method: DTA
Normal melting temperature, K	uncertainty
326.2	0.5

System: ibuprofen; phases: Crystal, Liquid, Air at 1 atmosphere
Property: Molar enthalpy of transition or fusion, kJ/mol (Crystal); method: DSC
Molar enthalpy of transition or fusion, kJ/mol	uncertainty
27.94	0.8

System: ibuprofen; phases: Crystal, Liquid, Air at 1 atmosphere
Property: Normal melting temperature, K (Crystal); method: DTA
Normal melting temperature, K	uncertainty
347.6	0.5

System: 1,2,3-propanetriyl tri(hexadecanoate); phases: Crystal, Liquid, Air at 1 atmosphere
Property: Molar enthalpy of transition or fusion, kJ/mol (Crystal); method: DSC
Molar enthalpy of transition or fusion, kJ/mol	uncertainty
162.6	4.2

System: 1,2,3-propanetriyl tri(hexadecanoate); phases: Crystal, Liquid, Air at 1 atmosphere
Property: Normal melting temperature, K (Crystal); method: DTA
Normal melting temperature, K	uncertainty
340.5	0.5

System: tetradecanoic acid + ibuprofen; phases: Crystal, Crystal, Liquid, Air at 1 atmosphere
Property: Eutectic temperature, K (Crystal); method: DTA
Eutectic temperature, K	uncertainty
316.9	1

System: tetradecanoic acid + ibuprofen; phases: Liquid, Crystal
Fixed: Pressure, kPa = 101
Property: Solid-liquid equilibrium temperature, K (Liquid); method: DTA
Mass fraction of ibuprofen	Solid-liquid equilibrium temperature, K	uncertainty
0	326.2	2
0.05	327.2	2
0.2	322.8	2

System: tetradecanoic acid + ibuprofen; phases: Liquid, Crystal
Fixed: Pressure, kPa = 101
Property: Solid-liquid equilibrium temperature, K (Liquid); method: DTA
Mass fraction of ibuprofen	Solid-liquid equilibrium temperature, K	uncertainty
0.5	316.9	2
0.9	344.9	2
0.95	347.2	2
1	347.6	2

System: 1,2,3-propanetriyl tri(hexadecanoate) + ibuprofen; phases: Crystal, Crystal, Liquid, Air at 1 atmosphere
Property: Eutectic temperature, K (Crystal); method: DTA
Eutectic temperature, K	uncertainty
330.8	1

System: 1,2,3-propanetriyl tri(hexadecanoate) + ibuprofen; phases: Liquid, Crystal
Fixed: Pressure, kPa = 101
Property: Solid-liquid equilibrium temperature, K (Liquid); method: DTA
Mass fraction of ibuprofen	Solid-liquid equilibrium temperature, K	uncertainty
0	340.5	2
0.17	337.5	2
0.3	335.6	2

System: 1,2,3-propanetriyl tri(hexadecanoate) + ibuprofen; phases: Liquid, Crystal
Fixed: Pressure, kPa = 101
Property: Solid-liquid equilibrium temperature, K (Liquid); method: DTA
Mass fraction of ibuprofen	Solid-liquid equilibrium temperature, K	uncertainty
0.4	330.8	2
0.6	342.9	2
0.8	345.2	2
1	347.6	2
