Measured thermophysical data. Densities and Excess Molar Volumes of the Binary Mixtures of Cyclopentanone with Chloroalkanes at T = (288.15, 298.15, 308.15, and 318.15) K
Source: J. Chem. Eng. Data, 2010, 10.1021/je901052w
Compound 1: 1,1,2,2-tetrachloroethane, C2H2Cl4, InChI=1S/C2H2Cl4/c3-1(4)2(5)6/h1-2H, purity 99.8%
Compound 2: 1,1,1-trichloroethane, C2H3Cl3, InChI=1S/C2H3Cl3/c1-2(3,4)5/h1H3, purity 99.8%
Compound 3: trichloromethane, CHCl3, InChI=1S/CHCl3/c2-1(3)4/h1H, purity 99.8%
Compound 4: 1,2-dichloroethane, C2H4Cl2, InChI=1S/C2H4Cl2/c3-1-2-4/h1-2H2, purity 99.8%
Compound 5: 1,3-dichloropropane, C3H6Cl2, InChI=1S/C3H6Cl2/c4-2-1-3-5/h1-3H2, purity 99.8%
Compound 6: 1,4-dichlorobutane, C4H8Cl2, InChI=1S/C4H8Cl2/c5-3-1-2-4-6/h1-4H2, purity 99.8%
Compound 7: 1-chlorobutane, C4H9Cl, InChI=1S/C4H9Cl/c1-2-3-4-5/h2-4H2,1H3, purity 99.8%
Compound 8: cyclopentanone, C5H8O, InChI=1S/C5H8O/c6-5-3-1-2-4-5/h1-4H2, purity 99.8%

System: 1,1,2,2-tetrachloroethane; phases: Liquid
Fixed: Pressure, kPa = 101
Property: Mass density, kg/m3 (Liquid); method: VIBTUB:UFactor:2
Temperature, K	Mass density, kg/m3	uncertainty
288.15	1604.78	0.56
298.15	1589.19	0.54
308.15	1573.59	0.53
318.15	1557.95	0.52

System: 1,1,1-trichloroethane; phases: Liquid
Fixed: Pressure, kPa = 101
Property: Mass density, kg/m3 (Liquid); method: VIBTUB:UFactor:2
Temperature, K	Mass density, kg/m3	uncertainty
288.15	1346.17	0.38
298.15	1329.49	0.37
308.15	1312.65	0.36
318.15	1295.66	0.35

System: trichloromethane; phases: Liquid
Fixed: Pressure, kPa = 101
Property: Mass density, kg/m3 (Liquid); method: VIBTUB:UFactor:2
Temperature, K	Mass density, kg/m3	uncertainty
288.15	1492.31	0.47
298.15	1473.43	0.46
308.15	1454.33	0.45
318.15	1434.97	0.43

System: 1,2-dichloroethane; phases: Liquid
Fixed: Pressure, kPa = 101
Property: Mass density, kg/m3 (Liquid); method: VIBTUB:UFactor:2
Temperature, K	Mass density, kg/m3	uncertainty
288.15	1260.33	0.32
298.15	1245.8	0.32
308.15	1231.15	0.31
318.15	1216.35	0.3

System: 1,3-dichloropropane; phases: Liquid
Fixed: Pressure, kPa = 101
Property: Mass density, kg/m3 (Liquid); method: VIBTUB:UFactor:2
Temperature, K	Mass density, kg/m3	uncertainty
288.15	1191.92	0.29
298.15	1179.56	0.28
308.15	1167.14	0.27
318.15	1154.65	0.27

System: 1,4-dichlorobutane; phases: Liquid
Fixed: Pressure, kPa = 101
Property: Mass density, kg/m3 (Liquid); method: VIBTUB:UFactor:2
Temperature, K	Mass density, kg/m3	uncertainty
288.15	1143.43	0.26
298.15	1132.5	0.26
308.15	1121.54	0.25
318.15	1110.54	0.25

System: 1-chlorobutane; phases: Liquid
Fixed: Pressure, kPa = 101
Property: Mass density, kg/m3 (Liquid); method: VIBTUB:UFactor:2
Temperature, K	Mass density, kg/m3	uncertainty
288.15	892.18	0.24
298.15	881.12	0.25
308.15	869.93	0.25
318.15	858.58	0.26

System: cyclopentanone; phases: Liquid
Fixed: Pressure, kPa = 101
Property: Mass density, kg/m3 (Liquid); method: VIBTUB:UFactor:2
Temperature, K	Mass density, kg/m3	uncertainty
288.15	953.99	0.22
298.15	944.35	0.23
308.15	934.69	0.23
318.15	924.99	0.23

System: 1,1,2,2-tetrachloroethane + cyclopentanone; phases: Liquid
Fixed: Pressure, kPa = 101
Property: Mass density, kg/m3 (Liquid); method: VIBTUB:UFactor:2
Temperature, K	Mole fraction of 1,1,2,2-tetrachloroethane	Mass density, kg/m3	uncertainty
288.15	0	953.99	0.22
288.15	0.1209	1047.22	0.38
288.15	0.2041	1109.07	0.38
288.15	0.3218	1193.26	0.4
288.15	0.4139	1256.69	0.42
288.15	0.512	1321.38	0.44
288.15	0.6132	1385.46	0.47
288.15	0.7097	1443.91	0.5
288.15	0.7901	1490.55	0.52
288.15	0.9004	1551.95	0.56
288.15	1	1604.78	0.56
298.15	0	944.35	0.23
298.15	0.1209	1036.91	0.37
298.15	0.2041	1098.28	0.38
298.15	0.3218	1181.79	0.4
298.15	0.4139	1244.71	0.41
298.15	0.512	1308.82	0.44
298.15	0.6132	1372.29	0.46
298.15	0.7097	1430.16	0.49
298.15	0.7901	1476.32	0.51
298.15	0.9004	1537.02	0.55
298.15	1	1589.19	0.54
308.15	0	934.69	0.23
308.15	0.1209	1026.54	0.37
308.15	0.2041	1087.44	0.37
308.15	0.3218	1170.29	0.39
308.15	0.4139	1232.66	0.41
308.15	0.512	1296.19	0.43
308.15	0.6132	1359.06	0.45
308.15	0.7097	1416.37	0.48
308.15	0.7901	1462.03	0.5
308.15	0.9004	1522.06	0.53
308.15	1	1573.59	0.53
318.15	0	924.99	0.23
318.15	0.1209	1016.11	0.37
318.15	0.2041	1076.53	0.37
318.15	0.3218	1158.7	0.39
318.15	0.4139	1220.54	0.4
318.15	0.512	1283.5	0.42
318.15	0.6132	1345.77	0.45
318.15	0.7097	1402.5	0.47
318.15	0.7901	1447.69	0.49
318.15	0.9004	1507.05	0.52
318.15	1	1557.95	0.52

System: 1,1,1-trichloroethane + cyclopentanone; phases: Liquid
Fixed: Pressure, kPa = 101
Property: Mass density, kg/m3 (Liquid); method: VIBTUB:UFactor:2
Temperature, K	Mole fraction of 1,1,1-trichloroethane	Mass density, kg/m3	uncertainty
288.15	0	953.99	0.22
288.15	0.1165	1006.37	0.28
288.15	0.2125	1048.24	0.28
288.15	0.3002	1085.47	0.29
288.15	0.4003	1126.73	0.3
288.15	0.4938	1164.1	0.31
288.15	0.5938	1202.79	0.33
288.15	0.6952	1240.7	0.35
288.15	0.7988	1277.98	0.36
288.15	0.911	1316.7	0.38
288.15	1	1346.17	0.38
298.15	0	944.35	0.23
298.15	0.1165	995.99	0.27
298.15	0.2125	1037.23	0.28
298.15	0.3002	1073.88	0.29
298.15	0.4003	1114.46	0.3
298.15	0.4938	1151.18	0.31
298.15	0.5938	1189.17	0.32
298.15	0.6952	1226.35	0.34
298.15	0.7988	1262.86	0.35
298.15	0.911	1300.71	0.37
298.15	1	1329.49	0.37
308.15	0	934.69	0.23
308.15	0.1165	985.56	0.27
308.15	0.2125	1026.17	0.27
308.15	0.3002	1062.22	0.28
308.15	0.4003	1102.11	0.29
308.15	0.4938	1138.19	0.3
308.15	0.5938	1175.46	0.31
308.15	0.6952	1211.89	0.33
308.15	0.7988	1247.62	0.34
308.15	0.911	1284.6	0.36
308.15	1	1312.65	0.36
318.15	0	924.99	0.23
318.15	0.1165	975.08	0.28
318.15	0.2125	1015.04	0.27
318.15	0.3002	1050.49	0.28
318.15	0.4003	1089.7	0.28
318.15	0.4938	1125.09	0.29
318.15	0.5938	1161.64	0.31
318.15	0.6952	1197.32	0.32
318.15	0.7988	1232.24	0.34
318.15	0.911	1268.34	0.35
318.15	1	1295.66	0.35

System: trichloromethane + cyclopentanone; phases: Liquid
Fixed: Pressure, kPa = 101
Property: Mass density, kg/m3 (Liquid); method: VIBTUB:UFactor:2
Temperature, K	Mole fraction of trichloromethane	Mass density, kg/m3	uncertainty
288.15	0	953.99	0.22
288.15	0.1249	1016.96	0.3
288.15	0.2266	1069.07	0.31
288.15	0.3255	1120.83	0.33
288.15	0.4011	1161.1	0.35
288.15	0.5001	1214.66	0.37
288.15	0.5919	1265	0.39
288.15	0.69	1319.45	0.42
288.15	0.807	1384.63	0.46
288.15	0.906	1439.89	0.49
288.15	1	1492.31	0.47
298.15	0	944.35	0.23
298.15	0.1249	1006.56	0.29
298.15	0.2266	1058.03	0.31
298.15	0.3255	1109.11	0.32
298.15	0.4011	1148.82	0.34
298.15	0.5001	1201.57	0.36
298.15	0.5919	1251.09	0.39
298.15	0.69	1304.53	0.41
298.15	0.807	1368.39	0.45
298.15	0.906	1422.36	0.48
298.15	1	1473.43	0.46
308.15	0	934.69	0.23
308.15	0.1249	996.12	0.29
308.15	0.2266	1046.93	0.3
308.15	0.3255	1097.32	0.32
308.15	0.4011	1136.46	0.33
308.15	0.5001	1188.38	0.35
308.15	0.5919	1237.05	0.38
308.15	0.69	1289.48	0.4
308.15	0.807	1351.97	0.44
308.15	0.906	1404.64	0.46
308.15	1	1454.33	0.45
318.15	0	924.99	0.23
318.15	0.1249	985.6	0.29
318.15	0.2266	1035.75	0.3
318.15	0.3255	1085.43	0.31
318.15	0.4011	1123.98	0.33
318.15	0.5001	1175.07	0.35
318.15	0.5919	1222.87	0.37
318.15	0.69	1274.26	0.39
318.15	0.807	1335.37	0.42
318.15	0.906	1387	0.45
318.15	1	1434.97	0.43

System: 1,2-dichloroethane + cyclopentanone; phases: Liquid
Fixed: Pressure, kPa = 101
Property: Mass density, kg/m3 (Liquid); method: VIBTUB:UFactor:2
Temperature, K	Mole fraction of 1,2-dichloroethane	Mass density, kg/m3	uncertainty
288.15	0	953.99	0.22
288.15	0.1186	986.57	0.24
288.15	0.1945	1007.9	0.24
288.15	0.3015	1038.6	0.25
288.15	0.4044	1068.85	0.26
288.15	0.5004	1097.68	0.27
288.15	0.6009	1128.64	0.28
288.15	0.6915	1157.24	0.3
288.15	0.7932	1190.15	0.31
288.15	0.8997	1225.7	0.33
288.15	1	1260.33	0.32
298.15	0	944.35	0.23
298.15	0.1186	976.53	0.24
298.15	0.1945	997.59	0.24
298.15	0.3015	1027.87	0.25
298.15	0.4044	1057.69	0.26
298.15	0.5004	1086.09	0.27
298.15	0.6009	1116.55	0.28
298.15	0.6915	1144.68	0.29
298.15	0.7932	1177.01	0.31
298.15	0.8997	1211.87	0.33
298.15	1	1245.8	0.32
308.15	0	934.69	0.23
308.15	0.1186	966.45	0.24
308.15	0.1945	987.23	0.24
308.15	0.3015	1017.08	0.24
308.15	0.4044	1046.46	0.25
308.15	0.5004	1074.43	0.26
308.15	0.6009	1104.39	0.27
308.15	0.6915	1132.02	0.29
308.15	0.7932	1163.76	0.3
308.15	0.8997	1197.94	0.32
308.15	1	1231.15	0.31
318.15	0	924.99	0.23
318.15	0.1186	956.32	0.25
318.15	0.1945	976.81	0.24
318.15	0.3015	1006.23	0.24
318.15	0.4044	1035.16	0.25
318.15	0.5004	1062.67	0.26
318.15	0.6009	1092.12	0.27
318.15	0.6915	1119.26	0.28
318.15	0.7932	1150.4	0.29
318.15	0.8997	1183.89	0.31
318.15	1	1216.35	0.3

System: cyclopentanone + 1,3-dichloropropane; phases: Liquid
Fixed: Pressure, kPa = 101
Property: Mass density, kg/m3 (Liquid); method: VIBTUB:UFactor:2
Temperature, K	Mole fraction of 1,3-dichloropropane	Mass density, kg/m3	uncertainty
288.15	0	953.99	0.22
288.15	0.1064	980.5	0.24
288.15	0.1972	1002.92	0.23
288.15	0.2925	1026.13	0.24
288.15	0.3865	1048.87	0.24
288.15	0.4831	1071.97	0.25
288.15	0.5793	1094.77	0.26
288.15	0.6743	1117.06	0.27
288.15	0.7804	1141.7	0.28
288.15	0.8756	1163.59	0.29
288.15	1	1191.92	0.29
298.15	0	944.35	0.23
298.15	0.1064	970.62	0.24
298.15	0.1972	992.8	0.23
298.15	0.2925	1015.76	0.24
298.15	0.3865	1038.26	0.24
298.15	0.4831	1061.1	0.25
298.15	0.5793	1083.63	0.25
298.15	0.6743	1105.64	0.26
298.15	0.7804	1129.98	0.27
298.15	0.8756	1151.59	0.28
298.15	1	1179.56	0.28
308.15	0	934.69	0.23
308.15	0.1064	960.68	0.24
308.15	0.1972	982.63	0.24
308.15	0.2925	1005.35	0.23
308.15	0.3865	1027.59	0.24
308.15	0.4831	1050.16	0.24
308.15	0.5793	1072.43	0.25
308.15	0.6743	1094.17	0.26
308.15	0.7804	1118.21	0.27
308.15	0.8756	1139.54	0.28
308.15	1	1167.14	0.27
318.15	0	924.99	0.23
318.15	0.1064	950.7	0.24
318.15	0.1972	972.41	0.24
318.15	0.2925	994.87	0.23
318.15	0.3865	1016.86	0.23
318.15	0.4831	1039.17	0.24
318.15	0.5793	1061.16	0.25
318.15	0.6743	1082.63	0.25
318.15	0.7804	1106.36	0.26
318.15	0.8756	1127.41	0.27
318.15	1	1154.65	0.27

System: 1,4-dichlorobutane + cyclopentanone; phases: Liquid
Fixed: Pressure, kPa = 101
Property: Mass density, kg/m3 (Liquid); method: VIBTUB:UFactor:2
Temperature, K	Mole fraction of 1,4-dichlorobutane	Mass density, kg/m3	uncertainty
288.15	0	953.99	0.22
288.15	0.1103	979.25	0.23
288.15	0.2151	1002.02	0.23
288.15	0.3024	1020.17	0.23
288.15	0.3909	1037.87	0.23
288.15	0.49	1056.87	0.24
288.15	0.5868	1074.68	0.24
288.15	0.6976	1094.22	0.25
288.15	0.8036	1112.13	0.26
288.15	0.919	1130.8	0.26
288.15	1	1143.43	0.26
298.15	0	944.35	0.23
298.15	0.1103	969.45	0.24
298.15	0.2151	992.09	0.23
298.15	0.3024	1010.12	0.23
298.15	0.3909	1027.7	0.23
298.15	0.49	1046.56	0.24
298.15	0.5868	1064.25	0.24
298.15	0.6976	1083.64	0.25
298.15	0.8036	1101.43	0.25
298.15	0.919	1119.97	0.26
298.15	1	1132.5	0.26
308.15	0	934.69	0.23
308.15	0.1103	959.63	0.24
308.15	0.2151	982.11	0.23
308.15	0.3024	1000.02	0.23
308.15	0.3909	1017.48	0.23
308.15	0.49	1036.22	0.23
308.15	0.5868	1053.78	0.24
308.15	0.6976	1073.04	0.24
308.15	0.8036	1090.7	0.25
308.15	0.919	1109.1	0.25
308.15	1	1121.54	0.25
318.15	0	924.99	0.23
318.15	0.1103	949.76	0.24
318.15	0.2151	972.09	0.23
318.15	0.3024	989.87	0.23
318.15	0.3909	1007.21	0.23
318.15	0.49	1025.82	0.23
318.15	0.5868	1043.26	0.23
318.15	0.6976	1062.39	0.24
318.15	0.8036	1079.93	0.24
318.15	0.919	1098.19	0.25
318.15	1	1110.54	0.25

System: 1-chlorobutane + cyclopentanone; phases: Liquid
Fixed: Pressure, kPa = 101
Property: Mass density, kg/m3 (Liquid); method: VIBTUB:UFactor:2
Temperature, K	Mole fraction of 1-chlorobutane	Mass density, kg/m3	uncertainty
288.15	0	953.99	0.22
288.15	0.097	947.69	0.23
288.15	0.2041	940.85	0.23
288.15	0.3226	933.38	0.23
288.15	0.4106	928	0.23
288.15	0.4991	922.46	0.23
288.15	0.605	915.99	0.24
288.15	0.7051	910	0.24
288.15	0.7934	904.56	0.24
288.15	0.8965	898.44	0.24
288.15	1	892.18	0.24
298.15	0	944.35	0.23
298.15	0.097	937.94	0.23
298.15	0.2041	930.96	0.23
298.15	0.3226	923.32	0.23
298.15	0.4106	917.83	0.24
298.15	0.4991	912.15	0.24
298.15	0.605	905.53	0.24
298.15	0.7051	899.39	0.24
298.15	0.7934	893.82	0.25
298.15	0.8965	887.54	0.25
298.15	1	881.12	0.25
308.15	0	934.69	0.23
308.15	0.097	928.14	0.23
308.15	0.2041	921.02	0.24
308.15	0.3226	913.2	0.24
308.15	0.4106	907.58	0.24
308.15	0.4991	901.77	0.24
308.15	0.605	894.69	0.24
308.15	0.7051	888.68	0.25
308.15	0.7934	882.97	0.25
308.15	0.8965	876.52	0.25
308.15	1	869.93	0.25
318.15	0	924.99	0.23
318.15	0.097	918.29	0.24
318.15	0.2041	911	0.24
318.15	0.3226	903.01	0.24
318.15	0.4106	897.24	0.24
318.15	0.4991	891.29	0.25
318.15	0.605	884.33	0.25
318.15	0.7051	877.86	0.25
318.15	0.7934	871.98	0.25
318.15	0.8965	865.36	0.26
318.15	1	858.58	0.26
