Measured thermophysical data. Henry s Law Constants of Organic Compounds in Water and n-Octane at T = 293.2 K
Source: J. Chem. Eng. Data, 2010, 10.1021/je900711h
Compound 1: water, H2O, InChI=1S/H2O/h1H2
Compound 2: acetone, C3H6O, InChI=1S/C3H6O/c1-3(2)4/h1-2H3, purity 99.5%
Compound 3: 1-fluoro-2-propanone, C3H5FO, InChI=1S/C3H5FO/c1-3(5)2-4/h2H2,1H3, purity 99%
Compound 4: 1,1-dichloro-2-propanone, C3H4Cl2O, InChI=1S/C3H4Cl2O/c1-2(6)3(4)5/h3H,1H3, purity 98%
Compound 5: cyclopentanone, C5H8O, InChI=1S/C5H8O/c6-5-3-1-2-4-5/h1-4H2, purity 99%
Compound 6: cyclopentane, C5H10, InChI=1S/C5H10/c1-2-4-5-3-1/h1-5H2, purity 95%
Compound 7: tetrahydrofuran, C4H8O, InChI=1S/C4H8O/c1-2-4-5-3-1/h1-4H2, purity 99.9%
Compound 8: 1,4-dioxane, C4H8O2, InChI=1S/C4H8O2/c1-2-6-4-3-5-1/h1-4H2, purity 99%
Compound 9: 1,3-dioxane, C4H8O2, InChI=1S/C4H8O2/c1-2-5-4-6-3-1/h1-4H2, purity 97%
Compound 10: ethyl methanoate, C3H6O2, InChI=1S/C3H6O2/c1-2-5-3-4/h3H,2H2,1H3, purity 97%
Compound 11: ethyl acetate, C4H8O2, InChI=1S/C4H8O2/c1-3-6-4(2)5/h3H2,1-2H3, purity 99.8%
Compound 12: methyl ethanoate, C3H6O2, InChI=1S/C3H6O2/c1-3(4)5-2/h1-2H3, purity 99.5%
Compound 13: diethyl ether, C4H10O, InChI=1S/C4H10O/c1-3-5-4-2/h3-4H2,1-2H3, purity 99.5%
Compound 14: 1,2-dimethoxyethane, C4H10O2, InChI=1S/C4H10O2/c1-5-3-4-6-2/h3-4H2,1-2H3, purity 98%
Compound 15: ethoxyethene, C4H8O, InChI=1S/C4H8O/c1-3-5-4-2/h3H,1,4H2,2H3, purity 99%
Compound 16: propyl vinyl ether, C5H10O, InChI=1S/C5H10O/c1-3-5-6-4-2/h4H,2-3,5H2,1H3, purity 99%
Compound 17: 1,1-dihydroperfluoropropyl methyl ether, C4H5F5O, InChI=1S/C4H5F5O/c1-10-2-3(5,6)4(7,8)9/h2H2,1H3, purity 97%
Compound 18: pyridine, C5H5N, InChI=1S/C5H5N/c1-2-4-6-5-3-1/h1-5H, purity 99.9%
Compound 19: benzene, C6H6, InChI=1S/C6H6/c1-2-4-6-5-3-1/h1-6H, purity 99.9%
Compound 20: methanol, CH4O, InChI=1S/CH4O/c1-2/h2H,1H3, purity 99.9%
Compound 21: ethanol, C2H6O, InChI=1S/C2H6O/c1-2-3/h3H,2H2,1H3, purity 99%
Compound 22: 2-fluoroethanol, C2H5FO, InChI=1S/C2H5FO/c3-1-2-4/h4H,1-2H2, purity 95%
Compound 23: 2,2-difluoroethanol, C2H4F2O, InChI=1S/C2H4F2O/c3-2(4)1-5/h2,5H,1H2, purity 95%
Compound 24: 2,2-dichloroethanol, C2H4Cl2O, InChI=1S/C2H4Cl2O/c3-2(4)1-5/h2,5H,1H2, purity 98%
Compound 25: pentan-3-one, C5H10O, InChI=1S/C5H10O/c1-3-5(6)4-2/h3-4H2,1-2H3, purity 90%
Compound 26: octan-1-ol, C8H18O, InChI=1S/C8H18O/c1-2-3-4-5-6-7-8-9/h9H,2-8H2,1H3, purity 99%
Compound 27: pentane, C5H12, InChI=1S/C5H12/c1-3-5-4-2/h3-5H2,1-2H3, purity 99%

System: acetone + water; phases: Liquid, Gas
Fixed: Mole fraction of acetone = 0
Property: Henry's Law constant (mole fraction scale), kPa of acetone (Liquid); method: Pressure vs. solute concentration measurements
Temperature, K	Henry's Law constant (mole fraction scale), kPa of acetone	uncertainty
278.2	56	10
283.2	75	10
288.2	100	10
293.2	130	10
298.2	170	10

System: methanol + water; phases: Liquid, Gas
Fixed: Mole fraction of methanol = 0
Property: Henry's Law constant (mole fraction scale), kPa of methanol (Liquid); method: Pressure vs. solute concentration measurements
Temperature, K	Henry's Law constant (mole fraction scale), kPa of methanol	uncertainty
278.2	7.5	0.3
283.2	8.7	1
288.2	13	1
293.2	20	3
298.2	26	4

System: ethanol + water; phases: Liquid, Gas
Fixed: Mole fraction of ethanol = 0
Property: Henry's Law constant (mole fraction scale), kPa of ethanol (Liquid); method: Pressure vs. solute concentration measurements
Temperature, K	Henry's Law constant (mole fraction scale), kPa of ethanol	uncertainty
278.2	6.5	0.9
283.2	10	1
288.2	13	4
293.2	20	3
298.2	26	2

System: 2-fluoroethanol + water; phases: Liquid, Gas
Property: Henry's Law constant (mole fraction scale), kPa of 2-fluoroethanol (Liquid); method: Pressure vs. solute concentration measurements
Temperature, K	Mole fraction of 2-fluoroethanol	Henry's Law constant (mole fraction scale), kPa of 2-fluoroethanol	uncertainty
293.2	0	120	20

System: 2,2-difluoroethanol + water; phases: Liquid, Gas
Property: Henry's Law constant (mole fraction scale), kPa of 2,2-difluoroethanol (Liquid); method: Pressure vs solute concentration measurements
Temperature, K	Mole fraction of 2,2-difluoroethanol	Henry's Law constant (mole fraction scale), kPa of 2,2-difluoroethanol	uncertainty
293.2	0	60	20

System: 2,2-dichloroethanol + water; phases: Liquid, Gas
Property: Henry's Law constant (mole fraction scale), kPa of 2,2-dichloroethanol (Liquid); method: Pressure vs solute concentration measurements
Temperature, K	Mole fraction of 2,2-dichloroethanol	Henry's Law constant (mole fraction scale), kPa of 2,2-dichloroethanol	uncertainty
293.2	0	150	100

System: 1,2-dimethoxyethane + water; phases: Liquid, Gas
Property: Henry's Law constant (mole fraction scale), kPa of 1,2-dimethoxyethane (Liquid); method: Pressure vs solute concentration measurements
Temperature, K	Mole fraction of 1,2-dimethoxyethane	Henry's Law constant (mole fraction scale), kPa of 1,2-dimethoxyethane	uncertainty
293.2	0	26	1

System: 1-fluoro-2-propanone + water; phases: Liquid, Gas
Property: Henry's Law constant (mole fraction scale), kPa of 1-fluoro-2-propanone (Liquid); method: Pressure vs solute concentration measurements
Temperature, K	Mole fraction of 1-fluoro-2-propanone	Henry's Law constant (mole fraction scale), kPa of 1-fluoro-2-propanone	uncertainty
293.2	0	120	10

System: 1,1-dichloro-2-propanone + water; phases: Liquid, Gas
Property: Henry's Law constant (mole fraction scale), kPa of 1,1-dichloro-2-propanone (Liquid); method: Pressure vs. Solute Concentration Measurements
Temperature, K	Mole fraction of 1,1-dichloro-2-propanone	Henry's Law constant (mole fraction scale), kPa of 1,1-dichloro-2-propanone	uncertainty
293.2	0	170	10

System: cyclopentanone + water; phases: Liquid, Gas
Property: Henry's Law constant (mole fraction scale), kPa of cyclopentanone (Liquid); method: Pressure vs. Solute Concentration Measurements
Temperature, K	Mole fraction of cyclopentanone	Henry's Law constant (mole fraction scale), kPa of cyclopentanone	uncertainty
293.2	0	20	3

System: 1,3-dioxane + water; phases: Liquid, Gas
Property: Henry's Law constant (mole fraction scale), kPa of 1,3-dioxane (Liquid); method: Pressure vs. Solute Concentration Measurements
Temperature, K	Mole fraction of 1,3-dioxane	Henry's Law constant (mole fraction scale), kPa of 1,3-dioxane	uncertainty
293.2	0	30	2

System: pentan-3-one + water; phases: Liquid, Gas
Property: Henry's Law constant (mole fraction scale), kPa of pentan-3-one (Liquid); method: Pressure vs. Solute Concentration Measurements
Temperature, K	Mole fraction of pentan-3-one	Henry's Law constant (mole fraction scale), kPa of pentan-3-one	uncertainty
293.2	0	260	30

System: ethanol + octan-1-ol; phases: Liquid, Gas
Property: Henry's Law constant (mole fraction scale), kPa of ethanol (Liquid); method: Pressure vs. solute Concentration measurements
Temperature, K	Mole fraction of ethanol	Henry's Law constant (mole fraction scale), kPa of ethanol	uncertainty
293.2	0	28	1

System: octan-1-ol + 2,2-difluoroethanol; phases: Liquid, Gas
Property: Henry's Law constant (mole fraction scale), kPa of 2,2-difluoroethanol (Liquid); method: Pressure vs. solute Concentration measurements
Temperature, K	Mole fraction of 2,2-difluoroethanol	Henry's Law constant (mole fraction scale), kPa of 2,2-difluoroethanol	uncertainty
293.2	0	81	2

System: octan-1-ol + 2,2-dichloroethanol; phases: Liquid, Gas
Property: Henry's Law constant (mole fraction scale), kPa of 2,2-dichloroethanol (Liquid); method: Pressure vs. solute Concentration measurements
Temperature, K	Mole fraction of 2,2-dichloroethanol	Henry's Law constant (mole fraction scale), kPa of 2,2-dichloroethanol	uncertainty
293.2	0	164	8

System: acetone + octan-1-ol; phases: Liquid, Gas
Property: Henry's Law constant (mole fraction scale), kPa of acetone (Liquid); method: Pressure vs. solute Concentration measurements
Temperature, K	Mole fraction of acetone	Henry's Law constant (mole fraction scale), kPa of acetone	uncertainty
293.2	0	170	10

System: octan-1-ol + 1-fluoro-2-propanone; phases: Liquid, Gas
Property: Henry's Law constant (mole fraction scale), kPa of 1-fluoro-2-propanone (Liquid); method: Pressure vs. solute Concentration measurements
Temperature, K	Mole fraction of 1-fluoro-2-propanone	Henry's Law constant (mole fraction scale), kPa of 1-fluoro-2-propanone	uncertainty
293.2	0	35	4

System: octan-1-ol + 1,1-dichloro-2-propanone; phases: Liquid, Gas
Property: Henry's Law constant (mole fraction scale), kPa of 1,1-dichloro-2-propanone (Liquid); method: Pressure vs. solute Concentration measurements
Temperature, K	Mole fraction of 1,1-dichloro-2-propanone	Henry's Law constant (mole fraction scale), kPa of 1,1-dichloro-2-propanone	uncertainty
293.2	0	44	3

System: pentan-3-one + octan-1-ol; phases: Liquid, Gas
Property: Henry's Law constant (mole fraction scale), kPa of pentan-3-one (Liquid); method: Pressure vs. solute Concentration measurements
Temperature, K	Mole fraction of pentan-3-one	Henry's Law constant (mole fraction scale), kPa of pentan-3-one	uncertainty
293.2	0	10	1

System: octan-1-ol + cyclopentanone; phases: Liquid, Gas
Property: Henry's Law constant (mole fraction scale), kPa of cyclopentanone (Liquid); method: Pressure vs. solute Concentration measurements
Temperature, K	Mole fraction of cyclopentanone	Henry's Law constant (mole fraction scale), kPa of cyclopentanone	uncertainty
293.2	0	7.3	0.3

System: methyl ethanoate + octan-1-ol; phases: Liquid, Gas
Property: Henry's Law constant (mole fraction scale), kPa of methyl ethanoate (Liquid); method: Pressure vs. solute Concentration measurements
Temperature, K	Mole fraction of methyl ethanoate	Henry's Law constant (mole fraction scale), kPa of methyl ethanoate	uncertainty
293.2	0	85	10

System: octan-1-ol + ethyl acetate; phases: Liquid, Gas
Property: Henry's Law constant (mole fraction scale), kPa of ethyl acetate (Liquid); method: Pressure vs. solute Concentration measurements
Temperature, K	Mole fraction of ethyl acetate	Henry's Law constant (mole fraction scale), kPa of ethyl acetate	uncertainty
293.2	0	26	1

System: ethyl methanoate + octan-1-ol; phases: Liquid, Gas
Property: Henry's Law constant (mole fraction scale), kPa of ethyl methanoate (Liquid); method: Pressure vs. solute Concentration measurements
Temperature, K	Mole fraction of ethyl methanoate	Henry's Law constant (mole fraction scale), kPa of ethyl methanoate	uncertainty
293.2	0	79	60

System: pyridine + octan-1-ol; phases: Liquid, Gas
Property: Henry's Law constant (mole fraction scale), kPa of pyridine (Liquid); method: Pressure vs. solute Concentration measurements
Temperature, K	Mole fraction of pyridine	Henry's Law constant (mole fraction scale), kPa of pyridine	uncertainty
293.2	0	16	2

System: benzene + octan-1-ol; phases: Liquid, Gas
Property: Henry's Law constant (mole fraction scale), kPa of benzene (Liquid); method: Pressure vs. solute Concentration measurements
Temperature, K	Mole fraction of benzene	Henry's Law constant (mole fraction scale), kPa of benzene	uncertainty
293.2	0	18.8	0.6

System: tetrahydrofuran + octan-1-ol; phases: Liquid, Gas
Property: Henry's Law constant (mole fraction scale), kPa of tetrahydrofuran (Liquid); method: Pressure vs. solute Concentration measurements
Temperature, K	Mole fraction of tetrahydrofuran	Henry's Law constant (mole fraction scale), kPa of tetrahydrofuran	uncertainty
293.2	0	27	2

System: octan-1-ol + 1,4-dioxane; phases: Liquid, Gas
Property: Henry's Law constant (mole fraction scale), kPa of 1,4-dioxane (Liquid); method: Pressure vs. solute Concentration measurements
Temperature, K	Mole fraction of 1,4-dioxane	Henry's Law constant (mole fraction scale), kPa of 1,4-dioxane	uncertainty
293.2	0	18	2

System: octan-1-ol + 1,3-dioxane; phases: Liquid, Gas
Property: Henry's Law constant (mole fraction scale), kPa of 1,3-dioxane (Liquid); method: Pressure vs. solute Concentration measurements
Temperature, K	Mole fraction of 1,3-dioxane	Henry's Law constant (mole fraction scale), kPa of 1,3-dioxane	uncertainty
293.2	0	22	2

System: diethyl ether + octan-1-ol; phases: Liquid, Gas
Property: Henry's Law constant (mole fraction scale), kPa of diethyl ether (Liquid); method: Pressure vs. solute concentration measurements
Temperature, K	Mole fraction of diethyl ether	Henry's Law constant (mole fraction scale), kPa of diethyl ether	uncertainty
293.2	0	69	7

System: 1,2-dimethoxyethane + octan-1-ol; phases: Liquid, Gas
Property: Henry's Law constant (mole fraction scale), kPa of 1,2-dimethoxyethane (Liquid); method: Pressure vs. solute concentration measurements
Temperature, K	Mole fraction of 1,2-dimethoxyethane	Henry's Law constant (mole fraction scale), kPa of 1,2-dimethoxyethane	uncertainty
293.2	0	14	1

System: octan-1-ol + 1,1-dihydroperfluoropropyl methyl ether; phases: Liquid, Gas
Property: Henry's Law constant (mole fraction scale), kPa of 1,1-dihydroperfluoropropyl methyl ether (Liquid); method: Pressure vs. solute concentration measurements
Temperature, K	Mole fraction of 1,1-dihydroperfluoropropyl methyl ether	Henry's Law constant (mole fraction scale), kPa of 1,1-dihydroperfluoropropyl methyl ether	uncertainty
293.2	0	830	61

System: ethoxyethene + octan-1-ol; phases: Liquid, Gas
Property: Henry's Law constant (mole fraction scale), kPa of ethoxyethene (Liquid); method: Pressure vs. solute concentration measurements
Temperature, K	Mole fraction of ethoxyethene	Henry's Law constant (mole fraction scale), kPa of ethoxyethene	uncertainty
293.2	0	72	3

System: octan-1-ol + propyl vinyl ether; phases: Liquid, Gas
Property: Henry's Law constant (mole fraction scale), kPa of propyl vinyl ether (Liquid); method: Pressure vs. solute concentration measurements
Temperature, K	Mole fraction of propyl vinyl ether	Henry's Law constant (mole fraction scale), kPa of propyl vinyl ether	uncertainty
293.2	0	24	2

System: octan-1-ol + cyclopentane; phases: Liquid, Gas
Property: Henry's Law constant (mole fraction scale), kPa of cyclopentane (Liquid); method: Pressure vs. solute concentration measurements
Temperature, K	Mole fraction of cyclopentane	Henry's Law constant (mole fraction scale), kPa of cyclopentane	uncertainty
293.2	0	36	1

System: pentane + octan-1-ol; phases: Liquid, Gas
Property: Henry's Law constant (mole fraction scale), kPa of pentane (Liquid); method: Pressure vs. solute concentration measurements
Temperature, K	Mole fraction of pentane	Henry's Law constant (mole fraction scale), kPa of pentane	uncertainty
293.2	0	48	3
