Measured thermophysical data. Thermodynamic Studies of Rod- and Spindle-Shaped ?-FeOOH Crystals
Source: J. Chem. Eng. Data, 2010, 10.1021/je900373z
Compound 1: iron oxyhydroxide, FeHO2, InChI=1S/Fe.H2O.O/h;1H2;/q+3;;-2/p-1

System: iron oxyhydroxide; phases: Crystal 2
Fixed: Pressure, kPa = 101.325
Property: Molar heat capacity at constant pressure, J/K/mol (Crystal 2); method: Vacuum adiabatic calorimetry
Temperature, K	Molar heat capacity at constant pressure, J/K/mol	uncertainty
78.47	7.071	0.055
81.05	8.485	0.058
84.58	9.697	0.06
87.41	11.313	0.063
90.46	12.626	0.213
93.52	13.737	0.214
96.35	14.949	0.215
99.4	16.364	0.217
103.4	17.778	0.218
107.47	18.939	0.219
110.48	19.949	0.22
113.24	21.044	0.221
116.25	22.391	0.223
119.51	23.569	0.224
122.52	24.495	0.225
125.28	25.926	0.226
128.29	26.852	0.227
131.3	27.862	0.228
134.57	29.209	0.229
137.58	30.471	0.231
140.59	31.566	0.232
143.6	32.323	0.232
146.69	33.535	0.234
149.62	34.848	0.235
153.64	35.943	0.236
157.4	36.953	0.237
160.41	38.468	0.239
163.43	39.646	0.24
166.44	40.741	0.241
169.45	41.582	0.242
172.46	42.508	0.243
175.72	43.771	0.244
178.73	44.781	0.245
181.74	45.707	0.246
184.76	46.465	0.247
187.77	47.727	0.248
191.03	48.737	0.249
194.04	49.495	0.25
197.05	50.505	0.251
199.81	51.347	0.251
203.58	52.609	0.253
207.34	53.62	0.254
210.35	54.63	0.255
213.61	55.219	0.255
216.37	56.229	0.256
219.39	57.323	0.257
222.4	57.997	0.258
225.16	58.838	0.259
228.17	59.764	0.26
231.18	60.606	0.261
234.19	61.448	0.262
237.2	62.374	0.262
240.21	63.384	0.263
243.85	64.343	0.264
247.38	65.152	0.265
250.44	65.556	0.266
253.5	66.481	0.267
256.32	67.13	0.267
259.38	68.333	0.268
262.2	69.074	0.269
265.26	69.722	0.27
268.08	70.648	0.271
271.14	71.296	0.271
273.96	72.315	0.272
276.79	73.056	0.273
279.85	73.611	0.274
282.67	74.537	0.275
285.73	75.314	0.275
288.79	75.751	0.276
291.84	76.57	0.277
294.9	77.171	0.277
297.96	78.384	0.278
301.02	79.091	0.279
304.08	79.697	0.28
307.14	80.606	0.281
310.19	81.414	0.281
313.25	82.02	0.282
316.31	82.424	0.282
319.37	83.131	0.283
322.43	84.141	0.284
325.49	85.051	0.285
328.54	85.455	0.285
331.6	86.566	0.287
334.66	87.273	0.287
337.72	87.98	0.288
340.54	88.485	0.289
343.6	88.99	0.289
346.66	89.697	0.29
349.72	89.798	0.29
350.42	90.202	0.29
352.78	91.01	0.291
355.36	91.616	0.292
357.95	92.02	0.292
360.77	92.626	0.293
363.13	93.333	0.293
365.95	93.838	0.294
368.54	94.646	0.295
371.13	94.949	0.295
373.95	95.354	0.295
376.77	96.263	0.296
379.6	96.869	0.297
382.18	97.778	0.298
384.77	97.98	0.298
387.36	98.485	0.299
389.95	98.99	0.299

System: iron oxyhydroxide; phases: Crystal 3
Fixed: Pressure, kPa = 101.325
Property: Molar heat capacity at constant pressure, J/K/mol (Crystal 3); method: Vacuum adiabatic calorimetry
Temperature, K	Molar heat capacity at constant pressure, J/K/mol	uncertainty
78.23	8.502	0.058
81.05	9.68	0.06
84.58	11.111	0.063
87.41	12.542	0.066
90.23	13.805	0.214
93.05	15.152	0.215
95.88	16.246	0.216
98.7	17.593	0.218
102.7	18.855	0.219
106.7	20.455	0.221
109.52	21.717	0.222
112.48	22.869	0.223
115.37	24.014	0.224
118.29	25.068	0.225
121.22	26.085	0.226
124.11	27.441	0.228
127.16	28.788	0.229
129.99	29.545	0.23
133.05	30.556	0.231
135.87	31.481	0.232
138.69	32.239	0.232
141.52	33.502	0.234
144.57	34.596	0.235
147.4	35.859	0.236
150.22	36.785	0.237
153.98	37.963	0.238
157.75	38.973	0.239
160.57	39.731	0.24
163.63	41.077	0.241
166.45	41.835	0.242
169.28	42.761	0.243
172.33	43.603	0.244
175.16	44.613	0.245
178.22	45.202	0.245
181.27	46.128	0.246
184.1	46.97	0.247
187.15	47.98	0.248
189.98	48.737	0.249
192.8	49.663	0.25
195.86	50.505	0.251
198.68	51.431	0.252
202.21	52.609	0.253
205.98	53.62	0.254
208.8	54.545	0.255
211.86	55.303	0.255
214.68	56.061	0.256
217.74	57.155	0.257
220.56	58.081	0.258
223.38	58.754	0.259
226.44	59.343	0.259
229.27	60.438	0.261
232.32	61.027	0.261
235.38	61.869	0.262
238.44	62.71	0.263
241.26	63.047	0.263
245.03	63.973	0.264
248.56	64.815	0.265
251.38	65.488	0.266
254.44	66.33	0.266
257.26	66.835	0.267
260.32	67.677	0.268
263.14	68.182	0.268
266.2	68.687	0.269
269.02	69.36	0.269
272.08	70.202	0.27
274.91	70.875	0.271
277.73	71.633	0.272
280.79	72.222	0.272
283.61	72.811	0.273
286.43	73.401	0.273
289.49	73.99	0.274
292.55	74.663	0.275
295.61	75.084	0.275
298.9	75.926	0.276
301.96	76.515	0.277
305.02	76.852	0.277
308.08	77.441	0.277
311.37	78.283	0.278
314.43	78.704	0.279
317.49	79.04	0.279
320.55	79.798	0.28
323.84	80.303	0.28
326.66	80.64	0.281
328.07	80.892	0.281
330.19	81.061	0.281
332.31	81.65	0.282
334.9	82.155	0.282
337.48	82.576	0.283
340.07	82.912	0.283
342.66	83.502	0.284
345.25	84.091	0.284
348.07	84.428	0.284
350.66	85.185	0.285
353.25	85.606	0.286
356.07	86.111	0.286
358.66	86.364	0.286
361.25	86.953	0.287
364.07	87.205	0.287
366.66	87.626	0.288
369.24	88.3	0.288
371.83	88.721	0.289
374.65	89.057	0.289
377.24	89.31	0.289
379.83	89.731	0.29
382.42	90.404	0.29
385.24	90.657	0.291
387.83	91.162	0.291
390.42	91.498	0.292
