Measured thermophysical data. Excess Molar Enthalpies for the Binary and Ternary Mixtures of Cyclohexane, Tetrahydropyran, and 1,4-Dioxane at 308.15 K and Atmospheric Pressure: Experimental Measurements and Correlations
Source: J. Chem. Eng. Data, 2009, 10.1021/je900077g
Compound 1: cyclohexane, C6H12, InChI=1S/C6H12/c1-2-4-6-5-3-1/h1-6H2
Compound 2: tetrahydropyran, C5H10O, InChI=1S/C5H10O/c1-2-4-6-5-3-1/h1-5H2
Compound 3: 1,4-dioxane, C4H8O2, InChI=1S/C4H8O2/c1-2-6-4-3-5-1/h1-4H2

System: cyclohexane + 1,4-dioxane; phases: Liquid
Fixed: Temperature, K = 308.15
Fixed: Pressure, kPa = 101
Property: Excess molar enthalpy (molar enthalpy of mixing), kJ/mol (Liquid); method: Calvet calorimetry
Mole fraction of cyclohexane	Excess molar enthalpy (molar enthalpy of mixing), kJ/mol	uncertainty
0.101	0.57	0.014
0.204	1.05	0.015
0.288	1.333	0.015
0.408	1.565	0.016
0.506	1.62	0.016
0.606	1.574	0.016
0.705	1.435	0.015
0.803	1.15	0.015
0.9	0.695	0.015

System: cyclohexane + tetrahydropyran; phases: Liquid
Fixed: Temperature, K = 308.15
Fixed: Pressure, kPa = 101
Property: Excess molar enthalpy (molar enthalpy of mixing), kJ/mol (Liquid); method: Calvet calorimetry
Mole fraction of cyclohexane	Excess molar enthalpy (molar enthalpy of mixing), kJ/mol	uncertainty
0.101	0.157	0.011
0.2	0.294	0.011
0.3	0.412	0.011
0.4	0.49	0.011
0.499	0.526	0.011
0.606	0.519	0.011
0.699	0.461	0.011
0.8	0.355	0.011
0.9	0.198	0.011

System: 1,4-dioxane + tetrahydropyran; phases: Liquid
Fixed: Temperature, K = 308.15
Fixed: Pressure, kPa = 101
Property: Excess molar enthalpy (molar enthalpy of mixing), kJ/mol (Liquid); method: Calvet calorimetry
Mole fraction of tetrahydropyran	Excess molar enthalpy (molar enthalpy of mixing), kJ/mol	uncertainty
0.104	0.149	0.01
0.201	0.249	0.01
0.299	0.315	0.01
0.398	0.352	0.011
0.497	0.361	0.011
0.612	0.342	0.011
0.716	0.296	0.01
0.8	0.235	0.01
0.9	0.135	0.01

System: cyclohexane + 1,4-dioxane + tetrahydropyran; phases: Liquid
Fixed: Temperature, K = 308.15
Fixed: Pressure, kPa = 101
Property: Excess molar enthalpy (molar enthalpy of mixing), kJ/mol (Liquid); method: Calvet calorimetry
Mole fraction of cyclohexane	Mole fraction of tetrahydropyran	Excess molar enthalpy (molar enthalpy of mixing), kJ/mol	uncertainty
0.02	0.081	0.191	0.014
0.04	0.16	0.35	0.013
0.05	0.05	0.312	0.014
0.06	0.24	0.455	0.012
0.068	0.271	0.486	0.012
0.08	0.02	0.477	0.014
0.1	0.1	0.558	0.014
0.1	0.398	0.519	0.011
0.12	0.479	0.506	0.011
0.14	0.559	0.44	0.011
0.15	0.15	0.708	0.013
0.155	0.039	0.805	0.015
0.167	0.664	0.315	0.011
0.183	0.728	0.178	0.011
0.201	0.201	0.818	0.013
0.24	0.06	1.095	0.014
0.25	0.25	0.842	0.013
0.3	0.3	0.791	0.013
0.319	0.08	1.22	0.015
0.35	0.35	0.684	0.012
0.398	0.1	1.265	0.015
0.4	0.4	0.535	0.012
0.449	0.449	0.315	0.012
0.48	0.121	1.187	0.015
0.56	0.141	1.025	0.015
0.638	0.16	0.817	0.014
0.719	0.18	0.497	0.015
