Measured thermophysical data. Estimation of Physicochemical Properties of Ionic Liquid HPReO4 Using Surface Tension and Density
Source: J. Chem. Eng. Data, 2009, 10.1021/je9000679
Compound 1: 1-hexylpyridinium perrhenate, C11H18NO4Re, InChI=1S/C11H18N.4O.Re/c1-2-3-4-6-9-12-10-7-5-8-11-12;;;;;/h5,7-8,10-11H,2-4,6,9H2,1H3;;;;;/q+1;;;;-1;

System: 1-hexylpyridinium perrhenate; phases: Liquid
Fixed: Pressure, kPa = 101.325
Property: Mass density, kg/m3 (Liquid); method: HYBAL:UFactor:8
Temperature, K	Mass density, kg/m3	uncertainty
293.15	1794.6	2.6
298.15	1787	2.6
303.15	1779	2.6
308.15	1771.3	2.5
313.15	1765	2.5
318.15	1759	2.5
323.15	1751.4	2.5
328.15	1743.9	2.5
333.15	1738	2.4
338.15	1732.3	2.4
343.15	1726.9	2.4

System: 1-hexylpyridinium perrhenate; phases: Liquid, Air at 1 atmosphere
Property: Surface tension liquid-gas, N/m (Liquid); method: Maximal bubble pressure
Temperature, K	Surface tension liquid-gas, N/m	uncertainty
293.15	0.0344	0.0005
298.15	0.034	0.0005
303.15	0.0336	0.0004
308.15	0.0332	0.0004
313.15	0.033	0.0004
318.15	0.0326	0.0004
323.15	0.0323	0.0004
328.15	0.032	0.0004
333.15	0.0318	0.0004
338.15	0.0315	0.0004
343.15	0.0311	0.0004
