Measured thermophysical data. Vapour Liquid Equilibria Measurements of Methane + 2- Methylpropane (Isobutane) at Temperatures from (150 to 250) K and Pressures to 9 MPa
Source: J. Chem. Eng. Data, 2010, 10.1021/je900971r
Compound 1: methane, CH4, InChI=1S/CH4/h1H4, purity 99.995%
Compound 2: 2-methylpropane, C4H10, InChI=1S/C4H10/c1-4(2)3/h4H,1-3H3, purity 99.95%

System: methane + 2-methylpropane; phases: Liquid, Gas
Property: Vapor or sublimation pressure, kPa (Liquid); method: Closed cell (Static) method
Temperature, K	Mole fraction of 2-methylpropane	Vapor or sublimation pressure, kPa	uncertainty
151.4	0.0777	1065	77
170.8	0.0935	2251	95
171.2	0.1134	2214	47

System: methane + 2-methylpropane; phases: Liquid, Gas
Property: Vapor or sublimation pressure, kPa (Liquid); method: Closed cell (Static) method
Mole fraction of 2-methylpropane	Temperature, K	Vapor or sublimation pressure, kPa	uncertainty
0.1972	191.5	3767	44
0.3279	210.6	5071	134
0.3776	220.9	5637	86
0.4116	232.1	6226	133
0.4327	240.5	6703	162
0.4506	251.4	7231	131
0.3658	250.7	8378	121

System: methane + 2-methylpropane; phases: Gas, Liquid
Property: Mole fraction of 2-methylpropane (Gas); method: Chromatography
Mole fraction of 2-methylpropane	Temperature, K	Mole fraction of 2-methylpropane	uncertainty
0.1972	191.5	0.0023	0.0002
0.3279	210.6	0.0063	0.0033
0.3776	220.9	0.0118	0.001
0.4116	232.1	0.0196	0.0021
0.4327	240.5	0.0261	0.0024
0.4506	251.4	0.0394	0.0022
0.3658	250.7	0.0472	0.0015
