Measured thermophysical data. Complex Formation of Crown Ethers and Cations in Water-Organic Solvent Mixtures: The Thermodynamic Functions of Complex Formation of Benzo-15-crown-5 with Na+ in Water + Ethanol at 298.15 K
Source: J. Chem. Eng. Data, 2010, 10.1021/je900929g
Compound 1: 2,3,5,6,8,9,11,12-octahydro-1,4,7,10,13-benzopentaoxacyclopentadecin, C14H20O5, InChI=1S/C14H20O5/c1-2-4-14-13(3-1)18-11-9-16-7-5-15-6-8-17-10-12-19-14/h1-4H,5-12H2
Compound 2: ethanol, C2H6O, InChI=1S/C2H6O/c1-2-3/h3H,2H2,1H3, purity 99.8%
Compound 3: water, H2O, InChI=1S/H2O/h1H2, purity 99.9%

System: 2,3,5,6,8,9,11,12-octahydro-1,4,7,10,13-benzopentaoxacyclopentadecin; phases: Crystal, Liquid, Air at 1 atmosphere
Property: Normal melting temperature, K (Crystal); method: DTA
Normal melting temperature, K	uncertainty
352	2

System: water + 2,3,5,6,8,9,11,12-octahydro-1,4,7,10,13-benzopentaoxacyclopentadecin; phases: Liquid
Property: Molar enthalpy of solution, kJ/mol (Liquid); method: ISOPERIBOL:UFactor:4
Mole fraction of 2,3,5,6,8,9,11,12-octahydro-1,4,7,10,13-benzopentaoxacyclopentadecin	Temperature, K	Pressure, kPa	Molar enthalpy of solution, kJ/mol	uncertainty
0	298.15	101	38.64	1.2

System: ethanol + water + 2,3,5,6,8,9,11,12-octahydro-1,4,7,10,13-benzopentaoxacyclopentadecin; phases: Liquid
Fixed: Mole fraction of 2,3,5,6,8,9,11,12-octahydro-1,4,7,10,13-benzopentaoxacyclopentadecin = 0
Fixed: Temperature, K = 298.15
Fixed: Pressure, kPa = 101
Property: Molar enthalpy of solution, kJ/mol (Liquid); method: ISOPERIBOL:UFactor:4
Solvent: Mole fraction of water	Molar enthalpy of solution, kJ/mol	uncertainty
0	38.64	1.2
0.1	33.44	1.04
0.2	29.89	0.93
0.3	26.75	0.83
0.4	24.85	0.77
0.5	23.34	0.72
0.6	22.43	0.7
0.7	22.43	0.7
0.8	21.58	0.67
