Measured thermophysical data. Thermal Expansion and Structure of 1,3-Dimethylurea, Tetramethylurea, and Tetrabutylammonium Bromide Aqueous Solutions Derived from Density Measurements
Source: J. Chem. Eng. Data, 2009, 10.1021/je900164a
Compound 1: 1,3-dimethylurea, C3H8N2O, InChI=1S/C3H8N2O/c1-4-3(6)5-2/h1-2H3,(H2,4,5,6)
Compound 2: water, H2O, InChI=1S/H2O/h1H2
Compound 3: tetramethylurea, C5H12N2O, InChI=1S/C5H12N2O/c1-6(2)5(8)7(3)4/h1-4H3
Compound 4: tetrabutylammonium bromide, C16H36BrN, InChI=1S/C16H36N.BrH/c1-5-9-13-17(14-10-6-2,15-11-7-3)16-12-8-4;/h5-16H2,1-4H3;1H/q+1;/p-1

System: 1,3-dimethylurea + water; phases: Liquid
Fixed: Pressure, kPa = 101
Property: Mass density, kg/m3 (Liquid); method: Vibrating tube method
Mole fraction of 1,3-dimethylurea	Temperature, K	Mass density, kg/m3	uncertainty
0	274.15	999.902	0.04
0	275.15	999.943	0.04
0	276.15	999.967	0.04
0	277.15	999.975	0.064
0	278.15	999.967	0.04
0	279.18	999.943	0.04
0	280.15	999.905	0.04
0	281.15	999.85	0.04
0	282.15	999.784	0.04
0	283.15	999.703	0.04
0	288.15	999.103	0.041
0	298.15	997.048	0.043
0	308.15	994.035	0.045
0.000898	274.15	1000.361	0.04
0.000898	275.15	1000.39	0.04
0.000898	276.15	1000.401	0.04
0.000898	277.15	1000.412	0.04
0.000898	278.15	1000.41	0.04
0.000898	279.18	1000.385	0.04
0.000898	280.15	1000.345	0.04
0.000898	281.15	1000.287	0.04
0.000898	282.15	1000.217	0.04
0.000898	283.15	1000.133	0.04
0.000898	288.15	999.526	0.041
0.000898	298.15	997.452	0.043
0.000898	308.15	994.42	0.045
0.0018	274.15	1000.829	0.041
0.0018	275.15	1000.85	0.041
0.0018	276.15	1000.858	0.041
0.0018	277.15	1000.871	0.041
0.0018	278.15	1000.856	0.041
0.0018	279.18	1000.832	0.041
0.0018	280.15	1000.78	0.041
0.0018	281.15	1000.726	0.041
0.0018	282.15	1000.65	0.041
0.0018	283.15	1000.565	0.041
0.0018	288.15	999.93	0.041
0.0018	298.15	997.853	0.043
0.0018	308.15	994.802	0.045
0.00448	274.15	1002.259	0.041
0.00448	275.15	1002.252	0.065
0.00448	276.15	1002.259	0.041
0.00448	277.15	1002.267	0.041
0.00448	278.15	1002.232	0.041
0.00448	279.18	1002.193	0.041
0.00448	280.15	1002.144	0.042
0.00448	281.15	1002.059	0.042
0.00448	282.15	1001.978	0.042
0.00448	283.15	1001.879	0.041
0.00448	288.15	1001.225	0.042
0.00448	298.15	999.058	0.042
0.00448	308.15	995.947	0.045
0.00893	274.15	1004.684	0.043
0.00893	275.15	1004.651	0.043
0.00893	276.15	1004.636	0.043
0.00893	277.15	1004.634	0.043
0.00893	278.15	1004.558	0.043
0.00893	279.18	1004.501	0.043
0.00893	280.15	1004.44	0.043
0.00893	281.15	1004.335	0.043
0.00893	282.15	1004.222	0.043
0.00893	283.15	1004.115	0.043
0.00893	288.15	1003.353	0.044
0.00893	298.15	1001.076	0.043
0.00893	308.15	997.861	0.044
0.01771	274.15	1009.582	0.049
0.01771	275.15	1009.479	0.048
0.01771	276.15	1009.399	0.048
0.01771	277.15	1009.35	0.048
0.01771	278.15	1009.258	0.048
0.01771	279.18	1009.161	0.048
0.01771	280.15	1009.05	0.048
0.01771	281.15	1008.915	0.048
0.01771	282.15	1008.75	0.048
0.01771	283.15	1008.599	0.048
0.01771	288.15	1007.667	0.048
0.01771	298.15	1005.095	0.048
0.01771	308.15	1001.7	0.047
0.02461	274.15	1013.505	0.053
0.02461	275.15	1013.35	0.053
0.02461	276.15	1013.244	0.053
0.02461	277.15	1013.136	0.053
0.02461	278.15	1013.052	0.053
0.02461	279.18	1012.89	0.053
0.02461	280.15	1012.74	0.053
0.02461	281.15	1012.562	0.053
0.02461	282.15	1012.36	0.053
0.02461	283.15	1012.172	0.053
0.02461	288.15	1011.044	0.053
0.02461	298.15	1008.236	0.052
0.02461	308.15	1004.628	0.051
0.03141	274.15	1017.268	0.059
0.03141	275.15	1017.118	0.059
0.03141	276.15	1016.94	0.059
0.03141	277.15	1016.803	0.058
0.03141	278.15	1016.699	0.059
0.03141	279.18	1016.437	0.059
0.03141	280.15	1016.243	0.058
0.03141	281.15	1015.996	0.058
0.03141	282.15	1015.766	0.058
0.03141	283.15	1015.582	0.058
0.03141	288.15	1014.346	0.058
0.03141	298.15	1011.281	0.057
0.03141	308.15	1007.429	0.055
0.03815	274.15	1021.018	0.065
0.03815	275.15	1020.731	0.065
0.03815	276.15	1020.54	0.065
0.03815	277.15	1020.374	0.064
0.03815	278.15	1020.224	0.065
0.03815	279.18	1019.905	0.065
0.03815	280.15	1019.661	0.064
0.03815	281.15	1019.469	0.064
0.03815	282.15	1019.192	0.064
0.03815	283.15	1019.006	0.064
0.03815	288.15	1017.551	0.063
0.03815	298.15	1014.238	0.062
0.03815	308.15	1010.164	0.06
0.04471	274.15	1024.432	0.072
0.04471	275.15	1024.135	0.071
0.04471	276.15	1023.921	0.071
0.04471	277.15	1023.741	0.07
0.04471	278.15	1023.579	0.071
0.04471	279.18	1023.293	0.071
0.04471	280.15	1023.017	0.07
0.04471	281.15	1022.79	0.07
0.04471	282.15	1022.471	0.07
0.04471	283.15	1022.226	0.07
0.04471	288.15	1020.594	0.069
0.04471	298.15	1017.042	0.068
0.04471	308.15	1012.756	0.066
0.05126	274.15	1027.795	0.078
0.05126	275.15	1027.447	0.078
0.05126	276.15	1027.2	0.077
0.05126	277.15	1027.029	0.077
0.05126	278.15	1026.865	0.077
0.05126	279.18	1026.57	0.077
0.05126	280.15	1026.264	0.077
0.05126	281.15	1025.974	0.077
0.05126	282.15	1025.614	0.077
0.05126	283.15	1025.272	0.077
0.05126	288.15	1023.541	0.076
0.05126	298.15	1019.75	0.074
0.05126	308.15	1015.27	0.072
0.06722	274.15	1035.639	0.096
0.06722	275.15	1035.227	0.097
0.06722	276.15	1034.866	0.096
0.06722	277.15	1034.556	0.095
0.06722	278.15	1034.296	0.095
0.06722	279.18	1033.898	0.096
0.06722	280.15	1033.52	0.095
0.06722	281.15	1033.21	0.095
0.06722	282.15	1032.762	0.095
0.06722	283.15	1032.445	0.096
0.06722	288.15	1030.341	0.093
0.06722	298.15	1025.982	0.091
0.06722	308.15	1021.161	0.088
0.08246	274.15	1042.408	0.117
0.08246	275.15	1042.024	0.117
0.08246	276.15	1041.673	0.117
0.08246	277.15	1041.259	0.116
0.08246	278.15	1040.877	0.116
0.08246	279.18	1040.446	0.116
0.08246	280.15	1040.005	0.115
0.08246	281.15	1039.61	0.115
0.08246	282.15	1039.053	0.115
0.08246	283.15	1038.581	0.115
0.08246	288.15	1036.44	0.113
0.08246	298.15	1031.415	0.11
0.08246	308.15	1026.062	0.106
0.09755	278.15	1046.814	0.139
0.09755	279.18	1046.324	0.139
0.09755	280.15	1045.782	0.138
0.09755	281.15	1045.39	0.138
0.09755	282.15	1044.752	0.138
0.09755	283.15	1044.351	0.137
0.09755	288.15	1041.596	0.135
0.09755	298.15	1036.307	0.131
0.09755	308.15	1030.329	0.128

System: tetramethylurea + water; phases: Liquid
Fixed: Pressure, kPa = 101
Property: Mass density, kg/m3 (Liquid); method: Vibrating tube method
Mole fraction of tetramethylurea	Temperature, K	Mass density, kg/m3	uncertainty
0	274.15	999.902	0.04
0	275.15	999.943	0.04
0	276.15	999.967	0.04
0	277.15	999.975	0.064
0	278.15	999.967	0.04
0	279.18	999.943	0.04
0	280.15	999.905	0.04
0	281.15	999.85	0.04
0	282.15	999.784	0.04
0	283.15	999.703	0.04
0	288.15	999.103	0.041
0	298.15	997.048	0.043
0	308.15	994.035	0.045
0.000932	274.15	1000.033	0.04
0.000932	275.15	1000.06	0.04
0.000932	276.15	1000.086	0.04
0.000932	277.15	1000.082	0.04
0.000932	278.15	1000.074	0.04
0.000932	279.18	1000.041	0.04
0.000932	280.15	1000	0.04
0.000932	281.15	999.936	0.04
0.000932	282.15	999.869	0.04
0.000932	283.15	999.784	0.04
0.000932	288.15	999.158	0.041
0.000932	298.15	997.079	0.043
0.000932	308.15	994.03	0.045
0.00185	274.15	1000.186	0.04
0.00185	275.15	1000.201	0.04
0.00185	276.15	1000.22	0.04
0.00185	277.15	1000.208	0.04
0.00185	278.15	1000.196	0.04
0.00185	279.18	1000.16	0.04
0.00185	280.15	1000.108	0.04
0.00185	281.15	1000.04	0.04
0.00185	282.15	999.97	0.04
0.00185	283.15	999.88	0.04
0.00185	288.15	999.227	0.041
0.00185	298.15	997.119	0.043
0.00185	308.15	994.035	0.045
0.00462	274.15	1000.697	0.041
0.00462	275.15	1000.7	0.041
0.00462	276.15	1000.688	0.041
0.00462	277.15	1000.652	0.041
0.00462	278.15	1000.631	0.041
0.00462	279.18	1000.581	0.041
0.00462	280.15	1000.519	0.041
0.00462	281.15	1000.431	0.041
0.00462	282.15	1000.34	0.041
0.00462	283.15	1000.236	0.04
0.00462	288.15	999.51	0.041
0.00462	298.15	997.289	0.043
0.00462	308.15	994.088	0.046
0.00924	274.15	1001.741	0.042
0.00924	275.15	1001.699	0.042
0.00924	276.15	1001.663	0.042
0.00924	277.15	1001.601	0.042
0.00924	278.15	1001.546	0.042
0.00924	279.18	1001.453	0.042
0.00924	280.15	1001.372	0.042
0.00924	281.15	1001.25	0.042
0.00924	282.15	1001.141	0.042
0.00924	283.15	1001.003	0.041
0.00924	288.15	1000.128	0.042
0.00924	298.15	997.677	0.044
0.00924	308.15	994.319	0.046
0.01831	274.15	1004.219	0.046
0.01831	275.15	1004.105	0.045
0.01831	276.15	1004.012	0.045
0.01831	277.15	1003.873	0.045
0.01831	278.15	1003.757	0.045
0.01831	279.18	1003.592	0.045
0.01831	280.15	1003.454	0.045
0.01831	281.15	1003.273	0.045
0.01831	282.15	1003.135	0.045
0.01831	283.15	1002.906	0.045
0.01831	288.15	1001.795	0.045
0.01831	298.15	998.817	0.046
0.01831	308.15	994.962	0.048
0.0255	274.15	1006.386	0.049
0.0255	275.15	1006.193	0.049
0.0255	276.15	1006.052	0.049
0.0255	277.15	1005.903	0.049
0.0255	278.15	1005.685	0.049
0.0255	279.18	1005.467	0.049
0.0255	280.15	1005.274	0.049
0.0255	281.15	1005.047	0.049
0.0255	282.15	1004.857	0.049
0.0255	283.15	1004.571	0.049
0.0255	288.15	1003.225	0.049
0.0255	298.15	999.88	0.048
0.0255	308.15	995.682	0.051
0.0326	274.15	1008.56	0.054
0.0326	275.15	1008.322	0.054
0.0326	276.15	1008.093	0.053
0.0326	277.15	1007.898	0.053
0.0326	278.15	1007.616	0.053
0.0326	279.18	1007.345	0.053
0.0326	280.15	1007.099	0.053
0.0326	281.15	1006.827	0.053
0.0326	282.15	1006.575	0.053
0.0326	283.15	1006.286	0.053
0.0326	288.15	1004.67	0.053
0.0326	298.15	1000.924	0.052
0.0326	308.15	996.403	0.054
0.03962	274.15	1010.66	0.059
0.03962	275.15	1010.356	0.059
0.03962	276.15	1010.08	0.058
0.03962	277.15	1009.835	0.058
0.03962	278.15	1009.49	0.058
0.03962	279.18	1009.167	0.058
0.03962	280.15	1008.873	0.058
0.03962	281.15	1008.551	0.058
0.03962	282.15	1008.253	0.058
0.03962	283.15	1007.861	0.058
0.03962	288.15	1006.092	0.057
0.03962	298.15	1001.944	0.056
0.03962	308.15	997.067	0.057
0.04654	274.15	1012.669	0.064
0.04654	275.15	1012.392	0.064
0.04654	276.15	1011.974	0.064
0.04654	277.15	1011.679	0.064
0.04654	278.15	1011.268	0.064
0.04654	279.18	1010.919	0.063
0.04654	280.15	1010.576	0.063
0.04654	281.15	1010.205	0.063
0.04654	282.15	1009.835	0.063
0.04654	283.15	1009.422	0.063
0.04654	288.15	1007.435	0.062
0.04654	298.15	1002.906	0.061
0.04654	308.15	997.696	0.061
0.05341	274.15	1014.595	0.07
0.05341	275.15	1014.188	0.07
0.05341	276.15	1013.792	0.07
0.05341	277.15	1013.462	0.07
0.05341	278.15	1012.999	0.07
0.05341	279.18	1012.62	0.069
0.05341	280.15	1012.207	0.069
0.05341	281.15	1011.803	0.069
0.05341	282.15	1011.383	0.069
0.05341	283.15	1010.915	0.07
0.05341	288.15	1008.699	0.068
0.05341	298.15	1003.848	0.066
0.05341	308.15	998.338	0.065
0.06604	274.15	1017.879	0.084
0.06604	275.15	1017.35	0.083
0.06604	276.15	1016.88	0.082
0.06604	277.15	1016.415	0.082
0.06604	278.15	1015.918	0.082
0.06604	279.18	1015.428	0.082
0.06604	280.15	1014.956	0.081
0.06604	281.15	1014.475	0.081
0.06604	282.15	1013.961	0.081
0.06604	283.15	1013.424	0.081
0.06604	288.15	1010.914	0.079
0.06604	298.15	1005.436	0.077
0.06604	308.15	999.385	0.075

System: tetrabutylammonium bromide + water; phases: Liquid
Fixed: Pressure, kPa = 101
Property: Mass density, kg/m3 (Liquid); method: Vibrating tube method
Temperature, K	Mole fraction of tetrabutylammonium bromide	Mass density, kg/m3	uncertainty
276.15	0	999.967	0.04
276.15	0.0009	1001.35	0.041
276.15	0.0018	1002.75	0.042
276.15	0.00359	1005.6	0.044
276.15	0.00715	1011.369	0.048
276.15	0.01069	1017.091	0.053
276.15	0.01421	1022.49	0.059
276.15	0.0177	1027.72	0.063
276.15	0.02202	1033.533	0.067
276.15	0.02631	1038.46	0.071
276.15	0.03056	1042.53	0.098
277.15	0	999.975	0.064
277.15	0.0009	1001.35	0.041
277.15	0.0018	1002.73	0.042
277.15	0.00359	1005.52	0.043
277.15	0.00715	1011.226	0.048
277.15	0.01069	1016.875	0.053
277.15	0.01421	1022.161	0.058
277.15	0.0177	1027.303	0.063
277.15	0.02202	1033.007	0.069
277.15	0.02631	1037.941	0.072
277.15	0.03056	1040.983	0.085
277.15	0.03478	1045.387	0.077
277.15	0.0431	1050.63	0.085
277.15	0.05128	1054.863	0.09
277.15	0.07499	1060.808	0.118
278.15	0	999.967	0.04
278.15	0.0009	1001.32	0.041
278.15	0.0018	1002.69	0.042
278.15	0.00359	1005.47	0.043
278.15	0.00715	1011.089	0.048
278.15	0.01069	1016.664	0.053
278.15	0.01421	1021.906	0.058
278.15	0.0177	1026.963	0.063
278.15	0.02202	1032.571	0.068
278.15	0.02631	1037.413	0.072
278.15	0.03056	1040.407	0.076
278.15	0.03478	1044.756	0.08
278.15	0.0431	1049.926	0.088
278.15	0.05128	1054.129	0.093
278.15	0.07499	1060.071	0.118
279.18	0	999.943	0.04
279.18	0.0009	1001.28	0.041
279.18	0.0018	1002.65	0.042
279.18	0.00359	1005.391	0.043
279.18	0.00715	1010.956	0.048
279.18	0.01069	1016.454	0.053
279.18	0.01421	1021.63	0.058
279.18	0.0177	1026.611	0.063
279.18	0.02202	1032.113	0.069
279.18	0.02631	1036.887	0.072
279.18	0.03056	1039.823	0.077
279.18	0.03478	1044.111	0.081
279.18	0.0431	1049.244	0.088
279.18	0.05128	1053.396	0.093
279.18	0.07499	1059.332	0.118
280.15	0	999.905	0.04
280.15	0.0009	1001.23	0.041
280.15	0.0018	1002.58	0.042
280.15	0.00359	1005.286	0.043
280.15	0.00715	1010.784	0.048
280.15	0.01069	1016.215	0.053
280.15	0.01421	1021.315	0.058
280.15	0.0177	1026.219	0.063
280.15	0.02202	1031.619	0.068
280.15	0.02631	1036.316	0.072
280.15	0.03056	1039.107	0.076
280.15	0.03478	1043.438	0.08
280.15	0.0431	1048.505	0.085
280.15	0.05128	1052.647	0.093
280.15	0.07499	1058.551	0.117
281.15	0	999.85	0.04
281.15	0.0009	1001.165	0.041
281.15	0.0018	1002.49	0.042
281.15	0.00359	1005.176	0.043
281.15	0.00715	1010.608	0.048
281.15	0.01069	1015.979	0.053
281.15	0.01421	1020.992	0.058
281.15	0.0177	1025.833	0.062
281.15	0.02202	1031.176	0.068
281.15	0.02631	1035.797	0.071
281.15	0.03056	1038.632	0.075
281.15	0.03478	1042.818	0.08
281.15	0.0431	1048.23	0.087
281.15	0.05128	1051.944	0.092
281.15	0.07499	1057.83	0.117
282.15	0	999.784	0.04
282.15	0.0009	1001.089	0.041
282.15	0.0018	1002.4	0.042
282.15	0.00359	1005.065	0.043
282.15	0.00715	1010.444	0.048
282.15	0.01069	1015.724	0.052
282.15	0.01421	1020.685	0.057
282.15	0.0177	1025.442	0.062
282.15	0.02202	1030.695	0.068
282.15	0.02631	1035.235	0.071
282.15	0.03056	1038.045	0.075
282.15	0.03478	1042.16	0.08
282.15	0.0431	1047.118	0.09
282.15	0.05128	1051.206	0.092
282.15	0.07499	1057.048	0.116
283.15	0	999.703	0.04
283.15	0.0009	1000.998	0.041
283.15	0.0018	1002.3	0.042
283.15	0.00359	1004.948	0.043
283.15	0.00715	1010.263	0.048
283.15	0.01069	1015.5	0.053
283.15	0.01421	1020.379	0.058
283.15	0.0177	1025.064	0.064
283.15	0.02202	1030.211	0.07
283.15	0.02631	1034.685	0.082
283.15	0.03056	1037.437	0.071
283.15	0.03478	1041.487	0.093
283.15	0.0431	1046.413	0.091
283.15	0.05128	1050.457	0.112
283.15	0.07499	1056.301	0.116
288.15	0	999.1	0.041
288.15	0.0009	1000.35	0.041
288.15	0.0018	1001.6	0.042
288.15	0.00359	1004.1	0.043
288.15	0.00715	1009.15	0.047
288.15	0.01069	1014.04	0.052
288.15	0.01421	1018.72	0.057
288.15	0.0177	1023.06	0.061
288.15	0.02202	1027.79	0.066
288.15	0.02631	1031.87	0.07
288.15	0.03056	1035.33	0.073
288.15	0.03478	1038.35	0.077
288.15	0.0431	1042.93	0.084
288.15	0.05128	1046.34	0.092
293.15	0	998.207	0.042
293.15	0.0009	999.405	0.041
293.15	0.0018	1000.6	0.042
293.15	0.00359	1002.98	0.043
293.15	0.00715	1007.76	0.047
293.15	0.01069	1012.37	0.052
293.15	0.01421	1016.75	0.056
293.15	0.0177	1020.77	0.06
293.15	0.02202	1025.18	0.065
293.15	0.02631	1028.99	0.069
293.15	0.03056	1032.22	0.072
293.15	0.03478	1035.02	0.075
293.15	0.0431	1039.41	0.082
293.15	0.05128	1042.74	0.089
298.15	0	997.045	0.043
298.15	0.0009	998.18	0.043
298.15	0.0018	999.32	0.042
298.15	0.00359	1001.59	0.043
298.15	0.00715	1006.13	0.047
298.15	0.01069	1010.49	0.051
298.15	0.01421	1014.53	0.055
298.15	0.0177	1018.3	0.059
298.15	0.02202	1022.43	0.063
298.15	0.02631	1026	0.067
298.15	0.03056	1029.06	0.071
298.15	0.03478	1031.68	0.074
298.15	0.0431	1035.89	0.081
298.15	0.05128	1039.06	0.088
303.15	0	995.65	0.044
303.15	0.0009	996.74	0.044
303.15	0.0018	997.82	0.044
303.15	0.00359	999.99	0.043
303.15	0.00715	1004.3	0.047
303.15	0.01069	1008.43	0.051
303.15	0.01421	1012.26	0.054
303.15	0.0177	1015.77	0.058
303.15	0.02202	1019.65	0.062
303.15	0.02631	1022.97	0.066
303.15	0.03056	1025.85	0.07
303.15	0.03478	1028.34	0.072
303.15	0.0431	1032.36	0.079
303.15	0.05128	1035.44	0.086
308.15	0	994.035	0.045
308.15	0.0009	995.085	0.045
308.15	0.0018	996.14	0.045
308.15	0.00359	998.22	0.044
308.15	0.00715	1002.32	0.046
308.15	0.01069	1006.21	0.05
308.15	0.01421	1009.84	0.054
308.15	0.0177	1013.13	0.057
308.15	0.02202	1016.74	0.062
308.15	0.02631	1019.88	0.065
308.15	0.03056	1022.54	0.068
308.15	0.03478	1024.97	0.072
308.15	0.0431	1028.78	0.078
308.15	0.05128	1031.82	0.084
