Measured thermophysical data. Pressure and Temperature Dependence of Isobaric Heat Capacity for [Emim][BF4], [Bmim][BF4], [Hmim][BF4], and [Omim][BF4]
Source: J. Chem. Eng. Data, 2010, 10.1021/je9004992
Compound 1: 1-ethyl-3-methylimidazolium tetrafluoroborate, C6H11BF4N2, InChI=1S/C6H11N2.BF4/c1-3-8-5-4-7(2)6-8;2-1(3,4)5/h4-6H,3H2,1-2H3;/q+1;-1
Compound 2: 1-butyl-3-methylimidazolium tetrafluoroborate, C8H15BF4N2, InChI=1S/C8H15N2.BF4/c1-3-4-5-10-7-6-9(2)8-10;2-1(3,4)5/h6-8H,3-5H2,1-2H3;/q+1;-1
Compound 3: 1-hexyl-3-methylimidazolium tetrafluoroborate, C10H19BF4N2, InChI=1S/C10H19N2.BF4/c1-3-4-5-6-7-12-9-8-11(2)10-12;2-1(3,4)5/h8-10H,3-7H2,1-2H3;/q+1;-1, purity 99.5%
Compound 4: 1-methyl-3-octylimidazolium tetrafluoroborate, C12H23BF4N2, InChI=1S/C12H23N2.BF4/c1-3-4-5-6-7-8-9-14-11-10-13(2)12-14;2-1(3,4)5/h10-12H,3-9H2,1-2H3;/q+1;-1, purity 99.9%

System: 1-ethyl-3-methylimidazolium tetrafluoroborate; phases: Liquid
Property: Molar heat capacity at constant pressure, J/K/mol (Liquid); method: Small sample (50 mg) DSC
Temperature, K	Pressure, kPa	Molar heat capacity at constant pressure, J/K/mol	uncertainty
283.15	100	300.19	4.65
283.15	2000	300.22	4.65
283.15	4000	300.24	4.65
283.15	6000	300.27	4.65
283.15	8000	300.3	4.65
283.15	10000	300.33	4.65
283.15	12000	300.35	4.65
283.15	14000	300.38	4.65
283.15	20000	300.46	4.65
283.15	30000	300.6	4.66
283.15	40000	300.73	4.66
283.15	50000	300.87	4.66
283.15	60000	301	4.66
288.15	100	301.67	4.67
288.15	2000	301.7	4.67
288.15	4000	301.73	4.67
288.15	6000	301.76	4.67
288.15	8000	301.79	4.68
288.15	10000	301.82	4.68
288.15	12000	301.85	4.68
288.15	14000	301.87	4.68
288.15	20000	301.96	4.68
288.15	30000	302.1	4.68
288.15	40000	302.25	4.68
288.15	50000	302.39	4.68
288.15	60000	302.54	4.69
293.15	100	303.23	4.7
293.15	2000	303.26	4.7
293.15	4000	303.29	4.7
293.15	6000	303.32	4.7
293.15	8000	303.35	4.7
293.15	10000	303.38	4.7
293.15	12000	303.41	4.7
293.15	14000	303.44	4.7
293.15	20000	303.53	4.7
293.15	30000	303.68	4.7
293.15	40000	303.83	4.71
293.15	50000	303.98	4.71
293.15	60000	304.13	4.71
298.15	100	304.87	4.72
298.15	2000	304.9	4.72
298.15	4000	304.93	4.72
298.15	6000	304.96	4.72
298.15	8000	304.99	4.72
298.15	10000	305.02	4.73
298.15	12000	305.05	4.73
298.15	14000	305.08	4.73
298.15	20000	305.18	4.73
298.15	30000	305.33	4.73
298.15	40000	305.49	4.73
298.15	50000	305.64	4.73
298.15	60000	305.8	4.74
303.15	100	306.58	4.75
303.15	2000	306.61	4.75
303.15	4000	306.64	4.75
303.15	6000	306.67	4.75
303.15	8000	306.7	4.75
303.15	10000	306.73	4.75
303.15	12000	306.77	4.75
303.15	14000	306.8	4.75
303.15	20000	306.89	4.75
303.15	30000	307.05	4.76
303.15	40000	307.21	4.76
303.15	50000	307.37	4.76
303.15	60000	307.52	4.76
308.15	100	308.36	4.78
308.15	2000	308.4	4.78
308.15	4000	308.43	4.78
308.15	6000	308.46	4.78
308.15	8000	308.49	4.78
308.15	10000	308.52	4.78
308.15	12000	308.55	4.78
308.15	14000	308.59	4.78
308.15	20000	308.68	4.78
308.15	30000	308.84	4.78
308.15	40000	309	4.79
308.15	50000	309.16	4.79
308.15	60000	309.32	4.79
313.15	100	310.23	4.81
313.15	2000	310.26	4.81
313.15	4000	310.29	4.81
313.15	6000	310.32	4.81
313.15	8000	310.35	4.81
313.15	10000	310.38	4.81
313.15	12000	310.42	4.81
313.15	14000	310.45	4.81
313.15	20000	310.54	4.81
313.15	30000	310.7	4.81
313.15	40000	310.86	4.82
313.15	50000	311.02	4.82
313.15	60000	311.17	4.82
318.15	100	312.17	4.84
318.15	2000	312.2	4.84
318.15	4000	312.23	4.84
318.15	6000	312.26	4.84
318.15	8000	312.29	4.84
318.15	10000	312.32	4.84
318.15	12000	312.35	4.84
318.15	14000	312.38	4.84
318.15	20000	312.47	4.84
318.15	30000	312.63	4.84
318.15	40000	312.79	4.85
318.15	50000	312.94	4.85
318.15	60000	313.1	4.85
323.15	100	314.18	4.87
323.15	2000	314.21	4.87
323.15	4000	314.24	4.87
323.15	6000	314.27	4.87
323.15	8000	314.3	4.87
323.15	10000	314.33	4.87
323.15	12000	314.36	4.87
323.15	14000	314.39	4.87
323.15	20000	314.48	4.87
323.15	30000	314.63	4.87
323.15	40000	314.78	4.88
323.15	50000	314.93	4.88
323.15	60000	315.08	4.88

System: 1-butyl-3-methylimidazolium tetrafluoroborate; phases: Liquid
Property: Molar heat capacity at constant pressure, J/K/mol (Liquid); method: Small sample (50 mg) DSC
Temperature, K	Pressure, kPa	Molar heat capacity at constant pressure, J/K/mol	uncertainty
283.15	100	360.25	5.58
283.15	2000	360.28	5.58
283.15	4000	360.31	5.58
283.15	6000	360.34	5.58
283.15	8000	360.37	5.58
283.15	10000	360.39	5.58
283.15	12000	360.42	5.58
283.15	14000	360.45	5.58
283.15	20000	360.54	5.59
283.15	30000	360.68	5.59
283.15	40000	360.82	5.59
283.15	50000	360.96	5.59
283.15	60000	361.11	5.59
288.15	100	362.17	5.61
288.15	2000	362.2	5.61
288.15	4000	362.22	5.61
288.15	6000	362.24	5.61
288.15	8000	362.27	5.61
288.15	10000	362.29	5.61
288.15	12000	362.31	5.61
288.15	14000	362.34	5.61
288.15	20000	362.4	5.61
288.15	30000	362.52	5.62
288.15	40000	362.64	5.62
288.15	50000	362.75	5.62
288.15	60000	362.87	5.62
293.15	100	364.16	5.64
293.15	2000	364.17	5.64
293.15	4000	364.19	5.64
293.15	6000	364.21	5.64
293.15	8000	364.23	5.64
293.15	10000	364.25	5.64
293.15	12000	364.27	5.64
293.15	14000	364.29	5.64
293.15	20000	364.35	5.64
293.15	30000	364.44	5.65
293.15	40000	364.54	5.65
293.15	50000	364.64	5.65
293.15	60000	364.73	5.65
298.15	100	366.2	5.67
298.15	2000	366.21	5.67
298.15	4000	366.23	5.67
298.15	6000	366.25	5.67
298.15	8000	366.26	5.67
298.15	10000	366.28	5.67
298.15	12000	366.3	5.67
298.15	14000	366.31	5.67
298.15	20000	366.36	5.68
298.15	30000	366.45	5.68
298.15	40000	366.53	5.68
298.15	50000	366.61	5.68
298.15	60000	366.7	5.68
303.15	100	368.3	5.71
303.15	2000	368.31	5.71
303.15	4000	368.33	5.71
303.15	6000	368.34	5.71
303.15	8000	368.36	5.71
303.15	10000	368.37	5.71
303.15	12000	368.39	5.71
303.15	14000	368.4	5.71
303.15	20000	368.45	5.71
303.15	30000	368.53	5.71
303.15	40000	368.61	5.71
303.15	50000	368.69	5.71
303.15	60000	368.77	5.71
308.15	100	370.45	5.74
308.15	2000	370.47	5.74
308.15	4000	370.49	5.74
308.15	6000	370.5	5.74
308.15	8000	370.52	5.74
308.15	10000	370.53	5.74
308.15	12000	370.55	5.74
308.15	14000	370.57	5.74
308.15	20000	370.61	5.74
308.15	30000	370.69	5.74
308.15	40000	370.77	5.74
308.15	50000	370.85	5.75
308.15	60000	370.93	5.75
313.15	100	372.67	5.77
313.15	2000	372.69	5.77
313.15	4000	372.71	5.77
313.15	6000	372.73	5.77
313.15	8000	372.74	5.77
313.15	10000	372.76	5.77
313.15	12000	372.78	5.78
313.15	14000	372.8	5.78
313.15	20000	372.85	5.78
313.15	30000	372.94	5.78
313.15	40000	373.03	5.78
313.15	50000	373.12	5.78
313.15	60000	373.21	5.78
318.15	100	374.95	5.81
318.15	2000	374.97	5.81
318.15	4000	374.99	5.81
318.15	6000	375.01	5.81
318.15	8000	375.03	5.81
318.15	10000	375.05	5.81
318.15	12000	375.08	5.81
318.15	14000	375.1	5.81
318.15	20000	375.16	5.81
318.15	30000	375.26	5.81
318.15	40000	375.37	5.82
318.15	50000	375.47	5.82
318.15	60000	375.58	5.82
323.15	100	377.29	5.84
323.15	2000	377.31	5.85
323.15	4000	377.34	5.85
323.15	6000	377.36	5.85
323.15	8000	377.39	5.85
323.15	10000	377.41	5.85
323.15	12000	377.44	5.85
323.15	14000	377.47	5.85
323.15	20000	377.54	5.85
323.15	30000	377.67	5.85
323.15	40000	377.8	5.85
323.15	50000	377.93	5.85
323.15	60000	378.05	5.86

System: 1-hexyl-3-methylimidazolium tetrafluoroborate; phases: Liquid
Property: Molar heat capacity at constant pressure, J/K/mol (Liquid); method: Small sample (50 mg) DSC
Temperature, K	Pressure, kPa	Molar heat capacity at constant pressure, J/K/mol	uncertainty
283.15	100	422.77	6.55
283.15	2000	422.81	6.55
283.15	4000	422.85	6.55
283.15	6000	422.89	6.55
283.15	8000	422.94	6.55
283.15	10000	422.98	6.55
283.15	12000	423.02	6.55
283.15	14000	423.07	6.55
283.15	20000	423.2	6.56
283.15	30000	423.41	6.56
283.15	40000	423.63	6.56
283.15	50000	423.85	6.57
283.15	60000	424.07	6.57
288.15	100	425	6.58
288.15	2000	425.04	6.58
288.15	4000	425.08	6.59
288.15	6000	425.12	6.59
288.15	8000	425.17	6.59
288.15	10000	425.21	6.59
288.15	12000	425.25	6.59
288.15	14000	425.29	6.59
288.15	20000	425.42	6.59
288.15	30000	425.63	6.59
288.15	40000	425.84	6.6
288.15	50000	426.05	6.6
288.15	60000	426.26	6.6
293.15	100	427.34	6.62
293.15	2000	427.38	6.62
293.15	4000	427.42	6.62
293.15	6000	427.46	6.62
293.15	8000	427.5	6.62
293.15	10000	427.54	6.62
293.15	12000	427.59	6.62
293.15	14000	427.63	6.62
293.15	20000	427.75	6.63
293.15	30000	427.95	6.63
293.15	40000	428.15	6.63
293.15	50000	428.36	6.64
293.15	60000	428.56	6.64
298.15	100	429.8	6.66
298.15	2000	429.83	6.66
298.15	4000	429.87	6.66
298.15	6000	429.91	6.66
298.15	8000	429.95	6.66
298.15	10000	429.99	6.66
298.15	12000	430.03	6.66
298.15	14000	430.07	6.66
298.15	20000	430.18	6.66
298.15	30000	430.38	6.67
298.15	40000	430.57	6.67
298.15	50000	430.77	6.67
298.15	60000	430.96	6.68
303.15	100	432.36	6.7
303.15	2000	432.39	6.7
303.15	4000	432.43	6.7
303.15	6000	432.47	6.7
303.15	8000	432.5	6.7
303.15	10000	432.54	6.7
303.15	12000	432.58	6.7
303.15	14000	432.61	6.7
303.15	20000	432.72	6.7
303.15	30000	432.91	6.71
303.15	40000	433.09	6.71
303.15	50000	433.28	6.71
303.15	60000	433.46	6.72
308.15	100	435.03	6.74
308.15	2000	435.06	6.74
308.15	4000	435.1	6.74
308.15	6000	435.13	6.74
308.15	8000	435.17	6.74
308.15	10000	435.2	6.74
308.15	12000	435.23	6.74
308.15	14000	435.27	6.74
308.15	20000	435.37	6.74
308.15	30000	435.55	6.75
308.15	40000	435.72	6.75
308.15	50000	435.89	6.75
308.15	60000	436.07	6.76
313.15	100	437.81	6.78
313.15	2000	437.84	6.78
313.15	4000	437.87	6.78
313.15	6000	437.9	6.78
313.15	8000	437.93	6.78
313.15	10000	437.97	6.79
313.15	12000	438	6.79
313.15	14000	438.03	6.79
313.15	20000	438.13	6.79
313.15	30000	438.29	6.79
313.15	40000	438.45	6.79
313.15	50000	438.61	6.79
313.15	60000	438.77	6.8
318.15	100	440.7	6.83
318.15	2000	440.72	6.83
318.15	4000	440.75	6.83
318.15	6000	440.78	6.83
318.15	8000	440.81	6.83
318.15	10000	440.84	6.83
318.15	12000	440.87	6.83
318.15	14000	440.9	6.83
318.15	20000	440.99	6.83
318.15	30000	441.14	6.83
318.15	40000	441.28	6.84
318.15	50000	441.43	6.84
318.15	60000	441.58	6.84
323.15	100	443.69	6.87
323.15	2000	443.72	6.87
323.15	4000	443.74	6.87
323.15	6000	443.77	6.87
323.15	8000	443.8	6.88
323.15	10000	443.82	6.88
323.15	12000	443.85	6.88
323.15	14000	443.88	6.88
323.15	20000	443.96	6.88
323.15	30000	444.09	6.88
323.15	40000	444.22	6.88
323.15	50000	444.35	6.88
323.15	60000	444.49	6.89

System: 1-methyl-3-octylimidazolium tetrafluoroborate; phases: Liquid
Property: Molar heat capacity at constant pressure, J/K/mol (Liquid); method: Small sample (50 mg) DSC
Temperature, K	Pressure, kPa	Molar heat capacity at constant pressure, J/K/mol	uncertainty
283.15	100	489.23	7.58
283.15	2000	489.23	7.58
283.15	4000	489.23	7.58
283.15	6000	489.24	7.58
283.15	8000	489.24	7.58
283.15	10000	489.24	7.58
283.15	12000	489.24	7.58
283.15	14000	489.24	7.58
283.15	20000	489.24	7.58
283.15	30000	489.25	7.58
283.15	40000	489.26	7.58
283.15	50000	489.26	7.58
283.15	60000	489.27	7.58
288.15	100	493.12	7.64
288.15	2000	493.12	7.64
288.15	4000	493.12	7.64
288.15	6000	493.11	7.64
288.15	8000	493.11	7.64
288.15	10000	493.11	7.64
288.15	12000	493.11	7.64
288.15	14000	493.11	7.64
288.15	20000	493.11	7.64
288.15	30000	493.1	7.64
288.15	40000	493.09	7.64
288.15	50000	493.09	7.64
288.15	60000	493.08	7.64
293.15	100	496.79	7.7
293.15	2000	496.79	7.7
293.15	4000	496.79	7.7
293.15	6000	496.78	7.7
293.15	8000	496.78	7.7
293.15	10000	496.78	7.7
293.15	12000	496.78	7.7
293.15	14000	496.77	7.7
293.15	20000	496.76	7.7
293.15	30000	496.75	7.7
293.15	40000	496.73	7.7
293.15	50000	496.72	7.7
293.15	60000	496.7	7.69
298.15	100	500.26	7.75
298.15	2000	500.25	7.75
298.15	4000	500.25	7.75
298.15	6000	500.24	7.75
298.15	8000	500.24	7.75
298.15	10000	500.24	7.75
298.15	12000	500.23	7.75
298.15	14000	500.23	7.75
298.15	20000	500.22	7.75
298.15	30000	500.2	7.75
298.15	40000	500.18	7.75
298.15	50000	500.16	7.75
298.15	60000	500.14	7.75
303.15	100	503.51	7.8
303.15	2000	503.5	7.8
303.15	4000	503.5	7.8
303.15	6000	503.5	7.8
303.15	8000	503.49	7.8
303.15	10000	503.49	7.8
303.15	12000	503.48	7.8
303.15	14000	503.48	7.8
303.15	20000	503.47	7.8
303.15	30000	503.45	7.8
303.15	40000	503.42	7.8
303.15	50000	503.4	7.8
303.15	60000	503.38	7.8
308.15	100	506.55	7.85
308.15	2000	506.55	7.85
308.15	4000	506.54	7.85
308.15	6000	506.54	7.85
308.15	8000	506.53	7.85
308.15	10000	506.53	7.85
308.15	12000	506.53	7.85
308.15	14000	506.52	7.85
308.15	20000	506.51	7.85
308.15	30000	506.49	7.85
308.15	40000	506.47	7.85
308.15	50000	506.45	7.85
308.15	60000	506.43	7.85
313.15	100	509.38	7.89
313.15	2000	509.38	7.89
313.15	4000	509.37	7.89
313.15	6000	509.37	7.89
313.15	8000	509.37	7.89
313.15	10000	509.37	7.89
313.15	12000	509.36	7.89
313.15	14000	509.36	7.89
313.15	20000	509.35	7.89
313.15	30000	509.34	7.89
313.15	40000	509.32	7.89
313.15	50000	509.31	7.89
313.15	60000	509.3	7.89
318.15	100	512	7.93
318.15	2000	512	7.93
318.15	4000	512	7.93
318.15	6000	512	7.93
318.15	8000	512	7.93
318.15	10000	511.99	7.93
318.15	12000	511.99	7.93
318.15	14000	511.99	7.93
318.15	20000	511.99	7.93
318.15	30000	511.98	7.93
318.15	40000	511.98	7.93
318.15	50000	511.97	7.93
318.15	60000	511.97	7.93
323.15	100	514.41	7.97
323.15	2000	514.41	7.97
323.15	4000	514.41	7.97
323.15	6000	514.41	7.97
323.15	8000	514.41	7.97
323.15	10000	514.41	7.97
323.15	12000	514.42	7.97
323.15	14000	514.42	7.97
323.15	20000	514.42	7.97
323.15	30000	514.43	7.97
323.15	40000	514.44	7.97
323.15	50000	514.44	7.97
323.15	60000	514.45	7.97
