Measured thermophysical data. Densities, Viscosities, Electrical Conductances, and Refractive Indices of Amino Acid + Ionic Liquid ([BMIm]Br) + Water Mixtures at 298.15 K
Source: J. Chem. Eng. Data, 2010, 10.1021/je900882r
Compound 1: 2-aminoacetic acid, C2H5NO2, InChI=1S/C2H5NO2/c3-1-2(4)5/h1,3H2,(H,4,5), purity 99.7%
Compound 2: (S)-2-aminopropanoic acid, C3H7NO2, InChI=1S/C3H7NO2/c1-2(4)3(5)6/h2H,4H2,1H3,(H,5,6)/t2-/m0/s1, purity 99%
Compound 3: L-valine, C5H11NO2, InChI=1S/C5H11NO2/c1-3(2)4(6)5(7)8/h3-4H,6H2,1-2H3,(H,7,8)/t4-/m0/s1, purity 99%
Compound 4: 1-butyl-3-methylimidazolium bromide, C8H15BrN2, InChI=1S/C8H15N2.BrH/c1-3-4-5-10-7-6-9(2)8-10;/h6-8H,3-5H2,1-2H3;1H/q+1;/p-1, purity 99%
Compound 5: water, H2O, InChI=1S/H2O/h1H2, purity 99.9%

System: 2-aminoacetic acid + water; phases: Liquid
Fixed: Temperature, K = 298.15
Fixed: Pressure, kPa = 101
Property: Molar conductivity, S*m2/mol (Liquid); method: Alternating current cell with electrodes
Amount concentration (molarity), mol/dm3 of 2-aminoacetic acid	Molar conductivity, S*m2/mol	uncertainty
0.0007166	0.015345	0.000307
0.0014858	0.014811	0.000296
0.0022747	0.014633	0.000293
0.003892	0.014501	0.00029
0.0056605	0.014217	0.000284
0.007383	0.01394	0.000279
0.0090397	0.013741	0.000275
0.0116037	0.013463	0.000269
0.0143123	0.013186	0.000264
0.0174745	0.012888	0.000258
0.0210378	0.012573	0.000251
0.0247457	0.012278	0.000246

System: 2-aminoacetic acid + water; phases: Liquid
Fixed: Temperature, K = 298.15
Fixed: Pressure, kPa = 101
Property: Viscosity, Pa*s (Liquid); method: Capillary tube (Ostwald; Ubbelohde) method
Amount concentration (molarity), mol/dm3 of 2-aminoacetic acid	Viscosity, Pa*s	uncertainty
0.052	0.000881	4e-05
0.0997	0.000892	4e-05
0.158	0.00091	4e-05
0.1999	0.00092	4e-05
0.2244	0.000929	4e-05
0.292	0.000939	4e-05
0.3289	0.000945	4e-05
0.4544	0.000965	4e-05
0.5246	0.00098	4e-05

System: 2-aminoacetic acid + water; phases: Liquid
Fixed: Temperature, K = 298.15
Fixed: Pressure, kPa = 101
Property: Refractive index (Na D-line) (Liquid); method: Standard Abbe refractometry
Molality, mol/kg of 2-aminoacetic acid	Refractive index (Na D-line)	uncertainty
0.0941	1.3333	0.0004
0.1492	1.3339	0.0004
0.1972	1.3345	0.0004
0.2611	1.3354	0.0004
0.2975	1.3359	0.0004
0.303	1.336	0.0004
0.3935	1.337	0.0004
0.4408	1.3376	0.0004

System: 2-aminoacetic acid + water; phases: Liquid
Fixed: Temperature, K = 298.15
Fixed: Pressure, kPa = 101
Property: Mass density, kg/m3 (Liquid); method: VIBTUB:UFactor:4
Molality, mol/kg of 2-aminoacetic acid	Mass density, kg/m3	uncertainty
0.0521	998.7	0.17
0.0997	1000.21	0.17
0.1577	1002.02	0.17
0.1992	1003.32	0.17
0.2235	1004.07	0.18
0.2902	1006.11	0.18
0.3266	1007.22	0.18
0.4495	1010.93	0.19
0.5179	1012.94	0.19

System: water + 1-butyl-3-methylimidazolium bromide; phases: Liquid
Fixed: Temperature, K = 298.15
Fixed: Pressure, kPa = 101
Property: Refractive index (Na D-line) (Liquid); method: ABBE:UFactor:2
Molality, mol/kg of 1-butyl-3-methylimidazolium bromide	Refractive index (Na D-line)	uncertainty
0.0909	1.3357	0.0006
0.0915	1.3359	0.0006
0.097	1.336	0.0006
0.1797	1.3382	0.0006
0.1833	1.3388	0.0006
0.185	1.339	0.0006
0.267	1.3407	0.0006
0.2863	1.3416	0.0006
0.2866	1.3414	0.0006
0.3496	1.343	0.0006
0.3564	1.3433	0.0006
0.3651	1.3437	0.0006

System: water + 1-butyl-3-methylimidazolium bromide; phases: Liquid
Fixed: Temperature, K = 298.15
Fixed: Pressure, kPa = 101
Property: Mass density, kg/m3 (Liquid); method: VIBTUB:UFactor:32
Molality, mol/kg of 1-butyl-3-methylimidazolium bromide	Mass density, kg/m3	uncertainty
0.0909	1001.54	1.01
0.0915	1001.77	1.02
0.097	1001.97	1.02
0.1797	1005.97	1.07
0.1833	1006.34	1.08
0.185	1006.46	1.08
0.267	1010.2	1.12
0.2863	1011.4	1.14
0.2866	1011.29	1.14
0.3496	1014.39	1.18
0.3564	1014.36	1.18
0.3651	1014.07	1.17

System: (S)-2-aminopropanoic acid + water; phases: Liquid
Fixed: Temperature, K = 298.15
Fixed: Pressure, kPa = 101
Property: Molar conductivity, S*m2/mol (Liquid); method: Alternating current cell with electrodes
Amount concentration (molarity), mol/dm3 of (S)-2-aminopropanoic acid	Molar conductivity, S*m2/mol	uncertainty
0.0007166	0.015345	0.000307
0.0014858	0.014811	0.000296
0.0022747	0.014633	0.000293
0.003892	0.014501	0.00029
0.0056605	0.014217	0.000284
0.007383	0.01394	0.000279
0.0090397	0.013741	0.000275
0.0116037	0.013463	0.000269
0.0143123	0.013186	0.000264
0.0174745	0.012888	0.000258
0.0210378	0.012573	0.000251
0.0247457	0.012278	0.000246

System: (S)-2-aminopropanoic acid + water; phases: Liquid
Fixed: Temperature, K = 298.15
Fixed: Pressure, kPa = 101
Property: Viscosity, Pa*s (Liquid); method: Capillary tube (Ostwald; Ubbelohde) method
Amount concentration (molarity), mol/dm3 of (S)-2-aminopropanoic acid	Viscosity, Pa*s	uncertainty
0.0532	0.000886	4e-05
0.091	0.000891	4e-05
0.1498	0.000897	4e-05
0.1918	0.000902	4e-05
0.2526	0.000912	4e-05
0.2941	0.000921	4e-05
0.3537	0.000928	4e-05
0.3827	0.000936	4e-05
0.4512	0.000951	4.1e-05
0.4876	0.000957	4.1e-05

System: (S)-2-aminopropanoic acid + water; phases: Liquid
Fixed: Temperature, K = 298.15
Fixed: Pressure, kPa = 101
Property: Refractive index (Na D-line) (Liquid); method: Standard Abbe refractometry
Molality, mol/kg of (S)-2-aminopropanoic acid	Refractive index (Na D-line)	uncertainty
0.0533	1.3326	0.0004
0.091	1.333	0.0004
0.1496	1.3337	0.0004
0.1913	1.3342	0.0004
0.2516	1.335	0.0004
0.2926	1.3355	0.0004
0.3514	1.3362	0.0004
0.3799	1.3365	0.0004
0.4471	1.3374	0.0004
0.4827	1.3378	0.0004

System: (S)-2-aminopropanoic acid + water; phases: Liquid
Fixed: Temperature, K = 298.15
Fixed: Pressure, kPa = 101
Property: Mass density, kg/m3 (Liquid); method: VIBTUB:UFactor:4
Molality, mol/kg of (S)-2-aminopropanoic acid	Mass density, kg/m3	uncertainty
0.0499	998.55	0.22
0.0849	999.6	0.22
0.1397	1001.23	0.22
0.1784	1002.37	0.23
0.2346	1004.02	0.23
0.2731	1005.13	0.23
0.3275	1006.7	0.23
0.3551	1007.46	0.24
0.4168	1009.23	0.24
0.4513	1010.16	0.24

System: L-valine + water; phases: Liquid
Fixed: Temperature, K = 298.15
Fixed: Pressure, kPa = 101
Property: Molar conductivity, S*m2/mol (Liquid); method: Alternating current cell with electrodes
Amount concentration (molarity), mol/dm3 of L-valine	Molar conductivity, S*m2/mol	uncertainty
0.0007166	0.015345	0.000307
0.0014858	0.014811	0.000296
0.0022747	0.014633	0.000293
0.003892	0.014501	0.00029
0.0056605	0.014217	0.000284
0.007383	0.01394	0.000279
0.0090397	0.013741	0.000275
0.0116037	0.013463	0.000269
0.0143123	0.013186	0.000264
0.0174745	0.012888	0.000258

System: L-valine + water; phases: Liquid
Fixed: Temperature, K = 298.15
Fixed: Pressure, kPa = 101
Property: Viscosity, Pa*s (Liquid); method: Capillary tube (Ostwald; Ubbelohde) method
Amount concentration (molarity), mol/dm3 of L-valine	Viscosity, Pa*s	uncertainty
0.1173	0.000892	4e-05
0.1403	0.000899	4e-05
0.1898	0.000906	4e-05
0.2521	0.000916	4e-05
0.2987	0.000938	4e-05
0.3228	0.000943	4.1e-05
0.3867	0.000958	4.1e-05
0.4413	0.000979	4.1e-05

System: L-valine + water; phases: Liquid
Fixed: Temperature, K = 298.15
Fixed: Pressure, kPa = 101
Property: Refractive index (Na D-line) (Liquid); method: Standard Abbe refractometry
Molality, mol/kg of L-valine	Refractive index (Na D-line)	uncertainty
0.1173	1.3348	0.0004
0.1402	1.3353	0.0004
0.1894	1.3363	0.0004
0.2512	1.3375	0.0004
0.2973	1.3384	0.0004
0.3211	1.3389	0.0004
0.3841	1.3401	0.0004
0.4378	1.341	0.0004

System: L-valine + water; phases: Liquid
Fixed: Temperature, K = 298.15
Fixed: Pressure, kPa = 101
Property: Mass density, kg/m3 (Liquid); method: VIBTUB:UFactor:4
Molality, mol/kg of L-valine	Mass density, kg/m3	uncertainty
0.1173	1000.17	0.22
0.1402	1000.77	0.22
0.1894	1002.03	0.23
0.2512	1003.59	0.23
0.2973	1004.74	0.23
0.3211	1005.32	0.23
0.3841	1006.84	0.23
0.4378	1008.11	0.24

System: 2-aminoacetic acid + water + 1-butyl-3-methylimidazolium bromide; phases: Liquid
Fixed: Temperature, K = 298.15
Fixed: Pressure, kPa = 101
Property: Molar conductivity, S*m2/mol (Liquid); method: Alternating current cell with electrodes
Amount concentration (molarity), mol/dm3 of 2-aminoacetic acid	Solvent: Molality, mol/kg of 1-butyl-3-methylimidazolium bromide	Molar conductivity, S*m2/mol	uncertainty
0.0005618	0.9167	0.014304	0.000286
0.0007166	0	0.015345	0.000307
0.0007536	0.4399	0.014805	0.000296
0.0012704	0.9167	0.013992	0.00028
0.0014858	0	0.014811	0.000296
0.0016232	0.4399	0.014655	0.000293
0.0020875	0.9167	0.013895	0.000278
0.0022747	0	0.014633	0.000293
0.0022841	1.5605	0.01363	0.000273
0.0024734	0.4399	0.014517	0.00029
0.002943	0.9167	0.013818	0.000276
0.0033237	0.4399	0.014426	0.000289
0.0033609	1.5605	0.013361	0.000267
0.003892	0	0.014501	0.00029
0.0045421	1.5605	0.013181	0.000264
0.0047496	0.9167	0.013468	0.000269
0.004992	0.4399	0.014136	0.000283
0.0056605	0	0.014217	0.000284
0.0057299	1.5605	0.013041	0.000261
0.006525	0.4399	0.013933	0.000279
0.007383	0	0.01394	0.000279
0.0074819	0.9167	0.013147	0.000263
0.0081968	1.5605	0.012718	0.000254
0.0090397	0	0.013741	0.000275
0.0099324	0.4399	0.013447	0.000269
0.0099461	0.9167	0.012906	0.000258
0.0105787	1.5605	0.012425	0.000249
0.0116037	0	0.013463	0.000269
0.0123656	0.9167	0.012686	0.000254
0.0130717	1.5605	0.012182	0.000244
0.0134493	0.4399	0.013061	0.000261
0.0143123	0	0.013186	0.000264
0.0155256	0.9167	0.012441	0.000249
0.0156394	0.4399	0.012811	0.000256
0.0168046	1.5605	0.011839	0.000237
0.0174745	0	0.012888	0.000258
0.0194204	0.4399	0.012474	0.000249
0.0197007	0.9167	0.01212	0.000242
0.0206811	1.5605	0.011505	0.00023
0.0210378	0	0.012573	0.000251
0.0231757	0.4399	0.012192	0.000244
0.0234225	0.9167	0.011859	0.000237
0.0247457	0	0.012278	0.000246
0.0258041	1.5605	0.011136	0.000223
0.0275082	0.9167	0.011591	0.000232
0.0280324	0.4399	0.011845	0.000237
0.0322518	1.5605	0.01072	0.000214
0.0386931	1.5605	0.010352	0.000207

System: 2-aminoacetic acid + water + 1-butyl-3-methylimidazolium bromide; phases: Liquid
Fixed: Temperature, K = 298.15
Fixed: Pressure, kPa = 101
Property: Viscosity, Pa*s (Liquid); method: Capillary tube (Ostwald; Ubbelohde) method
Amount concentration (molarity), mol/dm3 of 2-aminoacetic acid	Solvent: Molality, mol/kg of 1-butyl-3-methylimidazolium bromide	Viscosity, Pa*s	uncertainty
0.052	0	0.000881	4e-05
0.0961	0.185	0.000994	4e-05
0.0983	0.0915	0.000968	4e-05
0.0997	0	0.000892	4e-05
0.1039	0.2866	0.001016	4e-05
0.1081	0.3496	0.00104	4.1e-05
0.1338	0.3496	0.001046	4.1e-05
0.135	0.185	0.001004	4e-05
0.1369	0.2866	0.001024	4e-05
0.1383	0.0915	0.000974	4e-05
0.158	0	0.00091	4e-05
0.1939	0.0915	0.000984	4e-05
0.1965	0.3496	0.001056	4.1e-05
0.1999	0	0.00092	4e-05
0.2074	0.185	0.001023	4e-05
0.2094	0.2866	0.001045	4.1e-05
0.2244	0	0.000929	4e-05
0.252	0.3496	0.001075	4.1e-05
0.2571	0.0915	0.00099	4e-05
0.2601	0.2866	0.00106	4.1e-05
0.2855	0.185	0.001038	4.1e-05
0.288	0.2866	0.001069	4.1e-05
0.292	0	0.000939	4e-05
0.2925	0.185	0.001042	4.1e-05
0.2968	0.3496	0.001089	4.1e-05
0.3008	0.0915	0.000995	4e-05
0.3289	0	0.000945	4e-05
0.3515	0.0915	0.001001	4e-05
0.3522	0.3496	0.001109	4.1e-05
0.353	0.185	0.001061	4.1e-05
0.3582	0.2866	0.001092	4.1e-05
0.4047	0.2866	0.001107	4.1e-05
0.4086	0.3496	0.001128	4.1e-05
0.4098	0.185	0.00108	4.1e-05
0.4114	0.0915	0.001007	4e-05
0.4461	0.0915	0.001013	4e-05
0.4483	0.2866	0.001117	4.1e-05
0.4488	0.3496	0.001151	4.1e-05
0.4544	0	0.000965	4e-05
0.474	0.185	0.001096	4.1e-05
0.5246	0	0.00098	4e-05

System: 2-aminoacetic acid + water + 1-butyl-3-methylimidazolium bromide; phases: Liquid
Fixed: Temperature, K = 298.15
Fixed: Pressure, kPa = 101
Property: Refractive index (Na D-line) (Liquid); method: Standard Abbe refractometry
Molality, mol/kg of 2-aminoacetic acid	Solvent: Molality, mol/kg of 1-butyl-3-methylimidazolium bromide	Refractive index (Na D-line)	uncertainty
0	0	1.3325	0.0004
0	0.0915	1.3359	0.0004
0	0.185	1.339	0.0004
0	0.2866	1.3414	0.0004
0	0.3496	1.343	0.0004
0.0941	0	1.3333	0.0004
0.0952	0.185	1.3405	0.0004
0.0978	0.0915	1.337	0.0004
0.1024	0.2866	1.3435	0.0004
0.1062	0.3496	1.3454	0.0004
0.1314	0.3496	1.3458	0.0004
0.1336	0.185	1.3409	0.0004
0.1348	0.2866	1.344	0.0004
0.1375	0.0915	1.3373	0.0004
0.1492	0	1.3339	0.0004
0.1924	0.0915	1.338	0.0004
0.1926	0.3496	1.3465	0.0004
0.1972	0	1.3345	0.0004
0.2048	0.185	1.3418	0.0004
0.2058	0.2866	1.3448	0.0004
0.2466	0.3496	1.3472	0.0004
0.2546	0.0915	1.3389	0.0004
0.2552	0.2866	1.3455	0.0004
0.2611	0	1.3354	0.0004
0.2812	0.185	1.3427	0.0004
0.2824	0.2866	1.3458	0.0004
0.2881	0.185	1.3428	0.0004
0.29	0.3496	1.3478	0.0004
0.2975	0	1.3359	0.0004
0.2975	0.0915	1.3395	0.0004
0.303	0	1.336	0.0004
0.3437	0.3496	1.3484	0.0004
0.3471	0.185	1.3437	0.0004
0.3472	0.0915	1.3402	0.0004
0.3505	0.2866	1.3467	0.0004
0.3935	0	1.337	0.0004
0.3955	0.2866	1.3473	0.0004
0.3981	0.3496	1.3491	0.0004
0.4022	0.185	1.3445	0.0004
0.4056	0.0915	1.3411	0.0004
0.4367	0.3496	1.3496	0.0004
0.4375	0.2866	1.3478	0.0004
0.4394	0.0915	1.3416	0.0004
0.4408	0	1.3376	0.0004
0.4644	0.185	1.3454	0.0004

System: 2-aminoacetic acid + water + 1-butyl-3-methylimidazolium bromide; phases: Liquid
Fixed: Temperature, K = 298.15
Fixed: Pressure, kPa = 101
Property: Mass density, kg/m3 (Liquid); method: VIBTUB:UFactor:4
Molality, mol/kg of 2-aminoacetic acid	Solvent: Molality, mol/kg of 1-butyl-3-methylimidazolium bromide	Mass density, kg/m3	uncertainty
0	0	997.04	0.17
0	0.0915	1001.77	0.17
0	0.185	1006.46	0.18
0	0.2866	1011.29	0.19
0	0.3496	1014.39	0.19
0.0521	0	998.7	0.17
0.0952	0.185	1009.44	0.18
0.0978	0.0915	1004.85	0.18
0.0997	0	1000.21	0.17
0.1024	0.2866	1014.48	0.19
0.1062	0.3496	1017.7	0.2
0.1314	0.3496	1018.48	0.2
0.1336	0.185	1010.63	0.19
0.1348	0.2866	1015.48	0.19
0.1375	0.0915	1006.09	0.18
0.1577	0	1002.02	0.17
0.1924	0.0915	1007.8	0.18
0.1926	0.3496	1020.35	0.2
0.1992	0	1003.32	0.17
0.2048	0.185	1012.83	0.19
0.2058	0.2866	1017.66	0.2
0.2235	0	1004.07	0.18
0.2466	0.3496	1021.99	0.21
0.2546	0.0915	1009.71	0.19
0.2552	0.2866	1019.17	0.2
0.2812	0.185	1015.16	0.19
0.2824	0.2866	1019.99	0.2
0.2881	0.185	1015.37	0.19
0.29	0.3496	1023.3	0.21
0.2902	0	1006.11	0.18
0.2975	0.0915	1011.02	0.19
0.3266	0	1007.22	0.18
0.3437	0.3496	1024.9	0.21
0.3471	0.185	1017.16	0.2
0.3472	0.0915	1012.53	0.19
0.3505	0.2866	1022.05	0.21
0.3955	0.2866	1023.4	0.21
0.3981	0.3496	1026.52	0.21
0.4022	0.185	1018.82	0.2
0.4056	0.0915	1014.29	0.19
0.4367	0.3496	1027.65	0.21
0.4375	0.2866	1024.65	0.21
0.4394	0.0915	1015.31	0.19
0.4495	0	1010.93	0.19
0.4644	0.185	1020.67	0.2
0.5179	0	1012.94	0.19

System: (S)-2-aminopropanoic acid + water + 1-butyl-3-methylimidazolium bromide; phases: Liquid
Fixed: Temperature, K = 298.15
Fixed: Pressure, kPa = 101
Property: Molar conductivity, S*m2/mol (Liquid); method: Alternating current cell with electrodes
Amount concentration (molarity), mol/dm3 of (S)-2-aminopropanoic acid	Solvent: Molality, mol/kg of 1-butyl-3-methylimidazolium bromide	Molar conductivity, S*m2/mol	uncertainty
0.0006314	0.4058	0.011153	0.000223
0.0006559	0.6559	0.010314	0.000206
0.0007166	0	0.015345	0.000307
0.0011691	0.4058	0.011029	0.000221
0.00143	0.6559	0.010077	0.000202
0.0014858	0	0.014811	0.000296
0.0018943	0.4058	0.010925	0.000219
0.0020336	0.6559	0.009928	0.000199
0.0022747	0	0.014633	0.000293
0.002632	0.4058	0.010822	0.000216
0.003892	0	0.014501	0.00029
0.004218	0.6559	0.00908	0.000182
0.0055766	0.4058	0.010608	0.000212
0.0056605	0	0.014217	0.000284
0.0070847	0.6559	0.008194	0.000164
0.007383	0	0.01394	0.000279
0.0086212	0.4058	0.01041	0.000208
0.0090397	0	0.013741	0.000275
0.0100563	0.6559	0.007453	0.000149
0.0116037	0	0.013463	0.000269
0.011772	0.4058	0.010152	0.000203
0.0137626	0.6559	0.006621	0.000132
0.0143123	0	0.013186	0.000264
0.0152168	0.4058	0.009917	0.000198
0.0165637	0.6559	0.005996	0.00012
0.0174745	0	0.012888	0.000258
0.0193491	0.4058	0.009639	0.000193
0.0199945	0.6559	0.005267	0.000105
0.0210378	0	0.012573	0.000251
0.0230502	0.4058	0.009414	0.000188
0.0234121	0.6559	0.004767	9.5e-05
0.0247457	0	0.012278	0.000246
0.0268763	0.4058	0.009183	0.000184
0.0307773	0.4058	0.008981	0.00018

System: (S)-2-aminopropanoic acid + water + 1-butyl-3-methylimidazolium bromide; phases: Liquid
Fixed: Temperature, K = 298.15
Fixed: Pressure, kPa = 101
Property: Viscosity, Pa*s (Liquid); method: Capillary tube (Ostwald; Ubbelohde) method
Amount concentration (molarity), mol/dm3 of (S)-2-aminopropanoic acid	Solvent: Molality, mol/kg of 1-butyl-3-methylimidazolium bromide	Viscosity, Pa*s	uncertainty
0.0532	0	0.000886	4e-05
0.0538	0.2863	0.001044	4.1e-05
0.0553	0.097	0.00095	4.1e-05
0.0564	0.1833	0.000992	4.1e-05
0.0628	0.3651	0.001088	4.1e-05
0.091	0	0.000891	4e-05
0.1025	0.1833	0.001006	4.1e-05
0.1063	0.097	0.000964	4.1e-05
0.1077	0.3651	0.001102	4.1e-05
0.1096	0.2863	0.001059	4.1e-05
0.1468	0.1833	0.001021	4.1e-05
0.1498	0	0.000897	4e-05
0.1504	0.097	0.000978	4.1e-05
0.153	0.3651	0.001112	4.1e-05
0.1538	0.2863	0.001068	4.1e-05
0.1918	0	0.000902	4e-05
0.1943	0.097	0.000991	4.1e-05
0.1979	0.1833	0.001039	4.1e-05
0.2023	0.3651	0.001126	4.1e-05
0.2061	0.2863	0.001083	4.1e-05
0.2492	0.1833	0.001054	4.1e-05
0.2499	0.3651	0.00114	4.1e-05
0.2516	0.097	0.001011	4.1e-05
0.2526	0	0.000912	4e-05
0.2528	0.2863	0.001093	4.1e-05
0.2935	0.2863	0.001103	4.1e-05
0.2937	0.097	0.001024	4.1e-05
0.2941	0	0.000921	4e-05
0.3027	0.1833	0.001072	4.1e-05
0.303	0.3651	0.001159	4.1e-05
0.3464	0.3651	0.001173	4.1e-05
0.3473	0.1833	0.00109	4.1e-05
0.3495	0.097	0.001039	4.1e-05
0.3512	0.2863	0.001122	4.1e-05
0.3537	0	0.000928	4e-05
0.3827	0	0.000936	4e-05
0.4008	0.1833	0.001105	4.1e-05
0.4072	0.2863	0.001136	4.1e-05
0.411	0.3651	0.001197	4.1e-05
0.4512	0	0.000951	4.1e-05
0.4608	0.097	0.001073	4.1e-05
0.4614	0.1833	0.001129	4.1e-05
0.4647	0.2863	0.001147	4.1e-05
0.4712	0.3651	0.001212	4.1e-05
0.4876	0	0.000957	4.1e-05

System: (S)-2-aminopropanoic acid + water + 1-butyl-3-methylimidazolium bromide; phases: Liquid
Fixed: Temperature, K = 298.15
Fixed: Pressure, kPa = 101
Property: Refractive index (Na D-line) (Liquid); method: Standard Abbe refractometry
Molality, mol/kg of (S)-2-aminopropanoic acid	Solvent: Molality, mol/kg of 1-butyl-3-methylimidazolium bromide	Refractive index (Na D-line)	uncertainty
0	0	1.3325	0.0004
0	0.097	1.336	0.0004
0	0.1833	1.3388	0.0004
0	0.2863	1.3416	0.0004
0	0.3651	1.3437	0.0004
0.0531	0.2863	1.3428	0.0004
0.0533	0	1.3326	0.0004
0.0551	0.097	1.3364	0.0004
0.056	0.1833	1.3395	0.0004
0.0617	0.3651	1.3453	0.0004
0.091	0	1.333	0.0004
0.1016	0.1833	1.3403	0.0004
0.1058	0.097	1.3372	0.0004
0.1058	0.3651	1.346	0.0004
0.108	0.2863	1.3436	0.0004
0.1453	0.1833	1.3409	0.0004
0.1495	0.097	1.3379	0.0004
0.1496	0	1.3337	0.0004
0.1501	0.3651	1.3467	0.0004
0.1514	0.2863	1.3442	0.0004
0.1913	0	1.3342	0.0004
0.1928	0.097	1.3385	0.0004
0.1956	0.1833	1.3417	0.0004
0.1982	0.3651	1.3474	0.0004
0.2026	0.2863	1.3449	0.0004
0.2445	0.3651	1.348	0.0004
0.2459	0.1833	1.3424	0.0004
0.2483	0.2863	1.3456	0.0004
0.2493	0.097	1.3394	0.0004
0.2516	0	1.335	0.0004
0.2879	0.2863	1.3462	0.0004
0.2907	0.097	1.34	0.0004
0.2926	0	1.3355	0.0004
0.2961	0.3651	1.3487	0.0004
0.2983	0.1833	1.3432	0.0004
0.3381	0.3651	1.3493	0.0004
0.3419	0.1833	1.3438	0.0004
0.344	0.2863	1.3469	0.0004
0.3454	0.097	1.3408	0.0004
0.3514	0	1.3362	0.0004
0.3799	0	1.3365	0.0004
0.3882	0.097	1.3414	0.0004
0.394	0.1833	1.3446	0.0004
0.3983	0.2863	1.3478	0.0004
0.4006	0.3651	1.3502	0.0004
0.4471	0	1.3374	0.0004
0.4529	0.1833	1.3454	0.0004
0.4539	0.2863	1.3485	0.0004
0.4541	0.097	1.3423	0.0004
0.4586	0.3651	1.351	0.0004
0.4827	0	1.3378	0.0004

System: (S)-2-aminopropanoic acid + water + 1-butyl-3-methylimidazolium bromide; phases: Liquid
Fixed: Temperature, K = 298.15
Fixed: Pressure, kPa = 101
Property: Mass density, kg/m3 (Liquid); method: VIBTUB:UFactor:4
Molality, mol/kg of (S)-2-aminopropanoic acid	Solvent: Molality, mol/kg of 1-butyl-3-methylimidazolium bromide	Mass density, kg/m3	uncertainty
0	0	997.04	0.23
0	0.097	1001.97	0.23
0	0.1833	1006.34	0.23
0	0.2863	1011.4	0.24
0	0.3651	1015.07	0.25
0.0499	0	998.55	0.22
0.0531	0.2863	1012.92	0.24
0.0551	0.097	1003.61	0.23
0.056	0.1833	1007.99	0.24
0.0617	0.3651	1017.05	0.25
0.0849	0	999.6	0.22
0.1016	0.1833	1009.3	0.24
0.1058	0.097	1005.1	0.23
0.1058	0.3651	1018.26	0.25
0.108	0.2863	1014.47	0.25
0.1397	0	1001.23	0.22
0.1453	0.1833	1010.55	0.24
0.1495	0.097	1006.36	0.23
0.1501	0.3651	1019.47	0.26
0.1514	0.2863	1015.68	0.25
0.1784	0	1002.37	0.23
0.1928	0.097	1007.59	0.24
0.1956	0.1833	1011.96	0.24
0.1982	0.3651	1020.77	0.26
0.2026	0.2863	1017.09	0.25
0.2346	0	1004.02	0.23
0.2445	0.3651	1022.01	0.26
0.2459	0.1833	1013.34	0.25
0.2483	0.2863	1018.33	0.25
0.2493	0.097	1009.18	0.24
0.2731	0	1005.13	0.23
0.2879	0.2863	1019.4	0.26
0.2907	0.097	1010.31	0.24
0.2961	0.3651	1023.38	0.26
0.2983	0.1833	1014.77	0.25
0.3275	0	1006.7	0.23
0.3381	0.3651	1024.49	0.26
0.3419	0.1833	1015.95	0.25
0.344	0.2863	1020.89	0.26
0.3454	0.097	1011.8	0.24
0.3551	0	1007.46	0.24
0.3882	0.097	1012.94	0.24
0.394	0.1833	1017.32	0.25
0.3983	0.2863	1022.31	0.26
0.4006	0.3651	1026.12	0.27
0.4168	0	1009.23	0.24
0.4513	0	1010.16	0.24
0.4529	0.1833	1018.86	0.25
0.4539	0.2863	1023.75	0.26
0.4541	0.097	1014.7	0.25
0.4586	0.3651	1027.62	0.27

System: L-valine + water + 1-butyl-3-methylimidazolium bromide; phases: Liquid
Fixed: Temperature, K = 298.15
Fixed: Pressure, kPa = 101
Property: Molar conductivity, S*m2/mol (Liquid); method: Alternating current cell with electrodes
Amount concentration (molarity), mol/dm3 of L-valine	Solvent: Molality, mol/kg of 1-butyl-3-methylimidazolium bromide	Molar conductivity, S*m2/mol	uncertainty
0.0002912	0.441	0.012826413	0.000256528
0.0007075	1.6986	0.011547	0.000231
0.0007166	0	0.015345	0.000307
0.0007218	0.441	0.012440597	0.000248812
0.001298	0.441	0.011937449	0.000238749
0.0012993	1.6986	0.011349	0.000227
0.0014858	0	0.014811	0.000296
0.0019455	1.6986	0.011172	0.000223
0.00222243	0.441	0.011741573	0.000234831
0.0022747	0	0.014633	0.000293
0.0026938	1.6986	0.011035	0.000221
0.003892	0	0.014501	0.00029
0.0039826	0.441	0.011197292	0.000223946
0.0042447	1.6986	0.010652	0.000213
0.0055032	1.6986	0.010484	0.00021
0.0056605	0	0.014217	0.000284
0.0059328	0.441	0.010752888	0.000215058
0.007383	0	0.01394	0.000279
0.0074283	1.6986	0.010175	0.000204
0.0083832	0.441	0.010279494	0.00020559
0.0090397	0	0.013741	0.000275
0.0094078	1.6986	0.009898	0.000198
0.0112958	0.441	0.009786398	0.000195728
0.0116037	0	0.013463	0.000269
0.0131152	1.6986	0.0094216	0.0001884
0.0132269	0.441	0.009506727	0.000190135
0.0143123	0	0.013186	0.000264
0.0155316	0.441	0.009197003	0.00018394
0.016224	1.6986	0.009065	0.000181
0.0174745	0	0.012888	0.000258

System: L-valine + water + 1-butyl-3-methylimidazolium bromide; phases: Liquid
Fixed: Temperature, K = 298.15
Fixed: Pressure, kPa = 101
Property: Viscosity, Pa*s (Liquid); method: Capillary tube (Ostwald; Ubbelohde) method
Amount concentration (molarity), mol/dm3 of L-valine	Solvent: Molality, mol/kg of 1-butyl-3-methylimidazolium bromide	Viscosity, Pa*s	uncertainty
0.0492	0.1797	0.000975	4.1e-05
0.0506	0.0909	0.000936	4e-05
0.0543	0.3564	0.001051	4.1e-05
0.0572	0.267	0.001025	4.1e-05
0.1033	0.0909	0.000959	4.1e-05
0.1049	0.1797	0.000998	4.1e-05
0.1063	0.267	0.00104	4.1e-05
0.1069	0.3564	0.00107	4.1e-05
0.1173	0	0.000892	4e-05
0.1403	0	0.000899	4e-05
0.149	0.1797	0.001012	4.1e-05
0.1496	0.0909	0.000986	4.1e-05
0.1537	0.3564	0.001089	4.1e-05
0.1538	0.267	0.001058	4.1e-05
0.1898	0	0.000906	4e-05
0.1988	0.0909	0.001007	4.1e-05
0.2011	0.1797	0.001038	4.1e-05
0.2024	0.267	0.001081	4.1e-05
0.2045	0.3564	0.001116	4.1e-05
0.245	0.1797	0.001061	4.1e-05
0.2509	0.0909	0.00103	4.1e-05
0.2521	0	0.000916	4e-05
0.2552	0.267	0.001112	4.1e-05
0.257	0.3564	0.001138	4.1e-05
0.293	0.1797	0.001083	4.1e-05
0.2987	0	0.000938	4e-05
0.3011	0.3564	0.001156	4.1e-05
0.3053	0.0909	0.001057	4.1e-05
0.306	0.267	0.001131	4.1e-05
0.3228	0	0.000943	4.1e-05
0.3447	0.267	0.00115	4.1e-05
0.3486	0.1797	0.001111	4.1e-05
0.3508	0.3564	0.001188	4.1e-05
0.3594	0.0909	0.001076	4.1e-05
0.3867	0	0.000958	4.1e-05
0.393	0.1797	0.001133	4.1e-05
0.3945	0.267	0.001177	4.1e-05
0.3972	0.0909	0.00109	4.1e-05
0.4042	0.3564	0.001224	4.1e-05
0.4369	0.0909	0.001104	4.1e-05
0.4413	0	0.000979	4.1e-05
0.4453	0.3564	0.001239	4.1e-05
0.4466	0.267	0.001195	4.1e-05
0.4592	0.1797	0.001165	4.1e-05

System: L-valine + water + 1-butyl-3-methylimidazolium bromide; phases: Liquid
Fixed: Temperature, K = 298.15
Fixed: Pressure, kPa = 101
Property: Refractive index (Na D-line) (Liquid); method: Standard Abbe refractometry
Molality, mol/kg of L-valine	Solvent: Molality, mol/kg of 1-butyl-3-methylimidazolium bromide	Refractive index (Na D-line)	uncertainty
0	0	1.3326	0.0004
0	0.0909	1.3357	0.0004
0	0.1797	1.3382	0.0004
0	0.267	1.3407	0.0004
0	0.3564	1.3433	0.0004
0.0489	0.1797	1.3395	0.0004
0.0505	0.0909	1.3365	0.0004
0.0535	0.3564	1.3453	0.0004
0.0566	0.267	1.3425	0.0004
0.1029	0.0909	1.3375	0.0004
0.104	0.1797	1.3405	0.0004
0.105	0.267	1.3434	0.0004
0.1052	0.3564	1.3463	0.0004
0.1173	0	1.3348	0.0004
0.1402	0	1.3353	0.0004
0.1476	0.1797	1.3413	0.0004
0.1488	0.0909	1.3385	0.0004
0.151	0.3564	1.3472	0.0004
0.1517	0.267	1.3443	0.0004
0.1894	0	1.3363	0.0004
0.1975	0.0909	1.3394	0.0004
0.1989	0.1797	1.3424	0.0004
0.1994	0.267	1.3452	0.0004
0.2007	0.3564	1.3482	0.0004
0.2421	0.1797	1.3432	0.0004
0.2489	0.0909	1.3405	0.0004
0.2511	0.267	1.3462	0.0004
0.2512	0	1.3375	0.0004
0.2519	0.3564	1.3491	0.0004
0.2892	0.1797	1.3441	0.0004
0.2948	0.3564	1.3499	0.0004
0.2973	0	1.3384	0.0004
0.3008	0.267	1.3471	0.0004
0.3025	0.0909	1.3415	0.0004
0.3211	0	1.3389	0.0004
0.3385	0.267	1.3479	0.0004
0.3431	0.3564	1.3509	0.0004
0.3436	0.1797	1.3452	0.0004
0.3557	0.0909	1.3425	0.0004
0.3841	0	1.3401	0.0004
0.387	0.1797	1.3459	0.0004
0.387	0.267	1.3488	0.0004
0.3928	0.0909	1.3431	0.0004
0.3948	0.3564	1.3519	0.0004
0.4316	0.0909	1.3439	0.0004
0.4346	0.3564	1.3527	0.0004
0.4376	0.267	1.3497	0.0004
0.4378	0	1.341	0.0004
0.4515	0.1797	1.3472	0.0004

System: L-valine + water + 1-butyl-3-methylimidazolium bromide; phases: Liquid
Fixed: Temperature, K = 298.15
Fixed: Pressure, kPa = 101
Property: Mass density, kg/m3 (Liquid); method: VIBTUB:UFactor:4
Molality, mol/kg of L-valine	Solvent: Molality, mol/kg of 1-butyl-3-methylimidazolium bromide	Mass density, kg/m3	uncertainty
0	0	997.04	0.23
0	0.0909	1001.54	0.22
0	0.1797	1005.97	0.23
0	0.267	1010.2	0.24
0	0.3564	1014.36	0.25
0.0489	0.1797	1007.12	0.23
0.0505	0.0909	1002.87	0.23
0.0535	0.3564	1015.32	0.25
0.0566	0.267	1011.49	0.24
0.1029	0.0909	1004.23	0.23
0.104	0.1797	1008.46	0.24
0.105	0.267	1012.65	0.24
0.1052	0.3564	1016.54	0.25
0.1173	0	1000.17	0.22
0.1402	0	1000.77	0.22
0.1476	0.1797	1009.55	0.24
0.1488	0.0909	1005.4	0.23
0.151	0.3564	1017.73	0.25
0.1517	0.267	1013.79	0.25
0.1894	0	1002.03	0.23
0.1975	0.0909	1006.62	0.23
0.1989	0.1797	1010.84	0.24
0.1994	0.267	1014.98	0.25
0.2007	0.3564	1018.97	0.25
0.2421	0.1797	1011.92	0.24
0.2489	0.0909	1007.89	0.24
0.2511	0.267	1016.26	0.25
0.2512	0	1003.59	0.23
0.2519	0.3564	1020.23	0.26
0.2892	0.1797	1013.14	0.24
0.2948	0.3564	1021.3	0.26
0.2973	0	1004.74	0.23
0.3008	0.267	1017.48	0.25
0.3025	0.0909	1009.2	0.24
0.3211	0	1005.32	0.23
0.3385	0.267	1018.39	0.25
0.3431	0.3564	1022.51	0.26
0.3436	0.1797	1014.52	0.25
0.3557	0.0909	1010.47	0.24
0.3841	0	1006.84	0.23
0.387	0.1797	1015.58	0.25
0.387	0.267	1019.54	0.26
0.3928	0.0909	1011.34	0.24
0.3948	0.3564	1023.78	0.26
0.4316	0.0909	1012.25	0.24
0.4346	0.3564	1024.66	0.26
0.4376	0.267	1020.73	0.26
0.4378	0	1008.11	0.24
0.4515	0.1797	1017.16	0.25
