Measured thermophysical data. Measurement of CO2 Solubility in Ionic Liquids: [BMP][TfO] and [P14,6,6,6][Tf2N] by Measuring Bubble-Point Pressure
Source: J. Chem. Eng. Data, 2010, 10.1021/je9005085
Compound 1: 1-butyl-1-methylpyrrolidinium trifluoromethanesulfonate, C10H20F3NO3S, InChI=1S/C9H20N.CHF3O3S/c1-3-4-7-10(2)8-5-6-9-10;2-1(3,4)8(5,6)7/h3-9H2,1-2H3;(H,5,6,7)/q+1;/p-1, purity 99.6%
Compound 2: trihexyl(tetradecyl)phosphonium bis[(trifluoromethyl)sulfonyl]imide, C34H68F6NO4PS2, InChI=1S/C32H68P.C2F6NO4S2/c1-5-9-13-17-18-19-20-21-22-23-24-28-32-33(29-25-14-10-6-2,30-26-15-11-7-3)31-27-16-12-8-4;3-1(4,5)14(10,11)9-15(12,13)2(6,7)8/h5-32H2,1-4H3;/q+1;-1, purity 99.5%
Compound 3: carbon dioxide, CO2, InChI=1S/CO2/c2-1-3, purity 99.995%

System: carbon dioxide + 1-butyl-1-methylpyrrolidinium trifluoromethanesulfonate; phases: Liquid, Gas
Property: Vapor or sublimation pressure, kPa (Liquid); method: CCELL:UFactor:16
Temperature, K	Mole fraction of carbon dioxide	Vapor or sublimation pressure, kPa	uncertainty
30	0.3877	3660	190
30	0.5697	5620	280
30.1	0.6216	6450	320
30.1	0.7058	36990	1840
30.2	0.2583	1880	130
30.2	0.6651	17300	860
30.3	0.4623	5160	260
30.7	0.3118	2490	150
38.1	0.2583	2350	150
40	0.3118	3060	170
40	0.5697	7270	360
40.1	0.3877	4510	230
40.1	0.4623	6290	310
40.1	0.6216	10550	530
40.1	0.6651	22900	1140
40.3	0.7058	42860	2130
50	0.6216	14870	740
50	0.6651	28170	1400
50	0.7058	48210	2390
50.1	0.5697	10000	500
50.2	0.2583	2710	160
50.2	0.4623	7790	390
50.3	0.3118	3620	190
50.4	0.3877	5340	270
60	0.2583	2920	170
60	0.5697	14000	700
60	0.6216	19240	960
60	0.6651	33200	1650
60	0.7058	52920	2630
60.3	0.3118	4410	220
60.3	0.3877	6080	300
60.3	0.4623	9000	450
69.8	0.7058	59530	2950
70	0.3118	5030	250
70	0.3877	6950	350
70	0.4623	10270	510
70	0.6216	23200	1150
70.3	0.5697	17300	860
70.3	0.6651	37880	1880
70.7	0.2583	3100	170
79.8	0.5697	20500	1020
80	0.7058	62300	3090
80.1	0.2583	3910	200
80.1	0.3118	5950	300
80.1	0.3877	8060	400
80.1	0.4623	11840	590
80.1	0.6651	41800	2070
80.3	0.6216	27110	1350
90	0.5697	23460	1160
90	0.6216	31160	1550
90	0.6651	46150	2290
90	0.7058	66500	3300
90.3	0.2583	4710	240
90.3	0.3877	9020	450
90.4	0.4623	13340	660
90.5	0.3118	6390	320
100	0.2583	5430	270
100	0.3118	7050	350
100	0.4623	14440	720
100	0.6216	35170	1750
100	0.7058	70200	3480
100.1	0.3877	10090	500
100.1	0.6651	48650	2410
100.2	0.5697	25120	1250

System: carbon dioxide + trihexyl(tetradecyl)phosphonium bis[(trifluoromethyl)sulfonyl]imide; phases: Liquid, Gas
Property: Vapor or sublimation pressure, kPa (Liquid); method: CCELL:UFactor:16
Temperature, K	Mole fraction of carbon dioxide	Vapor or sublimation pressure, kPa	uncertainty
20.2	0.7928	5510	270
20.5	0.3603	530	100
20.9	0.7254	3530	190
21.8	0.7406	4030	210
22.2	0.7099	3160	180
22.5	0.593	1430	120
22.9	0.6309	2110	140
23.2	0.6831	2630	160
23.4	0.8258	6990	350
23.8	0.7611	5050	250
30	0.8258	8270	410
30.2	0.7254	4030	210
30.7	0.593	1650	130
31	0.3603	640	100
31.1	0.6831	2930	170
31.1	0.7406	4540	230
31.2	0.6309	2430	150
31.3	0.7099	3710	200
31.3	0.7928	6640	330
31.9	0.7611	5760	290
39.9	0.593	1880	130
40.2	0.6309	2740	160
40.2	0.8258	10450	520
40.3	0.7928	7920	390
40.6	0.6831	3440	190
40.7	0.3603	720	110
40.7	0.7406	5530	280
41.4	0.7611	6670	330
41.8	0.7254	4790	240
41.9	0.7099	4290	220
49.8	0.8258	12470	620
50.1	0.6831	3920	200
50.4	0.3603	790	110
50.4	0.7099	4830	240
50.6	0.593	2130	140
50.6	0.7406	6390	320
50.6	0.7928	9480	470
50.9	0.7254	5550	280
51	0.7611	7730	380
51.2	0.6309	3160	170
60	0.7099	5430	270
60.3	0.593	2350	150
60.4	0.3603	900	100
60.4	0.7406	7240	360
60.7	0.6831	4420	220
60.7	0.7254	6250	310
61	0.7611	8810	440
61	0.8258	14720	730
61.5	0.6309	3580	190
62	0.7928	11280	560
70	0.7254	7000	350
70.1	0.7406	8130	400
70.2	0.3603	1010	110
70.2	0.593	2610	160
70.2	0.7099	6160	310
70.9	0.7611	9950	490
70.9	0.8258	16600	820
71.4	0.6831	4890	240
71.5	0.6309	3990	210
71.9	0.7928	12500	600
80.3	0.7099	6880	340
80.5	0.593	2880	160
81.1	0.3603	1130	110
81.1	0.7254	7870	390
81.2	0.6831	5430	270
81.3	0.6309	4400	220
81.4	0.7928	13870	690
82	0.7611	11160	550
82.1	0.8258	18640	930
82.3	0.7406	9160	450
90	0.593	3130	170
90.2	0.7254	8630	430
90.3	0.3603	1240	110
90.3	0.8258	20360	1010
90.6	0.6831	5980	300
91	0.6309	4780	240
91	0.7611	12190	600
91.5	0.7406	10020	500
91.8	0.7928	15360	760
92	0.7099	7690	380
99.5	0.7099	8200	410
100	0.3603	1370	120
100.4	0.7611	13200	650
100.5	0.593	3390	180
100.5	0.7254	9420	470
100.5	0.8258	22200	1100
100.8	0.7928	16620	830
101.1	0.6309	5190	260
101.4	0.7406	10910	540
102.2	0.6831	6600	330
