Measured thermophysical data. Ternary Excess Molar Volumes of {Methyltrioctylammonium Bis[(trifluoromethyl)sulfonyl]imide + Methanol + Methyl Acetate or Ethyl Acetate} Systems at (298.15, 303.15, and 313.15) K
Source: J. Chem. Eng. Data, 2010, 10.1021/je900906j
Compound 1: methanol, CH4O, InChI=1S/CH4O/c1-2/h2H,1H3, purity 99%
Compound 2: methyl ethanoate, C3H6O2, InChI=1S/C3H6O2/c1-3(4)5-2/h1-2H3, purity 99%
Compound 3: ethyl acetate, C4H8O2, InChI=1S/C4H8O2/c1-3-6-4(2)5/h3H2,1-2H3, purity 99%
Compound 4: methyltrioctylammonium 1,1,1-trifluoro-N-[(trifluoromethyl)sulfonyl]methanesulfonamide, C27H54F6N2O4S2, InChI=1S/C25H54N.C2F6NO4S2/c1-5-8-11-14-17-20-23-26(4,24-21-18-15-12-9-6-2)25-22-19-16-13-10-7-3;3-1(4,5)14(10,11)9-15(12,13)2(6,7)8/h5-25H2,1-4H3;/q+1;-1, purity 98%

System: methanol; phases: Liquid
Fixed: Pressure, kPa = 101.325
Property: Mass density, kg/m3 (Liquid); method: Vibrating tube method
Temperature, K	Mass density, kg/m3	uncertainty
298.15	786	2
303.15	783.4	2
313.15	774.6	2

System: methyl ethanoate; phases: Liquid
Fixed: Pressure, kPa = 101.325
Property: Mass density, kg/m3 (Liquid); method: Vibrating tube method
Temperature, K	Mass density, kg/m3	uncertainty
298.15	927.1	2
303.15	920.5	2
313.15	907.9	2

System: ethyl acetate; phases: Liquid
Fixed: Pressure, kPa = 101.325
Property: Mass density, kg/m3 (Liquid); method: Vibrating tube method
Temperature, K	Mass density, kg/m3	uncertainty
298.15	894.7	4
303.15	888.5	4
313.15	875.1	4

System: methyl ethanoate + methyltrioctylammonium 1,1,1-trifluoro-N-[(trifluoromethyl)sulfonyl]methanesulfonamide; phases: Liquid
Fixed: Pressure, kPa = 101.3
Property: Mass density, kg/m3 (Liquid); method: Vibrating tube method
Temperature, K	Mole fraction of methyltrioctylammonium 1,1,1-trifluoro-N-[(trifluoromethyl)sulfonyl]methanesulfonamide	Mass density, kg/m3	uncertainty
298.15	0.1	1010.6	4
298.15	0.1999	1048.5	4
298.15	0.3995	1081.4	4
298.15	0.5	1089.8	4
298.15	0.6659	1098.9	4.1
298.15	0.7709	1102.9	4.1
303.15	0.1	1006.9	4
303.15	0.1999	1046	4
303.15	0.3995	1079.2	4
303.15	0.5	1087.5	4
303.15	0.6659	1096.5	4.1
303.15	0.7709	1100.2	4.1
313.15	0.1	998.3	4
313.15	0.1999	1037	4
313.15	0.3995	1072	4
313.15	0.5	1080.5	4
313.15	0.6659	1090.5	4.1
313.15	0.7709	1093.2	4.1

System: ethyl acetate + methyltrioctylammonium 1,1,1-trifluoro-N-[(trifluoromethyl)sulfonyl]methanesulfonamide; phases: Liquid
Fixed: Pressure, kPa = 101.3
Property: Mass density, kg/m3 (Liquid); method: Vibrating tube method
Temperature, K	Mole fraction of methyltrioctylammonium 1,1,1-trifluoro-N-[(trifluoromethyl)sulfonyl]methanesulfonamide	Mass density, kg/m3	uncertainty
298.15	0.3571	1062.7	4
298.15	0.5009	1081.5	4
298.15	0.6987	1096.5	4.1
298.15	0.9077	1104.5	4.1
303.15	0.3571	1058.2	4
303.15	0.5009	1076.9	4
303.15	0.6987	1092.1	4.1
303.15	0.9077	1100.6	4.1
313.15	0.3571	1050.4	4
313.15	0.5009	1069.3	4
313.15	0.6987	1084.8	4.1
313.15	0.9077	1093.3	4.1

System: methanol + methyl ethanoate + methyltrioctylammonium 1,1,1-trifluoro-N-[(trifluoromethyl)sulfonyl]methanesulfonamide; phases: Liquid
Fixed: Pressure, kPa = 101.3
Property: Mass density, kg/m3 (Liquid); method: Vibrating tube method
Temperature, K	Mole fraction of methyltrioctylammonium 1,1,1-trifluoro-N-[(trifluoromethyl)sulfonyl]methanesulfonamide	Mole fraction of methanol	Mass density, kg/m3	uncertainty
298.15	0.0397	0.603	940.1	4.1
298.15	0.0596	0.7022	962	4.1
298.15	0.0641	0.8718	954.5	4.1
298.15	0.0696	0.3023	986.6	4.1
298.15	0.0899	0.1012	1004.2	4
298.15	0.1	0	1010.6	4
298.15	0.1006	0.4969	1004.5	4
298.15	0.1195	0.7608	1007	4
298.15	0.1434	0.2835	1029.8	4
298.15	0.1564	0.609	1029.5	4.1
298.15	0.1637	0.1812	1038	4
298.15	0.1867	0.7573	1038.5	4.1
298.15	0.1999	0	1048.5	4
298.15	0.2382	0.4046	1056.6	4
298.15	0.2418	0.5164	1056.5	4
298.15	0.2615	0.6078	1060.5	4
298.15	0.2791	0.3018	1065	4
298.15	0.3329	0.1681	1073.5	4
298.15	0.3478	0.3045	1075.4	4
298.15	0.3606	0.5313	1076.8	4
298.15	0.3983	0.4026	1081.2	4
298.15	0.3995	0	1081.4	4
298.15	0.4567	0.0867	1086.5	4
298.15	0.5	0	1089.8	4
298.15	0.5182	0.3263	1091.4	4
298.15	0.5309	0.2037	1092.1	4
298.15	0.5997	0.1004	1096	4
298.15	0.6259	0.1863	1097.5	4.1
298.15	0.6659	0	1098.9	4.1
298.15	0.7709	0	1102.9	4.1
303.15	0.0397	0.603	937.4	4.1
303.15	0.0596	0.7022	961	4.1
303.15	0.0641	0.8718	953	4.1
303.15	0.0696	0.3023	985.5	4.1
303.15	0.0899	0.1012	1001.6	4
303.15	0.1	0	1006.9	4
303.15	0.1006	0.4969	1004	4
303.15	0.1195	0.7608	1006.5	4.1
303.15	0.1434	0.2835	1028	4
303.15	0.1564	0.609	1028.5	4.1
303.15	0.1637	0.1812	1036.3	4
303.15	0.1867	0.7573	1037	4
303.15	0.1999	0	1046	4
303.15	0.2382	0.4046	1055.6	4
303.15	0.2418	0.5164	1056	4
303.15	0.2615	0.6078	1059	4
303.15	0.2791	0.3018	1063.5	4
303.15	0.3329	0.1681	1072	4
303.15	0.3478	0.3045	1074	4
303.15	0.3606	0.5313	1075.2	4
303.15	0.3983	0.4026	1079.7	4
303.15	0.3995	0	1079.2	4
303.15	0.4567	0.0867	1084.5	4
303.15	0.5	0	1087.5	4
303.15	0.5182	0.3263	1089.8	4
303.15	0.5309	0.2037	1090.2	4
303.15	0.5997	0.1004	1093.8	4
303.15	0.6259	0.1863	1095.5	4.1
303.15	0.6659	0	1096.5	4.1
303.15	0.7709	0	1100.2	4.1
313.15	0.0397	0.603	926.7	4.1
313.15	0.0596	0.7022	952.6	4.1
313.15	0.0641	0.8718	943.3	4.1
313.15	0.0696	0.3023	975	4.1
313.15	0.0899	0.1012	991.6	4
313.15	0.1	0	998.3	4
313.15	0.1006	0.4969	996	4
313.15	0.1195	0.7608	997	4.1
313.15	0.1434	0.2835	1020.6	4
313.15	0.1564	0.609	1021	4.1
313.15	0.1637	0.1812	1027.8	4
313.15	0.1867	0.7573	1029.5	4.1
313.15	0.1999	0	1037	4
313.15	0.2382	0.4046	1048.5	4
313.15	0.2418	0.5164	1048.5	4
313.15	0.2615	0.6078	1052	4
313.15	0.2791	0.3018	1057	4
313.15	0.3329	0.1681	1065.2	4
313.15	0.3478	0.3045	1067.2	4
313.15	0.3606	0.5313	1068.6	4
313.15	0.3983	0.4026	1073	4
313.15	0.3995	0	1072	4
313.15	0.4567	0.0867	1077.8	4
313.15	0.5	0	1080.5	4
313.15	0.5182	0.3263	1083.4	4
313.15	0.5309	0.2037	1084	4
313.15	0.5997	0.1004	1087.6	4
313.15	0.6259	0.1863	1089.1	4.1
313.15	0.6659	0	1090.5	4.1
313.15	0.7709	0	1093.2	4.1

System: methanol + ethyl acetate + methyltrioctylammonium 1,1,1-trifluoro-N-[(trifluoromethyl)sulfonyl]methanesulfonamide; phases: Liquid
Fixed: Pressure, kPa = 101.3
Property: Mass density, kg/m3 (Liquid); method: Vibrating tube method
Temperature, K	Mole fraction of methyltrioctylammonium 1,1,1-trifluoro-N-[(trifluoromethyl)sulfonyl]methanesulfonamide	Mole fraction of methanol	Mass density, kg/m3	uncertainty
298.15	0.0421	0.6392	945	4.1
298.15	0.0484	0.9033	931.5	4.2
298.15	0.0775	0.336	984	4.1
298.15	0.0852	0.7613	982.5	4.1
298.15	0.0864	0.8764	976.4	4.2
298.15	0.089	0.9021	976.2	4.2
298.15	0.1032	0.1156	995	4
298.15	0.1053	0.5406	1001.8	4
298.15	0.1292	0.4363	1014.5	4
298.15	0.133	0.8099	1013.5	4
298.15	0.1371	0.6161	1018.5	4
298.15	0.1465	0.7071	1021.2	4
298.15	0.1534	0.3307	1023.2	4
298.15	0.1771	0.2272	1029.3	4
298.15	0.185	0.7964	1037.1	4.1
298.15	0.1918	0.463	1039.1	4
298.15	0.1982	0.6035	1041	4
298.15	0.1999	0.7139	1042.9	4
298.15	0.2028	0.1153	1033.9	4
298.15	0.2509	0.5004	1054.7	4
298.15	0.2564	0.282	1052.8	4
298.15	0.2604	0.7133	1058.5	4
298.15	0.2786	0.6019	1062.3	4
298.15	0.2937	0.4119	1062.1	4
298.15	0.3312	0.0727	1061.3	4
298.15	0.3364	0.6294	1072.7	4
298.15	0.3453	0.3073	1068.9	4
298.15	0.346	0.5047	1073.4	4
298.15	0.3571	0	1062.7	4
298.15	0.3995	0.2022	1074.2	4
298.15	0.4165	0.4048	1080.8	4
298.15	0.42	0.5381	1082.3	4
298.15	0.4467	0.1065	1077.9	4
298.15	0.4837	0.3085	1085.7	4
298.15	0.5009	0	1081.5	4
298.15	0.5123	0.4369	1089.5	4
298.15	0.5613	0.1987	1090.8	4
298.15	0.6265	0.3103	1095.5	4.1
298.15	0.6273	0.1024	1093.8	4.1
298.15	0.6987	0	1096.5	4.1
298.15	0.7075	0.2218	1098.6	4.1
298.15	0.9077	0	1104.5	4.1
303.15	0.0421	0.6392	942	4.1
303.15	0.0484	0.9033	926.9	4.2
303.15	0.0775	0.336	982	4.1
303.15	0.0852	0.7613	979.9	4.1
303.15	0.0864	0.8764	973.1	4.2
303.15	0.089	0.9021	972.4	4.2
303.15	0.1032	0.1156	991.5	4
303.15	0.1053	0.5406	997.8	4
303.15	0.1292	0.4363	1011.5	4
303.15	0.133	0.8099	1009.5	4
303.15	0.1371	0.6161	1014.4	4
303.15	0.1465	0.7071	1016.9	4
303.15	0.1534	0.3307	1019.8	4
303.15	0.1771	0.2272	1025.5	4
303.15	0.185	0.7964	1029.1	4
303.15	0.1918	0.463	1035.4	4
303.15	0.1982	0.6035	1036.6	4
303.15	0.1999	0.7139	1038.8	4
303.15	0.2028	0.1153	1030.4	4
303.15	0.2509	0.5004	1049.8	4
303.15	0.2564	0.282	1049.2	4
303.15	0.2604	0.7133	1053.5	4
303.15	0.2786	0.6019	1058	4
303.15	0.2937	0.4119	1057.6	4
303.15	0.3312	0.0727	1057.5	4
303.15	0.3364	0.6294	1067.9	4
303.15	0.3453	0.3073	1064.4	4
303.15	0.346	0.5047	1069.1	4
303.15	0.3571	0	1058.2	4
303.15	0.3995	0.2022	1069.8	4
303.15	0.4165	0.4048	1076.5	4
303.15	0.42	0.5381	1078.1	4
303.15	0.4467	0.1065	1073.4	4
303.15	0.4837	0.3085	1081.9	4
303.15	0.5009	0	1076.9	4
303.15	0.5123	0.4369	1085.9	4
303.15	0.5613	0.1987	1086.5	4
303.15	0.6265	0.3103	1091.5	4.1
303.15	0.6273	0.1024	1089.5	4.1
303.15	0.6987	0	1092.1	4.1
303.15	0.7075	0.2218	1094.3	4.1
303.15	0.9077	0	1100.6	4.1
313.15	0.0421	0.6392	933	4.1
313.15	0.0484	0.9033	918.1	4.2
313.15	0.0775	0.336	973	4.1
313.15	0.0852	0.7613	971	4.1
313.15	0.0864	0.8764	962	4.2
313.15	0.089	0.9021	963.1	4.2
313.15	0.1032	0.1156	982	4
313.15	0.1053	0.5406	990.4	4
313.15	0.1292	0.4363	1002.6	4
313.15	0.133	0.8099	997.7	4
313.15	0.1371	0.6161	1005.5	4
313.15	0.1465	0.7071	1004.6	4
313.15	0.1534	0.3307	1010.9	4
313.15	0.1771	0.2272	1017.2	4
313.15	0.185	0.7964	1021.3	4
313.15	0.1918	0.463	1027.1	4
313.15	0.1982	0.6035	1024.9	4
313.15	0.1999	0.7139	1027.2	4
313.15	0.2028	0.1153	1021.5	4
313.15	0.2509	0.5004	1038.6	4
313.15	0.2564	0.282	1041	4
313.15	0.2604	0.7133	1043.8	4
313.15	0.2786	0.6019	1047.2	4
313.15	0.2937	0.4119	1047	4
313.15	0.3312	0.0727	1049	4
313.15	0.3364	0.6294	1057.9	4
313.15	0.3453	0.3073	1054.3	4
313.15	0.346	0.5047	1058	4
313.15	0.3571	0	1050.4	4
313.15	0.3995	0.2022	1060.6	4
313.15	0.4165	0.4048	1066.5	4
313.15	0.42	0.5381	1068.3	4
313.15	0.4467	0.1065	1065	4
313.15	0.4837	0.3085	1072.3	4
313.15	0.5009	0	1069.3	4
313.15	0.5123	0.4369	1076.2	4
313.15	0.5613	0.1987	1077.8	4
313.15	0.6265	0.3103	1083	4
313.15	0.6273	0.1024	1081.5	4.1
313.15	0.6987	0	1084.8	4.1
313.15	0.7075	0.2218	1086.5	4.1
313.15	0.9077	0	1093.3	4.1
