Measured thermophysical data. Low-Temperature Heat Capacities and Standard Molar Enthalpy of Formation of Potassium Hydrogen Phthalate C8H5KO4(s)
Source: J. Chem. Eng. Data, 2010, 10.1021/je900759f
Compound 1: potassium, K, InChI=1S/K
Compound 2: graphite, C
Compound 3: hydrogen, H2, InChI=1S/H2/h1H
Compound 4: oxygen, O2, InChI=1S/O2/c1-2
Compound 5: potassium 2-carboxybenzoate, C8H5KO4, InChI=1S/C8H6O4.K/c9-7(10)5-3-1-2-4-6(5)8(11)12;/h1-4H,(H,9,10)(H,11,12);/q;+1/p-1

System: potassium 2-carboxybenzoate; phases: Crystal
Fixed: Pressure, kPa = 101.325
Property: Molar heat capacity at constant pressure, J/K/mol (Crystal); method: Vacuum adiabatic calorimetry
Temperature, K	Molar heat capacity at constant pressure, J/K/mol	uncertainty
78.737	81.224	0.508
81.079	82.757	0.518
83.421	84.997	0.531
85.617	86.294	0.539
88.105	88.063	0.55
90.008	90.067	0.578
92.058	91.246	0.585
94.253	92.661	0.593
96.303	94.194	0.602
98.206	95.727	0.611
100.26	97.26	0.62
102.01	98.557	0.628
104.21	100.09	0.64
105.82	101.39	0.64
107.72	102.68	0.65
109.48	103.75	0.66
111.23	104.92	0.67
112.99	106.1	0.67
114.45	107.52	0.68
116.5	108.7	0.69
118.55	109.99	0.7
120.9	111.65	0.71
122.65	112.71	0.71
126.02	114.95	0.72
128.9	117.28	0.74
131.81	119.26	0.75
134.65	120.84	0.76
137.63	123.15	0.77
140.07	124.62	0.78
143.44	126.5	0.79
146.3	128.75	0.81
149.29	130.28	0.82
152.07	132.04	0.83
155.1	134.02	0.84
158.03	135.88	0.85
161.04	137.98	0.86
163.86	139.4	0.87
166.86	141.12	0.88
169.72	142.95	0.89
172.65	144.78	0.9
175.6	146.73	0.91
178.52	148.14	0.92
181.46	150.06	0.93
185.51	152.18	0.95
189.58	154.71	0.96
192.49	156.69	0.97
195.39	157.97	0.98
198.33	160.11	0.99
201.39	161.41	1
204.34	163.34	1.01
207.27	164.59	1.02
210.19	166.59	1.03
213.12	168.36	1.04
216.13	169.91	1.05
219.11	171.34	1.06
222.05	173.08	1.07
224.97	174.49	1.08
228.05	176.26	1.09
230.83	177.91	1.1
233.76	178.97	1.11
236.83	180.98	1.12
239.77	182.23	1.13
243.54	184.12	1.14
247.46	186.25	1.15
250.44	188.14	1.16
253.42	189.68	1.17
256.45	190.76	1.18
259.37	192.3	1.19
262.36	193.82	1.2
265.34	195.71	1.21
268.16	196.89	1.21
271.14	198.67	1.22
274.12	200.21	1.23
277.08	201.26	1.24
280.08	203.28	1.25
283.06	204.58	1.26
286.04	205.65	1.27
289.09	207.51	1.28
292.02	208.57	1.28
294.94	210.1	1.29
298.02	211.04	1.3
300.8	213.17	1.31
303.87	214.11	1.32
306.8	215.52	1.33
309.73	216.94	1.33
312.51	218.12	1.34
315.58	219.65	1.35
318.36	221.3	1.36
321.29	222.01	1.37
324.37	223.43	1.37
327.29	224.96	1.38
330.37	226.61	1.39
333.44	228.14	1.4
336.37	229.67	1.41
339.3	230.85	1.42
342.37	232.15	1.43
345.3	233.33	1.43
348.37	234.39	1.44
351.3	236.4	1.45
354.23	237.46	1.46
357.16	239.23	1.47
360.08	240.52	1.48
363.01	241.35	1.48
365.94	243	1.49
368.87	243.71	1.5
371.83	244.81	1.5
374.87	246.77	1.51
377.94	248.3	1.52
380.93	249.42	1.53
383.91	250.96	1.54
386.89	252.02	1.55
390.03	253.44	1.55
393.01	254.98	1.56
395.98	255.93	1.57

Reaction: 1 potassium 2-carboxybenzoate + -1 potassium + -8 graphite + -2.5 hydrogen + -2 oxygen
Property: Molar enthalpy of reaction, kJ/mol
-1028.05
