Measured thermophysical data. Solid-Liquid Equilibria, Excess Molar Volumes, and Molar Refractivity Deviations for Extractive Solvents of Molybdenum
Source: J. Chem. Eng. Data, 2010, 10.1021/je900586f
Compound 1: trioctylamine, C24H51N, InChI=1S/C24H51N/c1-4-7-10-13-16-19-22-25(23-20-17-14-11-8-5-2)24-21-18-15-12-9-6-3/h4-24H2,1-3H3, purity 99.9%
Compound 2: octan-1-ol, C8H18O, InChI=1S/C8H18O/c1-2-3-4-5-6-7-8-9/h9H,2-8H2,1H3, purity 99.9%
Compound 3: decan-1-ol, C10H22O, InChI=1S/C10H22O/c1-2-3-4-5-6-7-8-9-10-11/h11H,2-10H2,1H3, purity 99.9%
Compound 4: tributyl phosphate, C12H27O4P, InChI=1S/C12H27O4P/c1-4-7-10-14-17(13,15-11-8-5-2)16-12-9-6-3/h4-12H2,1-3H3

System: trioctylamine; phases: Crystal, Liquid, Air at 1 atmosphere
Property: Normal melting temperature, K (Crystal); method: VISOBS::UFactor:2
Normal melting temperature, K	uncertainty
238.73	0.31

System: trioctylamine; phases: Liquid
Property: Refractive index (Na D-line) (Liquid); method: Standard Abbe refractometry
Temperature, K	Pressure, kPa	Refractive index (Na D-line)	uncertainty
298.15	101.325	1.44758	0.00105

System: trioctylamine; phases: Liquid
Property: Mass density, kg/m3 (Liquid); method: Vibrating tube method
Temperature, K	Pressure, kPa	Mass density, kg/m3	uncertainty
298.15	101.325	807.46	3.61

System: octan-1-ol; phases: Crystal, Liquid, Air at 1 atmosphere
Property: Normal melting temperature, K (Crystal); method: VISOBS::UFactor:2
Normal melting temperature, K	uncertainty
257.85	0.31

System: octan-1-ol; phases: Liquid
Property: Refractive index (Na D-line) (Liquid); method: Standard Abbe refractometry
Temperature, K	Pressure, kPa	Refractive index (Na D-line)	uncertainty
298.15	101.325	1.42754	0.00105

System: octan-1-ol; phases: Liquid
Property: Mass density, kg/m3 (Liquid); method: Vibrating tube method
Temperature, K	Pressure, kPa	Mass density, kg/m3	uncertainty
298.15	101.325	821.76	3.72

System: decan-1-ol; phases: Crystal, Liquid, Air at 1 atmosphere
Property: Normal melting temperature, K (Crystal); method: VISOBS::UFactor:2
Normal melting temperature, K	uncertainty
280.19	0.31

System: decan-1-ol; phases: Liquid
Property: Refractive index (Na D-line) (Liquid); method: Standard Abbe refractometry
Temperature, K	Pressure, kPa	Refractive index (Na D-line)	uncertainty
298.15	101.325	1.43541	0.00105

System: decan-1-ol; phases: Liquid
Property: Mass density, kg/m3 (Liquid); method: Vibrating tube method
Temperature, K	Pressure, kPa	Mass density, kg/m3	uncertainty
298.15	101.325	826.59	3.77

System: tributyl phosphate; phases: Crystal, Liquid, Air at 1 atmosphere
Property: Normal melting temperature, K (Crystal); method: VISOBS
Normal melting temperature, K	uncertainty
194.31	0.5

System: tributyl phosphate; phases: Liquid
Property: Refractive index (Na D-line) (Liquid); method: Standard Abbe refractometry
Temperature, K	Pressure, kPa	Refractive index (Na D-line)	uncertainty
298.15	101.325	1.42252	0.00105

System: tributyl phosphate; phases: Liquid
Property: Mass density, kg/m3 (Liquid); method: Vibrating tube method
Temperature, K	Pressure, kPa	Mass density, kg/m3	uncertainty
298.15	101.325	972.69	5.12

System: octan-1-ol + trioctylamine; phases: Liquid
Fixed: Pressure, kPa = 101
Fixed: Temperature, K = 298.15
Property: Refractive index (Na D-line) (Liquid); method: Standard Abbe refractometry
Mole fraction of trioctylamine	Refractive index (Na D-line)	uncertainty
0.0497	1.4311	0.0008
0.1	1.433	0.0008
0.2	1.4359	0.0008
0.3004	1.4389	0.0008
0.4001	1.4415	0.0008
0.4997	1.4432	0.0008
0.6012	1.4445	0.0008
0.701	1.4453	0.0008
0.8002	1.4461	0.0008
0.8962	1.447	0.0008
0.9496	1.4474	0.0008

System: octan-1-ol + trioctylamine; phases: Liquid, Crystal
Fixed: Pressure, kPa = 101
Property: Solid-liquid equilibrium temperature, K (Liquid); method: VISOBS:UFactor:2
Mole fraction of trioctylamine	Solid-liquid equilibrium temperature, K	uncertainty
0	257.85	0.31
0.05	256.72	0.31
0.1	255.46	0.31
0.2	252.7	0.31
0.2998	249.85	0.31
0.4	246.48	0.31
0.5001	242.15	0.31
0.6	237.96	0.31

System: octan-1-ol + trioctylamine; phases: Liquid, Crystal
Fixed: Pressure, kPa = 101
Property: Solid-liquid equilibrium temperature, K (Liquid); method: VISOBS:UFactor:2
Mole fraction of trioctylamine	Solid-liquid equilibrium temperature, K	uncertainty
0.6999	232.33	0.31
0.7501	233.45	0.31
0.8001	234.68	0.31
0.9	236.46	0.31
0.9498	237.82	0.31
1	238.73	0.31

System: octan-1-ol + trioctylamine; phases: Liquid
Fixed: Pressure, kPa = 101
Fixed: Temperature, K = 298.15
Property: Mass density, kg/m3 (Liquid); method: Vibrating tube method
Mole fraction of trioctylamine	Mass density, kg/m3	uncertainty
0.0497	820.8	0.6
0.1	819.7	0.6
0.2	817.8	0.6
0.3004	816	0.6
0.4001	814.5	0.6
0.4997	813.1	0.6
0.6012	811.9	0.6
0.701	810.7	0.6
0.8002	809.7	0.6
0.8962	808.7	0.6
0.9496	808.1	0.6

System: decan-1-ol + trioctylamine; phases: Liquid
Fixed: Pressure, kPa = 101
Fixed: Temperature, K = 298.15
Property: Refractive index (Na D-line) (Liquid); method: Standard Abbe refractometry
Mole fraction of trioctylamine	Refractive index (Na D-line)	uncertainty
0.0504	1.437	0.0008
0.0998	1.4384	0.0008
0.2002	1.4406	0.0008
0.3	1.4424	0.0008
0.4002	1.4437	0.0008
0.501	1.4448	0.0008
0.6008	1.4457	0.0008
0.7007	1.4464	0.0008
0.8014	1.4469	0.0008
0.9022	1.4473	0.0008
0.9522	1.4475	0.0008

System: decan-1-ol + trioctylamine; phases: Liquid, Crystal
Fixed: Pressure, kPa = 101
Property: Solid-liquid equilibrium temperature, K (Liquid); method: VISOBS:UFactor:2
Mole fraction of trioctylamine	Solid-liquid equilibrium temperature, K	uncertainty
0	280.19	0.31
0.0504	279.27	0.31
0.1001	278.33	0.31
0.2002	276.69	0.31
0.3004	274.56	0.31
0.3999	272.14	0.31
0.4998	269.23	0.31
0.5997	265.71	0.31
0.6999	261.48	0.31
0.7999	256	0.31
0.8995	246.82	0.31
0.9298	242.76	0.31
0.95	238.15	0.31

System: decan-1-ol + trioctylamine; phases: Liquid, Crystal
Fixed: Pressure, kPa = 101
Property: Solid-liquid equilibrium temperature, K (Liquid); method: VISOBS:UFactor:2
Mole fraction of trioctylamine	Solid-liquid equilibrium temperature, K	uncertainty
0.9795	238.31	0.31
1	238.73	0.31

System: decan-1-ol + trioctylamine; phases: Liquid
Fixed: Pressure, kPa = 101
Fixed: Temperature, K = 298.15
Property: Mass density, kg/m3 (Liquid); method: Vibrating tube method
Mole fraction of trioctylamine	Mass density, kg/m3	uncertainty
0.0504	825.4	0.7
0.0998	824	0.7
0.2002	821.6	0.6
0.3	819.3	0.6
0.4002	817.3	0.6
0.501	815.4	0.6
0.6008	813.8	0.6
0.7007	812.3	0.6
0.8014	810.7	0.6
0.9022	809.2	0.6
0.9522	808.6	0.6

System: tributyl phosphate + trioctylamine; phases: Liquid
Fixed: Pressure, kPa = 101
Fixed: Temperature, K = 298.15
Property: Refractive index (Na D-line) (Liquid); method: Standard Abbe refractometry
Mole fraction of trioctylamine	Refractive index (Na D-line)	uncertainty
0.0499	1.4243	0.0005
0.0995	1.4259	0.0005
0.1998	1.4286	0.0005
0.3002	1.4315	0.0005
0.3997	1.4341	0.0005
0.5004	1.4366	0.0005
0.6001	1.4391	0.0005
0.7006	1.4413	0.0005
0.8008	1.4434	0.0005
0.9009	1.4454	0.0005
0.9514	1.4465	0.0005

System: tributyl phosphate + trioctylamine; phases: Liquid, Crystal
Fixed: Pressure, kPa = 101
Property: Solid-liquid equilibrium temperature, K (Liquid); method: VISOBS:UFactor:4
Mole fraction of trioctylamine	Solid-liquid equilibrium temperature, K	uncertainty
0.0111	193.85	0.63
0.03	206.3	0.63
0.05	210.84	0.62
0.1001	218.65	0.62
0.2	225.77	0.62
0.3	228.62	0.62
0.4	230.83	0.62
0.4963	232.31	0.62
0.601	233.68	0.62
0.7	234.26	0.62
0.7994	235.39	0.62
0.9008	236.5	0.62
1	238.73	0.62

System: tributyl phosphate + trioctylamine; phases: Liquid
Fixed: Pressure, kPa = 101
Fixed: Temperature, K = 298.15
Property: Mass density, kg/m3 (Liquid); method: Vibrating tube method
Mole fraction of trioctylamine	Mass density, kg/m3	uncertainty
0.0499	959.1	0.8
0.0995	946.5	0.8
0.1998	923.5	0.8
0.3002	903	0.7
0.3997	885	0.7
0.5004	868.6	0.7
0.6001	853.9	0.7
0.7006	840.6	0.7
0.8008	828.5	0.7
0.9009	817.5	0.6
0.9514	812.3	0.6

System: octan-1-ol + tributyl phosphate; phases: Liquid
Fixed: Pressure, kPa = 101
Fixed: Temperature, K = 298.15
Property: Refractive index (Na D-line) (Liquid); method: Standard Abbe refractometry
Mole fraction of tributyl phosphate	Refractive index (Na D-line)	uncertainty
0.0496	1.427	0.0008
0.0998	1.4259	0.0008
0.1996	1.4243	0.0008
0.2995	1.4225	0.0008
0.4001	1.4216	0.0008
0.5002	1.4213	0.0008
0.5988	1.4213	0.0008
0.7011	1.4216	0.0008
0.8011	1.4219	0.0008
0.9008	1.4221	0.0008
0.9513	1.4224	0.0008

System: octan-1-ol + tributyl phosphate; phases: Liquid
Fixed: Pressure, kPa = 101
Fixed: Temperature, K = 298.15
Property: Mass density, kg/m3 (Liquid); method: Vibrating tube method
Mole fraction of tributyl phosphate	Mass density, kg/m3	uncertainty
0.0496	833.7	0.7
0.0998	844.7	0.7
0.1996	865	0.7
0.2995	883.2	0.7
0.4001	899.7	0.7
0.5002	914.6	0.7
0.5988	928.1	0.8
0.7011	940.9	0.8
0.8011	952.5	0.8
0.9008	963	0.8
0.9513	968	0.8

System: decan-1-ol + tributyl phosphate; phases: Liquid
Fixed: Pressure, kPa = 101
Fixed: Temperature, K = 298.15
Property: Refractive index (Na D-line) (Liquid); method: Standard Abbe refractometry
Mole fraction of tributyl phosphate	Refractive index (Na D-line)	uncertainty
0.0496	1.4341	0.0008
0.0999	1.4329	0.0008
0.2008	1.4307	0.0008
0.3001	1.429	0.0008
0.4004	1.4275	0.0008
0.4996	1.4262	0.0008
0.6007	1.4252	0.0008
0.6981	1.4244	0.0008
0.7985	1.4236	0.0008
0.9003	1.423	0.0008
0.9505	1.4227	0.0008

System: decan-1-ol + tributyl phosphate; phases: Liquid
Fixed: Pressure, kPa = 101
Fixed: Temperature, K = 298.15
Property: Mass density, kg/m3 (Liquid); method: Vibrating tube method
Mole fraction of tributyl phosphate	Mass density, kg/m3	uncertainty
0.0496	835.9	0.7
0.0999	845.2	0.7
0.2008	862.8	0.7
0.3001	879.1	0.7
0.4004	894.7	0.7
0.4996	909.3	0.7
0.6007	923.4	0.8
0.6981	936.3	0.8
0.7985	949	0.8
0.9003	961.2	0.8
0.9505	967	0.8

System: octan-1-ol + decan-1-ol; phases: Liquid
Fixed: Pressure, kPa = 101
Fixed: Temperature, K = 298.15
Property: Refractive index (Na D-line) (Liquid); method: Standard Abbe refractometry
Mole fraction of octan-1-ol	Refractive index (Na D-line)	uncertainty
0.05	1.435	0.0008
0.0996	1.4346	0.0008
0.1996	1.434	0.0008
0.2997	1.4333	0.0008
0.4005	1.4325	0.0008
0.5006	1.4318	0.0008
0.6005	1.431	0.0008
0.7006	1.4301	0.0008
0.8002	1.4293	0.0008
0.9	1.4284	0.0008
0.9507	1.4279	0.0008

System: octan-1-ol + decan-1-ol; phases: Liquid
Fixed: Pressure, kPa = 101
Fixed: Temperature, K = 298.15
Property: Mass density, kg/m3 (Liquid); method: Vibrating tube method
Mole fraction of decan-1-ol	Mass density, kg/m3	uncertainty
0.05	826.4	0.7
0.0996	826.2	0.7
0.1996	825.8	0.7
0.2997	825.4	0.7
0.4005	825	0.7
0.5006	824.5	0.7
0.6005	824.1	0.7
0.7006	823.6	0.6
0.8002	823.1	0.6
0.9	822.7	0.6
0.9507	822.4	0.6
