Measured thermophysical data. Solubility of Gallic Acid, Catechin, and Protocatechuic Acid in Subcritical Water from (298.75 to 415.85) K
Source: J. Chem. Eng. Data, 2010, 10.1021/je901097n
Compound 1: (+)-catechin, C15H14O6, InChI=1S/C15H14O6/c16-8-4-11(18)9-6-13(20)15(21-14(9)5-8)7-1-2-10(17)12(19)3-7/h1-5,13,15-20H,6H2/t13-,15+/m0/s1, purity 97%
Compound 2: 3,4-dihydroxybenzoic acid, C7H6O4, InChI=1S/C7H6O4/c8-5-2-1-4(7(10)11)3-6(5)9/h1-3,8-9H,(H,10,11), purity 98%
Compound 3: 3,4,5-trihydroxybenzoic acid, C7H6O5, InChI=1S/C7H6O5/c8-4-1-3(7(11)12)2-5(9)6(4)10/h1-2,8-10H,(H,11,12), purity 97%
Compound 4: water, H2O, InChI=1S/H2O/h1H2

System: 3,4,5-trihydroxybenzoic acid + water; phases: Liquid, Crystal, Gas
Property: Mass concentration, kg/m3 (Liquid); method: Chromatography
Temperature, K	Mass concentration, kg/m3	uncertainty
298.75	13	1.3
314.65	25	0.7
334.95	83.7	4.3
355.25	211	30
375.35	532	30
395.65	1000	15
415.85	2870	221

System: 3,4-dihydroxybenzoic acid + water; phases: Liquid, Crystal, Gas
Property: Mass concentration, kg/m3 (Liquid); method: Chromatography
Temperature, K	Mass concentration, kg/m3	uncertainty
298.75	29.4	2
314.65	44.3	0.6
334.95	95.3	3.3
355.25	175	19
375.35	305	20
395.65	773	70
415.85	1180	168

System: (+)-catechin + water; phases: Liquid, Crystal, Gas
Property: Mass concentration, kg/m3 (Liquid); method: Chromatography
Temperature, K	Mass concentration, kg/m3	uncertainty
298.75	2.26	1
314.65	5.03	1.16
334.95	44.4	5.4
355.25	128	7
375.35	263	46
395.65	423	46
415.85	576	19
