Measured thermophysical data. Density, Refractive Index, Speed of Sound at 298.15 K, and Vapor-Liquid Equilibrium at 101.3 kPa for Binary Mixtures of Methanol + Ethyl Lactate and 1-Propanol + Ethyl Lactate
Source: J. Chem. Eng. Data, 2010, 10.1021/je900481e
Compound 1: DL-ethyl lactate, C5H10O3, InChI=1S/C5H10O3/c1-3-8-5(7)4(2)6/h4,6H,3H2,1-2H3
Compound 2: methanol, CH4O, InChI=1S/CH4O/c1-2/h2H,1H3
Compound 3: propan-1-ol, C3H8O, InChI=1S/C3H8O/c1-2-3-4/h4H,2-3H2,1H3

System: DL-ethyl lactate; phases: Liquid
Property: Refractive index (Na D-line) (Liquid); method: ABBE:UFactor:4
Temperature, K	Pressure, kPa	Refractive index (Na D-line)	uncertainty
298.15	101.325	1.4105	0.00138

System: DL-ethyl lactate; phases: Liquid
Property: Mass density, kg/m3 (Liquid); method: VIBTUB:UFactor:4
Temperature, K	Pressure, kPa	Mass density, kg/m3	uncertainty
298.15	101.325	1028.6	0.2

System: DL-ethyl lactate; phases: Liquid, Gas
Fixed: Temperature, K = 427.6
Property: Vapor or sublimation pressure, kPa (Liquid); method: EBULLIO:UFactor:4
Vapor or sublimation pressure, kPa	uncertainty
101.33	1.72261
101.3	1.7221

System: DL-ethyl lactate; phases: Liquid
Property: Speed of sound, m/s (Liquid); method: PULSEH:UFactor:2
Temperature, K	Pressure, kPa	Speed of sound, m/s	uncertainty
298.15	101.325	1277	2

System: methanol; phases: Liquid
Property: Refractive index (Na D-line) (Liquid); method: ABBE:UFactor:4
Temperature, K	Pressure, kPa	Refractive index (Na D-line)	uncertainty
298.15	101.325	1.32648	0.00138

System: methanol; phases: Liquid
Property: Mass density, kg/m3 (Liquid); method: VIBTUB:UFactor:2
Temperature, K	Pressure, kPa	Mass density, kg/m3	uncertainty
298.15	101.325	786.76	0.24

System: methanol; phases: Liquid, Gas
Property: Vapor or sublimation pressure, kPa (Liquid); method: EBULLIO:UFactor:4
Temperature, K	Vapor or sublimation pressure, kPa	uncertainty
337.8	101.33	1.72261

System: methanol; phases: Liquid
Property: Speed of sound, m/s (Liquid); method: PULSEH:UFactor:2
Temperature, K	Pressure, kPa	Speed of sound, m/s	uncertainty
298.15	101.325	1101	1

System: propan-1-ol; phases: Liquid
Property: Refractive index (Na D-line) (Liquid); method: ABBE:UFactor:4
Temperature, K	Pressure, kPa	Refractive index (Na D-line)	uncertainty
298.15	101.325	1.3831	0.0014

System: propan-1-ol; phases: Liquid
Property: Mass density, kg/m3 (Liquid); method: VIBTUB:UFactor:4
Temperature, K	Pressure, kPa	Mass density, kg/m3	uncertainty
298.15	101.325	800.26	0.46

System: propan-1-ol; phases: Liquid, Gas
Property: Vapor or sublimation pressure, kPa (Liquid); method: EBULLIO::UFactor:4
Temperature, K	Vapor or sublimation pressure, kPa	uncertainty
370.4	101.3	1.7221

System: propan-1-ol; phases: Liquid
Property: Speed of sound, m/s (Liquid); method: PULSEH:UFactor:2
Temperature, K	Pressure, kPa	Speed of sound, m/s	uncertainty
298.15	101.325	1206	2

System: methanol + DL-ethyl lactate; phases: Liquid
Fixed: Temperature, K = 298.15
Fixed: Pressure, kPa = 101.3
Property: Refractive index (Na D-line) (Liquid); method: ABBE:UFactor:4
Mole fraction of methanol	Refractive index (Na D-line)	uncertainty
0.053	1.4094	0.00124
0.105	1.40821	0.00124
0.149	1.40729	0.00124
0.203	1.40539	0.00124
0.249	1.40364	0.00124
0.296	1.40214	0.00124
0.353	1.39965	0.00124
0.4	1.39771	0.00124
0.452	1.39589	0.00124
0.502	1.39367	0.00124
0.549	1.38953	0.00124
0.598	1.38628	0.00124
0.649	1.38192	0.00124
0.7	1.3777	0.00124
0.747	1.37193	0.00124
0.801	1.36488	0.00124
0.85	1.35905	0.00124
0.899	1.34922	0.00124
0.95	1.339	0.00124

System: methanol + DL-ethyl lactate; phases: Liquid
Fixed: Temperature, K = 298.15
Fixed: Pressure, kPa = 101.3
Property: Speed of sound, m/s (Liquid); method: PULSEH:UFactor:2
Mole fraction of methanol	Speed of sound, m/s	uncertainty
0.053	1276	2
0.105	1275	2
0.149	1273	2
0.203	1271	2
0.249	1268	2
0.296	1266	2
0.353	1262	2
0.4	1258	2
0.452	1253	2
0.502	1247	1
0.549	1241	1
0.598	1233	1
0.649	1223	1
0.7	1213	1
0.747	1200	1
0.801	1185	1
0.85	1169	1
0.899	1150	1
0.95	1126	1

System: methanol + DL-ethyl lactate; phases: Liquid
Fixed: Temperature, K = 298.15
Fixed: Pressure, kPa = 101.3
Property: Mass density, kg/m3 (Liquid); method: VIBTUB:UFactor:4
Mole fraction of methanol	Mass density, kg/m3	uncertainty
0.053	1025	1
0.105	1020	1
0.149	1017	1
0.203	1012	1
0.249	1007	1
0.296	1002	1
0.353	995	1
0.4	989	1
0.452	981	1
0.502	973	1
0.549	964	1
0.598	953	1
0.649	941	1
0.7	927	1
0.747	913	1
0.801	893	1
0.85	874	1
0.899	850	1
0.95	820	1

System: methanol + DL-ethyl lactate; phases: Liquid, Gas
Fixed: Pressure, kPa = 101.33
Property: Boiling temperature at pressure P, K (Liquid); method: EBULLIO:UFactor:4
Mole fraction of methanol	Boiling temperature at pressure P, K	uncertainty
0	427.6	0.34
0.015	420.65	0.89
0.045	408.95	0.82
0.057	405.06	0.66
0.086	397.35	0.61
0.103	393.6	0.57
0.112	391.42	0.56
0.122	389.35	0.5
0.143	385.72	0.46
0.181	380.23	0.44
0.203	377.15	0.42
0.231	374.07	0.4
0.248	372.51	0.39
0.36	362.65	0.38
0.419	359.24	0.36
0.478	355.81	0.36
0.513	354.25	0.35
0.599	350.65	0.35
0.822	342.55	0.35
0.921	339.75	0.35
0.96	338.7	0.34
1	337.8	0.34

System: methanol + DL-ethyl lactate; phases: Gas, Liquid
Fixed: Pressure, kPa = 101.33
Property: Mole fraction of methanol (Gas); method: Density calibration data
Mole fraction of methanol	Mole fraction of methanol	uncertainty
0	0	
0.015	0.194	0.0219
0.045	0.448	0.0186
0.057	0.516	0.0136
0.086	0.639	0.0124
0.103	0.682	0.0114
0.112	0.711	0.0109
0.122	0.723	0.0106
0.143	0.765	0.0104
0.181	0.809	0.0103
0.203	0.843	0.0102
0.231	0.859	0.0101
0.248	0.874	0.0102
0.36	0.926	0.01
0.419	0.941	0.01
0.478	0.951	0.01
0.513	0.959	0.01
0.599	0.969	0.01
0.822	0.99	0.01
0.921	0.996	0.004
0.96	0.998	0.002
1	1	

System: propan-1-ol + DL-ethyl lactate; phases: Liquid
Fixed: Temperature, K = 298.15
Fixed: Pressure, kPa = 101.3
Property: Refractive index (Na D-line) (Liquid); method: ABBE:UFactor:4
Mole fraction of propan-1-ol	Refractive index (Na D-line)	uncertainty
0.058	1.40872	0.00124
0.1	1.40699	0.00124
0.15	1.40595	0.00124
0.2	1.40379	0.00124
0.25	1.4023	0.00124
0.3	1.39968	0.00124
0.35	1.39787	0.00124
0.4	1.39628	0.00124
0.45	1.39379	0.00124
0.5	1.39125	0.00124
0.55	1.3879	0.00124
0.6	1.38498	0.00124
0.65	1.38197	0.00124
0.7	1.37916	0.00124
0.75	1.37601	0.00124
0.8	1.37278	0.00124
0.85	1.3696	0.00124
0.9	1.36642	0.00124
0.95	1.36248	0.00124

System: propan-1-ol + DL-ethyl lactate; phases: Liquid
Fixed: Temperature, K = 298.15
Fixed: Pressure, kPa = 101.3
Property: Speed of sound, m/s (Liquid); method: PULSEH:UFactor:2
Mole fraction of propan-1-ol	Speed of sound, m/s	uncertainty
0.058	1272	2
0.1	1266	2
0.15	1261	2
0.2	1255	2
0.25	1250	2
0.3	1244	2
0.35	1238	2
0.4	1232	2
0.45	1226	2
0.5	1220	2
0.55	1213	2
0.6	1207	2
0.65	1200	2
0.7	1193	2
0.75	1186	2
0.8	1180	2
0.85	1172	2
0.9	1164	2
0.95	1157	1

System: propan-1-ol + DL-ethyl lactate; phases: Liquid, Gas
Fixed: Pressure, kPa = 101.3
Property: Boiling temperature at pressure P, K (Liquid); method: EBULLIO:UFactor:4
Mole fraction of propan-1-ol	Boiling temperature at pressure P, K	uncertainty
0	427.6	0.34
0.008	425.35	0.59
0.022	422.25	0.56
0.033	419.85	0.54
0.045	417.45	0.48
0.079	412.05	0.42
0.169	401.95	0.4
0.206	399.35	0.37
0.239	397.15	0.37
0.275	394.75	0.36
0.31	392.65	0.37
0.34	390.25	0.36
0.408	387.45	0.35
0.438	385.85	0.35
0.522	382.85	0.35
0.625	379.65	0.35
0.701	377.65	0.34
0.75	376.35	0.34
0.836	374.15	0.34
0.935	371.75	0.34
1	370.4	0.34

System: propan-1-ol + DL-ethyl lactate; phases: Liquid
Fixed: Temperature, K = 298.15
Fixed: Pressure, kPa = 101.3
Property: Mass density, kg/m3 (Liquid); method: Vibrating tube method
Mole fraction of propan-1-ol	Mass density, kg/m3	uncertainty
0.058	1024.62	0.17
0.1	1021.03	0.17
0.15	1017.3	0.17
0.2	1013.63	0.17
0.25	1009.78	0.17
0.3	1005.46	0.17
0.35	1001.13	0.17
0.4	996.59	0.17
0.45	992.2	0.17
0.5	987.41	0.17
0.55	982.34	0.17
0.6	977.25	0.17
0.65	972.03	0.17
0.7	966.3	0.17
0.75	960.47	0.17
0.8	954.34	0.17
0.85	947.87	0.17
0.9	941.28	0.17
0.95	934.27	0.17

System: propan-1-ol + DL-ethyl lactate; phases: Gas, Liquid
Fixed: Pressure, kPa = 101.33
Property: Mole fraction of propan-1-ol (Gas); method: Density calibration data
Mole fraction of propan-1-ol	Mole fraction of propan-1-ol	uncertainty
0.008	0.07	0.017
0.022	0.162	0.016
0.033	0.224	0.015
0.045	0.284	0.013
0.079	0.419	0.011
0.169	0.622	0.011
0.206	0.665	0.01
0.239	0.7	0.01
0.275	0.732	0.01
0.31	0.759	0.01
0.34	0.789	0.01
0.408	0.82	0.01
0.438	0.843	0.01
0.522	0.878	0.01
0.625	0.908	0.01
0.701	0.932	0.01
0.75	0.942	0.01
0.836	0.97	0.01
0.935	0.988	0.01
