Measured thermophysical data. Surface Tension Deviations and Excess Molar Volumes on the Ternary System Propyl Propanoate + Hexane + p-Xylene at 298.15 K
Source: J. Chem. Eng. Data, 2010, 10.1021/je900643r
Compound 1: propyl propanoate, C6H12O2, InChI=1S/C6H12O2/c1-3-5-8-6(7)4-2/h3-5H2,1-2H3, purity 99%
Compound 2: hexane, C6H14, InChI=1S/C6H14/c1-3-5-6-4-2/h3-6H2,1-2H3, purity 99.5%
Compound 3: 1,4-dimethylbenzene, C8H10, InChI=1S/C8H10/c1-7-3-5-8(2)6-4-7/h3-6H,1-2H3, purity 99%

System: propyl propanoate; phases: Liquid
Property: Mass density, kg/m3 (Liquid); method: VIBTUB:UFactor:6
Temperature, K	Pressure, kPa	Mass density, kg/m3	uncertainty
298.15	101.325	875.53	0.64

System: propyl propanoate; phases: Liquid, Air at 1 atmosphere
Property: Surface tension liquid-gas, N/m (Liquid); method: Drop volume
Temperature, K	Surface tension liquid-gas, N/m	uncertainty
298.15	0.0241	0.00019

System: hexane; phases: Liquid
Property: Mass density, kg/m3 (Liquid); method: VIBTUB:UFactor:4
Temperature, K	Pressure, kPa	Mass density, kg/m3	uncertainty
298.15	101.325	654.7	0.7

System: hexane; phases: Liquid, Air at 1 atmosphere
Property: Surface tension liquid-gas, N/m (Liquid); method: Drop volume
Temperature, K	Surface tension liquid-gas, N/m	uncertainty
298.15	0.01791	0.00013

System: 1,4-dimethylbenzene; phases: Liquid
Property: Mass density, kg/m3 (Liquid); method: VIBTUB:UFactor:6
Temperature, K	Pressure, kPa	Mass density, kg/m3	uncertainty
298.15	101.325	856.51	0.68

System: 1,4-dimethylbenzene; phases: Liquid, Air at 1 atmosphere
Property: Surface tension liquid-gas, N/m (Liquid); method: Drop volume
Temperature, K	Surface tension liquid-gas, N/m	uncertainty
298.15	0.0277	0.00021

System: 1,4-dimethylbenzene + hexane; phases: Liquid, Air at 1 atmosphere
Fixed: Temperature, K = 298.15
Property: Surface tension liquid-gas, N/m (Liquid); method: Drop volume
Mole fraction of hexane	Surface tension liquid-gas, N/m	uncertainty
0.0535	0.02684	0.0002
0.0718	0.02658	0.0002
0.1265	0.02576	0.00019
0.1341	0.02566	0.00019
0.3083	0.02345	0.00017
0.3397	0.0231	0.00017
0.399	0.02247	0.00017
0.467	0.02181	0.00016
0.492	0.02159	0.00016
0.5267	0.02129	0.00016
0.6034	0.02067	0.00015
0.6394	0.02039	0.00015
0.6877	0.02007	0.00015
0.7826	0.01941	0.00014
0.8126	0.01922	0.00014
0.8798	0.01879	0.00014

System: 1,4-dimethylbenzene + hexane; phases: Liquid
Fixed: Pressure, kPa = 101
Fixed: Temperature, K = 298.15
Property: Mass density, kg/m3 (Liquid); method: VIBTUB:UFactor:4
Mole fraction of hexane	Mass density, kg/m3	uncertainty
0.0393	848.42	0.5
0.0869	838.63	0.51
0.1535	824.96	0.51
0.208	813.78	0.52
0.3063	793.59	0.54
0.3524	784.21	0.55
0.4333	767.75	0.56
0.4867	756.93	0.57
0.5404	746.02	0.58
0.5836	737.32	0.59
0.638	726.41	0.6
0.6903	715.94	0.61
0.7872	696.69	0.63
0.8297	688.25	0.64
0.8952	675.28	0.66
0.9417	666.19	0.67

System: propyl propanoate + 1,4-dimethylbenzene + hexane; phases: Liquid, Air at 1 atmosphere
Fixed: Temperature, K = 298.15
Property: Surface tension liquid-gas, N/m (Liquid); method: Drop volume
Mole fraction of propyl propanoate	Mole fraction of hexane	Surface tension liquid-gas, N/m	uncertainty
0.0897	0.1593	0.02498	0.00019
0.0897	0.2358	0.02398	0.00018
0.0915	0.3987	0.02239	0.00016
0.093	0.5469	0.02126	0.00016
0.0944	0.7218	0.02008	0.00015
0.0946	0.6493	0.02057	0.00015
0.0947	0.8147	0.0195	0.00014
0.0951	0.2854	0.02343	0.00017
0.0983	0.459	0.0219	0.00016
0.1582	0.0773	0.02582	0.00019
0.1604	0.2418	0.02366	0.00018
0.1618	0.4112	0.02218	0.00016
0.1633	0.7601	0.01975	0.00014
0.1668	0.2897	0.02318	0.00017
0.1728	0.4492	0.02188	0.00016
0.2536	0.3942	0.02209	0.00016
0.2649	0.1434	0.02449	0.00018
0.267	0.6557	0.02019	0.00015
0.2686	0.4825	0.02138	0.00016
0.2727	0.5609	0.02089	0.00015
0.276	0.2959	0.0228	0.00017
0.2781	0.169	0.02413	0.00018
0.3279	0.0784	0.02502	0.00019
0.3342	0.137	0.02427	0.00018
0.3441	0.4761	0.02121	0.00016
0.3523	0.1989	0.02351	0.00018
0.3806	0.3369	0.02214	0.00017
0.3889	0.521	0.02069	0.00015
0.4178	0.4	0.02155	0.00016
0.43	0.314	0.02217	0.00017
0.4313	0.1469	0.02378	0.00018
0.4723	0.1344	0.02384	0.00018
0.5024	0.4186	0.0211	0.00016
0.503	0.2445	0.02265	0.00017
0.5188	0.2898	0.02215	0.00017
0.5998	0.3209	0.0217	0.00016
0.6055	0.1445	0.02344	0.00018
0.6056	0.2122	0.02267	0.00017
0.6602	0.0854	0.02395	0.00018
0.6786	0.1353	0.02333	0.00018
0.697	0.2136	0.02251	0.00017
0.7445	0.0791	0.02389	0.00018
0.7684	0.1453	0.02312	0.00018
0.863	0.0593	0.02383	0.00018

System: propyl propanoate + 1,4-dimethylbenzene + hexane; phases: Liquid
Fixed: Temperature, K = 298.15
Fixed: Pressure, kPa = 101
Property: Mass density, kg/m3 (Liquid); method: VIBTUB:UFactor:6
Mole fraction of propyl propanoate	Mole fraction of hexane	Mass density, kg/m3	uncertainty
0.0728	0.4186	772.23	0.79
0.0739	0.2243	812.2	0.73
0.0773	0.7502	705.44	0.92
0.0774	0.6601	723.4	0.88
0.0777	0.5841	738.71	0.85
0.0782	0.3248	791.69	0.76
0.0799	0.8352	688.48	0.95
0.0933	0.0651	845.27	0.68
0.0985	0.1421	829.46	0.7
0.1691	0.0637	847.29	0.68
0.1718	0.5707	743.31	0.84
0.1744	0.2361	811.71	0.73
0.1752	0.1587	827.73	0.71
0.1771	0.4818	761.46	0.81
0.1783	0.4002	778.04	0.78
0.1786	0.7422	708.88	0.91
0.1794	0.6685	723.67	0.88
0.1808	0.3311	792.29	0.76
0.2484	0.1537	830.34	0.7
0.2508	0.5838	742.05	0.85
0.253	0.3318	793.57	0.76
0.2534	0.0638	849.11	0.68
0.2549	0.6637	726.08	0.88
0.257	0.4851	762.26	0.81
0.259	0.2361	813.47	0.73
0.3384	0.3217	797.36	0.75
0.3394	0.5793	744.63	0.84
0.3415	0.397	782.06	0.78
0.3434	0.0621	851.33	0.67
0.3493	0.1565	831.86	0.7
0.3507	0.2352	815.44	0.72
0.4217	0.0643	852.52	0.67
0.4254	0.1528	833.99	0.69
0.4254	0.2329	817.42	0.72
0.4342	0.2959	804.51	0.74
0.4345	0.4053	781.93	0.78
0.4949	0.1687	831.81	0.7
0.4999	0.2376	817.7	0.72
0.505	0.4112	781.91	0.77
0.5193	0.0669	853.68	0.67
0.596	0.0597	856.61	0.66
0.5999	0.1389	840.17	0.68
0.6021	0.2343	820.26	0.71
0.6089	0.3109	804.51	0.74
0.6754	0.0635	857.18	0.66
0.6781	0.1614	836.73	0.69
0.6785	0.2403	820.32	0.71
0.7501	0.1656	837.07	0.69
0.7688	0.0655	858.34	0.66
0.8516	0.0662	859.48	0.65
