Measured thermophysical data. Measurements of the Vapor Pressures and p?T Properties for trans-1,3,3,3-Tetrafluoropropene (HFO-1234ze(E))
Source: J. Chem. Eng. Data, 2010, 10.1021/je900756g
Compound 1: trans-1,3,3,3-tetrafluoropropene, C3H2F4, InChI=1S/C3H2F4/c4-2-1-3(5,6)7/h1-2H/b2-1+

System: trans-1,3,3,3-tetrafluoropropene; phases: Liquid, Gas
Property: Vapor or sublimation pressure, kPa (Liquid); method: Closed cell (Static) method
Temperature, K	Vapor or sublimation pressure, kPa	uncertainty
310	703	2
320	920	2
330	1183	3
340	1500	3
350	1876	3
360	2320	4
370	2841	5
380	3458	5

System: trans-1,3,3,3-tetrafluoropropene; phases: Liquid
Property: Mass density, kg/m3 (Liquid); method: Bellows volumetry
Temperature, K	Pressure, kPa	Mass density, kg/m3	uncertainty
310	2000	1130.2	3.4
310	3000	1136.3	3.4
310	4000	1142.1	3.4
310	5000	1147.7	3.6
320	2000	1093.3	3.2
320	3000	1100.9	3.2
320	4000	1108	3.2
320	5000	1114.7	3.4
330	2000	1054.2	3.2
330	3000	1063.6	3.4
330	4000	1072.2	3.4
330	5000	1080	3.4
340	2000	1008.1	3
340	3000	1021	3
340	4000	1032.2	3.2
340	5000	1042.4	3.2
350	2000	953.6	2.8
350	3000	972.3	3
350	4000	987.6	3
350	5000	1000.5	3.2
360	3000	910.5	2.6
360	4000	934.2	2.8
360	5000	952.9	2.8
370	3000	821.5	2.4
370	4000	867.6	2.6
370	5000	896.7	2.8
