Measured thermophysical data. Phase Equilibria for Liquid Mixtures of (an Alkane + Toluene + Dimethyl Phthalate)
Source: J. Chem. Eng. Data, 2010, 10.1021/je900592b
Compound 1: heptane, C7H16, InChI=1S/C7H16/c1-3-5-7-6-4-2/h3-7H2,1-2H3, purity 99%
Compound 2: hexane, C6H14, InChI=1S/C6H14/c1-3-5-6-4-2/h3-6H2,1-2H3, purity 99%
Compound 3: cyclohexane, C6H12, InChI=1S/C6H12/c1-2-4-6-5-3-1/h1-6H2, purity 98%
Compound 4: toluene, C7H8, InChI=1S/C7H8/c1-7-5-3-2-4-6-7/h2-6H,1H3, purity 99%
Compound 5: dimethyl 1,2-benzenedicarboxylate, C10H10O4, InChI=1S/C10H10O4/c1-13-9(11)7-5-3-4-6-8(7)10(12)14-2/h3-6H,1-2H3, purity 99%

System: toluene + dimethyl 1,2-benzenedicarboxylate + heptane; phases: Liquid mixture 1, Liquid mixture 2
Fixed: Temperature, K = 298.15
Fixed: Pressure, kPa = 101
Property: Mass fraction of toluene (Liquid mixture 1); method: Chromatography
Property: Mass fraction of heptane (Liquid mixture 2); method: Chromatography
Property: Mass fraction of toluene (Liquid mixture 2); method: Chromatography
Mass fraction of heptane	Mass fraction of toluene	uncertainty	Mass fraction of heptane	uncertainty	Mass fraction of toluene	uncertainty
0.908	0.0375	0.0004	0.0895	0.0009	0.0353	
0.8621	0.0727	0.0007	0.0822	0.0008	0.0634	
0.7761	0.1331	0.0013	0.0987	0.001	0.1124	
0.6775	0.1901	0.0019	0.138	0.0014	0.1536	
0.58	0.222	0.0022	0.1837	0.0018	0.2004	

System: toluene + dimethyl 1,2-benzenedicarboxylate + heptane; phases: Liquid mixture 1, Liquid mixture 2
Fixed: Pressure, kPa = 101
Fixed: Temperature, K = 298.15
Property: Mass fraction of toluene (Liquid mixture 1); method: TITR:UFactor:2
Mass fraction of heptane	Mass fraction of toluene	uncertainty
0.0764	0	0.0001
0.1025	0.0899	0.0072
0.1482	0.1695	0.0136
0.2332	0.2295	0.0184
0.4972	0.2521	0.0202
0.5919	0.2263	0.0181
0.6955	0.1753	0.014
0.9458	0	0.0001

System: toluene + hexane + dimethyl 1,2-benzenedicarboxylate; phases: Liquid mixture 1, Liquid mixture 2
Fixed: Pressure, kPa = 101
Fixed: Temperature, K = 298.15
Property: Mass fraction of toluene (Liquid mixture 1); method: TITR:UFactor:2
Mass fraction of hexane	Mass fraction of toluene	uncertainty
0.0705	0	0.0001
0.0846	0.0949	0.0076
0.1441	0.1654	0.0132
0.2431	0.1887	0.0151
0.3931	0.2141	0.0171
0.4653	0.2269	0.0182
0.7053	0.1752	0.014
0.9198	0	0.0001

System: toluene + hexane + dimethyl 1,2-benzenedicarboxylate; phases: Liquid mixture 1, Liquid mixture 2
Fixed: Temperature, K = 298.15
Fixed: Pressure, kPa = 101
Property: Mass fraction of hexane (Liquid mixture 1); method: Chromatography
Property: Mass fraction of hexane (Liquid mixture 2); method: Chromatography
Property: Mass fraction of toluene (Liquid mixture 2); method: Chromatography
Mass fraction of toluene	Mass fraction of hexane	uncertainty	Mass fraction of hexane	uncertainty	Mass fraction of toluene	uncertainty
0.0348	0.8856	0.0011	0.0732	0.0007	0.0264	
0.086	0.8297	0.0017	0.0819	0.0008	0.0781	
0.1468	0.7531	0.0025	0.1033	0.001	0.1338	
0.1973	0.6696	0.0033	0.1633	0.0016	0.174	

System: toluene + cyclohexane + dimethyl 1,2-benzenedicarboxylate; phases: Liquid mixture 1, Liquid mixture 2
Fixed: Temperature, K = 298.15
Fixed: Pressure, kPa = 101
Property: Mass fraction of toluene (Liquid mixture 1); method: Chromatography
Property: Mass fraction of toluene (Liquid mixture 2); method: Chromatography
Property: Mass fraction of cyclohexane (Liquid mixture 2); method: Chromatography
Mass fraction of cyclohexane	Mass fraction of toluene	uncertainty	Mass fraction of toluene	uncertainty	Mass fraction of cyclohexane	uncertainty
0.8784	0.0258	0.0003	0.0158	0.0002	0.1621	
0.8128	0.0629	0.0006	0.0512	0.0005	0.1868	
0.7391	0.1008	0.001	0.0879	0.0009	0.2115	
0.6591	0.12	0.01	0.1079	0.0011	0.2715	

System: toluene + cyclohexane + dimethyl 1,2-benzenedicarboxylate; phases: Liquid mixture 1, Liquid mixture 2
Fixed: Pressure, kPa = 101
Fixed: Temperature, K = 298.15
Property: Mass fraction of toluene (Liquid mixture 1); method: TITR:UFactor:2
Mass fraction of cyclohexane	Mass fraction of toluene	uncertainty
0.1569	0	0.0001
0.2171	0.082	0.0066
0.3533	0.1288	0.0103
0.5268	0.135	0.0108
0.762	0.0886	0.0071
0.9221	0	0.0001
