Measured thermophysical data. Thermophysical Properties of Natural Gas Components: Apparatus and Speed of Sound in Argon
Source: J. Chem. Eng. Data, 2009, 10.1021/je900428g
Compound 1: argon, Ar, InChI=1S/Ar, purity 99.999%

System: argon; phases: Fluid (supercritical or subcritical phases)
Property: Speed of sound, m/s (Fluid (supercritical or subcritical phases)); method: Spherical resonator
Temperature, K	Pressure, kPa	Speed of sound, m/s	uncertainty
250	53.7	294.482	0.498
250	198	294.473	0.499
250	329.4	294.466	0.498
250	2365.8	294.798	0.499
250	4652.9	296.356	0.502
250	5823	297.759	0.505
250.161	48.7	294.574	0.498
250.161	48.8	294.5752	0.4984
250.161	192	294.572	0.499
250.161	309.1	294.566	0.499
250.161	447.7	294.56	0.499
250.161	598.6	294.561	0.499
250.161	732.5	294.563	0.499
250.161	875.6	294.583	0.4986
250.161	1401.1	294.624	0.499
250.161	192	294.575	0.499
250.161	309.1	294.569	0.499
250.161	447.7	294.568	0.4986
250.161	598.6	294.574	0.499
250.161	732.5	294.578	0.499
250.161	1401.1	294.651	0.499
260	198.6	300.345	0.507
260	327.3	300.368	0.507
260	3507.5	301.947	0.51
260	4624	303.042	0.513
260	6602.3	305.842	0.517
270	53.2	306.055	0.516
270	200	306.108	0.516
270	325.8	306.151	0.516
270	467.2	306.205	0.516
270	3521.8	308.292	0.52
270	4675.9	309.592	0.522
270	5775.2	311.124	0.525
275.103	47.6	308.935	0.52
275.103	206.8	309.01	0.521
275.103	206.9	309.012	0.521
275.103	384.3	309.094	0.521
275.103	547.4	309.173	0.521
275.103	591.7	309.204	0.521
275.103	706.2	309.255	0.521
275.103	733.8	309.269	0.521
275.103	860.2	309.337	0.521
275.103	860.3	309.3457	0.52132
275.103	1389.2	309.646	0.522
275.103	1389.3	309.667	0.522
275.103	384.3	309.0978	0.52076
275.103	547.4	309.18	0.521
275.103	706.2	309.264	0.521
275.103	733.8	309.279	0.521
275.103	860.2	309.334	0.521
275.103	860.2	309.3473	0.52132
280	200.1	311.759	0.525
280	328.3	311.827	0.525
280	2342.8	313.26	0.528
280	4647.9	315.83	0.532
280	5767	317.479	0.534
280	6610.3	318.936	0.537
280.121	99.1	311.774	0.525
280.121	305.2	311.874	0.525
280.121	307.7	311.887	0.525
280.121	529.4	312.003	0.525
280.121	531.1	312.013	0.525
280.121	745.8	312.132	0.525
280.121	748	312.141	0.525
280.121	962.4	312.273	0.526
280.121	964.6	312.277	0.526
280.121	1184.9	312.423	0.526
280.121	1396.4	312.58	0.526
280.121	1396.8	312.571	0.526
280.121	1601.7	312.723	0.526
280.121	1834.4	312.907	0.527
290	53.6	317.203	0.533
290	196.4	317.297	0.533
290	1191.6	318.037	0.534
290	2325	319.083	0.536
290	3477.8	320.364	0.538
300	30.5	322.616	0.541
300	183.8	322.742	0.541
300	308.3	322.843	0.542
300	1180.9	323.609	0.543
300	2331.5	324.807	0.545
300	4657.3	327.876	0.55
300	5832.9	329.796	0.553
300	6595.8	331.208	0.555
300.111	100.3	322.731	0.541
300.111	244.7	322.851	0.542
300.111	395.4	322.976	0.542
300.111	528	323.113	0.542
300.111	558.1	323.115	0.542
300.111	701.6	323.241	0.542
300.111	739.1	323.296	0.542
300.111	868	323.391	0.543
300.111	963	323.5	0.543
300.111	1011.7	323.529	0.543
300.111	1166.1	323.695	0.543
300.111	1618	324.143	0.544
300.111	1836.4	324.371	0.544
300.117	48.1	322.692	0.541
300.117	193	322.814	0.542
300.117	308.1	322.909	0.542
300.117	445.5	323.023	0.542
300.117	729.9	323.27	0.542
300.117	868.1	323.392	0.543
300.117	868.2	323.405	0.543
300.117	1378.6	323.871	0.543
300.117	193	322.814	0.542
300.117	308.1	322.9103	0.5419
300.117	445.5	323.033	0.542
300.117	729.9	323.28	0.542
300.117	868.2	323.4052	0.5426
300.117	1378.6	323.889	0.543
300.117	1378.6	323.889	0.543
310	104.7	328.02	0.549
310	198.6	328.105	0.55
310	329.2	328.225	0.55
310	463.4	328.349	0.55
310	2330.1	330.379	0.553
310	4624.6	333.589	0.559
310	6595.8	337.02	0.564
320	102	333.276	0.558
320	180.5	333.349	0.558
320	311	333.482	0.5579
320	450.5	333.627	0.558
320	576.4	333.773	0.558
320	1053.9	334.304	0.559
320	1550.8	334.886	0.56
320	2333.1	335.852	0.562
320	4482.2	339.001	0.567
320	5819.9	341.243	0.57
320	102	333.278	0.558
320	576.4	333.785	0.558
320	1053.9	334.316	0.559
320	1550.8	334.899	0.56
325.046	48.1	335.835	0.561
325.046	192.9	335.997	0.562
325.046	314.5	336.13	0.562
325.046	438.6	336.267	0.562
325.046	592.7	336.443	0.562
325.046	736	336.603	0.563
325.046	870.8	336.757	0.563
325.046	1376.5	337.358	0.564
325.046	1376.6	337.3671	0.5638
325.046	2721.4	339.142	0.567
325.046	192.9	335.993	0.562
325.046	314.5	336.127	0.562
325.046	438.6	336.2665	0.5621
325.046	870.8	336.763	0.563
349.868	48.9	348.434	0.581
349.868	182.8	348.615	0.581
349.868	182.9	348.607	0.581
349.868	307.3	348.768	0.581
349.868	447	348.95	0.582
349.868	594.5	349.144	0.582
349.868	726.7	349.32	0.582
349.868	864.5	349.504	0.582
349.868	864.6	349.5243	0.5825
349.868	1397.7	350.238	0.584
349.868	2711.2	352.186	0.587
349.868	48.9	348.435	0.581
349.868	307.3	348.7836	0.5813
349.868	447	348.966	0.582
349.868	726.7	349.34	0.582
349.868	1397.7	350.26	0.584
