Measured thermophysical data. Solubility of Carbon Dioxide in Aqueous Solutions of N-Methyldiethanolamine and Piperazine in the Low Gas Loading Region
Source: J. Chem. Eng. Data, 2010, 10.1021/je9003383
Compound 1: N-methyldiethanolamine, C5H13NO2, InChI=1S/C5H13NO2/c1-6(2-4-7)3-5-8/h7-8H,2-5H2,1H3, purity 98.5%
Compound 2: piperazine, C4H10N2, InChI=1S/C4H10N2/c1-2-6-4-3-5-1/h5-6H,1-4H2, purity 99%
Compound 3: water, H2O, InChI=1S/H2O/h1H2

System: N-methyldiethanolamine + water; phases: Liquid
Fixed: Pressure, kPa = 101
Fixed: Temperature, K = 293.15
Property: Mass density, kg/m3 (Liquid); method: Vibrating tube method
Molality, mol/kg of N-methyldiethanolamine	Mass density, kg/m3	uncertainty
1.8666	1014.8	1
4.1177	1029.6	1
6.1887	1038.8	1
8.11861	1044.8	1
10.032	1048.6	1.1
12.099	1051.6	1.1

System: piperazine + water; phases: Liquid
Fixed: Pressure, kPa = 101
Fixed: Temperature, K = 293.15
Property: Mass density, kg/m3 (Liquid); method: Vibrating tube method
Molality, mol/kg of piperazine	Mass density, kg/m3	uncertainty
0.2628	999.1	1
0.4689	999.8	1
0.7153	1000.8	1
0.9675	1001.8	1
1.2676	1003.1	1
1.4477	1004	1

System: N-methyldiethanolamine + piperazine + water; phases: Liquid
Fixed: Pressure, kPa = 101
Fixed: Temperature, K = 293.15
Property: Mass density, kg/m3 (Liquid); method: Vibrating tube method
Molality, mol/kg of N-methyldiethanolamine	Molality, mol/kg of piperazine	Mass density, kg/m3	uncertainty
0	0.2628	999.1	1
0	0.4689	999.8	1
0	0.7153	1000.8	1
0	0.9675	1001.8	1
0	1.2676	1003.1	1
0	1.4477	1004	1
1.8666	0	1014.8	1
1.9335	0.1798	1016	1
1.9969	0.6039	1017.8	1
2.0076	0.3158	1016.9	1
2.015	0.4956	1017.6	1
2.0673	0.4086	1017.7	1
2.1347	0.0982	1017.2	1
3.9955	0.2085	1029.4	1
4.0002	0.8217	1031	1
4.0066	0.9868	1031.4	1
4.0175	0.4207	1030.1	1
4.0236	1.2075	1032.1	1
4.0333	0.6007	1030.6	1
4.1177	0	1029.6	1
5.8659	0.6041	1038.6	1
5.9558	1.2241	1040	1
5.9889	1.5246	1040.7	1
5.9889	1.7899	1041.1	1
6.0334	0.9219	1039.8	1
6.1549	0.3085	1039.2	1
6.1887	0	1038.8	1
7.1858	1.1205	1043.6	1
7.7262	2.2749	1046.2	1
7.9747	0.8007	1045.1	1
7.9823	1.5034	1045.9	1
8.0369	0.402	1044.9	1
8.11861	0	1044.8	1
8.2182	1.8539	1046.7	1
8.6698	3.3955	1048.7	1
9.2092	0.4434	1047.4	1
9.511	0.9344	1048.4	1
9.878	2.5195	1049.9	1.1
9.908	3.0019	1050.1	1.1
10.032	0	1048.6	1.1
10.035	1.5528	1049.5	1.1
10.211	2.0117	1049.9	1.1
10.788	2.8236	1050.9	1.1
11.132	2.3325	1051.1	1.1
11.444	3.3148	1051.7	1.1
11.665	0.7062	1051.2	1.1
11.907	1.2755	1051.7	1.1
11.975	1.7756	1051.8	1.1
12.099	0	1051.6	1.1
