Measured thermophysical data. Solubility of 2,6-Diamino-3,5-dinitropyridine and 2,5-Dihydroxyterephthalic Acid in N,N-Dimethylformamide, Dimethylsulfoxide, Ethanol, and Methanol, N,N-Dimethylacetamide, and Acetic Acid
Source: J. Chem. Eng. Data, 2010, 10.1021/je900367v
Compound 1: 2,6-diamino-3,5-dinitropyridine, C5H5N5O4, InChI=1S/C5H5N5O4/c6-4-2(9(11)12)1-3(10(13)14)5(7)8-4/h1H,(H4,6,7,8)
Compound 2: ethanol, C2H6O, InChI=1S/C2H6O/c1-2-3/h3H,2H2,1H3, purity 99.9%
Compound 3: methanol, CH4O, InChI=1S/CH4O/c1-2/h2H,1H3, purity 99.9%
Compound 4: dimethylformamide, C3H7NO, InChI=1S/C3H7NO/c1-4(2)3-5/h3H,1-2H3, purity 99.9%
Compound 5: dimethyl sulfoxide, C2H6OS, InChI=1S/C2H6OS/c1-4(2)3/h1-2H3, purity 99.9%

System: 2,6-diamino-3,5-dinitropyridine; phases: Crystal, Liquid, Air at 1 atmosphere
Property: Normal melting temperature, K (Crystal); method: DTA
Normal melting temperature, K	uncertainty
595.15	0.39

System: dimethylformamide + 2,6-diamino-3,5-dinitropyridine; phases: Liquid, Crystal
Fixed: Pressure, kPa = 101
Property: Mole fraction of 2,6-diamino-3,5-dinitropyridine (Liquid); method: Chromatography
Temperature, K	Mole fraction of 2,6-diamino-3,5-dinitropyridine	uncertainty
304.15	0.00639	0.00021
306.15	0.00694	0.00021
309.15	0.0076	0.00021
312.15	0.00815	0.00021
315.15	0.00877	0.00021
318.15	0.00944	0.00021
321.15	0.00993	0.00021
323.15	0.01044	0.00022
326.15	0.01095	0.00023
331.15	0.01199	0.00025
333.15	0.01259	0.00026
336.15	0.01318	0.00028
338.15	0.01366	0.00029
341.15	0.01409	0.0003
343.15	0.01531	0.00032
346.15	0.01642	0.00035
348.15	0.01824	0.00039
351.15	0.02007	0.00043
354.15	0.02307	0.0005
355.15	0.0261	0.00057
357.15	0.02881	0.00062

System: dimethyl sulfoxide + 2,6-diamino-3,5-dinitropyridine; phases: Liquid, Crystal
Fixed: Pressure, kPa = 101
Property: Mole fraction of 2,6-diamino-3,5-dinitropyridine (Liquid); method: Chromatography
Temperature, K	Mole fraction of 2,6-diamino-3,5-dinitropyridine	uncertainty
304.15	0.01505	0.00031
306.15	0.01518	0.00031
309.15	0.01532	0.00034
311.15	0.02177	0.00052
314.15	0.02843	0.00064
317.15	0.03607	0.00079
320.15	0.04331	0.00094
323.15	0.05325	0.00115
327.15	0.06382	0.00135
329.15	0.06905	0.00146
331.15	0.0747	0.00158
333.15	0.08032	0.0017
336.15	0.08835	0.00189
339.15	0.10645	0.0023

System: ethanol + 2,6-diamino-3,5-dinitropyridine; phases: Liquid, Crystal
Fixed: Pressure, kPa = 101
Property: Mole fraction of 2,6-diamino-3,5-dinitropyridine (Liquid); method: Chromatography
Temperature, K	Mole fraction of 2,6-diamino-3,5-dinitropyridine	uncertainty
305.15	0.000298	0.000201
307.15	0.000783	0.000201
309.15	0.0012	0.0002
311.15	0.00174	0.0002
314.15	0.00224	0.0002
316.15	0.00269	0.0002
319.15	0.00314	0.00021
323.15	0.00561	0.00022
326.15	0.00807	0.00023
329.15	0.010142	0.000234
332.15	0.01219	0.00028
335.15	0.01527	0.00035
338.15	0.01752	0.0004
340.15	0.01996	0.00046

System: methanol + 2,6-diamino-3,5-dinitropyridine; phases: Liquid, Crystal
Fixed: Pressure, kPa = 101
Property: Mole fraction of 2,6-diamino-3,5-dinitropyridine (Liquid); method: Chromatography
Temperature, K	Mole fraction of 2,6-diamino-3,5-dinitropyridine	uncertainty
293.15	0.00184	0.0002
298.15	0.0026	0.0002038
301.15	0.003345	0.000205
304.15	0.00341	0.00021
306.15	0.00458	0.00021
308.15	0.00535	0.00022
310.15	0.006138	0.000218
313.15	0.00696	0.00022
315.15	0.008	0.00023
318.15	0.00915	0.00024
319.15	0.00997	0.00041
321.15	0.01853	0.00065
324.15	0.03343	0.00093
327.15	0.04583	0.00119
330.15	0.05853	0.0015
333.15	0.07279	0.00185
336.15	0.08835	0.00225
339.15	0.10645	0.00271
