Measured thermophysical data. Solubility of 3,5-Dimethoxybenzoic Acid, 4-Cyanobenzoic Acid, 4-Acetoxybenzoic Acid, 3,5-Diaminobenzoic Acid, and 2,4-Dichlorobenzoic Acid in Ethanol
Source: J. Chem. Eng. Data, 2009, 10.1021/je900190n
Compound 1: ethanol, C2H6O, InChI=1S/C2H6O/c1-2-3/h3H,2H2,1H3
Compound 2: 3,5-dimethoxybenzoic acid, C9H10O4, InChI=1S/C9H10O4/c1-12-7-3-6(9(10)11)4-8(5-7)13-2/h3-5H,1-2H3,(H,10,11)
Compound 3: 4-cyanobenzoic acid, C8H5NO2, InChI=1S/C8H5NO2/c9-5-6-1-3-7(4-2-6)8(10)11/h1-4H,(H,10,11)
Compound 4: 4-(acetyloxy)benzoic acid, C9H8O4, InChI=1S/C9H8O4/c1-6(10)13-8-4-2-7(3-5-8)9(11)12/h2-5H,1H3,(H,11,12)
Compound 5: 3,5-diaminobenzoic acid, C7H8N2O2, InChI=1S/C7H8N2O2/c8-5-1-4(7(10)11)2-6(9)3-5/h1-3H,8-9H2,(H,10,11)
Compound 6: 2,4-dichlorobenzoic acid, C7H4Cl2O2, InChI=1S/C7H4Cl2O2/c8-4-1-2-5(7(10)11)6(9)3-4/h1-3H,(H,10,11)

System: ethanol + 3,5-dimethoxybenzoic acid; phases: Liquid, Crystal
Fixed: Pressure, kPa = 101
Property: Mole fraction of 3,5-dimethoxybenzoic acid (Liquid); method: Gravimetric method
Temperature, K	Mole fraction of 3,5-dimethoxybenzoic acid	uncertainty
298.15	0.004933	0.004933
303.15	0.006075	0.006075
308.15	0.007464	0.007464
313.15	0.009341	0.009341
318.15	0.01159	0.01

System: ethanol + 3,5-dimethoxybenzoic acid; phases: Liquid, Crystal
Fixed: Pressure, kPa = 101
Property: Mole fraction of 3,5-dimethoxybenzoic acid (Liquid); method: Laser monitoring
Temperature, K	Mole fraction of 3,5-dimethoxybenzoic acid	uncertainty
298.15	0.005137	0.005137
303.15	0.006056	0.006056
308.15	0.007934	0.007934
313.15	0.009776	0.009776
318.15	0.01143	0.01

System: ethanol + 4-cyanobenzoic acid; phases: Liquid, Crystal
Fixed: Pressure, kPa = 101
Property: Mole fraction of 4-cyanobenzoic acid (Liquid); method: Gravimetric method
Temperature, K	Mole fraction of 4-cyanobenzoic acid	uncertainty
298.15	0.02136	0.01
303.15	0.02657	0.01
308.15	0.03305	0.01
313.15	0.03533	0.01001
318.15	0.04404	0.01001

System: ethanol + 4-cyanobenzoic acid; phases: Liquid, Crystal
Fixed: Pressure, kPa = 101
Property: Mole fraction of 4-cyanobenzoic acid (Liquid); method: Laser monitoring
Temperature, K	Mole fraction of 4-cyanobenzoic acid	uncertainty
298.15	0.02363	0.01
303.15	0.02518	0.01
308.15	0.03075	0.01001
313.15	0.03879	0.01001
318.15	0.04311	0.01001

System: ethanol + 4-(acetyloxy)benzoic acid; phases: Liquid, Crystal
Fixed: Pressure, kPa = 101
Property: Mole fraction of 4-(acetyloxy)benzoic acid (Liquid); method: Gravimetric method
Temperature, K	Mole fraction of 4-(acetyloxy)benzoic acid	uncertainty
298.15	0.02489	0.01
303.15	0.03018	0.01001
308.15	0.03584	0.01001
313.15	0.04315	0.01001
318.15	0.05217	0.01002

System: ethanol + 4-(acetyloxy)benzoic acid; phases: Liquid, Crystal
Fixed: Pressure, kPa = 101
Property: Mole fraction of 4-(acetyloxy)benzoic acid (Liquid); method: Laser monitoring
Temperature, K	Mole fraction of 4-(acetyloxy)benzoic acid	uncertainty
298.15	0.02193	0.00097
303.15	0.03149	0.00133
308.15	0.03876	0.00161
313.15	0.04514	0.00186
318.15	0.05117	0.00211

System: ethanol + 3,5-diaminobenzoic acid; phases: Liquid, Crystal
Fixed: Pressure, kPa = 101
Property: Mole fraction of 3,5-diaminobenzoic acid (Liquid); method: Gravimetric method
Temperature, K	Mole fraction of 3,5-diaminobenzoic acid	uncertainty
298.15	0.003336	0.003336
303.15	0.003419	0.003419
308.15	0.003999	0.003999
313.15	0.004405	0.004405
318.15	0.005192	0.005192

System: ethanol + 3,5-diaminobenzoic acid; phases: Liquid, Crystal
Fixed: Pressure, kPa = 101
Property: Mole fraction of 3,5-diaminobenzoic acid (Liquid); method: Laser monitoring
Temperature, K	Mole fraction of 3,5-diaminobenzoic acid	uncertainty
298.15	0.002112	0.002112
303.15	0.003737	0.003737
308.15	0.003776	0.003776
313.15	0.003994	0.003994
318.15	0.004716	0.004716

System: 2,4-dichlorobenzoic acid + ethanol; phases: Liquid, Crystal
Fixed: Pressure, kPa = 101
Property: Mole fraction of 2,4-dichlorobenzoic acid (Liquid); method: Gravimetric method
Temperature, K	Mole fraction of 2,4-dichlorobenzoic acid	uncertainty
298.15	0.05812	0.01001
303.15	0.06933	0.01001
308.15	0.08166	0.01001
313.15	0.09534	0.01003
318.15	0.1179	0.01

System: 2,4-dichlorobenzoic acid + ethanol; phases: Liquid, Crystal
Fixed: Pressure, kPa = 101
Property: Mole fraction of 2,4-dichlorobenzoic acid (Liquid); method: Laser monitoring
Temperature, K	Mole fraction of 2,4-dichlorobenzoic acid	uncertainty
298.15	0.04814	0.01003
303.15	0.06785	0.01001
308.15	0.07093	0.01
313.15	0.08072	0.01002
318.15	0.1056	0.01
