Measured thermophysical data. Accurate PVT Data for Methane from (300 to 450) K up to 180 MPa
Source: J. Chem. Eng. Data, 2010, 10.1021/je9004849
Compound 1: methane, CH4, InChI=1S/CH4/h1H4, purity 99.99%

System: methane; phases: Fluid (supercritical or subcritical phases)
Property: Mass density, kg/m3 (Fluid (supercritical or subcritical phases)); method: Buoyancy - hydrostatic balance with magnetic suspension - one sinker
Temperature, K	Pressure, kPa	Mass density, kg/m3	uncertainty
298.138	29958	212.508	0.41
298.138	124934	363.139	0.836
298.138	159617	385.731	1.003
298.139	49959	273.189	0.476
298.141	150062	380.039	1.011
298.142	170054	391.531	1.049
298.142	188059	400.837	1.206
298.143	185333	399.489	1.112
298.144	35056	232.422	0.359
298.144	99874	342.269	0.695
298.145	20012	157.172	0.263
298.145	186931	400.257	1.153
298.149	10010	76.08	0.122
298.15	79980	321.098	0.591
298.156	1012	6.665	0.006
298.157	66961	303.605	0.574
298.189	5009	35.316	0.041
298.249	14994	118.506	0.209
305.225	149862	376.248	1.046
305.227	79855	316.163	0.585
305.23	49968	267.232	0.518
305.231	9993	72.932	0.116
305.233	60012	287.019	0.526
305.233	124930	359.159	0.848
305.234	99904	337.939	0.705
305.235	6897	48.435	0.058
305.236	5001	34.173	0.036
305.237	1002	6.404	0.006
305.239	29976	205.443	0.408
305.239	34563	223.779	0.356
305.239	69988	302.917	0.568
305.24	15006	113.44	0.202
305.242	2000	13.031	0.012
305.242	20696	155.024	0.277
338.037	6905	42.093	0.049
338.048	34473	195.446	0.335
338.049	5000	29.983	0.032
338.063	70001	280.639	0.595
338.066	149542	359.787	1.069
338.068	124895	341.685	0.895
338.079	15026	95.246	0.165
338.079	59971	263.229	0.545
338.08	30005	177.38	0.385
338.082	2004	11.667	0.011
338.082	20687	130.132	0.234
338.083	1004	5.782	0.006
338.083	50031	241.969	0.538
338.094	164905	369.665	1.106
338.103	9969	62.054	0.095
338.103	80310	295.61	0.607
338.112	99908	318.744	0.737
338.121	179829	378.164	1.219
399.943	89964	274.637	0.712
399.967	59973	225.951	0.558
399.984	1002	4.86	0.005
399.984	30014	141.158	0.324
399.988	15027	74.789	0.133
400.001	50037	203.469	0.525
400.003	79920	260.652	0.687
400.013	6915	34.195	0.039
400.014	2001	9.744	0.009
400.015	10002	49.746	0.073
400.022	124882	312.062	0.956
400.023	149627	332.136	1.236
400.025	20675	101.642	0.188
400.029	13795	68.723	0.117
400.036	34510	157.64	0.307
400.042	69978	244.725	0.624
400.068	5005	24.61	0.026
400.089	99984	286.8	0.733
450.005	2009	8.61	0.008
450.01	20697	87.478	0.17
450.011	99932	264.608	0.788
450.018	119918	286.376	0.968
450.025	89981	251.923	0.763
450.027	59975	202.137	0.547
450.034	139476	304.187	1.168
450.048	30002	121.791	0.277
450.057	50036	179.955	0.489
450.064	69966	221.073	0.624
450.083	80008	237.571	0.696
450.091	6886	29.741	0.033
450.115	34492	136.647	0.291
