Measured thermophysical data. Isothermal Vapor-Liquid Equilibrium Data at T = 333.15 K and Excess Molar Volumes and Refractive Indices at T = 298.15 K for the Dimethyl Carbonate + Methanol and Isopropanol + Water with Ionic Liquids
Source: J. Chem. Eng. Data, 2010, 10.1021/je9008624
Compound 1: dimethyl carbonate, C3H6O3, InChI=1S/C3H6O3/c1-5-3(4)6-2/h1-2H3
Compound 2: methanol, CH4O, InChI=1S/CH4O/c1-2/h2H,1H3
Compound 3: propan-2-ol, C3H8O, InChI=1S/C3H8O/c1-3(2)4/h3-4H,1-2H3
Compound 4: 1-ethyl-3-methylimidazolium ethyl sulfate, C8H16N2O4S, InChI=1S/C6H11N2.C2H6O4S/c1-3-8-5-4-7(2)6-8;1-2-6-7(3,4)5/h4-6H,3H2,1-2H3;2H2,1H3,(H,3,4,5)/q+1;/p-1
Compound 5: 1-butyl-3-methylimidazolium tetrafluoroborate, C8H15BF4N2, InChI=1S/C8H15N2.BF4/c1-3-4-5-10-7-6-9(2)8-10;2-1(3,4)5/h6-8H,3-5H2,1-2H3;/q+1;-1
Compound 6: water, H2O, InChI=1S/H2O/h1H2, purity 98.5%

System: dimethyl carbonate; phases: Liquid
Property: Refractive index (Na D-line) (Liquid); method: ABBE::UFactor:2
Temperature, K	Pressure, kPa	Refractive index (Na D-line)	uncertainty
298.15	101.325	1.36647	0.00064

System: dimethyl carbonate; phases: Liquid
Property: Mass density, kg/m3 (Liquid); method: VIBTUB::UFactor:4
Temperature, K	Pressure, kPa	Mass density, kg/m3	uncertainty
298.15	101	1063.28	0.28

System: methanol; phases: Liquid
Property: Refractive index (Na D-line) (Liquid); method: ABBE::UFactor:2
Temperature, K	Pressure, kPa	Refractive index (Na D-line)	uncertainty
298.15	101.325	1.32668	0.00064

System: methanol; phases: Liquid
Property: Mass density, kg/m3 (Liquid); method: VIBTUB::UFactor:4
Temperature, K	Pressure, kPa	Mass density, kg/m3	uncertainty
298.15	101	786.72	0.49

System: 1-ethyl-3-methylimidazolium ethyl sulfate; phases: Liquid
Property: Refractive index (Na D-line) (Liquid); method: ABBE::UFactor:2
Temperature, K	Pressure, kPa	Refractive index (Na D-line)	uncertainty
298.15	101.325	1.47908	0.00066

System: 1-ethyl-3-methylimidazolium ethyl sulfate; phases: Liquid
Property: Mass density, kg/m3 (Liquid); method: VIBTUB::UFactor:4
Temperature, K	Pressure, kPa	Mass density, kg/m3	uncertainty
298.15	101	1236.33	0.8

System: 1-butyl-3-methylimidazolium tetrafluoroborate; phases: Liquid
Property: Refractive index (Na D-line) (Liquid); method: ABBE:UFactor:2
Temperature, K	Pressure, kPa	Refractive index (Na D-line)	uncertainty
298.15	101.325	1.41831	0.00066

System: 1-butyl-3-methylimidazolium tetrafluoroborate; phases: Liquid
Property: Mass density, kg/m3 (Liquid); method: VIBTUB:UFactor:4
Temperature, K	Pressure, kPa	Mass density, kg/m3	uncertainty
298.15	101	1192.78	0.71

System: methanol + dimethyl carbonate; phases: Liquid
Fixed: Temperature, K = 298.15
Fixed: Pressure, kPa = 101
Property: Refractive index (Na D-line) (Liquid); method: ABBE:UFactor:2
Mole fraction of dimethyl carbonate	Refractive index (Na D-line)	uncertainty
0	1.32668	0.00064
0.0501	1.33071	0.00064
0.0997	1.33427	0.00064
0.2008	1.34139	0.00064
0.3003	1.347	0.00064
0.4002	1.35162	0.00064
0.5005	1.35583	0.00064
0.6004	1.35891	0.00064
0.7015	1.36093	0.00064
0.8012	1.36336	0.00064
0.8999	1.36501	0.00064
0.9483	1.36566	0.00064
1	1.36647	0.00064

System: methanol + dimethyl carbonate; phases: Liquid
Fixed: Temperature, K = 298.15
Fixed: Pressure, kPa = 101
Property: Mass density, kg/m3 (Liquid); method: VIBTUB:UFactor:4
Mole fraction of dimethyl carbonate	Mass density, kg/m3	uncertainty
0	786.72	0.49
0.0501	814.35	0.45
0.0997	838.96	0.41
0.2008	882.51	0.36
0.3003	918.19	0.31
0.4002	948.52	0.27
0.5005	974.63	0.24
0.6004	997.16	0.2
0.7015	1017.04	0.21
0.8012	1034.29	0.23
0.8999	1049.44	0.26
0.9483	1056.31	0.27
1	1063.28	0.28

System: dimethyl carbonate + 1-ethyl-3-methylimidazolium ethyl sulfate; phases: Liquid
Fixed: Temperature, K = 298.15
Fixed: Pressure, kPa = 101
Property: Refractive index (Na D-line) (Liquid); method: ABBE:UFactor:2
Mole fraction of dimethyl carbonate	Refractive index (Na D-line)	uncertainty
0	1.47908	0.00066
0.0502	1.47687	0.00066
0.0999	1.47443	0.00066
0.1987	1.46971	0.00066
0.2999	1.46385	0.00065
0.3994	1.45729	0.00065
0.5006	1.44906	0.00065
0.5999	1.43953	0.00065
0.7001	1.42848	0.00065
1	1.36647	0.00064

System: dimethyl carbonate + 1-ethyl-3-methylimidazolium ethyl sulfate; phases: Liquid
Fixed: Temperature, K = 298.15
Fixed: Pressure, kPa = 101
Property: Mass density, kg/m3 (Liquid); method: VIBTUB:UFactor:4
Mole fraction of dimethyl carbonate	Mass density, kg/m3	uncertainty
0	1236.33	0.8
0.0502	1233.17	0.77
0.0999	1229.81	0.75
0.1987	1223.27	0.71
0.2999	1215.47	0.67
0.3994	1206.15	0.63
0.5006	1194.57	0.59
0.5999	1180.67	0.55
0.7001	1163.11	0.5
1	1063.28	0.28

System: dimethyl carbonate + 1-butyl-3-methylimidazolium tetrafluoroborate; phases: Liquid
Fixed: Temperature, K = 298.15
Fixed: Pressure, kPa = 101
Property: Refractive index (Na D-line) (Liquid); method: ABBE:UFactor:2
Mole fraction of dimethyl carbonate	Refractive index (Na D-line)	uncertainty
0	1.41831	0.00066
0.051	1.4176	0.00066
0.1014	1.41675	0.00066
0.1987	1.41501	0.00066
0.2999	1.41282	0.00065
0.4012	1.41049	0.00065
0.5	1.40796	0.00065
0.6005	1.40459	0.00065
0.7007	1.39931	0.00064
0.8003	1.39196	0.00064
0.9	1.38162	0.00064
1	1.36647	0.00064

System: dimethyl carbonate + 1-butyl-3-methylimidazolium tetrafluoroborate; phases: Liquid
Fixed: Temperature, K = 298.15
Fixed: Pressure, kPa = 101
Property: Mass density, kg/m3 (Liquid); method: VIBTUB:UFactor:4
Mole fraction of dimethyl carbonate	Mass density, kg/m3	uncertainty
0	1192.78	0.71
0.051	1191.17	0.69
0.1014	1189.24	0.67
0.1987	1184.98	0.64
0.2999	1179.76	0.6
0.4012	1173.39	0.57
0.5	1165.72	0.54
0.6005	1155.89	0.5
0.7007	1143.06	0.46
0.8003	1125.52	0.41
0.9	1100.22	0.35
1	1063.28	0.28

System: methanol + 1-ethyl-3-methylimidazolium ethyl sulfate; phases: Liquid
Fixed: Temperature, K = 298.15
Fixed: Pressure, kPa = 101
Property: Refractive index (Na D-line) (Liquid); method: ABBE:UFactor:2
Mole fraction of methanol	Refractive index (Na D-line)	uncertainty
0	1.47908	0.00066
0.0487	1.47873	0.00066
0.0977	1.47637	0.00066
0.1978	1.47035	0.00066
0.2989	1.46618	0.00065
0.3991	1.46462	0.00065
0.4991	1.46284	0.00065
0.5993	1.45585	0.00065
0.7002	1.43992	0.00065
0.7999	1.41722	0.00064
0.9002	1.39225	0.00064
0.9502	1.37316	0.00064
1	1.32668	0.00064

System: methanol + 1-ethyl-3-methylimidazolium ethyl sulfate; phases: Liquid
Fixed: Temperature, K = 298.15
Fixed: Pressure, kPa = 101
Property: Mass density, kg/m3 (Liquid); method: VIBTUB:UFactor:4
Mole fraction of methanol	Mass density, kg/m3	uncertainty
0	1236.33	0.8
0.0487	1232.01	0.77
0.0977	1227.32	0.75
0.1978	1216.77	0.7
0.2989	1203.48	0.65
0.3991	1186.7	0.6
0.4991	1165.38	0.55
0.5993	1137.34	0.48
0.7002	1098.94	0.4
0.7999	1043.62	0.31
0.9002	953.54	0.27
0.9502	884.35	0.36
1	786.72	0.49

System: methanol + 1-butyl-3-methylimidazolium tetrafluoroborate; phases: Liquid
Fixed: Temperature, K = 298.15
Fixed: Pressure, kPa = 101
Property: Refractive index (Na D-line) (Liquid); method: ABBE:UFactor:2
Mole fraction of methanol	Refractive index (Na D-line)	uncertainty
0	1.41831	0.00066
0.0517	1.41844	0.00066
0.104	1.41726	0.00066
0.1995	1.41454	0.00066
0.2975	1.41296	0.00065
0.3993	1.41485	0.00065
0.5002	1.41652	0.00065
0.599	1.41435	0.00065
0.6994	1.40537	0.00065
0.7997	1.39145	0.00064
0.9	1.37496	0.00064
0.9501	1.36221	0.00064
1	1.32668	0.00064

System: methanol + 1-butyl-3-methylimidazolium tetrafluoroborate; phases: Liquid
Fixed: Temperature, K = 298.15
Fixed: Pressure, kPa = 101
Property: Mass density, kg/m3 (Liquid); method: VIBTUB:UFactor:4
Mole fraction of methanol	Mass density, kg/m3	uncertainty
0	1192.78	0.71
0.0517	1188.58	0.68
0.104	1183.87	0.66
0.1995	1174.09	0.62
0.2975	1162.14	0.57
0.3993	1146.82	0.52
0.5002	1127.34	0.48
0.599	1102.37	0.42
0.6994	1067.86	0.35
0.7997	1016.59	0.26
0.9	934.6	0.29
0.9501	872.82	0.37
1	786.72	0.49

System: propan-2-ol + water + 1-ethyl-3-methylimidazolium ethyl sulfate; phases: Gas, Liquid
Fixed: Temperature, K = 333.15
Property: Mole fraction of propan-2-ol (Gas); method: CHROM:UFactor:8
Mole fraction of 1-ethyl-3-methylimidazolium ethyl sulfate	Solvent: Mole fraction of propan-2-ol	Mole fraction of propan-2-ol	uncertainty
0.1	0.011	0.0947	0.0071
0.1	0.0572	0.3067	0.0229
0.1	0.1043	0.4081	0.0305
0.1	0.15	0.4576	0.0342
0.1	0.1975	0.4994	0.0373
0.1	0.2432	0.5241	0.0356
0.1	0.2903	0.5495	0.0337
0.1	0.3368	0.5717	0.0321
0.1	0.3847	0.5967	0.0302
0.1	0.4312	0.6119	0.0291
0.1	0.4778	0.6377	0.0272
0.1	0.573	0.652	0.0261
0.1	0.6176	0.6644	0.0252
0.1	0.7115	0.7329	0.0201
0.1	0.8023	0.8011	0.015
0.1	0.8513	0.8402	0.0121
0.1	0.8955	0.8851	0.0087
0.1	0.9459	0.9401	0.0045
0.2	0.0124	0.0814	0.0061
0.2	0.0599	0.2427	0.0181
0.2	0.1087	0.3695	0.0276
0.2	0.1541	0.423	0.0316
0.2	0.2038	0.4837	0.0362
0.2	0.2491	0.5149	0.0363
0.2	0.2966	0.5419	0.0343
0.2	0.3452	0.567	0.0324
0.2	0.3922	0.5976	0.0302
0.2	0.4417	0.6222	0.0283
0.2	0.4865	0.643	0.0268
0.2	0.5333	0.6693	0.0248
0.2	0.5782	0.6895	0.0233
0.2	0.6305	0.718	0.0212
0.2	0.6745	0.7447	0.0192
0.2	0.7268	0.7733	0.0171
0.2	0.7701	0.7941	0.0155
0.2	0.8247	0.8421	0.0119
0.2	0.8696	0.8739	0.0095
0.2	0.9197	0.9074	0.007
0.2	0.9603	0.94	0.0045
0.2	0.9897	0.9637	0.0028

System: propan-2-ol + water + 1-butyl-3-methylimidazolium tetrafluoroborate; phases: Gas, Liquid
Fixed: Mole fraction of 1-butyl-3-methylimidazolium tetrafluoroborate = 0.2
Fixed: Temperature, K = 333.15
Property: Mole fraction of propan-2-ol (Gas); method: CHROM:UFactor:8
Solvent: Mole fraction of propan-2-ol	Mole fraction of propan-2-ol	uncertainty
0.0115	0.0872	0.0065
0.06	0.2469	0.0184
0.1066	0.351	0.0262
0.2018	0.4836	0.0361
0.2493	0.5387	0.0345
0.2978	0.5618	0.0328
0.3456	0.5946	0.0304
0.3902	0.6237	0.0282
0.4851	0.6614	0.0254
0.5368	0.6835	0.0238
0.5848	0.7232	0.0208
0.6316	0.744	0.0193
0.6787	0.7615	0.018
0.7282	0.7913	0.0157
0.768	0.8074	0.0145
0.8198	0.8277	0.013
0.8712	0.861	0.0105
0.9151	0.8871	0.0086
0.9197	0.9074	0.0071
0.9603	0.94	0.0046
0.9676	0.921	0.006
0.9897	0.9637	0.0028

System: methanol + dimethyl carbonate + 1-ethyl-3-methylimidazolium ethyl sulfate; phases: Gas, Liquid
Fixed: Temperature, K = 333.15
Property: Mole fraction of dimethyl carbonate (Gas); method: CHROM:UFactor:8
Mole fraction of 1-ethyl-3-methylimidazolium ethyl sulfate	Solvent: Mole fraction of dimethyl carbonate	Mole fraction of dimethyl carbonate	uncertainty
0.05	0.0105	0.007	0.0006
0.05	0.0526	0.0479	0.0036
0.05	0.1054	0.0895	0.0067
0.05	0.137	0.1032	0.0077
0.05	0.1585	0.1227	0.0091
0.05	0.2103	0.1495	0.0111
0.05	0.2429	0.1646	0.0122
0.05	0.2638	0.1727	0.0128
0.05	0.3167	0.1967	0.0146
0.05	0.3695	0.2218	0.0165
0.05	0.4217	0.2457	0.0183
0.05	0.4747	0.272	0.0202
0.05	0.5271	0.294	0.0219
0.05	0.5806	0.3256	0.0242
0.05	0.6322	0.3609	0.0269
0.05	0.6862	0.4041	0.0301
0.05	0.7385	0.4538	0.0338
0.05	0.7898	0.4921	0.0367
0.05	0.8432	0.5867	0.0308
0.05	0.8965	0.6724	0.0245
0.05	0.9489	0.7996	0.015
0.1	0.0114	0.0095	0.0007
0.1	0.0554	0.0412	0.0031
0.1	0.1001	0.0708	0.0053
0.1	0.1442	0.0972	0.0072
0.1	0.1892	0.1233	0.0092
0.1	0.2338	0.145	0.0108
0.1	0.2787	0.17	0.0126
0.1	0.3228	0.1888	0.014
0.1	0.3674	0.2225	0.0166
0.1	0.4117	0.2426	0.0181
0.1	0.4578	0.2657	0.0198
0.1	0.4989	0.2887	0.0215
0.1	0.5461	0.314	0.0234
0.1	0.5914	0.3535	0.0263
0.1	0.6346	0.3827	0.0285
0.1	0.6806	0.4184	0.0312
0.1	0.7243	0.4537	0.0338
0.1	0.7648	0.4855	0.0362
0.1	0.8115	0.541	0.0342
0.1	0.8577	0.62	0.0284
0.1	0.8988	0.6929	0.0229
0.1	0.9463	0.8084	0.0143
0.2	0.0131	0.0076	0.0006
0.2	0.0592	0.033	0.0025
0.2	0.1054	0.0573	0.0043
0.2	0.1516	0.0803	0.006
0.2	0.1981	0.1033	0.0077
0.2	0.2449	0.1256	0.0093
0.2	0.2912	0.1487	0.0111
0.2	0.3383	0.1726	0.0128
0.2	0.3838	0.1961	0.0146
0.2	0.4306	0.2218	0.0165
0.2	0.4748	0.2498	0.0186
0.2	0.5207	0.2848	0.0212
0.2	0.5696	0.3263	0.0243
0.2	0.6174	0.3601	0.0268
0.2	0.6631	0.4087	0.0304
0.2	0.7091	0.4552	0.0339
0.2	0.756	0.5118	0.0364
0.2	0.801	0.5934	0.0303
0.2	0.8468	0.6752	0.0243
0.2	0.8932	0.7654	0.0175
0.2	0.9392	0.8433	0.0117
0.2	0.9887	0.9873	0.0011

System: methanol + dimethyl carbonate + 1-butyl-3-methylimidazolium tetrafluoroborate; phases: Gas, Liquid
Fixed: Mole fraction of 1-butyl-3-methylimidazolium tetrafluoroborate = 0.2
Fixed: Temperature, K = 333.15
Property: Mole fraction of dimethyl carbonate (Gas); method: CHROM:UFactor:8
Solvent: Mole fraction of dimethyl carbonate	Mole fraction of dimethyl carbonate	uncertainty
0.0127	0.0091	0.0007
0.0588	0.0389	0.0029
0.1062	0.0684	0.0051
0.1522	0.0949	0.0071
0.1973	0.1206	0.009
0.2435	0.1428	0.0106
0.2916	0.1703	0.0127
0.3369	0.1969	0.0146
0.3833	0.2223	0.0165
0.4306	0.2505	0.0186
0.4765	0.2676	0.0199
0.5229	0.2998	0.0223
0.5697	0.3399	0.0253
0.6155	0.369	0.0275
0.6622	0.3999	0.0298
0.7078	0.438	0.0326
0.7539	0.5013	0.0372
0.7997	0.544	0.034
0.8489	0.6237	0.0281
0.8905	0.6976	0.0226
0.9395	0.8126	0.014
