Measured thermophysical data. Activity Coefficients at Infinite Dilution of Polar Solutes in 1-(2-Hydroxyethyl)-3-methylimidazolium Tetrafluoroborate Using Gas-Liquid Chromatography
Source: J. Chem. Eng. Data, 2010, 10.1021/je900704b
Compound 1: 1-(2-hydroxyethyl)-3-methylimidazolium tetrafluoroborate, C6H11BF4N2O, InChI=1S/C6H11N2O.BF4/c1-7-2-3-8(6-7)4-5-9;2-1(3,4)5/h2-3,6,9H,4-5H2,1H3;/q+1;-1, purity 95%
Compound 2: methanol, CH4O, InChI=1S/CH4O/c1-2/h2H,1H3
Compound 3: ethanol, C2H6O, InChI=1S/C2H6O/c1-2-3/h3H,2H2,1H3
Compound 4: propan-1-ol, C3H8O, InChI=1S/C3H8O/c1-2-3-4/h4H,2-3H2,1H3
Compound 5: butan-1-ol, C4H10O, InChI=1S/C4H10O/c1-2-3-4-5/h5H,2-4H2,1H3
Compound 6: pentan-1-ol, C5H12O, InChI=1S/C5H12O/c1-2-3-4-5-6/h6H,2-5H2,1H3
Compound 7: propan-2-ol, C3H8O, InChI=1S/C3H8O/c1-3(2)4/h3-4H,1-2H3
Compound 8: 2-methyl-1-propanol, C4H10O, InChI=1S/C4H10O/c1-4(2)3-5/h4-5H,3H2,1-2H3
Compound 9: butan-2-ol, C4H10O, InChI=1S/C4H10O/c1-3-4(2)5/h4-5H,3H2,1-2H3
Compound 10: 3-methylbutan-1-ol, C5H12O, InChI=1S/C5H12O/c1-5(2)3-4-6/h5-6H,3-4H2,1-2H3
Compound 11: acetonitrile, C2H3N, InChI=1S/C2H3N/c1-2-3/h1H3
Compound 12: ethyl acetate, C4H8O2, InChI=1S/C4H8O2/c1-3-6-4(2)5/h3H2,1-2H3
Compound 13: acetone, C3H6O, InChI=1S/C3H6O/c1-3(2)4/h1-2H3
Compound 14: tetrahydrofuran, C4H8O, InChI=1S/C4H8O/c1-2-4-5-3-1/h1-4H2
Compound 15: 1,4-dioxane, C4H8O2, InChI=1S/C4H8O2/c1-2-6-4-3-5-1/h1-4H2
Compound 16: dichloromethane, CH2Cl2, InChI=1S/CH2Cl2/c2-1-3/h1H2
Compound 17: trichloromethane, CHCl3, InChI=1S/CHCl3/c2-1(3)4/h1H

System: methanol + 1-(2-hydroxyethyl)-3-methylimidazolium tetrafluoroborate; phases: Liquid, Gas
Fixed: Mole fraction of methanol = 0
Property: Activity coefficient of methanol (Liquid); method: Chromatography
Temperature, K	Activity coefficient of methanol	uncertainty
303.15	1.029	0.065
313.15	0.9611	0.0604
323.15	0.9135	0.0579
333.15	0.8862	0.0564
343.15	0.8509	0.0546
353.15	0.8239	0.0532
363.15	0.8003	0.0519

System: ethanol + 1-(2-hydroxyethyl)-3-methylimidazolium tetrafluoroborate; phases: Liquid, Gas
Fixed: Mole fraction of ethanol = 0
Property: Activity coefficient of ethanol (Liquid); method: Chromatography
Temperature, K	Activity coefficient of ethanol	uncertainty
303.15	2.445	0.166
313.15	2.247	0.153
323.15	2.09	0.142
333.15	1.969	0.134
343.15	1.876	0.127
353.15	1.792	0.12
363.15	1.713	0.114

System: propan-1-ol + 1-(2-hydroxyethyl)-3-methylimidazolium tetrafluoroborate; phases: Liquid, Gas
Fixed: Mole fraction of propan-1-ol = 0
Property: Activity coefficient of propan-1-ol (Liquid); method: Chromatography
Temperature, K	Activity coefficient of propan-1-ol	uncertainty
303.15	4.763	0.324
313.15	4.35	0.296
323.15	4.037	0.275
333.15	3.703	0.252
343.15	3.49	0.238
353.15	3.268	0.222
363.15	3.094	0.211

System: butan-1-ol + 1-(2-hydroxyethyl)-3-methylimidazolium tetrafluoroborate; phases: Liquid, Gas
Fixed: Mole fraction of butan-1-ol = 0
Property: Activity coefficient of butan-1-ol (Liquid); method: Chromatography
Temperature, K	Activity coefficient of butan-1-ol	uncertainty
303.15	8.54	0.582
313.15	7.661	0.522
323.15	6.914	0.471
333.15	6.191	0.422
343.15	5.721	0.39
353.15	5.3	0.361
363.15	4.833	0.329

System: pentan-1-ol + 1-(2-hydroxyethyl)-3-methylimidazolium tetrafluoroborate; phases: Liquid, Gas
Fixed: Mole fraction of pentan-1-ol = 0
Property: Activity coefficient of pentan-1-ol (Liquid); method: Chromatography
Temperature, K	Activity coefficient of pentan-1-ol	uncertainty
313.15	12.42	0.85
323.15	10.98	0.75
333.15	10.05	0.69
343.15	9.14	0.624
353.15	8.349	0.569
363.15	7.609	0.519

System: propan-2-ol + 1-(2-hydroxyethyl)-3-methylimidazolium tetrafluoroborate; phases: Liquid, Gas
Fixed: Mole fraction of propan-2-ol = 0
Property: Activity coefficient of propan-2-ol (Liquid); method: Chromatography
Temperature, K	Activity coefficient of propan-2-ol	uncertainty
303.15	4.018	0.274
313.15	3.83	0.261
323.15	3.674	0.25
333.15	3.551	0.242
343.15	3.409	0.232
353.15	3.286	0.224
363.15	3.182	0.217

System: 2-methyl-1-propanol + 1-(2-hydroxyethyl)-3-methylimidazolium tetrafluoroborate; phases: Liquid, Gas
Fixed: Mole fraction of 2-methyl-1-propanol = 0
Property: Activity coefficient of 2-methyl-1-propanol (Liquid); method: Chromatography
Temperature, K	Activity coefficient of 2-methyl-1-propanol	uncertainty
303.15	7.863	0.536
313.15	7.184	0.49
323.15	6.551	0.447
333.15	6.099	0.416
343.15	5.688	0.388
353.15	5.272	0.359
363.15	4.938	0.336

System: butan-2-ol + 1-(2-hydroxyethyl)-3-methylimidazolium tetrafluoroborate; phases: Liquid, Gas
Fixed: Mole fraction of butan-2-ol = 0
Property: Activity coefficient of butan-2-ol (Liquid); method: Chromatography
Temperature, K	Activity coefficient of butan-2-ol	uncertainty
303.15	6.876	0.469
313.15	6.48	0.442
323.15	6.105	0.416
333.15	5.775	0.394
343.15	5.489	0.374
353.15	5.295	0.361
363.15	4.944	0.337

System: 3-methylbutan-1-ol + 1-(2-hydroxyethyl)-3-methylimidazolium tetrafluoroborate; phases: Liquid, Gas
Fixed: Mole fraction of 3-methylbutan-1-ol = 0
Property: Activity coefficient of 3-methylbutan-1-ol (Liquid); method: Chromatography
Temperature, K	Activity coefficient of 3-methylbutan-1-ol	uncertainty
313.15	11.52	0.79
323.15	10.24	0.7
333.15	9.193	0.627
343.15	8.231	0.561
353.15	7.506	0.512
363.15	6.859	0.468

System: acetonitrile + 1-(2-hydroxyethyl)-3-methylimidazolium tetrafluoroborate; phases: Liquid, Gas
Fixed: Mole fraction of acetonitrile = 0
Property: Activity coefficient of acetonitrile (Liquid); method: Chromatography
Temperature, K	Activity coefficient of acetonitrile	uncertainty
303.15	0.8495	0.0545
313.15	0.8642	0.0553
323.15	0.8781	0.056
333.15	0.8924	0.0568
343.15	0.9059	0.0575
353.15	0.9171	0.0581
363.15	0.9324	0.0589

System: ethyl acetate + 1-(2-hydroxyethyl)-3-methylimidazolium tetrafluoroborate; phases: Liquid, Gas
Fixed: Mole fraction of ethyl acetate = 0
Property: Activity coefficient of ethyl acetate (Liquid); method: Chromatography
Temperature, K	Activity coefficient of ethyl acetate	uncertainty
303.15	7.158	0.488
313.15	7.232	0.493
323.15	7.333	0.5
333.15	7.454	0.508
343.15	7.669	0.523
353.15	7.868	0.537
363.15	7.992	0.545

System: acetone + 1-(2-hydroxyethyl)-3-methylimidazolium tetrafluoroborate; phases: Liquid, Gas
Fixed: Mole fraction of acetone = 0
Property: Activity coefficient of acetone (Liquid); method: Chromatography
Temperature, K	Activity coefficient of acetone	uncertainty
303.15	1.534	0.101
313.15	1.584	0.105
323.15	1.66	0.111
333.15	1.708	0.114
343.15	1.767	0.118
353.15	1.825	0.123
363.15	1.876	0.127

System: tetrahydrofuran + 1-(2-hydroxyethyl)-3-methylimidazolium tetrafluoroborate; phases: Liquid, Gas
Fixed: Mole fraction of tetrahydrofuran = 0
Property: Activity coefficient of tetrahydrofuran (Liquid); method: Chromatography
Temperature, K	Activity coefficient of tetrahydrofuran	uncertainty
303.15	4.359	0.297
313.15	4.509	0.307
323.15	4.65	0.317
333.15	4.791	0.326
343.15	4.928	0.336
353.15	5.06	0.345
363.15	5.185	0.353

System: 1,4-dioxane + 1-(2-hydroxyethyl)-3-methylimidazolium tetrafluoroborate; phases: Liquid, Gas
Fixed: Mole fraction of 1,4-dioxane = 0
Property: Activity coefficient of 1,4-dioxane (Liquid); method: Chromatography
Temperature, K	Activity coefficient of 1,4-dioxane	uncertainty
303.15	1.567	0.104
313.15	1.814	0.122
323.15	1.757	0.118
333.15	1.938	0.131
343.15	1.945	0.132
353.15	2.138	0.145
363.15	2.121	0.144

System: dichloromethane + 1-(2-hydroxyethyl)-3-methylimidazolium tetrafluoroborate; phases: Liquid, Gas
Fixed: Mole fraction of dichloromethane = 0
Property: Activity coefficient of dichloromethane (Liquid); method: Chromatography
Temperature, K	Activity coefficient of dichloromethane	uncertainty
303.15	2.727	0.186
313.15	2.826	0.192
323.15	2.945	0.2
333.15	3.055	0.208
343.15	3.184	0.217
353.15	3.289	0.224
363.15	3.376	0.23

System: trichloromethane + 1-(2-hydroxyethyl)-3-methylimidazolium tetrafluoroborate; phases: Liquid, Gas
Fixed: Mole fraction of trichloromethane = 0
Property: Activity coefficient of trichloromethane (Liquid); method: Chromatography
Temperature, K	Activity coefficient of trichloromethane	uncertainty
303.15	4.239	0.289
313.15	4.382	0.298
323.15	4.468	0.304
333.15	4.551	0.31
343.15	4.668	0.318
353.15	4.778	0.326
363.15	4.855	0.331
