Measured thermophysical data. Heat Capacity of Ionic Liquids: Experimental Determination and Correlations with Molar Volume
Source: J. Chem. Eng. Data, 2010, 10.1021/je900974u
Compound 1: 1-methyl-3-propylimidazolium bromide, C7H13BrN2, InChI=1S/C7H13N2.BrH/c1-3-4-9-6-5-8(2)7-9;/h5-7H,3-4H2,1-2H3;1H/q+1;/p-1, purity 98.7%
Compound 2: 1-butyl-3-methylimidazolium dicyanamide, C10H15N5, InChI=1S/C8H15N2.C2N3/c1-3-4-5-10-7-6-9(2)8-10;3-1-5-2-4/h6-8H,3-5H2,1-2H3;/q+1;-1, purity 97.9%
Compound 3: 1-ethyl-3-methylimidazolium ethyl sulfate, C8H16N2O4S, InChI=1S/C6H11N2.C2H6O4S/c1-3-8-5-4-7(2)6-8;1-2-6-7(3,4)5/h4-6H,3H2,1-2H3;2H2,1H3,(H,3,4,5)/q+1;/p-1, purity 99%
Compound 4: 1-butyl-3-methylimidazolium tetrafluoroborate, C8H15BF4N2, InChI=1S/C8H15N2.BF4/c1-3-4-5-10-7-6-9(2)8-10;2-1(3,4)5/h6-8H,3-5H2,1-2H3;/q+1;-1, purity 99%
Compound 5: 1-butyl-3-methylimidazolium trifluoromethanesulfonate, C9H15F3N2O3S, InChI=1S/C8H15N2.CHF3O3S/c1-3-4-5-10-7-6-9(2)8-10;2-1(3,4)8(5,6)7/h6-8H,3-5H2,1-2H3;(H,5,6,7)/q+1;/p-1
Compound 6: 1-methyl-3-octylimidazolium tetrafluoroborate, C12H23BF4N2, InChI=1S/C12H23N2.BF4/c1-3-4-5-6-7-8-9-14-11-10-13(2)12-14;2-1(3,4)5/h10-12H,3-9H2,1-2H3;/q+1;-1, purity 99.4%
Compound 7: 1-tetradecyl-3-methylimidazolium bis(trifluoromethylsulfonyl)imide, C20H35F6N3O4S2, InChI=1S/C18H35N2.C2F6NO4S2/c1-3-4-5-6-7-8-9-10-11-12-13-14-15-20-17-16-19(2)18-20;3-1(4,5)14(10,11)9-15(12,13)2(6,7)8/h16-18H,3-15H2,1-2H3;/q+1;-1
Compound 8: butyltrimethylammonium bis(trifluoromethylsulfonyl)imide, C9H18F6N2O4S2, InChI=1S/C7H18N.C2F6NO4S2/c1-5-6-7-8(2,3)4;3-1(4,5)14(10,11)9-15(12,13)2(6,7)8/h5-7H2,1-4H3;/q+1;-1
Compound 9: 1-butyl-1-methylpyrrolidinium bis[(trifluoromethyl)sulfonyl]imide, C11H20F6N2O4S2, InChI=1S/C9H20N.C2F6NO4S2/c1-3-4-7-10(2)8-5-6-9-10;3-1(4,5)14(10,11)9-15(12,13)2(6,7)8/h3-9H2,1-2H3;/q+1;-1

System: 1-methyl-3-propylimidazolium bromide; phases: Crystal, Liquid, Air at 1 atmosphere
Property: Molar enthalpy of transition or fusion, kJ/mol (Crystal); method: Adiabatic calorimetry
Molar enthalpy of transition or fusion, kJ/mol	uncertainty
19.2	0.1

System: 1-methyl-3-propylimidazolium bromide; phases: Crystal, Liquid, Gas
Property: Triple point temperature, K (Crystal); method: ADIACA:UFactor:8
Triple point temperature, K	uncertainty
309.56	0.4

System: 1-methyl-3-propylimidazolium bromide; phases: Liquid
Fixed: Pressure, kPa = 101.325
Property: Molar heat capacity at constant pressure, J/K/mol (Liquid); method: Vacuum adiabatic calorimetry
Temperature, K	Molar heat capacity at constant pressure, J/K/mol	uncertainty
222.57	260	0.5
224.61	260.5	0.5
226.66	260.8	0.5
228.71	261.3	0.5
230.76	261.7	0.5
232.81	262.1	0.5
234.85	262.7	0.5
236.9	263.1	0.5
238.95	263.5	0.5
241	264	0.5
243.05	264.4	0.5
245.1	264.9	0.5
247.15	265.4	0.5
249.2	266	0.5
251.25	266.5	0.5
253.31	267.1	0.5
255.36	267.6	0.5
257.41	268.2	0.5
259.46	268.8	0.5
261.51	269.5	0.5
263.56	270	0.5
265.62	270.6	0.5
267.67	271.2	0.5
269.72	271.8	0.5
271.77	272.5	0.5
273.82	273.2	0.5
275.87	273.8	0.5
277.92	274.5	0.5
279.98	275.1	0.5
282.03	275.8	0.5
284.08	276.4	0.5
286.13	277	0.5
288.18	277.8	0.5
290.23	278.4	0.5
292.28	279.1	0.5
294.33	279.7	0.5
296.39	280.4	0.5
298.44	281	0.5
300.49	281.7	0.5
302.54	282.4	0.5
304.59	283	0.5
306.64	283.7	0.5
308.7	284.4	0.5
310.75	285	0.5
312.8	285.7	0.5
314.85	286.4	0.5
316.91	287.1	0.5
318.96	287.7	0.5
321.01	288.5	0.5
323.07	289.2	0.5
325.12	289.8	0.5
327.18	290.6	0.5
329.23	291.4	0.5
331.28	292.1	0.5
333.34	292.9	0.5
335.39	293.6	0.5
337.45	294.3	0.5
339.5	295.1	0.5
341.56	295.9	0.5
343.61	296.7	0.5
345.67	297.3	0.5
347.73	298.2	0.5
349.78	299.2	0.5
351.84	299.9	0.5
353.9	300.7	0.5
355.95	301.4	0.5
358.01	302.2	0.5
360.06	303.1	0.5
362.12	303.8	0.5
364.17	304.6	0.5
366.23	305.4	0.5
368.28	306.3	0.5

System: 1-methyl-3-propylimidazolium bromide; phases: Liquid
Fixed: Pressure, kPa = 101.325
Property: Mass density, kg/m3 (Liquid); method: Pycnometric method
Temperature, K	Mass density, kg/m3	uncertainty
302.71	1355.9	1.4
307.7	1352.4	1.4
312.7	1348.9	1.4
317.71	1345.4	1.4
322.7	1341.9	1.4
327.7	1338.5	1.4
332.7	1335	1.4
337.69	1331.6	1.4
342.68	1328.2	1.4
347.68	1324.9	1.4
352.67	1321.6	1.4
357.67	1318.3	1.5

System: 1-butyl-3-methylimidazolium dicyanamide; phases: Crystal, Liquid, Air at 1 atmosphere
Property: Molar enthalpy of transition or fusion, kJ/mol (Crystal); method: Adiabatic calorimetry
Molar enthalpy of transition or fusion, kJ/mol	uncertainty
17.8	0.1

System: 1-butyl-3-methylimidazolium dicyanamide; phases: Crystal, Liquid, Gas
Property: Triple point temperature, K (Crystal); method: ADIACA:UFactor:12
Triple point temperature, K	uncertainty
270.83	0.6

System: 1-butyl-3-methylimidazolium dicyanamide; phases: Liquid
Fixed: Pressure, kPa = 101.325
Property: Molar heat capacity at constant pressure, J/K/mol (Liquid); method: Vacuum adiabatic calorimetry
Temperature, K	Molar heat capacity at constant pressure, J/K/mol	uncertainty
235.8	355.9	0.6
237.81	356.5	0.6
239.87	356.9	0.6
241.93	357.5	0.6
243.99	357.9	0.6
246.05	358.6	0.6
248.11	359.2	0.6
249.31	359.4	0.6
250.17	359.8	0.6
251.33	360.2	0.6
252.23	360.4	0.6
253.39	360.8	0.6
254.29	360.8	0.6
255.46	361.2	0.6
256.35	361.4	0.6
257.53	362	0.6
258.41	362	0.6
259.59	362.7	0.6
260.48	362.7	0.6
261.66	363.3	0.6
262.54	363.5	0.6
263.72	363.9	0.6
264.6	364.1	0.6
265.79	364.7	0.6
266.66	364.7	0.6
267.86	365.3	0.6
268.72	365.3	0.6
269.92	365.9	0.6
270.79	366.1	0.6
271.99	366.5	0.6
272.85	366.8	0.6
274.05	367.2	0.6
274.91	367.4	0.6
276.12	368	0.6
278.19	368.6	0.6
280.25	369.4	0.6
282.32	370	0.6
284.39	370.9	0.6
286.45	371.5	0.6
288.52	372.3	0.6
290.59	372.9	0.6
292.65	373.7	0.6
294.72	374.5	0.6
296.78	375.4	0.6
298.85	376.2	0.6
300.92	376.8	0.6
302.98	377.6	0.6
305.05	378.4	0.6
307.12	379.1	0.6
309.18	379.9	0.6
311.25	380.7	0.6
313.32	381.5	0.6
315.39	382.3	0.6
317.46	382.9	0.6
319.53	383.8	0.6
321.6	384.8	0.6
323.67	385.6	0.6
325.73	386.4	0.6
327.8	387	0.6
329.87	388.1	0.6
331.94	388.9	0.6
334.01	389.7	0.6
336.08	390.5	0.6
338.15	391.1	0.6
340.22	392	0.6
342.29	392.8	0.6
344.36	393.6	0.6
346.43	394.4	0.6
348.5	395.5	0.6
350.57	396.3	0.6
352.65	397.1	0.6
354.72	397.9	0.6
356.79	398.9	0.6
358.86	399.6	0.6
360.93	400.6	0.6
363	401.4	0.6
365.07	402.2	0.6
367.14	403.2	0.6

System: 1-ethyl-3-methylimidazolium ethyl sulfate; phases: Liquid
Fixed: Pressure, kPa = 101.325
Property: Molar heat capacity at constant pressure, J/K/mol (Liquid); method: Vacuum adiabatic calorimetry
Temperature, K	Molar heat capacity at constant pressure, J/K/mol	uncertainty
191.13	354.4	0.6
193.05	354.6	0.6
194.98	354.9	0.6
196.91	355.1	0.6
198.84	355.3	0.6
200.77	355.7	0.6
202.71	355.9	0.6
204.64	356.3	0.6
206.57	356.6	0.6
208.5	356.9	0.6
210.44	357.2	0.6
212.37	357.5	0.6
214.3	357.9	0.6
216.24	358.3	0.6
218.18	358.7	0.6
220.11	359.2	0.6
222.05	359.6	0.6
223.98	360.1	0.6
225.92	360.4	0.6
227.86	360.9	0.6
229.8	361.4	0.6
231.74	362.1	0.6
233.68	362.5	0.6
235.62	363	0.6
237.56	363.5	0.6
239.5	364	0.6
241.43	364.6	0.6
243.37	365.1	0.6
245.32	365.6	0.6
247.26	366.2	0.6
249.2	366.8	0.6
251.14	367.4	0.6
253.08	367.9	0.6
255.02	368.5	0.6
256.96	369.1	0.6
258.9	369.9	0.6
260.85	370.3	0.6
262.79	371	0.6
264.73	371.7	0.6
266.67	372.1	0.6
268.62	372.7	0.6
270.55	373.4	0.6
272.5	374.1	0.6
274.44	374.8	0.6
276.38	375.1	0.6
278.32	375.6	0.6
280.25	376.5	0.6
282.2	377	0.6
284.14	377.6	0.6
286.08	378.2	0.6
288.03	378.7	0.6
289.97	379.4	0.6
291.91	380.2	0.6
293.85	381	0.6
295.79	381.9	0.6
297.74	382.6	0.6
299.68	383.5	0.6
301.62	384.2	0.6
303.56	385	0.6
305.51	385.9	0.6
307.45	386.7	0.6
309.39	387.5	0.6
311.33	388.6	0.6
313.28	389.5	0.6
315.22	390.4	0.6
317.16	391.4	0.6
319.11	392.2	0.6
321.05	393.2	0.6
322.99	394	0.6
324.93	395	0.6
326.88	395.9	0.6
328.82	396.9	0.6
330.77	397.7	0.6
332.71	398.5	0.6
334.66	399.7	0.6
336.6	400.5	0.6
338.54	401.4	0.6
340.49	402.7	0.6
342.43	403.5	0.6
344.38	404.4	0.6
346.32	405.7	0.6
348.27	406.7	0.6
350.21	407.8	0.6
352.15	408.8	0.6
354.1	409.7	0.6
356.04	410.8	0.6
357.98	411.9	0.6
359.92	412.8	0.6
361.86	413.9	0.6
363.8	414.9	0.6
365.75	415.9	0.6
367.69	416.8	0.6

System: 1-butyl-3-methylimidazolium tetrafluoroborate; phases: Liquid
Fixed: Pressure, kPa = 101.325
Property: Molar heat capacity at constant pressure, J/K/mol (Liquid); method: Vacuum adiabatic calorimetry
Temperature, K	Molar heat capacity at constant pressure, J/K/mol	uncertainty
189.66	332	0.5
191.85	332.1	0.5
194.05	332.1	0.5
196.25	332.7	0.5
198.46	332.8	0.5
200.67	333.2	0.5
202.89	333.7	0.5
205.12	334	0.5
207.35	334.5	0.5
209.58	335	0.5
211.82	335.5	0.5
214.06	335.9	0.5
216.3	336.8	0.5
218.55	337.2	0.5
220.8	337.8	0.5
223.05	338.8	0.5
225.31	339.2	0.5
227.56	339.9	0.5
229.82	340.4	0.5
232.09	340.9	0.5
236.62	342.8	0.5
238.89	343.3	0.5
241.18	344.4	0.5
243.46	345.4	0.5
245.73	345.8	0.5
248.01	346.6	0.5
250.29	347.5	0.6
252.57	348.5	0.6
254.85	349	0.6
257.13	350.2	0.6
259.41	351	0.6
261.7	351.4	0.6
263.98	352.6	0.6
266.27	353.5	0.6
268.56	354.6	0.6
270.84	355.7	0.6
273.13	356.4	0.6
275.42	357.4	0.6
277.72	358.3	0.6
280.02	359.2	0.6
282.31	360.2	0.6
284.6	361.6	0.6
286.89	362.1	0.6
289.17	363.3	0.6
291.46	364.2	0.6
293.74	365.4	0.6
296.02	366.3	0.6
298.3	367	0.6
300.57	368.2	0.6
302.84	368.7	0.6
305.11	370	0.6
307.38	371.1	0.6
309.64	372.6	0.6
311.9	373.5	0.6
314.16	374.2	0.6
316.43	375.5	0.6
318.69	376.9	0.6
320.95	377.9	0.6
323.2	378.9	0.6
325.45	379.6	0.6
327.7	381.1	0.6
329.95	381.9	0.6
332.2	382.6	0.6
334.45	384.1	0.6
336.69	384.9	0.6
338.94	386	0.6
341.18	387.3	0.6
343.42	388.6	0.6
345.66	389.8	0.6
347.9	390.7	0.6
350.14	391.8	0.6
352.38	392.4	0.6
354.62	393.9	0.6
356.85	394.2	0.6
359.08	395.7	0.6
361.31	396.6	0.6
363.54	397.9	0.6
365.76	399	0.6
367.98	400.1	0.6

System: 1-butyl-3-methylimidazolium trifluoromethanesulfonate; phases: Crystal, Liquid, Air at 1 atmosphere
Property: Molar enthalpy of transition or fusion, kJ/mol (Crystal); method: Adiabatic calorimetry
Molar enthalpy of transition or fusion, kJ/mol	uncertainty
19.4	0.1

System: 1-butyl-3-methylimidazolium trifluoromethanesulfonate; phases: Crystal, Liquid, Gas
Property: Triple point temperature, K (Crystal); method: ADIACA:UFactor:4
Triple point temperature, K	uncertainty
290.98	0.2

System: 1-butyl-3-methylimidazolium trifluoromethanesulfonate; phases: Liquid
Fixed: Pressure, kPa = 101.325
Property: Molar heat capacity at constant pressure, J/K/mol (Liquid); method: Vacuum adiabatic calorimetry
Temperature, K	Molar heat capacity at constant pressure, J/K/mol	uncertainty
292.86	425	0.6
294.76	425.9	0.6
296.65	427	0.6
298.54	427.9	0.6
300.43	429.1	0.6
302.38	429.6	0.6
304.36	431.1	0.6
306.35	431.9	0.6
308.34	433.1	0.6
310.33	434	0.6
312.32	435.1	0.6
314.31	436.3	0.6
316.3	437.1	0.6
318.29	438.3	0.6
320.27	439.1	0.6
322.26	440.6	0.6
324.25	441.4	0.6
326.24	442.6	0.6
328.22	443.8	0.6
330.2	444.6	0.6
332.19	445.8	0.6
334.17	446.9	0.6
336.15	447.8	0.7
338.13	448.9	0.7
340.11	449.8	0.7
342.09	451	0.7
344.07	452.1	0.7
346.05	453.3	0.7
348.03	454.3	0.7
350	455.5	0.7
351.98	456.3	0.7
353.96	457.8	0.7
355.94	458.6	0.7
357.92	459.5	0.7
359.89	460.7	0.7
361.87	462.1	0.7
363.84	463	0.7
365.81	464.1	0.7
367.78	465	0.7

System: 1-methyl-3-octylimidazolium tetrafluoroborate; phases: Crystal, Liquid, Air at 1 atmosphere
Property: Molar enthalpy of transition or fusion, kJ/mol (Crystal); method: Adiabatic calorimetry
Molar enthalpy of transition or fusion, kJ/mol	uncertainty
14.7	0.1

System: 1-methyl-3-octylimidazolium tetrafluoroborate; phases: Crystal, Liquid, Gas
Property: Triple point temperature, K (Crystal); method: ADIACA:UFactor:6
Triple point temperature, K	uncertainty
245.75	0.3

System: 1-methyl-3-octylimidazolium tetrafluoroborate; phases: Liquid
Fixed: Pressure, kPa = 101.325
Property: Molar heat capacity at constant pressure, J/K/mol (Liquid); method: Vacuum adiabatic calorimetry
Temperature, K	Molar heat capacity at constant pressure, J/K/mol	uncertainty
195.88	466.3	0.7
197.4	465.8	0.7
198.93	465.5	0.7
200.46	464.9	0.7
202.1	464.6	0.7
203.86	464.1	0.7
205.61	463.8	0.7
207.37	463.5	0.7
209.14	463.2	0.7
210.91	463.2	0.7
212.69	463.2	0.7
214.47	463.2	0.7
216.25	463.5	0.7
218.04	463.5	0.7
218.59	463.5	0.7
219.83	463.8	0.7
220.61	463.8	0.7
221.62	464.1	0.7
222.57	464.1	0.7
223.42	464.4	0.7
224.52	464.6	0.7
225.22	464.6	0.7
226.48	464.9	0.7
227.02	464.9	0.7
228.43	465.5	0.7
228.83	465.5	0.7
230.39	466.1	0.7
230.63	466.3	0.7
232.35	466.3	0.7
234.3	466.6	0.7
236.26	467.5	0.7
238.22	468	0.7
240.18	468.6	0.7
242.14	469.4	0.7
244.1	470.3	0.7
246.06	470.8	0.7
247.53	471.7	0.7
248.02	471.7	0.7
249.36	472.5	0.7
249.99	472.5	0.7
251.18	473.1	0.7
251.95	473.4	0.7
253	473.7	0.7
253.91	474.2	0.7
254.83	474.5	0.7
255.87	475.1	0.7
256.65	475.4	0.7
257.83	476.2	0.7
258.48	476.2	0.7
260.3	477.3	0.7
262.13	478.2	0.7
263.95	479	0.7
265.78	480.1	0.7
267.6	481	0.7
269.43	482.1	0.7
271.26	483	0.7
273.08	483.8	0.7
274.91	484.6	0.7
276.74	486.1	0.7
278.57	486.9	0.7
280.39	488	0.7
282.22	488.9	0.7
284.05	490	0.7
285.87	490.8	0.7
287.7	492	0.7
289.53	493.1	0.7
291.35	494.2	0.7
293.18	495.1	0.7
295	496.2	0.7
296.83	497.3	0.7
298.65	498.2	0.7
300.48	499.3	0.7
302.36	500.4	0.7
304.29	501.6	0.7
306.22	502.7	0.7
308.16	503.8	0.7
310.09	504.9	0.7
312.02	505.8	0.7
313.95	507.2	0.7
315.89	508.3	0.7
317.82	509.4	0.7
319.75	510.6	0.7
321.68	512	0.7
323.62	513.1	0.7
325.55	514.2	0.7
327.48	515.1	0.7
329.41	516.5	0.7
331.34	517.9	0.7
333.27	519.3	0.7
335.19	520.4	0.7
337.12	521.8	0.7
339.05	523	0.7
340.97	524.4	0.7
342.9	525.5	0.7
344.82	526.6	0.7
346.75	528	0.7
348.68	529.5	0.7
350.6	530.9	0.7
352.53	532.3	0.7
354.45	533.4	0.7
356.38	534.8	0.7
358.3	535.9	0.7
360.22	537.3	0.7
362.14	539	0.7
364.06	539.9	0.7
365.98	541.3	0.7
367.89	542.7	0.7

System: 1-tetradecyl-3-methylimidazolium bis(trifluoromethylsulfonyl)imide; phases: Crystal, Liquid, Air at 1 atmosphere
Property: Molar enthalpy of transition or fusion, kJ/mol (Crystal); method: Adiabatic calorimetry
Molar enthalpy of transition or fusion, kJ/mol	uncertainty
39.9	0.1

System: 1-tetradecyl-3-methylimidazolium bis(trifluoromethylsulfonyl)imide; phases: Crystal, Liquid, Gas
Property: Triple point temperature, K (Crystal); method: ADIACA:UFactor:12
Triple point temperature, K	uncertainty
308.72	0.6

System: 1-tetradecyl-3-methylimidazolium bis(trifluoromethylsulfonyl)imide; phases: Liquid
Fixed: Pressure, kPa = 101.325
Property: Molar heat capacity at constant pressure, J/K/mol (Liquid); method: Vacuum adiabatic calorimetry
Temperature, K	Molar heat capacity at constant pressure, J/K/mol	uncertainty
309.98	896.3	1.1
310.38	898	1.1
311.13	898.7	1.1
312.28	899.5	1.1
312.7	900.9	1.1
313.43	900.5	1.1
314.58	902.3	1.1
315.01	903.4	1.1
315.73	903.4	1.1
316.88	904.2	1.1
317.32	905.3	1.1
318.04	904	1.1
319.19	906.1	1.1
319.63	907.1	1.1
320.34	907.5	1.1
321.49	908.6	1.1
321.94	909.6	1.1
322.64	909.2	1.1
323.79	910.6	1.1
324.94	913.1	1.1
326.1	913.5	1.1
327.25	914.4	1.1
328.4	915.1	1.1
329.55	915.9	1.1
330.69	918.6	1.1
331.84	918.3	1.1
332.99	919.1	1.1
334.14	920.6	1.1
335.29	922.4	1.1
336.45	923	1.1
337.6	924.6	1.1
338.75	925.5	1.1
339.89	926.2	1.1
341.04	927.4	1.1
342.19	927.9	1.1
343.33	929.9	1.1
344.48	930.4	1.1
345.62	931.8	1.1
346.77	933.1	1.1
347.91	933.9	1.1
349.06	935.2	1.1
350.2	936.7	1.1
351.91	939.3	1.1
354.21	941.3	1.1
356.51	943.4	1.1
358.83	945.8	1.1
361.14	947.9	1.1
363.45	949.8	1.2
365.76	951.8	1.2
368.07	953.3	1.2

System: butyltrimethylammonium bis(trifluoromethylsulfonyl)imide; phases: Crystal, Liquid, Air at 1 atmosphere
Property: Molar enthalpy of transition or fusion, kJ/mol (Crystal); method: Adiabatic calorimetry
Molar enthalpy of transition or fusion, kJ/mol	uncertainty
11.4	0.1

System: butyltrimethylammonium bis(trifluoromethylsulfonyl)imide; phases: Crystal, Liquid, Gas
Property: Triple point temperature, K (Crystal); method: ADIACA:UFactor:4
Triple point temperature, K	uncertainty
290.23	0.2

System: butyltrimethylammonium bis(trifluoromethylsulfonyl)imide; phases: Liquid
Fixed: Pressure, kPa = 101.325
Property: Molar heat capacity at constant pressure, J/K/mol (Liquid); method: Vacuum adiabatic calorimetry
Temperature, K	Molar heat capacity at constant pressure, J/K/mol	uncertainty
278.32	547.5	0.7
280.19	548.7	0.8
282.06	549.7	0.8
283.93	550.8	0.8
285.8	551.9	0.8
287.67	553	0.8
289.54	554.1	0.8
291.42	555.3	0.8
293.29	556.4	0.8
293.87	557	0.8
295.16	557.4	0.8
297.04	558.4	0.8
298	559.2	0.8
298.91	559.5	0.8
300.04	560.4	0.8
302.07	561.1	0.8
304.14	563.3	0.8
306.21	563.9	0.8
308.28	565.4	0.8
310.35	566.5	0.8
312.42	568.2	0.8
314.49	569.1	0.8
316.55	570.3	0.8
318.6	571.4	0.8
320.67	573.2	0.8
322.73	575.1	0.8
324.8	575	0.8
326.86	576.5	0.8
328.92	577.2	0.8
330.98	578.5	0.8
333.04	580.6	0.8
335.09	581.5	0.8
337.15	582.9	0.8
339.2	584.1	0.8
341.26	585.7	0.8
343.31	586.6	0.8
345.36	587.7	0.8
347.41	588.6	0.8
349.46	590.1	0.8
351.49	591.1	0.8
353.54	592.1	0.8
355.59	593.4	0.8
357.65	594.8	0.8
359.7	596	0.8
361.76	597.4	0.8
363.81	598.5	0.8
365.87	599.8	0.8
367.93	600.9	0.8

System: 1-butyl-1-methylpyrrolidinium bis[(trifluoromethyl)sulfonyl]imide; phases: Crystal, Liquid, Air at 1 atmosphere
Property: Molar enthalpy of transition or fusion, kJ/mol (Crystal); method: Adiabatic calorimetry
Molar enthalpy of transition or fusion, kJ/mol	uncertainty
21.9	0.1

System: 1-butyl-1-methylpyrrolidinium bis[(trifluoromethyl)sulfonyl]imide; phases: Crystal, Liquid, Gas
Property: Triple point temperature, K (Crystal); method: ADIACA:UFactor:4
Triple point temperature, K	uncertainty
265.65	0.2

System: 1-butyl-1-methylpyrrolidinium bis[(trifluoromethyl)sulfonyl]imide; phases: Liquid
Fixed: Pressure, kPa = 101.325
Property: Molar heat capacity at constant pressure, J/K/mol (Liquid); method: Vacuum adiabatic calorimetry
Temperature, K	Molar heat capacity at constant pressure, J/K/mol	uncertainty
237.44	546.8	0.7
239.5	548	0.8
241.39	549	0.8
243.28	550.7	0.8
245.17	552.2	0.8
247.06	553.5	0.8
248.95	554.6	0.8
250.84	556	0.8
252.73	557.3	0.8
254.62	558.7	0.8
256.51	559.6	0.8
258.4	561.5	0.8
260.29	562.1	0.8
262.04	563.9	0.8
262.18	563.5	0.8
264.07	565.2	0.8
264.1	565.2	0.8
265.99	566.6	0.8
267.88	567.6	0.8
269.77	568.9	0.8
271.66	570.2	0.8
273.55	571.6	0.8
275.44	572.9	0.8
277.33	574.2	0.8
279.22	575.3	0.8
281.11	576.6	0.8
283	577.9	0.8
284.89	579.2	0.8
286.78	580.2	0.8
288.67	581.4	0.8
290.56	582.8	0.8
292.45	584	0.8
294.34	585.1	0.8
296.23	586.3	0.8
298.12	588	0.8
300.01	589	0.8
301.9	590.6	0.8
303.79	591.8	0.8
305.68	593	0.8
307.57	594.5	0.8
309.46	595.6	0.8
311.34	596.7	0.8
313.23	598.2	0.8
315.12	599.6	0.8
317.02	600.8	0.8
318.92	602.2	0.8
320.82	603.4	0.8
322.71	604.5	0.8
324.61	606.1	0.8
326.51	607.5	0.8
328.41	608.6	0.8
330.31	609.9	0.8
332.21	611.4	0.8
334.11	612.9	0.8
336.01	614.2	0.8
337.91	615.4	0.8
339.81	616.8	0.8
341.72	618.2	0.8
343.62	619.5	0.8
345.52	621	0.8
347.44	622.4	0.8
349.34	623.9	0.8
351.25	625.2	0.8
353.16	626.7	0.8
355.06	627.9	0.8
356.97	629.2	0.8
358.87	630.9	0.8
360.78	632.1	0.8
362.69	633.7	0.8
364.59	635	0.8
366.5	636.1	0.8
368.4	638	0.8
