Measured thermophysical data. Thermodynamic Studies of 10-hydroxy-Camptothecin in Aqueous Solutions
Source: J. Chem. Eng. Data, 2010, 10.1021/je900283v
Compound 1: 20-(S)-4-ethyl-4,9-dihydroxy-1H-pyrano(3',4':6,7)indolizino(1,2-b)quinoline-3,14 (4H, 12H)-dione, C20H16N2O5, InChI=1S/C20H16N2O5/c1-2-20(26)14-7-16-17-11(5-10-6-12(23)3-4-15(10)21-17)8-22(16)18(24)13(14)9-27-19(20)25/h3-7,23,26H,2,8-9H2,1H3/t20-/m0/s1, purity 98%

System: 20-(S)-4-ethyl-4,9-dihydroxy-1H-pyrano(3',4':6,7)indolizino(1,2-b)quinoline-3,14 (4H, 12H)-dione; phases: Crystal, Liquid, Gas
Property: Molar enthalpy of transition or fusion, kJ/mol (Crystal); method: DSC
Molar enthalpy of transition or fusion, kJ/mol	uncertainty
53.38	1.44

System: 20-(S)-4-ethyl-4,9-dihydroxy-1H-pyrano(3',4':6,7)indolizino(1,2-b)quinoline-3,14 (4H, 12H)-dione; phases: Crystal, Liquid, Air at 1 atmosphere
Property: Normal melting temperature, K (Crystal); method: DTA
Normal melting temperature, K	uncertainty
467.15	1
