Measured thermophysical data. Transfer Properties of Amino Acids from Water to Aqueous Sodium Sulfate Solutions at 298.15 K
Source: J. Chem. Eng. Data, 2009, 10.1021/je900218z
Compound 1: water, H2O, InChI=1S/H2O/h1H2
Compound 2: sodium sulfate, Na2O4S, InChI=1S/2Na.H2O4S/c;;1-5(2,3)4/h;;(H2,1,2,3,4)/q2*+1;/p-2
Compound 3: 2-aminoacetic acid, C2H5NO2, InChI=1S/C2H5NO2/c3-1-2(4)5/h1,3H2,(H,4,5)
Compound 4: (S)-2-aminopropanoic acid, C3H7NO2, InChI=1S/C3H7NO2/c1-2(4)3(5)6/h2H,4H2,1H3,(H,5,6)/t2-/m0/s1
Compound 5: L-serine, C3H7NO3, InChI=1S/C3H7NO3/c4-2(1-5)3(6)7/h2,5H,1,4H2,(H,6,7)/t2-/m0/s1

System: water + sodium sulfate; phases: Liquid
Fixed: Pressure, kPa = 101
Fixed: Temperature, K = 298.15
Property: Mass density, kg/m3 (Liquid); method: VIBTUB:UFactor:6
Molality, mol/kg of sodium sulfate	Mass density, kg/m3	uncertainty
0.2	1021.93	0.32
0.4999	1057.3	0.4
0.4999	1057.32	0.4
0.4999	1057.31	0.403
0.6999	1079.92	0.46
0.6999	1079.94	0.46
0.6999	1079.93	0.46
0.9868	1111.12	0.54
0.9979	1112.28	0.54
0.9999	1112.48	0.54
1.196	1133.04	0.59
1.1998	1133.46	0.59
1.2001	1133.45	0.59

System: 2-aminoacetic acid + water + sodium sulfate; phases: Liquid
Fixed: Pressure, kPa = 101
Fixed: Temperature, K = 298.15
Fixed: Molality, mol/kg of 2-aminoacetic acid = 0
Property: Molar enthalpy of solution, kJ/mol (Liquid); method: microcalorimetry
Solvent: Molality, mol/kg of sodium sulfate	Molar enthalpy of solution, kJ/mol	uncertainty
0	14.15	0.41
0.1999	13.85	0.4
0.4986	13.58	0.4
0.7004	13.23	0.39
0.9979	12.9	0.38
1.2	12.78	0.37

System: 2-aminoacetic acid + water + sodium sulfate; phases: Liquid
Fixed: Pressure, kPa = 101
Fixed: Temperature, K = 298.15
Property: Mass density, kg/m3 (Liquid); method: VIBTUB:UFactor:6
Molality, mol/kg of sodium sulfate	Molality, mol/kg of 2-aminoacetic acid	Mass density, kg/m3	uncertainty
0.2	0	1021.93	0.32
0.2	0.1171	1025.43	0.33
0.2	0.1624	1026.77	0.33
0.2	0.2705	1029.93	0.34
0.2	0.3482	1032.18	0.34
0.2	0.4486	1035.04	0.35
0.2	0.5666	1038.36	0.36
0.4999	0	1057.3	0.4
0.4999	0.1044	1060.2	0.41
0.4999	0.1623	1061.79	0.41
0.4999	0.2655	1064.6	0.42
0.4999	0.3604	1067.14	0.43
0.4999	0.4737	1070.13	0.43
0.4999	0.5653	1072.53	0.44
0.6999	0	1079.92	0.46
0.6999	0.1019	1082.61	0.46
0.6999	0.1596	1084.11	0.47
0.6999	0.2296	1085.92	0.47
0.6999	0.3329	1088.56	0.48
0.6999	0.4428	1091.34	0.49
0.6999	0.5563	1094.16	0.49
0.9868	0	1111.12	0.54
0.9868	0.1038	1113.66	0.54
0.9868	0.1834	1115.59	0.55
0.9868	0.236	1116.85	0.55
0.9868	0.3413	1119.36	0.56
0.9868	0.4352	1121.57	0.56
0.9868	0.5189	1123.52	0.57
1.196	0	1133.04	0.59
1.196	0.1087	1135.56	0.6
1.196	0.1732	1137.04	0.6
1.196	0.2843	1139.56	0.61
1.196	0.3971	1142.08	0.62
1.196	0.4858	1144.04	0.62
1.196	0.5539	1145.53	0.63

System: (S)-2-aminopropanoic acid + water + sodium sulfate; phases: Liquid
Fixed: Pressure, kPa = 101
Fixed: Temperature, K = 298.15
Fixed: Molality, mol/kg of (S)-2-aminopropanoic acid = 0
Property: Molar enthalpy of solution, kJ/mol (Liquid); method: microcalorimetry
Solvent: Molality, mol/kg of sodium sulfate	Molar enthalpy of solution, kJ/mol	uncertainty
0	7.57	0.22
0.2	7.6	0.22
0.5	7.68	0.22
0.6999	7.76	0.23
0.9993	7.85	0.23
1.2	7.95	0.23

System: (S)-2-aminopropanoic acid + water + sodium sulfate; phases: Liquid
Fixed: Pressure, kPa = 101
Fixed: Temperature, K = 298.15
Property: Mass density, kg/m3 (Liquid); method: VIBTUB:UFactor:6
Molality, mol/kg of sodium sulfate	Molality, mol/kg of (S)-2-aminopropanoic acid	Mass density, kg/m3	uncertainty
0.2	0	1021.93	0.32
0.2	0.1214	1025.14	0.32
0.2	0.1689	1026.38	0.33
0.2	0.2497	1028.46	0.33
0.2	0.2925	1029.55	0.34
0.2	0.3915	1032.05	0.34
0.2	0.5148	1035.12	0.35
0.4999	0	1057.32	0.4
0.4999	0.1003	1059.71	0.41
0.4999	0.1365	1060.56	0.41
0.4999	0.1854	1061.7	0.41
0.4999	0.2813	1063.91	0.42
0.4999	0.3797	1066.12	0.42
0.4999	0.4645	1068.03	0.43
0.6999	0	1079.94	0.46
0.6999	0.1017	1082.17	0.46
0.6999	0.1458	1083.13	0.46
0.6999	0.2111	1084.53	0.47
0.6999	0.2923	1086.26	0.47
0.6999	0.388	1088.28	0.48
0.6999	0.473	1090.04	0.48
0.9979	0	1112.28	0.54
0.9979	0.0965	1114.16	0.54
0.9979	0.17	1115.57	0.55
0.9979	0.223	1116.58	0.55
0.9979	0.2959	1117.95	0.55
0.9979	0.3842	1119.59	0.56
0.9979	0.4814	1121.36	0.56
1.1998	0	1133.46	0.59
1.1998	0.0993	1135.2	0.6
1.1998	0.1399	1135.91	0.6
1.1998	0.2131	1137.17	0.6
1.1998	0.2934	1138.54	0.61
1.1998	0.3917	1140.19	0.61
1.1998	0.4939	1141.87	0.62

System: L-serine + water + sodium sulfate; phases: Liquid
Fixed: Pressure, kPa = 101
Fixed: Temperature, K = 298.15
Fixed: Molality, mol/kg of L-serine = 0
Property: Molar enthalpy of solution, kJ/mol (Liquid); method: microcalorimetry
Solvent: Molality, mol/kg of sodium sulfate	Molar enthalpy of solution, kJ/mol	uncertainty
0	11.34	0.33
0.2	10.34	0.3
0.4992	9.74	0.28
0.6998	9.58	0.28
1.0001	9.49	0.28
1.1998	9.43	0.27

System: L-serine + water + sodium sulfate; phases: Liquid
Fixed: Pressure, kPa = 101
Fixed: Temperature, K = 298.15
Property: Mass density, kg/m3 (Liquid); method: VIBTUB:UFactor:6
Molality, mol/kg of sodium sulfate	Molality, mol/kg of L-serine	Mass density, kg/m3	uncertainty
0.2	0	1021.93	0.32
0.2	0.103	1026.27	0.33
0.2	0.1578	1028.55	0.33
0.2	0.2107	1030.72	0.34
0.2	0.2899	1033.95	0.35
0.2	0.3857	1037.79	0.36
0.2	0.5093	1042.66	0.37
0.4999	0	1057.31	0.403
0.4999	0.107	1061.54	0.41
0.4999	0.1753	1064.19	0.42
0.4999	0.2411	1066.73	0.43
0.4999	0.303	1069.08	0.43
0.4999	0.3828	1072.08	0.44
0.4999	0.4738	1075.46	0.45
0.6999	0	1079.93	0.46
0.6999	0.0992	1083.68	0.47
0.6999	0.1546	1085.75	0.47
0.6999	0.2054	1087.64	0.48
0.6999	0.2991	1091.07	0.49
0.6999	0.4107	1095.08	0.5
0.6999	0.4836	1097.68	0.5
0.9999	0	1112.48	0.54
0.9999	0.1089	1116.35	0.55
0.9999	0.1565	1118.01	0.55
0.9999	0.2525	1121.33	0.56
0.9999	0.3154	1123.48	0.57
0.9999	0.3963	1126.22	0.58
0.9999	0.5352	1130.83	0.59
1.2001	0	1133.45	0.59
1.2001	0.1024	1136.92	0.6
1.2001	0.1682	1139.13	0.61
1.2001	0.2174	1140.76	0.61
1.2001	0.3102	1143.79	0.62
1.2001	0.4086	1146.96	0.63
1.2001	0.476	1149.11	0.64
