Measured thermophysical data. Solubilities of Flutamide, Dutasteride, and Finasteride as Antiandrogenic Agents, in Supercritical Carbon Dioxide: Measurement and Correlation
Source: J. Chem. Eng. Data, 2010, 10.1021/je900520a
Compound 1: flutamide, C11H11F3N2O3, InChI=1S/C11H11F3N2O3/c1-6(2)10(17)15-7-3-4-9(16(18)19)8(5-7)11(12,13)14/h3-6H,1-2H3,(H,15,17)
Compound 2: dutasteride, C27H30F6N2O2, InChI=1S/C27H30F6N2O2/c1-24-11-9-17-15(4-8-21-25(17,2)12-10-22(36)35-21)16(24)6-7-19(24)23(37)34-20-13-14(26(28,29)30)3-5-18(20)27(31,32)33/h3,5,10,12-13,15-17,19,21H,4,6-9,11H2,1-2H3,(H,34,37)(H,35,36)/t15-,16-,17-,19+,21+,24-,25+/m0/s1
Compound 3: finasteride, C23H36N2O2, InChI=1S/C23H36N2O2/c1-21(2,3)25-20(27)17-8-7-15-14-6-9-18-23(5,13-11-19(26)24-18)16(14)10-12-22(15,17)4/h11,13-18H,6-10,12H2,1-5H3,(H,24,26)(H,25,27)/t14-,15-,16-,17+,18+,22-,23+/m0/s1
Compound 4: carbon dioxide, CO2, InChI=1S/CO2/c2-1-3

System: flutamide; phases: Crystal, Liquid, Air at 1 atmosphere
Property: Normal melting temperature, K (Crystal); method: VISOBS
Normal melting temperature, K	uncertainty
384	1

System: dutasteride; phases: Crystal, Liquid, Air at 1 atmosphere
Property: Normal melting temperature, K (Crystal); method: VISOBS
Normal melting temperature, K	uncertainty
515	1

System: finasteride; phases: Crystal, Liquid, Air at 1 atmosphere
Property: Normal melting temperature, K (Crystal); method: VISOBS
Normal melting temperature, K	uncertainty
525	1

System: carbon dioxide + flutamide; phases: Fluid (supercritical or subcritical phases), Crystal
Property: Mole fraction of flutamide (Fluid (supercritical or subcritical phases)); method: Spectroscopy
Temperature, K	Pressure, kPa	Mole fraction of flutamide	uncertainty
308	12160	6.48e-05	1.16e-05
309	15200	5.04e-05	9e-06
310	18240	4.85e-05	8.7e-06
311	21280	5.59e-05	1e-05
312	24320	6.59e-05	1.18e-05
313	27360	8.04e-05	1.44e-05
314	30400	9.06e-05	1.62e-05
315	33440	9.22e-05	1.65e-05
316	35460	0.000103	1.85e-05
318	12160	3.96e-05	7.1e-06
319	15200	3.45e-05	6.2e-06
320	18240	7.28e-05	1.31e-05
321	21280	7.63e-05	1.37e-05
322	24320	7.45e-05	1.34e-05
323	27360	0.0001146	2.06e-05
324	30400	0.0001416	2.54e-05
325	33440	0.0001422	2.55e-05
326	35460	0.0001539	2.76e-05
328	12160	2.73e-05	4.9e-06
329	15200	3.91e-05	7e-06
330	18240	8.35e-05	1.5e-05
331	21280	8.8e-05	1.58e-05
332	24320	0.0001133	2.03e-05
333	27360	0.0001452	2.6e-05
334	30400	0.0001613	2.89e-05
335	33440	0.0001911	3.43e-05
336	35460	0.00024	4.3e-05
338	12160	1.24e-05	2.2e-06
339	15200	2.08e-05	3.7e-06
340	18240	9.49e-05	1.7e-05
341	21280	0.0001014	1.82e-05
342	24320	0.0001305	2.34e-05
343	27360	0.0001763	3.16e-05
344	30400	0.0002398	4.3e-05
345	33440	0.0002979	5.34e-05
346	35460	0.0003615	6.48e-05
348	12160	4.6e-06	8e-07
349	15200	1.16e-05	2.1e-06
350	18240	9.36e-05	1.68e-05
351	21280	0.0001033	1.85e-05
352	24320	0.0001601	2.87e-05
353	27360	0.0002317	4.16e-05
354	30400	0.0003344	6e-05
355	33440	0.0004277	7.67e-05
356	35460	0.0005093	9.13e-05

System: carbon dioxide + dutasteride; phases: Fluid (supercritical or subcritical phases), Crystal
Property: Mole fraction of dutasteride (Fluid (supercritical or subcritical phases)); method: Spectroscopy
Temperature, K	Pressure, kPa	Mole fraction of dutasteride	uncertainty
329	15200	4.9e-06	9e-07
330	18240	1.37e-05	2.5e-06
331	21280	2.56e-05	4.6e-06
332	24320	3.96e-05	7.2e-06
333	27360	5.61e-05	1.01e-05
334	30400	7.36e-05	1.33e-05
335	33440	8.23e-05	1.49e-05
336	35460	9.6e-05	1.73e-05
338	12160	1e-07	1e-07
339	15200	2.2e-06	4e-07
340	18240	9.6e-06	1.7e-06
341	21280	2.26e-05	4.1e-06
342	24320	4.1e-05	7.4e-06
343	27360	6.34e-05	1.15e-05
344	30400	8.93e-05	1.61e-05
345	33440	0.0001142	2.06e-05
346	35460	0.0001421	2.57e-05
348	12160	1e-07	1e-07
349	15200	1.1e-06	2e-07
350	18240	6.1e-06	1.1e-06
351	21280	1.7e-05	3.1e-06
352	24320	3.55e-05	6.4e-06
353	27360	6.11e-05	1.1e-05
354	30400	0.0001014	1.83e-05
355	33440	0.0001316	2.38e-05
356	35460	0.0001607	2.9e-05

System: carbon dioxide + finasteride; phases: Fluid (supercritical or subcritical phases), Crystal
Property: Mole fraction of finasteride (Fluid (supercritical or subcritical phases)); method: Spectroscopy
Temperature, K	Pressure, kPa	Mole fraction of finasteride	uncertainty
329	15200	4.14e-05	7.4e-06
330	18240	6.69e-05	1.2e-05
331	21280	4.92e-05	8.8e-06
332	24320	6.93e-05	1.25e-05
333	27360	8.66e-05	1.56e-05
334	30400	0.0001359	2.44e-05
335	33440	0.0001686	3.03e-05
336	35460	0.0001902	3.42e-05
338	12160	6.87e-05	1.23e-05
339	15200	3.66e-05	6.6e-06
340	18240	7.46e-05	1.34e-05
341	21280	0.0001115	2e-05
342	24320	0.0001461	2.63e-05
343	27360	0.0001765	3.17e-05
344	30400	0.0002039	3.67e-05
345	33440	0.000229	4.12e-05
346	35460	0.000247	4.44e-05
348	12160	8.32e-05	1.5e-05
349	15200	3.48e-05	6.3e-06
350	18240	8.17e-05	1.47e-05
351	21280	0.0001332	2.39e-05
352	24320	0.000173	3.11e-05
353	27360	0.0001995	3.59e-05
354	30400	0.0002381	4.28e-05
355	33440	0.0002839	5.1e-05
356	35460	0.0003325	5.98e-05
