Measured thermophysical data. Conductivity and Dissociation Constants of Quaternary Ammonium Perchlorates and Picrates in 4-Methyl-pentan-2-one
Source: J. Chem. Eng. Data, 2010, 10.1021/je9008969
Compound 1: tetraethylammonium perchlorate, C8H20ClNO4, InChI=1S/C8H20N.ClHO4/c1-5-9(6-2,7-3)8-4;2-1(3,4)5/h5-8H2,1-4H3;(H,2,3,4,5)/q+1;/p-1
Compound 2: ammonium, tetraethyl-, picrate, C14H22N4O7, InChI=1S/C8H20N.C6H3N3O7/c1-5-9(6-2,7-3)8-4;10-6-4(8(13)14)1-3(7(11)12)2-5(6)9(15)16/h5-8H2,1-4H3;1-2,10H/q+1;/p-1
Compound 3: 1-butanaminium, N.N.N-tributyl-, salt with 2,4,6-trinitrophenol (1:1), C22H38N4O7, InChI=1S/C16H36N.C6H3N3O7/c1-5-9-13-17(14-10-6-2,15-11-7-3)16-12-8-4;10-6-4(8(13)14)1-3(7(11)12)2-5(6)9(15)16/h5-16H2,1-4H3;1-2,10H/q+1;/p-1
Compound 4: 4-methylpentan-2-one, C6H12O, InChI=1S/C6H12O/c1-5(2)4-6(3)7/h5H,4H2,1-3H3
Compound 5: tetramethylammonium perchlorate, C4H12ClNO4, InChI=1S/C4H12N.ClHO4/c1-5(2,3)4;2-1(3,4)5/h1-4H3;(H,2,3,4,5)/q+1;/p-1
Compound 6: tetrapropylammonium perchlorate, C12H28ClNO4, InChI=1S/C12H28N.ClHO4/c1-5-9-13(10-6-2,11-7-3)12-8-4;2-1(3,4)5/h5-12H2,1-4H3;(H,2,3,4,5)/q+1;/p-1
Compound 7: tetrabutylammonium perchlorate, C16H36ClNO4, InChI=1S/C16H36N.ClHO4/c1-5-9-13-17(14-10-6-2,15-11-7-3)16-12-8-4;2-1(3,4)5/h5-16H2,1-4H3;(H,2,3,4,5)/q+1;/p-1
Compound 8: tetrapentylammonium perchlorate, C20H44ClNO4, InChI=1S/C20H44N.ClHO4/c1-5-9-13-17-21(18-14-10-6-2,19-15-11-7-3)20-16-12-8-4;2-1(3,4)5/h5-20H2,1-4H3;(H,2,3,4,5)/q+1;/p-1
Compound 9: tetrahexylammonium perchlorate, C24H52ClNO4, InChI=1S/C24H52N.ClHO4/c1-5-9-13-17-21-25(22-18-14-10-6-2,23-19-15-11-7-3)24-20-16-12-8-4;2-1(3,4)5/h5-24H2,1-4H3;(H,2,3,4,5)/q+1;/p-1
Compound 10: N,N,N-triheptylheptan-1-aminium perchlorate, C28H60ClNO4, InChI=1S/C28H60N.ClHO4/c1-5-9-13-17-21-25-29(26-22-18-14-10-6-2,27-23-19-15-11-7-3)28-24-20-16-12-8-4;2-1(3,4)5/h5-28H2,1-4H3;(H,2,3,4,5)/q+1;/p-1
Compound 11: N,N,N-trimethyl-1-hexadecanaminium perchlorate, C19H42ClNO4, InChI=1S/C19H42N.ClHO4/c1-5-6-7-8-9-10-11-12-13-14-15-16-17-18-19-20(2,3)4;2-1(3,4)5/h5-19H2,1-4H3;(H,2,3,4,5)/q+1;/p-1
Compound 12: 1-hexadecylpyridinium perchlorate, C21H38ClNO4, InChI=1S/C21H38N.ClHO4/c1-2-3-4-5-6-7-8-9-10-11-12-13-14-16-19-22-20-17-15-18-21-22;2-1(3,4)5/h15,17-18,20-21H,2-14,16,19H2,1H3;(H,2,3,4,5)/q+1;/p-1
Compound 13: N,N,N-triethyl-1-hexanaminium perchlorate, C12H28ClNO4, InChI=1S/C12H28N.ClHO4/c1-5-9-10-11-12-13(6-2,7-3)8-4;2-1(3,4)5/h5-12H2,1-4H3;(H,2,3,4,5)/q+1;/p-1
Compound 14: N,N,N-trimethyl-1-octadecanaminium perchlorate, C21H46ClNO4, InChI=1S/C21H46N.ClHO4/c1-5-6-7-8-9-10-11-12-13-14-15-16-17-18-19-20-21-22(2,3)4;2-1(3,4)5/h5-21H2,1-4H3;(H,2,3,4,5)/q+1;/p-1
Compound 15: 1-butylpyridinium perchlorate, C9H14ClNO4, InChI=1S/C9H14N.ClHO4/c1-2-3-7-10-8-5-4-6-9-10;2-1(3,4)5/h4-6,8-9H,2-3,7H2,1H3;(H,2,3,4,5)/q+1;/p-1

System: 4-methylpentan-2-one; phases: Liquid, Gas
Property: Normal boiling temperature, K (Liquid); method: Distillation
Normal boiling temperature, K	uncertainty
387.35	0.5

System: 4-methylpentan-2-one + N,N,N-trimethyl-1-octadecanaminium perchlorate; phases: Liquid
Fixed: Pressure, kPa = 101
Fixed: Temperature, K = 298.15
Property: Molar conductivity, S*m2/mol (Liquid); method: Alternating current cell with electrodes
Amount concentration (molarity), mol/dm3 of N,N,N-trimethyl-1-octadecanaminium perchlorate	Molar conductivity, S*m2/mol	uncertainty
0.00010489	0.006344	0.000127
0.00013712	0.006011	0.00012
0.00017413	0.005675	0.000114
0.00022633	0.005311	0.000106
0.00028917	0.00497	9.9e-05
0.00038093	0.004585	9.2e-05
0.00048923	0.00425	8.5e-05
0.0006311	0.003924	7.8e-05
0.00081478	0.003614	7.2e-05
0.0010619	0.003303	6.6e-05
0.0013863	0.003021	6e-05
0.0018022	0.002755	5.5e-05
0.0023372	0.002514	5e-05
0.0030321	0.00229	4.6e-05

System: 4-methylpentan-2-one + 1-butylpyridinium perchlorate; phases: Liquid
Fixed: Pressure, kPa = 101
Fixed: Temperature, K = 298.15
Property: Molar conductivity, S*m2/mol (Liquid); method: Alternating current cell with electrodes
Amount concentration (molarity), mol/dm3 of 1-butylpyridinium perchlorate	Molar conductivity, S*m2/mol	uncertainty
0.00012229787	0.007531	0.000151
0.00013841	0.007094	0.000142
0.00017908	0.00669	0.000134
0.00023318	0.006272	0.000125
0.00031264	0.005795	0.000116
0.0004224	0.005327	0.000107
0.00055852	0.004897	9.8e-05
0.00075438	0.004464	8.9e-05
0.0010035	0.004076	8.2e-05
0.0013455	0.003691	7.4e-05
0.0017981	0.003353	6.7e-05
0.0024194	0.00303	6.1e-05
0.0032404	0.002741	5.5e-05
0.0043482	0.002477	5e-05
0.0057868	0.002248	4.5e-05

System: 4-methylpentan-2-one + ammonium, tetraethyl-, picrate; phases: Liquid
Fixed: Pressure, kPa = 101
Fixed: Temperature, K = 298.15
Property: Molar conductivity, S*m2/mol (Liquid); method: Alternating current cell with electrodes
Amount concentration (molarity), mol/dm3 of ammonium, tetraethyl-, picrate	Molar conductivity, S*m2/mol	uncertainty
9.0841e-05	0.0085	0.00017
0.00013139	0.008241	0.000165
0.000168	0.007993	0.00016
0.00021378	0.007742	0.000155
0.00028982	0.007405	0.000148
0.00039559	0.007044	0.000141
0.00051759	0.006701	0.000134
0.00069569	0.00632	0.000126
0.0009305	0.005959	0.000119
0.0012491	0.00558	0.000112
0.0016735	0.005219	0.000104
0.0022461	0.004872	9.7e-05
0.0030046	0.004536	9.1e-05
0.0040207	0.004226	8.5e-05
0.0053688	0.003939	7.9e-05

System: 4-methylpentan-2-one + 1-butanaminium, N.N.N-tributyl-, salt with 2,4,6-trinitrophenol (1:1); phases: Liquid
Fixed: Pressure, kPa = 101
Fixed: Temperature, K = 298.15
Property: Molar conductivity, S*m2/mol (Liquid); method: Alternating current cell with electrodes
Amount concentration (molarity), mol/dm3 of 1-butanaminium, N.N.N-tributyl-, salt with 2,4,6-trinitrophenol (1:1)	Molar conductivity, S*m2/mol	uncertainty
0.0001009	0.007447	0.000149
0.00013104	0.007271	0.000145
0.0001783	0.007012	0.00014
0.00022803	0.006786	0.000136
0.00030782	0.006486	0.00013
0.00041501	0.006172	0.000123
0.0005643	0.005836	0.000117
0.00075778	0.005503	0.00011
0.00099625	0.005199	0.000104
0.0013485	0.004857	9.7e-05
0.0018195	0.004537	9.1e-05
0.0024358	0.004228	8.5e-05
0.0032487	0.003937	7.9e-05
0.0043553	0.00366	7.3e-05
0.0058089	0.00341	6.8e-05

System: 4-methylpentan-2-one + tetrapropylammonium perchlorate; phases: Liquid
Fixed: Pressure, kPa = 101
Fixed: Temperature, K = 298.15
Property: Molar conductivity, S*m2/mol (Liquid); method: Alternating current cell with electrodes
Amount concentration (molarity), mol/dm3 of tetrapropylammonium perchlorate	Molar conductivity, S*m2/mol	uncertainty
6.3291e-05	0.00855	0.000171
8.8925e-05	0.008165	0.000163
0.00012145	0.007778	0.000156
0.00015196	0.007441	0.000149
0.00020897	0.006985	0.00014
0.0002751	0.00657	0.000131
0.00036995	0.00612	0.000122
0.00049125	0.005694	0.000114
0.0006591	0.005259	0.000105
0.00088385	0.004838	9.7e-05
0.0011831	0.00444	8.9e-05
0.0015815	0.004064	8.1e-05
0.0021242	0.003708	7.4e-05
0.0028434	0.003379	6.8e-05
0.0037943	0.003081	6.2e-05

System: 4-methylpentan-2-one + tetrabutylammonium perchlorate; phases: Liquid
Fixed: Pressure, kPa = 101
Fixed: Temperature, K = 298.15
Property: Molar conductivity, S*m2/mol (Liquid); method: Alternating current cell with electrodes
Amount concentration (molarity), mol/dm3 of tetrabutylammonium perchlorate	Molar conductivity, S*m2/mol	uncertainty
9.747e-05	0.007725	0.000155
0.00013412	0.007372	0.000147
0.00019022	0.00693	0.000139
0.00023665	0.006617	0.000132
0.0003186	0.006216	0.000124
0.0004325	0.005765	0.000115
0.00057811	0.005348	0.000107
0.00076833	0.00495	9.9e-05
0.0010163	0.004574	9.1e-05
0.00138	0.00418	8.4e-05
0.0018394	0.003833	7.7e-05
0.0024567	0.003508	7e-05
0.0033088	0.003198	6.4e-05
0.0044184	0.00292	5.8e-05
0.0058932	0.002671	5.3e-05

System: 4-methylpentan-2-one + tetrapentylammonium perchlorate; phases: Liquid
Fixed: Pressure, kPa = 101
Fixed: Temperature, K = 298.15
Property: Molar conductivity, S*m2/mol (Liquid); method: Alternating current cell with electrodes
Molality, mol/kg of tetrapentylammonium perchlorate	Molar conductivity, S*m2/mol	uncertainty
9.6604e-05	0.007426	0.000149
0.00012071	0.007186	0.000144
0.00016851	0.006798	0.000136
0.00021462	0.006469	0.000129
0.00029218	0.006057	0.000121
0.00040035	0.005623	0.000112
0.00052957	0.005245	0.000105
0.00070167	0.004874	9.7e-05
0.00090208	0.004684	9.4e-05
0.0012617	0.004133	8.3e-05
0.0016738	0.003799	7.6e-05
0.0022572	0.003472	6.9e-05
0.0030137	0.003177	6.4e-05
0.0040356	0.002901	5.8e-05
0.0054004	0.00265	5.3e-05

System: 4-methylpentan-2-one + tetrahexylammonium perchlorate; phases: Liquid
Fixed: Pressure, kPa = 101
Fixed: Temperature, K = 298.15
Property: Molar conductivity, S*m2/mol (Liquid); method: Alternating current cell with electrodes
Amount concentration (molarity), mol/dm3 of tetrahexylammonium perchlorate	Molar conductivity, S*m2/mol	uncertainty
9.876e-05	0.007268	0.000145
0.0001295	0.007052	0.000141
0.00017623	0.006722	0.000134
0.00022072	0.006446	0.000129
0.00027977	0.006133	0.000123
0.00036868	0.005777	0.000116
0.0004788	0.005433	0.000109
0.00062088	0.00509	0.000102
0.00080882	0.00475	9.5e-05
0.0010555	0.00441	8.8e-05
0.0013803	0.00409	8.2e-05
0.0017818	0.003795	7.6e-05
0.0023212	0.003508	7e-05
0.0030061	0.003244	6.5e-05
0.003917	0.002995	6e-05

System: 4-methylpentan-2-one + N,N,N-triheptylheptan-1-aminium perchlorate; phases: Liquid
Fixed: Pressure, kPa = 101
Fixed: Temperature, K = 298.15
Property: Molar conductivity, S*m2/mol (Liquid); method: Alternating current cell with electrodes
Amount concentration (molarity), mol/dm3 of N,N,N-triheptylheptan-1-aminium perchlorate	Molar conductivity, S*m2/mol	uncertainty
7.1785e-05	0.00765	0.000153
0.00010356	0.007294	0.000146
0.00013175	0.00704	0.000141
0.00015937	0.006829	0.000137
0.00022438	0.00639	0.000128
0.00029737	0.006032	0.000121
0.00040503	0.005632	0.000113
0.00054379	0.00525	0.000105
0.00072664	0.004868	9.7e-05
0.00097751	0.004498	9e-05
0.0013065	0.004143	8.3e-05
0.001751	0.003805	7.6e-05
0.0023546	0.003483	7e-05
0.0031488	0.003189	6.4e-05
0.0042077	0.002917	5.8e-05

System: 4-methylpentan-2-one + N,N,N-trimethyl-1-hexadecanaminium perchlorate; phases: Liquid
Fixed: Pressure, kPa = 101
Fixed: Temperature, K = 298.15
Property: Molar conductivity, S*m2/mol (Liquid); method: Alternating current cell with electrodes
Amount concentration (molarity), mol/dm3 of N,N,N-trimethyl-1-hexadecanaminium perchlorate	Molar conductivity, S*m2/mol	uncertainty
0.00011718	0.006369	0.000127
0.00015128	0.005997	0.00012
0.00020964	0.005529	0.000111
0.00026363	0.005186	0.000104
0.00035837	0.004759	9.5e-05
0.0005071	0.004273	8.5e-05
0.00065885	0.003936	7.9e-05
0.00087057	0.003592	7.2e-05
0.0011681	0.003256	6.5e-05
0.0015473	0.002953	5.9e-05
0.0021055	0.002651	5.3e-05
0.0027972	0.002396	4.8e-05
0.0037599	0.002156	4.3e-05
0.0050115	0.001944	3.9e-05
0.0066834	0.00175	3.5e-05

System: 4-methylpentan-2-one + 1-hexadecylpyridinium perchlorate; phases: Liquid
Fixed: Pressure, kPa = 101
Fixed: Temperature, K = 298.15
Property: Molar conductivity, S*m2/mol (Liquid); method: Alternating current cell with electrodes
Amount concentration (molarity), mol/dm3 of 1-hexadecylpyridinium perchlorate	Molar conductivity, S*m2/mol	uncertainty
9.2384e-05	0.006875	0.000138
0.00013292	0.006402	0.000128
0.00016909	0.006077	0.000122
0.00022611	0.005648	0.000113
0.00029544	0.005266	0.000105
0.00041379	0.0048	9.6e-05
0.00053882	0.004444	8.9e-05
0.00072135	0.004059	8.1e-05
0.00096707	0.003698	7.4e-05
0.0013033	0.003355	6.7e-05
0.0017191	0.003058	6.1e-05
0.0023176	0.002765	5.5e-05
0.0031196	0.002498	5e-05
0.0041698	0.002259	4.5e-05
0.0055689	0.002046	4.1e-05

System: 4-methylpentan-2-one + N,N,N-triethyl-1-hexanaminium perchlorate; phases: Liquid
Fixed: Pressure, kPa = 101
Fixed: Temperature, K = 298.15
Property: Molar conductivity, S*m2/mol (Liquid); method: Alternating current cell with electrodes
Amount concentration (molarity), mol/dm3 of N,N,N-triethyl-1-hexanaminium perchlorate	Molar conductivity, S*m2/mol	uncertainty
9.4374e-05	0.008083	0.000162
0.00013619	0.007663	0.000153
0.00017394	0.007321	0.000146
0.00021948	0.006949	0.000139
0.00028624	0.006553	0.000131
0.00037458	0.006136	0.000123
0.00048564	0.005743	0.000115
0.00063452	0.005344	0.000107
0.00081696	0.004979	0.0001
0.0010563	0.004619	9.2e-05
0.0013854	0.00426	8.5e-05
0.0018099	0.003923	7.8e-05
0.002334	0.003624	7.2e-05
0.0030488	0.003331	6.7e-05
0.0039749	0.003066	6.1e-05

System: 4-methylpentan-2-one + tetramethylammonium perchlorate; phases: Liquid
Fixed: Pressure, kPa = 101
Fixed: Temperature, K = 298.15
Property: Molar conductivity, S*m2/mol (Liquid); method: Alternating current cell with electrodes
Amount concentration (molarity), mol/dm3 of tetramethylammonium perchlorate	Molar conductivity, S*m2/mol	uncertainty
9.338e-06	0.011296	0.000226
1.1958e-05	0.011231	0.000225
1.53e-05	0.011065	0.000221
1.9798e-05	0.010769	0.000215
2.5819e-05	0.010477	0.00021
3.2755e-05	0.010139	0.000203
4.2922e-05	0.009755	0.000195
5.5284e-05	0.009336	0.000187
7.0081e-05	0.008942	0.000179
9.231e-05	0.008468	0.000169

System: 4-methylpentan-2-one + tetraethylammonium perchlorate; phases: Liquid
Fixed: Pressure, kPa = 101
Fixed: Temperature, K = 298.15
Property: Molar conductivity, S*m2/mol (Liquid); method: Alternating current cell with electrodes
Amount concentration (molarity), mol/dm3 of tetraethylammonium perchlorate	Molar conductivity, S*m2/mol	uncertainty
1.622e-05	0.009171	0.000183
2.7054e-05	0.008978	0.00018
3.499e-05	0.008884	0.000178
4.5257e-05	0.008737	0.000175
5.8234e-05	0.008525	0.000171
7.4686e-05	0.008297	0.000166
9.7608e-05	0.008118	0.000162
