Measured thermophysical data. Solubilities of 3,9-Dimethyl-3,9-dioxide-2,4,8,10-tetraoxa-3,9-diphosphaspiro[5.5]undecane in Selected Solvents
Source: J. Chem. Eng. Data, 2010, 10.1021/je9004189
Compound 1: 3,9-dimethyl-3,9-dioxide-2,4,8,10-tetraoxa-3,9-diphosphaspiro[5.5]undecane, C7H14O6P2, InChI=1S/C7H14O6P2/c1-14(8)10-3-7(4-11-14)5-12-15(2,9)13-6-7/h3-6H2,1-2H3, purity 98%
Compound 2: methanol, CH4O, InChI=1S/CH4O/c1-2/h2H,1H3, purity 99.5%
Compound 3: ethanol, C2H6O, InChI=1S/C2H6O/c1-2-3/h3H,2H2,1H3, purity 99.7%
Compound 4: benzene, C6H6, InChI=1S/C6H6/c1-2-4-6-5-3-1/h1-6H, purity 99.5%
Compound 5: acetone, C3H6O, InChI=1S/C3H6O/c1-3(2)4/h1-2H3, purity 99.5%
Compound 6: water, H2O, InChI=1S/H2O/h1H2

System: 3,9-dimethyl-3,9-dioxide-2,4,8,10-tetraoxa-3,9-diphosphaspiro[5.5]undecane; phases: Crystal, Liquid, Air at 1 atmosphere
Property: Molar enthalpy of transition or fusion, kJ/mol (Crystal); method: DSC
Molar enthalpy of transition or fusion, kJ/mol	uncertainty
21.88	0.65

System: 3,9-dimethyl-3,9-dioxide-2,4,8,10-tetraoxa-3,9-diphosphaspiro[5.5]undecane; phases: Crystal, Liquid, Air at 1 atmosphere
Property: Normal melting temperature, K (Crystal); method: DTA
Normal melting temperature, K	uncertainty
490.55	0.5

System: methanol; phases: Liquid
Property: Refractive index (Na D-line) (Liquid); method: Standard Abbe refractometry
Temperature, K	Pressure, kPa	Refractive index (Na D-line)	uncertainty
293.15	101.325	1.3301	0.0007

System: methanol; phases: Liquid
Property: Mass density, kg/m3 (Liquid); method: Vibrating tube method
Temperature, K	Pressure, kPa	Mass density, kg/m3	uncertainty
293.15	101.325	792	1

System: ethanol; phases: Liquid
Property: Refractive index (Na D-line) (Liquid); method: Standard Abbe refractometry
Temperature, K	Pressure, kPa	Refractive index (Na D-line)	uncertainty
293.15	101.325	1.366	0.0007

System: ethanol; phases: Liquid
Property: Mass density, kg/m3 (Liquid); method: Vibrating tube method
Temperature, K	Pressure, kPa	Mass density, kg/m3	uncertainty
293.15	101.325	790	1

System: benzene; phases: Liquid
Property: Refractive index (Na D-line) (Liquid); method: Standard Abbe refractometry
Temperature, K	Pressure, kPa	Refractive index (Na D-line)	uncertainty
293.15	101.325	1.5011	0.0007

System: benzene; phases: Liquid
Property: Mass density, kg/m3 (Liquid); method: Vibrating tube method
Temperature, K	Pressure, kPa	Mass density, kg/m3	uncertainty
293.15	101.325	879	1

System: acetone; phases: Liquid
Property: Refractive index (Na D-line) (Liquid); method: Standard Abbe refractometry
Temperature, K	Pressure, kPa	Refractive index (Na D-line)	uncertainty
293.15	101.325	1.359	0.0007

System: acetone; phases: Liquid
Property: Mass density, kg/m3 (Liquid); method: VIBTUB:UFactor:4
Temperature, K	Pressure, kPa	Mass density, kg/m3	uncertainty
293.15	101.325	790	1

System: 3,9-dimethyl-3,9-dioxide-2,4,8,10-tetraoxa-3,9-diphosphaspiro[5.5]undecane + water; phases: Liquid, Crystal
Fixed: Pressure, kPa = 101
Property: Mole fraction of 3,9-dimethyl-3,9-dioxide-2,4,8,10-tetraoxa-3,9-diphosphaspiro[5.5]undecane (Liquid); method: gravimetric method
Temperature, K	Mole fraction of 3,9-dimethyl-3,9-dioxide-2,4,8,10-tetraoxa-3,9-diphosphaspiro[5.5]undecane	uncertainty
292.95	0.05524	0.00222
298.45	0.06203	0.00249
308.05	0.07934	0.00319
318.95	0.10065	0.00404
328.15	0.12864	0.00517
338.05	0.16065	0.00646
348.15	0.19717	0.00793
358.15	0.24227	0.00975
363.15	0.26109	0.01051

System: benzene + 3,9-dimethyl-3,9-dioxide-2,4,8,10-tetraoxa-3,9-diphosphaspiro[5.5]undecane; phases: Liquid, Crystal
Fixed: Pressure, kPa = 101
Property: Mole fraction of 3,9-dimethyl-3,9-dioxide-2,4,8,10-tetraoxa-3,9-diphosphaspiro[5.5]undecane (Liquid); method: gravimetric method
Temperature, K	Mole fraction of 3,9-dimethyl-3,9-dioxide-2,4,8,10-tetraoxa-3,9-diphosphaspiro[5.5]undecane	uncertainty
293.15	0.00025	1e-05
298.15	0.00028	1e-05
303.15	0.00032	1e-05
308.15	0.00035	2e-05
313.15	0.00037	2e-05
318.15	0.00041	2e-05
323.15	0.00045	2e-05
328.15	0.0005	2e-05
333.15	0.00055	2e-05
338.15	0.00061	3e-05
343.15	0.00064	3e-05
348.15	0.00069	3e-05

System: methanol + 3,9-dimethyl-3,9-dioxide-2,4,8,10-tetraoxa-3,9-diphosphaspiro[5.5]undecane; phases: Liquid, Crystal
Fixed: Pressure, kPa = 101
Property: Mole fraction of 3,9-dimethyl-3,9-dioxide-2,4,8,10-tetraoxa-3,9-diphosphaspiro[5.5]undecane (Liquid); method: gravimetric method
Temperature, K	Mole fraction of 3,9-dimethyl-3,9-dioxide-2,4,8,10-tetraoxa-3,9-diphosphaspiro[5.5]undecane	uncertainty
289.15	0.0036	0.00014
294.65	0.00433	0.00017
298.65	0.00484	0.00019
303.15	0.0056	0.00022
308.15	0.00649	0.00026
313.15	0.00745	0.0003
318.15	0.00896	0.00036
323.15	0.01035	0.00041
328.15	0.01147	0.00046
333.15	0.01333	0.00053

System: ethanol + 3,9-dimethyl-3,9-dioxide-2,4,8,10-tetraoxa-3,9-diphosphaspiro[5.5]undecane; phases: Liquid, Crystal
Fixed: Pressure, kPa = 101
Property: Mole fraction of 3,9-dimethyl-3,9-dioxide-2,4,8,10-tetraoxa-3,9-diphosphaspiro[5.5]undecane (Liquid); method: gravimetric method
Temperature, K	Mole fraction of 3,9-dimethyl-3,9-dioxide-2,4,8,10-tetraoxa-3,9-diphosphaspiro[5.5]undecane	uncertainty
288.15	0.00074	3e-05
293.15	0.00089	4e-05
298.15	0.00108	4e-05
303.15	0.00132	5e-05
308.15	0.00155	6e-05
313.15	0.00194	8e-05
318.15	0.00223	9e-05
323.15	0.00272	0.00011
328.15	0.00321	0.00013
333.15	0.00372	0.00015
338.15	0.00445	0.00018
343.15	0.00518	0.00021

System: methanol + 3,9-dimethyl-3,9-dioxide-2,4,8,10-tetraoxa-3,9-diphosphaspiro[5.5]undecane + water; phases: Liquid, Crystal
Fixed: Pressure, kPa = 101
Fixed: Solvent: Volume fraction of water = 0.5
Property: Mole fraction of 3,9-dimethyl-3,9-dioxide-2,4,8,10-tetraoxa-3,9-diphosphaspiro[5.5]undecane (Liquid); method: gravimetric method
Temperature, K	Mole fraction of 3,9-dimethyl-3,9-dioxide-2,4,8,10-tetraoxa-3,9-diphosphaspiro[5.5]undecane	uncertainty
288.5	0.00384	0.00015
293.15	0.00473	0.00019
298.15	0.00588	0.00024
303.15	0.0073	0.00029
308.25	0.00879	0.00035
313.15	0.01061	0.00042
318.35	0.01281	0.00051
323.35	0.01494	0.0006
328.25	0.01795	0.00072
333.15	0.02208	0.00088
338.25	0.02527	0.00101

System: ethanol + 3,9-dimethyl-3,9-dioxide-2,4,8,10-tetraoxa-3,9-diphosphaspiro[5.5]undecane + water; phases: Liquid, Crystal
Fixed: Pressure, kPa = 101
Fixed: Solvent: Volume fraction of water = 0.5
Property: Mole fraction of 3,9-dimethyl-3,9-dioxide-2,4,8,10-tetraoxa-3,9-diphosphaspiro[5.5]undecane (Liquid); method: gravimetric method
Temperature, K	Mole fraction of 3,9-dimethyl-3,9-dioxide-2,4,8,10-tetraoxa-3,9-diphosphaspiro[5.5]undecane	uncertainty
288.55	0.00477	0.00019
293.15	0.00577	0.00023
298.25	0.00668	0.00027
303.15	0.0079	0.00032
308.25	0.00967	0.00039
313.35	0.01173	0.00047
318.15	0.01365	0.00055
323.15	0.01574	0.00063
328.15	0.01899	0.00076
333.25	0.02146	0.00086
338.35	0.02527	0.00101

System: acetone + 3,9-dimethyl-3,9-dioxide-2,4,8,10-tetraoxa-3,9-diphosphaspiro[5.5]undecane + water; phases: Liquid, Crystal
Fixed: Pressure, kPa = 101
Fixed: Solvent: Volume fraction of water = 0.5
Property: Mole fraction of 3,9-dimethyl-3,9-dioxide-2,4,8,10-tetraoxa-3,9-diphosphaspiro[5.5]undecane (Liquid); method: gravimetric method
Temperature, K	Mole fraction of 3,9-dimethyl-3,9-dioxide-2,4,8,10-tetraoxa-3,9-diphosphaspiro[5.5]undecane	uncertainty
288.15	0.003	0.00012
293.15	0.00385	0.00016
298.15	0.00493	0.0002
303.55	0.00631	0.00025
308.15	0.00782	0.00032
313.25	0.00959	0.00039
318.45	0.01264	0.00051
323.25	0.01516	0.00061

System: methanol + benzene + 3,9-dimethyl-3,9-dioxide-2,4,8,10-tetraoxa-3,9-diphosphaspiro[5.5]undecane; phases: Liquid, Crystal
Fixed: Pressure, kPa = 101
Fixed: Solvent: Volume fraction of benzene = 0.5
Property: Mole fraction of 3,9-dimethyl-3,9-dioxide-2,4,8,10-tetraoxa-3,9-diphosphaspiro[5.5]undecane (Liquid); method: gravimetric method
Temperature, K	Mole fraction of 3,9-dimethyl-3,9-dioxide-2,4,8,10-tetraoxa-3,9-diphosphaspiro[5.5]undecane	uncertainty
293.45	0.00053	2e-05
298.15	0.00073	3e-05
303.65	0.00103	4e-05
308.85	0.00139	6e-05
313.15	0.00184	7e-05
318.35	0.00243	0.0001
323.65	0.00331	0.00013
328.25	0.00424	0.00017
333.95	0.00579	0.00023
338.15	0.00715	0.00029

System: ethanol + benzene + 3,9-dimethyl-3,9-dioxide-2,4,8,10-tetraoxa-3,9-diphosphaspiro[5.5]undecane; phases: Liquid, Crystal
Fixed: Pressure, kPa = 101
Fixed: Solvent: Volume fraction of benzene = 0.5
Property: Mole fraction of 3,9-dimethyl-3,9-dioxide-2,4,8,10-tetraoxa-3,9-diphosphaspiro[5.5]undecane (Liquid); method: gravimetric method
Temperature, K	Mole fraction of 3,9-dimethyl-3,9-dioxide-2,4,8,10-tetraoxa-3,9-diphosphaspiro[5.5]undecane	uncertainty
293.45	0.00041	2e-05
298.15	0.00051	2e-05
303.65	0.00066	3e-05
308.85	0.00083	3e-05
313.15	0.00103	4e-05
318.35	0.00125	5e-05
323.65	0.00158	6e-05
328.15	0.00193	8e-05
333.95	0.00236	9e-05
338.15	0.0028	0.00011
343.15	0.00336	0.00013
