Measured thermophysical data. Low-Temperature Heat Capacities and Thermodynamic Properties of Triaquabenzoatocalcium Monobenzoate [Ca(Ben)(H2O)3](Ben)(s) (Ben ) Benzoate)
Source: J. Chem. Eng. Data, 2009, 10.1021/je900088h
Compound 1: triaquabenzoatocalcium monobenzoate, C14H16CaO7, InChI=1S/2C7H6O2.Ca.3H2O/c2*8-7(9)6-4-2-1-3-5-6;;;;/h2*1-5H,(H,8,9);;3*1H2/q;;+2;;;/p-2

System: triaquabenzoatocalcium monobenzoate; phases: Crystal 1
Fixed: Pressure, kPa = 101.325
Property: Molar heat capacity at constant pressure, J/K/mol (Crystal 1); method: Vacuum adiabatic calorimetry
Temperature, K	Molar heat capacity at constant pressure, J/K/mol	uncertainty
78.8	125.84	0.78
80.62	127.89	0.8
83.35	131.81	0.82
86.01	135.91	0.85
88.59	139.74	0.87
91.092	143.36	0.89
93.58	146.64	0.91
95.954	149.63	0.93
98.306	152.89	0.95
100.66	156.65	0.97
102.85	158.91	0.99
105.21	162.17	1.01
107.4	165.43	1.03
109.44	167.19	1.04
111.64	169.95	1.05
113.68	172.21	1.07
115.87	174.97	1.08
117.91	177.73	1.1
119.95	180.49	1.12
123.14	184.09	1.14
126.77	188.91	1.17
129.7	192.59	1.19
132.67	195.68	1.21
135.59	200.29	1.23
138.57	203.14	1.25
141.55	206.2	1.27
144.53	210.58	1.3
147.39	214.74	1.32
150.37	217.59	1.34
153.35	221.09	1.36
156.33	224.6	1.38
159.26	227.49	1.4
162.21	230.64	1.42
165.17	234.25	1.44
168.12	237.66	1.46
171.08	241.7	1.48
174.06	244.96	1.5
177.08	249.12	1.53
180.06	252.85	1.55
184.08	257.01	1.58
188.23	262.04	1.61
191.21	266.42	1.63
193.93	269.05	1.65
197.04	272.77	1.67
200.03	276.5	1.69
203.01	280.66	1.72
205.99	284.6	1.74
208.95	287.41	1.76
211.86	291.37	1.78
214.81	295.11	1.81
217.92	299.05	1.83
220.8	301.9	1.85
223.78	305.67	1.87
226.73	309.78	1.89
229.72	314.16	1.92
232.7	318.1	1.94
235.68	322.04	1.97
238.79	325.77	1.99
242.55	330.58	2.02
246.18	335.18	2.05
249.16	338.91	2.07
252.15	342.19	2.09
255	345.26	2.11
257.98	349.85	2.14
260.96	353.8	2.16
263.94	358.39	2.19
266.93	361.24	2.2
269.65	364.31	2.22
272.63	367.15	2.24
275.61	370.66	2.26
278.59	374.16	2.28
281.71	377.23	2.3
284.82	380.07	2.32
287.8	383.58	2.34
290.78	387.08	2.36
293.63	390.58	2.38
296.49	393.65	2.4
299.47	397.59	2.42
302.32	400.66	2.44
305.3	403.94	2.46
308.29	407.88	2.48
311.14	410.73	2.5
314.12	414.01	2.52
316.97	417.08	2.54
319.95	420.15	2.56
322.94	423.65	2.58
325.92	427.37	2.6
328.9	430	2.62
331.88	432.85	2.64
334.86	436.35	2.66
337.72	440.29	2.68
340.7	443.14	2.7
343.42	446.64	2.72
346.27	450.15	2.74
349.13	453.43	2.76
352.11	457.15	2.78
354.96	460.22	2.8
357.55	463.72	2.82

System: triaquabenzoatocalcium monobenzoate; phases: Crystal 1
Fixed: Pressure, kPa = 101.325
Property: Molar heat capacity at constant pressure, J/K/mol (Crystal 1); method: Vacuum adiabatic calorimetry
Temperature, K	Molar heat capacity at constant pressure, J/K/mol	uncertainty
80	128.63	0.8
85	135.24	0.84
90	141.77	0.88
95	148.25	0.92
100	154.67	0.96
105	161.03	1
110	167.36	1.04
115	173.63	1.08
120	179.88	1.11
125	186.09	1.15
130	192.27	1.19
135	198.43	1.22
140	204.56	1.26
145	210.68	1.3
150	216.79	1.33
155	222.89	1.37
160	228.98	1.41
165	235.06	1.44
170	241.13	1.48
175	247.21	1.52
180	253.29	1.55
185	259.36	1.59
190	265.44	1.63
195	271.52	1.66
200	277.61	1.7
