Measured thermophysical data. Density, Excess Molar Volume, and Viscosity for the Methyl Methacrylate + 1-Butyl-3-methylimidazolium Hexafluorophosphate Ionic Liquid Binary System at Atmospheric Pressure
Source: J. Chem. Eng. Data, 2009, 10.1021/je900091b
Compound 1: methyl methacrylate, C5H8O2, InChI=1S/C5H8O2/c1-4(2)5(6)7-3/h1H2,2-3H3
Compound 2: 1-butyl-3-methylimidazolium hexafluorophosphate, C8H15F6N2P, InChI=1S/C8H15N2.F6P/c1-3-4-5-10-7-6-9(2)8-10;1-7(2,3,4,5)6/h6-8H,3-5H2,1-2H3;/q+1;-1, purity 99%

System: methyl methacrylate; phases: Liquid, Gas
Property: Viscosity, Pa*s (Liquid); method: CAPTUB:UFactor:4
Temperature, K	Viscosity, Pa*s	uncertainty
283.15	0.0006808	1.81e-05
288.15	0.0006337	1.71e-05
293.15	0.0005899	1.61e-05
298.15	0.000554	1.53e-05
303.15	0.0005248	1.47e-05
308.15	0.0004956	1.4e-05
313.15	0.0004719	1.35e-05
318.15	0.0004497	1.3e-05
323.15	0.0004294	1.26e-05
328.15	0.00041	1.21e-05
333.15	0.0003938	1.18e-05
343.15	0.0003636	1.11e-05
353.15	0.0003398	1.06e-05

System: methyl methacrylate; phases: Liquid, Gas
Property: Mass density, kg/m3 (Liquid); method: VIBTUB:UFactor:8
Temperature, K	Mass density, kg/m3	uncertainty
283.15	954.802	0.568
288.15	949.097	0.584
293.15	943.365	0.599
298.15	937.615	0.615
303.15	931.837	0.631
308.15	926.032	0.646
313.15	920.185	0.662
318.15	914.317	0.679
323.15	908.405	0.695
328.15	902.468	0.711
333.15	896.479	0.728
343.15	884.418	0.761
353.15	872.129	0.796

System: 1-butyl-3-methylimidazolium hexafluorophosphate; phases: Liquid, Gas
Property: Viscosity, Pa*s (Liquid); method: CAPTUB:UFactor:4
Temperature, K	Viscosity, Pa*s	uncertainty
283.15	0.8020931	0.1501949
288.15	0.5525681	0.0896897
293.15	0.3898093	0.054174
298.15	0.2822442	0.0331311
303.15	0.2092496	0.0203744
308.15	0.1591478	0.0125795
313.15	0.1233796	0.0076453
318.15	0.0977817	0.0045301
323.15	0.0787748	0.0025027
328.15	0.0613384	0.0009251
333.15	0.0503784	0.0002556
343.15	0.035254	0.000604
353.15	0.0257557	0.0004493

System: 1-butyl-3-methylimidazolium hexafluorophosphate; phases: Liquid, Gas
Property: Mass density, kg/m3 (Liquid); method: VIBTUB:UFactor:8
Temperature, K	Mass density, kg/m3	uncertainty
283.15	1380.337	1.803
288.15	1376.063	1.787
293.15	1371.797	1.772
298.15	1367.531	1.756
303.15	1363.277	1.741
308.15	1359.191	1.726
313.15	1355.087	1.711
318.15	1350.98	1.7
323.15	1346.874	1.681
328.15	1342.781	1.666
333.15	1338.696	1.652
343.15	1330.56	1.62
353.15	1322.473	1.594

System: methyl methacrylate + 1-butyl-3-methylimidazolium hexafluorophosphate; phases: Liquid, Gas
Property: Viscosity, Pa*s (Liquid); method: CAPTUB:UFactor:4
Mole fraction of methyl methacrylate	Temperature, K	Viscosity, Pa*s	uncertainty
0	283.15	0.8020931	0.1501949
0	288.15	0.5525681	0.0896897
0	293.15	0.3898093	0.054174
0	298.15	0.2822442	0.0331311
0	303.15	0.2092496	0.0203744
0	308.15	0.1591478	0.0125795
0	313.15	0.1233796	0.0076453
0	318.15	0.0977817	0.0045301
0	323.15	0.0787748	0.0025027
0	328.15	0.0613384	0.0009251
0	333.15	0.0503784	0.0002556
0	343.15	0.035254	0.000604
0	353.15	0.0257557	0.0004493
0.0986	283.15	0.4348967	0.0636254
0.0986	288.15	0.3083369	0.0380177
0.0986	293.15	0.2248768	0.0229801
0.0986	298.15	0.1681425	0.0139102
0.0986	303.15	0.1284566	0.0083081
0.0986	308.15	0.1005376	0.0048462
0.0986	313.15	0.0803978	0.0026649
0.0986	318.15	0.0629854	0.0010594
0.0986	323.15	0.0513235	0.0002771
0.0986	328.15	0.0423599	0.00072
0.0986	333.15	0.0354289	0.0006068
0.0986	343.15	0.025608	0.0004468
0.0986	353.15	0.0192532	0.0003433
0.2094	283.15	0.2180265	0.0218321
0.2094	288.15	0.1612128	0.0128841
0.2094	293.15	0.1223244	0.0075112
0.2094	298.15	0.094879	0.0042048
0.2094	303.15	0.07544	0.0021789
0.2094	308.15	0.0583298	0.0006954
0.2094	313.15	0.0472745	0.0008017
0.2094	318.15	0.0389089	0.0006647
0.2094	323.15	0.0324544	0.0005592
0.2094	328.15	0.0273942	0.0004765
0.2094	333.15	0.0233846	0.0004109
0.2094	343.15	0.017563	0.000316
0.2094	353.15	0.0136471	0.0002521
0.3073	283.15	0.118569	0.0070357
0.3073	288.15	0.0912947	0.0038117
0.3073	293.15	0.0717984	0.001838
0.3073	298.15	0.0552201	0.0004846
0.3073	303.15	0.0444922	0.0007585
0.3073	308.15	0.0364475	0.000626
0.3073	313.15	0.0302684	0.0005246
0.3073	318.15	0.0254856	0.0004462
0.3073	323.15	0.0217019	0.0003842
0.3073	328.15	0.0186883	0.0003348
0.3073	333.15	0.0162353	0.0002947
0.3073	343.15	0.0125721	0.0002348
0.3073	353.15	0.0100067	0.0001929
0.4053	283.15	0.0640413	0.0011625
0.4053	288.15	0.050277	0.0002899
0.4053	293.15	0.0402961	0.0006942
0.4053	298.15	0.032872	0.0005704
0.4053	303.15	0.0272228	0.0004769
0.4053	308.15	0.0228592	0.0004048
0.4053	313.15	0.0194283	0.0003482
0.4053	318.15	0.0167059	0.0003034
0.4053	323.15	0.0145111	0.0002672
0.4053	328.15	0.0127135	0.0002377
0.4053	333.15	0.0112152	0.0002131
0.4053	343.15	0.008922	0.0001755
0.4053	353.15	0.0072586	0.0001483
0.4977	283.15	0.034638	0.0006068
0.4977	288.15	0.0281647	0.0004968
0.4977	293.15	0.0232667	0.0004147
0.4977	298.15	0.0195407	0.0003524
0.4977	303.15	0.0166172	0.0003036
0.4977	308.15	0.014293	0.000265
0.4977	313.15	0.0124304	0.0002341
0.4977	318.15	0.0109	0.0002088
0.4977	323.15	0.0096401	0.000188
0.4977	328.15	0.0085845	0.0001705
0.4977	333.15	0.0076911	0.0001558
0.4977	343.15	0.0062779	0.0001326
0.4977	353.15	0.0052242	0.0001153
0.5993	283.15	0.0177831	0.0003238
0.5993	288.15	0.0149909	0.0002768
0.5993	293.15	0.0128071	0.0002405
0.5993	298.15	0.0110687	0.0002117
0.5993	303.15	0.0096624	0.0001884
0.5993	308.15	0.0085051	0.0001693
0.5993	313.15	0.00755	0.0001536
0.5993	318.15	0.0067454	0.0001403
0.5993	323.15	0.0060661	0.0001292
0.5993	328.15	0.0054975	0.0001198
0.5993	333.15	0.0049907	0.0001115
0.5993	343.15	0.0041872	9.44e-05
0.5993	353.15	0.0035794	8.13e-05
0.7009	283.15	0.0088595	0.0001755
0.7009	288.15	0.0077168	0.0001564
0.7009	293.15	0.0067811	0.000141
0.7009	298.15	0.0060141	0.0001284
0.7009	303.15	0.0053744	0.0001179
0.7009	308.15	0.0048377	0.0001083
0.7009	313.15	0.0043789	9.85e-05
0.7009	318.15	0.0039895	9.02e-05
0.7009	323.15	0.003653	8.3e-05
0.7009	328.15	0.0033617	7.67e-05
0.7009	333.15	0.003111	7.13e-05
0.7009	343.15	0.0027077	6.25e-05
0.7009	353.15	0.0024153	5.62e-05
0.8003	283.15	0.0039089	8.86e-05
0.8003	288.15	0.003485	7.94e-05
0.8003	293.15	0.0031363	7.18e-05
0.8003	298.15	0.0028364	6.54e-05
0.8003	303.15	0.0025829	5.99e-05
0.8003	308.15	0.0023686	5.52e-05
0.8003	313.15	0.0021752	5.1e-05
0.8003	318.15	0.0020073	4.73e-05
0.8003	323.15	0.0018678	4.43e-05
0.8003	328.15	0.0017432	4.15e-05
0.8003	333.15	0.0016293	3.9e-05
0.8003	343.15	0.0014315	3.47e-05
0.8003	353.15	0.0012722	3.12e-05
0.9007	283.15	0.0017189	4.1e-05
0.9007	288.15	0.0015747	3.78e-05
0.9007	293.15	0.0014505	3.51e-05
0.9007	298.15	0.0013419	3.27e-05
0.9007	303.15	0.0012474	3.06e-05
0.9007	308.15	0.0011653	2.88e-05
0.9007	313.15	0.0010918	2.72e-05
0.9007	318.15	0.0010261	2.58e-05
0.9007	323.15	0.0009687	2.45e-05
0.9007	328.15	0.0009201	2.34e-05
0.9007	333.15	0.000915	2.33e-05
0.9007	343.15	0.0008545	2.2e-05
0.9007	353.15	0.000781	2.03e-05
1	283.15	0.0006808	1.81e-05
1	288.15	0.0006337	1.71e-05
1	293.15	0.0005899	1.61e-05
1	298.15	0.000554	1.53e-05
1	303.15	0.0005248	1.47e-05
1	308.15	0.0004956	1.4e-05
1	313.15	0.0004719	1.35e-05
1	318.15	0.0004497	1.3e-05
1	323.15	0.0004294	1.26e-05
1	328.15	0.00041	1.21e-05
1	333.15	0.0003938	1.18e-05
1	343.15	0.0003636	1.11e-05
1	353.15	0.0003398	1.06e-05

System: methyl methacrylate + 1-butyl-3-methylimidazolium hexafluorophosphate; phases: Liquid, Gas
Property: Mass density, kg/m3 (Liquid); method: VIBTUB:UFactor:8
Mole fraction of methyl methacrylate	Temperature, K	Mass density, kg/m3	uncertainty
0	283.15	1380.337	1.803
0	288.15	1376.063	1.787
0	293.15	1371.797	1.772
0	298.15	1367.531	1.756
0	303.15	1363.277	1.741
0	308.15	1359.191	1.726
0	313.15	1355.087	1.711
0	318.15	1350.98	1.7
0	323.15	1346.874	1.681
0	328.15	1342.781	1.666
0	333.15	1338.696	1.652
0	343.15	1330.56	1.62
0	353.15	1322.473	1.594
0.0986	283.15	1360.727	1.732
0.0986	288.15	1356.381	1.716
0.0986	293.15	1352.041	1.7
0.0986	298.15	1347.842	1.685
0.0986	303.15	1343.673	1.67
0.0986	308.15	1339.494	1.654
0.0986	313.15	1335.321	1.639
0.0986	318.15	1331.153	1.624
0.0986	323.15	1326.996	1.609
0.0986	328.15	1322.846	1.594
0.0986	333.15	1318.711	1.579
0.0986	343.15	1310.465	1.55
0.0986	353.15	1302.231	1.521
0.2094	283.15	1335.266	1.64
0.2094	288.15	1330.982	1.624
0.2094	293.15	1326.717	1.609
0.2094	298.15	1322.446	1.593
0.2094	303.15	1318.175	1.578
0.2094	308.15	1313.914	1.562
0.2094	313.15	1309.659	1.547
0.2094	318.15	1305.41	1.532
0.2094	323.15	1301.169	1.516
0.2094	328.15	1296.917	1.501
0.2094	333.15	1292.662	1.486
0.2094	343.15	1284.513	1.457
0.2094	353.15	1275.985	1.427
0.3073	283.15	1310.417	1.551
0.3073	288.15	1306.048	1.535
0.3073	293.15	1301.685	1.52
0.3073	298.15	1297.323	1.504
0.3073	303.15	1292.97	1.488
0.3073	308.15	1288.62	1.473
0.3073	313.15	1284.277	1.457
0.3073	318.15	1279.937	1.441
0.3073	323.15	1275.582	1.426
0.3073	328.15	1271.138	1.41
0.3073	333.15	1267.356	1.396
0.3073	343.15	1259.315	1.368
0.3073	353.15	1250.714	1.338
0.4053	283.15	1282.194	1.453
0.4053	288.15	1277.721	1.437
0.4053	293.15	1273.259	1.421
0.4053	298.15	1268.808	1.405
0.4053	303.15	1264.369	1.389
0.4053	308.15	1259.943	1.373
0.4053	313.15	1255.531	1.357
0.4053	318.15	1251.13	1.342
0.4053	323.15	1246.737	1.326
0.4053	328.15	1242.359	1.31
0.4053	333.15	1237.992	1.295
0.4053	343.15	1229.29	1.265
0.4053	353.15	1220.625	1.235
0.4977	283.15	1250.448	1.345
0.4977	288.15	1245.869	1.329
0.4977	293.15	1241.301	1.313
0.4977	298.15	1236.747	1.297
0.4977	303.15	1232.201	1.281
0.4977	308.15	1227.671	1.265
0.4977	313.15	1223.15	1.249
0.4977	318.15	1218.637	1.233
0.4977	323.15	1214.134	1.217
0.4977	328.15	1209.647	1.202
0.4977	333.15	1205.167	1.186
0.4977	343.15	1196.23	1.155
0.4977	353.15	1187.324	1.125
0.5993	283.15	1211.208	1.204
0.5993	288.15	1206.49	1.188
0.5993	293.15	1201.584	1.17
0.5993	298.15	1197.089	1.155
0.5993	303.15	1192.403	1.138
0.5993	308.15	1187.726	1.122
0.5993	313.15	1183.054	1.105
0.5993	318.15	1178.39	1.089
0.5993	323.15	1173.733	1.073
0.5993	328.15	1169.083	1.057
0.5993	333.15	1164.441	1.041
0.5993	343.15	1155.167	1.009
0.5993	353.15	1145.906	0.978
0.7009	283.15	1164.351	1.036
0.7009	288.15	1159.456	1.019
0.7009	293.15	1154.07	1
0.7009	298.15	1149.686	0.985
0.7009	303.15	1144.808	0.968
0.7009	308.15	1139.934	0.951
0.7009	313.15	1135.064	0.934
0.7009	318.15	1130.194	0.917
0.7009	323.15	1125.325	0.9
0.7009	328.15	1120.457	0.884
0.7009	333.15	1115.589	0.867
0.7009	343.15	1105.843	0.834
0.7009	353.15	1096.084	0.801
0.8003	283.15	1109.097	0.838
0.8003	288.15	1103.97	0.82
0.8003	293.15	1098.448	0.801
0.8003	298.15	1093.722	0.784
0.8003	303.15	1088.593	0.767
0.8003	308.15	1083.459	0.749
0.8003	313.15	1078.316	0.731
0.8003	318.15	1073.169	0.713
0.8003	323.15	1068.012	0.696
0.8003	328.15	1062.848	0.678
0.8003	333.15	1057.67	0.66
0.8003	343.15	1047.287	0.625
0.8003	353.15	1036.871	0.591
0.9007	283.15	1042.117	0.598
0.9007	288.15	1036.709	0.579
0.9007	293.15	1031.096	0.56
0.9007	298.15	1025.867	0.542
0.9007	303.15	1020.427	0.523
0.9007	308.15	1014.968	0.504
0.9007	313.15	1009.493	0.485
0.9007	318.15	1003.999	0.466
0.9007	323.15	998.489	0.457
0.9007	328.15	992.98	0.471
0.9007	333.15	987.485	0.486
0.9007	343.15	976.413	0.516
0.9007	353.15	965.13	0.548
1	283.15	954.802	0.568
1	288.15	949.097	0.584
1	293.15	943.365	0.599
1	298.15	937.615	0.615
1	303.15	931.837	0.631
1	308.15	926.032	0.646
1	313.15	920.185	0.662
1	318.15	914.317	0.679
1	323.15	908.405	0.695
1	328.15	902.468	0.711
1	333.15	896.479	0.728
1	343.15	884.418	0.761
1	353.15	872.129	0.796
