Measured thermophysical data. Hypothetical Thermodynamic Properties. Subcooled Vaporization Enthalpies and Vapor Pressures of Polyaromatic Heterocycles and Related Compounds
Source: J. Chem. Eng. Data, 2009, 10.1021/je900034d
Compound 1: tributylamine, C12H27N, InChI=1S/C12H27N/c1-4-7-10-13(11-8-5-2)12-9-6-3/h4-12H2,1-3H3
Compound 2: 2-phenylpyridine, C11H9N, InChI=1S/C11H9N/c1-2-6-10(7-3-1)11-8-4-5-9-12-11/h1-9H
Compound 3: 3-phenylpyridine, C11H9N, InChI=1S/C11H9N/c1-2-5-10(6-3-1)11-7-4-8-12-9-11/h1-9H
Compound 4: 1,3-benzodiazine, C8H6N2, InChI=1S/C8H6N2/c1-2-4-8-7(3-1)5-9-6-10-8/h1-6H
Compound 5: (-)-3-(N-methylpyrrolidino)pyridine, C10H14N2, InChI=1S/C10H14N2/c1-12-7-3-5-10(12)9-4-2-6-11-8-9/h2,4,6,8,10H,3,5,7H2,1H3/t10-/m0/s1
Compound 6: 4-phenylpyrimidine, C10H8N2, InChI=1S/C10H8N2/c1-2-4-9(5-3-1)10-6-7-11-8-12-10/h1-8H
Compound 7: .gamma.,.gamma.'-bipyridyl, C10H8N2, InChI=1S/C10H8N2/c1-5-11-6-2-9(1)10-3-7-12-8-4-10/h1-8H
Compound 8: 2-benzylpyridine, C12H11N, InChI=1S/C12H11N/c1-2-6-11(7-3-1)10-12-8-4-5-9-13-12/h1-9H,10H2
Compound 9: 2,4'-bipyridine, C10H8N2, InChI=1S/C10H8N2/c1-2-6-12-10(3-1)9-4-7-11-8-5-9/h1-8H
Compound 10: 2,2'-bipyridine, C10H8N2, InChI=1S/C10H8N2/c1-3-7-11-9(5-1)10-6-2-4-8-12-10/h1-8H
Compound 11: 9-methyl-9H-carbazole, C13H11N, InChI=1S/C13H11N/c1-14-12-8-4-2-6-10(12)11-7-3-5-9-13(11)14/h2-9H,1H3
Compound 12: 1,5-diazaphenanthrene, C12H8N2, InChI=1S/C12H8N2/c1-3-9-5-6-11-10(4-2-7-13-11)12(9)14-8-1/h1-8H
Compound 13: 4,7-phenanthroline, C12H8N2, InChI=1S/C12H8N2/c1-3-9-10-4-2-8-14-12(10)6-5-11(9)13-7-1/h1-8H

System: tributylamine; phases: Liquid, Gas
Property: Molar enthalpy of vaporization or sublimation, kJ/mol (Liquid); method: Correlation gas chromatography
Temperature, K	Molar enthalpy of vaporization or sublimation, kJ/mol	uncertainty
298	62.7	1.9

System: tributylamine; phases: Liquid, Gas
Property: Vapor or sublimation pressure, kPa (Liquid); method: correlation gas chromatography
Temperature, K	Vapor or sublimation pressure, kPa	uncertainty
298.15	0.0131	0.0253
308.15	0.0298	0.0496
318.15	0.0637	0.059
328.15	0.129	0.107
338.15	0.249	0.187
348.15	0.458	0.315
358.15	0.812	0.51
368.15	1.39	0.81
378.15	2.29	1.23
388.15	3.68	1.83
398.15	5.73	2.65
408.15	8.71	3.78
418.15	12.9	5.3
428.15	18.8	7.2
438.15	26.8	9.6
448.15	37.4	12.7
458.15	51.4	16.5
468.15	69.6	21.2
478.15	92.7	26.7
488.15	122	30
498.15	158	33
500.15	167	38

System: 2-phenylpyridine; phases: Liquid, Gas
Property: Molar enthalpy of vaporization or sublimation, kJ/mol (Liquid); method: Correlation gas chromatography
Temperature, K	Molar enthalpy of vaporization or sublimation, kJ/mol	uncertainty
298	68.4	2.4

System: 2-phenylpyridine; phases: Liquid, Gas
Property: Vapor or sublimation pressure, kPa (Liquid); method: correlation gas chromatography
Temperature, K	Vapor or sublimation pressure, kPa	uncertainty
298.15	0.00101	0.00234
308.15	0.00248	0.00491
318.15	0.00568	0.00605
328.15	0.0123	0.0117
338.15	0.0252	0.0216
348.15	0.0492	0.0382
358.15	0.0919	0.0652
368.15	0.165	0.107
378.15	0.286	0.172
388.15	0.479	0.266
398.15	0.778	0.401
408.15	1.23	0.59
418.15	1.89	0.85
428.15	2.84	1.19
438.15	4.16	1.64
448.15	5.99	2.22
458.15	8.46	2.96
468.15	11.7	3.9
478.15	16	5
488.15	21.5	5.7
498.15	28.5	6.3
500.15	30.1	7.2

System: 3-phenylpyridine; phases: Liquid, Gas
Property: Molar enthalpy of vaporization or sublimation, kJ/mol (Liquid); method: Correlation gas chromatography
Temperature, K	Molar enthalpy of vaporization or sublimation, kJ/mol	uncertainty
298	68.4	2.2

System: 3-phenylpyridine; phases: Liquid, Gas
Property: Vapor or sublimation pressure, kPa (Liquid); method: correlation gas chromatography
Temperature, K	Vapor or sublimation pressure, kPa	uncertainty
298.15	0.000954	0.002218
308.15	0.00234	0.00468
318.15	0.00539	0.00579
328.15	0.0117	0.0112
338.15	0.0241	0.0208
348.15	0.0472	0.0371
358.15	0.0887	0.0635
368.15	0.16	0.105
378.15	0.278	0.169
388.15	0.468	0.263
398.15	0.764	0.398
408.15	1.21	0.59
418.15	1.87	0.85
428.15	2.82	1.2
438.15	4.17	1.67
448.15	6.02	2.27
458.15	8.54	3.03
468.15	11.9	4
478.15	16.3	5.2
488.15	22	5.9
498.15	29.3	6.5
500.15	31	7.5

System: 1,3-benzodiazine; phases: Liquid, Gas
Property: Molar enthalpy of vaporization or sublimation, kJ/mol (Liquid); method: Correlation gas chromatography
Temperature, K	Molar enthalpy of vaporization or sublimation, kJ/mol	uncertainty
298	58.9	2.4

System: 1,3-benzodiazine; phases: Liquid, Gas
Property: Vapor or sublimation pressure, kPa (Liquid); method: correlation gas chromatography
Temperature, K	Vapor or sublimation pressure, kPa	uncertainty
298.15	0.0122	0.0206
308.15	0.0262	0.0384
318.15	0.0534	0.0447
328.15	0.103	0.078
338.15	0.191	0.13
348.15	0.338	0.211
358.15	0.575	0.33
368.15	0.947	0.501
378.15	1.51	0.74
388.15	2.34	1.06
398.15	3.53	1.49
408.15	5.19	2.04
418.15	7.48	2.77
428.15	10.5	3.7
438.15	14.6	4.8
448.15	19.8	6.1
458.15	26.5	7.7
468.15	34.9	9.6
478.15	45.3	11.8
488.15	58.1	13
498.15	73.6	14.2
500.15	77.1	15.8

System: (-)-3-(N-methylpyrrolidino)pyridine; phases: Liquid, Gas
Property: Molar enthalpy of vaporization or sublimation, kJ/mol (Liquid); method: Correlation gas chromatography
Temperature, K	Molar enthalpy of vaporization or sublimation, kJ/mol	uncertainty
298	63.9	2.5

System: (-)-3-(N-methylpyrrolidino)pyridine; phases: Liquid, Gas
Property: Vapor or sublimation pressure, kPa (Liquid); method: correlation gas chromatography
Temperature, K	Vapor or sublimation pressure, kPa	uncertainty
298.15	0.00364	0.00728
308.15	0.00839	0.01441
318.15	0.0182	0.0172
328.15	0.0372	0.0317
338.15	0.0725	0.056
348.15	0.135	0.095
358.15	0.242	0.155
368.15	0.416	0.246
378.15	0.693	0.377
388.15	1.12	0.56
398.15	1.75	0.82
408.15	2.67	1.17
418.15	3.98	1.64
428.15	5.81	2.23
438.15	8.29	3.01
448.15	11.6	3.9
458.15	16	5.1
468.15	21.6	6.6
478.15	28.8	8.3
488.15	37.8	9.2
498.15	49.1	10.2
500.15	51.6	11.5

System: 4-phenylpyrimidine; phases: Crystal, Liquid, Air at 1 atmosphere
Property: Molar enthalpy of transition or fusion, kJ/mol (Crystal); method: DSC
Molar enthalpy of transition or fusion, kJ/mol	uncertainty
18.8	0.7

System: 4-phenylpyrimidine; phases: Crystal, Liquid, Air at 1 atmosphere
Property: Normal melting temperature, K (Crystal); method: DTA
Normal melting temperature, K	uncertainty
334.1	0.5

System: 4-phenylpyrimidine; phases: Liquid, Gas
Property: Molar enthalpy of vaporization or sublimation, kJ/mol (Liquid); method: Correlation gas chromatography
Temperature, K	Molar enthalpy of vaporization or sublimation, kJ/mol	uncertainty
298	68.8	2.9

System: 4-phenylpyrimidine; phases: Liquid, Gas
Property: Vapor or sublimation pressure, kPa (Liquid); method: correlation gas chromatography
Temperature, K	Vapor or sublimation pressure, kPa	uncertainty
298.15	0.000917	0.002122
308.15	0.00225	0.00448
318.15	0.00516	0.00552
328.15	0.0112	0.0107
338.15	0.023	0.0198
348.15	0.0451	0.0352
358.15	0.0845	0.0603
368.15	0.152	0.1
378.15	0.264	0.159
388.15	0.444	0.247
398.15	0.722	0.374
408.15	1.14	0.55
418.15	1.76	0.8
428.15	2.65	1.12
438.15	3.91	1.55
448.15	5.63	2.11
458.15	7.97	2.82
468.15	11.1	3.7
478.15	15.2	4.8
488.15	20.4	5.4
498.15	27.1	6
500.15	28.6	6.8

System: .gamma.,.gamma.'-bipyridyl; phases: Crystal, Liquid, Air at 1 atmosphere
Property: Molar enthalpy of transition or fusion, kJ/mol (Crystal); method: DSC
Molar enthalpy of transition or fusion, kJ/mol	uncertainty
16.1	2

System: .gamma.,.gamma.'-bipyridyl; phases: Crystal, Liquid, Air at 1 atmosphere
Property: Normal melting temperature, K (Crystal); method: DTA
Normal melting temperature, K	uncertainty
377.5	0.5

System: .gamma.,.gamma.'-bipyridyl; phases: Liquid, Gas
Property: Molar enthalpy of vaporization or sublimation, kJ/mol (Liquid); method: Correlation gas chromatography
Temperature, K	Molar enthalpy of vaporization or sublimation, kJ/mol	uncertainty
298	71.1	3

System: .gamma.,.gamma.'-bipyridyl; phases: Liquid, Gas
Property: Vapor or sublimation pressure, kPa (Liquid); method: correlation gas chromatography
Temperature, K	Vapor or sublimation pressure, kPa	uncertainty
298.15	0.000471	0.00117
308.15	0.00119	0.00254
318.15	0.00281	0.00318
328.15	0.00626	0.00633
338.15	0.0132	0.012
348.15	0.0265	0.0218
358.15	0.0507	0.038
368.15	0.0933	0.0641
378.15	0.165	0.105
388.15	0.283	0.165
398.15	0.469	0.254
408.15	0.754	0.382
418.15	1.18	0.56
428.15	1.81	0.8
438.15	2.7	1.12
448.15	3.95	1.54
458.15	5.66	2.08
468.15	7.96	2.76
478.15	11	3.6
488.15	15	4.1
498.15	20.1	4.6
500.15	21.3	5.3

System: 2-benzylpyridine; phases: Liquid, Gas
Property: Molar enthalpy of vaporization or sublimation, kJ/mol (Liquid); method: Correlation gas chromatography
Temperature, K	Molar enthalpy of vaporization or sublimation, kJ/mol	uncertainty
298	69.8	3.2

System: 2-benzylpyridine; phases: Liquid, Gas
Property: Vapor or sublimation pressure, kPa (Liquid); method: correlation gas chromatography
Temperature, K	Vapor or sublimation pressure, kPa	uncertainty
298.15	0.000758	0.001816
308.15	0.00188	0.00388
318.15	0.00439	0.00481
328.15	0.00964	0.00946
338.15	0.02	0.0177
348.15	0.0397	0.0318
358.15	0.0752	0.055
368.15	0.137	0.092
378.15	0.24	0.148
388.15	0.407	0.233
398.15	0.668	0.355
408.15	1.07	0.53
418.15	1.66	0.77
428.15	2.51	1.09
438.15	3.73	1.51
448.15	5.41	2.07
458.15	7.71	2.77
468.15	10.8	3.7
478.15	14.8	4.8
488.15	20.1	5.4
498.15	26.8	6
500.15	28.4	6.9

System: 2,4'-bipyridine; phases: Crystal, Liquid, Air at 1 atmosphere
Property: Molar enthalpy of transition or fusion, kJ/mol (Crystal); method: DSC
Molar enthalpy of transition or fusion, kJ/mol	uncertainty
17.4	0.9

System: 2,4'-bipyridine; phases: Crystal, Liquid, Air at 1 atmosphere
Property: Normal melting temperature, K (Crystal); method: DTA
Normal melting temperature, K	uncertainty
332.8	0.5

System: 2,4'-bipyridine; phases: Liquid, Gas
Property: Molar enthalpy of vaporization or sublimation, kJ/mol (Liquid); method: Correlation gas chromatography
Temperature, K	Molar enthalpy of vaporization or sublimation, kJ/mol	uncertainty
298	70.9	2.2

System: 2,4'-bipyridine; phases: Liquid, Gas
Property: Vapor or sublimation pressure, kPa (Liquid); method: correlation gas chromatography
Temperature, K	Vapor or sublimation pressure, kPa	uncertainty
298.15	0.000492	0.001209
308.15	0.00124	0.00261
318.15	0.00291	0.00328
328.15	0.00646	0.00647
338.15	0.0136	0.0122
348.15	0.0271	0.0221
358.15	0.0518	0.0386
368.15	0.0949	0.0647
378.15	0.168	0.105
388.15	0.286	0.166
398.15	0.472	0.253
408.15	0.758	0.379
418.15	1.18	0.55
428.15	1.8	0.79
438.15	2.69	1.11
448.15	3.92	1.52
458.15	5.61	2.05
468.15	7.88	2.72
478.15	10.9	3.5
488.15	14.8	4
498.15	19.8	4.5
500.15	20.9	5.1

System: 2,2'-bipyridine; phases: Liquid, Gas
Property: Molar enthalpy of vaporization or sublimation, kJ/mol (Liquid); method: Correlation gas chromatography
Temperature, K	Molar enthalpy of vaporization or sublimation, kJ/mol	uncertainty
298	67	2.7

System: 2,2'-bipyridine; phases: Liquid, Gas
Property: Vapor or sublimation pressure, kPa (Liquid); method: correlation gas chromatography
Temperature, K	Vapor or sublimation pressure, kPa	uncertainty
298.15	0.00137	0.00301
308.15	0.00329	0.00621
318.15	0.00739	0.00756
328.15	0.0157	0.0144
338.15	0.0316	0.0262
348.15	0.0608	0.0456
358.15	0.112	0.077
368.15	0.198	0.125
378.15	0.339	0.197
388.15	0.56	0.301
398.15	0.899	0.448
408.15	1.4	0.65
418.15	2.13	0.93
428.15	3.17	1.3
438.15	4.61	1.77
448.15	6.58	2.38
458.15	9.2	3.12
468.15	12.7	4.1
478.15	17.1	5.2
488.15	22.8	5.8
498.15	30	6.5
500.15	31.7	7.4

System: 9-methyl-9H-carbazole; phases: Liquid, Gas
Property: Molar enthalpy of vaporization or sublimation, kJ/mol (Liquid); method: Correlation gas chromatography
Temperature, K	Molar enthalpy of vaporization or sublimation, kJ/mol	uncertainty
298	79.4	3.6

System: 9-methyl-9H-carbazole; phases: Liquid, Gas
Property: Vapor or sublimation pressure, kPa (Liquid); method: correlation gas chromatography
Temperature, K	Vapor or sublimation pressure, kPa	uncertainty
298.15	3.07e-05	9.82e-05
308.15	8.66e-05	0.0002357
318.15	0.000227	0.000315
328.15	0.000558	0.000683
338.15	0.00129	0.00141
348.15	0.00282	0.00276
358.15	0.00586	0.0052
368.15	0.0116	0.0094
378.15	0.0221	0.0165
388.15	0.0406	0.0279
398.15	0.0717	0.0452
408.15	0.123	0.072
418.15	0.203	0.111
428.15	0.328	0.167
438.15	0.516	0.247
448.15	0.791	0.356
458.15	1.19	0.5
468.15	1.75	0.69
478.15	2.52	0.95
488.15	3.57	1.09
498.15	4.97	1.23
500.15	5.3	1.44

System: 1,5-diazaphenanthrene; phases: Crystal, Liquid, Air at 1 atmosphere
Property: Molar enthalpy of transition or fusion, kJ/mol (Crystal); method: DSC
Molar enthalpy of transition or fusion, kJ/mol	uncertainty
18.2	0.7

System: 1,5-diazaphenanthrene; phases: Crystal, Liquid, Air at 1 atmosphere
Property: Normal melting temperature, K (Crystal); method: DTA
Normal melting temperature, K	uncertainty
350.3	0.5

System: 1,5-diazaphenanthrene; phases: Liquid, Gas
Property: Molar enthalpy of vaporization or sublimation, kJ/mol (Liquid); method: Correlation gas chromatography
Temperature, K	Molar enthalpy of vaporization or sublimation, kJ/mol	uncertainty
298	79.4	5

System: 1,5-diazaphenanthrene; phases: Liquid, Gas
Property: Vapor or sublimation pressure, kPa (Liquid); method: correlation gas chromatography
Temperature, K	Vapor or sublimation pressure, kPa	uncertainty
298.15	3e-05	9.55e-05
308.15	8.44e-05	0.0002283
318.15	0.000221	0.000305
328.15	0.000541	0.000659
338.15	0.00125	0.00135
348.15	0.00272	0.00266
358.15	0.00564	0.00499
368.15	0.0112	0.009
378.15	0.0212	0.0157
388.15	0.0388	0.0265
398.15	0.0683	0.043
408.15	0.117	0.068
418.15	0.193	0.105
428.15	0.311	0.158
438.15	0.488	0.232
448.15	0.747	0.332
458.15	1.12	0.47
468.15	1.64	0.65
478.15	2.36	0.88
488.15	3.34	1.02
498.15	4.64	1.14
500.15	4.95	1.34

System: 4,7-phenanthroline; phases: Crystal, Liquid, Air at 1 atmosphere
Property: Molar enthalpy of transition or fusion, kJ/mol (Crystal); method: DSC
Molar enthalpy of transition or fusion, kJ/mol	uncertainty
21.8	1.1

System: 4,7-phenanthroline; phases: Crystal, Liquid, Air at 1 atmosphere
Property: Normal melting temperature, K (Crystal); method: DTA
Normal melting temperature, K	uncertainty
445.5	0.5

System: 4,7-phenanthroline; phases: Liquid, Gas
Property: Molar enthalpy of vaporization or sublimation, kJ/mol (Liquid); method: Correlation gas chromatography
Temperature, K	Molar enthalpy of vaporization or sublimation, kJ/mol	uncertainty
298	80.8	5.1

System: 4,7-phenanthroline; phases: Liquid, Gas
Property: Vapor or sublimation pressure, kPa (Liquid); method: correlation gas chromatography
Temperature, K	Vapor or sublimation pressure, kPa	uncertainty
298.15	2.05e-05	6.78e-05
308.15	5.87e-05	0.0001652
318.15	0.000156	0.000222
328.15	0.000389	0.000488
338.15	0.00091	0.001019
348.15	0.00201	0.00203
358.15	0.00423	0.00385
368.15	0.00849	0.00705
378.15	0.0163	0.0124
388.15	0.0302	0.0211
398.15	0.0538	0.0347
408.15	0.0927	0.0555
418.15	0.155	0.086
428.15	0.252	0.131
438.15	0.398	0.194
448.15	0.615	0.28
458.15	0.929	0.398
468.15	1.37	0.55
478.15	1.99	0.76
488.15	2.83	0.88
498.15	3.97	0.99
500.15	4.23	1.17
