Measured thermophysical data. Experimental Measurement and Modeling of Vapor-Liquid Equilibrium for the Ternary System Water + Ethanol + 1-Butyl-3-methylimidazolium Chloride
Source: J. Chem. Eng. Data, 2010, 10.1021/je900723v
Compound 1: water, H2O, InChI=1S/H2O/h1H2
Compound 2: ethanol, C2H6O, InChI=1S/C2H6O/c1-2-3/h3H,2H2,1H3, purity 99.9%
Compound 3: 1-butyl-3-methylimidazolium chloride, C8H15ClN2, InChI=1S/C8H15N2.ClH/c1-3-4-5-10-7-6-9(2)8-10;/h6-8H,3-5H2,1-2H3;1H/q+1;/p-1

System: ethanol + water + 1-butyl-3-methylimidazolium chloride; phases: Liquid, Gas
Property: Boiling temperature at pressure P, K (Liquid); method: Ebulliometric method (Recirculating still)
Solvent: Mole fraction of ethanol	Mass fraction of 1-butyl-3-methylimidazolium chloride	Pressure, kPa	Boiling temperature at pressure P, K	uncertainty
0.0935	0.6994	30.04	349.17	0.21
0.0951	0.5999	40	348.14	0.2
0.0961	0.5003	100	367.56	0.19
0.097	0.4002	100	364.42	0.19
0.0975	0.3002	100	362.42	0.19
0.098	0.2002	100	360.95	0.19
0.0988	0.1	100	359.69	0.19
0.1031	0.8005	30	360.15	0.21
0.1927	0.6992	30	346.23	0.21
0.199	0.1003	100	356.32	0.19
0.1991	0.2	100	357.19	0.19
0.1993	0.6003	40	344.85	0.2
0.1997	0.3002	100	358.49	0.19
0.2	0.4	100	360.51	0.19
0.2	0.5004	100	363.67	0.19
0.202	0.8002	30	358.93	0.21
0.3995	0.3996	100	358	0.19
0.3996	0.5	100	361.54	0.19
0.3996	0.6997	30	345.28	0.21
0.3997	0.2017	100	354.55	0.19
0.3997	0.2999	100	355.85	0.19
0.3997	0.5997	40	343.32	0.2
0.3998	0.8	29.99	359.58	0.21
0.4006	0.1	100	353.77	0.19
0.5979	0.7997	30	362.02	0.21
0.5988	0.6998	30.01	347.01	0.21
0.6	0.0999	100	352.52	0.19
0.6	0.2999	100	355.04	0.19
0.6002	0.1999	100	353.42	0.19
0.6002	0.4001	100	357.61	0.19
0.601	0.5999	40	344.37	0.2
0.6011	0.5003	100	361.81	0.19
0.7994	0.0999	100	351.86	0.19
0.7995	0.2996	100	355.02	0.19
0.7998	0.2	100	353.07	0.19
0.7999	0.4999	100	363.09	0.19
0.8	0.4007	100	358.19	0.19
0.8001	0.6	40	346.56	0.2
0.8003	0.6999	30.04	349.89	0.21
0.8012	0.7996	29.98	364.73	0.21
0.9778	0.8002	30	367.97	0.21
0.979	0.7001	30	352.31	0.21
0.9794	0.6	40	348.71	0.2
0.9796	0.1999	100.04	353.25	0.19
0.9797	0.2999	100	355.48	0.19
0.9797	0.5003	100	364.55	0.19
0.9799	0.1	100	351.93	0.19
0.9799	0.4001	100	359.34	0.19

System: ethanol + water + 1-butyl-3-methylimidazolium chloride; phases: Gas, Liquid
Property: Mole fraction of ethanol (Gas); method: Titration method
Solvent: Mole fraction of ethanol	Mass fraction of 1-butyl-3-methylimidazolium chloride	Pressure, kPa	Mole fraction of ethanol	uncertainty
0.0935	0.6994	30.04	0.3855	0.0085
0.0951	0.5999	40	0.3858	0.0085
0.0961	0.5003	100	0.3939	0.0087
0.097	0.4002	100	0.3977	0.0088
0.0975	0.3002	100	0.4089	0.0091
0.098	0.2002	100	0.4202	0.0095
0.0988	0.1	100	0.4343	0.0098
0.1031	0.8005	30	0.4061	0.0091
0.1927	0.6992	30	0.5637	0.0128
0.199	0.1003	100	0.5393	0.0124
0.1991	0.2	100	0.5334	0.0123
0.1993	0.6003	40	0.5602	0.0127
0.1997	0.3002	100	0.5318	0.0123
0.2	0.4	100	0.5418	0.0124
0.2	0.5004	100	0.5394	0.0124
0.202	0.8002	30	0.588	0.0132
0.3995	0.3996	100	0.6591	0.0143
0.3996	0.5	100	0.6798	0.0146
0.3996	0.6997	30	0.7381	0.0155
0.3997	0.2017	100	0.6397	0.014
0.3997	0.2999	100	0.6513	0.0142
0.3997	0.5997	40	0.7025	0.015
0.3998	0.8	29.99	0.7746	0.0161
0.4006	0.1	100	0.6343	0.0139
0.5979	0.7997	30	0.879	0.0178
0.5988	0.6998	30.01	0.8472	0.0172
0.6	0.0999	100	0.7074	0.015
0.6	0.2999	100	0.7587	0.0158
0.6002	0.1999	100	0.7289	0.0154
0.6002	0.4001	100	0.7769	0.0161
0.601	0.5999	40	0.822	0.0168
0.6011	0.5003	100	0.7928	0.0164
0.7994	0.0999	100	0.8411	0.0171
0.7995	0.2996	100	0.8686	0.0176
0.7998	0.2	100	0.854	0.0174
0.7999	0.4999	100	0.8977	0.0181
0.8	0.4007	100	0.8833	0.0178
0.8001	0.6	40	0.9161	0.0184
0.8003	0.6999	30.04	0.9365	0.0188
0.8012	0.7996	29.98	0.9514	0.0191
0.9778	0.8002	30	0.9953	0.0047
0.979	0.7001	30	0.9943	0.0057
0.9794	0.6	40	0.9919	0.0081
0.9796	0.1999	100.04	0.9834	0.0166
0.9797	0.2999	100	0.9854	0.0146
0.9797	0.5003	100	0.9889	0.0111
0.9799	0.1	100	0.9813	0.0187
0.9799	0.4001	100	0.9874	0.0126
