Measured thermophysical data. Physical Properties of Aqueous Solutions of Ionic Liquid, 1-Propyl-3-methylimidazolium Methyl Sulfate, at T = (298.15 to 328.15) K
Source: J. Chem. Eng. Data, 2010, 10.1021/je900457z
Compound 1: water, H2O, InChI=1S/H2O/h1H2
Compound 2: 1-propyl-3-methylimidazolium methylsulfate, C8H16N2O4S, InChI=1S/C7H13N2.CH4O4S/c1-3-4-9-6-5-8(2)7-9;1-5-6(2,3)4/h5-7H,3-4H2,1-2H3;1H3,(H,2,3,4)/q+1;/p-1

System: 1-propyl-3-methylimidazolium methylsulfate; phases: Liquid
Fixed: Pressure, kPa = 101.325
Property: Refractive index (Na D-line) (Liquid); method: ABBE:UFactor:8
Temperature, K	Refractive index (Na D-line)	uncertainty
298.15	1.4761	0.0025
308.15	1.4725	0.0025
318.15	1.4701	0.0025
328.15	1.4664	0.0025

System: 1-propyl-3-methylimidazolium methylsulfate; phases: Liquid
Fixed: Pressure, kPa = 101.325
Property: Mass density, kg/m3 (Liquid); method: VIBTUB:UFactor:32
Temperature, K	Mass density, kg/m3	uncertainty
298.15	1511.4	9.4
308.15	1507.5	9.3
318.15	1493	9.1
328.15	1485.1	9

System: water + 1-propyl-3-methylimidazolium methylsulfate; phases: Liquid
Fixed: Pressure, kPa = 101
Property: Osmotic coefficient (Liquid); method: Vapor pressure osmometer
Temperature, K	Molality, mol/kg of 1-propyl-3-methylimidazolium methylsulfate	Osmotic coefficient	uncertainty
308.15	0.0122	0.914	0.019
308.15	0.0381	0.889	0.018
308.15	0.0508	0.861	0.018
308.15	0.0732	0.845	0.018
308.15	0.0893	0.826	0.018
308.15	0.1374	0.789	0.017
308.15	0.2999	0.761	0.017
308.15	0.4396	0.747	0.017
308.15	0.5689	0.733	0.017
308.15	0.7404	0.727	0.017
308.15	0.8644	0.724	0.017
308.15	1.096	0.721	0.017
308.15	1.3471	0.731	0.017
318.15	0.0122	1.004	0.02
318.15	0.0381	0.983	0.02
318.15	0.0508	0.96	0.019
318.15	0.0732	0.924	0.019
318.15	0.0893	0.924	0.019
318.15	0.1374	0.848	0.018
318.15	0.2999	0.812	0.018
318.15	0.4396	0.79	0.017
318.15	0.5689	0.768	0.017
318.15	0.7404	0.755	0.017
318.15	0.8644	0.753	0.017
318.15	1.096	0.752	0.017
318.15	1.3471	0.755	0.017
328.15	0.0122	1.015	0.02
328.15	0.0381	0.984	0.02
328.15	0.0508	0.977	0.02
328.15	0.0732	0.91	0.018
328.15	0.0893	0.881	0.018
328.15	0.1374	0.848	0.018
328.15	0.2999	0.823	0.018
328.15	0.4396	0.81	0.018
328.15	0.5689	0.803	0.018
328.15	0.7404	0.793	0.017
328.15	0.8644	0.788	0.017
328.15	1.096	0.793	0.017
328.15	1.3471	0.836	0.018

System: water + 1-propyl-3-methylimidazolium methylsulfate; phases: Liquid
Fixed: Pressure, kPa = 101
Property: Molar conductivity, S*m2/mol (Liquid); method: Digital conductivity meter
Temperature, K	Amount concentration (molarity), mol/dm3 of 1-propyl-3-methylimidazolium methylsulfate	Molar conductivity, S*m2/mol	uncertainty
298.15	0.8737	0.021529	4.7e-05
298.15	1.626	0.020528	4.5e-05
298.15	2.4027	0.019969	4.4e-05
298.15	2.6615	0.019812	4.4e-05
298.15	3.8588	0.019262	4.3e-05
298.15	5.1046	0.018791	4.3e-05
298.15	6.1482	0.018425	4.2e-05
298.15	7.1594	0.017987	4.2e-05
298.15	8.3486	0.017509	4.1e-05
298.15	9.2547	0.017276	4.1e-05
298.15	10.2983	0.016826	4.1e-05
298.15	11.3661	0.016706	4.1e-05
298.15	12.3773	0.016165	4e-05
308.15	0.8029	0.026035	5.3e-05
308.15	1.6707	0.025082	5.1e-05
308.15	2.7412	0.024403	5e-05
308.15	3.6009	0.024117	4.9e-05
308.15	4.4443	0.023863	4.8e-05
308.15	5.5879	0.023614	4.8e-05
308.15	6.7395	0.023348	4.7e-05
308.15	7.81	0.023285	4.7e-05
308.15	8.9779	0.023029	4.7e-05
308.15	9.9754	0.022771	4.6e-05
308.15	10.9081	0.022557	4.6e-05
308.15	11.9949	0.022264	4.5e-05
308.15	13.1546	0.021951	4.4e-05
318.15	1.0101	0.026624	5.4e-05
318.15	1.7383	0.025912	5.2e-05
318.15	2.5996	0.024955	5e-05
318.15	3.5549	0.024199	4.8e-05
318.15	4.6511	0.023492	4.7e-05
318.15	5.4889	0.023113	4.6e-05
318.15	6.2406	0.022588	4.5e-05
318.15	7.1175	0.022067	4.4e-05
318.15	7.9867	0.021531	4.3e-05
318.15	8.9028	0.02109	4.2e-05
318.15	9.6702	0.020761	4.2e-05
318.15	10.8055	0.020477	4.1e-05
318.15	11.6747	0.019955	4e-05
328.15	0.80469	0.028624	5.8e-05
328.15	1.68827	0.027658	5.6e-05
328.15	2.57975	0.026779	5.4e-05
328.15	3.42388	0.025782	5.2e-05
328.15	4.29169	0.024928	5e-05
328.15	5.28572	0.023774	4.8e-05
328.15	6.24031	0.023084	4.6e-05
328.15	7.28167	0.022228	4.4e-05
328.15	8.31515	0.021557	4.3e-05
328.15	9.44329	0.020888	4.2e-05
328.15	10.47677	0.02045	4.1e-05
328.15	11.52603	0.019916	4e-05
328.15	12.55161	0.019253	3.9e-05

System: water + 1-propyl-3-methylimidazolium methylsulfate; phases: Liquid
Fixed: Pressure, kPa = 101
Property: Viscosity, Pa*s (Liquid); method: CAPTUB:UFactor:4
Temperature, K	Molality, mol/kg of 1-propyl-3-methylimidazolium methylsulfate	Viscosity, Pa*s	uncertainty
298.15	0.0156	0.0007993	4.41e-05
298.15	0.0429	0.0008047	4.42e-05
298.15	0.0519	0.0008136	4.42e-05
298.15	0.076	0.0008187	4.43e-05
298.15	0.0905	0.0008133	4.42e-05
298.15	0.1342	0.0008294	4.44e-05
298.15	0.2693	0.0008379	4.44e-05
298.15	0.4332	0.0008855	4.49e-05
298.15	0.5359	0.0009309	4.53e-05
298.15	0.6952	0.0009993	4.59e-05
298.15	0.9249	0.0011134	4.71e-05
298.15	1.0817	0.0011823	4.78e-05
298.15	1.4481	0.0013866	5.02e-05
298.15	1.6624	0.0014804	5.14e-05
308.15	0.0156	0.0006991	4.33e-05
308.15	0.0429	0.0007085	4.34e-05
308.15	0.0519	0.0007173	4.35e-05
308.15	0.076	0.0007265	4.35e-05
308.15	0.0905	0.0007353	4.36e-05
308.15	0.1342	0.0007582	4.38e-05
308.15	0.2693	0.0007958	4.41e-05
308.15	0.4332	0.0008469	4.45e-05
308.15	0.5359	0.0008876	4.49e-05
308.15	0.6952	0.0009298	4.53e-05
308.15	0.9249	0.0010213	4.62e-05
308.15	1.0817	0.0010718	4.67e-05
308.15	1.4481	0.0012052	4.81e-05
308.15	1.6624	0.0012677	4.89e-05
318.15	0.0156	0.0006198	4.27e-05
318.15	0.0429	0.0006376	4.29e-05
318.15	0.0519	0.000642	4.29e-05
318.15	0.076	0.0006469	4.29e-05
318.15	0.0905	0.0006598	4.3e-05
318.15	0.1342	0.000658	4.3e-05
318.15	0.2693	0.000702	4.33e-05
318.15	0.4332	0.0007568	4.38e-05
318.15	0.5359	0.0008101	4.42e-05
318.15	0.6952	0.0008648	4.47e-05
318.15	0.9249	0.000963	4.56e-05
318.15	1.0817	0.0010175	4.61e-05
318.15	1.4481	0.0011671	4.77e-05
318.15	1.6624	0.0012466	4.86e-05
328.15	0.0156	0.0005655	4.24e-05
328.15	0.0429	0.0005703	4.24e-05
328.15	0.0519	0.0005748	4.24e-05
328.15	0.076	0.0005795	4.25e-05
328.15	0.0905	0.0005881	4.25e-05
328.15	0.1342	0.0006018	4.26e-05
328.15	0.2693	0.0006469	4.29e-05
328.15	0.4332	0.0007007	4.33e-05
328.15	0.5359	0.0007362	4.36e-05
328.15	0.6952	0.0007901	4.41e-05
328.15	0.9249	0.0008783	4.48e-05
328.15	1.0817	0.0009533	4.55e-05
328.15	1.4481	0.0010543	4.65e-05
328.15	1.6624	0.0011223	4.73e-05

System: water + 1-propyl-3-methylimidazolium methylsulfate; phases: Liquid
Fixed: Pressure, kPa = 101
Property: Refractive index (Na D-line) (Liquid); method: Standard Abbe refractometry
Temperature, K	Molality, mol/kg of 1-propyl-3-methylimidazolium methylsulfate	Refractive index (Na D-line)	uncertainty
298.15	0.0122	1.3329	0.0004
298.15	0.0381	1.3334	0.0004
298.15	0.0509	1.3338	0.0004
298.15	0.0732	1.3345	0.0004
298.15	0.0894	1.3348	0.0004
298.15	0.1377	1.3359	0.0004
298.15	0.3004	1.3398	0.0004
298.15	0.4427	1.3429	0.0004
298.15	0.6101	1.3468	0.0004
298.15	0.7409	1.3496	0.0004
298.15	0.8646	1.3522	0.0004
298.15	0.9948	1.3549	0.0004
298.15	1.0961	1.3569	0.0004
308.15	0.0122	1.3319	0.0004
308.15	0.0381	1.3325	0.0004
308.15	0.0509	1.3328	0.0004
308.15	0.0732	1.3334	0.0004
308.15	0.0894	1.3337	0.0004
308.15	0.1377	1.3348	0.0004
308.15	0.3004	1.3386	0.0004
308.15	0.4427	1.3417	0.0004
308.15	0.6101	1.3452	0.0004
308.15	0.7409	1.3481	0.0004
308.15	0.8646	1.3506	0.0004
308.15	0.9948	1.3535	0.0004
308.15	1.0961	1.3557	0.0004
318.15	0.0122	1.33	0.0004
318.15	0.0381	1.3308	0.0004
318.15	0.0509	1.3313	0.0004
318.15	0.0732	1.3318	0.0004
318.15	0.0894	1.3324	0.0004
318.15	0.1377	1.3335	0.0004
318.15	0.3004	1.3371	0.0004
318.15	0.4427	1.3401	0.0004
318.15	0.6101	1.3437	0.0004
318.15	0.7409	1.3469	0.0004
318.15	0.8646	1.3493	0.0004
318.15	0.9948	1.3519	0.0004
318.15	1.0961	1.3537	0.0004
328.15	0.0122	1.3289	0.0004
328.15	0.0381	1.3294	0.0004
328.15	0.0509	1.3299	0.0004
328.15	0.0732	1.3303	0.0004
328.15	0.0894	1.3307	0.0004
328.15	0.1377	1.3318	0.0004
328.15	0.3004	1.3352	0.0004
328.15	0.4427	1.3382	0.0004
328.15	0.6101	1.3417	0.0004
328.15	0.7409	1.3445	0.0004
328.15	0.8646	1.347	0.0004
328.15	0.9948	1.3498	0.0004
328.15	1.0961	1.3519	0.0004

System: water + 1-propyl-3-methylimidazolium methylsulfate; phases: Liquid
Fixed: Pressure, kPa = 101
Property: Mass density, kg/m3 (Liquid); method: VIBTUB:UFactor:32
Temperature, K	Molality, mol/kg of 1-propyl-3-methylimidazolium methylsulfate	Mass density, kg/m3	uncertainty
298.15	0.013	997.75	1.02
298.15	0.041	999.28	1
298.15	0.049	999.68	1
298.15	0.072	1000.75	1.01
298.15	0.079	1001.08	1.01
298.15	0.127	1003.28	1.04
298.15	0.254	1008.38	1.11
298.15	0.409	1013.54	1.18
298.15	0.506	1016.12	1.21
298.15	0.656	1019.99	1.27
298.15	0.873	1025.08	1.34
298.15	1.021	1028.37	1.39
298.15	1.367	1034.03	1.48
298.15	1.569	1035.95	1.52
308.15	0.013	994.68	1.06
308.15	0.041	996.01	1.05
308.15	0.049	996.34	1.04
308.15	0.072	997.3	1.03
308.15	0.079	997.65	1.02
308.15	0.127	999.65	1
308.15	0.254	1004.04	1.05
308.15	0.409	1008.75	1.12
308.15	0.506	1011	1.15
308.15	0.656	1014.5	1.2
308.15	0.873	1020.05	1.28
308.15	1.021	1022.71	1.32
308.15	1.367	1029.27	1.42
308.15	1.569	1030.46	1.45
318.15	0.013	990.76	1.11
318.15	0.041	991.88	1.1
318.15	0.049	992.28	1.09
318.15	0.072	993.18	1.08
318.15	0.079	993.38	1.08
318.15	0.127	995.11	1.06
318.15	0.254	998.91	1.01
318.15	0.409	1003.45	1.05
318.15	0.506	1005.82	1.08
318.15	0.656	1009.04	1.13
318.15	0.873	1013.46	1.2
318.15	1.021	1016.21	1.24
318.15	1.367	1018.88	1.29
318.15	1.569	1020.31	1.32
328.15	0.013	985.52	1.18
328.15	0.041	986.58	1.16
328.15	0.049	986.86	1.16
328.15	0.072	987.64	1.15
328.15	0.079	987.89	1.15
328.15	0.127	989.39	1.13
328.15	0.254	993.22	1.09
328.15	0.409	997.04	1.04
328.15	0.506	998.88	1.02
328.15	0.656	1002	1.04
328.15	0.873	1005.28	1.09
328.15	1.021	1007.74	1.13
328.15	1.367	1009.99	1.18
328.15	1.569	1012.24	1.22
