Measured thermophysical data. A Study on the Sublimation of Gallium Tribromide
Source: J. Chem. Eng. Data, 2009, 10.1021/je900182h
Compound 1: gallium bromide, Br3Ga, InChI=1S/3BrH.Ga/h3*1H;/q;;;+3/p-3

System: gallium bromide; phases: Crystal, Gas
Property: Vapor or sublimation pressure, kPa (Crystal); method: TOREFF:UFactor:6
Temperature, K	Vapor or sublimation pressure, kPa	uncertainty
300	7.08e-05	2.13e-05
302.5	6.31e-05	1.9e-05
302.5	9.55e-05	2.88e-05
303	4.79e-05	1.44e-05
304	7.24e-05	2.18e-05
304.5	8.51e-05	2.56e-05
305	7.24e-05	2.18e-05
306.5	9.77e-05	2.94e-05
307	0.000141	4.2e-05
307	9.77e-05	2.94e-05
307.5	0.000126	3.8e-05
307.5	9.55e-05	2.87e-05
308	0.000126	3.8e-05
309.5	0.000145	4.4e-05
310	0.00017	5.1e-05
310	0.000123	3.7e-05
310.5	0.000141	4.2e-05
311	0.00024	7.2e-05
311.7	0.000263	7.9e-05
312	0.000214	6.4e-05
312.5	0.00017	5.1e-05
313	0.000331	9.9e-05
313	0.000331	9.9e-05
313	0.000257	7.7e-05
313	0.000191	5.7e-05
313	0.000195	5.9e-05
313	0.000195	5.9e-05
313.5	0.000219	6.6e-05
314	0.00038	0.000114
314.5	0.000339	0.000102
314.5	0.000219	6.6e-05
315	0.00038	0.000114
315	0.000339	0.000102
315	0.00024	7.2e-05
315	0.000245	7.4e-05
315.5	0.000263	7.9e-05
316	0.00038	0.000114
316	0.000245	7.4e-05
316.5	0.000288	8.6e-05
317	0.000331	9.9e-05
317	0.000295	8.9e-05
317.5	0.000525	0.000158
317.5	0.000339	0.000102
317.5	0.000339	0.000102
318	0.00055	0.000165
318.5	0.000513	0.000154
318.5	0.000339	0.000102
319.5	0.000589	0.000177
319.5	0.000676	0.000203
319.5	0.000427	0.000128
319.5	0.000437	0.000131
320	0.000617	0.000185
320	0.000363	0.000109
321	0.000851	0.000255
321	0.000759	0.000228
321.5	0.000575	0.000173
322	0.000759	0.000228
322	0.000912	0.000274
322	0.000525	0.000158
322.5	0.000891	0.000267
322.5	0.000589	0.000177
323	0.0011	0.00033
323	0.000977	0.000293
323	0.000661	0.000198
323.5	0.000724	0.000217
324	0.0011	0.00033
324	0.00123	0.00037
324	0.000724	0.000217
324	0.000676	0.000203
324.5	0.000708	0.000213
325	0.00141	0.00042
325	0.000724	0.000217
325.5	0.000813	0.000244
326	0.00141	0.00042
326	0.000832	0.00025
326.5	0.000955	0.000287
326.5	0.000832	0.00025
327	0.00117	0.00035
327	0.000977	0.000293
327.5	0.00162	0.00049
327.5	0.00151	0.00045
327.5	0.00102	0.00031
327.5	0.00107	0.00032
328	0.00191	0.00057
328	0.00105	0.00032
328.5	0.00178	0.00053
328.5	0.00178	0.00053
328.5	0.000977	0.000293
329.5	0.00148	0.00044
329.5	0.00123	0.00037
330	0.00251	0.00075
330	0.00141	0.00042
330	0.00158	0.00047
330	0.00141	0.00042
331	0.00263	0.00079
331	0.00257	0.00077
331.5	0.00204	0.00061
332	0.00324	0.00097
332	0.00191	0.00057
332.5	0.00174	0.00052
333	0.00257	0.00077
333	0.00195	0.00059
333	0.00214	0.00064
333	0.00204	0.00061
333.5	0.00331	0.00099
333.5	0.00204	0.00061
334	0.00398	0.00119
334	0.00234	0.0007
335	0.00437	0.00131
335	0.00417	0.00125
335	0.00191	0.00057
335.5	0.00263	0.00079
336	0.00324	0.00097
336	0.00437	0.00131
336	0.00288	0.00086
336	0.00288	0.00086
336	0.00263	0.00079
336	0.00263	0.00079
337	0.00339	0.00102
338	0.0055	0.00165
338	0.00363	0.00109
338	0.00363	0.00109
338	0.00309	0.00093
339.5	0.00525	0.00158
340	0.00407	0.00122
340	0.00427	0.00128
340	0.00437	0.00131
340.5	0.00437	0.00131
341	0.00759	0.00228
341	0.00427	0.00128
342	0.00501	0.0015
343	0.00759	0.00228
343	0.00589	0.00177
343.5	0.00603	0.00181
344	0.00617	0.00185
344	0.00617	0.00185
344.5	0.00708	0.00212
345	0.00661	0.00198
345	0.00676	0.00203
346	0.00977	0.00293
346	0.00741	0.00222
346	0.00776	0.00233
346	0.00794	0.00238
346.5	0.00871	0.00261
347	0.0135	0.0041
348	0.00871	0.00261
348	0.00955	0.00287
349	0.01	0.003
349	0.012	0.0036
349	0.0105	0.0032
350.5	0.0115	0.0035
351	0.0186	0.0056
351	0.0117	0.0035
352	0.0145	0.0044
354.5	0.0174	0.0052
357	0.0195	0.0059
