Measured thermophysical data. Phase Behavior, Densities, and Isothermal Compressibility of Carbon Dioxide + 1-Bromobutane, Carbon Dioxide + 1-Chlorobutane, and Carbon Dioxide + 1-Methylimidazole
Source: J. Chem. Eng. Data, 2010, 10.1021/je900387e
Compound 1: carbon dioxide, CO2, InChI=1S/CO2/c2-1-3, purity 99.995%
Compound 2: 1-bromobutane, C4H9Br, InChI=1S/C4H9Br/c1-2-3-4-5/h2-4H2,1H3
Compound 3: 1-chlorobutane, C4H9Cl, InChI=1S/C4H9Cl/c1-2-3-4-5/h2-4H2,1H3
Compound 4: 1-methylimidazole, C4H6N2, InChI=1S/C4H6N2/c1-6-3-2-5-4-6/h2-4H,1H3

System: 1-bromobutane + carbon dioxide; phases: Liquid, Gas
Property: Critical pressure, kPa (Liquid); method: Direct measurement
Mole fraction of 1-bromobutane	Critical pressure, kPa	uncertainty
0.0245	8270	50
0.0461	9360	50
0.0683	10180	60

System: 1-bromobutane + carbon dioxide; phases: Liquid, Gas
Property: Critical temperature, K (Liquid); method: Visual observation in an unstirred cell
Mole fraction of 1-bromobutane	Critical temperature, K	uncertainty
0.0245	316.1	0.3
0.0461	327.6	0.3
0.0683	335.9	0.4

System: 1-bromobutane + carbon dioxide; phases: Gas, Liquid
Property: Vapor or sublimation pressure, kPa (Gas); method: CCELL:UFactor:4
Temperature, K	Mole fraction of 1-bromobutane	Vapor or sublimation pressure, kPa	uncertainty
317.9	0.0245	8450	110
322.7	0.0245	8820	110
327.6	0.0245	9080	110
332.4	0.0245	9170	120
332.4	0.0461	9810	120
337.4	0.0245	9120	120
337.4	0.0461	10210	130

System: 1-bromobutane + carbon dioxide; phases: Liquid, Gas
Property: Vapor or sublimation pressure, kPa (Liquid); method: CCELL:UFactor:4
Temperature, K	Mole fraction of 1-bromobutane	Vapor or sublimation pressure, kPa	uncertainty
308.2	0.0245	7380	100
308.2	0.0461	7090	100
308.2	0.0683	6850	100
308.2	0.0989	6620	90
308.2	0.1495	6320	90
313.1	0.0245	7990	110
313.1	0.0461	7668	104
313.1	0.0683	7480	100
313.1	0.0989	7230	100
313.1	0.1495	6900	100
317.9	0.0461	8330	110
317.9	0.0683	8230	110
317.9	0.0989	7950	110
317.9	0.1495	7540	100
322.7	0.0461	8860	110
322.7	0.0683	8810	110
322.7	0.0989	8500	110
322.7	0.1495	8260	110
327.6	0.0683	9350	120
327.6	0.0989	9100	120
327.6	0.1495	8820	110
332.4	0.0683	9840	120
332.4	0.0989	9670	120
332.4	0.1495	9350	120
337.4	0.0989	10240	130
337.4	0.1495	10000	130

System: 1-bromobutane + carbon dioxide; phases: Liquid
Property: Mass density, kg/m3 (Liquid); method: Pycnometric method
Pressure, kPa	Temperature, K	Mole fraction of 1-bromobutane	Mass density, kg/m3	uncertainty
6320	308.2	0.1495	1011	4
6620	308.2	0.0989	890	4
6840	308.2	0.0989	897	4
6850	308.2	0.0683	834	4
6900	313.1	0.1495	986	4
6930	308.2	0.0683	836	4
6980	308.2	0.0683	838	4
7040	308.2	0.0989	903	4
7050	308.2	0.0683	842	4
7090	308.2	0.0461	805	4
7090	308.2	0.0683	845	4
7160	308.2	0.0683	848	4
7230	308.2	0.0461	811	4
7230	313.1	0.0989	875	4
7240	308.2	0.0683	850	4
7250	313.1	0.1495	991	4
7350	308.2	0.0683	854	4
7350	308.2	0.0989	910	4
7380	308.2	0.0245	712	4
7390	308.2	0.0461	817	4
7400	308.2	0.0245	711	4
7400	308.2	0.1495	1018	4
7420	308.2	0.0245	713	4
7440	308.2	0.0245	716	4
7450	308.2	0.0683	858	4
7480	308.2	0.0245	720	4
7480	313.1	0.0683	811	4
7510	313.1	0.1495	994	4
7520	308.2	0.0245	724	4
7520	313.1	0.0989	881	4
7540	308.2	0.0683	861	4
7540	317.9	0.1495	964	4
7550	308.2	0.0461	823	4
7590	308.2	0.0245	729	4
7590	313.1	0.0683	814	4
7640	308.2	0.0245	734	4
7660	308.2	0.0461	827	4
7660	308.2	0.0683	864	4
7670	313.1	0.0683	817	4
7680	313.1	0.0461	756	4
7700	308.2	0.0245	738	4
7700	308.2	0.0989	916	4
7730	313.1	0.0461	758	4
7750	308.2	0.0461	830	4
7760	313.1	0.0683	820	4
7770	308.2	0.0245	743	4
7770	313.1	0.1495	997	4
7770	317.9	0.1495	967	4
7780	308.2	0.0683	867	4
7820	313.1	0.0461	764	4
7830	308.2	0.0245	747	4
7830	313.1	0.0989	882	4
7850	308.2	0.0461	833	4
7860	313.1	0.0683	823	4
7910	313.1	0.0461	769	4
7920	308.2	0.0245	752	4
7950	308.2	0.0461	836	4
7950	313.1	0.0683	826	4
7950	317.9	0.0989	850	4
7990	313.1	0.0245	619	4
7990	317.9	0.1495	970	4
8000	313.1	0.0245	621	4
8010	308.2	0.0245	757	4
8010	313.1	0.0461	775	4
8030	313.1	0.0245	628	4
8060	308.2	0.0461	839	4
8060	313.1	0.0683	829	4
8070	313.1	0.0245	635	4
8090	308.2	0.0245	762	4
8090	313.1	0.1495	1001	4
8090	317.9	0.0989	853	4
8100	313.1	0.0245	641	4
8100	313.1	0.0461	780	4
8120	308.2	0.0989	924	4
8140	313.1	0.0245	649	4
8170	313.1	0.0683	832	4
8170	313.1	0.0989	893	4
8190	308.2	0.0461	843	4
8190	308.2	0.1495	1026	4
8190	313.1	0.0245	656	4
8200	308.2	0.0245	767	4
8230	317.9	0.0683	777	4
8230	317.9	0.1495	974	4
8240	313.1	0.0245	663	4
8240	313.1	0.0461	786	4
8260	322.7	0.1495	946	4
8270	316.1	0.0245	528	4
8280	316.1	0.0245	532	4
8290	313.1	0.0683	835	4
8300	308.2	0.0245	772	4
8300	313.1	0.0245	671	4
8300	316.1	0.0245	537	4
8320	316.1	0.0245	543	4
8330	317.9	0.0461	703	4
8340	316.1	0.0245	549	4
8340	317.9	0.0683	780	4
8360	313.1	0.0245	679	4
8360	313.1	0.0461	791	4
8360	316.1	0.0245	556	4
8370	317.9	0.0461	705	4
8370	317.9	0.0989	859	4
8380	316.1	0.0245	562	4
8390	313.1	0.0683	838	4
8410	316.1	0.0245	572	4
8420	308.2	0.0245	777	4
8430	313.1	0.0245	687	4
8450	317.9	0.0245	491	4
8450	317.9	0.0461	712	4
8450	317.9	0.1495	977	4
8460	313.1	0.1495	1004	4
8460	316.1	0.0245	582	4
8460	317.9	0.0245	493	4
8470	322.7	0.1495	948	4
8480	317.9	0.0245	499	4
8490	317.9	0.0683	786	4
8500	313.1	0.0461	797	4
8500	317.9	0.0245	506	4
8500	322.7	0.0989	818	4
8510	316.1	0.0245	593	4
8530	313.1	0.0245	695	4
8530	317.9	0.0245	512	4
8540	313.1	0.0683	842	4
8550	317.9	0.0245	518	4
8550	317.9	0.0461	721	4
8560	313.1	0.0989	900	4
8560	316.1	0.0245	604	4
8570	317.9	0.0245	525	4
8600	317.9	0.0245	532	4
8610	308.2	0.0989	930	4
8620	308.2	0.0245	785	4
8620	313.1	0.0245	703	4
8620	316.1	0.0245	615	4
8620	317.9	0.0245	540	4
8630	317.9	0.0683	791	4
8650	313.1	0.0461	802	4
8650	317.9	0.0245	547	4
8650	317.9	0.0989	865	4
8660	313.1	0.0683	845	4
8660	317.9	0.1495	980	4
8680	317.9	0.0461	731	4
8690	316.1	0.0245	627	4
8690	317.9	0.0245	555	4
8710	322.7	0.1495	952	4
8720	317.9	0.0245	563	4
8720	322.7	0.0989	825	4
8740	313.1	0.0245	712	4
8770	317.9	0.0245	571	4
8780	316.1	0.0245	639	4
8790	313.1	0.0683	848	4
8790	313.1	0.1495	1008	4
8790	317.9	0.0683	797	4
8800	317.9	0.0245	579	4
8810	322.7	0.0683	731	4
8820	317.9	0.0245	583	4
8820	322.7	0.0245	422	4
8820	327.6	0.1495	922	4
8840	308.2	0.0245	793	4
8840	313.1	0.0461	808	4
8840	317.9	0.0245	588	4
8840	317.9	0.0461	741	4
8840	322.7	0.0245	425	4
8860	313.1	0.0245	720	4
8860	322.7	0.0461	629	4
8870	317.9	0.0245	589	4
8880	316.1	0.0245	652	4
8880	322.7	0.0245	432	4
8880	322.7	0.0683	735	4
8890	317.9	0.0245	597	4
8900	322.7	0.0461	632	4
8920	317.9	0.0245	601	4
8920	322.7	0.0245	439	4
8920	322.7	0.0989	830	4
8920	322.7	0.1495	954	4
8930	313.1	0.0683	851	4
8940	317.9	0.0683	802	4
8940	322.7	0.0461	639	4
8950	317.9	0.0989	871	4
8950	327.6	0.1495	924	4
8960	317.9	0.0245	608	4
8960	317.9	0.0461	748	4
8960	322.7	0.0245	447	4
8970	322.7	0.0683	740	4
8990	317.9	0.1495	984	4
8990	322.7	0.0461	647	4
9000	316.1	0.0245	665	4
9000	322.7	0.0245	455	4
9010	313.1	0.0245	729	4
9030	313.1	0.0989	907	4
9040	308.2	0.1495	1033	4
9040	313.1	0.0461	814	4
9060	322.7	0.0461	655	4
9070	322.7	0.0245	465	4
9070	322.7	0.0683	745	4
9080	327.6	0.0245	359	4
9100	308.2	0.0245	801	4
9100	317.9	0.0461	756	4
9100	327.6	0.0989	786	4
9110	313.1	0.0683	854	4
9110	322.7	0.0245	473	4
9110	327.6	0.0245	362	4
9120	322.7	0.0461	662	4
9120	337.9	0.0245	280	4
9130	317.9	0.0683	808	4
9140	327.6	0.1495	927	4
9150	316.1	0.0245	683	4
9150	337.9	0.0245	283	4
9160	322.7	0.0245	482	4
9160	322.7	0.0683	750	4
9160	322.7	0.0989	836	4
9160	322.7	0.1495	958	4
9170	327.6	0.0245	369	4
9170	332.4	0.0245	317	4
9180	313.1	0.0245	738	4
9190	308.2	0.0989	938	4
9190	322.7	0.0461	671	4
9200	332.4	0.0245	319	4
9210	322.7	0.0245	491	4
9220	327.6	0.0245	375	4
9220	337.9	0.0245	288	4
9230	327.6	0.0989	791	4
9240	313.1	0.0461	820	4
9250	317.9	0.1495	987	4
9250	322.7	0.0683	755	4
9250	332.4	0.0245	323	4
9260	313.1	0.0683	858	4
9260	322.7	0.0245	500	4
9270	317.9	0.0461	764	4
9270	322.7	0.0461	679	4
9270	327.6	0.0245	382	4
9290	337.9	0.0245	292	4
9300	317.9	0.0989	877	4
9300	332.4	0.0245	328	4
9320	322.7	0.0245	510	4
9330	317.9	0.0683	814	4
9330	327.6	0.0245	389	4
9340	316.1	0.0245	694	4
9340	327.6	0.1495	930	4
9350	327.6	0.0683	677	4
9350	332.4	0.0245	332	4
9350	332.4	0.1495	896	4
9360	322.7	0.0683	759	4
9360	327.6	0.0461	555	4
9370	308.2	0.0245	809	4
9370	322.7	0.0245	520	4
9370	337.9	0.0245	297	4
9380	313.1	0.0245	748	4
9380	322.7	0.0461	687	4
9380	322.7	0.1495	961	4
9380	327.6	0.0245	396	4
9380	327.6	0.0461	559	4
9380	327.6	0.0683	680	4
9390	327.6	0.0461	563	4
9390	327.6	0.0989	796	4
9400	322.7	0.0989	841	4
9400	332.4	0.0245	336	4
9420	327.6	0.0245	401	4
9430	322.7	0.0245	531	4
9430	327.6	0.0461	569	4
9440	313.1	0.0683	861	4
9440	332.4	0.0245	340	4
9440	337.9	0.0245	303	4
9460	327.6	0.0245	406	4
9470	313.1	0.0461	826	4
9470	327.6	0.0461	577	4
9470	327.6	0.0683	688	4
9480	313.1	0.0989	913	4
9480	322.7	0.0461	696	4
9480	322.7	0.0683	765	4
9490	327.6	0.0461	584	4
9490	332.4	0.0245	345	4
9500	322.7	0.0245	542	4
9520	327.6	0.0245	414	4
9520	327.6	0.1495	933	4
9520	337.9	0.0245	308	4
9530	317.9	0.0461	774	4
9540	313.1	0.1495	1015	4
9540	317.9	0.0683	820	4
9540	327.6	0.0989	801	4
9540	332.4	0.0245	349	4
9560	316.1	0.0245	709	4
9560	327.6	0.0461	591	4
9570	322.7	0.0245	553	4
9570	327.6	0.0683	696	4
9580	313.1	0.0683	864	4
9580	317.9	0.1495	990	4
9580	327.6	0.0245	423	4
9580	332.4	0.0245	354	4
9580	332.4	0.1495	900	4
9600	313.1	0.0245	758	4
9600	322.7	0.0683	770	4
9600	337.9	0.0245	314	4
9610	322.7	0.0461	705	4
9640	332.4	0.0245	359	4
9650	322.7	0.0989	847	4
9650	327.6	0.0245	431	4
9650	327.6	0.0461	599	4
9660	322.7	0.0245	565	4
9670	317.9	0.0989	884	4
9670	322.7	0.1495	964	4
9670	332.4	0.0989	750	4
9680	308.2	0.0245	818	4
9680	337.9	0.0245	320	4
9690	332.4	0.0245	364	4
9700	327.6	0.0683	705	4
9700	327.6	0.0989	806	4
9710	313.1	0.0461	833	4
9710	327.6	0.0461	606	4
9710	327.6	0.1495	936	4
9720	327.6	0.0245	440	4
9730	322.7	0.0683	775	4
9740	332.4	0.0245	369	4
9750	322.7	0.0245	576	4
9750	337.9	0.0245	325	4
9760	327.6	0.0461	615	4
9760	332.4	0.1495	903	4
9770	317.9	0.0683	826	4
9780	332.4	0.0989	755	4
9790	313.1	0.0683	868	4
9790	327.6	0.0245	449	4
9790	332.4	0.0245	375	4
9810	317.9	0.0461	785	4
9810	322.7	0.0461	718	4
9810	332.4	0.0461	512	4
9820	308.2	0.0989	944	4
9830	327.6	0.0461	623	4
9830	327.6	0.0683	714	4
9830	332.4	0.0461	516	4
9830	337.9	0.0245	331	4
9840	332.4	0.0245	380	4
9840	332.4	0.0683	622	4
9850	313.1	0.0245	767	4
9850	316.1	0.0245	725	4
9850	322.7	0.0245	590	4
9860	317.9	0.1495	993	4
9860	327.6	0.0245	459	4
9870	322.7	0.0683	780	4
9870	332.4	0.0683	625	4
9890	327.6	0.0989	811	4
9890	327.6	0.1495	939	4
9890	332.4	0.0461	521	4
9890	332.4	0.0989	759	4
9890	332.4	0.1495	906	4
9900	332.4	0.0245	386	4
9900	332.4	0.0683	629	4
9910	322.7	0.1495	968	4
9920	327.6	0.0461	631	4
9920	337.9	0.0245	338	4
9930	322.7	0.0245	599	4
9930	322.7	0.0989	853	4
9930	332.4	0.0461	527	4
9950	313.1	0.1495	1018	4
9950	327.6	0.0245	469	4
9950	332.4	0.0245	392	4
9960	308.2	0.1495	1041	4
9960	332.4	0.0683	636	4
9970	332.4	0.0461	533	4
9990	313.1	0.0461	840	4
9990	322.7	0.0245	606	4
10000	322.7	0.0245	608	4
10000	327.6	0.0683	723	4
10000	332.4	0.0683	640	4
10000	332.4	0.0989	764	4
10000	337.4	0.1495	872	4
10000	337.9	0.0245	345	4
10010	327.6	0.0461	640	4
10010	332.4	0.0245	398	4
10020	313.1	0.0989	920	4
10020	332.4	0.0245	399	4
10020	332.4	0.0461	539	4
10030	317.9	0.0683	832	4
10030	327.6	0.0245	480	4
10040	308.2	0.0245	827	4
10040	332.4	0.1495	909	4
10050	317.9	0.0989	890	4
10050	322.7	0.0683	786	4
10050	327.6	0.0245	484	4
10060	327.6	0.0245	486	4
10060	332.4	0.0461	546	4
10070	327.6	0.1495	942	4
10070	332.4	0.0683	647	4
10080	327.6	0.0989	817	4
10080	337.9	0.0245	352	4
10090	322.7	0.0461	733	4
10110	332.4	0.0989	769	4
10120	327.6	0.0461	649	4
10120	332.4	0.0461	552	4
10130	308.2	0.0989	948	4
10150	313.1	0.0245	778	4
10150	332.4	0.0683	654	4
10160	317.9	0.0461	796	4
10160	322.7	0.1495	971	4
10180	332.4	0.0461	559	4
10180	335.9	0.0683	589	4
10180	337.9	0.0245	359	4
10190	327.6	0.0683	733	4
10190	332.4	0.1495	912	4
10190	337.4	0.1495	876	4
10200	316.1	0.0245	741	4
10200	335.9	0.0683	591	4
10210	335.9	0.0683	593	4
10210	337.4	0.0461	479	4
10230	322.7	0.0683	791	4
10240	316.1	0.0245	743	4
10240	317.9	0.1495	997	4
10240	322.7	0.0989	859	4
10240	327.6	0.0461	658	4
10240	332.4	0.0461	566	4
10240	332.4	0.0683	662	4
10240	332.4	0.0989	774	4
10240	335.9	0.0683	597	4
10240	337.4	0.0989	714	4
10250	335.9	0.0683	601	4
10260	337.4	0.0461	482	4
10270	337.9	0.0245	367	4
10290	316.1	0.0245	746	4
10290	327.6	0.0989	822	4
10290	337.4	0.0989	717	4
10300	332.4	0.0461	573	4
10310	317.9	0.0683	838	4
10310	327.6	0.1495	945	4
10310	335.9	0.0683	607	4
10310	337.4	0.1495	879	4
10330	313.1	0.1495	1022	4
10340	332.4	0.0683	670	4
10340	337.4	0.0461	492	4
10350	316.1	0.0245	750	4
10360	327.6	0.0461	668	4
10360	337.4	0.0989	722	4
10360	337.9	0.0245	375	4
10370	332.4	0.0461	580	4
10370	332.4	0.0989	778	4
10370	332.4	0.1495	915	4
10380	327.6	0.0683	742	4
10380	335.9	0.0683	614	4
10420	308.2	0.0245	835	4
10420	322.7	0.0461	748	4
10420	322.7	0.0683	797	4
10430	337.4	0.0461	502	4
10430	337.4	0.1495	881	4
10440	322.7	0.1495	974	4
10440	332.4	0.0461	587	4
10440	332.4	0.0683	677	4
10440	337.4	0.0989	726	4
10450	313.1	0.0245	788	4
10450	335.9	0.0683	620	4
10450	337.9	0.0245	383	4
10500	317.9	0.0989	897	4
10500	327.6	0.0461	678	4
10510	327.6	0.0989	828	4
10510	332.4	0.0989	783	4
10520	332.4	0.0461	595	4
10520	337.4	0.0989	730	4
10540	335.9	0.0683	627	4
10540	337.4	0.0461	513	4
10550	322.7	0.0989	870	4
10560	317.9	0.1495	1000	4
10560	327.6	0.1495	949	4
10560	332.4	0.1495	918	4
10560	337.9	0.0245	391	4
10570	332.4	0.0683	686	4
10580	337.4	0.1495	884	4
10590	317.9	0.0461	809	4
10590	332.4	0.0461	603	4
10590	337.4	0.0989	735	4
10600	313.1	0.0989	927	4
10610	335.9	0.0683	634	4
10620	322.7	0.0683	802	4
10620	337.9	0.0245	397	4
10630	317.9	0.0683	845	4
10630	327.6	0.0683	752	4
10630	337.9	0.0245	399	4
10650	332.4	0.0989	788	4
10660	327.6	0.0461	688	4
10660	337.4	0.0461	524	4
10690	337.4	0.0989	739	4
10690	337.4	0.1495	887	4
10700	335.9	0.0683	641	4
10710	332.4	0.0683	694	4
10720	332.4	0.0461	615	4
10730	327.6	0.0989	833	4
10750	332.4	0.1495	921	4
10760	322.7	0.1495	977	4
10770	313.1	0.1495	1026	4
10780	327.6	0.1495	951	4
10790	335.9	0.0683	649	4
10790	337.4	0.0461	537	4
10790	337.4	0.0989	743	4
10810	337.4	0.1495	889	4
10820	322.7	0.0461	764	4
10820	332.4	0.0989	793	4
10840	313.1	0.0245	799	4
10840	322.7	0.0683	808	4
10840	327.6	0.0461	698	4
10860	308.2	0.0245	844	4
10870	332.4	0.0683	703	4
10880	332.4	0.0461	627	4
10890	337.4	0.0989	748	4
10910	322.7	0.0989	872	4
10910	337.4	0.0461	549	4
10920	308.2	0.1495	1048	4
10920	327.6	0.0683	762	4
10930	317.9	0.1495	1004	4
10940	317.9	0.0683	850	4
10940	332.4	0.1495	924	4
10940	335.9	0.0683	660	4
10950	317.9	0.0989	903	4
10970	337.4	0.1495	893	4
10980	322.7	0.1495	980	4
10990	327.6	0.0461	706	4
10990	332.4	0.0989	798	4
10990	337.4	0.0989	752	4
11000	327.6	0.1495	954	4
11050	332.4	0.0683	712	4
11060	317.9	0.0461	821	4
11060	327.6	0.0989	839	4
11060	337.4	0.0461	563	4
11070	332.4	0.0461	640	4
11080	322.7	0.0683	814	4
11100	337.4	0.1495	895	4
11120	332.4	0.1495	927	4
11130	337.4	0.0989	757	4
11140	335.9	0.0683	672	4
11180	313.1	0.0989	933	4
11180	332.4	0.0989	804	4
11230	337.4	0.0461	577	4
11240	313.1	0.1495	1030	4
11240	327.6	0.0683	773	4
11240	332.4	0.0683	721	4
11240	337.4	0.0989	762	4
11250	337.4	0.1495	898	4
11270	317.9	0.1495	1007	4
11270	322.7	0.0989	877	4
11270	332.4	0.0461	654	4
11280	313.1	0.0245	810	4
11280	327.6	0.1495	958	4
11290	322.7	0.0461	779	4
11310	317.9	0.0683	858	4
11310	327.6	0.0989	845	4
11310	332.4	0.1495	930	4
11340	322.7	0.0683	820	4
11350	308.2	0.0245	853	4
11350	335.9	0.0683	684	4
11370	308.2	0.1495	1051	4
11370	322.7	0.1495	984	4
11370	337.4	0.0461	588	4
11370	337.4	0.0989	766	4
11390	332.4	0.0989	808	4
11420	337.4	0.1495	901	4
11460	332.4	0.0683	730	4
11470	317.9	0.0989	910	4
11510	332.4	0.0461	668	4
11510	337.4	0.0461	599	4
11520	327.6	0.1495	961	4
11520	337.4	0.0989	771	4
11530	332.4	0.1495	933	4
11580	337.4	0.1495	904	4
11590	327.6	0.0683	783	4
11590	335.9	0.0683	697	4
11600	317.9	0.0461	833	4
11600	322.7	0.0683	826	4
11600	332.4	0.0989	814	4
11620	327.6	0.0989	851	4
11640	322.7	0.1495	987	4
11680	322.7	0.0989	884	4
11680	337.4	0.0461	611	4
11680	337.4	0.0989	776	4
11690	313.1	0.1495	1033	4
11690	317.9	0.0683	863	4
11700	317.9	0.1495	1011	4
11720	332.4	0.0683	739	4
11730	332.4	0.1495	936	4
11740	337.4	0.1495	906	4
11760	313.1	0.0245	821	4
11780	332.4	0.0461	683	4
11790	327.6	0.1495	964	4
11830	332.4	0.0989	819	4
11830	337.4	0.0989	781	4
11850	313.1	0.0989	941	4
11860	337.4	0.0461	623	4
11870	317.9	0.0683	867	4
11870	335.9	0.0683	710	4
11880	308.2	0.0245	863	4
11890	317.9	0.0461	839	4
11910	308.2	0.1495	1055	4
11910	322.7	0.0461	797	4
11910	322.7	0.0683	832	4
11920	337.4	0.1495	909	4
11960	327.6	0.0989	857	4
11970	332.4	0.1495	939	4
11980	332.4	0.0461	689	4
11990	322.7	0.1495	990	4
11990	327.6	0.0683	794	4
12000	332.4	0.0683	749	4
12010	317.9	0.0989	916	4
12010	337.4	0.0989	786	4
12050	327.6	0.1495	967	4
12060	317.9	0.1495	1014	4
12060	332.4	0.0989	825	4
12070	337.4	0.1495	912	4
12080	337.4	0.0461	636	4
12120	313.1	0.1495	1036	4
12130	322.7	0.0989	890	4
12160	313.1	0.0989	944	4
12190	332.4	0.1495	942	4
12200	337.4	0.0989	791	4
12220	322.7	0.0683	838	4
12220	332.4	0.0461	703	4
12280	337.4	0.1495	915	4
12290	322.7	0.1495	994	4
12310	327.6	0.0989	862	4
12320	313.1	0.0245	833	4
12320	337.4	0.0461	649	4
12330	332.4	0.0461	708	4
12330	332.4	0.0683	759	4
12330	332.4	0.0989	830	4
12340	335.9	0.0683	728	4
12370	327.6	0.1495	970	4
12390	337.4	0.0989	796	4
12450	332.4	0.1495	945	4
12460	327.6	0.0683	805	4
12480	308.2	0.0245	873	4
12490	337.4	0.1495	918	4
12510	308.2	0.1495	1060	4
12520	317.9	0.1495	1018	4
12560	313.1	0.0989	948	4
12570	322.7	0.0683	845	4
12580	337.4	0.0461	663	4
12600	313.1	0.1495	1040	4
12610	317.9	0.0989	923	4
12610	322.7	0.0989	897	4
12620	332.4	0.0989	836	4
12620	337.4	0.0989	801	4
12640	322.7	0.0461	814	4
12650	332.4	0.1495	948	4
12660	322.7	0.1495	997	4
12670	327.6	0.1495	974	4
12670	332.4	0.0683	770	4
12680	337.4	0.1495	921	4
12710	327.6	0.0989	869	4
12850	337.4	0.0989	806	4
12890	337.4	0.1495	924	4
12900	322.7	0.0683	850	4
12910	337.4	0.0461	674	4
12920	332.4	0.1495	951	4
12930	332.4	0.0989	842	4
12930	335.9	0.0683	747	4
12960	313.1	0.0245	845	4
12970	317.9	0.1495	1022	4
13000	327.6	0.1495	977	4
13010	322.7	0.1495	1000	4
13040	327.6	0.0683	817	4
13080	308.2	0.1495	1063	4
13080	332.4	0.0683	780	4
13090	313.1	0.1495	1044	4
13110	322.7	0.0989	903	4
13110	327.6	0.0989	875	4
13110	337.4	0.0989	812	4
13130	308.2	0.0245	882	4
13130	337.4	0.1495	927	4
13170	332.4	0.1495	954	4
13210	322.7	0.0461	826	4
13250	317.9	0.0989	930	4
13250	332.4	0.0989	847	4
13260	337.4	0.0461	693	4
13280	322.7	0.0683	857	4
13320	337.4	0.1495	930	4
13350	327.6	0.1495	981	4
13360	337.4	0.0989	817	4
13430	317.9	0.1495	1026	4
13470	332.4	0.1495	958	4
13490	322.7	0.1495	1004	4
13520	327.6	0.0989	880	4
13530	337.4	0.0461	703	4
13540	332.4	0.0683	791	4
13550	337.4	0.1495	933	4
13590	308.2	0.0245	889	4
13600	332.4	0.0989	853	4
13640	308.2	0.1495	1067	4
13640	313.1	0.1495	1047	4
13640	322.7	0.0989	910	4
13650	327.6	0.0683	829	4
13650	337.4	0.0989	822	4
13660	327.6	0.1495	984	4
13690	335.9	0.0683	767	4
13700	313.1	0.0245	857	4
13730	322.7	0.0683	864	4
13750	332.4	0.1495	961	4
13770	337.4	0.1495	936	4
13820	322.7	0.1495	1008	4
13830	322.7	0.0461	838	4
13860	317.9	0.1495	1029	4
13890	317.9	0.0989	937	4
13920	337.4	0.0989	828	4
13960	322.7	0.0683	867	4
13960	327.6	0.1495	987	4
13980	327.6	0.0989	887	4
13980	332.4	0.0989	859	4
13990	327.6	0.0683	835	4
14020	337.4	0.1495	939	4
14040	332.4	0.1495	964	4
14050	332.4	0.0683	802	4
14140	308.2	0.0245	896	4
14170	313.1	0.1495	1051	4
14210	308.2	0.1495	1071	4
14210	322.7	0.0989	916	4
14220	337.4	0.0989	833	4
14230	322.7	0.1495	1011	4
14290	308.2	0.0245	899	4
14300	337.4	0.1495	942	4
14320	327.6	0.1495	990	4
14320	332.4	0.1495	967	4
14350	335.9	0.0683	783	4
14360	332.4	0.0989	865	4
14380	317.9	0.1495	1033	4
14470	327.6	0.0989	893	4
14530	313.1	0.0245	870	4
14530	337.4	0.1495	945	4
14570	337.4	0.0989	839	4
14620	322.7	0.1495	1015	4
14630	317.9	0.0989	944	4
14630	332.4	0.1495	970	4
14640	332.4	0.0683	814	4
14690	327.6	0.1495	993	4
14740	313.1	0.1495	1056	4
14740	327.6	0.0683	848	4
14750	337.4	0.1495	948	4
14800	317.9	0.1495	1036	4
14810	332.4	0.0989	871	4
14850	308.2	0.1495	1075	4
14880	322.7	0.0989	924	4
14880	337.4	0.0989	844	4
14890	335.9	0.0683	794	4
14910	332.4	0.1495	973	4
14960	327.6	0.0683	851	4
14960	332.4	0.0683	820	4
14980	313.1	0.0245	876	4
14980	317.9	0.0989	947	4
14990	335.9	0.0683	797	4
15000	327.6	0.0989	900	4
15020	317.9	0.1495	1038	4
15050	337.4	0.1495	951	4
15070	313.1	0.1495	1058	4
15090	327.6	0.1495	997	4
15090	332.4	0.1495	975	4
15110	335.9	0.0683	800	4
15120	322.7	0.1495	1018	4
15150	308.2	0.1495	1077	4
15150	313.1	0.0245	879	4
15160	322.7	0.0989	926	4
15220	337.4	0.0989	850	4
15320	313.1	0.1495	1060	4

System: 1-chlorobutane + carbon dioxide; phases: Liquid, Gas
Property: Critical pressure, kPa (Liquid); method: Direct measurement
Mole fraction of 1-chlorobutane	Critical pressure, kPa	uncertainty
0.0243	8320	50
0.0483	9110	50
0.0744	9630	50

System: 1-chlorobutane + carbon dioxide; phases: Liquid, Gas
Property: Critical temperature, K (Liquid); method: Visual observation in an unstirred cell
Mole fraction of 1-chlorobutane	Critical temperature, K	uncertainty
0.0243	314.5	0.3
0.0483	324	0.3
0.0744	333.3	0.4

System: 1-chlorobutane + carbon dioxide; phases: Gas, Liquid
Property: Vapor or sublimation pressure, kPa (Gas); method: CCELL:UFactor:4
Temperature, K	Mole fraction of 1-chlorobutane	Vapor or sublimation pressure, kPa	uncertainty
317.9	0.0243	8560	110
322.7	0.0243	8620	110
327.6	0.0243	8120	110
327.6	0.0483	9410	120
332.4	0.0483	9750	120
337.4	0.0483	9960	120
337.4	0.0744	9930	120

System: 1-chlorobutane + carbon dioxide; phases: Liquid, Gas
Property: Vapor or sublimation pressure, kPa (Liquid); method: CCELL:UFactor:4
Temperature, K	Mole fraction of 1-chlorobutane	Vapor or sublimation pressure, kPa	uncertainty
308.2	0.0243	7640	100
308.2	0.0483	7240	100
308.2	0.0744	6910	100
308.2	0.0981	6560	90
308.2	0.1488	6210	90
313.1	0.0243	8220	110
313.1	0.0483	7890	110
313.1	0.0744	7460	100
313.1	0.0981	7130	100
313.1	0.1488	6760	100
317.9	0.0483	8530	110
317.9	0.0744	8050	110
317.9	0.0981	7730	100
317.9	0.1488	7340	100
322.7	0.0744	8630	110
322.7	0.0981	8330	110
322.7	0.1488	7900	110
327.6	0.0744	9150	120
327.6	0.0981	8920	120
327.6	0.1488	8480	110
332.4	0.0981	9430	120
332.4	0.1488	9070	120
337.4	0.0981	9890	120
337.4	0.1488	9620	120

System: 1-chlorobutane + carbon dioxide; phases: Liquid
Property: Mass density, kg/m3 (Liquid); method: Pycnometric method
Pressure, kPa	Temperature, K	Mole fraction of 1-chlorobutane	Mass density, kg/m3	uncertainty
6210	308.2	0.1488	843	4
6560	308.2	0.0981	819	4
6560	308.2	0.1488	848	4
6760	313.1	0.1488	825	4
6790	308.2	0.0981	825	4
6850	308.2	0.1488	853	4
6910	308.2	0.0744	786	4
6980	308.2	0.0981	827	4
6980	313.1	0.1488	828	4
7080	308.2	0.0744	791	4
7130	313.1	0.0981	791	4
7140	308.2	0.0981	831	4
7240	308.2	0.0483	742	4
7250	308.2	0.1488	858	4
7310	313.1	0.0981	795	4
7310	313.1	0.1488	832	4
7320	308.2	0.0981	834	4
7330	308.2	0.0483	747	4
7340	317.9	0.1488	805	4
7430	308.2	0.0483	752	4
7460	313.1	0.0744	754	4
7470	308.2	0.0744	801	4
7500	308.2	0.0981	837	4
7530	308.2	0.0483	757	4
7570	313.1	0.0981	802	4
7640	308.2	0.0243	670	4
7640	313.1	0.0744	759	4
7660	308.2	0.0483	761	4
7670	308.2	0.0243	674	4
7700	308.2	0.0744	807	4
7710	308.2	0.0243	678	4
7730	308.2	0.0981	840	4
7730	317.9	0.0981	761	4
7740	308.2	0.0243	682	4
7740	308.2	0.1488	863	4
7740	313.1	0.1488	837	4
7740	317.9	0.1488	811	4
7770	313.1	0.0744	764	4
7780	308.2	0.0243	686	4
7790	308.2	0.0483	766	4
7820	308.2	0.0243	690	4
7860	308.2	0.0243	694	4
7860	313.1	0.0981	807	4
7890	313.1	0.0483	693	4
7900	317.9	0.0981	766	4
7900	322.7	0.1488	782	4
7940	308.2	0.0243	701	4
7940	308.2	0.0483	770	4
7940	308.2	0.0981	843	4
7940	313.1	0.0483	697	4
7940	313.1	0.0744	769	4
7950	308.2	0.0744	812	4
8000	313.1	0.0483	701	4
8030	308.2	0.0243	707	4
8050	317.9	0.0744	713	4
8060	317.9	0.1488	815	4
8070	308.2	0.0744	814	4
8090	313.1	0.0744	773	4
8090	317.9	0.0981	771	4
8100	313.1	0.0483	707	4
8110	308.2	0.0483	776	4
8120	308.2	0.0243	713	4
8120	327.6	0.0243	244	4
8140	322.7	0.1488	786	4
8170	308.2	0.0981	846	4
8180	313.1	0.0981	813	4
8180	327.6	0.0243	249	4
8190	313.1	0.1488	841	4
8210	313.1	0.0483	713	4
8220	313.1	0.0243	545	4
8230	308.2	0.0243	720	4
8230	308.2	0.0744	817	4
8230	313.1	0.0243	549	4
8230	317.9	0.0744	720	4
8250	313.1	0.0243	555	4
8250	327.6	0.0243	253	4
8270	313.1	0.0744	778	4
8280	308.2	0.0483	780	4
8280	313.1	0.0243	563	4
8290	308.2	0.1488	868	4
8300	313.1	0.0243	571	4
8310	317.9	0.0981	777	4
8320	314.5	0.0243	495	4
8320	327.6	0.0243	258	4
8330	313.1	0.0243	580	4
8330	314.5	0.0243	501	4
8330	322.7	0.0981	728	4
8340	313.1	0.0483	719	4
8350	308.2	0.0243	727	4
8350	308.2	0.0744	820	4
8360	313.1	0.0243	588	4
8360	314.5	0.0243	510	4
8360	317.9	0.0744	727	4
8380	322.7	0.1488	789	4
8390	308.2	0.0981	849	4
8390	314.5	0.0243	522	4
8390	327.6	0.0243	263	4
8400	313.1	0.0243	597	4
8430	314.5	0.0243	531	4
8450	313.1	0.0483	725	4
8450	317.9	0.1488	820	4
8460	314.5	0.0243	541	4
8460	327.6	0.0243	268	4
8470	308.2	0.0483	785	4
8470	313.1	0.0243	610	4
8470	313.1	0.0744	782	4
8480	308.2	0.0243	734	4
8480	327.6	0.1488	758	4
8490	314.5	0.0243	552	4
8500	308.2	0.0744	822	4
8510	313.1	0.0981	819	4
8510	322.7	0.0981	734	4
8520	317.9	0.0744	733	4
8520	327.6	0.0243	274	4
8530	314.5	0.0243	562	4
8530	317.9	0.0483	630	4
8530	317.9	0.0981	782	4
8550	313.1	0.0243	623	4
8560	308.2	0.0483	788	4
8560	317.9	0.0243	417	4
8570	308.2	0.0243	738	4
8590	314.5	0.0243	575	4
8590	317.9	0.0243	423	4
8590	317.9	0.0483	636	4
8590	327.6	0.0243	279	4
8600	313.1	0.0483	732	4
8620	322.7	0.0243	328	4
8620	322.7	0.0981	739	4
8630	308.2	0.0981	852	4
8630	317.9	0.0243	433	4
8630	322.7	0.0744	669	4
8640	308.2	0.0744	825	4
8650	313.1	0.0243	637	4
8650	314.5	0.0243	588	4
8670	308.2	0.0483	790	4
8670	317.9	0.0243	443	4
8670	322.7	0.1488	794	4
8670	327.6	0.0243	285	4
8680	313.1	0.0744	787	4
8690	317.9	0.0483	646	4
8690	317.9	0.0744	740	4
8690	322.7	0.0243	336	4
8710	327.6	0.1488	762	4
8720	314.5	0.0243	602	4
8720	317.9	0.0243	453	4
8740	322.7	0.0744	675	4
8750	317.9	0.0243	464	4
8750	322.7	0.0243	343	4
8750	327.6	0.0243	291	4
8760	313.1	0.0483	738	4
8770	308.2	0.0483	793	4
8770	313.1	0.0243	651	4
8770	317.9	0.0981	787	4
8780	322.7	0.0981	744	4
8790	317.9	0.0243	473	4
8800	308.2	0.0243	748	4
8810	317.9	0.0483	656	4
8810	322.7	0.0243	351	4
8820	314.5	0.0243	617	4
8820	327.6	0.0243	298	4
8830	308.2	0.0744	828	4
8830	317.9	0.1488	823	4
8840	308.2	0.1488	873	4
8850	317.9	0.0243	484	4
8860	322.7	0.0243	360	4
8860	322.7	0.0744	683	4
8880	317.9	0.0744	746	4
8880	327.6	0.0243	304	4
8890	308.2	0.0483	795	4
8890	313.1	0.0981	825	4
8890	317.9	0.0243	496	4
8900	308.2	0.0981	856	4
8900	313.1	0.0744	792	4
8910	308.2	0.0243	753	4
8910	313.1	0.1488	849	4
8920	322.7	0.0243	368	4
8920	327.6	0.0981	692	4
8920	327.6	0.1488	766	4
8930	313.1	0.0243	666	4
8930	314.5	0.0243	632	4
8940	313.1	0.0483	745	4
8940	317.9	0.0243	507	4
8940	317.9	0.0483	667	4
8940	322.7	0.0981	749	4
8950	327.6	0.0243	311	4
8970	308.2	0.0744	830	4
8970	322.7	0.1488	798	4
8980	322.7	0.0243	377	4
8990	317.9	0.0243	520	4
8990	322.7	0.0744	690	4
9000	308.2	0.0483	798	4
9040	327.6	0.0243	318	4
9050	308.2	0.0243	758	4
9050	317.9	0.0981	793	4
9050	322.7	0.0243	387	4
9050	327.6	0.0981	698	4
9060	317.9	0.0243	534	4
9070	332.4	0.1488	732	4
9080	314.5	0.0243	648	4
9080	317.9	0.0483	678	4
9110	317.9	0.0744	753	4
9110	322.7	0.0243	397	4
9110	324	0.0483	519	4
9110	327.6	0.0243	326	4
9120	308.2	0.0483	800	4
9120	322.7	0.0981	754	4
9130	313.1	0.0243	682	4
9140	317.9	0.0243	549	4
9140	322.7	0.0744	698	4
9140	324	0.0483	527	4
9140	327.6	0.1488	770	4
9150	313.1	0.0483	751	4
9150	313.1	0.0744	797	4
9160	308.2	0.0744	833	4
9160	308.2	0.0981	859	4
9170	322.7	0.0243	407	4
9180	327.6	0.0243	334	4
9190	308.2	0.0243	763	4
9190	324	0.0483	537	4
9200	317.9	0.0483	689	4
9200	327.6	0.0981	704	4
9230	308.2	0.0483	803	4
9230	317.9	0.0243	565	4
9240	317.9	0.1488	828	4
9240	322.7	0.0243	418	4
9250	324	0.0483	546	4
9260	313.1	0.0981	830	4
9260	332.4	0.1488	737	4
9270	314.5	0.0243	664	4
9270	327.6	0.0243	343	4
9280	322.7	0.1488	802	4
9290	322.7	0.0744	705	4
9300	322.7	0.0981	759	4
9310	324	0.0483	556	4
9320	322.7	0.0243	430	4
9330	308.2	0.0744	836	4
9340	317.9	0.0243	582	4
9350	308.2	0.0483	805	4
9350	317.9	0.0981	799	4
9350	327.6	0.0243	352	4
9360	317.9	0.0744	760	4
9360	327.6	0.0981	711	4
9370	313.1	0.0483	759	4
9370	324	0.0483	566	4
9370	327.6	0.1488	774	4
9390	313.1	0.0243	698	4
9390	322.7	0.0243	443	4
9410	313.1	0.0744	802	4
9410	327.6	0.0243	359	4
9410	327.6	0.0483	469	4
9420	332.4	0.1488	740	4
9430	327.6	0.0483	473	4
9430	332.4	0.0981	649	4
9450	308.2	0.0981	862	4
9450	313.1	0.1488	853	4
9450	324	0.0483	576	4
9460	317.9	0.0243	599	4
9460	327.6	0.0243	364	4
9470	322.7	0.0243	456	4
9470	322.7	0.0744	713	4
9470	327.6	0.0483	480	4
9480	308.2	0.1488	878	4
9480	314.5	0.0243	680	4
9490	308.2	0.0483	808	4
9490	317.9	0.0483	701	4
9500	322.7	0.0981	764	4
9510	332.4	0.0981	654	4
9520	327.6	0.0483	487	4
9530	308.2	0.0744	838	4
9530	327.6	0.0981	718	4
9540	324	0.0483	587	4
9560	322.7	0.0243	470	4
9560	332.4	0.0981	657	4
9570	327.6	0.0483	494	4
9580	317.9	0.0243	615	4
9590	332.4	0.1488	744	4
9600	317.9	0.0744	766	4
9600	322.7	0.1488	807	4
9600	327.6	0.1488	778	4
9620	313.1	0.0483	765	4
9620	327.6	0.0483	502	4
9620	337.4	0.1488	705	4
9630	322.7	0.0243	482	4
9630	324	0.0483	599	4
9630	333.3	0.0744	545	4
9640	308.2	0.0483	811	4
9650	317.9	0.0981	804	4
9660	317.9	0.1488	832	4
9660	332.4	0.0981	663	4
9660	333.3	0.0744	551	4
9670	313.1	0.0744	807	4
9670	327.6	0.0483	510	4
9690	333.3	0.0744	556	4
9700	308.2	0.0744	841	4
9700	322.7	0.0243	494	4
9700	322.7	0.0744	721	4
9710	313.1	0.0243	716	4
9720	313.1	0.0981	837	4
9720	322.7	0.0981	769	4
9730	327.6	0.0483	518	4
9730	327.6	0.0981	725	4
9740	317.9	0.0243	630	4
9740	322.7	0.0243	501	4
9740	333.3	0.0744	563	4
9750	324	0.0483	611	4
9750	332.4	0.0483	421	4
9760	332.4	0.0981	669	4
9760	332.4	0.1488	748	4
9770	317.9	0.0483	713	4
9770	337.4	0.1488	709	4
9780	308.2	0.0483	813	4
9780	308.2	0.0981	865	4
9790	314.5	0.0243	698	4
9790	322.7	0.0243	507	4
9790	327.6	0.0483	526	4
9800	332.4	0.0483	426	4
9810	313.1	0.0483	770	4
9810	322.7	0.0243	510	4
9810	333.3	0.0744	571	4
9840	317.9	0.0243	639	4
9850	324	0.0483	620	4
9850	327.6	0.1488	781	4
9860	327.6	0.0483	535	4
9860	332.4	0.0483	433	4
9870	332.4	0.0981	675	4
9890	317.9	0.0744	773	4
9890	337.4	0.0981	605	4
9900	333.3	0.0744	578	4
9910	308.2	0.0483	815	4
9910	332.4	0.0483	441	4
9930	327.6	0.0483	544	4
9930	337.4	0.0744	509	4
9940	308.2	0.0744	844	4
9940	322.7	0.0744	729	4
9940	327.6	0.0981	731	4
9940	332.4	0.1488	751	4
9950	317.9	0.0243	647	4
9950	322.7	0.1488	811	4
9950	337.4	0.1488	714	4
9960	313.1	0.0744	812	4
9960	337.4	0.0483	378	4
9960	337.4	0.0744	513	4
9970	332.4	0.0483	449	4
9980	333.3	0.0744	586	4
9980	337.4	0.0981	612	4
10000	313.1	0.0483	775	4
10000	332.4	0.0981	682	4
10010	317.9	0.0981	810	4
10010	324	0.0483	633	4
10010	327.6	0.0483	553	4
10010	337.4	0.0744	520	4
10020	313.1	0.0243	729	4
10030	308.2	0.0981	869	4
10030	317.9	0.0243	654	4
10040	337.4	0.0483	384	4
10050	332.4	0.0483	458	4
10070	337.4	0.0981	619	4
10080	322.7	0.0981	777	4
10080	337.4	0.0744	527	4
10090	317.9	0.0483	725	4
10090	317.9	0.1488	836	4
10090	327.6	0.0483	562	4
10090	337.4	0.0483	390	4
10100	333.3	0.0744	597	4
10110	308.2	0.0744	846	4
10110	327.6	0.1488	785	4
10130	332.4	0.0981	687	4
10130	332.4	0.1488	755	4
10150	308.2	0.1488	883	4
10150	314.5	0.0243	715	4
10150	332.4	0.0483	469	4
10150	337.4	0.0981	625	4
10150	337.4	0.1488	719	4
10160	337.4	0.0483	396	4
10180	337.4	0.0744	536	4
10190	313.1	0.0981	843	4
10190	327.6	0.0483	572	4
10200	324	0.0483	646	4
10200	327.6	0.0981	739	4
10200	332.4	0.0483	478	4
10210	322.7	0.0744	738	4
10220	313.1	0.0483	780	4
10220	317.9	0.0744	780	4
10230	337.4	0.0483	402	4
10250	333.3	0.0744	608	4
10250	337.4	0.0981	632	4
10270	313.1	0.1488	860	4
10280	313.1	0.0243	738	4
10280	332.4	0.0483	487	4
10280	337.4	0.0744	547	4
10290	313.1	0.0744	817	4
10290	327.6	0.0483	582	4
10290	332.4	0.0981	694	4
10290	337.4	0.0483	409	4
10310	322.7	0.1488	815	4
10340	332.4	0.1488	758	4
10350	317.9	0.0483	734	4
10350	317.9	0.0981	815	4
10360	337.4	0.0483	415	4
10360	337.4	0.0981	639	4
10360	337.4	0.1488	724	4
10380	308.2	0.0981	872	4
10390	332.4	0.0483	497	4
10410	327.6	0.0483	593	4
10410	327.6	0.1488	790	4
10410	333.3	0.0744	620	4
10420	324	0.0483	660	4
10420	337.4	0.0483	422	4
10420	337.4	0.0744	560	4
10450	327.6	0.0981	746	4
10460	313.1	0.0483	785	4
10470	332.4	0.0981	700	4
10480	314.5	0.0243	729	4
10480	322.7	0.0981	785	4
10490	332.4	0.0483	507	4
10490	337.4	0.0483	429	4
10500	337.4	0.0981	647	4
10510	308.2	0.0981	874	4
10520	322.7	0.0744	746	4
10540	327.6	0.0483	604	4
10550	313.1	0.0243	748	4
10550	337.4	0.0744	571	4
10560	317.9	0.0744	787	4
10570	332.4	0.1488	762	4
10570	337.4	0.0483	436	4
10580	317.9	0.1488	841	4
10580	337.4	0.1488	729	4
10590	332.4	0.0483	518	4
10600	333.3	0.0744	632	4
10620	313.1	0.0744	823	4
10630	337.4	0.0981	654	4
10650	317.9	0.0483	742	4
10650	332.4	0.0981	707	4
10650	337.4	0.0483	444	4
10680	313.1	0.0483	790	4
10690	313.1	0.0981	849	4
10690	324	0.0483	674	4
10690	327.6	0.0483	615	4
10700	313.1	0.0243	753	4
10700	332.4	0.0483	529	4
10700	337.4	0.0744	583	4
10720	327.6	0.1488	794	4
10730	314.5	0.0243	738	4
10730	322.7	0.1488	820	4
10730	337.4	0.0483	452	4
10750	317.9	0.0981	822	4
10770	327.6	0.0981	754	4
10790	337.4	0.0981	662	4
10800	332.4	0.1488	766	4
10810	327.6	0.0483	623	4
10820	337.4	0.0483	459	4
10830	332.4	0.0483	541	4
10840	333.3	0.0744	645	4
10840	337.4	0.1488	735	4
10850	308.2	0.1488	888	4
10850	313.1	0.0243	758	4
10850	332.4	0.0981	713	4
10860	313.1	0.1488	865	4
10870	322.7	0.0744	755	4
10870	337.4	0.0744	595	4
10900	337.4	0.0483	468	4
10910	327.6	0.0483	629	4
10920	322.7	0.0981	792	4
10940	317.9	0.0744	794	4
10950	313.1	0.0483	795	4
10960	337.4	0.0981	670	4
10970	313.1	0.0744	828	4
10970	317.9	0.0483	752	4
10970	332.4	0.0483	554	4
10990	337.4	0.0483	477	4
11000	327.6	0.0483	635	4
11030	313.1	0.0243	763	4
11030	314.5	0.0243	748	4
11030	324	0.0483	689	4
11030	332.4	0.1488	770	4
11050	327.6	0.1488	798	4
11060	327.6	0.0483	639	4
11060	337.4	0.0744	607	4
11080	332.4	0.0981	720	4
11090	317.9	0.1488	847	4
11090	337.4	0.0483	485	4
11090	337.4	0.1488	740	4
11110	322.7	0.1488	823	4
11110	327.6	0.0981	761	4
11110	333.3	0.0744	658	4
11140	327.6	0.0483	644	4
11140	332.4	0.0483	569	4
11170	337.4	0.0981	678	4
11180	317.9	0.0981	827	4
11190	337.4	0.0483	495	4
11220	313.1	0.0483	800	4
11220	327.6	0.0483	648	4
11230	313.1	0.0981	855	4
11230	322.7	0.0744	764	4
11270	337.4	0.0483	501	4
11270	337.4	0.0744	620	4
11280	332.4	0.1488	774	4
11330	332.4	0.0981	727	4
11340	317.9	0.0483	761	4
11340	337.4	0.0483	508	4
11350	313.1	0.0744	833	4
11350	332.4	0.0483	584	4
11370	314.5	0.0243	758	4
11370	317.9	0.0744	802	4
11380	327.6	0.1488	802	4
11380	337.4	0.0981	686	4
11380	337.4	0.1488	746	4
11420	333.3	0.0744	672	4
11440	322.7	0.0981	802	4
11440	324	0.0483	705	4
11440	337.4	0.0483	516	4
11460	327.6	0.0981	769	4
11500	313.1	0.1488	870	4
11510	313.1	0.0483	806	4
11510	337.4	0.0483	521	4
11520	337.4	0.0744	634	4
11540	322.7	0.1488	828	4
11560	332.4	0.0483	598	4
11570	332.4	0.1488	778	4
11590	332.4	0.0981	734	4
11620	308.2	0.1488	893	4
11620	317.9	0.1488	851	4
11640	337.4	0.0981	694	4
11670	317.9	0.0981	834	4
11680	322.7	0.0744	773	4
11680	337.4	0.1488	751	4
11740	314.5	0.0243	767	4
11740	317.9	0.0483	770	4
11770	327.6	0.1488	806	4
11780	313.1	0.0744	839	4
11800	333.3	0.0744	686	4
11810	313.1	0.0483	811	4
11820	313.1	0.0981	862	4
11830	332.4	0.0483	613	4
11830	337.4	0.0744	648	4
11840	332.4	0.1488	782	4
11860	317.9	0.0744	810	4
11880	327.6	0.0981	777	4
11930	337.4	0.0981	703	4
11940	317.9	0.1488	853	4
11960	324	0.0483	721	4
11980	332.4	0.0981	743	4
12000	322.7	0.0981	810	4
12020	322.7	0.1488	832	4
12030	337.4	0.1488	757	4
12110	313.1	0.0483	816	4
12120	332.4	0.0483	629	4
12140	317.9	0.0981	839	4
12150	327.6	0.1488	811	4
12170	313.1	0.1488	875	4
12170	322.7	0.0744	782	4
12200	337.4	0.0744	663	4
12220	313.1	0.0744	844	4
12220	317.9	0.0483	780	4
12240	317.9	0.1488	856	4
12240	337.4	0.0981	711	4
12260	333.3	0.0744	701	4
12270	322.7	0.1488	835	4
12300	332.4	0.0483	637	4
12330	327.6	0.0981	785	4
12330	332.4	0.1488	788	4
12370	317.9	0.0744	817	4
12380	337.4	0.1488	762	4
12430	308.2	0.1488	898	4
12430	313.1	0.0744	847	4
12430	332.4	0.0981	753	4
12440	313.1	0.0981	869	4
12520	317.9	0.1488	858	4
12520	322.7	0.1488	837	4
12530	327.6	0.1488	815	4
12530	332.4	0.0483	648	4
12540	313.1	0.1488	878	4
12550	324	0.0483	738	4
12580	337.4	0.0981	721	4
12600	322.7	0.0981	818	4
12610	332.4	0.0483	652	4
12630	337.4	0.0744	679	4
12690	317.9	0.0981	846	4
12720	322.7	0.0744	792	4
12740	317.9	0.0483	790	4
12750	337.4	0.1488	768	4
12780	313.1	0.0981	872	4
12780	322.7	0.1488	839	4
12810	333.3	0.0744	717	4
12820	332.4	0.1488	794	4
12830	327.6	0.0981	792	4
12850	317.9	0.1488	861	4
12890	313.1	0.1488	880	4
12930	317.9	0.0744	825	4
12950	327.6	0.1488	819	4
12950	337.4	0.0981	729	4
12960	332.4	0.0981	763	4
13000	313.1	0.0981	874	4
13030	322.7	0.0981	824	4
13030	324	0.0483	749	4
13140	317.9	0.1488	863	4
13160	337.4	0.0744	695	4
13180	337.4	0.1488	774	4
13240	313.1	0.1488	883	4
13250	317.9	0.0981	852	4
13270	308.2	0.1488	904	4
13270	322.7	0.1488	844	4
13320	317.9	0.0483	800	4
13320	322.7	0.0744	802	4
13360	332.4	0.1488	800	4
13380	337.4	0.0981	739	4
13400	327.6	0.1488	823	4
13410	327.6	0.0981	802	4
13440	317.9	0.1488	865	4
13450	324	0.0483	758	4
13450	337.4	0.1488	778	4
13470	333.3	0.0744	733	4
13510	317.9	0.0744	833	4
13530	322.7	0.0981	830	4
13540	332.4	0.0981	774	4
13570	322.7	0.1488	846	4
13620	317.9	0.0483	805	4
13660	308.2	0.1488	906	4
13660	313.1	0.1488	885	4
13780	337.4	0.1488	781	4
13800	317.9	0.1488	868	4
13800	337.4	0.0744	713	4
13830	317.9	0.0981	859	4
13850	322.7	0.1488	849	4
13890	327.6	0.1488	828	4
13940	332.4	0.1488	806	4
13950	317.9	0.0483	811	4
13950	324	0.0483	768	4
14020	313.1	0.1488	888	4
14020	322.7	0.0744	812	4
14030	322.7	0.0981	836	4
14090	308.2	0.1488	909	4
14110	337.4	0.0981	753	4
14120	337.4	0.1488	786	4
14170	322.7	0.1488	851	4
14180	317.9	0.0744	841	4
14190	317.9	0.1488	871	4
14190	332.4	0.0981	785	4
14220	327.6	0.0981	813	4
14290	333.3	0.0744	750	4
14300	317.9	0.0483	816	4
14350	327.6	0.1488	832	4
14420	308.2	0.1488	911	4
14450	324	0.0483	778	4
14460	313.1	0.1488	890	4
14470	322.7	0.1488	853	4
14480	317.9	0.1488	873	4
14480	337.4	0.1488	790	4
14530	317.9	0.0981	865	4
14570	332.4	0.1488	813	4
14580	337.4	0.0744	731	4
14590	322.7	0.0981	843	4
14600	322.7	0.0744	820	4
14740	322.7	0.1488	856	4
14750	333.3	0.0744	759	4
14830	313.1	0.1488	893	4
14830	337.4	0.1488	794	4
14840	332.4	0.1488	816	4
14860	317.9	0.1488	875	4
14870	308.2	0.1488	914	4
14900	327.6	0.1488	837	4
14900	332.4	0.0981	795	4
14910	317.9	0.0744	849	4
14940	327.6	0.0981	822	4
14960	322.7	0.0744	824	4
14970	337.4	0.0981	768	4
15020	324	0.0483	788	4
15110	332.4	0.0981	798	4
15140	327.6	0.0981	825	4
15140	337.4	0.0744	742	4
15170	322.7	0.0981	849	4
15190	322.7	0.0744	828	4
15220	317.9	0.0981	872	4
15240	333.3	0.0744	768	4
15300	337.4	0.0981	774	4

System: carbon dioxide + 1-methylimidazole; phases: Liquid, Gas
Property: Critical pressure, kPa (Liquid); method: Direct measurement
Mole fraction of 1-methylimidazole	Critical pressure, kPa	uncertainty
0.0102	8020	50

System: carbon dioxide + 1-methylimidazole; phases: Liquid, Gas
Property: Critical temperature, K (Liquid); method: Visual observation in an unstirred cell
Mole fraction of 1-methylimidazole	Critical temperature, K	uncertainty
0.0102	309.8	0.3

System: carbon dioxide + 1-methylimidazole; phases: Gas, Liquid
Property: Vapor or sublimation pressure, kPa (Gas); method: CCELL:UFactor:4
Temperature, K	Mole fraction of 1-methylimidazole	Vapor or sublimation pressure, kPa	uncertainty
308.2	0.0487	8590	130
308.2	0.1024	9850	140
313.1	0.0102	8750	120
313.1	0.0247	8900	120
313.1	0.0487	10070	140
313.1	0.1024	11540	160
317.9	0.0102	9730	130
317.9	0.0247	10180	140
317.9	0.0487	11510	160
317.9	0.1024	13150	180
322.7	0.0102	10720	140
322.7	0.0247	11460	150
322.7	0.0487	12990	170
322.7	0.1024	14640	190
327.6	0.0102	11610	150
327.6	0.0247	12510	160
327.6	0.0487	14190	180
327.6	0.1024	16080	210
332.4	0.0102	12410	160
332.4	0.0247	13550	170
332.4	0.0487	15450	200
332.4	0.1024	17520	230
337.4	0.0102	13050	160
337.4	0.0247	14490	180
337.4	0.0487	16640	210
337.4	0.1024	18720	240

System: carbon dioxide + 1-methylimidazole; phases: Liquid, Gas
Fixed: Temperature, K = 308.2
Property: Vapor or sublimation pressure, kPa (Liquid); method: CCELL:UFactor:4
Mole fraction of 1-methylimidazole	Vapor or sublimation pressure, kPa	uncertainty
0.0102	7860	130
0.0247	7790	130

System: carbon dioxide + 1-methylimidazole; phases: Liquid
Property: Mass density, kg/m3 (Liquid); method: Pycnometric method
Pressure, kPa	Temperature, K	Mole fraction of 1-methylimidazole	Mass density, kg/m3	uncertainty
7790	308.2	0.0247	745	4
7860	308.2	0.0102	638	4
7870	308.2	0.0102	640	4
7900	308.2	0.0102	646	4
7940	308.2	0.0102	652	4
7950	308.2	0.0102	655	4
7970	308.2	0.0247	755	4
7980	308.2	0.0102	661	4
8020	308.2	0.0102	667	4
8020	309.8	0.0102	543	4
8030	309.8	0.0102	551	4
8040	309.8	0.0102	560	4
8060	309.8	0.0102	571	4
8070	309.8	0.0102	581	4
8080	308.2	0.0102	676	4
8090	309.8	0.0102	589	4
8110	309.8	0.0102	600	4
8140	309.8	0.0102	612	4
8160	308.2	0.0102	686	4
8180	309.8	0.0102	624	4
8200	308.2	0.0247	766	4
8230	309.8	0.0102	636	4
8260	308.2	0.0102	696	4
8300	309.8	0.0102	649	4
8380	308.2	0.0102	706	4
8390	309.8	0.0102	663	4
8470	308.2	0.0247	777	4
8500	309.8	0.0102	677	4
8520	308.2	0.0102	716	4
8590	308.2	0.0487	838	4
8650	309.8	0.0102	691	4
8680	308.2	0.0487	841	4
8690	308.2	0.0102	727	4
8750	313.1	0.0102	576	4
8770	313.1	0.0102	581	4
8790	308.2	0.0487	844	4
8810	313.1	0.0102	589	4
8820	308.2	0.0247	790	4
8830	309.8	0.0102	707	4
8850	313.1	0.0102	597	4
8890	313.1	0.0102	606	4
8900	313.1	0.0247	717	4
8910	308.2	0.0102	738	4
8910	308.2	0.0487	847	4
8940	313.1	0.0102	615	4
8990	313.1	0.0102	624	4
9000	313.1	0.0247	723	4
9040	308.2	0.0487	849	4
9040	313.1	0.0102	633	4
9090	309.8	0.0102	723	4
9120	313.1	0.0102	643	4
9120	313.1	0.0247	729	4
9150	308.2	0.0102	750	4
9150	308.2	0.0487	852	4
9200	313.1	0.0102	653	4
9250	308.2	0.0247	802	4
9260	313.1	0.0247	737	4
9290	308.2	0.0487	853	4
9300	313.1	0.0102	663	4
9400	313.1	0.0247	744	4
9420	309.8	0.0102	740	4
9420	313.1	0.0102	673	4
9440	308.2	0.0102	761	4
9450	308.2	0.0487	858	4
9550	313.1	0.0102	684	4
9560	313.1	0.0247	751	4
9600	308.2	0.0487	860	4
9700	313.1	0.0102	695	4
9730	313.1	0.0247	759	4
9730	317.9	0.0102	555	4
9750	308.2	0.0247	815	4
9750	308.2	0.0487	863	4
9780	317.9	0.0102	563	4
9800	308.2	0.0102	773	4
9830	309.8	0.0102	758	4
9850	308.2	0.1024	937	4
9850	317.9	0.0102	573	4
9900	313.1	0.0102	707	4
9910	317.9	0.0102	583	4
9920	308.2	0.0487	866	4
9940	313.1	0.0247	766	4
9990	317.9	0.0102	594	4
10030	308.2	0.1024	939	4
10070	313.1	0.0487	827	4
10080	317.9	0.0102	606	4
10130	308.2	0.0247	824	4
10130	313.1	0.0102	719	4
10170	313.1	0.0247	774	4
10180	317.9	0.0102	618	4
10180	317.9	0.0247	708	4
10190	313.1	0.0487	830	4
10200	308.2	0.0102	786	4
10210	309.8	0.0102	772	4
10300	317.9	0.0102	630	4
10320	313.1	0.0487	833	4
10340	317.9	0.0247	716	4
10360	308.2	0.1024	942	4
10380	313.1	0.0102	731	4
10440	313.1	0.0487	835	4
10440	317.9	0.0102	643	4
10490	317.9	0.0247	723	4
10560	308.2	0.0247	833	4
10560	313.1	0.0487	838	4
10570	313.1	0.0247	786	4
10620	317.9	0.0102	656	4
10630	308.2	0.1024	945	4
10640	317.9	0.0247	730	4
10690	313.1	0.0487	841	4
10700	308.2	0.0102	799	4
10700	313.1	0.0102	744	4
10720	322.7	0.0102	558	4
10810	317.9	0.0102	670	4
10810	317.9	0.0247	737	4
10820	322.7	0.0102	568	4
10830	313.1	0.0487	843	4
10870	313.1	0.0247	794	4
10880	309.8	0.0102	790	4
10930	322.7	0.0102	578	4
10990	313.1	0.0487	846	4
11000	308.2	0.1024	948	4
11000	317.9	0.0247	744	4
11040	322.7	0.0102	589	4
11050	317.9	0.0102	684	4
11070	308.2	0.0247	842	4
11080	313.1	0.0102	758	4
11130	313.1	0.0487	849	4
11140	322.7	0.0102	600	4
11200	313.1	0.0247	802	4
11220	317.9	0.0247	751	4
11250	308.2	0.0102	812	4
11270	322.7	0.0102	612	4
11280	313.1	0.0487	852	4
11310	308.2	0.1024	951	4
11330	317.9	0.0102	699	4
11430	322.7	0.0102	624	4
11440	313.1	0.0487	855	4
11460	317.9	0.0247	758	4
11460	322.7	0.0247	701	4
11510	317.9	0.0487	815	4
11540	313.1	0.0102	771	4
11540	313.1	0.1024	928	4
11570	322.7	0.0247	706	4
11580	313.1	0.0247	811	4
11590	317.9	0.0487	817	4
11610	322.7	0.0102	636	4
11610	327.6	0.0102	548	4
11620	308.2	0.0247	851	4
11620	313.1	0.0487	858	4
11680	317.9	0.0102	715	4
11700	317.9	0.0487	820	4
11710	308.2	0.1024	954	4
11710	317.9	0.0247	766	4
11720	327.6	0.0102	558	4
11730	322.7	0.0247	712	4
11740	313.1	0.1024	930	4
11790	313.1	0.0487	860	4
11810	322.7	0.0102	649	4
11820	317.9	0.0487	822	4
11840	327.6	0.0102	568	4
11910	322.7	0.0247	719	4
11920	308.2	0.0102	826	4
11960	317.9	0.0247	774	4
11970	309.8	0.0102	816	4
11970	317.9	0.0487	825	4
11970	327.6	0.0102	578	4
11980	313.1	0.0487	862	4
11990	313.1	0.1024	933	4
12000	313.1	0.0247	819	4
12010	308.2	0.1024	956	4
12030	322.7	0.0102	663	4
12070	313.1	0.0102	786	4
12080	317.9	0.0487	827	4
12090	322.7	0.0247	726	4
12100	317.9	0.0102	731	4
12110	327.6	0.0102	589	4
12180	313.1	0.0487	865	4
12210	317.9	0.0487	830	4
12240	308.2	0.0247	860	4
12270	327.6	0.0102	600	4
12290	317.9	0.0247	781	4
12300	322.7	0.0102	677	4
12300	322.7	0.0247	733	4
12320	313.1	0.1024	936	4
12350	317.9	0.0487	833	4
12410	332.4	0.0102	539	4
12440	327.6	0.0102	612	4
12460	308.2	0.1024	960	4
12480	317.9	0.0487	836	4
12490	313.1	0.0247	828	4
12510	327.6	0.0247	682	4
12520	322.7	0.0247	740	4
12530	309.8	0.0102	826	4
12550	332.4	0.0102	548	4
12590	308.2	0.0247	865	4
12610	308.2	0.0102	840	4
12620	313.1	0.1024	939	4
12630	327.6	0.0102	624	4
12630	327.6	0.0247	687	4
12640	317.9	0.0102	749	4
12640	317.9	0.0487	838	4
12640	322.7	0.0102	692	4
12670	332.4	0.0102	558	4
12700	313.1	0.0102	800	4
12720	327.6	0.0247	691	4
12750	322.7	0.0247	747	4
12820	308.2	0.1024	963	4
12820	317.9	0.0247	793	4
12820	332.4	0.0102	568	4
12850	327.6	0.0102	636	4
12890	327.6	0.0247	698	4
12930	317.9	0.0487	843	4
12940	308.2	0.0247	870	4
12970	313.1	0.1024	942	4
12980	332.4	0.0102	578	4
12990	322.7	0.0487	807	4
13010	313.1	0.0247	837	4
13020	322.7	0.0247	755	4
13030	322.7	0.0102	707	4
13050	337.4	0.0102	568	4
13060	327.6	0.0247	704	4
13110	327.6	0.0102	649	4
13120	322.7	0.0487	809	4
13140	309.8	0.0102	836	4
13150	317.9	0.1024	919	4
13150	337.4	0.0102	576	4
13160	332.4	0.0102	589	4
13250	308.2	0.1024	966	4
13250	322.7	0.0487	812	4
13250	327.6	0.0247	711	4
13260	317.9	0.0102	766	4
13270	337.4	0.0102	584	4
13280	313.1	0.1024	944	4
13300	317.9	0.0487	849	4
13310	308.2	0.0247	875	4
13310	322.7	0.0247	762	4
13350	332.4	0.0102	600	4
13370	337.4	0.0102	593	4
13400	317.9	0.1024	922	4
13400	327.6	0.0102	663	4
13440	308.2	0.0102	859	4
13440	317.9	0.0247	806	4
13460	313.1	0.0102	816	4
13460	327.6	0.0247	718	4
13480	322.7	0.0102	723	4
13490	337.4	0.0102	601	4
13500	322.7	0.0487	817	4
13550	332.4	0.0247	668	4
13560	332.4	0.0102	612	4
13600	313.1	0.0247	846	4
13620	322.7	0.0247	770	4
13620	337.4	0.0102	610	4
13660	313.1	0.1024	947	4
13660	317.9	0.0487	854	4
13670	327.6	0.0247	724	4
13680	309.8	0.0102	846	4
13690	308.2	0.1024	969	4
13720	308.2	0.0247	880	4
13720	317.9	0.1024	925	4
13730	327.6	0.0102	677	4
13730	332.4	0.0247	675	4
13770	337.4	0.0102	619	4
13790	322.7	0.0487	822	4
13790	332.4	0.0102	623	4
13890	332.4	0.0247	681	4
13900	327.6	0.0247	731	4
13910	337.4	0.0102	628	4
13950	322.7	0.0247	777	4
13960	332.4	0.0247	684	4
13980	317.9	0.1024	927	4
14020	313.1	0.1024	950	4
14030	317.9	0.0487	860	4
14040	322.7	0.0102	740	4
14040	332.4	0.0102	636	4
14060	317.9	0.0102	785	4
14080	322.7	0.0487	827	4
14080	337.4	0.0102	638	4
14110	327.6	0.0102	692	4
14140	308.2	0.0247	885	4
14140	308.2	0.1024	972	4
14140	317.9	0.0247	819	4
14140	327.6	0.0247	738	4
14140	332.4	0.0247	690	4
14190	327.6	0.0487	791	4
14240	337.4	0.0102	648	4
14280	313.1	0.0247	855	4
14310	317.9	0.1024	930	4
14320	332.4	0.0102	649	4
14330	332.4	0.0247	696	4
14340	313.1	0.0102	832	4
14340	322.7	0.0247	786	4
14340	327.6	0.0487	795	4
14370	322.7	0.0487	832	4
14410	327.6	0.0247	745	4
14430	313.1	0.1024	954	4
14430	337.4	0.0102	658	4
14450	317.9	0.0487	866	4
14490	337.4	0.0247	650	4
14510	322.7	0.0102	753	4
14520	332.4	0.0247	703	4
14560	308.2	0.0102	875	4
14560	317.9	0.1024	933	4
14560	327.6	0.0102	707	4
14560	337.4	0.0247	653	4
14570	308.2	0.1024	975	4
14570	327.6	0.0487	799	4
14610	308.2	0.0247	890	4
14630	337.4	0.0102	669	4
14640	322.7	0.1024	909	4
14640	332.4	0.0102	663	4
14660	337.4	0.0247	658	4
14670	317.9	0.0247	828	4
14710	317.9	0.1024	934	4
14710	322.7	0.0487	838	4
14710	327.6	0.0247	753	4
14740	332.4	0.0247	709	4
14750	322.7	0.0247	794	4
14780	313.1	0.1024	956	4
14780	322.7	0.1024	911	4
14780	337.4	0.0247	662	4
14830	327.6	0.0487	804	4
14850	337.4	0.0102	680	4
14880	317.9	0.1024	936	4
14900	337.4	0.0247	666	4
14920	322.7	0.1024	912	4
14970	313.1	0.0247	865	4
14970	332.4	0.0247	716	4
14990	308.2	0.0102	880	4
15010	313.1	0.0102	842	4
15010	327.6	0.0247	760	4
15020	337.4	0.0247	671	4
15030	322.7	0.1024	913	4
15030	332.4	0.0102	677	4
15050	317.9	0.0102	806	4
15060	308.2	0.0247	895	4
15070	322.7	0.0487	843	4
15080	308.2	0.1024	978	4
15080	327.6	0.0487	809	4
15080	337.4	0.0102	691	4
15100	327.6	0.0102	723	4
15130	317.9	0.1024	938	4
15140	337.4	0.0247	675	4
15180	322.7	0.1024	915	4
15200	322.7	0.0247	802	4
15210	313.1	0.1024	959	4
15220	332.4	0.0247	723	4
15260	322.7	0.0102	771	4
15270	327.6	0.0247	766	4
15270	337.4	0.0247	680	4
15280	317.9	0.0247	837	4
15290	322.7	0.1024	916	4
15330	317.9	0.1024	939	4
15350	337.4	0.0102	703	4
15360	313.1	0.0247	870	4
15370	327.6	0.0487	814	4
15420	337.4	0.0247	684	4
15430	308.2	0.0102	886	4
15430	322.7	0.0487	849	4
15450	332.4	0.0487	779	4
15470	322.7	0.1024	917	4
15480	317.9	0.1024	941	4
15480	332.4	0.0102	692	4
15480	332.4	0.0247	730	4
15540	308.2	0.1024	981	4
15550	327.6	0.0247	772	4
15560	337.4	0.0247	689	4
15570	317.9	0.0247	841	4
15590	322.7	0.1024	918	4
15600	308.2	0.0247	901	4
15630	317.9	0.1024	942	4
15650	313.1	0.1024	963	4
15660	327.6	0.0487	819	4
15690	322.7	0.0247	810	4
15710	332.4	0.0487	784	4
15730	327.6	0.0102	740	4
15730	337.4	0.0247	693	4
15740	337.4	0.0102	719	4
15750	332.4	0.0247	737	4
15790	313.1	0.0247	875	4
15860	322.7	0.0487	855	4
15880	337.4	0.0247	698	4
15890	317.9	0.0102	821	4
15900	322.7	0.1024	922	4
15920	317.9	0.0247	846	4
15920	332.4	0.0487	789	4
15940	327.6	0.0487	825	4
15950	317.9	0.1024	944	4
15960	332.4	0.0247	742	4
15970	327.6	0.0247	779	4
15970	332.4	0.0102	707	4
16050	337.4	0.0247	703	4
16070	322.7	0.0247	816	4
16080	308.2	0.1024	984	4
16080	327.6	0.1024	899	4
16080	337.4	0.0102	732	4
16130	332.4	0.0487	794	4
16150	313.1	0.1024	966	4
16170	327.6	0.1024	900	4
16190	332.4	0.0247	747	4
16210	322.7	0.0102	790	4
16220	313.1	0.0247	880	4
16230	322.7	0.1024	924	4
16230	337.4	0.0247	708	4
16260	317.9	0.0247	851	4
16260	332.4	0.0487	797	4
16280	322.7	0.0487	860	4
16280	327.6	0.0487	829	4
16300	327.6	0.1024	901	4
16380	317.9	0.1024	947	4
16390	332.4	0.0487	799	4
16400	327.6	0.0247	787	4
16410	337.4	0.0247	713	4
16420	327.6	0.1024	903	4
16430	332.4	0.0247	752	4
16450	337.4	0.0102	745	4
16460	327.6	0.0102	758	4
16520	332.4	0.0487	801	4
16530	322.7	0.1024	927	4
16540	322.7	0.0247	824	4
16540	327.6	0.1024	904	4
16560	313.1	0.1024	969	4
16570	308.2	0.1024	987	4
16570	332.4	0.0102	723	4
16600	337.4	0.0487	768	4
16610	337.4	0.0247	717	4
16620	317.9	0.0247	855	4
16640	327.6	0.0247	791	4
16640	337.4	0.0487	769	4
16650	327.6	0.0487	836	4
16650	327.6	0.1024	905	4
16650	332.4	0.0487	804	4
16690	313.1	0.0247	885	4
16700	322.7	0.0487	866	4
16720	332.4	0.0247	758	4
16730	337.4	0.0487	770	4
16780	327.6	0.1024	906	4
16800	317.9	0.1024	950	4
16830	322.7	0.0247	828	4
16830	332.4	0.0487	806	4
16840	337.4	0.0102	759	4
16850	337.4	0.0487	773	4
16880	322.7	0.1024	929	4
16890	337.4	0.0247	724	4
16910	317.9	0.0102	837	4
16910	332.4	0.0247	762	4
16930	327.6	0.1024	908	4
16960	337.4	0.0487	775	4
16970	332.4	0.0487	809	4
16980	327.6	0.0247	798	4
17010	317.9	0.0247	860	4
17020	322.7	0.0102	805	4
17060	327.6	0.1024	909	4
17070	337.4	0.0487	777	4
17090	332.4	0.0247	766	4
17100	313.1	0.1024	972	4
17130	327.6	0.0102	771	4
17130	332.4	0.0487	811	4
17160	322.7	0.0247	833	4
17170	337.4	0.0487	780	4
17180	317.9	0.1024	953	4
17180	322.7	0.1024	933	4
17190	337.4	0.0247	731	4
17210	327.6	0.0247	802	4
17210	327.6	0.1024	911	4
17250	308.2	0.1024	991	4
17260	332.4	0.0102	740	4
17260	332.4	0.0487	814	4
17290	337.4	0.0487	782	4
17300	332.4	0.0247	770	4
17300	337.4	0.0102	773	4
17330	327.6	0.0487	846	4
17340	322.7	0.1024	934	4
17390	327.6	0.1024	912	4
17410	337.4	0.0487	784	4
17440	332.4	0.0487	817	4
17450	337.4	0.0247	737	4
17490	322.7	0.0247	837	4
17490	327.6	0.1024	913	4
17510	332.4	0.0247	774	4
17520	332.4	0.1024	890	4
17540	313.1	0.1024	975	4
17560	337.4	0.0487	787	4
17570	322.7	0.1024	936	4
17590	332.4	0.0487	819	4
17600	317.9	0.1024	956	4
17600	327.6	0.0247	808	4
17620	327.6	0.1024	914	4
17650	308.2	0.1024	994	4
17680	332.4	0.1024	892	4
17680	337.4	0.0247	742	4
17680	337.4	0.0487	789	4
17730	332.4	0.1024	892	4
17740	327.6	0.0487	851	4
17750	322.7	0.1024	937	4
17750	327.6	0.1024	916	4
17750	332.4	0.0487	821	4
17800	332.4	0.0247	779	4
17800	332.4	0.1024	893	4
17810	337.4	0.0487	791	4
17820	337.4	0.0102	788	4
17830	322.7	0.0247	842	4
17850	327.6	0.0102	786	4
17870	327.6	0.0247	813	4
17890	332.4	0.1024	894	4
17920	322.7	0.1024	939	4
17920	332.4	0.0487	824	4
17940	337.4	0.0487	794	4
17960	322.7	0.0102	821	4
17960	327.6	0.1024	918	4
17960	332.4	0.1024	895	4
18040	332.4	0.1024	896	4
18050	317.9	0.1024	959	4
18060	332.4	0.0102	757	4
18060	337.4	0.0247	749	4
18080	327.6	0.1024	919	4
18090	332.4	0.1024	896	4
18090	337.4	0.0487	797	4
18120	322.7	0.1024	940	4
18120	332.4	0.0487	827	4
18150	313.1	0.1024	979	4
18150	322.7	0.0102	824	4
18150	332.4	0.1024	897	4
18200	327.6	0.0487	857	4
18200	332.4	0.1024	897	4
18200	337.4	0.0102	798	4
18210	337.4	0.0487	799	4
18230	327.6	0.1024	920	4
18250	332.4	0.1024	898	4
18280	332.4	0.0487	829	4
18310	332.4	0.1024	899	4
18330	322.7	0.1024	942	4
18340	308.2	0.1024	998	4
18350	337.4	0.0487	800	4
18370	317.9	0.1024	962	4
18380	327.6	0.0102	795	4
18380	327.6	0.1024	922	4
18400	332.4	0.1024	900	4
18470	332.4	0.1024	900	4
18480	332.4	0.0487	832	4
18510	337.4	0.0487	804	4
18530	332.4	0.1024	901	4
18570	313.1	0.1024	981	4
18570	322.7	0.1024	943	4
18580	327.6	0.1024	923	4
18580	332.4	0.1024	901	4
18610	337.4	0.0102	808	4
18620	332.4	0.0102	769	4
18620	332.4	0.1024	902	4
18670	332.4	0.0487	835	4
18670	337.4	0.0487	806	4
18690	327.6	0.0487	863	4
18690	332.4	0.1024	902	4
18750	317.9	0.1024	964	4
18750	332.4	0.1024	903	4
18770	322.7	0.1024	945	4
18770	327.6	0.1024	924	4
18810	337.4	0.0102	813	4
18820	337.4	0.0487	809	4
18840	327.6	0.0102	802	4
18860	332.4	0.0102	773	4
18860	332.4	0.0487	837	4
18860	332.4	0.1024	904	4
18880	308.2	0.1024	1001	4
18940	313.1	0.1024	983	4
18940	327.6	0.1024	925	4
18940	332.4	0.1024	905	4
18990	317.9	0.1024	965	4
18990	322.7	0.1024	946	4
18990	337.4	0.0487	811	4
19040	332.4	0.0487	840	4
