Measured thermophysical data. Vapor Pressure Measurements of NaHCOO + H2O and KHCOO + H2O from 278 to 308 K and Representation with an Ion Interaction (Pitzer) Model
Source: J. Chem. Eng. Data, 2010, 10.1021/je900487a
Compound 1: sodium methanoate, CHNaO2, InChI=1S/CH2O2.Na/c2-1-3;/h1H,(H,2,3);/q;+1/p-1
Compound 2: potassium formate, CHKO2, InChI=1S/CH2O2.K/c2-1-3;/h1H,(H,2,3);/q;+1/p-1
Compound 3: water, H2O, InChI=1S/H2O/h1H2

System: sodium methanoate + water; phases: Liquid, Gas
Property: Vapor or sublimation pressure, kPa (Liquid); method: Closed cell (Static) method
Molality, mol/kg of sodium methanoate	Temperature, K	Vapor or sublimation pressure, kPa	uncertainty
0.5351	278.15	0.858	0.015
0.5351	283.15	1.209	0.021
0.5351	288.15	1.678	0.021
0.5351	293.15	2.302	0.024
0.5351	298.15	3.118	0.028
0.5351	303.15	4.177	0.034
0.5351	308.15	5.534	0.041
1.0901	278.15	0.841	0.015
1.0901	283.15	1.185	0.021
1.0901	288.15	1.645	0.021
1.0901	293.15	2.255	0.024
1.0901	298.15	3.056	0.028
1.0901	303.15	4.094	0.033
1.0901	308.15	5.424	0.041
1.9928	278.15	0.815	0.015
1.9928	283.15	1.148	0.02
1.9928	288.15	1.592	0.021
1.9928	293.15	2.183	0.024
1.9928	298.15	2.957	0.028
1.9928	303.15	3.96	0.033
1.9928	308.15	5.248	0.04
2.7865	278.15	0.792	0.015
2.7865	283.15	1.114	0.02
2.7865	288.15	1.545	0.021
2.7865	293.15	2.118	0.023
2.7865	298.15	2.868	0.027
2.7865	303.15	3.841	0.033
2.7865	308.15	5.088	0.04
3.4499	278.15	0.769	0.014
3.4499	283.15	1.082	0.019
3.4499	288.15	1.502	0.021
3.4499	293.15	2.059	0.023
3.4499	298.15	2.79	0.027
3.4499	303.15	3.736	0.033
3.4499	308.15	4.951	0.04
3.6396	278.15	0.763	0.014
3.6396	283.15	1.074	0.02
3.6396	288.15	1.491	0.022
3.6396	293.15	2.044	0.024
3.6396	298.15	2.769	0.029
3.6396	303.15	3.709	0.034
3.6396	308.15	4.914	0.04
4.4844	278.15	0.736	0.014
4.4844	283.15	1.035	0.019
4.4844	288.15	1.437	0.021
4.4844	293.15	1.971	0.023
4.4844	298.15	2.67	0.027
4.4844	303.15	3.576	0.033
4.4844	308.15	4.74	0.04
5.6153	278.15	0.7	0.013
5.6153	283.15	0.986	0.018
5.6153	288.15	1.368	0.021
5.6153	293.15	1.877	0.023
5.6153	298.15	2.544	0.027
5.6153	303.15	3.407	0.033
5.6153	308.15	4.517	0.04
6.6365	278.15	0.667	0.013
6.6365	283.15	0.939	0.017
6.6365	288.15	1.305	0.02
6.6365	293.15	1.79	0.023
6.6365	298.15	2.427	0.027
6.6365	303.15	3.255	0.032
6.6365	308.15	4.318	0.04
7.0478	278.15	0.658	0.013
7.0478	283.15	0.926	0.017
7.0478	288.15	1.284	0.023
7.0478	293.15	1.763	0.023
7.0478	298.15	2.393	0.027
7.0478	303.15	3.207	0.033
7.0478	308.15	4.255	0.039
8.0738	283.15	0.879	0.017
8.0738	288.15	1.222	0.022
8.0738	293.15	1.68	0.023
8.0738	298.15	2.28	0.027
8.0738	303.15	3.059	0.032
8.0738	308.15	4.062	0.039
9.7921	288.15	1.136	0.021
9.7921	293.15	1.561	0.023
9.7921	298.15	2.121	0.026
9.7921	303.15	2.849	0.031
9.7921	308.15	3.786	0.039
9.8008	288.15	1.128	0.021
9.8008	293.15	1.552	0.023
9.8008	298.15	2.11	0.026
9.8008	303.15	2.835	0.031
9.8008	308.15	3.771	0.039
10.8369	293.15	1.489	0.022
10.8369	298.15	2.024	0.026
10.8369	303.15	2.721	0.031
10.8369	308.15	3.619	0.038
11.7914	293.15	1.431	0.022
11.7914	298.15	1.945	0.026
11.7914	303.15	2.619	0.031
11.7914	308.15	3.487	0.038
12.9102	298.15	1.867	0.025
12.9102	303.15	2.515	0.028
12.9102	308.15	3.35	0.034
12.9102	313.15	4.408	0.045

System: potassium formate + water; phases: Liquid, Gas
Property: Vapor or sublimation pressure, kPa (Liquid); method: Closed cell (Static) method
Molality, mol/kg of potassium formate	Temperature, K	Vapor or sublimation pressure, kPa	uncertainty
1.0298	278.15	0.843	0.015
1.0298	283.15	1.187	0.021
1.0298	288.15	1.648	0.021
1.0298	293.15	2.259	0.024
1.0298	298.15	3.06	0.028
1.0298	303.15	4.099	0.034
1.0298	308.15	5.43	0.041
1.8532	278.15	0.817	0.015
1.8532	283.15	1.15	0.02
1.8532	288.15	1.596	0.021
1.8532	293.15	2.188	0.024
1.8532	298.15	2.964	0.028
1.8532	303.15	3.97	0.033
1.8532	308.15	5.26	0.041
2.6635	278.15	0.789	0.014
2.6635	283.15	1.111	0.02
2.6635	288.15	1.543	0.021
2.6635	293.15	2.115	0.024
2.6635	298.15	2.865	0.028
2.6635	303.15	3.839	0.033
2.6635	308.15	5.086	0.041
3.3345	278.15	0.766	0.014
3.3345	283.15	1.077	0.019
3.3345	288.15	1.495	0.021
3.3345	293.15	2.05	0.023
3.3345	298.15	2.777	0.028
3.3345	303.15	3.72	0.033
3.3345	308.15	4.929	0.041
4.5918	278.15	0.719	0.014
4.5918	283.15	1.011	0.02
4.5918	288.15	1.404	0.024
4.5918	293.15	1.926	0.027
4.5918	298.15	2.609	0.033
4.5918	303.15	3.495	0.04
4.5918	308.15	4.634	0.04
4.8215	278.15	0.709	0.013
4.8215	283.15	1	0.018
4.8215	288.15	1.389	0.021
4.8215	293.15	1.905	0.024
4.8215	298.15	2.582	0.028
4.8215	303.15	3.459	0.034
4.8215	308.15	4.585	0.04
5.5182	278.15	0.684	0.013
5.5182	283.15	0.963	0.018
5.5182	288.15	1.338	0.021
5.5182	293.15	1.835	0.023
5.5182	298.15	2.487	0.027
5.5182	303.15	3.333	0.033
5.5182	308.15	4.418	0.04
6.8204	278.15	0.635	0.012
6.8204	283.15	0.896	0.017
6.8204	288.15	1.245	0.022
6.8204	293.15	1.709	0.023
6.8204	298.15	2.318	0.027
6.8204	303.15	3.108	0.033
6.8204	308.15	4.122	0.04
7.6488	278.15	0.606	0.012
7.6488	283.15	0.855	0.016
7.6488	288.15	1.188	0.022
7.6488	293.15	1.632	0.023
7.6488	298.15	2.213	0.027
7.6488	303.15	2.969	0.032
7.6488	308.15	3.94	0.04
8.3137	278.15	0.583	0.012
8.3137	283.15	0.824	0.016
8.3137	288.15	1.145	0.021
8.3137	293.15	1.573	0.023
8.3137	298.15	2.135	0.027
8.3137	303.15	2.865	0.032
8.3137	308.15	3.802	0.04
8.935	278.15	0.563	0.011
8.935	283.15	0.796	0.016
8.935	288.15	1.107	0.021
8.935	293.15	1.521	0.023
8.935	298.15	2.065	0.027
8.935	303.15	2.77	0.033
8.935	308.15	3.676	0.039
10.175	278.15	0.525	0.011
10.175	283.15	0.741	0.015
10.175	288.15	1.032	0.02
10.175	293.15	1.419	0.023
10.175	298.15	1.927	0.026
10.175	303.15	2.587	0.032
10.175	308.15	3.435	0.039
10.175	313.15	4.507	0.047
11.765	278.15	0.48	0.01
11.765	283.15	0.679	0.014
11.765	288.15	0.946	0.019
11.765	293.15	1.302	0.022
11.765	298.15	1.769	0.026
11.765	303.15	2.377	0.031
11.765	308.15	3.161	0.038
13.372	278.15	0.44	0.01
13.372	283.15	0.623	0.013
13.372	288.15	0.868	0.017
13.372	293.15	1.196	0.023
13.372	298.15	1.627	0.025
13.372	303.15	2.187	0.03
13.372	308.15	2.91	0.037
13.372	313.15	3.825	0.047
14.325	278.15	0.418	0.009
14.325	283.15	0.592	0.013
14.325	288.15	0.828	0.017
14.325	293.15	1.14	0.023
14.325	298.15	1.552	0.025
14.325	303.15	2.088	0.03
14.325	308.15	2.779	0.037
14.325	313.15	3.652	0.046
14.325	318.15	4.755	0.056
15.91	278.15	0.386	0.009
15.91	283.15	0.547	0.012
15.91	288.15	0.763	0.016
15.91	293.15	1.051	0.021
15.91	298.15	1.431	0.025
15.91	303.15	1.926	0.029
15.91	308.15	2.564	0.035
15.91	313.15	3.374	0.044
15.91	318.15	4.395	0.054
17.875	278.15	0.35	0.008
17.875	283.15	0.497	0.014
17.875	288.15	0.695	0.019
17.875	293.15	0.959	0.025
17.875	298.15	1.307	0.03
17.875	303.15	1.761	0.037
17.875	308.15	2.347	0.045
17.875	313.15	3.089	0.056
17.875	318.15	4.027	0.049
18.362	278.15	0.344	0.008
18.362	283.15	0.487	0.01
18.362	288.15	0.682	0.014
18.362	293.15	0.941	0.018
18.362	298.15	1.283	0.024
18.362	303.15	1.728	0.024
18.362	308.15	2.305	0.028
18.362	313.15	3.034	0.034
18.362	318.15	3.957	0.049
20.469	278.15	0.311	0.008
20.469	283.15	0.443	0.01
20.469	288.15	0.621	0.014
20.469	293.15	0.857	0.018
20.469	298.15	1.169	0.024
20.469	303.15	1.577	0.027
20.469	308.15	2.102	0.032
20.469	313.15	2.769	0.04
20.469	318.15	3.612	0.049
20.469	323.15	4.669	0.058
22.005	278.15	0.293	0.007
22.005	283.15	0.416	0.01
22.005	288.15	0.582	0.013
22.005	293.15	0.805	0.017
22.005	298.15	1.099	0.023
22.005	303.15	1.482	0.026
22.005	308.15	1.978	0.031
22.005	313.15	2.608	0.038
22.005	318.15	3.403	0.047
24.211	278.15	0.268	0.007
24.211	283.15	0.381	0.009
24.211	288.15	0.535	0.012
24.211	293.15	0.74	0.016
24.211	298.15	1.01	0.021
24.211	303.15	1.365	0.025
24.211	308.15	1.821	0.029
24.211	313.15	2.402	0.036
24.211	318.15	3.136	0.044
24.211	323.15	4.058	0.057
24.995	278.15	0.259	0.007
24.995	283.15	0.369	0.009
24.995	288.15	0.518	0.012
24.995	293.15	0.718	0.016
24.995	298.15	0.98	0.021
24.995	303.15	1.323	0.026
24.995	308.15	1.766	0.031
24.995	313.15	2.33	0.038
24.995	318.15	3.043	0.047
24.995	323.15	3.94	0.056
26.771	278.15	0.24	0.006
26.771	283.15	0.343	0.008
26.771	288.15	0.482	0.011
26.771	293.15	0.668	0.015
26.771	298.15	0.913	0.019
26.771	303.15	1.233	0.026
26.771	308.15	1.648	0.028
26.771	313.15	2.175	0.034
26.771	318.15	2.842	0.042
26.771	323.15	3.68	0.052
29.334	278.15	0.222	0.006
29.334	283.15	0.317	0.013
29.334	288.15	0.445	0.017
29.334	293.15	0.617	0.022
29.334	298.15	0.844	0.028
29.334	303.15	1.141	0.037
29.334	308.15	1.527	0.044
29.334	313.15	2.016	0.055
29.334	318.15	2.635	0.068
29.334	323.15	3.414	0.053
29.818	278.15	0.217	0.006
29.818	283.15	0.311	0.008
29.818	288.15	0.437	0.011
29.818	293.15	0.606	0.015
29.818	298.15	0.829	0.019
29.818	303.15	1.121	0.025
29.818	308.15	1.5	0.029
29.818	313.15	1.98	0.036
29.818	318.15	2.59	0.044
29.818	323.15	3.355	0.053
30.529	278.15	0.212	0.006
30.529	283.15	0.303	0.007
30.529	288.15	0.426	0.009
30.529	293.15	0.59	0.012
30.529	298.15	0.808	0.016
30.529	303.15	1.092	0.021
30.529	308.15	1.461	0.023
30.529	313.15	1.929	0.026
30.529	318.15	2.522	0.032
30.529	323.15	3.267	0.053
33.458	278.15	0.193	0.006
33.458	283.15	0.277	0.007
33.458	288.15	0.391	0.024
33.458	293.15	0.542	0.032
33.458	298.15	0.743	0.042
33.458	303.15	1.005	0.054
33.458	308.15	1.345	0.068
33.458	313.15	1.777	0.086
33.458	318.15	2.325	0.108
33.458	323.15	3.014	0.082
33.797	288.15	0.381	0.012
33.797	293.15	0.528	0.013
33.797	298.15	0.724	0.017
33.797	303.15	0.98	0.022
33.797	308.15	1.311	0.027
33.797	313.15	1.732	0.032
33.797	318.15	2.267	0.039
33.797	323.15	2.939	0.048
34.148	288.15	0.381	0.017
34.148	293.15	0.53	0.02
34.148	298.15	0.726	0.026
34.148	303.15	0.983	0.033
34.148	308.15	1.315	0.039
34.148	313.15	1.736	0.048
34.148	318.15	2.272	0.058
34.148	323.15	2.946	0.036
38.764	303.15	0.878	0.019
38.764	308.15	1.172	0.024
38.764	313.15	1.551	0.027
38.764	318.15	2.03	0.032
38.764	323.15	2.634	0.042
