Measured thermophysical data. Density, Speed of Sound, Isentropic Compressibility, and Excess Volume of Binary Mixtures of 1-Amino-2-propanol or 3-Amino-1-propanol with 2-Amino-2-methyl-1-propanol, Diethanolamine, or Triethanolamine from (293.15 to 323.15) K
Source: J. Chem. Eng. Data, 2010, 10.1021/je900739x
Compound 1: 2-amino-2-methylpropan-1-ol, C4H11NO, InChI=1S/C4H11NO/c1-4(2,5)3-6/h6H,3,5H2,1-2H3
Compound 2: 3-amino-1-propanol, C3H9NO, InChI=1S/C3H9NO/c4-2-1-3-5/h5H,1-4H2
Compound 3: diethanolamine, C4H11NO2, InChI=1S/C4H11NO2/c6-3-1-5-2-4-7/h5-7H,1-4H2
Compound 4: triethanolamine, C6H15NO3, InChI=1S/C6H15NO3/c8-4-1-7(2-5-9)3-6-10/h8-10H,1-6H2
Compound 5: (2S)-1-amino-2-propanol, C3H9NO, InChI=1S/C3H9NO/c1-3(5)2-4/h3,5H,2,4H2,1H3/t3-/m0/s1

System: 2-amino-2-methylpropan-1-ol; phases: Liquid
Fixed: Pressure, kPa = 101
Property: Speed of sound, m/s (Liquid); method: Pulse-echo method
Temperature, K	Speed of sound, m/s	uncertainty
293.15	1501.44	5.05
298.15	1483.44	5.05
303.15	1461.22	5.05
308.15	1442.4	5.05
313.15	1423.8	5.05
318.15	1405.28	5.05
323.15	1386.93	5.05

System: 2-amino-2-methylpropan-1-ol; phases: Liquid
Fixed: Pressure, kPa = 101
Property: Mass density, kg/m3 (Liquid); method: VIBTUB::UFactor:12
Temperature, K	Mass density, kg/m3	uncertainty
293.15	936.751	5.376
298.15	932.596	5.354
303.15	928.395	5.332
308.15	924.174	5.309
313.15	919.945	5.287
318.15	915.702	5.266
323.15	911.431	5.244

System: 3-amino-1-propanol; phases: Liquid
Fixed: Pressure, kPa = 101
Property: Speed of sound, m/s (Liquid); method: Pulse-echo method
Temperature, K	Speed of sound, m/s	uncertainty
293.15	1727.44	1.3
298.15	1712.25	1.29
303.15	1696.24	1.29
308.15	1680.79	1.29
313.15	1664.67	1.28
318.15	1648.51	1.28
323.15	1632.43	1.27

System: 3-amino-1-propanol; phases: Liquid
Fixed: Pressure, kPa = 101
Property: Mass density, kg/m3 (Liquid); method: VIBTUB:UFactor:12
Temperature, K	Mass density, kg/m3	uncertainty
293.15	991.349	0.607
298.15	987.421	0.624
303.15	983.399	0.641
308.15	979.316	0.659
313.15	975.191	0.676
318.15	971.043	0.694
323.15	966.881	0.712

System: diethanolamine; phases: Liquid
Fixed: Pressure, kPa = 101
Property: Speed of sound, m/s (Liquid); method: Pulse-echo method
Temperature, K	Speed of sound, m/s	uncertainty
293.15	1736.54	1.3
298.15	1723.96	1.3
303.15	1711.55	1.29
308.15	1698.7	1.29
313.15	1686.13	1.29
318.15	1673.76	1.28
323.15	1660.36	1.28

System: diethanolamine; phases: Liquid
Fixed: Pressure, kPa = 101
Property: Mass density, kg/m3 (Liquid); method: VIBTUB::UFactor:12
Temperature, K	Mass density, kg/m3	uncertainty
293.15	1097.25	1.066
298.15	1094.019	1.05
303.15	1090.788	1.033
308.15	1087.508	1.016
313.15	1084.199	0.999
318.15	1080.862	0.982
323.15	1077.491	0.965

System: triethanolamine; phases: Liquid
Fixed: Pressure, kPa = 101
Property: Speed of sound, m/s (Liquid); method: Pulse-echo method
Temperature, K	Speed of sound, m/s	uncertainty
293.15	1617.81	1.27
298.15	1610.51	1.27
303.15	1600.52	1.27
308.15	1595.45	1.26
313.15	1586.99	1.26
318.15	1578.75	1.26
323.15	1570.58	1.26

System: triethanolamine; phases: Liquid
Fixed: Pressure, kPa = 101
Property: Mass density, kg/m3 (Liquid); method: VIBTUB::UFactor:12
Temperature, K	Mass density, kg/m3	uncertainty
293.15	1123.54	1.201
298.15	1120.82	1.187
303.15	1118.061	1.173
308.15	1115.255	1.159
313.15	1112.402	1.144
318.15	1109.604	1.13
323.15	1106.778	1.115

System: (2S)-1-amino-2-propanol; phases: Liquid
Fixed: Pressure, kPa = 101
Property: Speed of sound, m/s (Liquid); method: Pulse-echo method
Temperature, K	Speed of sound, m/s	uncertainty
293.15	1560.07	2.14
298.15	1544.07	2.14
303.15	1527.85	2.14
308.15	1511.56	2.13
313.15	1495.14	2.13
318.15	1478.68	2.13
323.15	1462.09	2.13

System: (2S)-1-amino-2-propanol; phases: Liquid
Fixed: Pressure, kPa = 101
Property: Mass density, kg/m3 (Liquid); method: VIBTUB:UFactor:12
Temperature, K	Mass density, kg/m3	uncertainty
293.15	961.223	1.299
298.15	957.114	1.312
303.15	952.98	1.325
308.15	948.828	1.338
313.15	944.656	1.351
318.15	940.462	1.365
323.15	936.244	1.378

System: 2-amino-2-methylpropan-1-ol + (2S)-1-amino-2-propanol; phases: Liquid
Fixed: Pressure, kPa = 101
Property: Speed of sound, m/s (Liquid); method: Pulse-echo method
Temperature, K	Mole fraction of (2S)-1-amino-2-propanol	Speed of sound, m/s	uncertainty
293.15	0	1501.44	5.05
293.15	0.1176	1505.09	4.71
293.15	0.2292	1510.02	4.38
293.15	0.3381	1515.7	4.05
293.15	0.4424	1521.64	3.75
293.15	0.5422	1527.62	3.46
293.15	0.6406	1533.86	3.17
293.15	0.7346	1540.17	2.9
293.15	0.826	1546.64	2.63
293.15	0.9131	1553.18	2.38
293.15	1	1560.07	2.14
298.15	0	1483.44	5.05
298.15	0.1176	1487.84	4.7
298.15	0.2292	1493.03	4.37
298.15	0.3381	1498.93	4.05
298.15	0.4424	1505.06	3.75
298.15	0.5422	1511.25	3.45
298.15	0.6406	1517.71	3.17
298.15	0.7346	1524.21	2.89
298.15	0.826	1530.79	2.63
298.15	0.9131	1537.31	2.38
298.15	1	1544.07	2.14
303.15	0	1461.22	5.05
303.15	0.1176	1466.73	4.7
303.15	0.2292	1472.61	4.37
303.15	0.3381	1479.06	4.05
303.15	0.4424	1485.8	3.75
303.15	0.5422	1492.63	3.45
303.15	0.6406	1499.74	3.17
303.15	0.7346	1506.82	2.89
303.15	0.826	1513.88	2.63
303.15	0.9131	1520.81	2.38
303.15	1	1527.85	2.14
308.15	0	1442.4	5.05
308.15	0.1176	1448.7	4.7
308.15	0.2292	1455.04	4.37
308.15	0.3381	1461.85	4.05
308.15	0.4424	1468.87	3.74
308.15	0.5422	1475.89	3.45
308.15	0.6406	1483.16	3.16
308.15	0.7346	1490.4	2.89
308.15	0.826	1497.57	2.63
308.15	0.9131	1504.53	2.38
308.15	1	1511.56	2.13
313.15	0	1423.8	5.05
313.15	0.1176	1430.76	4.7
313.15	0.2292	1437.59	4.37
313.15	0.3381	1444.56	4.05
313.15	0.4424	1451.68	3.74
313.15	0.5422	1458.95	3.45
313.15	0.6406	1466.47	3.16
313.15	0.7346	1473.84	2.89
313.15	0.826	1481.09	2.63
313.15	0.9131	1488.14	2.38
313.15	1	1495.14	2.13
318.15	0	1405.28	5.05
318.15	0.1176	1412.82	4.7
318.15	0.2292	1420.01	4.37
318.15	0.3381	1427.31	4.05
318.15	0.4424	1434.66	3.74
318.15	0.5422	1442.05	3.45
318.15	0.6406	1449.69	3.16
318.15	0.7346	1457.24	2.89
318.15	0.826	1464.59	2.62
318.15	0.9131	1471.68	2.38
318.15	1	1478.68	2.13
323.15	0	1386.93	5.05
323.15	0.1176	1394.99	4.7
323.15	0.2292	1402.56	4.37
323.15	0.3381	1410.12	4.05
323.15	0.4424	1417.64	3.74
323.15	0.5422	1425.17	3.45
323.15	0.6406	1432.92	3.16
323.15	0.7346	1440.55	2.89
323.15	0.826	1448	2.62
323.15	0.9131	1455.1	2.37
323.15	1	1462.09	2.13

System: 2-amino-2-methylpropan-1-ol + (2S)-1-amino-2-propanol; phases: Liquid
Fixed: Pressure, kPa = 101
Property: Mass density, kg/m3 (Liquid); method: VIBTUB:UFactor:12
Temperature, K	Mole fraction of (2S)-1-amino-2-propanol	Mass density, kg/m3	uncertainty
293.15	0	936.751	5.376
293.15	0.1176	938.737	4.713
293.15	0.2292	940.76	4.131
293.15	0.3381	942.978	3.607
293.15	0.4424	945.342	3.144
293.15	0.5422	947.842	2.737
293.15	0.6406	950.503	2.369
293.15	0.7346	953.19	2.048
293.15	0.826	955.887	1.763
293.15	0.9131	958.533	1.518
293.15	1	961.223	1.299
298.15	0	932.596	5.354
298.15	0.1176	934.492	4.696
298.15	0.2292	936.54	4.12
298.15	0.3381	938.766	3.6
298.15	0.4424	941.139	3.142
298.15	0.5422	943.637	2.738
298.15	0.6406	946.322	2.373
298.15	0.7346	949.017	2.054
298.15	0.826	951.728	1.773
298.15	0.9131	954.391	1.53
298.15	1	957.114	1.312
303.15	0	928.395	5.332
303.15	0.1176	930.214	4.68
303.15	0.2292	932.272	4.108
303.15	0.3381	934.526	3.594
303.15	0.4424	936.909	3.139
303.15	0.5422	939.416	2.739
303.15	0.6406	942.102	2.377
303.15	0.7346	944.816	2.061
303.15	0.826	947.545	1.782
303.15	0.9131	950.222	1.541
303.15	1	952.98	1.325
308.15	0	924.174	5.309
308.15	0.1176	925.918	4.663
308.15	0.2292	927.995	4.097
308.15	0.3381	930.264	3.587
308.15	0.4424	932.667	3.137
308.15	0.5422	935.18	2.74
308.15	0.6406	937.874	2.382
308.15	0.7346	940.595	2.068
308.15	0.826	943.346	1.791
308.15	0.9131	946.036	1.552
308.15	1	948.828	1.338
313.15	0	919.945	5.287
313.15	0.1176	921.613	4.647
313.15	0.2292	923.688	4.086
313.15	0.3381	925.995	3.581
313.15	0.4424	928.422	3.135
313.15	0.5422	930.949	2.742
313.15	0.6406	933.636	2.386
313.15	0.7346	936.363	2.076
313.15	0.826	939.126	1.801
313.15	0.9131	941.837	1.564
313.15	1	944.656	1.351
318.15	0	915.702	5.266
318.15	0.1176	917.294	4.63
318.15	0.2292	919.386	4.075
318.15	0.3381	921.71	3.574
318.15	0.4424	924.148	3.132
318.15	0.5422	926.686	2.743
318.15	0.6406	929.375	2.391
318.15	0.7346	932.111	2.083
318.15	0.826	934.886	1.811
318.15	0.9131	937.61	1.576
318.15	1	940.462	1.365
323.15	0	911.431	5.244
323.15	0.1176	912.954	4.614
323.15	0.2292	915.059	4.064
323.15	0.3381	917.403	3.568
323.15	0.4424	919.86	3.13
323.15	0.5422	922.397	2.744
323.15	0.6406	925.091	2.395
323.15	0.7346	927.832	2.09
323.15	0.826	930.614	1.82
323.15	0.9131	933.355	1.587
323.15	1	936.244	1.378

System: diethanolamine + (2S)-1-amino-2-propanol; phases: Liquid
Fixed: Pressure, kPa = 101
Property: Speed of sound, m/s (Liquid); method: Pulse-echo method
Temperature, K	Mole fraction of (2S)-1-amino-2-propanol	Speed of sound, m/s	uncertainty
293.15	0	1736.54	1.3
293.15	0.1179	1721.26	1.39
293.15	0.2586	1702.22	1.5
293.15	0.3754	1684.35	1.6
293.15	0.4835	1666.32	1.69
293.15	0.5836	1648.89	1.77
293.15	0.6771	1631.66	1.85
293.15	0.7642	1614.36	1.93
293.15	0.8483	1596.24	2
293.15	0.925	1578.41	2.07
293.15	1	1560.07	2.14
298.15	0	1723.96	1.3
298.15	0.1179	1708.16	1.39
298.15	0.2586	1688.78	1.5
298.15	0.3754	1670.43	1.59
298.15	0.4835	1651.99	1.69
298.15	0.5836	1634.31	1.77
298.15	0.6771	1616.74	1.85
298.15	0.7642	1599.11	1.93
298.15	0.8483	1580.57	2
298.15	0.925	1562.45	2.07
298.15	1	1544.07	2.14
303.15	0	1711.55	1.29
303.15	0.1179	1695.2	1.38
303.15	0.2586	1675.24	1.49
303.15	0.3754	1656.68	1.59
303.15	0.4835	1638.13	1.68
303.15	0.5836	1619.89	1.77
303.15	0.6771	1601.81	1.85
303.15	0.7642	1583.65	1.93
303.15	0.8483	1564.85	2
303.15	0.925	1546.56	2.07
303.15	1	1527.85	2.14
308.15	0	1698.7	1.29
308.15	0.1179	1682.25	1.38
308.15	0.2586	1662.08	1.49
308.15	0.3754	1643.11	1.59
308.15	0.4835	1624.05	1.68
308.15	0.5836	1605.36	1.77
308.15	0.6771	1586.89	1.85
308.15	0.7642	1568.36	1.92
308.15	0.8483	1549.12	2
308.15	0.925	1530.51	2.07
308.15	1	1511.56	2.13
313.15	0	1686.13	1.29
313.15	0.1179	1669.22	1.38
313.15	0.2586	1648.57	1.49
313.15	0.3754	1629.53	1.59
313.15	0.4835	1610.06	1.68
313.15	0.5836	1591.03	1.76
313.15	0.6771	1572.18	1.85
313.15	0.7642	1553.39	1.92
313.15	0.8483	1533.7	2
313.15	0.925	1514.46	2.06
313.15	1	1495.14	2.13
318.15	0	1673.76	1.28
318.15	0.1179	1656.33	1.37
318.15	0.2586	1635.18	1.49
318.15	0.3754	1615.63	1.58
318.15	0.4835	1595.86	1.68
318.15	0.5836	1576.59	1.76
318.15	0.6771	1557.37	1.84
318.15	0.7642	1537.99	1.92
318.15	0.8483	1518	1.99
318.15	0.925	1498.45	2.06
318.15	1	1478.68	2.13
323.15	0	1660.36	1.28
323.15	0.1179	1643.05	1.37
323.15	0.2586	1621.82	1.48
323.15	0.3754	1601.88	1.58
323.15	0.4835	1581.55	1.67
323.15	0.5836	1561.72	1.76
323.15	0.6771	1542.21	1.84
323.15	0.7642	1522.69	1.92
323.15	0.8483	1502.38	1.99
323.15	0.925	1482.42	2.06
323.15	1	1462.09	2.13

System: diethanolamine + (2S)-1-amino-2-propanol; phases: Liquid
Fixed: Pressure, kPa = 101
Property: Mass density, kg/m3 (Liquid); method: VIBTUB:UFactor:12
Temperature, K	Mole fraction of (2S)-1-amino-2-propanol	Mass density, kg/m3	uncertainty
293.15	0	1097.25	1.066
293.15	0.1179	1084.985	1.062
293.15	0.2586	1069.676	1.059
293.15	0.3754	1055.966	1.056
293.15	0.4835	1042.201	1.049
293.15	0.5836	1028.501	1.038
293.15	0.6771	1014.995	1.024
293.15	0.7642	1001.715	1.007
293.15	0.8483	988.016	1.099
293.15	0.925	974.656	1.2
293.15	1	961.223	1.299
298.15	0	1094.019	1.05
298.15	0.1179	1081.705	1.045
298.15	0.2586	1066.319	1.041
298.15	0.3754	1052.495	1.037
298.15	0.4835	1038.585	1.029
298.15	0.5836	1024.808	1.017
298.15	0.6771	1011.241	1.002
298.15	0.7642	997.886	1.004
298.15	0.8483	984.11	1.112
298.15	0.925	970.627	1.213
298.15	1	957.114	1.312
303.15	0	1090.788	1.033
303.15	0.1179	1078.457	1.028
303.15	0.2586	1062.898	1.023
303.15	0.3754	1049.01	1.017
303.15	0.4835	1035.015	1.009
303.15	0.5836	1021.153	0.996
303.15	0.6771	1007.474	0.98
303.15	0.7642	994.025	1.018
303.15	0.8483	980.171	1.125
303.15	0.925	966.599	1.226
303.15	1	952.98	1.325
308.15	0	1087.508	1.016
308.15	0.1179	1075.207	1.011
308.15	0.2586	1059.484	1.005
308.15	0.3754	1045.473	0.998
308.15	0.4835	1031.412	0.989
308.15	0.5836	1017.463	0.975
308.15	0.6771	1003.686	0.958
308.15	0.7642	990.147	1.031
308.15	0.8483	976.205	1.138
308.15	0.925	962.572	1.239
308.15	1	948.828	1.338
313.15	0	1084.199	0.999
313.15	0.1179	1071.893	0.994
313.15	0.2586	1056.049	0.986
313.15	0.3754	1041.915	0.979
313.15	0.4835	1027.763	0.968
313.15	0.5836	1013.753	0.954
313.15	0.6771	999.894	0.937
313.15	0.7642	986.251	1.045
313.15	0.8483	972.199	1.152
313.15	0.925	958.506	1.252
313.15	1	944.656	1.351
318.15	0	1080.862	0.982
318.15	0.1179	1068.576	0.977
318.15	0.2586	1052.601	0.968
318.15	0.3754	1038.372	0.959
318.15	0.4835	1024.141	0.948
318.15	0.5836	1010.016	0.932
318.15	0.6771	996.072	0.951
318.15	0.7642	982.326	1.058
318.15	0.8483	968.193	1.165
318.15	0.925	954.443	1.266
318.15	1	940.462	1.365
323.15	0	1077.491	0.965
323.15	0.1179	1065.187	0.959
323.15	0.2586	1049.093	0.949
323.15	0.3754	1034.766	0.94
323.15	0.4835	1020.496	0.928
323.15	0.5836	1006.284	0.911
323.15	0.6771	992.23	0.964
323.15	0.7642	978.393	1.072
323.15	0.8483	964.204	1.179
323.15	0.925	950.392	1.279
323.15	1	936.244	1.378

System: triethanolamine + (2S)-1-amino-2-propanol; phases: Liquid
Fixed: Pressure, kPa = 101
Property: Speed of sound, m/s (Liquid); method: Pulse-echo method
Temperature, K	Mole fraction of (2S)-1-amino-2-propanol	Speed of sound, m/s	uncertainty
293.15	0	1617.81	1.27
293.15	0.1163	1624.93	1.36
293.15	0.3329	1640.28	1.55
293.15	0.4604	1650.7	1.66
293.15	0.5705	1647.85	1.76
293.15	0.6645	1635.18	1.84
293.15	0.7489	1618.07	1.92
293.15	0.8224	1601.62	1.98
293.15	0.8877	1587.1	2.04
293.15	0.947	1573.57	2.09
293.15	1	1560.07	2.14
298.15	0	1610.51	1.27
298.15	0.1163	1617.78	1.36
298.15	0.3329	1631.02	1.55
298.15	0.4604	1641.45	1.66
298.15	0.5705	1638.09	1.76
298.15	0.6645	1624.25	1.84
298.15	0.7489	1605.91	1.92
298.15	0.8224	1588.95	1.98
298.15	0.8877	1573.68	2.04
298.15	0.947	1559.2	2.09
298.15	1	1544.07	2.14
303.15	0	1600.52	1.27
303.15	0.1163	1608	1.36
303.15	0.3329	1620.37	1.55
303.15	0.4604	1630.93	1.66
303.15	0.5705	1626.79	1.76
303.15	0.6645	1611.63	1.84
303.15	0.7489	1592.62	1.91
303.15	0.8224	1574.68	1.98
303.15	0.8877	1559.14	2.04
303.15	0.947	1544.17	2.09
303.15	1	1527.85	2.14
308.15	0	1595.45	1.26
308.15	0.1163	1603.21	1.36
308.15	0.3329	1614.56	1.54
308.15	0.4604	1623.42	1.66
308.15	0.5705	1617.56	1.76
308.15	0.6645	1600.98	1.84
308.15	0.7489	1580.78	1.91
308.15	0.8224	1562.12	1.98
308.15	0.8877	1545.68	2.03
308.15	0.947	1529.35	2.09
308.15	1	1511.56	2.13
313.15	0	1586.99	1.26
313.15	0.1163	1594.93	1.36
313.15	0.3329	1605.35	1.54
313.15	0.4604	1612.92	1.66
313.15	0.5705	1605.76	1.75
313.15	0.6645	1588.24	1.84
313.15	0.7489	1567.4	1.91
313.15	0.8224	1548.32	1.97
313.15	0.8877	1531.07	2.03
313.15	0.947	1514.02	2.08
313.15	1	1495.14	2.13
318.15	0	1578.75	1.26
318.15	0.1163	1585.79	1.36
318.15	0.3329	1596.23	1.54
318.15	0.4604	1602.16	1.65
318.15	0.5705	1593.7	1.75
318.15	0.6645	1575.87	1.83
318.15	0.7489	1554.84	1.91
318.15	0.8224	1535.7	1.97
318.15	0.8877	1517.9	2.03
318.15	0.947	1499.55	2.08
318.15	1	1478.68	2.13
323.15	0	1570.58	1.26
323.15	0.1163	1577.65	1.35
323.15	0.3329	1587.21	1.54
323.15	0.4604	1591.39	1.65
323.15	0.5705	1581.16	1.75
323.15	0.6645	1562.39	1.83
323.15	0.7489	1541.38	1.91
323.15	0.8224	1522.1	1.97
323.15	0.8877	1504.09	2.03
323.15	0.947	1484.73	2.08
323.15	1	1462.09	2.13

System: triethanolamine + (2S)-1-amino-2-propanol; phases: Liquid
Fixed: Pressure, kPa = 101
Property: Mass density, kg/m3 (Liquid); method: VIBTUB:UFactor:12
Temperature, K	Mole fraction of (2S)-1-amino-2-propanol	Mass density, kg/m3	uncertainty
293.15	0	1123.54	1.201
293.15	0.1163	1114.179	1.214
293.15	0.3329	1092.744	1.23
293.15	0.4604	1077.073	1.229
293.15	0.5705	1060.733	1.214
293.15	0.6645	1044.451	1.187
293.15	0.7489	1028.026	1.153
293.15	0.8224	1012.093	1.113
293.15	0.8877	996.169	1.102
293.15	0.947	979.341	1.201
293.15	1	961.223	1.299
298.15	0	1120.82	1.187
298.15	0.1163	1111.225	1.199
298.15	0.3329	1089.489	1.212
298.15	0.4604	1073.66	1.21
298.15	0.5705	1057.16	1.193
298.15	0.6645	1040.702	1.166
298.15	0.7489	1024.173	1.13
298.15	0.8224	1008.087	1.089
298.15	0.8877	992.033	1.115
298.15	0.947	975.14	1.215
298.15	1	957.114	1.312
303.15	0	1118.061	1.173
303.15	0.1163	1108.259	1.183
303.15	0.3329	1086.217	1.194
303.15	0.4604	1070.191	1.19
303.15	0.5705	1053.544	1.173
303.15	0.6645	1036.962	1.144
303.15	0.7489	1020.249	1.107
303.15	0.8224	1004.052	1.064
303.15	0.8877	987.898	1.129
303.15	0.947	970.952	1.228
303.15	1	952.98	1.325
308.15	0	1115.255	1.159
308.15	0.1163	1105.177	1.167
308.15	0.3329	1082.896	1.176
308.15	0.4604	1066.685	1.171
308.15	0.5705	1049.885	1.152
308.15	0.6645	1033.171	1.122
308.15	0.7489	1016.349	1.084
308.15	0.8224	1000.002	1.04
308.15	0.8877	983.731	1.142
308.15	0.947	966.734	1.242
308.15	1	948.828	1.338
313.15	0	1112.402	1.144
313.15	0.1163	1102.065	1.151
313.15	0.3329	1079.555	1.158
313.15	0.4604	1063.143	1.151
313.15	0.5705	1046.181	1.131
313.15	0.6645	1029.34	1.099
313.15	0.7489	1012.379	1.06
313.15	0.8224	995.914	1.054
313.15	0.8877	979.528	1.156
313.15	0.947	962.491	1.255
313.15	1	944.656	1.351
318.15	0	1109.604	1.13
318.15	0.1163	1098.991	1.135
318.15	0.3329	1076.201	1.14
318.15	0.4604	1059.618	1.131
318.15	0.5705	1042.485	1.109
318.15	0.6645	1025.508	1.077
318.15	0.7489	1008.404	1.037
318.15	0.8224	991.792	1.068
318.15	0.8877	975.304	1.17
318.15	0.947	958.211	1.269
318.15	1	940.462	1.365
323.15	0	1106.778	1.115
323.15	0.1163	1095.881	1.119
323.15	0.3329	1072.832	1.121
323.15	0.4604	1056.038	1.111
323.15	0.5705	1038.752	1.088
323.15	0.6645	1021.64	1.055
323.15	0.7489	1004.395	1.013
323.15	0.8224	987.654	1.082
323.15	0.8877	971.044	1.184
323.15	0.947	953.905	1.283
323.15	1	936.244	1.378

System: 2-amino-2-methylpropan-1-ol + 3-amino-1-propanol; phases: Liquid
Fixed: Pressure, kPa = 101
Property: Speed of sound, m/s (Liquid); method: Pulse-echo method
Temperature, K	Mole fraction of 3-amino-1-propanol	Speed of sound, m/s	uncertainty
293.15	0	1501.44	5.05
293.15	0.1175	1528.15	4.59
293.15	0.2294	1554.37	4.15
293.15	0.3374	1579.86	3.73
293.15	0.4419	1604.48	3.33
293.15	0.5434	1628.28	2.94
293.15	0.6398	1650.74	2.57
293.15	0.7346	1672.47	2.21
293.15	0.8257	1692.67	1.88
293.15	0.913	1710.89	1.58
293.15	1	1727.44	1.3
298.15	0	1483.44	5.05
298.15	0.1175	1509.74	4.59
298.15	0.2294	1535.65	4.15
298.15	0.3374	1561.11	3.73
298.15	0.4419	1585.87	3.33
298.15	0.5434	1609.87	2.93
298.15	0.6398	1632.52	2.57
298.15	0.7346	1654.46	2.21
298.15	0.8257	1675.04	1.88
298.15	0.913	1694.11	1.57
298.15	1	1712.25	1.29
303.15	0	1461.22	5.05
303.15	0.1175	1487.33	4.59
303.15	0.2294	1513.2	4.15
303.15	0.3374	1538.85	3.73
303.15	0.4419	1564.04	3.32
303.15	0.5434	1588.55	2.93
303.15	0.6398	1611.8	2.56
303.15	0.7346	1634.38	2.21
303.15	0.8257	1655.86	1.88
303.15	0.913	1676.18	1.57
303.15	1	1696.24	1.29
308.15	0	1442.4	5.05
308.15	0.1175	1468.26	4.59
308.15	0.2294	1493.96	4.15
308.15	0.3374	1519.6	3.73
308.15	0.4419	1544.91	3.32
308.15	0.5434	1569.63	2.93
308.15	0.6398	1593.12	2.56
308.15	0.7346	1616.05	2.21
308.15	0.8257	1638.02	1.87
308.15	0.913	1659.23	1.57
308.15	1	1680.79	1.29
313.15	0	1423.8	5.05
313.15	0.1175	1449.36	4.59
313.15	0.2294	1474.88	4.15
313.15	0.3374	1500.47	3.73
313.15	0.4419	1525.76	3.32
313.15	0.5434	1550.6	2.93
313.15	0.6398	1574.27	2.56
313.15	0.7346	1597.56	2.2
313.15	0.8257	1619.99	1.87
313.15	0.913	1641.95	1.56
313.15	1	1664.67	1.28
318.15	0	1405.28	5.05
318.15	0.1175	1430.53	4.59
318.15	0.2294	1455.93	4.15
318.15	0.3374	1481.38	3.72
318.15	0.4419	1506.63	3.32
318.15	0.5434	1531.5	2.93
318.15	0.6398	1555.36	2.56
318.15	0.7346	1578.97	2.2
318.15	0.8257	1601.97	1.87
318.15	0.913	1624.71	1.56
318.15	1	1648.51	1.28
323.15	0	1386.93	5.05
323.15	0.1175	1411.91	4.58
323.15	0.2294	1437.3	4.14
323.15	0.3374	1462.67	3.72
323.15	0.4419	1487.83	3.32
323.15	0.5434	1512.73	2.93
323.15	0.6398	1536.84	2.56
323.15	0.7346	1560.9	2.2
323.15	0.8257	1584.43	1.86
323.15	0.913	1607.72	1.56
323.15	1	1632.43	1.27

System: 2-amino-2-methylpropan-1-ol + 3-amino-1-propanol; phases: Liquid
Fixed: Pressure, kPa = 101
Property: Mass density, kg/m3 (Liquid); method: VIBTUB:UFactor:12
Temperature, K	Mole fraction of 3-amino-1-propanol	Mass density, kg/m3	uncertainty
293.15	0	936.751	5.376
293.15	0.1175	941.523	4.511
293.15	0.2294	946.417	3.765
293.15	0.3374	951.472	3.116
293.15	0.4419	956.712	2.553
293.15	0.5434	962.166	2.066
293.15	0.6398	967.714	1.659
293.15	0.7346	973.519	1.31
293.15	0.8257	979.428	1.022
293.15	0.913	985.339	0.792
293.15	1	991.349	0.607
298.15	0	932.596	5.354
298.15	0.1175	937.236	4.496
298.15	0.2294	942.095	3.757
298.15	0.3374	947.136	3.114
298.15	0.4419	952.399	2.555
298.15	0.5434	957.904	2.073
298.15	0.6398	963.512	1.669
298.15	0.7346	969.368	1.322
298.15	0.8257	975.324	1.037
298.15	0.913	981.303	0.808
298.15	1	987.421	0.624
303.15	0	928.395	5.332
303.15	0.1175	932.936	4.481
303.15	0.2294	937.757	3.749
303.15	0.3374	942.799	3.111
303.15	0.4419	948.086	2.558
303.15	0.5434	953.616	2.08
303.15	0.6398	959.244	1.679
303.15	0.7346	965.136	1.335
303.15	0.8257	971.149	1.052
303.15	0.913	977.194	0.824
303.15	1	983.399	0.641
308.15	0	924.174	5.309
308.15	0.1175	928.617	4.467
308.15	0.2294	933.354	3.741
308.15	0.3374	938.365	3.109
308.15	0.4419	943.647	2.561
308.15	0.5434	949.199	2.087
308.15	0.6398	954.87	1.689
308.15	0.7346	960.831	1.348
308.15	0.8257	966.919	1.067
308.15	0.913	973.041	0.841
308.15	1	979.316	0.659
313.15	0	919.945	5.287
313.15	0.1175	924.304	4.452
313.15	0.2294	928.957	3.733
313.15	0.3374	933.92	3.107
313.15	0.4419	939.182	2.563
313.15	0.5434	944.749	2.094
313.15	0.6398	950.485	1.7
313.15	0.7346	956.533	1.361
313.15	0.8257	962.693	1.082
313.15	0.913	968.853	0.858
313.15	1	975.191	0.676
318.15	0	915.702	5.266
318.15	0.1175	919.962	4.438
318.15	0.2294	924.564	3.725
318.15	0.3374	929.45	3.104
318.15	0.4419	934.683	2.566
318.15	0.5434	940.295	2.101
318.15	0.6398	946.108	1.71
318.15	0.7346	952.221	1.374
318.15	0.8257	958.435	1.097
318.15	0.913	964.652	0.874
318.15	1	971.043	0.694
323.15	0	911.431	5.244
323.15	0.1175	915.614	4.423
323.15	0.2294	920.054	3.717
323.15	0.3374	924.883	3.102
323.15	0.4419	930.131	2.569
323.15	0.5434	935.813	2.108
323.15	0.6398	941.701	1.721
323.15	0.7346	947.873	1.388
323.15	0.8257	954.128	1.113
323.15	0.913	960.386	0.892
323.15	1	966.881	0.712

System: diethanolamine + 3-amino-1-propanol; phases: Liquid
Fixed: Pressure, kPa = 101
Property: Speed of sound, m/s (Liquid); method: Pulse-echo method
Temperature, K	Mole fraction of 3-amino-1-propanol	Speed of sound, m/s	uncertainty
293.15	0	1736.54	1.3
293.15	0.1363	1735.4	1.3
293.15	0.2594	1734.15	1.3
293.15	0.3748	1733.35	1.3
293.15	0.4833	1732.49	1.3
293.15	0.5828	1731.82	1.3
293.15	0.6764	1730.83	1.3
293.15	0.7646	1729.68	1.3
293.15	0.8483	1728.68	1.3
293.15	0.9257	1727.99	1.3
293.15	1	1727.44	1.3
298.15	0	1723.96	1.3
298.15	0.1363	1722.99	1.3
298.15	0.2594	1721.48	1.3
298.15	0.3748	1720.57	1.3
298.15	0.4833	1719.57	1.29
298.15	0.5828	1718.65	1.29
298.15	0.6764	1717.36	1.29
298.15	0.7646	1715.96	1.29
298.15	0.8483	1714.72	1.29
298.15	0.9257	1713.65	1.29
298.15	1	1712.25	1.29
303.15	0	1711.55	1.29
303.15	0.1363	1710.56	1.29
303.15	0.2594	1709.06	1.29
303.15	0.3748	1707.92	1.29
303.15	0.4833	1706.67	1.29
303.15	0.5828	1705.49	1.29
303.15	0.6764	1703.91	1.29
303.15	0.7646	1702.12	1.29
303.15	0.8483	1700.23	1.29
303.15	0.9257	1698.4	1.29
303.15	1	1696.24	1.29
308.15	0	1698.7	1.29
308.15	0.1363	1697.8	1.29
308.15	0.2594	1696.34	1.29
308.15	0.3748	1695.29	1.29
308.15	0.4833	1694.02	1.29
308.15	0.5828	1692.7	1.29
308.15	0.6764	1690.76	1.29
308.15	0.7646	1688.44	1.29
308.15	0.8483	1685.96	1.29
308.15	0.9257	1683.55	1.29
308.15	1	1680.79	1.29
313.15	0	1686.13	1.29
313.15	0.1363	1685.13	1.29
313.15	0.2594	1683.74	1.29
313.15	0.3748	1682.23	1.29
313.15	0.4833	1680.35	1.29
313.15	0.5828	1678.64	1.29
313.15	0.6764	1676.5	1.28
313.15	0.7646	1673.97	1.28
313.15	0.8483	1671.12	1.28
313.15	0.9257	1668.11	1.28
313.15	1	1664.67	1.28
318.15	0	1673.76	1.28
318.15	0.1363	1672.62	1.28
318.15	0.2594	1671.24	1.28
318.15	0.3748	1669.25	1.28
318.15	0.4833	1666.77	1.28
318.15	0.5828	1664.6	1.28
318.15	0.6764	1662.17	1.28
318.15	0.7646	1659.38	1.28
318.15	0.8483	1656.15	1.28
318.15	0.9257	1652.61	1.28
318.15	1	1648.51	1.28
323.15	0	1660.36	1.28
323.15	0.1363	1659.72	1.28
323.15	0.2594	1657.78	1.28
323.15	0.3748	1655.45	1.28
323.15	0.4833	1652.8	1.28
323.15	0.5828	1650.35	1.28
323.15	0.6764	1647.54	1.28
323.15	0.7646	1644.36	1.28
323.15	0.8483	1640.81	1.28
323.15	0.9257	1636.96	1.28
323.15	1	1632.43	1.27

System: diethanolamine + 3-amino-1-propanol; phases: Liquid
Fixed: Pressure, kPa = 101
Property: Mass density, kg/m3 (Liquid); method: VIBTUB:UFactor:12
Temperature, K	Mole fraction of 3-amino-1-propanol	Mass density, kg/m3	uncertainty
293.15	0	1097.25	1.066
293.15	0.1363	1086.751	1.013
293.15	0.2594	1076.525	0.96
293.15	0.3748	1066.246	0.908
293.15	0.4833	1055.822	0.856
293.15	0.5828	1045.42	0.802
293.15	0.6764	1034.735	0.748
293.15	0.7646	1023.844	0.692
293.15	0.8483	1012.817	0.635
293.15	0.9257	1002.09	0.58
293.15	1	991.349	0.607
298.15	0	1094.019	1.05
298.15	0.1363	1083.525	0.996
298.15	0.2594	1073.229	0.944
298.15	0.3748	1062.864	0.891
298.15	0.4833	1052.359	0.838
298.15	0.5828	1041.882	0.784
298.15	0.6764	1031.145	0.729
298.15	0.7646	1020.192	0.673
298.15	0.8483	1009.118	0.616
298.15	0.9257	998.332	0.577
298.15	1	987.421	0.624
303.15	0	1090.788	1.033
303.15	0.1363	1080.293	0.979
303.15	0.2594	1069.906	0.927
303.15	0.3748	1059.436	0.873
303.15	0.4833	1048.869	0.82
303.15	0.5828	1038.318	0.766
303.15	0.6764	1027.492	0.711
303.15	0.7646	1016.465	0.654
303.15	0.8483	1005.333	0.597
303.15	0.9257	994.491	0.593
303.15	1	983.399	0.641
308.15	0	1087.508	1.016
308.15	0.1363	1076.997	0.963
308.15	0.2594	1066.528	0.909
308.15	0.3748	1055.948	0.856
308.15	0.4833	1045.285	0.802
308.15	0.5828	1034.675	0.748
308.15	0.6764	1023.787	0.692
308.15	0.7646	1012.692	0.635
308.15	0.8483	1001.53	0.578
308.15	0.9257	990.643	0.61
308.15	1	979.316	0.659
313.15	0	1084.199	0.999
313.15	0.1363	1073.675	0.946
313.15	0.2594	1063.132	0.892
313.15	0.3748	1052.459	0.838
313.15	0.4833	1041.701	0.784
313.15	0.5828	1030.991	0.729
313.15	0.6764	1020.021	0.673
313.15	0.7646	1008.866	0.615
313.15	0.8483	997.642	0.58
313.15	0.9257	986.668	0.627
313.15	1	975.191	0.676
318.15	0	1080.862	0.982
318.15	0.1363	1070.323	0.928
318.15	0.2594	1059.682	0.874
318.15	0.3748	1048.919	0.82
318.15	0.4833	1038.068	0.765
318.15	0.5828	1027.274	0.71
318.15	0.6764	1016.229	0.653
318.15	0.7646	1005.027	0.596
318.15	0.8483	993.745	0.597
318.15	0.9257	982.692	0.644
318.15	1	971.043	0.694
323.15	0	1077.491	0.965
323.15	0.1363	1066.95	0.911
323.15	0.2594	1056.219	0.857
323.15	0.3748	1045.329	0.802
323.15	0.4833	1034.404	0.747
323.15	0.5828	1023.542	0.691
323.15	0.6764	1012.416	0.634
323.15	0.7646	1001.137	0.576
323.15	0.8483	989.811	0.614
323.15	0.9257	978.714	0.661
323.15	1	966.881	0.712

System: triethanolamine + 3-amino-1-propanol; phases: Liquid
Fixed: Pressure, kPa = 101
Property: Speed of sound, m/s (Liquid); method: Pulse-echo method
Temperature, K	Mole fraction of 3-amino-1-propanol	Speed of sound, m/s	uncertainty
293.15	0	1617.81	1.27
293.15	0.183	1645.79	1.28
293.15	0.332	1669.16	1.28
293.15	0.4606	1688.69	1.29
293.15	0.5698	1705.78	1.29
293.15	0.6654	1719.9	1.3
293.15	0.7482	1729.5	1.3
293.15	0.8215	1734.19	1.3
293.15	0.8877	1734.56	1.3
293.15	0.9466	1731.81	1.3
293.15	1	1727.44	1.3
298.15	0	1610.51	1.27
298.15	0.183	1637.97	1.27
298.15	0.332	1660.16	1.28
298.15	0.4606	1678.52	1.29
298.15	0.5698	1694.5	1.29
298.15	0.6654	1707.86	1.29
298.15	0.7482	1717.21	1.29
298.15	0.8215	1721.98	1.3
298.15	0.8877	1722.27	1.3
298.15	0.9466	1718.72	1.29
298.15	1	1712.25	1.29
303.15	0	1600.52	1.27
303.15	0.183	1627.53	1.27
303.15	0.332	1648.6	1.28
303.15	0.4606	1666.32	1.28
303.15	0.5698	1681.34	1.29
303.15	0.6654	1693.9	1.29
303.15	0.7482	1703.17	1.29
303.15	0.8215	1708.5	1.29
303.15	0.8877	1709.32	1.29
303.15	0.9466	1705.23	1.29
303.15	1	1696.24	1.29
308.15	0	1595.45	1.26
308.15	0.183	1621.51	1.27
308.15	0.332	1640.67	1.28
308.15	0.4606	1657.51	1.28
308.15	0.5698	1671.23	1.28
308.15	0.6654	1682.42	1.29
308.15	0.7482	1690.94	1.29
308.15	0.8215	1696.31	1.29
308.15	0.8877	1697.28	1.29
308.15	0.9466	1692.47	1.29
308.15	1	1680.79	1.29
313.15	0	1586.99	1.26
313.15	0.183	1612.44	1.27
313.15	0.332	1630.86	1.27
313.15	0.4606	1647.08	1.28
313.15	0.5698	1659.51	1.28
313.15	0.6654	1669.43	1.28
313.15	0.7482	1677.5	1.28
313.15	0.8215	1683.12	1.29
313.15	0.8877	1684.45	1.29
313.15	0.9466	1678.99	1.29
313.15	1	1664.67	1.28
318.15	0	1578.75	1.26
318.15	0.183	1603.65	1.27
318.15	0.332	1621.36	1.27
318.15	0.4606	1636.77	1.28
318.15	0.5698	1647.91	1.28
318.15	0.6654	1656.83	1.28
318.15	0.7482	1664.56	1.28
318.15	0.8215	1670.4	1.28
318.15	0.8877	1671.81	1.28
318.15	0.9466	1665.48	1.28
318.15	1	1648.51	1.28
323.15	0	1570.58	1.26
323.15	0.183	1594.93	1.26
323.15	0.332	1611.85	1.27
323.15	0.4606	1626.33	1.27
323.15	0.5698	1635.97	1.27
323.15	0.6654	1643.55	1.28
323.15	0.7482	1650.93	1.28
323.15	0.8215	1657.21	1.28
323.15	0.8877	1659.08	1.28
323.15	0.9466	1652.13	1.28
323.15	1	1632.43	1.27

System: triethanolamine + 3-amino-1-propanol; phases: Liquid
Fixed: Pressure, kPa = 101
Property: Mass density, kg/m3 (Liquid); method: VIBTUB:UFactor:12
Temperature, K	Mole fraction of 3-amino-1-propanol	Mass density, kg/m3	uncertainty
293.15	0	1123.54	1.201
293.15	0.183	1110.658	1.135
293.15	0.332	1097.902	1.07
293.15	0.4606	1084.631	1.003
293.15	0.5698	1071.221	0.935
293.15	0.6654	1057.509	0.864
293.15	0.7482	1043.841	0.794
293.15	0.8215	1030.235	0.724
293.15	0.8877	1016.673	0.655
293.15	0.9466	1003.711	0.589
293.15	1	991.349	0.607
298.15	0	1120.82	1.187
298.15	0.183	1107.682	1.12
298.15	0.332	1094.767	1.054
298.15	0.4606	1081.377	0.986
298.15	0.5698	1067.828	0.917
298.15	0.6654	1053.965	0.846
298.15	0.7482	1040.156	0.775
298.15	0.8215	1026.428	0.705
298.15	0.8877	1012.778	0.635
298.15	0.9466	999.774	0.571
298.15	1	987.421	0.624
303.15	0	1118.061	1.173
303.15	0.183	1104.671	1.104
303.15	0.332	1091.589	1.038
303.15	0.4606	1078.054	0.969
303.15	0.5698	1064.356	0.9
303.15	0.6654	1050.348	0.828
303.15	0.7482	1036.404	0.756
303.15	0.8215	1022.568	0.685
303.15	0.8877	1008.833	0.615
303.15	0.9466	995.773	0.588
303.15	1	983.399	0.641
308.15	0	1115.255	1.159
308.15	0.183	1101.604	1.089
308.15	0.332	1088.348	1.021
308.15	0.4606	1074.659	0.952
308.15	0.5698	1060.824	0.882
308.15	0.6654	1046.66	0.809
308.15	0.7482	1032.586	0.737
308.15	0.8215	1018.641	0.665
308.15	0.8877	1004.851	0.595
308.15	0.9466	991.742	0.605
308.15	1	979.316	0.659
313.15	0	1112.402	1.144
313.15	0.183	1098.491	1.073
313.15	0.332	1085.071	1.004
313.15	0.4606	1071.226	0.935
313.15	0.5698	1057.25	0.864
313.15	0.6654	1042.938	0.79
313.15	0.7482	1028.734	0.717
313.15	0.8215	1014.688	0.645
313.15	0.8877	1000.814	0.574
313.15	0.9466	987.651	0.623
313.15	1	975.191	0.676
318.15	0	1109.604	1.13
318.15	0.183	1095.428	1.057
318.15	0.332	1081.828	0.988
318.15	0.4606	1067.823	0.917
318.15	0.5698	1053.685	0.845
318.15	0.6654	1039.221	0.771
318.15	0.7482	1024.888	0.698
318.15	0.8215	1010.742	0.625
318.15	0.8877	996.791	0.584
318.15	0.9466	983.567	0.64
318.15	1	971.043	0.694
323.15	0	1106.778	1.115
323.15	0.183	1092.338	1.041
323.15	0.332	1078.561	0.971
323.15	0.4606	1064.417	0.9
323.15	0.5698	1050.105	0.827
323.15	0.6654	1035.492	0.753
323.15	0.7482	1021.021	0.678
323.15	0.8215	1006.77	0.605
323.15	0.8877	992.746	0.601
323.15	0.9466	979.466	0.658
323.15	1	966.881	0.712
