Measured thermophysical data. Ternary Liquid-Liquid Equilibria Measurement for Hexane and Benzene with the Ionic Liquid 1-Butyl-3-methylimidazolium Methylsulfate at T = (298.2, 313.2, and 328.2) K
Source: J. Chem. Eng. Data, 2010, 10.1021/je900321j
Compound 1: hexane, C6H14, InChI=1S/C6H14/c1-3-5-6-4-2/h3-6H2,1-2H3, purity 99%
Compound 2: benzene, C6H6, InChI=1S/C6H6/c1-2-4-6-5-3-1/h1-6H, purity 99.5%
Compound 3: 1-butyl-3-methylimidazolium methyl sulfate, C9H18N2O4S, InChI=1S/C8H15N2.CH4O4S/c1-3-4-5-10-7-6-9(2)8-10;1-5-6(2,3)4/h6-8H,3-5H2,1-2H3;1H3,(H,2,3,4)/q+1;/p-1, purity 95%

System: benzene + hexane + 1-butyl-3-methylimidazolium methyl sulfate; phases: Liquid mixture 1, Liquid mixture 2
Fixed: Pressure, kPa = 101
Property: Mole fraction of hexane (Liquid mixture 1); method: Chromatography
Property: Mole fraction of hexane (Liquid mixture 2); method: Chromatography
Property: Mole fraction of benzene (Liquid mixture 2); method: Chromatography
Temperature, K	Mole fraction of benzene	Mole fraction of hexane	uncertainty	Mole fraction of hexane	uncertainty	Mole fraction of benzene	uncertainty
298.2	0.0549	0.9451	0.0007	0.0107	0.008	0.0402	
298.2	0.1092	0.8908	0.001	0.011	0.008	0.0782	
298.2	0.163	0.837	0.0013	0.0107	0.008	0.1196	
298.2	0.2162	0.7838	0.0017	0.0103	0.008	0.1536	
298.2	0.2689	0.7311	0.0021	0.0101	0.008	0.193	
298.2	0.321	0.679	0.0025	0.0099	0.008	0.2234	
298.2	0.3727	0.6273	0.0029	0.0098	0.008	0.2602	
298.2	0.4238	0.5762	0.0033	0.0096	0.008	0.2951	
313.2	0.0582	0.9418	0.0007	0.0159	0.008	0.049	
313.2	0.1221	0.8779	0.001	0.0154	0.008	0.0993	
313.2	0.164	0.836	0.0013	0.015	0.008	0.1273	
313.2	0.2246	0.7754	0.0018	0.0147	0.008	0.1631	
313.2	0.2741	0.7259	0.0022	0.0143	0.008	0.1877	
313.2	0.3231	0.6769	0.0025	0.0139	0.008	0.2273	
313.2	0.3737	0.6263	0.0029	0.0136	0.008	0.2494	
313.2	0.4329	0.5671	0.0034	0.0132	0.008	0.2853	
328.2	0.0706	0.9294	0.0008	0.0191	0.008	0.0635	
328.2	0.1189	0.8811	0.001	0.0187	0.008	0.1026	
328.2	0.1704	0.8296	0.0014	0.0181	0.008	0.1374	
328.2	0.2289	0.7711	0.0018	0.0176	0.008	0.1728	
328.2	0.2825	0.7175	0.0022	0.0173	0.008	0.2069	
328.2	0.3314	0.6686	0.0026	0.0167	0.008	0.2258	
328.2	0.388	0.612	0.003	0.0165	0.008	0.2554	
328.2	0.4502	0.5498	0.0035	0.0162	0.008	0.2786	
