Measured thermophysical data. Experimental Vapor-Liquid Equilibria for the Ternary System Ethanol + Water + 1-Ethyl-3-methylpyridinium Ethylsulfate and the Corresponding Binary Systems at 101.3 kPa: Study of the Effect of the Cation
Source: J. Chem. Eng. Data, 2010, 10.1021/je900998f
Compound 1: ethanol, C2H6O, InChI=1S/C2H6O/c1-2-3/h3H,2H2,1H3
Compound 2: water, H2O, InChI=1S/H2O/h1H2
Compound 3: 1-ethyl-3-methylpyridinium ethylsulfate, C10H17NO4S, InChI=1S/C8H12N.C2H6O4S/c1-3-9-6-4-5-8(2)7-9;1-2-6-7(3,4)5/h4-7H,3H2,1-2H3;2H2,1H3,(H,3,4,5)/q+1;/p-1

System: ethanol; phases: Liquid
Property: Mass density, kg/m3 (Liquid); method: Vibrating tube method
Temperature, K	Pressure, kPa	Mass density, kg/m3	uncertainty
298.15	101.325	785.46	0.12

System: ethanol; phases: Liquid, Air at 1 atmosphere
Property: Viscosity, Pa*s (Liquid); method: Capillary tube (Ostwald; Ubbelohde) method
Temperature, K	Viscosity, Pa*s	uncertainty
298.15	0.001082	7.3e-05

System: ethanol; phases: Liquid, Gas
Property: Vapor or sublimation pressure, kPa (Liquid); method: Ebulliometric method (Recirculating still)
Temperature, K	Vapor or sublimation pressure, kPa	uncertainty
351.44	101.325	0.105

System: 1-ethyl-3-methylpyridinium ethylsulfate; phases: Liquid
Property: Mass density, kg/m3 (Liquid); method: Vibrating tube method
Temperature, K	Pressure, kPa	Mass density, kg/m3	uncertainty
298.15	101.325	1222.26	0.42

System: 1-ethyl-3-methylpyridinium ethylsulfate; phases: Liquid, Air at 1 atmosphere
Property: Viscosity, Pa*s (Liquid); method: CAPTUB:UFactor:2
Temperature, K	Viscosity, Pa*s	uncertainty
298.15	0.1614	0.0084

System: ethanol + 1-ethyl-3-methylpyridinium ethylsulfate; phases: Liquid, Gas
Fixed: Pressure, kPa = 101.325
Property: Boiling temperature at pressure P, K (Liquid); method: Ebulliometric method (Recirculating still)
Mole fraction of ethanol	Boiling temperature at pressure P, K	uncertainty
0.524	385.52	0.279
0.576	378.64	0.284
0.605	374.55	0.243
0.64	371.35	0.196
0.67	368.87	0.174
0.706	366.36	0.173
0.731	364.3	0.166
0.765	362.17	0.157
0.789	360.49	0.155
0.831	357.89	0.144
0.864	356.18	0.126
0.893	355.06	0.113
0.926	353.88	0.109
0.955	353	0.106
0.971	352.45	0.111
0.983	352.01	0.11
1	351.44	0.085

System: water + 1-ethyl-3-methylpyridinium ethylsulfate; phases: Liquid, Gas
Fixed: Pressure, kPa = 101.325
Property: Boiling temperature at pressure P, K (Liquid); method: Ebulliometric method (Recirculating still)
Mole fraction of water	Boiling temperature at pressure P, K	uncertainty
0.719	393.47	0.21
0.769	388.73	0.2
0.81	385.4	0.18
0.843	382.77	0.17
0.876	380.39	0.17
0.9	378.61	0.17
0.916	377.44	0.16
0.929	376.64	0.14
0.943	376.01	0.13
0.953	375.43	0.14
0.959	375.12	0.13
0.969	374.68	0.12
0.977	374.37	0.12
0.984	374.1	0.12
0.99	373.8	0.13
0.996	373.48	0.15
1	373.15	0.09

System: ethanol + water + 1-ethyl-3-methylpyridinium ethylsulfate; phases: Liquid, Gas
Fixed: Pressure, kPa = 101.325
Property: Boiling temperature at pressure P, K (Liquid); method: Ebulliometric method (Recirculating still)
Mole fraction of ethanol	Mole fraction of water	Boiling temperature at pressure P, K	uncertainty
0.065	0.867	366.18	0.34
0.067	0.845	367.32	0.3
0.068	0.879	365.1	0.29
0.068	0.893	363.98	0.3
0.07	0.823	368.36	0.32
0.073	0.897	363.15	0.27
0.09	0.889	361.62	0.25
0.097	0.865	361.55	0.32
0.112	0.659	371.5	0.24
0.128	0.852	359.07	0.23
0.135	0.816	359.91	0.3
0.147	0.724	365.51	0.32
0.15	0.75	362.38	0.35
0.152	0.736	363.98	0.35
0.168	0.799	358.41	0.23
0.196	0.741	358.43	0.28
0.204	0.593	366.76	0.22
0.23	0.728	357.18	0.17
0.243	0.64	360.58	0.23
0.301	0.613	357.44	0.16
0.302	0.512	361.99	0.17
0.33	0.614	356	0.15
0.343	0.553	357.88	0.2
0.413	0.433	359.21	0.16
0.495	0.37	357.24	0.16
0.503	0.416	355.07	0.16

System: ethanol + water + 1-ethyl-3-methylpyridinium ethylsulfate; phases: Gas, Liquid
Fixed: Pressure, kPa = 101.325
Property: Mole fraction of ethanol (Gas); method: Index of refraction calibration data
Mole fraction of ethanol	Mole fraction of water	Mole fraction of ethanol	uncertainty
0.065	0.867	0.373	0.006
0.067	0.845	0.374	0.004
0.068	0.879	0.381	0.004
0.068	0.893	0.397	0.005
0.07	0.823	0.383	0.005
0.073	0.897	0.4	0.003
0.09	0.889	0.429	0.004
0.097	0.865	0.455	0.006
0.112	0.659	0.503	0.003
0.128	0.852	0.487	0.003
0.135	0.816	0.515	0.005
0.147	0.724	0.51	0.004
0.15	0.75	0.521	0.004
0.152	0.736	0.519	0.004
0.168	0.799	0.53	0.003
0.196	0.741	0.577	0.004
0.204	0.593	0.631	0.003
0.23	0.728	0.572	0.003
0.243	0.64	0.612	0.003
0.301	0.613	0.649	0.004
0.302	0.512	0.71	0.003
0.33	0.614	0.61	0.004
0.343	0.553	0.672	0.003
0.413	0.433	0.754	0.003
0.495	0.37	0.791	0.003
0.503	0.416	0.742	0.003
