Measured thermophysical data. Saturated Pressure Measurements of 2,3,3,3-Tetrafluoroprop-1-ene (HFO-1234yf)
Source: J. Chem. Eng. Data, 2010, 10.1021/je900306v
Compound 1: 2,3,3,3-tetrafluoro-1-propene, C3H2F4, InChI=1S/C3H2F4/c1-2(4)3(5,6)7/h1H2
Compound 2: 1,1,1,2-tetrafluoroethane, C2H2F4, InChI=1S/C2H2F4/c3-1-2(4,5)6/h1H2

System: 2,3,3,3-tetrafluoro-1-propene; phases: Liquid, Gas
Property: Vapor or sublimation pressure, kPa (Liquid); method: Closed cell (Static) method
Temperature, K	Vapor or sublimation pressure, kPa	uncertainty
224.12	38.9	2
228.21	48.3	2
233.12	62	2
234.21	65.5	2
238.08	78.7	2
243.03	98.8	2
247.95	121.7	2
252.91	149.2	2
255.49	165.3	2
257.7	180.4	2
258.61	186.9	2
263.14	221.7	2.1
268.1	265.1	2.1
272.98	313.9	2.1
277.96	370.5	2.1
283.09	437.1	2.2
288.08	509.4	2.2
292.87	587.3	2.3
297.97	679.4	2.4
303.12	783.2	2.4
308.11	894.6	2.6
313.09	1018	2.7
315.59	1083.5	2.7
318.08	1153	2.8
320.61	1224	2.9
323.11	1301.1	3
325.58	1380	3.1
333.06	1638.3	3.4
338.05	1831	3.7
343.02	2039	3.9
348.01	2265.6	4.2
352.98	2511.5	4.6
357.97	2778.2	4.9
362.94	3067.1	5.3
365.93	3218.4	5.4

System: 1,1,1,2-tetrafluoroethane; phases: Liquid, Gas
Property: Vapor or sublimation pressure, kPa (Liquid); method: Closed cell (Static) method
Temperature, K	Vapor or sublimation pressure, kPa	uncertainty
243.1	84.234	2.181
248.08	106.118	2.282
263.01	199.391	2.861
283.03	412.95	4.661
303.12	769.497	8.083
328.05	1487.965	15.234
352.93	2620.848	26.608
