Measured thermophysical data. Measurement and Correlation for Solubility of Thiourea in Triglycol + Water at Temperatures from (292.05 to 357.75) K
Source: J. Chem. Eng. Data, 2009, 10.1021/je900040n
Compound 1: sodium chloride, ClNa, InChI=1S/ClH.Na/h1H;/q;+1/p-1
Compound 2: water, H2O, InChI=1S/H2O/h1H2
Compound 3: thiourea, CH4N2S, InChI=1S/CH4N2S/c2-1(3)4/h(H4,2,3,4), purity 99.5%
Compound 4: triethylene glycol, C6H14O4, InChI=1S/C6H14O4/c7-1-3-9-5-6-10-4-2-8/h7-8H,1-6H2, purity 99.5%

System: sodium chloride + water; phases: Liquid, Crystal
Fixed: Pressure, kPa = 101
Property: Mole fraction of sodium chloride (Liquid); method: laser monitoring
Temperature, K	Mole fraction of sodium chloride	uncertainty
293.15	0.1001	0.0003
313.15	0.1016	0.0003
333.15	0.1031	0.0003
353.15	0.1061	0.0003

System: thiourea + triethylene glycol; phases: Liquid, Crystal
Fixed: Pressure, kPa = 101
Property: Mole fraction of thiourea (Liquid); method: OTHER::sMethod:laser monitoring
Temperature, K	Mole fraction of thiourea	uncertainty
318.35	0.4561	0.0014
321.65	0.4653	0.0014
324.55	0.4691	0.0014
327.15	0.4749	0.0014
331.05	0.4778	0.0014
333.55	0.4839	0.0015
335.95	0.4845	0.0015
339.35	0.4922	0.0015
342.65	0.4957	0.0015
345.55	0.5	0.0015
348.95	0.5058	0.0015
352.15	0.5109	0.0015
354.85	0.5155	0.0015
357.75	0.5195	0.0016

System: thiourea + triethylene glycol + water; phases: Liquid, Crystal
Fixed: Pressure, kPa = 101
Property: Mole fraction of thiourea (Liquid); method: laser monitoring
Solvent: Mass fraction of triethylene glycol	Temperature, K	Mole fraction of thiourea	uncertainty
0.63	303.45	0.1449	0.0004
0.63	307.65	0.1515	0.0005
0.63	312.15	0.1605	0.0005
0.63	315.85	0.1675	0.0005
0.63	318.75	0.178	0.0005
0.63	322.75	0.1883	0.0006
0.63	326.05	0.2002	0.0006
0.63	329.55	0.2086	0.0006
0.63	334.25	0.2229	0.0007
0.63	338.45	0.2322	0.0007
0.72	293.15	0.1686	0.0005
0.72	296.15	0.1792	0.0005
0.72	300.25	0.1885	0.0006
0.72	304.65	0.1989	0.0006
0.72	309.25	0.2057	0.0006
0.72	313.65	0.217	0.0007
0.72	316.45	0.2244	0.0007
0.72	318.85	0.2316	0.0007
0.72	321.15	0.2387	0.0007
0.72	323.75	0.2435	0.0007
0.72	327.25	0.2547	0.0008
0.72	330.15	0.2621	0.0008
0.72	332.85	0.2682	0.0008
0.72	335.95	0.2744	0.0008
0.82	292.05	0.2222	0.0007
0.82	292.25	0.2226	0.0007
0.82	292.85	0.2232	0.0007
0.82	297.25	0.2344	0.0007
0.82	301.35	0.2399	0.0007
0.82	301.55	0.2459	0.0007
0.82	305.75	0.2527	0.0008
0.82	305.95	0.2552	0.0008
0.82	310.55	0.2651	0.0008
0.82	311.65	0.2642	0.0008
0.82	314.85	0.2726	0.0008
0.82	319.15	0.2774	0.0008
0.82	320.35	0.2824	0.0008
0.82	321.65	0.2851	0.0009
0.82	324.35	0.2924	0.0009
0.82	327.55	0.2987	0.0009
0.82	331.15	0.3044	0.0009
0.82	332.85	0.3085	0.0009
0.82	336.65	0.3173	0.001
0.82	339.95	0.3254	0.001
0.82	342.55	0.333	0.001
0.82	345.65	0.3414	0.001
0.82	348.65	0.3525	0.0011
0.91	309.75	0.3248	0.001
0.91	311.25	0.3313	0.001
0.91	313.15	0.3345	0.001
0.91	315.95	0.3372	0.001
0.91	319.35	0.3418	0.001
0.91	321.55	0.3472	0.001
0.91	324.85	0.3497	0.0011
0.91	327.85	0.3547	0.0011
0.91	332.05	0.3637	0.0011
0.91	336.05	0.3714	0.0011
0.91	339.05	0.3778	0.0011
0.91	342.25	0.3843	0.0012
0.91	345.65	0.391	0.0012
0.91	348.15	0.3947	0.0012
0.91	351.75	0.4045	0.0012
0.91	354.35	0.4098	0.0012
0.91	357.75	0.4166	0.0013
1	318.35	0.4561	0.0014
1	321.65	0.4653	0.0014
1	324.55	0.4691	0.0014
1	327.15	0.4749	0.0014
1	331.05	0.4778	0.0014
1	333.55	0.4839	0.0015
1	335.95	0.4845	0.0015
1	339.35	0.4922	0.0015
1	342.65	0.4957	0.0015
1	345.55	0.5	0.0015
1	348.95	0.5058	0.0015
1	352.15	0.5109	0.0015
1	354.85	0.5155	0.0015
1	357.75	0.5195	0.0016
