Measured thermophysical data. Experimental Measurement and Modeling of Vapor-Liquid Equilibrium for Ternary Systems Containing Ionic Liquids: A Case Study for the System Water + Ethanol + 1-Hexyl-3-methylimidazolium Chloride
Source: J. Chem. Eng. Data, 2009, 10.1021/je900002p
Compound 1: water, H2O, InChI=1S/H2O/h1H2
Compound 2: ethanol, C2H6O, InChI=1S/C2H6O/c1-2-3/h3H,2H2,1H3
Compound 3: 1-hexyl-3-methylimidazolium chloride, C10H19ClN2, InChI=1S/C10H19N2.ClH/c1-3-4-5-6-7-12-9-8-11(2)10-12;/h8-10H,3-7H2,1-2H3;1H/q+1;/p-1

System: water + 1-hexyl-3-methylimidazolium chloride; phases: Liquid, Gas
Fixed: Pressure, kPa = 100
Property: Boiling temperature at pressure P, K (Liquid); method: Ebulliometric method (Recirculating still)
Mass fraction of 1-hexyl-3-methylimidazolium chloride	Boiling temperature at pressure P, K	uncertainty
0.1	373.19	0.18
0.2	373.62	0.19
0.2998	374.2	0.2
0.3997	375.05	0.21
0.5003	376.62	0.25
0.5999	379.47	0.32
0.6999	384.41	0.51
0.8007	394.82	0.66

System: ethanol + water; phases: Liquid, Gas
Fixed: Pressure, kPa = 100
Property: Boiling temperature at pressure P, K (Liquid); method: Ebulliometric method (Recirculating still)
Mole fraction of ethanol	Boiling temperature at pressure P, K	uncertainty
0.816	351.07	0.18
0.8552	350.99	0.18
0.8983	350.99	0.18
0.9175	350.96	0.18
0.9368	351.04	0.19
0.9563	351.07	0.18
0.978	351.08	0.18
0.9894	351.11	0.18
0.99815	351.07	0.18

System: ethanol + water; phases: Liquid, Gas
Fixed: Pressure, kPa = 100
Property: Mole fraction of ethanol (Liquid); method: Titration method
Mole fraction of ethanol	Mole fraction of ethanol	uncertainty
0.816	0.7985	0.029
0.8552	0.8491	0.0291
0.8983	0.9006	0.0288
0.9175	0.9204	0.0275
0.9368	0.9401	0.0276
0.9563	0.9598	0.0273
0.978	0.9801	0.0199
0.9894	0.99051	0.00949
0.99815	0.99837	0.00163

System: ethanol + water + 1-hexyl-3-methylimidazolium chloride; phases: Liquid, Gas
Fixed: Pressure, kPa = 100
Property: Mass fraction of 1-hexyl-3-methylimidazolium chloride (Liquid); method: Titration method
Temperature, K	Mole fraction of ethanol	Mass fraction of 1-hexyl-3-methylimidazolium chloride	uncertainty
351.65	0.8004	0.1	0.0156
351.77	0.9802	0.1002	0.0154
352.39	0.6003	0.1003	0.0129
352.9	0.8003	0.2002	0.0138
352.9	0.9804	0.2002	0.0121
353.23	0.6	0.2	0.0162
353.8	0.3997	0.1002	0.0225
354.23	0.8	0.3003	0.0084
354.58	0.3995	0.2001	0.0148
354.66	0.6001	0.3003	0.0112
354.8	0.9805	0.3003	0.0097
355.81	0.3991	0.3002	0.014
356.28	0.1992	0.1002	0.015
356.96	0.6003	0.4005	0.0081
357.52	0.199	0.2001	0.0145
357.83	0.3992	0.4004	0.0103
357.93	0.9803	0.4004	0.0075
358.05	0.7995	0.4	0.0077
358.82	0.1984	0.3005	0.0122
359.88	0.0994	0.1002	0.0139
360.69	0.1984	0.4005	0.0097
360.72	0.6003	0.5002	0.0075
361.05	0.3989	0.5002	0.008
361.27	0.0992	0.2	0.0142
361.55	0.7997	0.4999	0.0076
362.58	0.0991	0.3005	0.0129
363.04	0.9802	0.5006	0.0081
363.51	0.1986	0.5008	0.009
364.16	0.0989	0.4	0.0098
366.15	0.4007	0.6002	0.0071
366.76	0.5999	0.6005	0.007
367.1	0.099	0.5005	0.0083
367.89	0.1992	0.5987	0.0073
368.35	0.8005	0.6001	0.0071
370.39	0.9801	0.6006	0.0079
371.1	0.099	0.6007	0.0074
374.75	0.4013	0.6967	0.0067
376.17	0.196	0.701	0.0067
376.79	0.5992	0.7012	0.0068
377.82	0.0995	0.6993	0.0068
379.64	0.8007	0.7008	0.0066
381.77	0.9799	0.7006	0.0074
388.6	0.1963	0.8002	0.0064
390.15	0.098	0.7987	0.0065
390.37	0.3983	0.7959	0.0064
393.73	0.5985	0.7987	0.0065
396.94	0.7999	0.8005	0.0065
400.4	0.9798	0.8008	0.0067

System: ethanol + water + 1-hexyl-3-methylimidazolium chloride; phases: Gas, Liquid
Fixed: Pressure, kPa = 100
Property: Mole fraction of ethanol (Gas); method: Titration method
Temperature, K	Mole fraction of ethanol	Mole fraction of ethanol	uncertainty
351.65	0.8004	0.8256	0.0204
351.77	0.9802	0.9804	0.0196
352.39	0.6003	0.7129	0.0169
352.9	0.8003	0.8416	0.0205
352.9	0.9804	0.9827	0.0173
353.23	0.6	0.721	0.0167
353.8	0.3997	0.6185	0.0143
354.23	0.8	0.8511	0.0204
354.58	0.3995	0.6215	0.0143
354.66	0.6001	0.7288	0.0169
354.8	0.9805	0.9846	0.0154
355.81	0.3991	0.6277	0.0144
356.28	0.1992	0.5333	0.0125
356.96	0.6003	0.7395	0.017
357.52	0.199	0.5251	0.0124
357.83	0.3992	0.6318	0.0145
357.93	0.9803	0.986	0.014
358.05	0.7995	0.8601	0.0202
358.82	0.1984	0.5107	0.0122
359.88	0.0994	0.4261	0.0099
360.69	0.1984	0.5006	0.0121
360.72	0.6003	0.7508	0.0172
361.05	0.3989	0.638	0.0148
361.27	0.0992	0.4136	0.0096
361.55	0.7997	0.8734	0.0202
362.58	0.0991	0.3916	0.0092
363.04	0.9802	0.9876	0.0124
363.51	0.1986	0.4861	0.0122
364.16	0.0989	0.374	0.0086
366.15	0.4007	0.6448	0.0152
366.76	0.5999	0.7655	0.0174
367.1	0.099	0.357	0.0082
367.89	0.1992	0.4786	0.0117
368.35	0.8005	0.8849	0.0201
370.39	0.9801	0.9895	0.0105
371.1	0.099	0.3389	0.0078
374.75	0.4013	0.6575	0.0152
376.17	0.196	0.4645	0.0115
376.79	0.5992	0.7772	0.0176
377.82	0.0995	0.3213	0.0075
379.64	0.8007	0.8999	0.0198
381.77	0.9799	0.9917	0.0083
388.6	0.1963	0.4489	0.0114
390.15	0.098	0.2946	0.007
390.37	0.3983	0.6749	0.017
393.73	0.5985	0.8054	0.0178
396.94	0.7999	0.9211	0.0205
400.4	0.9798	0.9935	0.0065
