Measured thermophysical data. Mutual Solubility of Pyridinium-Based Tetrafluoroborates and Toluene
Source: J. Chem. Eng. Data, 2010, 10.1021/je901065e
Compound 1: 1-butyl-4-methylpyridinium tetrafluoroborate, C10H16BF4N, InChI=1S/C10H16N.BF4/c1-3-4-7-11-8-5-10(2)6-9-11;2-1(3,4)5/h5-6,8-9H,3-4,7H2,1-2H3;/q+1;-1
Compound 2: 1-butylpyridinium tetrafluoroborate, C9H14BF4N, InChI=1S/C9H14N.BF4/c1-2-3-7-10-8-5-4-6-9-10;2-1(3,4)5/h4-6,8-9H,2-3,7H2,1H3;/q+1;-1
Compound 3: 1-butyl-2-methylpyridinium tetrafluoroborate, C10H16BF4N, InChI=1S/C10H16N.BF4/c1-3-4-8-11-9-6-5-7-10(11)2;2-1(3,4)5/h5-7,9H,3-4,8H2,1-2H3;/q+1;-1
Compound 4: 1-hexylpyridinium tetrafluoroborate, C11H18BF4N, InChI=1S/C11H18N.BF4/c1-2-3-4-6-9-12-10-7-5-8-11-12;2-1(3,4)5/h5,7-8,10-11H,2-4,6,9H2,1H3;/q+1;-1
Compound 5: toluene, C7H8, InChI=1S/C7H8/c1-7-5-3-2-4-6-7/h2-6H,1H3
Compound 6: benzene, C6H6, InChI=1S/C6H6/c1-2-4-6-5-3-1/h1-6H

System: 1-butyl-4-methylpyridinium tetrafluoroborate; phases: Liquid
Property: Mass density, kg/m3 (Liquid); method: VIBTUB:UFactor:6
Temperature, K	Pressure, kPa	Mass density, kg/m3	uncertainty
298.15	101.325	1183.1	0.9

System: 1-butylpyridinium tetrafluoroborate; phases: Liquid
Property: Mass density, kg/m3 (Liquid); method: VIBTUB:UFactor:6
Temperature, K	Pressure, kPa	Mass density, kg/m3	uncertainty
298.15	101.325	1214	1

System: 1-butyl-2-methylpyridinium tetrafluoroborate; phases: Liquid
Property: Mass density, kg/m3 (Liquid); method: VIBTUB:UFactor:6
Temperature, K	Pressure, kPa	Mass density, kg/m3	uncertainty
298.15	101.325	1202.5	1

System: 1-hexylpyridinium tetrafluoroborate; phases: Liquid
Property: Mass density, kg/m3 (Liquid); method: VIBTUB:UFactor:6
Temperature, K	Pressure, kPa	Mass density, kg/m3	uncertainty
298.15	101.325	1154.8	0.8

System: toluene; phases: Liquid
Property: Mass density, kg/m3 (Liquid); method: VIBTUB:UFactor:6
Temperature, K	Pressure, kPa	Mass density, kg/m3	uncertainty
298.15	101.325	862.27	0.53

System: benzene; phases: Liquid
Property: Mass density, kg/m3 (Liquid); method: VIBTUB:UFactor:6
Temperature, K	Pressure, kPa	Mass density, kg/m3	uncertainty
298.15	101.325	873.4	0.5

System: toluene + 1-butylpyridinium tetrafluoroborate; phases: Liquid mixture 1, Liquid mixture 2
Fixed: Pressure, kPa = 101.3
Property: Mole fraction of 1-butylpyridinium tetrafluoroborate (Liquid mixture 1); method: Gravimetrically using an analytical balance and a rotary evaporator
Temperature, K	Mole fraction of 1-butylpyridinium tetrafluoroborate	uncertainty
298.15	1e-05	1e-06
318.15	1.3e-05	1e-06
338.15	1.5e-05	1e-06

System: toluene + 1-butylpyridinium tetrafluoroborate; phases: Liquid mixture 2, Liquid mixture 1
Fixed: Pressure, kPa = 101.3
Property: Mole fraction of 1-butylpyridinium tetrafluoroborate (Liquid mixture 2); method: Chromatography
Temperature, K	Mole fraction of 1-butylpyridinium tetrafluoroborate	uncertainty
298.15	0.68	0.03
318.15	0.682	0.03
338.15	0.676	0.03

System: toluene + 1-butyl-2-methylpyridinium tetrafluoroborate; phases: Liquid mixture 1, Liquid mixture 2
Fixed: Pressure, kPa = 101.3
Property: Mole fraction of 1-butyl-2-methylpyridinium tetrafluoroborate (Liquid mixture 1); method: OTHER
Temperature, K	Mole fraction of 1-butyl-2-methylpyridinium tetrafluoroborate	uncertainty
298.15	1.6e-05	1e-06
318.15	2.8e-05	1e-06
338.15	3.5e-05	1e-06

System: toluene + 1-butyl-2-methylpyridinium tetrafluoroborate; phases: Liquid mixture 2, Liquid mixture 1
Fixed: Pressure, kPa = 101.3
Property: Mole fraction of 1-butyl-2-methylpyridinium tetrafluoroborate (Liquid mixture 2); method: Chromatography
Temperature, K	Mole fraction of 1-butyl-2-methylpyridinium tetrafluoroborate	uncertainty
298.15	0.628	0.03
318.15	0.643	0.03
338.15	0.661	0.03

System: toluene + 1-butyl-4-methylpyridinium tetrafluoroborate; phases: Liquid mixture 1, Liquid mixture 2
Fixed: Pressure, kPa = 101.3
Property: Mole fraction of 1-butyl-4-methylpyridinium tetrafluoroborate (Liquid mixture 1); method: OTHER
Temperature, K	Mole fraction of 1-butyl-4-methylpyridinium tetrafluoroborate	uncertainty
298.15	4.1e-05	1e-06
318.15	4.7e-05	1e-06
338.15	5.2e-05	1e-06

System: toluene + 1-butyl-4-methylpyridinium tetrafluoroborate; phases: Liquid mixture 2, Liquid mixture 1
Fixed: Pressure, kPa = 101.3
Property: Mole fraction of 1-butyl-4-methylpyridinium tetrafluoroborate (Liquid mixture 2); method: Chromatography
Temperature, K	Mole fraction of 1-butyl-4-methylpyridinium tetrafluoroborate	uncertainty
298.15	0.525	0.03
318.15	0.543	0.03
338.15	0.554	0.03

System: toluene + 1-hexylpyridinium tetrafluoroborate; phases: Liquid mixture 1, Liquid mixture 2
Fixed: Pressure, kPa = 101.3
Property: Mole fraction of 1-hexylpyridinium tetrafluoroborate (Liquid mixture 1); method: OTHER
Temperature, K	Mole fraction of 1-hexylpyridinium tetrafluoroborate	uncertainty
298.15	2.8e-05	1e-06
318.15	2.8e-05	1e-06
338.15	1.3e-05	1e-06

System: toluene + 1-hexylpyridinium tetrafluoroborate; phases: Liquid mixture 2, Liquid mixture 1
Fixed: Pressure, kPa = 101.3
Property: Mole fraction of 1-hexylpyridinium tetrafluoroborate (Liquid mixture 2); method: Chromatography
Temperature, K	Mole fraction of 1-hexylpyridinium tetrafluoroborate	uncertainty
298.15	0.421	0.03
318.15	0.441	0.03
338.15	0.453	0.03
