Measured thermophysical data. Solubility of Triphenylmethyl Chloride and Triphenyltin Chloride in Supercritical Carbon Dioxide
Source: J. Chem. Eng. Data, 2009, 10.1021/je9000944
Compound 1: triphenyltin chloride, C18H15ClSn, InChI=1S/3C6H5.ClH.Sn/c3*1-2-4-6-5-3-1;;/h3*1-5H;1H;/q;;;;+1/p-1
Compound 2: methane, chlorotriphenyl-, C19H15Cl, InChI=1S/C19H15Cl/c20-19(16-10-4-1-5-11-16,17-12-6-2-7-13-17)18-14-8-3-9-15-18/h1-15H
Compound 3: carbon dioxide, CO2, InChI=1S/CO2/c2-1-3
Compound 4: benzoic acid, C7H6O2, InChI=1S/C7H6O2/c8-7(9)6-4-2-1-3-5-6/h1-5H,(H,8,9)

System: carbon dioxide + triphenyltin chloride; phases: Fluid (supercritical or subcritical phases), Crystal
Property: Mole fraction of triphenyltin chloride (Fluid (supercritical or subcritical phases)); method: Phase equilibration
Temperature, K	Pressure, kPa	Mole fraction of triphenyltin chloride	uncertainty
308.15	15000	0.000412	5.9e-05
308.15	20000	0.00049	7e-05
308.15	25000	0.00053	7.5e-05
308.15	30000	0.000583	8.3e-05
318.15	15000	0.000362	5.2e-05
318.15	20000	0.000531	7.6e-05
318.15	25000	0.000596	8.5e-05
318.15	30000	0.000765	0.000109
328.15	15000	0.000271	3.9e-05
328.15	20000	0.000564	8e-05
328.15	25000	0.000706	0.000101
328.15	30000	0.001096	0.000156

System: methane, chlorotriphenyl- + carbon dioxide; phases: Fluid (supercritical or subcritical phases), Crystal
Property: Mole fraction of carbon dioxide (Fluid (supercritical or subcritical phases)); method: Phase equilibration
Temperature, K	Pressure, kPa	Mole fraction of carbon dioxide	uncertainty
308.15	15000	0.000382	7.2e-05
308.15	20000	0.000625	0.000118
308.15	25000	0.000668	0.000126
308.15	30000	0.000723	0.000136
308.15	35000	0.000757	0.000143
308.15	40000	0.000907	0.000171
323.15	15000	0.000364	6.9e-05
323.15	20000	0.000835	0.000157
323.15	25000	0.00104	0.000196
323.15	30000	0.00127	0.000239
323.15	35000	0.00139	0.000262
323.15	40000	0.00165	0.000311
338.15	15000	0.000293	5.7e-05
338.15	20000	0.00104	0.000196
338.15	25000	0.00138	0.00026
338.15	30000	0.00186	0.00035
338.15	35000	0.00219	0.000412
338.15	40000	0.0027	0.000508

System: benzoic acid + carbon dioxide; phases: Fluid (supercritical or subcritical phases), Crystal
Property: Mole fraction of benzoic acid (Fluid (supercritical or subcritical phases)); method: Phase equilibration
Temperature, K	Pressure, kPa	Mole fraction of benzoic acid	uncertainty
308.15	16000	0.00217	0.00022
308.15	20000	0.00266	0.00027
308.15	24000	0.00287	0.00029
308.15	28000	0.00302	0.0003
318.15	16000	0.0024	0.00024
318.15	20000	0.00323	0.00032
318.15	24000	0.0042	0.00042
318.15	28000	0.00439	0.00044
