Measured thermophysical data. Experimental Measurement and Calculation of Mole Heat Capacity and Thermodynamic Functions of Wulfenite PbMoO4
Source: J. Chem. Eng. Data, 2010, 10.1021/je901040d
Compound 1: lead(II) molybdenum(VI) oxide, MoO4Pb, InChI=1S/Mo.4O.Pb/q+6;4*-2;+2

System: lead(II) molybdenum(VI) oxide; phases: Crystal
Fixed: Pressure, kPa = 101.325
Property: Molar heat capacity at constant pressure, J/K/mol (Crystal); method: Vacuum adiabatic calorimetry
Temperature, K	Molar heat capacity at constant pressure, J/K/mol	uncertainty
55.57	41.52326256	0.11014128
57.87	42.88167168	0.150526416
59.86	44.4236496	0.150526416
61.86	45.96562752	0.150526416
63.85	47.3607504	0.150526416
65.85	48.71915952	0.150526416
67.85	49.9307136	0.150526416
69.85	51.25240896	0.150526416
72.35	52.83110064	0.150526416
75.38	54.63007488	0.150526416
78.41	56.46576288	0.179897424
79.22	57.01646928	0.179897424
81.45	58.30145088	0.179897424
82.97	59.14586736	0.179897424
85.92	60.9448416	0.179897424
88.98	62.63367456	0.179897424
92.05	64.24908	0.22028256
95.12	65.9011992	0.22028256
98.2	67.44317712	0.260667696
101.29	68.94844128	0.260667696
104.38	70.38027792	0.260667696
107.48	71.84882832	0.260667696
110.59	73.20723744	0.260667696
113.71	74.49221904	0.260667696
116.83	75.8139144	0.260667696
119.96	77.06218224	0.260667696
123.1	78.31045008	0.260667696
126.25	79.52200416	0.260667696
129.41	80.84369952	0.260667696
132.58	81.90839856	0.260667696
135.75	83.04652512	0.260667696
138.92	84.29479296	0.260667696
142.11	85.43291952	0.290038704
145.31	86.35076352	0.290038704
146.81	86.75461488	0.290038704
148.5	87.3787488	0.290038704
150.36	88.03959648	0.290038704
150.77	88.07631024	0.290038704
153.23	88.73715792	0.290038704
154.86	89.32457808	0.290038704
156.49	89.87528448	0.290038704
158.11	90.64627344	0.290038704
159.75	90.90326976	0.290038704
161.39	91.34383488	0.290038704
163.02	91.71097248	0.290038704
164.66	92.18825136	0.290038704
166.29	92.66553024	0.290038704
167.93	93.32637792	0.290038704
169.58	93.58337424	0.290038704
171.22	93.9872256	0.290038704
172.86	94.46450448	0.290038704
174.5	94.9050696	0.290038704
176.18	95.455776	0.290038704
177.83	95.60263104	0.290038704
179.47	96.0064824	0.290038704
181.12	96.41033376	0.290038704
182.75	97.291464	0.290038704
184.38	97.291464	0.290038704
186	97.54846032	0.290038704
187.63	97.98902544	0.290038704
189.25	98.31944928	0.290038704
190.87	98.79672816	0.290038704
192.48	99.09043824	0.290038704
194.09	99.71457216	0.290038704
195.71	99.93485472	0.290038704
197.32	100.37541984	0.290038704
198.94	100.81598496	0.290038704
200.55	101.10969504	0.290038704
202.18	101.77054272	0.290038704
203.81	101.77054272	0.290038704
205.44	102.21110784	0.290038704
207.07	102.46810416	0.290038704
208.7	102.72510048	0.290038704
210.32	103.09223808	0.33042384
211.96	103.42266192	0.33042384
213.59	103.67965824	0.33042384
215.23	104.04679584	0.33042384
216.86	104.37721968	0.33042384
218.49	104.78107104	0.33042384
220.13	105.0013536	0.33042384
221.76	105.33177744	0.33042384
223.39	105.66220128	0.33042384
225.02	106.21290768	0.33042384
226.66	106.35976272	0.33042384
228.3	106.76361408	0.33042384
229.93	107.05732416	0.33042384
231.56	107.42446176	0.33042384
233.19	107.79159936	0.33042384
234.81	108.04859568	0.33042384
236.43	108.305592	0.33042384
238.05	108.59930208	0.33042384
239.66	109.00315344	0.33042384
241.27	109.18672224	0.33042384
242.88	109.33357728	0.33042384
244.48	109.92099744	0.33042384
246.08	110.36156256	0.33042384
247.68	110.3248488	0.33042384
249.28	111.27940656	0.33042384
250.87	111.31612032	0.33042384
252.46	111.6098304	0.33042384
254.06	112.30739184	0.33042384
255.66	112.74795696	0.33042384
257.26	113.04166704	0.33042384
258.87	113.37209088	0.33042384
260.48	113.0783808	0.33042384
262.08	114.14307984	0.33042384
263.69	114.51021744	0.33042384
265.31	114.10636608	0.33042384
266.92	115.35463392	0.33042384
268.54	115.86862656	0.33042384
270.17	116.30919168	0.33042384
271.8	116.82318432	0.33042384
273.44	118.29173472	0.33042384
275.09	117.55745952	0.33042384
276.76	117.484032	0.33042384
278.44	117.63088704	0.33042384
280.22	115.20777888	0.33042384
281.96	117.26374944	0.33042384
283.72	117.484032	0.33042384
285.48	117.74102832	0.33042384
287.24	117.99802464	0.33042384
289.02	118.25502096	0.33042384
290.8	118.43858976	0.33042384
292.58	118.65887232	0.33042384
294.37	118.9525824	0.33042384
296.17	119.17286496	0.33042384
297.97	119.42986128	0.33042384
299.78	119.57671632	0.33042384
301.6	119.83371264	0.33042384
303.42	120.0539952	0.33042384
305.24	120.27427776	0.3671376
307.07	120.45784656	0.3671376
309.03	119.83371264	0.33042384
310.84	120.89841168	0.3671376
312.69	121.08198048	0.3671376
314.55	121.22883552	0.3671376
316.42	121.37569056	0.3671376
318.29	121.48583184	0.3671376
320.17	121.66940064	0.3671376
322.06	121.74282816	0.3671376
323.94	121.92639696	0.3671376
