Measured thermophysical data. Measurements of the Isobaric Specific Heat Capacities for trans-1,3,3,3-Tetrafluoropropene (HFO-1234ze(E)) in the Liquid Phase
Source: J. Chem. Eng. Data, 2010, 10.1021/je900799e
Compound 1: trans-1,3,3,3-tetrafluoropropene, C3H2F4, InChI=1S/C3H2F4/c4-2-1-3(5,6)7/h1-2H/b2-1+

System: trans-1,3,3,3-tetrafluoropropene; phases: Liquid
Property: Molar heat capacity at constant pressure, J/K/mol (Liquid); method: metal-bellows calorimeter
Temperature, K	Pressure, kPa	Molar heat capacity at constant pressure, J/K/mol	uncertainty
310	2000	165.36030956	15.965822992
310	3000	160.798645848	15.965822992
310	4000	157.377398064	15.965822992
310	5000	155.096566208	15.965822992
320	2000	168.781557344	15.965822992
320	3000	164.219893632	15.965822992
320	4000	160.798645848	15.965822992
320	5000	158.517813992	15.965822992
330	2000	175.624052912	18.246654848
330	3000	169.921973272	15.965822992
330	4000	166.500725488	15.965822992
330	5000	161.939061776	15.965822992
340	2000	188.16862812	18.246654848
340	3000	179.045300696	18.246654848
340	4000	169.921973272	15.965822992
340	5000	164.219893632	15.965822992
350	2000	206.415282968	20.527486704
350	3000	192.730291832	18.246654848
350	4000	182.46654848	18.246654848
350	5000	174.483636984	18.246654848
360	3000	214.398194464	20.527486704
360	4000	195.011123688	20.527486704
360	5000	183.606964408	18.246654848
370	3000	272.559406792	27.369982272
370	4000	224.661937816	22.80831856
370	5000	204.134451112	20.527486704
