Measured thermophysical data. Thermodynamic Properties of Binary and Ternary Mixtures Containing Di-isopropyl Ether, 2-Propanol, and Benzene at T = 313.15 K
Source: J. Chem. Eng. Data, 2010, 10.1021/je900977e
Compound 1: benzene, C6H6, InChI=1S/C6H6/c1-2-4-6-5-3-1/h1-6H
Compound 2: propan-2-ol, C3H8O, InChI=1S/C3H8O/c1-3(2)4/h3-4H,1-2H3
Compound 3: diisopropyl ether, C6H14O, InChI=1S/C6H14O/c1-5(2)7-6(3)4/h5-6H,1-4H3

System: benzene; phases: Liquid, Gas
Fixed: Temperature, K = 313.15
Property: Vapor or sublimation pressure, kPa (Liquid); method: Closed cell (Static) method
Vapor or sublimation pressure, kPa	uncertainty
24.396	0.094
24.375	0.094
24.377	0.094

System: propan-2-ol; phases: Liquid, Gas
Fixed: Temperature, K = 313.15
Property: Vapor or sublimation pressure, kPa (Liquid); method: Closed cell (Static) method
Vapor or sublimation pressure, kPa	uncertainty
13.905	0.06
13.895	0.06
13.892	0.06

System: diisopropyl ether; phases: Liquid, Gas
Fixed: Temperature, K = 313.15
Property: Vapor or sublimation pressure, kPa (Liquid); method: Closed cell (Static) method
Vapor or sublimation pressure, kPa	uncertainty
37.109	0.136
37.128	0.136

System: propan-2-ol + benzene; phases: Liquid, Gas
Property: Azeotropic pressure, kPa (Liquid); method: By P(X) extreme
Temperature, K	Azeotropic pressure, kPa	uncertainty
313.15	29.5	0.4

System: propan-2-ol + benzene; phases: Liquid, Gas
Property: Azeotropic composition: mole fraction of benzene (Liquid); method: By T or P extreme
Temperature, K	Azeotropic composition: mole fraction of benzene	uncertainty
313.15	0.72	0.01

System: propan-2-ol + benzene; phases: Liquid, Gas
Fixed: Temperature, K = 313.15
Property: Vapor or sublimation pressure, kPa (Liquid); method: Closed cell (Static) method
Mole fraction of benzene	Vapor or sublimation pressure, kPa	uncertainty
0	13.905	0.06
0.0594	18.356	0.075
0.0995	20.618	0.082
0.1544	23.014	0.09
0.1954	24.383	0.094
0.2492	25.783	0.099
0.2979	26.739	0.102
0.3484	27.503	0.104
0.3966	28.071	0.106
0.4031	28.125	0.106
0.4478	28.525	0.108
0.4506	28.544	0.108
0.4971	28.859	0.109
0.5001	28.876	0.109
0.5486	29.141	0.11
0.5501	29.14	0.11
0.5982	29.326	0.11
0.6003	29.329	0.11
0.6499	29.455	0.111
0.7004	29.529	0.111
0.75	29.523	0.111
0.8149	29.381	0.111
0.8511	29.201	0.11
0.903	28.689	0.108
0.9468	27.679	0.105
1	24.396	0.094

System: propan-2-ol + benzene; phases: Liquid, Gas
Fixed: Temperature, K = 313.15
Property: Vapor or sublimation pressure, kPa (Liquid); method: Closed cell (Static) method
Mole fraction of propan-2-ol	Vapor or sublimation pressure, kPa	uncertainty
0.2996	29.515	0.111
0.702	26.718	0.102

System: propan-2-ol + diisopropyl ether; phases: Liquid, Gas
Fixed: Temperature, K = 313.15
Property: Vapor or sublimation pressure, kPa (Liquid); method: Closed cell (Static) method
Mole fraction of diisopropyl ether	Vapor or sublimation pressure, kPa	uncertainty
0.3016	30.658	0.115
0.7004	37.131	0.136

System: benzene + diisopropyl ether; phases: Liquid, Gas
Fixed: Temperature, K = 313.15
Property: Vapor or sublimation pressure, kPa (Liquid); method: Closed cell (Static) method
Mole fraction of diisopropyl ether	Vapor or sublimation pressure, kPa	uncertainty
0.301	29.515	0.111
0.7164	34.358	0.127

System: propan-2-ol + benzene + diisopropyl ether; phases: Liquid, Gas
Fixed: Temperature, K = 313.15
Property: Vapor or sublimation pressure, kPa (Liquid); method: Closed cell (Static) method
Mole fraction of diisopropyl ether	Mole fraction of propan-2-ol	Vapor or sublimation pressure, kPa	uncertainty
0	0	24.375	0.094
0	0.2996	29.515	0.111
0	0.702	26.718	0.102
0	1	13.895	0.06
0.0253	0.292	29.847	0.112
0.0327	0.679	27.491	0.106
0.0562	0.2828	30.251	0.113
0.058	0.6612	28.075	0.106
0.0991	0.6323	28.976	0.109
0.1014	0.2692	30.818	0.115
0.1505	0.5	30.756	0.115
0.151	0.349	31.364	0.117
0.152	0.5951	30.064	0.113
0.1524	0.2539	31.431	0.117
0.1655	0.4504	31.201	0.116
0.1663	0.3844	31.478	0.117
0.1809	0.3992	31.579	0.118
0.1813	0.419	31.547	0.118
0.1956	0.3503	31.867	0.119
0.1963	0.4539	31.595	0.118
0.1997	0.2397	31.963	0.119
0.2001	0.5613	30.974	0.116
0.2106	0.3003	32.1	0.119
0.2114	0.4888	31.6	0.118
0.2259	0.2497	32.258	0.12
0.2265	0.5239	31.578	0.118
0.2407	0.2004	32.325	0.12
0.2416	0.5588	31.502	0.117
0.2498	0.5264	31.835	0.119
0.2521	0.224	32.527	0.121
0.2562	0.149	32.274	0.12
0.2566	0.5937	31.386	0.117
0.2709	0.6268	31.214	0.117
0.2714	0.0984	32	0.119
0.2858	0.0505	31.278	0.117
0.2869	0.6642	30.954	0.116
0.2938	0.024	30.544	0.114
0.2944	0.6815	30.8	0.115
0.2993	0.4916	32.632	0.121
0.3005	0.2095	33.016	0.122
0.301	0	29.515	0.111
0.3016	0.6984	30.658	0.115
0.3486	0.149	33.272	0.123
0.3499	0.1947	33.492	0.124
0.35	0.4561	33.371	0.124
0.358	0.5002	33.247	0.123
0.3873	0.1655	33.762	0.125
0.3936	0.4506	33.861	0.125
0.4	0.1797	33.949	0.125
0.4002	0.4208	34.042	0.126
0.4185	0.1789	34.148	0.126
0.4296	0.4003	34.392	0.127
0.4494	0.1649	34.372	0.127
0.4496	0.3861	34.644	0.128
0.4529	0.1936	34.553	0.127
0.4653	0.3505	34.836	0.128
0.4873	0.2083	34.942	0.129
0.4998	0.1498	34.777	0.128
0.4998	0.3509	35.203	0.129
0.5011	0.3006	35.201	0.129
0.5218	0.2231	35.331	0.13
0.5371	0.2503	35.507	0.13
0.5563	0.2379	35.705	0.131
0.5726	0.2008	35.715	0.131
0.5914	0.2529	36.074	0.132
0.6097	0.1489	35.817	0.131
0.6257	0.2676	36.434	0.134
0.6422	0.1035	35.752	0.131
0.66	0.2823	36.788	0.135
0.6767	0.2895	36.952	0.135
0.6803	0.0504	35.344	0.13
0.6983	0.0253	34.943	0.129
0.7004	0.2996	37.131	0.136
0.7164	0	34.358	0.127
1	0	37.109	0.136
0	0	24.377	0.094
0	1	13.892	0.06
1	0	37.128	0.136
