Measured thermophysical data. (Solid + Liquid) Equilibrium of (4-Chloro-2-benzofuran-1,3-dione + 5-Chloro-2-benzofuran-1,3-dione)
Source: J. Chem. Eng. Data, 2010, 10.1021/je9008206
Compound 1: 3-chlorophthalic anhydride, C8H3ClO3, InChI=1S/C8H3ClO3/c9-5-3-1-2-4-6(5)8(11)12-7(4)10/h1-3H, purity 99.52%
Compound 2: 4-chlorophthalic anhydride, C8H3ClO3, InChI=1S/C8H3ClO3/c9-4-1-2-5-6(3-4)8(11)12-7(5)10/h1-3H, purity 99.73%

System: 3-chlorophthalic anhydride; phases: Crystal, Liquid, Air at 1 atmosphere
Property: Molar enthalpy of transition or fusion, kJ/mol (Crystal); method: DSC
Molar enthalpy of transition or fusion, kJ/mol	uncertainty
13.35244	0.85713

System: 3-chlorophthalic anhydride; phases: Crystal, Liquid, Air at 1 atmosphere
Property: Normal melting temperature, K (Crystal); method: DTA
Normal melting temperature, K	uncertainty
397.95	0.53

System: 4-chlorophthalic anhydride; phases: Crystal, Liquid, Air at 1 atmosphere
Property: Molar enthalpy of transition or fusion, kJ/mol (Crystal); method: DSC
Molar enthalpy of transition or fusion, kJ/mol	uncertainty
33.06162	1.03413

System: 4-chlorophthalic anhydride; phases: Crystal, Liquid, Air at 1 atmosphere
Property: Normal melting temperature, K (Crystal); method: DTA
Normal melting temperature, K	uncertainty
367.35	0.53

System: 3-chlorophthalic anhydride + 4-chlorophthalic anhydride; phases: Crystal, Crystal, Liquid, Air at 1 atmosphere
Property: Eutectic temperature, K (Crystal); method: DTA::
Eutectic temperature, K	uncertainty
336.95	1

System: 3-chlorophthalic anhydride + 4-chlorophthalic anhydride; phases: Crystal, Crystal, Liquid, Air at 1 atmosphere
Property: Eutectic composition: mole fraction of 3-chlorophthalic anhydride (Crystal); method: PHASDIA:
Eutectic composition: mole fraction of 3-chlorophthalic anhydride	uncertainty
0.3482	0.0035

System: 3-chlorophthalic anhydride + 4-chlorophthalic anhydride; phases: Liquid, Crystal
Fixed: Pressure, kPa = 101
Property: Solid-liquid equilibrium temperature, K (Liquid); method: DTA:UFactor:3
Mole fraction of 3-chlorophthalic anhydride	Solid-liquid equilibrium temperature, K	uncertainty
0.4166	345.85	1.16
0.4695	351.99	1.16
0.5211	356.75	1.16
0.5549	360.55	1.16
0.6619	369.56	1.16
0.7073	374.51	1.16
0.798	381.87	1.16
0.8728	388.15	1.16
0.937	393.59	1.16
1	397.95	1.16

System: 3-chlorophthalic anhydride + 4-chlorophthalic anhydride; phases: Liquid, Crystal
Fixed: Pressure, kPa = 101
Property: Solid-liquid equilibrium temperature, K (Liquid); method: DTA:UFactor:3
Mole fraction of 3-chlorophthalic anhydride	Solid-liquid equilibrium temperature, K	uncertainty
0	367.35	1.16
0.0549	362.51	1.16
0.1041	359.05	1.16
0.1472	355.59	1.16
0.1891	351.15	1.16
0.253	345.95	1.16
0.3052	340.72	1.16
