Measured thermophysical data. Relative Permittivity of Dimethylsulfoxide and N,N-Dimethylformamide at Temperatures from (278 to 328) K and Pressures from (0.1 to 5) MPa
Source: J. Chem. Eng. Data, 2010, 10.1021/je9010773
Compound 1: dimethylformamide, C3H7NO, InChI=1S/C3H7NO/c1-4(2)3-5/h3H,1-2H3, purity 99.8%
Compound 2: dimethyl sulfoxide, C2H6OS, InChI=1S/C2H6OS/c1-4(2)3/h1-2H3, purity 99.9%

System: dimethylformamide; phases: Liquid
Property: Relative permittivity at zero frequency (Liquid); method: Reentrant cavity resonator
Temperature, K	Pressure, kPa	Relative permittivity at zero frequency	uncertainty
277.72	106	41.135	0.039
277.72	111	41.135	0.039
277.72	290	41.141	0.039
277.73	589	41.148	0.039
277.73	1088	41.163	0.039
277.73	2087	41.193	0.039
277.73	2587	41.206	0.039
277.73	2589	41.206	0.039
277.73	3086	41.222	0.039
277.73	4086	41.251	0.039
277.73	5086	41.274	0.039
277.74	110	41.133	0.039
277.74	5088	41.273	0.039
287.71	104	39.173	0.039
287.71	5081	39.314	0.049
287.74	581	39.182	0.039
287.74	1080	39.197	0.039
287.74	2079	39.227	0.039
287.74	2581	39.24	0.039
287.75	110	39.167	0.039
287.75	281	39.171	0.039
287.75	2587	39.239	0.045
287.75	3081	39.255	0.039
287.75	4083	39.283	0.039
287.76	5087	39.305	0.052
287.77	102	39.163	0.039
292.67	109	38.225	0.037
292.68	103	38.225	0.037
292.68	105	38.224	0.037
292.68	108	38.224	0.037
292.68	284	38.23	0.037
292.68	583	38.239	0.037
292.68	1083	38.254	0.037
292.68	2082	38.284	0.037
292.68	2582	38.298	0.036
292.68	2583	38.296	0.036
292.68	2586	38.297	0.036
292.68	3081	38.312	0.037
292.68	4080	38.342	0.037
292.68	5080	38.368	0.037
292.68	5081	38.368	0.037
292.68	5084	38.368	0.037
297.68	109	37.311	0.035
297.68	1088	37.344	0.035
297.69	288	37.316	0.035
297.69	588	37.326	0.035
297.69	2089	37.372	0.035
297.71	112	37.31	0.035
297.71	1091	37.337	0.035
297.71	3089	37.397	0.035
297.72	3090	37.396	0.035
297.72	4089	37.426	0.035
297.72	5090	37.454	0.035
302.73	101	36.468	0.001
302.73	2579	36.541	0.029
302.73	5078	36.605	0.001
303.11	101	36.412	0.029
303.11	281	36.418	0.034
303.11	1082	36.441	0.034
303.12	112	36.41	0.029
303.12	581	36.424	0.034
303.12	2085	36.469	0.034
303.12	2589	36.484	0.029
303.13	3088	36.498	0.034
303.13	4088	36.526	0.034
303.13	5088	36.546	0.03
307.71	2589	35.689	0.072
307.71	5089	35.756	0.099
307.72	104	35.615	0.032
307.72	111	35.614	0.034
307.72	2583	35.689	0.072
307.72	111	35.614	0.034
307.73	290	35.618	0.032
307.73	588	35.628	0.032
307.74	1088	35.641	0.032
307.74	4085	35.732	0.032
307.75	5084	35.751	0.099
307.76	2086	35.67	0.032
307.76	3085	35.699	0.032
318.12	101	33.96	0.031
318.12	113	33.964	0.031
318.12	2088	34.022	0.031
318.12	2591	34.038	0.055
318.12	3088	34.052	0.031
318.12	4088	34.076	0.031
318.12	5088	34.097	0.052
318.13	109	33.96	0.032
318.13	288	33.965	0.031
318.13	588	33.975	0.031
318.13	1088	33.991	0.031
318.14	2586	34.033	0.055
318.15	5079	34.092	0.052
328.02	109	32.445	0.031
328.03	584	32.46	0.031
328.04	287	32.449	0.031
328.04	1084	32.475	0.031
328.04	4080	32.564	0.031
328.04	5079	32.585	0.032
328.05	2082	32.505	0.031
328.05	2580	32.522	0.031
328.05	3081	32.537	0.031
328.07	101	32.443	0.031
328.07	2587	32.515	0.031
328.07	5087	32.577	0.032
328.09	111	32.434	0.031

System: dimethyl sulfoxide; phases: Liquid
Property: Relative permittivity at zero frequency (Liquid); method: Reentrant cavity resonator
Temperature, K	Pressure, kPa	Relative permittivity at zero frequency	uncertainty
292.83	2091	46.697	0.025
292.84	112	46.679	0.025
292.84	293	46.68	0.025
292.84	1092	46.688	0.025
292.84	2591	46.698	0.025
292.84	3091	46.705	0.025
292.84	4091	46.712	0.025
292.84	5091	46.718	0.025
292.84	2591	46.699	0.025
292.85	110	46.678	0.025
292.85	113	46.677	0.025
292.85	592	46.683	0.025
292.85	5090	46.716	0.025
297.85	111	46.047	0.025
297.85	2591	46.073	0.025
297.86	111	46.043	0.025
297.86	114	46.05	0.025
297.86	291	46.05	0.025
297.86	591	46.053	0.025
297.86	1089	46.059	0.025
297.86	2089	46.068	0.025
297.86	2590	46.069	0.025
297.86	3089	46.077	0.025
297.86	4089	46.086	0.025
297.86	5090	46.09	0.025
297.86	5091	46.094	0.025
302.6	101	45.446	0.001
302.61	2591	45.469	0.023
302.62	4091	45.482	0.026
302.62	5091	45.487	0.026
302.63	3090	45.472	0.026
302.77	112	45.429	0.026
302.78	5089	45.47	0.026
302.82	2589	45.445	0.023
302.83	2090	45.44	0.026
302.84	111	45.417	0.024
302.84	291	45.419	0.026
302.84	1091	45.428	0.026
302.85	591	45.422	0.026
307.84	107	44.728	0.026
307.84	109	44.724	0.026
307.84	2587	44.75	0.026
307.84	3086	44.764	0.026
307.84	4086	44.774	0.026
307.85	111	44.715	0.026
307.85	288	44.727	0.026
307.85	587	44.732	0.026
307.85	1086	44.739	0.026
307.85	2086	44.751	0.026
307.85	2584	44.755	0.026
307.85	5085	44.783	0.026
307.85	5087	44.777	0.026
317.73	113	43.453	0.026
317.73	117	43.452	0.026
317.74	296	43.453	0.026
317.74	2595	43.483	0.026
317.75	116	43.448	0.026
317.75	1094	43.464	0.026
317.75	2592	43.482	0.026
317.75	5093	43.513	0.026
317.76	2093	43.477	0.026
317.77	595	43.455	0.026
317.78	3092	43.486	0.026
317.78	4092	43.5	0.026
317.78	5092	43.508	0.026
327.54	95	42.15	0.027
327.54	2573	42.186	0.026
327.55	274	42.152	0.027
327.56	572	42.157	0.027
327.56	2070	42.18	0.026
327.56	3069	42.194	0.026
327.56	4068	42.208	0.026
327.57	91	42.149	0.027
327.57	99	42.144	0.027
327.57	1071	42.164	0.026
327.57	2569	42.186	0.026
327.57	5067	42.213	0.028
327.57	5073	42.211	0.028
