Measured thermophysical data. Measurement and Modeling of Epigallocatechin Gallate Solubility in Supercritical Carbon Dioxide Fluid with Ethanol Cosolvent
Source: J. Chem. Eng. Data, 2010, 10.1021/je901025f
Compound 1: (2R,3R)-5,7-dihydroxy-2-(3,4,5-trihydroxyphenyl)chroman-3-yl 3,4,5-trihydroxybenzoate, C22H18O11, InChI=1S/C22H18O11/c23-10-5-12(24)11-7-18(33-22(31)9-3-15(27)20(30)16(28)4-9)21(32-17(11)6-10)8-1-13(25)19(29)14(26)2-8/h1-6,18,21,23-30H,7H2/t18-,21-/m1/s1, purity 99%
Compound 2: carbon dioxide, CO2, InChI=1S/CO2/c2-1-3, purity 99.9%
Compound 3: ethanol, C2H6O, InChI=1S/C2H6O/c1-2-3/h3H,2H2,1H3, purity 99.8%
Compound 4: acetone, C3H6O, InChI=1S/C3H6O/c1-3(2)4/h1-2H3

System: carbon dioxide + (2R,3R)-5,7-dihydroxy-2-(3,4,5-trihydroxyphenyl)chroman-3-yl 3,4,5-trihydroxybenzoate; phases: Fluid (supercritical or subcritical phases), Crystal
Fixed: Temperature, K = 313
Property: Mole fraction of (2R,3R)-5,7-dihydroxy-2-(3,4,5-trihydroxyphenyl)chroman-3-yl 3,4,5-trihydroxybenzoate (Fluid (supercritical or subcritical phases)); method: Chromatography
Pressure, kPa	Mole fraction of (2R,3R)-5,7-dihydroxy-2-(3,4,5-trihydroxyphenyl)chroman-3-yl 3,4,5-trihydroxybenzoate	uncertainty
15000	1.3e-05	3e-06
20000	3.5e-05	7e-06
25000	5.2e-05	1e-05
30000	7.7e-05	1.6e-05
35000	8.3e-05	1.7e-05

System: acetone + carbon dioxide + (2R,3R)-5,7-dihydroxy-2-(3,4,5-trihydroxyphenyl)chroman-3-yl 3,4,5-trihydroxybenzoate; phases: Fluid (supercritical or subcritical phases), Crystal
Fixed: Solvent: Mole fraction of acetone = 0.044
Fixed: Temperature, K = 313
Property: Mole fraction of (2R,3R)-5,7-dihydroxy-2-(3,4,5-trihydroxyphenyl)chroman-3-yl 3,4,5-trihydroxybenzoate (Fluid (supercritical or subcritical phases)); method: Chromatography
Pressure, kPa	Mole fraction of (2R,3R)-5,7-dihydroxy-2-(3,4,5-trihydroxyphenyl)chroman-3-yl 3,4,5-trihydroxybenzoate	uncertainty
15000	3e-05	7e-06
20000	3.6e-05	8e-06
25000	4.6e-05	1e-05
30000	5.2e-05	1.2e-05
35000	7.8e-05	1.7e-05

System: ethanol + carbon dioxide + (2R,3R)-5,7-dihydroxy-2-(3,4,5-trihydroxyphenyl)chroman-3-yl 3,4,5-trihydroxybenzoate; phases: Fluid (supercritical or subcritical phases), Crystal
Property: Mole fraction of (2R,3R)-5,7-dihydroxy-2-(3,4,5-trihydroxyphenyl)chroman-3-yl 3,4,5-trihydroxybenzoate (Fluid (supercritical or subcritical phases)); method: Chromatography
Temperature, K	Solvent: Mole fraction of ethanol	Pressure, kPa	Mole fraction of (2R,3R)-5,7-dihydroxy-2-(3,4,5-trihydroxyphenyl)chroman-3-yl 3,4,5-trihydroxybenzoate	uncertainty
313	0.044	15000	0.000141	2.8e-05
313	0.044	20000	0.000222	4.5e-05
313	0.044	25000	0.000452	9.1e-05
313	0.044	30000	0.000528	0.000106
313	0.044	35000	0.000583	0.000117
313	0.084	15000	0.000236	4.7e-05
313	0.084	20000	0.000351	7.1e-05
313	0.084	25000	0.000623	0.000125
313	0.084	30000	0.000692	0.000139
313	0.084	35000	0.000734	0.000148
323	0.044	15000	0.000112	2.3e-05
323	0.044	20000	0.000193	3.9e-05
323	0.044	25000	0.000408	8.2e-05
323	0.044	30000	0.000495	0.0001
323	0.044	35000	0.000521	0.000105
323	0.084	15000	0.00021	4.2e-05
323	0.084	20000	0.000307	6.2e-05
323	0.084	25000	0.000548	0.00011
323	0.084	30000	0.000631	0.000127
323	0.084	35000	0.000722	0.000145
333	0.044	15000	9.8e-05	2e-05
333	0.044	20000	0.000123	2.5e-05
333	0.044	25000	0.000275	5.5e-05
333	0.044	30000	0.000346	7e-05
333	0.044	35000	0.00042	8.5e-05
333	0.084	15000	0.00015	3e-05
333	0.084	20000	0.000263	5.3e-05
333	0.084	25000	0.00052	0.000105
333	0.084	30000	0.000591	0.000119
333	0.084	35000	0.00068	0.000137
