Measured thermophysical data. Solubility of 5-Amino Salicylic Acid in Different Solvents at Various Temperatures
Source: J. Chem. Eng. Data, 2010, 10.1021/je900646u
Compound 1: 5-aminosalicylic acid, C7H7NO3, InChI=1S/C7H7NO3/c8-4-1-2-6(9)5(3-4)7(10)11/h1-3,9H,8H2,(H,10,11)
Compound 2: methanol, CH4O, InChI=1S/CH4O/c1-2/h2H,1H3
Compound 3: ethanol, C2H6O, InChI=1S/C2H6O/c1-2-3/h3H,2H2,1H3
Compound 4: tetrachloromethane, CCl4, InChI=1S/CCl4/c2-1(3,4)5
Compound 5: tetrahydrofuran, C4H8O, InChI=1S/C4H8O/c1-2-4-5-3-1/h1-4H2

System: 5-aminosalicylic acid; phases: Crystal, Liquid, Air at 1 atmosphere
Property: Normal melting temperature, K (Crystal); method: DTA
Normal melting temperature, K	uncertainty
554.15	0.5

System: methanol + 5-aminosalicylic acid; phases: Liquid, Crystal
Fixed: Pressure, kPa = 101
Property: Mole fraction of 5-aminosalicylic acid (Liquid); method: gravimetric method
Temperature, K	Mole fraction of 5-aminosalicylic acid	uncertainty
293.15	1.408e-05	5.8e-07
295.15	1.551e-05	6.4e-07
297.15	1.705e-05	7e-07
299.15	1.876e-05	7.7e-07
301.15	2.018e-05	8.3e-07
303.15	2.154e-05	8.9e-07
305.15	2.401e-05	9.9e-07
307.15	2.642e-05	1.09e-06
309.15	2.837e-05	1.17e-06
311.15	3.021e-05	1.25e-06
313.15	3.162e-05	1.3e-06

System: ethanol + 5-aminosalicylic acid; phases: Liquid, Crystal
Fixed: Pressure, kPa = 101
Property: Mole fraction of 5-aminosalicylic acid (Liquid); method: gravimetric method
Temperature, K	Mole fraction of 5-aminosalicylic acid	uncertainty
293.15	1.765e-05	7.2e-07
295.15	1.931e-05	7.8e-07
297.15	2.117e-05	8.6e-07
299.15	2.254e-05	9.2e-07
301.15	2.334e-05	9.5e-07
303.15	2.491e-05	1.01e-06
305.15	2.738e-05	1.11e-06
307.15	2.946e-05	1.2e-06
309.15	3.087e-05	1.25e-06
311.15	3.227e-05	1.31e-06
313.15	3.454e-05	1.4e-06

System: tetrachloromethane + 5-aminosalicylic acid; phases: Liquid, Crystal
Fixed: Pressure, kPa = 101
Property: Mole fraction of 5-aminosalicylic acid (Liquid); method: gravimetric method
Temperature, K	Mole fraction of 5-aminosalicylic acid	uncertainty
293.15	2.902e-05	1.16e-06
295.15	3.027e-05	1.21e-06
297.15	3.098e-05	1.24e-06
299.15	3.116e-05	1.25e-06
301.15	3.159e-05	1.27e-06
303.15	3.187e-05	1.28e-06
305.15	3.313e-05	1.33e-06
307.15	3.446e-05	1.38e-06
309.15	3.619e-05	1.45e-06
311.15	3.705e-05	1.48e-06
313.15	3.827e-05	1.53e-06

System: 5-aminosalicylic acid + tetrahydrofuran; phases: Liquid, Crystal
Fixed: Pressure, kPa = 101
Property: Mole fraction of 5-aminosalicylic acid (Liquid); method: gravimetric method
Temperature, K	Mole fraction of 5-aminosalicylic acid	uncertainty
293.15	0.011957	0.000481
295.15	0.012006	0.000483
297.15	0.01205	0.000485
299.15	0.012102	0.000487
301.15	0.01215	0.000489
303.15	0.012197	0.000491
305.15	0.012221	0.000492
307.15	0.012244	0.000493
309.15	0.012267	0.000494
311.15	0.01229	0.000495
313.15	0.012313	0.000496
