Measured thermophysical data. Thermodynamic Properties of Inorganic Salts in Nonaqueous Solvents. VI. Apparent Molar Volumes, Expansibilities, and Compressibilities of Divalent Transition Metal Ions in Methanol and Dimethylsulfoxide
Source: J. Chem. Eng. Data, 2010, 10.1021/je900732r
Compound 1: cobalt(II) perchlorate, Cl2CoO8, InChI=1S/2ClHO4.Co/c2*2-1(3,4)5;/h2*(H,2,3,4,5);/q;;+2/p-2
Compound 2: nickel perchlorate, Cl2NiO8, InChI=1S/2ClHO4.Ni/c2*2-1(3,4)5;/h2*(H,2,3,4,5);/q;;+2/p-2
Compound 3: dimethyl sulfoxide, C2H6OS, InChI=1S/C2H6OS/c1-4(2)3/h1-2H3
Compound 4: copper(II) trifluoromethanesulfonate, C2CuF6O6S2, InChI=1S/2CHF3O3S.Cu/c2*2-1(3,4)8(5,6)7;/h2*(H,5,6,7);/q;;+2/p-2
Compound 5: methanol, CH4O, InChI=1S/CH4O/c1-2/h2H,1H3
Compound 6: copper perchlorate, Cl2CuO8, InChI=1S/2ClHO4.Cu/c2*2-1(3,4)5;/h2*(H,2,3,4,5);/q;;+2/p-2
Compound 7: manganese (II) perchlorate, Cl2MnO8, InChI=1S/2ClHO4.Mn/c2*2-1(3,4)5;/h2*(H,2,3,4,5);/q;;+2/p-2
Compound 8: zinc perchlorate, Cl2O8Zn, InChI=1S/2ClHO4.Zn/c2*2-1(3,4)5;/h2*(H,2,3,4,5);/q;;+2/p-2

System: dimethyl sulfoxide; phases: Liquid
Fixed: Pressure, kPa = 101
Property: Mass density, kg/m3 (Liquid); method: VIBTUB:UFactor:4
Temperature, K	Mass density, kg/m3	uncertainty
293.15	1100.222	0.558
293.15	1100.226	0.564
298.15	1095.193	0.549
298.15	1095.194	0.553
298.15	1095.2	0.555
298.15	1095.198	0.555
303.15	1090.171	0.54
303.15	1090.179	0.544
313.15	1080.123	0.522
313.15	1080.125	0.528
323.15	1070.084	0.504
323.15	1070.082	0.508
333.15	1060.039	0.487
333.15	1060.034	0.491

System: methanol; phases: Liquid
Property: Speed of sound, m/s (Liquid); method: Pulse-echo method
Temperature, K	Pressure, kPa	Speed of sound, m/s	uncertainty
298.15	101.325	1101.24	0.77

System: methanol; phases: Liquid
Fixed: Pressure, kPa = 101
Property: Mass density, kg/m3 (Liquid); method: VIBTUB:UFactor:4
Temperature, K	Mass density, kg/m3	uncertainty
283.15	800.55	0.483
283.15	800.541	0.484
283.15	800.548	0.498
288.15	795.872	0.489
288.15	795.866	0.491
288.15	795.857	0.505
293.15	791.172	0.496
293.15	791.169	0.498
293.15	791.162	0.511
298.15	786.464	0.503
298.15	786.46	0.505
298.15	786.452	0.518
303.15	781.742	0.51
303.15	781.733	0.512
303.15	781.722	0.524
308.15	776.992	0.517
308.15	776.979	0.519
308.15	776.978	0.531
313.15	772.214	0.524
313.15	772.189	0.526
313.15	772.2	0.537

System: dimethyl sulfoxide + manganese (II) perchlorate; phases: Liquid
Fixed: Pressure, kPa = 101
Property: Mass density, kg/m3 (Liquid); method: VIBTUB:UFactor:4
Temperature, K	Molality, mol/kg of manganese (II) perchlorate	Mass density, kg/m3	uncertainty
293.15	0	1100.222	0.558
293.15	0.01626	1103.515	0.566
293.15	0.0211	1104.499	0.569
293.15	0.02843	1105.988	0.572
293.15	0.037	1107.738	0.577
293.15	0.04758	1109.899	0.582
293.15	0.05763	1111.96	0.588
293.15	0.07358	1115.242	0.596
293.15	0.09456	1119.588	0.607
293.15	0.1139	1123.616	0.618
293.15	0.1337	1127.767	0.628
293.15	0.1569	1132.594	0.641
293.15	0.1754	1136.601	0.652
298.15	0	1095.193	0.549
298.15	0.01626	1098.496	0.557
298.15	0.0211	1099.482	0.559
298.15	0.02843	1100.977	0.563
298.15	0.037	1102.731	0.568
298.15	0.04758	1104.898	0.573
298.15	0.05763	1106.966	0.579
298.15	0.07358	1110.261	0.587
298.15	0.09456	1114.615	0.598
298.15	0.1139	1118.653	0.608
298.15	0.1337	1122.816	0.619
298.15	0.1569	1127.655	0.631
298.15	0.1754	1131.673	0.643
303.15	0	1090.171	0.54
303.15	0.01626	1093.487	0.548
303.15	0.0211	1094.474	0.55
303.15	0.02843	1095.975	0.554
303.15	0.037	1097.733	0.559
303.15	0.04758	1099.909	0.564
303.15	0.05763	1101.98	0.569
303.15	0.07358	1105.282	0.578
303.15	0.09456	1109.65	0.589
303.15	0.1139	1113.697	0.599
303.15	0.1337	1117.873	0.609
303.15	0.1569	1122.728	0.622
303.15	0.1754	1126.754	0.634
313.15	0	1080.123	0.522
313.15	0.01626	1083.46	0.53
313.15	0.0211	1084.454	0.532
313.15	0.02843	1085.962	0.536
313.15	0.037	1087.73	0.54
313.15	0.04758	1089.918	0.546
313.15	0.05763	1092.006	0.551
313.15	0.07358	1095.326	0.56
313.15	0.09456	1099.732	0.571
313.15	0.1139	1103.802	0.581
313.15	0.1337	1107.998	0.591
313.15	0.1569	1112.885	0.604
313.15	0.1754	1116.936	0.615
323.15	0	1070.084	0.504
323.15	0.01626	1073.442	0.512
323.15	0.0211	1074.445	0.515
323.15	0.02843	1075.964	0.518
323.15	0.037	1077.742	0.523
323.15	0.04758	1079.945	0.528
323.15	0.05763	1082.049	0.533
323.15	0.07358	1085.389	0.542
323.15	0.09456	1089.817	0.553
323.15	0.1139	1093.919	0.563
323.15	0.1337	1098.14	0.57
323.15	0.1569	1103.056	0.586
323.15	0.1754	1107.135	0.597
333.15	0	1060.039	0.487
333.15	0.01626	1063.422	0.495
333.15	0.0211	1064.433	0.497
333.15	0.02843	1065.962	0.501
333.15	0.037	1067.752	0.505
333.15	0.04758	1069.971	0.511
333.15	0.05763	1072.09	0.516
333.15	0.07358	1075.452	0.524
333.15	0.09456	1079.911	0.535
333.15	0.1139	1084.037	0.545
333.15	0.1337	1088.288	0.555
333.15	0.1569	1093.239	0.568
333.15	0.1754	1097.34	0.579

System: dimethyl sulfoxide + cobalt(II) perchlorate; phases: Liquid
Fixed: Pressure, kPa = 101
Property: Mass density, kg/m3 (Liquid); method: VIBTUB:UFactor:4
Temperature, K	Molality, mol/kg of cobalt(II) perchlorate	Mass density, kg/m3	uncertainty
293.15	0	1100.222	0.562
293.15	0.01481	1103.365	0.569
293.15	0.0215	1104.791	0.573
293.15	0.03236	1107.104	0.579
293.15	0.04309	1109.405	0.585
293.15	0.05528	1112.024	0.591
293.15	0.06505	1114.126	0.597
293.15	0.08726	1118.943	0.609
293.15	0.1069	1123.236	0.62
293.15	0.1285	1127.981	0.632
293.15	0.148	1132.32	0.643
293.15	0.1695	1137.117	0.656
293.15	0.1911	1141.973	0.668
293.15	0.2111	1146.482	0.679
298.15	0	1095.193	0.552
298.15	0.01481	1098.345	0.56
298.15	0.0215	1099.775	0.564
298.15	0.03236	1102.1	0.57
298.15	0.04309	1104.405	0.575
298.15	0.05528	1107.026	0.582
298.15	0.06505	1109.136	0.588
298.15	0.08726	1113.971	0.6
298.15	0.1069	1118.267	0.611
298.15	0.1285	1123.025	0.623
298.15	0.148	1127.381	0.634
298.15	0.1695	1132.18	0.646
298.15	0.1911	1137.05	0.659
298.15	0.2111	1141.572	0.67
303.15	0	1090.179	0.544
303.15	0.01481	1093.341	0.551
303.15	0.0215	1094.773	0.555
303.15	0.03236	1097.1	0.56
303.15	0.04309	1099.406	0.566
303.15	0.05528	1102.038	0.573
303.15	0.06505	1104.152	0.578
303.15	0.08726	1109	0.59
303.15	0.1069	1113.305	0.601
303.15	0.1285	1118.08	0.614
303.15	0.148	1122.441	0.625
303.15	0.1695	1127.257	0.637
303.15	0.1911	1132.136	0.649
303.15	0.2111	1136.67	0.661
313.15	0	1080.123	0.526
313.15	0.01481	1083.306	0.533
313.15	0.0215	1084.746	0.537
313.15	0.03236	1087.09	0.543
313.15	0.04309	1089.417	0.548
313.15	0.05528	1092.062	0.555
313.15	0.06505	1094.204	0.561
313.15	0.08726	1099.074	0.572
313.15	0.1069	1103.395	0.583
313.15	0.1285	1108.194	0.595
313.15	0.148	1112.574	0.606
313.15	0.1695	1117.416	0.619
313.15	0.1911	1122.329	0.631
313.15	0.2111	1126.882	0.642
323.15	0	1070.082	0.508
323.15	0.01481	1073.289	0.516
323.15	0.0215	1074.739	0.519
323.15	0.03236	1077.095	0.525
323.15	0.04309	1079.437	0.531
323.15	0.05528	1082.1	0.537
323.15	0.06505	1084.251	0.543
323.15	0.08726	1089.148	0.554
323.15	0.1069	1093.506	0.565
323.15	0.1285	1098.326	0.577
323.15	0.148	1102.732	0.588
323.15	0.1695	1107.602	0.6
323.15	0.1911	1112.534	0.613
323.15	0.2111	1117.125	0.624
333.15	0	1060.034	0.491
333.15	0.01481	1063.264	0.498
333.15	0.0215	1064.726	0.502
333.15	0.03236	1067.1	0.508
333.15	0.04309	1069.457	0.513
333.15	0.05528	1072.139	0.52
333.15	0.06505	1074.3	0.525
333.15	0.08726	1079.219	0.537
333.15	0.1069	1083.613	0.548
333.15	0.1285	1088.466	0.56
333.15	0.148	1092.9	0.571
333.15	0.1695	1097.797	0.583
333.15	0.1911	1102.759	0.595
333.15	0.2111	1107.378	0.606

System: dimethyl sulfoxide + nickel perchlorate; phases: Liquid
Fixed: Pressure, kPa = 101
Property: Mass density, kg/m3 (Liquid); method: VIBTUB:UFactor:4
Temperature, K	Molality, mol/kg of nickel perchlorate	Mass density, kg/m3	uncertainty
293.15	0	1100.222	0.562
293.15	0.01259	1102.915	0.569
293.15	0.01738	1103.941	0.571
293.15	0.02515	1105.61	0.575
293.15	0.03153	1106.98	0.579
293.15	0.03816	1108.41	0.583
293.15	0.051	1111.18	0.59
293.15	0.06341	1113.877	0.596
293.15	0.07675	1116.779	0.604
293.15	0.08797	1119.23	0.61
293.15	0.1004	1121.965	0.617
293.15	0.1126	1124.633	0.623
293.15	0.1251	1127.4	0.631
298.15	0	1095.194	0.553
298.15	0.01259	1097.895	0.56
298.15	0.01738	1098.923	0.562
298.15	0.02515	1100.595	0.566
298.15	0.03153	1101.97	0.57
298.15	0.03816	1103.403	0.574
298.15	0.051	1106.185	0.58
298.15	0.06341	1108.878	0.587
298.15	0.07675	1111.785	0.594
298.15	0.08797	1114.242	0.601
298.15	0.1004	1116.985	0.608
298.15	0.1126	1119.667	0.614
298.15	0.1251	1122.433	0.621
303.15	0	1090.171	0.544
303.15	0.01259	1092.878	0.551
303.15	0.01738	1093.911	0.553
303.15	0.02515	1095.589	0.557
303.15	0.03153	1096.964	0.561
303.15	0.03816	1098.398	0.564
303.15	0.051	1101.185	0.571
303.15	0.06341	1103.89	0.578
303.15	0.07675	1106.807	0.585
303.15	0.08797	1109.272	0.592
303.15	0.1004	1112.015	0.598
303.15	0.1126	1114.704	0.605
303.15	0.1251	1117.495	0.612
313.15	0	1080.123	0.526
313.15	0.01259	1082.847	0.533
313.15	0.01738	1083.884	0.535
313.15	0.02515	1085.57	0.539
313.15	0.03153	1086.956	0.543
313.15	0.03816	1088.402	0.546
313.15	0.051	1091.205	0.553
313.15	0.06341	1093.92	0.56
313.15	0.07675	1096.857	0.567
313.15	0.08797	1099.336	0.574
313.15	0.1004	1102.1	0.58
313.15	0.1126	1104.799	0.587
313.15	0.1251	1107.6	0.594
323.15	0	1070.084	0.509
323.15	0.01259	1072.824	0.515
323.15	0.01738	1073.868	0.518
323.15	0.02515	1075.562	0.522
323.15	0.03153	1076.96	0.525
323.15	0.03816	1078.408	0.529
323.15	0.051	1081.235	0.536
323.15	0.06341	1083.968	0.542
323.15	0.07675	1086.922	0.549
323.15	0.08797	1089.416	0.556
323.15	0.1004	1092.195	0.562
323.15	0.1126	1094.91	0.569
323.15	0.1251	1097.73	0.576
333.15	0	1060.039	0.492
333.15	0.01259	1062.8	0.498
333.15	0.01738	1063.85	0.5
333.15	0.02515	1065.557	0.504
333.15	0.03153	1066.96	0.508
333.15	0.03816	1068.425	0.512
333.15	0.051	1071.27	0.518
333.15	0.06341	1074.013	0.525
333.15	0.07675	1076.993	0.532
333.15	0.08797	1079.5	0.538
333.15	0.1004	1082.295	0.545
333.15	0.1126	1085.028	0.551
333.15	0.1251	1087.864	0.559

System: dimethyl sulfoxide + copper perchlorate; phases: Liquid
Fixed: Pressure, kPa = 101
Property: Mass density, kg/m3 (Liquid); method: VIBTUB:UFactor:4
Temperature, K	Molality, mol/kg of copper perchlorate	Mass density, kg/m3	uncertainty
293.15	0	1100.226	0.564
293.15	0.01424	1103.32	0.571
293.15	0.01956	1104.48	0.574
293.15	0.02779	1106.27	0.578
293.15	0.03497	1107.843	0.582
293.15	0.0419	1109.353	0.586
293.15	0.05636	1112.527	0.594
293.15	0.07067	1115.686	0.602
293.15	0.08366	1118.565	0.609
293.15	0.09783	1121.712	0.618
293.15	0.1114	1124.76	0.625
293.15	0.1251	1127.826	0.633
293.15	0.1384	1130.816	0.64
298.15	0	1095.2	0.555
298.15	0.01424	1098.306	0.562
298.15	0.01956	1099.473	0.565
298.15	0.02779	1101.264	0.569
298.15	0.03497	1102.831	0.573
298.15	0.0419	1104.347	0.577
298.15	0.05636	1107.535	0.585
298.15	0.07067	1110.703	0.593
298.15	0.08366	1113.582	0.6
298.15	0.09783	1116.735	0.608
298.15	0.1114	1119.784	0.616
298.15	0.1251	1122.854	0.623
298.15	0.1384	1125.854	0.631
303.15	0	1090.179	0.546
303.15	0.01424	1093.291	0.553
303.15	0.01956	1094.456	0.556
303.15	0.02779	1096.262	0.56
303.15	0.03497	1097.83	0.564
303.15	0.0419	1099.358	0.568
303.15	0.05636	1102.539	0.576
303.15	0.07067	1105.706	0.584
303.15	0.08366	1108.608	0.591
303.15	0.09783	1111.754	0.599
303.15	0.1114	1114.82	0.607
303.15	0.1251	1117.894	0.614
303.15	0.1384	1120.903	0.622
313.15	0	1080.125	0.528
313.15	0.01424	1083.263	0.535
313.15	0.01956	1084.437	0.538
313.15	0.02779	1086.251	0.542
313.15	0.03497	1087.833	0.546
313.15	0.0419	1089.367	0.55
313.15	0.05636	1092.566	0.558
313.15	0.07067	1095.756	0.566
313.15	0.08366	1098.652	0.573
313.15	0.09783	1101.825	0.581
313.15	0.1114	1104.899	0.589
313.15	0.1251	1107.998	0.596
313.15	0.1384	1111.017	0.604
323.15	0	1070.084	0.51
323.15	0.01424	1073.235	0.518
323.15	0.01956	1074.416	0.52
323.15	0.02779	1076.24	0.525
323.15	0.03497	1077.832	0.528
323.15	0.0419	1079.364	0.532
323.15	0.05636	1082.596	0.54
323.15	0.07067	1085.8	0.548
323.15	0.08366	1088.719	0.555
323.15	0.09783	1091.912	0.563
323.15	0.1114	1095.003	0.571
323.15	0.1251	1098.111	0.578
323.15	0.1384	1101.145	0.585
333.15	0	1060.039	0.493
333.15	0.01424	1063.214	0.5
333.15	0.01956	1064.399	0.503
333.15	0.02779	1066.236	0.507
333.15	0.03497	1067.84	0.511
333.15	0.0419	1069.385	0.515
333.15	0.05636	1072.636	0.523
333.15	0.07067	1075.851	0.53
333.15	0.08366	1078.786	0.537
333.15	0.09783	1082.001	0.545
333.15	0.1114	1085.101	0.553
333.15	0.1251	1088.23	0.56
333.15	0.1384	1091.275	0.567

System: dimethyl sulfoxide + zinc perchlorate; phases: Liquid
Fixed: Pressure, kPa = 101
Property: Mass density, kg/m3 (Liquid); method: VIBTUB:UFactor:4
Temperature, K	Molality, mol/kg of zinc perchlorate	Mass density, kg/m3	uncertainty
293.15	0	1100.226	0.564
293.15	0.0168	1103.883	0.572
293.15	0.02409	1105.475	0.577
293.15	0.02918	1106.588	0.579
293.15	0.03465	1107.788	0.582
293.15	0.05104	1111.385	0.591
293.15	0.06794	1115.124	0.601
293.15	0.08574	1119.081	0.611
293.15	0.1022	1122.778	0.621
293.15	0.119	1126.551	0.63
293.15	0.1435	1132.092	0.644
293.15	0.1684	1137.796	0.659
298.15	0	1095.198	0.555
298.15	0.0168	1098.864	0.563
298.15	0.02409	1100.46	0.567
298.15	0.02918	1101.575	0.57
298.15	0.03465	1102.776	0.573
298.15	0.05104	1106.39	0.582
298.15	0.06794	1110.133	0.592
298.15	0.08574	1114.099	0.602
298.15	0.1022	1117.795	0.611
298.15	0.119	1121.58	0.621
298.15	0.1435	1127.136	0.635
298.15	0.1684	1132.85	0.65
303.15	0	1090.179	0.546
303.15	0.0168	1093.853	0.554
303.15	0.02409	1095.454	0.558
303.15	0.02918	1096.564	0.561
303.15	0.03465	1097.775	0.564
303.15	0.05104	1101.387	0.573
303.15	0.06794	1105.138	0.583
303.15	0.08574	1109.118	0.593
303.15	0.1022	1112.833	0.602
303.15	0.119	1116.618	0.612
303.15	0.1435	1122.186	0.626
303.15	0.1684	1127.909	0.64
313.15	0	1080.125	0.528
313.15	0.0168	1083.822	0.537
313.15	0.02409	1085.433	0.541
313.15	0.02918	1086.558	0.543
313.15	0.03465	1087.767	0.546
313.15	0.05104	1091.404	0.555
313.15	0.06794	1095.176	0.565
313.15	0.08574	1099.166	0.575
313.15	0.1022	1102.908	0.584
313.15	0.119	1106.699	0.593
313.15	0.1435	1112.301	0.608
313.15	0.1684	1118.046	0.622
323.15	0	1070.084	0.511
323.15	0.0168	1073.81	0.519
323.15	0.02409	1075.43	0.523
323.15	0.02918	1076.56	0.525
323.15	0.03465	1077.772	0.529
323.15	0.05104	1081.428	0.537
323.15	0.06794	1085.216	0.547
323.15	0.08574	1089.23	0.557
323.15	0.1022	1092.994	0.566
323.15	0.119	1096.799	0.575
323.15	0.1435	1102.431	0.59
323.15	0.1684	1108.21	0.604
333.15	0	1060.039	0.493
333.15	0.0168	1063.78	0.502
333.15	0.02409	1065.41	0.506
333.15	0.02918	1066.549	0.508
333.15	0.03465	1067.774	0.511
333.15	0.05104	1071.449	0.52
333.15	0.06794	1075.26	0.529
333.15	0.08574	1079.296	0.539
333.15	0.1022	1083.082	0.548
333.15	0.119	1086.905	0.558
333.15	0.1435	1092.566	0.572
333.15	0.1684	1098.365	0.586

System: methanol + cobalt(II) perchlorate; phases: Liquid
Fixed: Temperature, K = 298.15
Fixed: Pressure, kPa = 101
Property: Speed of sound, m/s (Liquid); method: Pulse-echo method
Molality, mol/kg of cobalt(II) perchlorate	Speed of sound, m/s	uncertainty
0.04954	1108.25	0.6
0.0652	1110.5	0.6
0.08043	1112.56	0.6
0.09601	1114.62	0.61
0.1106	1116.9	0.61
0.1255	1118.56	0.61
0.157	1122.74	0.62
0.1876	1126.96	0.62
0.2171	1130.99	0.63
0.2464	1135.05	0.63
0.2747	1138.92	0.64
0.3036	1143.04	0.65

System: methanol + cobalt(II) perchlorate; phases: Liquid
Fixed: Pressure, kPa = 101
Property: Mass density, kg/m3 (Liquid); method: VIBTUB:UFactor:4
Temperature, K	Molality, mol/kg of cobalt(II) perchlorate	Mass density, kg/m3	uncertainty
283.15	0	800.55	0.483
283.15	0.04954	810.666	0.469
283.15	0.0652	813.871	0.465
283.15	0.08043	816.972	0.461
283.15	0.09601	820.184	0.457
283.15	0.1106	823.205	0.453
283.15	0.1255	826.259	0.45
283.15	0.157	832.839	0.443
283.15	0.1876	839.345	0.436
283.15	0.2171	845.636	0.428
283.15	0.2464	851.879	0.421
283.15	0.2747	858.053	0.416
283.15	0.3036	864.446	0.409
288.15	0	795.872	0.489
288.15	0.04954	806.009	0.476
288.15	0.0652	809.222	0.471
288.15	0.08043	812.325	0.467
288.15	0.09601	815.542	0.464
288.15	0.1106	818.568	0.46
288.15	0.1255	821.625	0.457
288.15	0.157	828.214	0.449
288.15	0.1876	834.726	0.442
288.15	0.2171	841.028	0.434
288.15	0.2464	847.275	0.428
288.15	0.2747	853.458	0.422
288.15	0.3036	859.854	0.415
293.15	0	791.172	0.496
293.15	0.04954	801.334	0.483
293.15	0.0652	804.551	0.478
293.15	0.08043	807.661	0.474
293.15	0.09601	810.881	0.471
293.15	0.1106	813.913	0.466
293.15	0.1255	816.975	0.463
293.15	0.157	823.572	0.456
293.15	0.1876	830.096	0.449
293.15	0.2171	836.402	0.441
293.15	0.2464	842.656	0.434
293.15	0.2747	848.847	0.429
293.15	0.3036	855.253	0.421
298.15	0	786.464	0.503
298.15	0.04954	796.648	0.489
298.15	0.0652	799.871	0.485
298.15	0.08043	802.983	0.481
298.15	0.09601	806.21	0.477
298.15	0.1106	809.247	0.473
298.15	0.1255	812.313	0.47
298.15	0.157	818.918	0.462
298.15	0.1876	825.452	0.455
298.15	0.2171	831.765	0.447
298.15	0.2464	838.024	0.44
298.15	0.2747	844.226	0.435
298.15	0.3036	850.642	0.428
303.15	0	781.742	0.51
303.15	0.04954	791.945	0.496
303.15	0.0652	795.174	0.491
303.15	0.08043	798.285	0.488
303.15	0.09601	801.517	0.484
303.15	0.1106	804.564	0.48
303.15	0.1255	807.634	0.477
303.15	0.157	814.251	0.469
303.15	0.1876	820.793	0.462
303.15	0.2171	827.115	0.454
303.15	0.2464	833.388	0.447
303.15	0.2747	839.592	0.441
303.15	0.3036	846.019	0.434
308.15	0	776.992	0.517
308.15	0.04954	787.216	0.503
308.15	0.0652	790.456	0.498
308.15	0.08043	793.568	0.494
308.15	0.09601	796.812	0.491
308.15	0.1106	799.855	0.486
308.15	0.1255	802.929	0.483
308.15	0.157	809.557	0.476
308.15	0.1876	816.116	0.468
308.15	0.2171	822.438	0.46
308.15	0.2464	828.73	0.453
308.15	0.2747	834.938	0.448
308.15	0.3036	841.375	0.44
313.15	0	772.214	0.524
313.15	0.04954	782.455	0.51
313.15	0.0652	785.712	0.506
313.15	0.08043	788.838	0.501
313.15	0.09601	792.084	0.498
313.15	0.1106	795.128	0.493
313.15	0.1255	798.211	0.49
313.15	0.157	804.844	0.483
313.15	0.1876	811.415	0.475
313.15	0.2171	817.746	0.467
313.15	0.2464	824.046	0.46
313.15	0.2747	830.254	0.454
313.15	0.3036	836.709	0.447

System: methanol + nickel perchlorate; phases: Liquid
Fixed: Temperature, K = 298.15
Fixed: Pressure, kPa = 101
Property: Speed of sound, m/s (Liquid); method: Pulse-echo method
Molality, mol/kg of nickel perchlorate	Speed of sound, m/s	uncertainty
0.04976	1108.66	0.6
0.06138	1110.29	0.6
0.07317	1111.94	0.6
0.08448	1113.38	0.6
0.09669	1115.24	0.61
0.1085	1116.69	0.61
0.1208	1118.35	0.61
0.1447	1121.7	0.62
0.1676	1124.85	0.62
0.1901	1127.8	0.62
0.2123	1130.56	0.63
0.2356	1134.19	0.63

System: methanol + nickel perchlorate; phases: Liquid
Fixed: Pressure, kPa = 101
Property: Mass density, kg/m3 (Liquid); method: VIBTUB:UFactor:4
Temperature, K	Molality, mol/kg of nickel perchlorate	Mass density, kg/m3	uncertainty
283.15	0	800.541	0.484
283.15	0.04976	810.894	0.471
283.15	0.06138	813.322	0.468
283.15	0.07317	815.812	0.464
283.15	0.08448	818.152	0.461
283.15	0.09669	820.699	0.459
283.15	0.1085	823.23	0.456
283.15	0.1208	825.801	0.452
283.15	0.1447	830.859	0.447
283.15	0.1676	835.774	0.442
283.15	0.1901	840.657	0.436
283.15	0.2123	845.469	0.431
283.15	0.2356	850.636	0.426
288.15	0	795.866	0.491
288.15	0.04976	806.238	0.478
288.15	0.06138	808.669	0.475
288.15	0.07317	811.165	0.471
288.15	0.08448	813.508	0.467
288.15	0.09669	816.056	0.465
288.15	0.1085	818.592	0.462
288.15	0.1208	821.168	0.459
288.15	0.1447	826.231	0.453
288.15	0.1676	831.151	0.448
288.15	0.1901	836.042	0.442
288.15	0.2123	840.858	0.438
288.15	0.2356	846.033	0.432
293.15	0	791.169	0.498
293.15	0.04976	801.564	0.484
293.15	0.06138	804	0.481
293.15	0.07317	806.497	0.478
293.15	0.08448	808.845	0.474
293.15	0.09669	811.401	0.472
293.15	0.1085	813.937	0.469
293.15	0.1208	816.518	0.465
293.15	0.1447	821.586	0.46
293.15	0.1676	826.515	0.454
293.15	0.1901	831.412	0.449
293.15	0.2123	836.233	0.444
293.15	0.2356	841.413	0.439
298.15	0	786.46	0.505
298.15	0.04976	796.875	0.491
298.15	0.06138	799.318	0.488
298.15	0.07317	801.821	0.484
298.15	0.08448	804.169	0.481
298.15	0.09669	806.731	0.479
298.15	0.1085	809.271	0.475
298.15	0.1208	811.856	0.472
298.15	0.1447	816.93	0.466
298.15	0.1676	821.865	0.461
298.15	0.1901	826.771	0.455
298.15	0.2123	831.599	0.45
298.15	0.2356	836.783	0.445
303.15	0	781.733	0.512
303.15	0.04976	792.174	0.498
303.15	0.06138	794.619	0.495
303.15	0.07317	797.126	0.491
303.15	0.08448	799.474	0.487
303.15	0.09669	802.044	0.486
303.15	0.1085	804.589	0.482
303.15	0.1208	807.179	0.478
303.15	0.1447	812.261	0.473
303.15	0.1676	817.198	0.468
303.15	0.1901	822.114	0.462
303.15	0.2123	826.95	0.457
303.15	0.2356	832.14	0.451
308.15	0	776.979	0.519
308.15	0.04976	787.453	0.505
308.15	0.06138	789.897	0.502
308.15	0.07317	792.41	0.498
308.15	0.08448	794.767	0.494
308.15	0.09669	797.34	0.492
308.15	0.1085	799.878	0.489
308.15	0.1208	802.481	0.485
308.15	0.1447	807.568	0.479
308.15	0.1676	812.514	0.474
308.15	0.1901	817.44	0.468
308.15	0.2123	822.28	0.463
308.15	0.2356	827.476	0.458
313.15	0	772.189	0.526
313.15	0.04976	782.702	0.511
313.15	0.06138	785.142	0.508
313.15	0.07317	787.658	0.505
313.15	0.08448	790.033	0.501
313.15	0.09669	792.608	0.499
313.15	0.1085	795.147	0.496
313.15	0.1208	797.759	0.492
313.15	0.1447	802.853	0.486
313.15	0.1676	807.813	0.481
313.15	0.1901	812.739	0.475
313.15	0.2123	817.588	0.47
313.15	0.2356	822.785	0.464

System: methanol + copper(II) trifluoromethanesulfonate; phases: Liquid
Fixed: Temperature, K = 298.15
Fixed: Pressure, kPa = 101
Property: Speed of sound, m/s (Liquid); method: Pulse-echo method
Molality, mol/kg of copper(II) trifluoromethanesulfonate	Speed of sound, m/s	uncertainty
0.1213	1106	0.6
0.1418	1106.61	0.6
0.1772	1107.43	0.61
0.2047	1108.25	0.61
0.231	1109.06	0.61
0.2571	1109.68	0.61
0.2847	1110.5	0.62

System: methanol + copper(II) trifluoromethanesulfonate; phases: Liquid
Fixed: Pressure, kPa = 101
Property: Mass density, kg/m3 (Liquid); method: VIBTUB:UFactor:4
Temperature, K	Molality, mol/kg of copper(II) trifluoromethanesulfonate	Mass density, kg/m3	uncertainty
283.15	0	800.548	0.498
283.15	0.1213	829.484	0.464
283.15	0.1418	834.535	0.458
283.15	0.1772	843.312	0.448
283.15	0.2047	850.214	0.442
283.15	0.231	856.972	0.436
283.15	0.2571	863.707	0.43
283.15	0.2847	871.006	0.424
288.15	0	795.857	0.505
288.15	0.1213	824.791	0.47
288.15	0.1418	829.841	0.464
288.15	0.1772	838.612	0.454
288.15	0.2047	845.512	0.448
288.15	0.231	852.265	0.442
288.15	0.2571	858.996	0.436
288.15	0.2847	866.292	0.429
293.15	0	791.162	0.511
293.15	0.1213	820.094	0.477
293.15	0.1418	825.141	0.471
293.15	0.1772	833.908	0.46
293.15	0.2047	840.803	0.454
293.15	0.231	847.554	0.448
293.15	0.2571	854.279	0.442
293.15	0.2847	861.57	0.435
298.15	0	786.452	0.518
298.15	0.1213	815.38	0.483
298.15	0.1418	820.428	0.477
298.15	0.1772	829.19	0.466
298.15	0.2047	836.081	0.46
298.15	0.231	842.828	0.454
298.15	0.2571	849.545	0.448
298.15	0.2847	856.839	0.441
303.15	0	781.722	0.524
303.15	0.1213	810.649	0.489
303.15	0.1418	815.692	0.483
303.15	0.1772	824.45	0.472
303.15	0.2047	831.338	0.466
303.15	0.231	838.081	0.46
303.15	0.2571	844.805	0.454
303.15	0.2847	852.088	0.446
308.15	0	776.978	0.531
308.15	0.1213	805.885	0.496
308.15	0.1418	810.942	0.489
308.15	0.1772	819.682	0.479
308.15	0.2047	826.565	0.472
308.15	0.231	833.302	0.466
308.15	0.2571	840.033	0.46
308.15	0.2847	847.311	0.452
313.15	0	772.2	0.537
313.15	0.1213	801.107	0.502
313.15	0.1418	806.159	0.496
313.15	0.1772	814.901	0.485
313.15	0.2047	821.777	0.479
313.15	0.231	828.513	0.472
313.15	0.2571	835.231	0.466
313.15	0.2847	842.504	0.458
