Measured thermophysical data. Density and Viscosity of the Binary Mixture of Triethylene Glycol Monoethyl Ether + Water from (293.15 to 333.15) K at Atmospheric Pressure
Source: J. Chem. Eng. Data, 2010, 10.1021/je9008014
Compound 1: 2-(2-(2-ethoxyethoxy)ethoxy)ethanol, C8H18O4, InChI=1S/C8H18O4/c1-2-10-5-6-12-8-7-11-4-3-9/h9H,2-8H2,1H3, purity 97.8%
Compound 2: water, H2O, InChI=1S/H2O/h1H2

System: 2-(2-(2-ethoxyethoxy)ethoxy)ethanol; phases: Liquid
Fixed: Pressure, kPa = 101
Property: Viscosity, Pa*s (Liquid); method: CAPTUB:UFactor:4
Temperature, K	Viscosity, Pa*s	uncertainty
293.15	0.007796	0.000157
298.15	0.006739	0.00014
303.15	0.005657	0.000122
313.15	0.004185	9.4e-05
323.15	0.003326	7.6e-05
333.15	0.002627	6.1e-05

System: 2-(2-(2-ethoxyethoxy)ethoxy)ethanol; phases: Liquid
Fixed: Pressure, kPa = 101
Property: Mass density, kg/m3 (Liquid); method: Pycnometric method
Temperature, K	Mass density, kg/m3	uncertainty
293.15	1020.6	2.1
298.15	1016.3	2.1
303.15	1011.9	2.1
308.15	1008.1	2.1
313.15	1003.9	2.1
323.15	995.5	2
333.15	986.7	2

System: 2-(2-(2-ethoxyethoxy)ethoxy)ethanol + water; phases: Liquid
Fixed: Pressure, kPa = 101
Property: Viscosity, Pa*s (Liquid); method: CAPTUB:UFactor:4
Temperature, K	Mole fraction of 2-(2-(2-ethoxyethoxy)ethoxy)ethanol	Viscosity, Pa*s	uncertainty
293.15	0	0.001005	2.5e-05
293.15	0.01119	0.001484	3.6e-05
293.15	0.02492	0.002221	5.2e-05
293.15	0.04128	0.003256	7.4e-05
293.15	0.06284	0.004832	0.000106
293.15	0.09179	0.006993	0.00014
293.15	0.1317	0.009102	0.000173
293.15	0.1905	0.01054	0.00019
293.15	0.2885	0.01129	0.00021
293.15	0.4019	0.01134	0.00021
293.15	0.4747	0.01093	0.0002
293.15	0.6076	0.01006	0.00019
293.15	0.7399	0.009168	0.000177
293.15	0.8176	0.008738	0.00017
293.15	0.8956	0.008353	0.000165
293.15	1	0.007796	0.000157
298.15	1	0.006739	0.00014
303.15	0	0.0008007	2.04e-05
303.15	0.01119	0.001129	2.8e-05
303.15	0.02492	0.001595	3.8e-05
303.15	0.04128	0.002344	5.4e-05
303.15	0.06284	0.003349	7.5e-05
303.15	0.09179	0.004589	0.0001
303.15	0.1317	0.005955	0.000124
303.15	0.1905	0.007032	0.00014
303.15	0.2885	0.007522	0.000148
303.15	0.4019	0.007547	0.000149
303.15	0.4747	0.007378	0.000147
303.15	0.6076	0.006868	0.000139
303.15	0.7399	0.006386	0.000132
303.15	0.8176	0.006178	0.000129
303.15	0.8956	0.005884	0.000125
303.15	1	0.005657	0.000122
313.15	0	0.000656	1.73e-05
313.15	0.01119	0.0009341	2.38e-05
313.15	0.02492	0.001261	3.1e-05
313.15	0.04128	0.001747	4.1e-05
313.15	0.06284	0.002429	5.5e-05
313.15	0.09179	0.003265	7.3e-05
313.15	0.1317	0.004072	9e-05
313.15	0.1905	0.004899	0.000107
313.15	0.2885	0.005382	0.000115
313.15	0.4019	0.005391	0.000115
313.15	0.4747	0.005226	0.000113
313.15	0.6076	0.004953	0.000109
313.15	0.7399	0.004586	0.000102
313.15	0.8176	0.004457	9.9e-05
313.15	0.8956	0.004315	9.6e-05
313.15	1	0.004185	9.4e-05
323.15	0	0.0005494	1.5e-05
323.15	0.01119	0.0007411	1.95e-05
323.15	0.02492	0.0010127	2.53e-05
323.15	0.04128	0.001369	3.3e-05
323.15	0.06284	0.001859	4.3e-05
323.15	0.09179	0.002436	5.5e-05
323.15	0.1317	0.003015	6.8e-05
323.15	0.1905	0.003558	7.9e-05
323.15	0.2885	0.003942	8.7e-05
323.15	0.4019	0.003965	8.8e-05
323.15	0.4747	0.003885	8.6e-05
323.15	0.6076	0.003735	8.3e-05
323.15	0.7399	0.003552	8e-05
323.15	0.8176	0.003509	7.9e-05
323.15	0.8956	0.003437	7.8e-05
323.15	1	0.003326	7.6e-05
333.15	0	0.0004688	1.32e-05
333.15	0.01119	0.0006117	1.66e-05
333.15	0.02492	0.0008193	2.1e-05
333.15	0.04128	0.001092	2.7e-05
333.15	0.06284	0.001433	3.4e-05
333.15	0.09179	0.001853	4.3e-05
333.15	0.1317	0.002252	5.1e-05
333.15	0.1905	0.002652	6e-05
333.15	0.2885	0.002923	6.6e-05
333.15	0.4019	0.003006	6.8e-05
333.15	0.4747	0.002953	6.7e-05
333.15	0.6076	0.002879	6.5e-05
333.15	0.7399	0.002774	6.3e-05
333.15	0.8176	0.002728	6.2e-05
333.15	0.8956	0.002697	6.2e-05
333.15	1	0.002627	6.1e-05

System: 2-(2-(2-ethoxyethoxy)ethoxy)ethanol + water; phases: Liquid
Fixed: Pressure, kPa = 101
Property: Mass density, kg/m3 (Liquid); method: Pycnometric method
Temperature, K	Mole fraction of 2-(2-(2-ethoxyethoxy)ethoxy)ethanol	Mass density, kg/m3	uncertainty
293.15	0	998.2	2
293.15	0.01119	1006.9	2
293.15	0.02492	1016.6	2
293.15	0.04128	1026.2	2.1
293.15	0.06284	1035.1	2.1
293.15	0.09179	1040.8	2.1
293.15	0.1317	1042.7	2.1
293.15	0.1905	1042.2	2.1
293.15	0.2885	1038.7	2.1
293.15	0.4019	1033.6	2.1
293.15	0.4747	1031.1	2.1
293.15	0.6076	1027.3	2.1
293.15	0.7399	1024.4	2.1
293.15	0.8176	1022.9	2.1
293.15	0.8956	1021.8	2.1
293.15	1	1020.6	2.1
298.15	1	1016.3	2.1
303.15	0	995.7	2
303.15	0.01119	1003.7	2
303.15	0.02492	1012.6	2
303.15	0.04128	1020.7	2.1
303.15	0.06284	1028.7	2.1
303.15	0.09179	1032.8	2.1
303.15	0.1317	1034.9	2.1
303.15	0.1905	1033.9	2.1
303.15	0.2885	1029.8	2.1
303.15	0.4019	1024.9	2.1
303.15	0.4747	1022.3	2.1
303.15	0.6076	1018.5	2.1
303.15	0.7399	1015.5	2.1
303.15	0.8176	1014.1	2.1
303.15	0.8956	1013.1	2.1
303.15	1	1011.9	2.1
308.15	1	1008.1	2.1
313.15	0	992.2	2
313.15	0.01119	999.7	2
313.15	0.02492	1007.5	2
313.15	0.04128	1014.8	2
313.15	0.06284	1021.8	2.1
313.15	0.09179	1025.3	2.1
313.15	0.1317	1026.5	2.1
313.15	0.1905	1025.5	2.1
313.15	0.2885	1021.4	2.1
313.15	0.4019	1016.5	2.1
313.15	0.4747	1013.9	2.1
313.15	0.6076	1010.2	2
313.15	0.7399	1007.4	2
313.15	0.8176	1006.1	2
313.15	0.8956	1005.1	2.1
313.15	1	1003.9	2.1
323.15	0	988.1	2
323.15	0.01119	995.1	2
323.15	0.02492	1002.1	2
323.15	0.04128	1008.7	2
323.15	0.06284	1014.4	2
323.15	0.09179	1017.4	2.1
323.15	0.1317	1018.1	2.1
323.15	0.1905	1016.8	2.1
323.15	0.2885	1012.7	2
323.15	0.4019	1007.7	2
323.15	0.4747	1005.2	2
323.15	0.6076	1001.6	2
323.15	0.7399	998.8	2
323.15	0.8176	997.6	2
323.15	0.8956	996.6	2
323.15	1	995.5	2
333.15	0	983.2	2
333.15	0.01119	989.6	2
333.15	0.02492	995.7	2
333.15	0.04128	1001.9	2
333.15	0.06284	1006.2	2
333.15	0.09179	1008.5	2
333.15	0.1317	1008.7	2
333.15	0.1905	1007.3	2
333.15	0.2885	1003.1	2
333.15	0.4019	998.5	2
333.15	0.4747	996.1	2
333.15	0.6076	992.5	2
333.15	0.7399	989.8	2
333.15	0.8176	988.6	2
333.15	0.8956	987.7	2
333.15	1	986.7	2
