Measured thermophysical data. High-Pressure Vapor-Liquid Equilibrium Data for (Carbon Dioxide + Cyclopentanol) and (Propane + Cyclopentanol)
Source: J. Chem. Eng. Data, 2010, 10.1021/je900305m
Compound 1: carbon dioxide, CO2, InChI=1S/CO2/c2-1-3
Compound 2: propane, C3H8, InChI=1S/C3H8/c1-3-2/h3H2,1-2H3
Compound 3: cyclopentanol, C5H10O, InChI=1S/C5H10O/c6-5-3-1-2-4-5/h5-6H,1-4H2

System: cyclopentanol + carbon dioxide; phases: Liquid, Gas
Property: Vapor or sublimation pressure, kPa (Liquid); method: EBULLIO:UFactor:8
Mole fraction of carbon dioxide	Temperature, K	Vapor or sublimation pressure, kPa	uncertainty
0.0177	373.15	914	35
0.0243	373.15	1154	43
0.0291	403.15	1248	46
0.0726	403.15	3401	126
0.0743	373.15	3154	117
0.0951	373.15	3852	142
0.0978	403.15	4521	167
0.1211	403.15	5627	208
0.1249	403.15	5743	212
0.1279	373.15	5191	192
0.1471	373.15	5787	214
0.1617	403.15	7402	274
0.1776	373.15	6747	249
0.2076	403.15	8914	329
0.2245	373.15	8005	296
0.2578	403.15	10980	406
0.2601	373.15	9089	336
0.3942	373.15	11838	437

System: cyclopentanol + carbon dioxide; phases: Gas, Liquid
Property: Mole fraction of carbon dioxide (Gas); method: Chromatography
Mole fraction of carbon dioxide	Temperature, K	Mole fraction of carbon dioxide	uncertainty
0.0177	373.15	0.9752	0.02
0.0243	373.15	0.977	0.02
0.0291	403.15	0.9264	0.0201
0.0726	403.15	0.9716	0.0201
0.0743	373.15	0.9879	0.0121
0.0951	373.15	0.987	0.013
0.0978	403.15	0.9715	0.02
0.1211	403.15	0.9678	0.0217
0.1249	403.15	0.9743	0.0218
0.1279	373.15	0.987	0.013
0.1471	373.15	0.9891	0.0109
0.1617	403.15	0.9691	0.02
0.1776	373.15	0.9868	0.0132
0.2076	403.15	0.9681	0.02
0.2245	373.15	0.9874	0.0126
0.2578	403.15	0.9656	0.02
0.2601	373.15	0.9878	0.0122
0.3942	373.15	0.9837	0.0163

System: propane + cyclopentanol; phases: Liquid, Gas
Property: Vapor or sublimation pressure, kPa (Liquid); method: EBULLIO:UFactor:8
Mole fraction of propane	Temperature, K	Vapor or sublimation pressure, kPa	uncertainty
0.0279	373.15	216	17
0.0435	353.15	288	18
0.0502	373.15	405	21
0.0502	393.15	579	25
0.0707	373.15	565	25
0.0797	393.15	841	33
0.0838	353.15	550	24
0.0917	393.15	994	38
0.1206	393.15	1227	46
0.1264	373.15	987	38
0.1459	393.15	1539	57
0.1653	353.15	994	38
0.1663	353.15	1016	39
0.1794	373.15	1438	53
0.1949	393.15	1983	73
0.2245	353.15	1307	49
0.2682	393.15	2441	90
0.2733	353.15	1583	59
0.2782	373.15	2027	75
0.292	393.15	2667	99
0.3363	353.15	1874	69
0.3582	373.15	2543	94
0.3753	393.15	3183	118
0.3808	373.15	2689	100
0.4302	353.15	2238	83
0.4415	393.15	3561	132
0.4803	373.15	3030	112
0.4839	373.15	2987	111
0.6098	393.15	4116	152
0.612	353.15	2601	96

System: propane + cyclopentanol; phases: Gas, Liquid
Property: Mole fraction of propane (Gas); method: Chromatography
Mole fraction of propane	Temperature, K	Mole fraction of propane	uncertainty
0.0279	373.15	0.886	0.0203
0.0435	353.15	0.9517	0.02
0.0502	373.15	0.9478	0.0203
0.0502	393.15	0.9083	0.0201
0.0707	373.15	0.9592	0.02
0.0797	393.15	0.9307	0.0202
0.0838	353.15	0.9705	0.02
0.0917	393.15	0.9396	0.0201
0.1206	393.15	0.9431	0.02
0.1264	373.15	0.9731	0.02
0.1459	393.15	0.9502	0.02
0.1653	353.15	0.9891	0.0109
0.1663	353.15	0.9868	0.0132
0.1794	373.15	0.9772	0.02
0.1949	393.15	0.9522	0.02
0.2245	353.15	0.9877	0.0123
0.2682	393.15	0.9546	0.02
0.2733	353.15	0.987	0.013
0.2782	373.15	0.9798	0.02
0.292	393.15	0.9573	0.02
0.3363	353.15	0.9858	0.0142
0.3582	373.15	0.978	0.02
0.3753	393.15	0.9624	0.02
0.3808	373.15	0.9775	0.0201
0.4302	353.15	0.9887	0.0113
0.4415	393.15	0.9613	0.02
0.4803	373.15	0.9827	0.0173
0.4839	373.15	0.9858	0.0142
0.6098	393.15	0.9581	0.02
0.612	353.15	0.9915	0.0085
