Measured thermophysical data. Excess Molar Enthalpies for the Binary and Ternary Mixtures of Cyclohexane, Tetrahydropyran, and Piperidine at 308.15 K and Atmospheric Pressure: Experimental Measurements and Correlations
Source: J. Chem. Eng. Data, 2010, 10.1021/je900347f
Compound 1: cyclohexane, C6H12, InChI=1S/C6H12/c1-2-4-6-5-3-1/h1-6H2
Compound 2: tetrahydropyran, C5H10O, InChI=1S/C5H10O/c1-2-4-6-5-3-1/h1-5H2
Compound 3: piperidine, C5H11N, InChI=1S/C5H11N/c1-2-4-6-5-3-1/h6H,1-5H2

System: cyclohexane + piperidine; phases: Liquid
Fixed: Pressure, kPa = 101
Fixed: Temperature, K = 308.15
Property: Excess molar enthalpy (molar enthalpy of mixing), kJ/mol (Liquid); method: Flow calorimetry
Mole fraction of cyclohexane	Excess molar enthalpy (molar enthalpy of mixing), kJ/mol	uncertainty
0.101	0.258	0.011
0.201	0.476	0.012
0.3	0.65	0.012
0.4	0.78	0.012
0.499	0.845	0.012
0.601	0.847	0.012
0.679	0.795	0.012
0.801	0.635	0.012
0.901	0.391	0.012

System: cyclohexane + tetrahydropyran; phases: Liquid
Fixed: Pressure, kPa = 101
Fixed: Temperature, K = 308.15
Property: Excess molar enthalpy (molar enthalpy of mixing), kJ/mol (Liquid); method: Flow calorimetry
Mole fraction of cyclohexane	Excess molar enthalpy (molar enthalpy of mixing), kJ/mol	uncertainty
0.101	0.157	0.011
0.2	0.294	0.011
0.3	0.412	0.011
0.4	0.49	0.011
0.499	0.526	0.011
0.606	0.519	0.011
0.699	0.461	0.011
0.8	0.355	0.011
0.9	0.198	0.011

System: piperidine + tetrahydropyran; phases: Liquid
Fixed: Pressure, kPa = 101
Fixed: Temperature, K = 308.15
Property: Excess molar enthalpy (molar enthalpy of mixing), kJ/mol (Liquid); method: Flow calorimetry
Mole fraction of tetrahydropyran	Excess molar enthalpy (molar enthalpy of mixing), kJ/mol	uncertainty
0.102	0.104	0.01
0.196	0.182	0.01
0.301	0.243	0.01
0.397	0.279	0.01
0.497	0.292	0.01
0.598	0.284	0.01
0.7	0.251	0.01
0.801	0.194	0.01
0.893	0.116	0.01

System: cyclohexane + piperidine + tetrahydropyran; phases: Liquid
Fixed: Pressure, kPa = 101
Fixed: Temperature, K = 308.15
Property: Excess molar enthalpy (molar enthalpy of mixing), kJ/mol (Liquid); method: Flow calorimetry
Mole fraction of cyclohexane	Mole fraction of tetrahydropyran	Excess molar enthalpy (molar enthalpy of mixing), kJ/mol	uncertainty
0.0403	0.1612	0.228	0.011
0.0598	0.2392	0.296	0.011
0.0794	0.3177	0.316	0.011
0.0795	0.0199	0.208	0.011
0.0994	0.0992	0.279	0.011
0.0998	0.399	0.34	0.011
0.1199	0.4795	0.325	0.01
0.1394	0.5574	0.27	0.01
0.1502	0.1499	0.372	0.011
0.1598	0.6392	0.209	0.01
0.1601	0.04	0.386	0.011
0.1794	0.7174	0.124	0.01
0.2001	0.1998	0.43	0.011
0.2396	0.0598	0.526	0.012
0.2499	0.2495	0.462	0.011
0.3008	0.3003	0.459	0.011
0.3197	0.0798	0.65	0.012
0.35	0.3495	0.421	0.011
0.3916	0.391	0.34	0.011
0.3993	0.0997	0.713	0.012
0.4501	0.4494	0.219	0.011
0.4795	0.1198	0.704	0.012
0.5601	0.199	0.643	0.012
0.7191	0.1796	0.322	0.013
