Measured thermophysical data. Liquid-Liquid Equilibria for the Ternary Systems {Heptane + Toluene + N-Butylpyridinium Tetrafluoroborate or N-Hexylpyridinium Tetrafluoroborate} at T = 313.2 K
Source: J. Chem. Eng. Data, 2010, 10.1021/je9010272
Compound 1: heptane, C7H16, InChI=1S/C7H16/c1-3-5-7-6-4-2/h3-7H2,1-2H3, purity 99.5%
Compound 2: toluene, C7H8, InChI=1S/C7H8/c1-7-5-3-2-4-6-7/h2-6H,1H3, purity 99.7%
Compound 3: 1-butylpyridinium tetrafluoroborate, C9H14BF4N, InChI=1S/C9H14N.BF4/c1-2-3-7-10-8-5-4-6-9-10;2-1(3,4)5/h4-6,8-9H,2-3,7H2,1H3;/q+1;-1, purity 99%
Compound 4: 1-hexylpyridinium tetrafluoroborate, C11H18BF4N, InChI=1S/C11H18N.BF4/c1-2-3-4-6-9-12-10-7-5-8-11-12;2-1(3,4)5/h5,7-8,10-11H,2-4,6,9H2,1H3;/q+1;-1, purity 99%

System: toluene + heptane + 1-butylpyridinium tetrafluoroborate; phases: Liquid mixture 1, Liquid mixture 2
Fixed: Temperature, K = 313.2
Fixed: Pressure, kPa = 101
Property: Mole fraction of heptane (Liquid mixture 1); method: NMR
Property: Mole fraction of heptane (Liquid mixture 2); method: NMR
Property: Mole fraction of toluene (Liquid mixture 2); method: NMR
Mole fraction of toluene	Mole fraction of heptane	uncertainty	Mole fraction of heptane	uncertainty	Mole fraction of toluene	uncertainty
0.0772	0.9228	0.0028	0.0053	0.002	0.033	
0.2376	0.7674	0.0028	0.005	0.002	0.0828	
0.3678	0.6322	0.0029	0.0039	0.002	0.1126	
0.515	0.485	0.0028	0.0052	0.002	0.1833	
0.6379	0.3621	0.0028	0.0047	0.002	0.2461	
0.7321	0.2679	0.0028	0.0039	0.002	0.2894	
0.7968	0.2032	0.0028	0.003	0.002	0.3054	
0.853	0.147	0.0028	0.0023	0.002	0.3119	

System: toluene + heptane + 1-hexylpyridinium tetrafluoroborate; phases: Liquid mixture 1, Liquid mixture 2
Fixed: Temperature, K = 313.2
Fixed: Pressure, kPa = 101
Property: Mole fraction of heptane (Liquid mixture 1); method: NMR
Property: Mole fraction of heptane (Liquid mixture 2); method: NMR
Property: Mole fraction of toluene (Liquid mixture 2); method: NMR
Mole fraction of toluene	Mole fraction of heptane	uncertainty	Mole fraction of heptane	uncertainty	Mole fraction of toluene	uncertainty
0.0663	0.9337	0.0028	0.0244	0.002	0.0444	
0.2174	0.7826	0.0028	0.0229	0.002	0.1279	
0.3332	0.6668	0.0028	0.0222	0.002	0.1767	
0.4847	0.5153	0.0028	0.0233	0.002	0.2695	
0.6254	0.3746	0.0028	0.0208	0.002	0.3328	
0.7108	0.2892	0.0028	0.0185	0.002	0.3949	
0.7943	0.2057	0.0028	0.0143	0.002	0.4522	
0.8348	0.1652	0.0028	0.0136	0.002	0.5064	
