Measured thermophysical data. Relative Permittivities for the Galactose + Glycine + Water Solution from (278.15 to 313.15) K
Source: J. Chem. Eng. Data, 2010, 10.1021/je900333c
Compound 1: (+)-galactose, C6H12O6, InChI=1S/C6H12O6/c7-1-3(9)5(11)6(12)4(10)2-8/h1,3-6,8-12H,2H2/t3-,4+,5+,6-/m0/s1
Compound 2: 2-aminoacetic acid, C2H5NO2, InChI=1S/C2H5NO2/c3-1-2(4)5/h1,3H2,(H,4,5)
Compound 3: water, H2O, InChI=1S/H2O/h1H2

System: 2-aminoacetic acid + water; phases: Liquid
Fixed: Pressure, kPa = 101
Property: Relative permittivity at zero frequency (Liquid); method: dielectric constant meter
Temperature, K	Molality, mol/kg of 2-aminoacetic acid	Relative permittivity at zero frequency	uncertainty
278.15	0.1	88.4	0.2
278.15	0.15	89.5	0.2
278.15	0.2	90.6	0.2
278.15	0.25	91.6	0.2
278.15	0.3	92.8	0.2
283.15	0.1	86.4	0.2
283.15	0.15	87.5	0.2
283.15	0.2	88.6	0.2
283.15	0.25	89.6	0.2
283.15	0.3	90.7	0.2
288.15	0.1	84.5	0.2
288.15	0.15	85.6	0.2
288.15	0.2	86.6	0.2
288.15	0.25	87.6	0.2
288.15	0.3	88.7	0.2
293.15	0.1	82.6	0.2
293.15	0.15	83.6	0.2
293.15	0.2	84.6	0.2
293.15	0.25	85.6	0.2
293.15	0.3	86.5	0.2
298.15	0.1	80.7	0.2
298.15	0.15	81.7	0.2
298.15	0.2	82.6	0.2
298.15	0.25	83.5	0.2
298.15	0.3	84.3	0.2
303.15	0.1	78.8	0.2
303.15	0.15	79.7	0.2
303.15	0.2	80.6	0.2
303.15	0.25	81.4	0.2
303.15	0.3	82.1	0.2
308.15	0.1	76.9	0.2
308.15	0.15	77.8	0.2
308.15	0.2	78.5	0.2
308.15	0.25	79.2	0.2
308.15	0.3	79.7	0.2
313.15	0.1	75	0.2
313.15	0.15	75.8	0.2
313.15	0.2	76.4	0.2
313.15	0.25	77	0.2
313.15	0.3	77.2	0.2

System: 2-aminoacetic acid + (+)-galactose + water; phases: Liquid
Fixed: Pressure, kPa = 101
Property: Relative permittivity at zero frequency (Liquid); method: dielectric constant meter
Molality, mol/kg of 2-aminoacetic acid	Solvent: Molality, mol/kg of (+)-galactose	Temperature, K	Relative permittivity at zero frequency	uncertainty
0.1	0.2	278.15	88	0.2
0.1	0.2	283.15	86.1	0.2
0.1	0.2	288.15	84.2	0.2
0.1	0.2	293.15	82.3	0.2
0.1	0.2	298.15	80.4	0.2
0.1	0.2	303.15	78.5	0.2
0.1	0.2	308.15	76.6	0.2
0.1	0.2	313.15	74.7	0.2
0.1	0.4	278.15	87.3	0.2
0.1	0.4	283.15	85.2	0.2
0.1	0.4	288.15	83.3	0.2
0.1	0.4	293.15	81.3	0.2
0.1	0.4	298.15	79.4	0.2
0.1	0.4	303.15	77.6	0.2
0.1	0.4	308.15	75.7	0.2
0.1	0.4	313.15	74	0.2
0.1	0.6	278.15	86.6	0.2
0.1	0.6	283.15	84.7	0.2
0.1	0.6	288.15	82.8	0.2
0.1	0.6	293.15	80.9	0.2
0.1	0.6	298.15	79	0.2
0.1	0.6	303.15	77.1	0.2
0.1	0.6	308.15	75.3	0.2
0.1	0.6	313.15	73.4	0.2
0.1	0.8	278.15	86	0.2
0.1	0.8	283.15	84.1	0.2
0.1	0.8	288.15	82.2	0.2
0.1	0.8	293.15	80.3	0.2
0.1	0.8	298.15	78.5	0.2
0.1	0.8	303.15	76.6	0.2
0.1	0.8	308.15	74.7	0.2
0.1	0.8	313.15	72.8	0.2
0.1	1	278.15	85.4	0.2
0.1	1	283.15	83.5	0.2
0.1	1	288.15	81.5	0.2
0.1	1	293.15	79.6	0.2
0.1	1	298.15	77.7	0.2
0.1	1	303.15	75.8	0.2
0.1	1	308.15	74	0.2
0.1	1	313.15	72.2	0.2
0.1	1.2	278.15	84.8	0.2
0.1	1.2	283.15	83	0.2
0.1	1.2	288.15	81.1	0.2
0.1	1.2	293.15	79.2	0.2
0.1	1.2	298.15	77.3	0.2
0.1	1.2	303.15	75.4	0.2
0.1	1.2	308.15	73.6	0.2
0.1	1.2	313.15	71.7	0.2
0.15	0.2	278.15	88.8	0.2
0.15	0.2	283.15	86.8	0.2
0.15	0.2	288.15	84.9	0.2
0.15	0.2	293.15	82.9	0.2
0.15	0.2	298.15	80.9	0.2
0.15	0.2	303.15	79	0.2
0.15	0.2	308.15	77	0.2
0.15	0.2	313.15	75.1	0.2
0.15	0.4	278.15	88.2	0.2
0.15	0.4	283.15	86.2	0.2
0.15	0.4	288.15	84.2	0.2
0.15	0.4	293.15	82.3	0.2
0.15	0.4	298.15	80.3	0.2
0.15	0.4	303.15	78.4	0.2
0.15	0.4	308.15	76.4	0.2
0.15	0.4	313.15	74.5	0.2
0.15	0.6	278.15	87.5	0.2
0.15	0.6	283.15	85.6	0.2
0.15	0.6	288.15	83.7	0.2
0.15	0.6	293.15	81.7	0.2
0.15	0.6	298.15	79.7	0.2
0.15	0.6	303.15	77.8	0.2
0.15	0.6	308.15	75.8	0.2
0.15	0.6	313.15	73.9	0.2
0.15	0.8	278.15	86.7	0.2
0.15	0.8	283.15	84.8	0.2
0.15	0.8	288.15	82.9	0.2
0.15	0.8	293.15	81	0.2
0.15	0.8	298.15	79	0.2
0.15	0.8	303.15	77.1	0.2
0.15	0.8	308.15	75.1	0.2
0.15	0.8	313.15	73.3	0.2
0.15	1	278.15	86.1	0.2
0.15	1	283.15	84.3	0.2
0.15	1	288.15	82.2	0.2
0.15	1	293.15	80.3	0.2
0.15	1	298.15	78.4	0.2
0.15	1	303.15	76.4	0.2
0.15	1	308.15	74.5	0.2
0.15	1	313.15	72.6	0.2
0.15	1.2	278.15	85.5	0.2
0.15	1.2	283.15	83.5	0.2
0.15	1.2	288.15	81.5	0.2
0.15	1.2	293.15	79.6	0.2
0.15	1.2	298.15	77.7	0.2
0.15	1.2	303.15	75.8	0.2
0.15	1.2	308.15	73.9	0.2
0.15	1.2	313.15	72	0.2
0.2	0.2	278.15	89.9	0.2
0.2	0.2	283.15	87.9	0.2
0.2	0.2	288.15	85.9	0.2
0.2	0.2	293.15	83.9	0.2
0.2	0.2	298.15	81.8	0.2
0.2	0.2	303.15	79.8	0.2
0.2	0.2	308.15	77.7	0.2
0.2	0.2	313.15	75.5	0.2
0.2	0.4	278.15	89.3	0.2
0.2	0.4	283.15	87.3	0.2
0.2	0.4	288.15	85.3	0.2
0.2	0.4	293.15	83.2	0.2
0.2	0.4	298.15	81.2	0.2
0.2	0.4	303.15	79.1	0.2
0.2	0.4	308.15	77	0.2
0.2	0.4	313.15	74.9	0.2
0.2	0.6	278.15	88.6	0.2
0.2	0.6	283.15	86.6	0.2
0.2	0.6	288.15	84.6	0.2
0.2	0.6	293.15	82.6	0.2
0.2	0.6	298.15	80.6	0.2
0.2	0.6	303.15	78.5	0.2
0.2	0.6	308.15	76.5	0.2
0.2	0.6	313.15	74.3	0.2
0.2	0.8	278.15	87.8	0.2
0.2	0.8	283.15	85.9	0.2
0.2	0.8	288.15	84	0.2
0.2	0.8	293.15	82	0.2
0.2	0.8	298.15	80	0.2
0.2	0.8	303.15	77.9	0.2
0.2	0.8	308.15	75.9	0.2
0.2	0.8	313.15	73.7	0.2
0.2	1	278.15	87.2	0.2
0.2	1	283.15	85.3	0.2
0.2	1	288.15	83.3	0.2
0.2	1	293.15	81.4	0.2
0.2	1	298.15	79.4	0.2
0.2	1	303.15	77.4	0.2
0.2	1	308.15	75.4	0.2
0.2	1	313.15	73.3	0.2
0.2	1.2	278.15	86.7	0.2
0.2	1.2	283.15	84.7	0.2
0.2	1.2	288.15	82.8	0.2
0.2	1.2	293.15	80.8	0.2
0.2	1.2	298.15	78.8	0.2
0.2	1.2	303.15	76.7	0.2
0.2	1.2	308.15	74.6	0.2
0.2	1.2	313.15	72.5	0.2
0.25	0.2	278.15	91.2	0.2
0.25	0.2	283.15	89.1	0.2
0.25	0.2	288.15	87.1	0.2
0.25	0.2	293.15	85.1	0.2
0.25	0.2	298.15	82.9	0.2
0.25	0.2	303.15	80.8	0.2
0.25	0.2	308.15	78.5	0.2
0.25	0.2	313.15	76.1	0.2
0.25	0.4	278.15	90.4	0.2
0.25	0.4	283.15	88.2	0.2
0.25	0.4	288.15	86.3	0.2
0.25	0.4	293.15	84.2	0.2
0.25	0.4	298.15	82	0.2
0.25	0.4	303.15	79.9	0.2
0.25	0.4	308.15	77.6	0.2
0.25	0.4	313.15	75.1	0.2
0.25	0.6	278.15	89.1	0.2
0.25	0.6	283.15	87.2	0.2
0.25	0.6	288.15	85.2	0.2
0.25	0.6	293.15	83.2	0.2
0.25	0.6	298.15	81.1	0.2
0.25	0.6	303.15	79.1	0.2
0.25	0.6	308.15	77	0.2
0.25	0.6	313.15	74.8	0.2
0.25	0.8	278.15	89	0.2
0.25	0.8	283.15	87.1	0.2
0.25	0.8	288.15	85	0.2
0.25	0.8	293.15	83.1	0.2
0.25	0.8	298.15	80.9	0.2
0.25	0.8	303.15	78.7	0.2
0.25	0.8	308.15	76.5	0.2
0.25	0.8	313.15	74.2	0.2
0.25	1	278.15	88.2	0.2
0.25	1	283.15	86.2	0.2
0.25	1	288.15	84.2	0.2
0.25	1	293.15	82.2	0.2
0.25	1	298.15	80.2	0.2
0.25	1	303.15	78.2	0.2
0.25	1	308.15	76	0.2
0.25	1	313.15	73.8	0.2
0.25	1.2	278.15	87.8	0.2
0.25	1.2	283.15	85.8	0.2
0.25	1.2	288.15	83.8	0.2
0.25	1.2	293.15	81.8	0.2
0.25	1.2	298.15	79.7	0.2
0.25	1.2	303.15	77.5	0.2
0.25	1.2	308.15	75.3	0.2
0.25	1.2	313.15	73	0.2
0.3	0.2	278.15	92.3	0.2
0.3	0.2	283.15	90.1	0.2
0.3	0.2	288.15	88	0.2
0.3	0.2	293.15	85.8	0.2
0.3	0.2	298.15	83.6	0.2
0.3	0.2	303.15	81.4	0.2
0.3	0.2	308.15	78.9	0.2
0.3	0.2	313.15	76.6	0.2
0.3	0.4	278.15	91.6	0.2
0.3	0.4	283.15	89.4	0.2
0.3	0.4	288.15	87.3	0.2
0.3	0.4	293.15	85	0.2
0.3	0.4	298.15	82.8	0.2
0.3	0.4	303.15	80.7	0.2
0.3	0.4	308.15	78.2	0.2
0.3	0.4	313.15	75.7	0.2
0.3	0.6	278.15	90.9	0.3
0.3	0.6	283.15	88.7	0.2
0.3	0.6	288.15	86.7	0.2
0.3	0.6	293.15	84.5	0.2
0.3	0.6	298.15	82.2	0.2
0.3	0.6	303.15	80	0.2
0.3	0.6	308.15	77.5	0.2
0.3	0.6	313.15	74.9	0.2
0.3	0.8	278.15	90.1	0.2
0.3	0.8	283.15	87.9	0.2
0.3	0.8	288.15	85.9	0.2
0.3	0.8	293.15	83.6	0.2
0.3	0.8	298.15	81.4	0.2
0.3	0.8	303.15	79.2	0.2
0.3	0.8	308.15	76.9	0.2
0.3	0.8	313.15	74.1	0.2
0.3	1	278.15	89.4	0.2
0.3	1	283.15	87.4	0.2
0.3	1	288.15	85.3	0.2
0.3	1	293.15	83.2	0.2
0.3	1	298.15	81	0.2
0.3	1	303.15	78.8	0.2
0.3	1	308.15	76.5	0.2
0.3	1	313.15	74	0.2
0.3	1.2	278.15	88.8	0.2
0.3	1.2	283.15	86.8	0.2
0.3	1.2	288.15	84.7	0.2
0.3	1.2	293.15	82.5	0.2
0.3	1.2	298.15	80.2	0.2
0.3	1.2	303.15	78.1	0.2
0.3	1.2	308.15	75.9	0.2
0.3	1.2	313.15	73.4	0.2
