Measured thermophysical data. Heat Capacities of Binary Mixtures of Acetic Acid with Acetic Anhydride and Methenamine at Different Temperatures
Source: J. Chem. Eng. Data, 2010, 10.1021/je9006579
Compound 1: 1,3,5,7-tetraazaadamantane, C6H12N4, InChI=1S/C6H12N4/c1-7-2-9-4-8(1)5-10(3-7)6-9/h1-6H2, purity 99%
Compound 2: acetic acid, C2H4O2, InChI=1S/C2H4O2/c1-2(3)4/h1H3,(H,3,4), purity 99.5%
Compound 3: ethanoic anhydride, C4H6O3, InChI=1S/C4H6O3/c1-3(5)7-4(2)6/h1-2H3, purity 98.5%
Compound 4: heptane, C7H16, InChI=1S/C7H16/c1-3-5-7-6-4-2/h3-7H2,1-2H3, purity 98.5%

System: acetic acid; phases: Liquid
Fixed: Pressure, kPa = 101.325
Property: Molar heat capacity at constant pressure, J/K/mol (Liquid); method: Cooling curve
Temperature, K	Molar heat capacity at constant pressure, J/K/mol	uncertainty
313.15	135.5	20.57
333.15	137.21	20.58

System: ethanoic anhydride; phases: Liquid
Fixed: Pressure, kPa = 101.325
Property: Molar heat capacity at constant pressure, J/K/mol (Liquid); method: Cooling curve
Temperature, K	Molar heat capacity at constant pressure, J/K/mol	uncertainty
313.15	200.73	21.22
333.15	204.34	21.26

System: heptane; phases: Liquid
Fixed: Pressure, kPa = 101.325
Property: Molar heat capacity at constant pressure, J/K/mol (Liquid); method: Cooling curve
Temperature, K	Molar heat capacity at constant pressure, J/K/mol	uncertainty
313.15	230.37	21.59
333.15	240.03	21.73

System: acetic acid + ethanoic anhydride; phases: Liquid
Fixed: Pressure, kPa = 101
Property: Molar heat capacity at constant pressure, J/K/mol (Liquid); method: Cooling curve
Temperature, K	Mole fraction of ethanoic anhydride	Molar heat capacity at constant pressure, J/K/mol	uncertainty
308.15	0	134.93	20.56
308.15	0.0613	139.18	20.6
308.15	0.1282	144.25	20.64
308.15	0.2013	149.4	20.69
308.15	0.2817	154.9	20.74
308.15	0.3704	160.85	20.79
308.15	0.4687	167.3	20.86
308.15	0.5785	174.47	20.93
308.15	0.7017	182.33	21.01
308.15	0.8411	190.56	21.1
308.15	1	199.93	21.21
313.15	0	135.5	20.57
313.15	0.0613	139.82	20.6
313.15	0.1282	144.91	20.65
313.15	0.2013	150.09	20.69
313.15	0.2817	155.59	20.74
313.15	0.3704	161.58	20.8
313.15	0.4687	168.08	20.86
313.15	0.5785	175.28	20.94
313.15	0.7017	183.12	21.02
313.15	0.8411	191.49	21.11
313.15	1	200.73	21.22
318.15	0	136	20.57
318.15	0.0613	140.51	20.61
318.15	0.1282	145.46	20.65
318.15	0.2013	150.76	20.7
318.15	0.2817	156.27	20.75
318.15	0.3704	162.26	20.81
318.15	0.4687	168.76	20.87
318.15	0.5785	176.03	20.95
318.15	0.7017	183.96	21.03
318.15	0.8411	192.33	21.12
318.15	1	201.58	21.23
323.15	0	136.35	20.57
323.15	0.0613	141.12	20.61
323.15	0.1282	145.9	20.65
323.15	0.2013	151.31	20.7
323.15	0.2817	156.85	20.75
323.15	0.3704	162.89	20.81
323.15	0.4687	169.45	20.88
323.15	0.5785	176.76	20.95
323.15	0.7017	184.78	21.04
323.15	0.8411	193.23	21.13
323.15	1	202.53	21.24
328.15	0	136.87	20.58
328.15	0.0613	141.75	20.62
328.15	0.1282	146.52	20.66
328.15	0.2013	152.03	20.71
328.15	0.2817	157.59	20.76
328.15	0.3704	163.68	20.82
328.15	0.4687	170.33	20.89
328.15	0.5785	177.68	20.96
328.15	0.7017	185.79	21.05
328.15	0.8411	194.35	21.15
328.15	1	203.67	21.26
333.15	0	137.21	20.58
333.15	0.0613	142.23	20.62
333.15	0.1282	147.13	20.67
333.15	0.2013	152.51	20.71
333.15	0.2817	158.1	20.77
333.15	0.3704	164.24	20.83
333.15	0.4687	170.89	20.89
333.15	0.5785	178.31	20.97
333.15	0.7017	186.44	21.06
333.15	0.8411	195	21.15
333.15	1	204.34	21.26

System: acetic acid + 1,3,5,7-tetraazaadamantane; phases: Liquid
Fixed: Pressure, kPa = 101
Property: Molar heat capacity at constant pressure, J/K/mol (Liquid); method: Vacuum adiabatic calorimetry
Temperature, K	Mole fraction of 1,3,5,7-tetraazaadamantane	Molar heat capacity at constant pressure, J/K/mol	uncertainty
308.15	0.022	137.35	20
308.15	0.0454	144.8	20
308.15	0.0703	151.94	20
308.15	0.0967	159.76	20
308.15	0.1249	170.64	20
308.15	0.1551	180.97	20
308.15	0.1873	191.09	20
308.15	0.2221	203.69	20
313.15	0.022	142.53	20
313.15	0.0454	150.32	20
313.15	0.0703	157.16	20
313.15	0.0967	165.58	20
313.15	0.1249	176.29	20
313.15	0.1551	187.61	20
313.15	0.1873	198.06	20
313.15	0.2221	210.89	20
318.15	0.022	147.51	20
318.15	0.0454	155.25	20
318.15	0.0703	162.14	20
318.15	0.0967	170.38	20
318.15	0.1249	181.92	20
318.15	0.1551	193.63	20
318.15	0.1873	203.66	20
318.15	0.2221	216.63	20
323.15	0.022	152.45	20
323.15	0.0454	160.18	20
323.15	0.0703	166.78	20
323.15	0.0967	175.7	20
323.15	0.1249	186.63	20
323.15	0.1551	198.28	20
323.15	0.1873	209.59	20
323.15	0.2221	222.76	20
328.15	0.022	157.24	20
328.15	0.0454	165.08	20
328.15	0.0703	172	20
328.15	0.0967	180.88	20
328.15	0.1249	191.96	20
328.15	0.1551	204.18	20
328.15	0.1873	214.96	20
333.15	0.022	161.64	20
333.15	0.0454	169.05	20
333.15	0.0703	176.96	20
333.15	0.0967	185.28	20
333.15	0.1249	197.37	20
333.15	0.1551	209.36	20
333.15	0.1873	220.93	20
333.15	0.2221	235.17	20
