Measured thermophysical data. Critical Temperatures and Pressures of Some Tetraalkoxytitaniums
Source: J. Chem. Eng. Data, 2010, 10.1021/je900302n
Compound 1: titanium(IV) butan-1-olate, C16H36O4Ti, InChI=1S/4C4H9O.Ti/c4*1-2-3-4-5;/h4*2-4H2,1H3;/q4*-1;+4
Compound 2: tetraethoxytitanium, C8H20O4Ti, InChI=1S/4C2H5O.Ti/c4*1-2-3;/h4*2H2,1H3;/q4*-1;+4
Compound 3: tetrapropoxytitanium, C12H28O4Ti, InChI=1S/4C3H7O.Ti/c4*1-2-3-4;/h4*2-3H2,1H3;/q4*-1;+4
Compound 4: tetrakis(pentyloxy)titanium, C20H44O4Ti, InChI=1S/4C5H11O.Ti/c4*1-2-3-4-5-6;/h4*2-5H2,1H3;/q4*-1;+4
Compound 5: tetrakis(hexyloxy)titanium, C24H52O4Ti, InChI=1S/4C6H13O.Ti/c4*1-2-3-4-5-6-7;/h4*2-6H2,1H3;/q4*-1;+4
Compound 6: tetraheptoxytitanium, C28H60O4Ti, InChI=1S/4C7H15O.Ti/c4*1-2-3-4-5-6-7-8;/h4*2-7H2,1H3;/q4*-1;+4
Compound 7: tetraoctoxytitanium, C32H68O4Ti, InChI=1S/4C8H17O.Ti/c4*1-2-3-4-5-6-7-8-9;/h4*2-8H2,1H3;/q4*-1;+4
Compound 8: tetranonoxytitanium, C36H76O4Ti, InChI=1S/4C9H19O.Ti/c4*1-2-3-4-5-6-7-8-9-10;/h4*2-9H2,1H3;/q4*-1;+4
Compound 9: tetra(decyloxy)titanium, C40H84O4Ti, InChI=1S/4C10H21O.Ti/c4*1-2-3-4-5-6-7-8-9-10-11;/h4*2-10H2,1H3;/q4*-1;+4

System: titanium(IV) butan-1-olate; phases: Liquid, Gas
Property: Critical pressure, kPa (Liquid); method: pulse heating
Critical pressure, kPa	uncertainty
1020	60

System: titanium(IV) butan-1-olate; phases: Liquid, Gas
Property: Critical temperature, K (Liquid); method: pulse heating
Critical temperature, K	uncertainty
719	14

System: tetraethoxytitanium; phases: Liquid, Gas
Property: Critical pressure, kPa (Liquid); method: pulse heating
Critical pressure, kPa	uncertainty
1400	80

System: tetraethoxytitanium; phases: Liquid, Gas
Property: Critical temperature, K (Liquid); method: pulse heating
Critical temperature, K	uncertainty
647	12

System: tetrapropoxytitanium; phases: Liquid, Gas
Property: Critical pressure, kPa (Liquid); method: pulse heating
Critical pressure, kPa	uncertainty
1150	80

System: tetrapropoxytitanium; phases: Liquid, Gas
Property: Critical temperature, K (Liquid); method: pulse heating
Critical temperature, K	uncertainty
685	14

System: tetrakis(pentyloxy)titanium; phases: Liquid, Gas
Property: Critical pressure, kPa (Liquid); method: pulse heating
Critical pressure, kPa	uncertainty
910	60

System: tetrakis(pentyloxy)titanium; phases: Liquid, Gas
Property: Critical temperature, K (Liquid); method: pulse heating
Critical temperature, K	uncertainty
751	16

System: tetrakis(hexyloxy)titanium; phases: Liquid, Gas
Property: Critical pressure, kPa (Liquid); method: pulse heating
Critical pressure, kPa	uncertainty
780	40

System: tetrakis(hexyloxy)titanium; phases: Liquid, Gas
Property: Critical temperature, K (Liquid); method: pulse heating
Critical temperature, K	uncertainty
780	16

System: tetraheptoxytitanium; phases: Liquid, Gas
Property: Critical pressure, kPa (Liquid); method: pulse heating
Critical pressure, kPa	uncertainty
730	40

System: tetraheptoxytitanium; phases: Liquid, Gas
Property: Critical temperature, K (Liquid); method: pulse heating
Critical temperature, K	uncertainty
808	16

System: tetraoctoxytitanium; phases: Liquid, Gas
Property: Critical pressure, kPa (Liquid); method: pulse heating
Critical pressure, kPa	uncertainty
660	40

System: tetraoctoxytitanium; phases: Liquid, Gas
Property: Critical temperature, K (Liquid); method: pulse heating
Critical temperature, K	uncertainty
831	16

System: tetranonoxytitanium; phases: Liquid, Gas
Property: Critical pressure, kPa (Liquid); method: pulse heating
Critical pressure, kPa	uncertainty
630	40

System: tetranonoxytitanium; phases: Liquid, Gas
Property: Critical temperature, K (Liquid); method: pulse heating
Critical temperature, K	uncertainty
855	18

System: tetra(decyloxy)titanium; phases: Liquid, Gas
Property: Critical pressure, kPa (Liquid); method: pulse heating
Critical pressure, kPa	uncertainty
610	40

System: tetra(decyloxy)titanium; phases: Liquid, Gas
Property: Critical temperature, K (Liquid); method: pulse heating
Critical temperature, K	uncertainty
882	18
