Measured thermophysical data. Pure Component and Binary Vapor-Liquid Equilibrium + Modeling for Hexafluoropropylene and Hexafluoropropylene Oxide with Toluene and Hexafluoroethane
Source: J. Chem. Eng. Data, 2010, 10.1021/je900400v
Compound 1: hexafluoropropene, C3F6, InChI=1S/C3F6/c4-1(2(5)6)3(7,8)9, purity 99.5%
Compound 2: 2,2,3-trifluoro-3-(trifluoromethyl)oxirane, C3F6O, InChI=1S/C3F6O/c4-1(2(5,6)7)3(8,9)10-1, purity 99%
Compound 3: toluene, C7H8, InChI=1S/C7H8/c1-7-5-3-2-4-6-7/h2-6H,1H3, purity 99.9%
Compound 4: hexafluoroethane, C2F6, InChI=1S/C2F6/c3-1(4,5)2(6,7)8, purity 99.999%

System: hexafluoropropene; phases: Liquid, Gas
Property: Vapor or sublimation pressure, kPa (Liquid); method: Closed cell (Static) method
Temperature, K	Vapor or sublimation pressure, kPa	uncertainty
272.33	327.1	1.4
279.64	420.7	1.7
299.34	763.3	2.2
302.24	825.7	2.4
312.33	1077.3	2.8
317.63	1232.1	3.1

System: 2,2,3-trifluoro-3-(trifluoromethyl)oxirane; phases: Liquid, Gas
Property: Vapor or sublimation pressure, kPa (Liquid); method: Closed cell (Static) method
Temperature, K	Vapor or sublimation pressure, kPa	uncertainty
271.88	302.2	1.5
295.53	649.9	2.1
300.47	745.6	2.2
303.11	798.5	2.3
306.5	874.7	2.5
310.48	970.1	2.7
312.64	1024.9	2.9
318.16	1175.3	3.1

System: toluene + 2,2,3-trifluoro-3-(trifluoromethyl)oxirane; phases: Liquid, Gas
Property: Vapor or sublimation pressure, kPa (Liquid); method: Closed cell (Static) method
Temperature, K	Mole fraction of 2,2,3-trifluoro-3-(trifluoromethyl)oxirane	Vapor or sublimation pressure, kPa	uncertainty
273.15	0.1765	193	10
273.15	0.2771	197	10
273.15	0.3722	205	10
273.15	0.7306	201	10
313.15	0.1615	797	9
313.15	0.1765	813	9
313.15	0.2771	816	9
313.15	0.3722	829	9
313.15	0.7306	809	9

System: hexafluoroethane + hexafluoropropene; phases: Liquid, Gas
Property: Vapor or sublimation pressure, kPa (Liquid); method: Closed cell (Static) method
Temperature, K	Mole fraction of hexafluoropropene	Vapor or sublimation pressure, kPa	uncertainty
273.15	0.1154	505.7	10.9
273.15	0.2463	693.5	13.9
273.15	0.4612	1013.3	14.4
273.15	0.5884	1186.3	12.3
273.15	0.7457	1418	13.8
273.15	0.8218	1540.2	14.4
313.15	0.1454	1676	10
313.15	0.2652	2049.3	11.3
313.15	0.4367	2602.1	12.2
313.15	0.5425	2962.1	13.1
313.15	0.6437	3298.3	13.9

System: hexafluoroethane + 2,2,3-trifluoro-3-(trifluoromethyl)oxirane; phases: Liquid, Gas
Property: Vapor or sublimation pressure, kPa (Liquid); method: Closed cell (Static) method
Temperature, K	Mole fraction of hexafluoroethane	Vapor or sublimation pressure, kPa	uncertainty
273.15	0.1562	531.4	12.1
273.15	0.3267	772.5	12.4
273.15	0.5111	1037.1	12.7
273.15	0.6036	1177.2	12.1
273.15	0.7422	1401.5	14.1
273.15	0.8768	1629.3	15
313.15	0.1654	1656	10.7
313.15	0.269	1998.4	11.1
313.15	0.4312	2541.9	13.8
313.15	0.5696	3022.4	13.4
313.15	0.6645	3398.6	14.8

System: toluene + hexafluoropropene; phases: Liquid, Gas
Property: Vapor or sublimation pressure, kPa (Liquid); method: Closed cell (Static) method
Temperature, K	Mole fraction of hexafluoropropene	Vapor or sublimation pressure, kPa	uncertainty
273.15	0.0854	87	10
273.15	0.205	166	10
273.15	0.3909	190	10
273.15	0.704	186	10
313.15	0.0854	349	8
313.15	0.205	622	8
313.15	0.3909	747	8
313.15	0.704	790	9
