Measured thermophysical data. Thermophysical Properties of Amino Acid-Based Ionic Liquids
Source: J. Chem. Eng. Data, 2010, 10.1021/je900660x
Compound 1: N,N-dibutyl-N-methyl-1-butanaminium 2-aminoethanesulfonate, C15H36N2O3S, InChI=1S/C13H30N.C2H7NO3S/c1-5-8-11-14(4,12-9-6-2)13-10-7-3;3-1-2-7(4,5)6/h5-13H2,1-4H3;1-3H2,(H,4,5,6)/q+1;/p-1
Compound 2: N,N-dibutyl-N-methyl-1-butanaminium L-lysinate, C19H43N3O2, InChI=1S/C13H30N.C6H14N2O2/c1-5-8-11-14(4,12-9-6-2)13-10-7-3;7-4-2-1-3-5(8)6(9)10/h5-13H2,1-4H3;5H,1-4,7-8H2,(H,9,10)/q+1;/p-1/t;5-/m.0/s1
Compound 3: N,N-dibutyl-N-methyl-1-butanaminium L-threoninate, C17H38N2O3, InChI=1S/C13H30N.C4H9NO3/c1-5-8-11-14(4,12-9-6-2)13-10-7-3;1-2(6)3(5)4(7)8/h5-13H2,1-4H3;2-3,6H,5H2,1H3,(H,7,8)/q+1;/p-1/t;2-,3+/m.1/s1
Compound 4: tetrabutylphosphonium L-serinate, C19H42NO3P, InChI=1S/C16H36P.C3H7NO3/c1-5-9-13-17(14-10-6-2,15-11-7-3)16-12-8-4;4-2(1-5)3(6)7/h5-16H2,1-4H3;2,5H,1,4H2,(H,6,7)/q+1;/p-1/t;2-/m.0/s1
Compound 5: tetrabutylphosphonium 2-aminoethanesulfonate, C18H42NO3PS, InChI=1S/C16H36P.C2H7NO3S/c1-5-9-13-17(14-10-6-2,15-11-7-3)16-12-8-4;3-1-2-7(4,5)6/h5-16H2,1-4H3;1-3H2,(H,4,5,6)/q+1;/p-1
Compound 6: tetrabutylphosphonium L-lysinate, C22H49N2O2P, InChI=1S/C16H36P.C6H14N2O2/c1-5-9-13-17(14-10-6-2,15-11-7-3)16-12-8-4;7-4-2-1-3-5(8)6(9)10/h5-16H2,1-4H3;5H,1-4,7-8H2,(H,9,10)/q+1;/p-1/t;5-/m.0/s1
Compound 7: tetrabutylphosphonium L-threoninate, C20H44NO3P, InChI=1S/C16H36P.C4H9NO3/c1-5-9-13-17(14-10-6-2,15-11-7-3)16-12-8-4;1-2(6)3(5)4(7)8/h5-16H2,1-4H3;2-3,6H,5H2,1H3,(H,7,8)/q+1;/p-1/t;2-,3+/m.1/s1
Compound 8: tetrabutylphosphonium L-prolinate, C21H44NO2P, InChI=1S/C16H36P.C5H9NO2/c1-5-9-13-17(14-10-6-2,15-11-7-3)16-12-8-4;7-5(8)4-2-1-3-6-4/h5-16H2,1-4H3;4,6H,1-3H2,(H,7,8)/q+1;/p-1/t;4-/m.0/s1
Compound 9: tetrabutylphosphonium L-valinate, C21H46NO2P, InChI=1S/C16H36P.C5H11NO2/c1-5-9-13-17(14-10-6-2,15-11-7-3)16-12-8-4;1-3(2)4(6)5(7)8/h5-16H2,1-4H3;3-4H,6H2,1-2H3,(H,7,8)/q+1;/p-1/t;4-/m.0/s1
Compound 10: tetrabutylphosphonium L-cysteinate, C19H42NO2PS, InChI=1S/C16H36P.C3H7NO2S/c1-5-9-13-17(14-10-6-2,15-11-7-3)16-12-8-4;4-2(1-7)3(5)6/h5-16H2,1-4H3;2,7H,1,4H2,(H,5,6)/q+1;/p-1/t;2-/m.0/s1
Compound 11: N,N-dibutyl-N-methylbutanaminium L-serinate, C16H36N2O3, InChI=1S/C13H30N.C3H7NO3/c1-5-8-11-14(4,12-9-6-2)13-10-7-3;4-2(1-5)3(6)7/h5-13H2,1-4H3;2,5H,1,4H2,(H,6,7)/q+1;/p-1/t;2-/m.0/s1

System: N,N-dibutyl-N-methyl-1-butanaminium 2-aminoethanesulfonate; phases: Glass, Liquid, Air at 1 atmosphere
Property: Triple point temperature, K (Glass); method: DTA
Triple point temperature, K	uncertainty
218.92	4

System: N,N-dibutyl-N-methyl-1-butanaminium 2-aminoethanesulfonate; phases: Liquid
Fixed: Pressure, kPa = 101.325
Property: Molar heat capacity at constant pressure, J/K/mol (Liquid); method: Large sample (1 g) DSC
Temperature, K	Molar heat capacity at constant pressure, J/K/mol	uncertainty
293.15	822.3	83
298.15	826.9	83.5
303.15	831.7	84
313.15	842.5	85.1
323.15	853.2	86.2
333.15	863.2	87.2
343.15	872.6	88.1
353.15	882.4	89.1
363.15	891.5	90

System: N,N-dibutyl-N-methyl-1-butanaminium 2-aminoethanesulfonate; phases: Liquid
Fixed: Pressure, kPa = 101.325
Property: Thermal conductivity, W/m/K (Liquid); method: Hot wire method
Temperature, K	Thermal conductivity, W/m/K	uncertainty
298.15	0.161	0.01
303.15	0.16	0.01
313.15	0.159	0.01
323.15	0.158	0.01
333.15	0.157	0.01
343.15	0.156	0.01
353.15	0.155	0.01

System: N,N-dibutyl-N-methyl-1-butanaminium 2-aminoethanesulfonate; phases: Liquid
Fixed: Pressure, kPa = 101.325
Property: Viscosity, Pa*s (Liquid); method: CAPTUB:UFactor:4
Temperature, K	Viscosity, Pa*s	uncertainty
298.15	6.674	2.205
303.15	3.965	1.171
313.15	1.6	0.376
323.15	0.716	0.1298
333.15	0.3575	0.0484
343.15	0.1934	0.0184
353.15	0.1082	0.0063
363.15	0.0668	0.0021

System: N,N-dibutyl-N-methyl-1-butanaminium 2-aminoethanesulfonate; phases: Liquid
Fixed: Pressure, kPa = 101.325
Property: Mass density, kg/m3 (Liquid); method: Vibrating tube method
Temperature, K	Mass density, kg/m3	uncertainty
293.15	1054.1	6
298.15	1051.1	6
303.15	1048.1	5.9
313.15	1041.6	5.9
323.15	1035.7	5.8
333.15	1029.8	5.7
343.15	1023.9	5.7
353.15	1018	5.6
363.15	1012.1	5.5

System: N,N-dibutyl-N-methyl-1-butanaminium L-lysinate; phases: Glass, Liquid, Air at 1 atmosphere
Property: Triple point temperature, K (Glass); method: DTA
Triple point temperature, K	uncertainty
213.76	4

System: N,N-dibutyl-N-methyl-1-butanaminium L-lysinate; phases: Liquid
Fixed: Pressure, kPa = 101.325
Property: Molar heat capacity at constant pressure, J/K/mol (Liquid); method: Large sample (1 g) DSC
Temperature, K	Molar heat capacity at constant pressure, J/K/mol	uncertainty
293.15	817.3	82.5
298.15	823.8	83.2
303.15	830.8	83.9
313.15	845.6	85.4
323.15	861.2	87
333.15	877.7	88.6
343.15	893.3	90.2
353.15	909.5	91.9
363.15	925.1	93.4

System: N,N-dibutyl-N-methyl-1-butanaminium L-lysinate; phases: Liquid
Fixed: Pressure, kPa = 101.325
Property: Thermal conductivity, W/m/K (Liquid); method: Hot wire method
Temperature, K	Thermal conductivity, W/m/K	uncertainty
298.15	0.171	0.01
303.15	0.17	0.01
313.15	0.169	0.01
323.15	0.168	0.01
333.15	0.167	0.01
343.15	0.166	0.01
353.15	0.165	0.01

System: N,N-dibutyl-N-methyl-1-butanaminium L-lysinate; phases: Liquid
Fixed: Pressure, kPa = 101.325
Property: Viscosity, Pa*s (Liquid); method: CAPTUB:UFactor:4
Temperature, K	Viscosity, Pa*s	uncertainty
298.15	2.593	0.692
303.15	1.679	0.4
313.15	0.7414	0.1361
323.15	0.3686	0.0507
333.15	0.2002	0.0195
343.15	0.1129	0.0069
353.15	0.0683	0.0023
363.15	0.0439	0.0013

System: N,N-dibutyl-N-methyl-1-butanaminium L-lysinate; phases: Liquid
Fixed: Pressure, kPa = 101.325
Property: Mass density, kg/m3 (Liquid); method: Vibrating tube method
Temperature, K	Mass density, kg/m3	uncertainty
293.15	982.9	5.2
298.15	979.7	5.2
303.15	976.7	5.2
313.15	970.7	5.1
323.15	964.7	5
333.15	958.6	5
343.15	952.7	4.9
353.15	946.8	4.9
363.15	940.8	4.8

System: N,N-dibutyl-N-methyl-1-butanaminium L-threoninate; phases: Glass, Liquid, Air at 1 atmosphere
Property: Triple point temperature, K (Glass); method: DTA
Triple point temperature, K	uncertainty
221.21	4

System: N,N-dibutyl-N-methyl-1-butanaminium L-threoninate; phases: Liquid
Fixed: Pressure, kPa = 101.325
Property: Molar heat capacity at constant pressure, J/K/mol (Liquid); method: Large sample (1 g) DSC
Temperature, K	Molar heat capacity at constant pressure, J/K/mol	uncertainty
293.15	748.5	75.6
298.15	752.6	76
303.15	757.1	76.5
313.15	766.9	77.5
323.15	777.4	78.5
333.15	789.2	79.7
343.15	801	80.9
353.15	811.5	82
363.15	821.1	82.9

System: N,N-dibutyl-N-methyl-1-butanaminium L-threoninate; phases: Liquid
Fixed: Pressure, kPa = 101.325
Property: Thermal conductivity, W/m/K (Liquid); method: Hot wire method
Temperature, K	Thermal conductivity, W/m/K	uncertainty
298.15	0.16	0.01
303.15	0.159	0.01
313.15	0.158	0.01
323.15	0.157	0.01
333.15	0.156	0.01
343.15	0.155	0.01
353.15	0.154	0.01

System: N,N-dibutyl-N-methyl-1-butanaminium L-threoninate; phases: Liquid
Fixed: Pressure, kPa = 101.325
Property: Viscosity, Pa*s (Liquid); method: CAPTUB:UFactor:4
Temperature, K	Viscosity, Pa*s	uncertainty
298.15	8.368	2.891
303.15	4.916	1.523
313.15	1.845	0.451
323.15	0.7913	0.1487
333.15	0.3776	0.0525
343.15	0.2006	0.0196
353.15	0.1109	0.0067
363.15	0.0662	0.0021

System: N,N-dibutyl-N-methyl-1-butanaminium L-threoninate; phases: Liquid
Fixed: Pressure, kPa = 101.325
Property: Mass density, kg/m3 (Liquid); method: Vibrating tube method
Temperature, K	Mass density, kg/m3	uncertainty
293.15	1002.6	5.4
298.15	999.5	5.4
303.15	996.4	5.4
313.15	990	5.3
323.15	983.7	5.2
333.15	977.7	5.2
343.15	971.7	5.1
353.15	965.7	5
363.15	959.8	5

System: tetrabutylphosphonium L-serinate; phases: Glass, Liquid, Air at 1 atmosphere
Property: Triple point temperature, K (Glass); method: DTA
Triple point temperature, K	uncertainty
213.77	4

System: tetrabutylphosphonium L-serinate; phases: Liquid
Fixed: Pressure, kPa = 101.325
Property: Molar heat capacity at constant pressure, J/K/mol (Liquid); method: Large sample (1 g) DSC
Temperature, K	Molar heat capacity at constant pressure, J/K/mol	uncertainty
293.15	742	74.9
298.15	748.5	75.6
303.15	755.1	76.3
313.15	765.6	77.3
323.15	776.5	78.4
333.15	787.4	79.5
343.15	797.6	80.6
353.15	807.8	81.6
363.15	814.7	82.3

System: tetrabutylphosphonium L-serinate; phases: Liquid
Fixed: Pressure, kPa = 101.325
Property: Thermal conductivity, W/m/K (Liquid); method: Hot wire method
Temperature, K	Thermal conductivity, W/m/K	uncertainty
298.15	0.161	0.01
303.15	0.16	0.01
313.15	0.159	0.01
323.15	0.158	0.01
333.15	0.157	0.01
343.15	0.156	0.01
353.15	0.155	0.01

System: tetrabutylphosphonium L-serinate; phases: Liquid
Fixed: Pressure, kPa = 101.325
Property: Viscosity, Pa*s (Liquid); method: CAPTUB:UFactor:4
Temperature, K	Viscosity, Pa*s	uncertainty
298.15	1.143	0.243
303.15	0.7784	0.1455
313.15	0.3954	0.0562
323.15	0.2094	0.021
333.15	0.1229	0.0082
343.15	0.0776	0.0031
353.15	0.0497	0.0015
363.15	0.0341	0.001

System: tetrabutylphosphonium L-serinate; phases: Liquid
Fixed: Pressure, kPa = 101.325
Property: Mass density, kg/m3 (Liquid); method: Vibrating tube method
Temperature, K	Mass density, kg/m3	uncertainty
293.15	995.5	5.3
298.15	992.3	5.3
303.15	989.2	5.3
313.15	983	5.2
323.15	976.9	5.2
333.15	970.8	5.1
343.15	964.8	5
353.15	958.9	5
363.15	953	4.9

System: tetrabutylphosphonium 2-aminoethanesulfonate; phases: Glass, Liquid, Air at 1 atmosphere
Property: Triple point temperature, K (Glass); method: DTA
Triple point temperature, K	uncertainty
215.01	4

System: tetrabutylphosphonium 2-aminoethanesulfonate; phases: Liquid
Fixed: Pressure, kPa = 101.325
Property: Molar heat capacity at constant pressure, J/K/mol (Liquid); method: Large sample (1 g) DSC
Temperature, K	Molar heat capacity at constant pressure, J/K/mol	uncertainty
293.15	987.7	99.8
298.15	994.6	100.4
303.15	1001.6	101.2
313.15	1015	102.5
323.15	1028.4	103.9
333.15	1042.6	105.3
343.15	1057.6	106.8
353.15	1073.7	108.4
363.15	1088.6	109.9

System: tetrabutylphosphonium 2-aminoethanesulfonate; phases: Liquid
Fixed: Pressure, kPa = 101.325
Property: Thermal conductivity, W/m/K (Liquid); method: Hot wire method
Temperature, K	Thermal conductivity, W/m/K	uncertainty
298.15	0.16	0.01
303.15	0.16	0.01
313.15	0.159	0.01
323.15	0.158	0.01
333.15	0.157	0.01
343.15	0.156	0.01
353.15	0.155	0.01

System: tetrabutylphosphonium 2-aminoethanesulfonate; phases: Liquid
Fixed: Pressure, kPa = 101.325
Property: Viscosity, Pa*s (Liquid); method: CAPTUB:UFactor:4
Temperature, K	Viscosity, Pa*s	uncertainty
298.15	1.019	0.209
303.15	0.7126	0.129
313.15	0.3455	0.046
323.15	0.1862	0.0173
333.15	0.1067	0.0062
343.15	0.0675	0.0022
353.15	0.0442	0.0013
363.15	0.0296	0.0009

System: tetrabutylphosphonium 2-aminoethanesulfonate; phases: Liquid
Fixed: Pressure, kPa = 101.325
Property: Mass density, kg/m3 (Liquid); method: Vibrating tube method
Temperature, K	Mass density, kg/m3	uncertainty
293.15	1030.1	5.7
298.15	1026.8	5.7
303.15	1023.7	5.7
313.15	1017.6	5.6
323.15	1011.5	5.5
333.15	1005.3	5.5
343.15	999.2	5.4
353.15	993.3	5.3
363.15	987.3	5.3

System: tetrabutylphosphonium L-lysinate; phases: Glass, Liquid, Air at 1 atmosphere
Property: Triple point temperature, K (Glass); method: DTA
Triple point temperature, K	uncertainty
206.4	4

System: tetrabutylphosphonium L-lysinate; phases: Liquid
Fixed: Pressure, kPa = 101.325
Property: Molar heat capacity at constant pressure, J/K/mol (Liquid); method: Large sample (1 g) DSC
Temperature, K	Molar heat capacity at constant pressure, J/K/mol	uncertainty
293.15	987.3	99.7
298.15	997.4	100.7
303.15	1004.3	101.4
313.15	1021.3	103.1
323.15	1040.3	105.1
333.15	1060.1	107.1
343.15	1077.9	108.9
353.15	1096.5	110.7
363.15	1111.5	112.3

System: tetrabutylphosphonium L-lysinate; phases: Liquid
Fixed: Pressure, kPa = 101.325
Property: Thermal conductivity, W/m/K (Liquid); method: Hot wire method
Temperature, K	Thermal conductivity, W/m/K	uncertainty
298.15	0.163	0.01
303.15	0.163	0.01
313.15	0.162	0.01
323.15	0.161	0.01
333.15	0.16	0.01
343.15	0.159	0.01
353.15	0.158	0.01

System: tetrabutylphosphonium L-lysinate; phases: Liquid
Fixed: Pressure, kPa = 101.325
Property: Viscosity, Pa*s (Liquid); method: CAPTUB:UFactor:4
Temperature, K	Viscosity, Pa*s	uncertainty
298.15	0.741	0.136
303.15	0.5198	0.0832
313.15	0.2687	0.0314
323.15	0.1497	0.0118
333.15	0.0904	0.0043
343.15	0.0598	0.0017
353.15	0.0397	0.0012
363.15	0.0275	0.0008

System: tetrabutylphosphonium L-lysinate; phases: Liquid
Fixed: Pressure, kPa = 101.325
Property: Mass density, kg/m3 (Liquid); method: Vibrating tube method
Temperature, K	Mass density, kg/m3	uncertainty
293.15	970.5	5.1
298.15	967.5	5.1
303.15	964.4	5
313.15	958.4	5
323.15	952.3	4.9
333.15	946.2	4.9
343.15	940.3	4.8
353.15	934.4	4.7
363.15	928.6	4.7

System: tetrabutylphosphonium L-threoninate; phases: Glass, Liquid, Air at 1 atmosphere
Property: Triple point temperature, K (Glass); method: DTA
Triple point temperature, K	uncertainty
212.43	4

System: tetrabutylphosphonium L-threoninate; phases: Liquid
Fixed: Pressure, kPa = 101.325
Property: Molar heat capacity at constant pressure, J/K/mol (Liquid); method: Large sample (1 g) DSC
Temperature, K	Molar heat capacity at constant pressure, J/K/mol	uncertainty
293.15	952.2	96.2
298.15	961.3	97.1
303.15	970.7	98
313.15	991.5	100.1
323.15	1012.6	102.3
333.15	1033.4	104.4
343.15	1055.7	106.6
353.15	1076.4	108.7
363.15	1097.2	110.8

System: tetrabutylphosphonium L-threoninate; phases: Liquid
Fixed: Pressure, kPa = 101.325
Property: Thermal conductivity, W/m/K (Liquid); method: Hot wire method
Temperature, K	Thermal conductivity, W/m/K	uncertainty
298.15	0.156	0.01
303.15	0.155	0.01
313.15	0.154	0.01
323.15	0.153	0.01
333.15	0.152	0.01
343.15	0.152	0.01
353.15	0.151	0.01

System: tetrabutylphosphonium L-threoninate; phases: Liquid
Fixed: Pressure, kPa = 101.325
Property: Viscosity, Pa*s (Liquid); method: CAPTUB:UFactor:4
Temperature, K	Viscosity, Pa*s	uncertainty
298.15	0.739	0.1355
303.15	0.5198	0.0832
313.15	0.2601	0.0298
323.15	0.1432	0.0109
333.15	0.0885	0.0041
343.15	0.0539	0.0014
353.15	0.0362	0.0011
363.15	0.0251	0.0008

System: tetrabutylphosphonium L-threoninate; phases: Liquid
Fixed: Pressure, kPa = 101.325
Property: Mass density, kg/m3 (Liquid); method: Vibrating tube method
Temperature, K	Mass density, kg/m3	uncertainty
293.15	983	5.2
298.15	979.9	5.2
303.15	976.9	5.2
313.15	970.7	5.1
323.15	964.6	5
333.15	958.5	5
343.15	952.5	4.9
353.15	946.6	4.9
363.15	940.7	4.8

System: tetrabutylphosphonium L-prolinate; phases: Glass, Liquid, Air at 1 atmosphere
Property: Triple point temperature, K (Glass); method: DTA
Triple point temperature, K	uncertainty
207.28	4

System: tetrabutylphosphonium L-prolinate; phases: Liquid
Fixed: Pressure, kPa = 101.325
Property: Molar heat capacity at constant pressure, J/K/mol (Liquid); method: Large sample (1 g) DSC
Temperature, K	Molar heat capacity at constant pressure, J/K/mol	uncertainty
293.15	838	84.6
298.15	844.2	85.3
303.15	850.4	85.9
313.15	864.1	87.3
323.15	879.7	88.8
333.15	894.8	90.4
343.15	910.1	91.9
353.15	925.8	93.5
363.15	939.4	94.9

System: tetrabutylphosphonium L-prolinate; phases: Liquid
Fixed: Pressure, kPa = 101.325
Property: Thermal conductivity, W/m/K (Liquid); method: Hot wire method
Temperature, K	Thermal conductivity, W/m/K	uncertainty
298.15	0.154	0.01
303.15	0.153	0.01
313.15	0.152	0.01
323.15	0.151	0.01
333.15	0.15	0.01
343.15	0.149	0.01
353.15	0.148	0.01

System: tetrabutylphosphonium L-prolinate; phases: Liquid
Fixed: Pressure, kPa = 101.325
Property: Viscosity, Pa*s (Liquid); method: CAPTUB:UFactor:4
Temperature, K	Viscosity, Pa*s	uncertainty
298.15	1.695	0.405
303.15	1.101	0.231
313.15	0.4835	0.0751
323.15	0.2413	0.0265
333.15	0.1331	0.0095
343.15	0.0782	0.0031
353.15	0.0496	0.0015
363.15	0.0322	0.001

System: tetrabutylphosphonium L-prolinate; phases: Liquid
Fixed: Pressure, kPa = 101.325
Property: Mass density, kg/m3 (Liquid); method: Vibrating tube method
Temperature, K	Mass density, kg/m3	uncertainty
293.15	995.7	5.4
298.15	992.5	5.3
303.15	989.1	5.3
313.15	983	5.2
323.15	976.9	5.2
333.15	970.8	5.1
343.15	964.6	5
353.15	958.6	5
363.15	952.6	4.9

System: tetrabutylphosphonium L-valinate; phases: Glass, Liquid, Air at 1 atmosphere
Property: Triple point temperature, K (Glass); method: DTA
Triple point temperature, K	uncertainty
207.59	4

System: tetrabutylphosphonium L-valinate; phases: Crystal, Liquid, Air at 1 atmosphere
Property: Normal melting temperature, K (Crystal); method: DTA
Normal melting temperature, K	uncertainty
298.92	0.5

System: tetrabutylphosphonium L-valinate; phases: Liquid
Fixed: Pressure, kPa = 101.325
Property: Molar heat capacity at constant pressure, J/K/mol (Liquid); method: Large sample (1 g) DSC
Temperature, K	Molar heat capacity at constant pressure, J/K/mol	uncertainty
293.15	743.7	75.1
298.15	747.4	75.5
303.15	751.6	75.9
313.15	761.3	76.9
323.15	771.5	77.9
333.15	781.2	78.9
343.15	791.4	79.9
353.15	801.1	80.9
363.15	810.9	81.9

System: tetrabutylphosphonium L-valinate; phases: Liquid
Fixed: Pressure, kPa = 101.325
Property: Thermal conductivity, W/m/K (Liquid); method: Hot wire method
Temperature, K	Thermal conductivity, W/m/K	uncertainty
313.15	0.157	0.01
323.15	0.156	0.01
333.15	0.155	0.01
343.15	0.154	0.01
353.15	0.153	0.01

System: tetrabutylphosphonium L-valinate; phases: Liquid
Fixed: Pressure, kPa = 101.325
Property: Viscosity, Pa*s (Liquid); method: CAPTUB:UFactor:4
Temperature, K	Viscosity, Pa*s	uncertainty
313.15	0.2169	0.0223
323.15	0.12	0.0078
333.15	0.0708	0.0025
343.15	0.0448	0.0013
353.15	0.0296	0.0009
363.15	0.0203	0.0006

System: tetrabutylphosphonium L-valinate; phases: Liquid
Fixed: Pressure, kPa = 101.325
Property: Mass density, kg/m3 (Liquid); method: Vibrating tube method
Temperature, K	Mass density, kg/m3	uncertainty
313.15	932.1	4.7
323.15	926	4.7
333.15	919.9	4.6
343.15	913.9	4.5
353.15	908	4.5
363.15	902.1	4.4

System: tetrabutylphosphonium L-cysteinate; phases: Glass, Liquid, Air at 1 atmosphere
Property: Triple point temperature, K (Glass); method: DTA
Triple point temperature, K	uncertainty
243.47	4

System: tetrabutylphosphonium L-cysteinate; phases: Liquid
Fixed: Pressure, kPa = 101.325
Property: Molar heat capacity at constant pressure, J/K/mol (Liquid); method: Large sample (1 g) DSC
Temperature, K	Molar heat capacity at constant pressure, J/K/mol	uncertainty
293.15	913.7	92.3
298.15	919.8	92.9
303.15	926.6	93.6
313.15	942.5	95.2
323.15	959.6	96.9
333.15	977.1	98.7
343.15	993.4	100.3
353.15	1008.2	101.8
363.15	1021.5	103.2

System: tetrabutylphosphonium L-cysteinate; phases: Liquid
Fixed: Pressure, kPa = 101.325
Property: Thermal conductivity, W/m/K (Liquid); method: Hot wire method
Temperature, K	Thermal conductivity, W/m/K	uncertainty
298.15	0.152	0.01
303.15	0.151	0.01
313.15	0.15	0.01
323.15	0.149	0.01
333.15	0.148	0.01
343.15	0.147	0.01
353.15	0.146	0.01

System: tetrabutylphosphonium L-cysteinate; phases: Liquid
Fixed: Pressure, kPa = 101.325
Property: Viscosity, Pa*s (Liquid); method: CAPTUB:UFactor:4
Temperature, K	Viscosity, Pa*s	uncertainty
298.15	2.946	0.812
303.15	1.866	0.457
313.15	0.8327	0.1593
323.15	0.3974	0.0566
333.15	0.2084	0.0209
343.15	0.1183	0.0076
353.15	0.0725	0.0026
363.15	0.0466	0.0014

System: tetrabutylphosphonium L-cysteinate; phases: Liquid
Fixed: Pressure, kPa = 101.325
Property: Mass density, kg/m3 (Liquid); method: Vibrating tube method
Temperature, K	Mass density, kg/m3	uncertainty
293.15	1037.2	5.8
298.15	1033.7	5.8
303.15	1030	5.7
313.15	1023.8	5.7
323.15	1017.8	5.6
333.15	1011.7	5.5
343.15	1005.4	5.5
353.15	999.1	5.4
363.15	993	5.3

System: N,N-dibutyl-N-methylbutanaminium L-serinate; phases: Glass, Liquid, Air at 1 atmosphere
Property: Triple point temperature, K (Glass); method: DTA
Triple point temperature, K	uncertainty
222.56	4

System: N,N-dibutyl-N-methylbutanaminium L-serinate; phases: Liquid
Fixed: Pressure, kPa = 101.325
Property: Molar heat capacity at constant pressure, J/K/mol (Liquid); method: Large sample (1 g) DSC
Temperature, K	Molar heat capacity at constant pressure, J/K/mol	uncertainty
293.15	632.4	63.9
298.15	634.8	64.1
303.15	637.6	64.4
313.15	643.6	65
323.15	651	65.7
333.15	658	66.5
343.15	665	67.2
353.15	672.9	68
363.15	680.8	68.8

System: N,N-dibutyl-N-methylbutanaminium L-serinate; phases: Liquid
Fixed: Pressure, kPa = 101.325
Property: Thermal conductivity, W/m/K (Liquid); method: Hot wire method
Temperature, K	Thermal conductivity, W/m/K	uncertainty
298.15	0.169	0.01
303.15	0.168	0.01
313.15	0.167	0.01
323.15	0.166	0.01
333.15	0.165	0.01
343.15	0.164	0.01
353.15	0.163	0.01

System: N,N-dibutyl-N-methylbutanaminium L-serinate; phases: Liquid
Fixed: Pressure, kPa = 101.325
Property: Viscosity, Pa*s (Liquid); method: CAPTUB:UFactor:4
Temperature, K	Viscosity, Pa*s	uncertainty
298.15	10.214	3.665
303.15	5.845	1.879
313.15	2.16	0.55
323.15	0.8907	0.1744
333.15	0.4103	0.0593
343.15	0.2079	0.0208
353.15	0.1118	0.0068
363.15	0.0643	0.002

System: N,N-dibutyl-N-methylbutanaminium L-serinate; phases: Liquid
Fixed: Pressure, kPa = 101.325
Property: Mass density, kg/m3 (Liquid); method: Vibrating tube method
Temperature, K	Mass density, kg/m3	uncertainty
293.15	1018.8	5.6
298.15	1015.7	5.6
303.15	1012.6	5.5
313.15	1006.3	5.5
323.15	999.9	5.4
333.15	993.9	5.3
343.15	987.9	5.3
353.15	981.9	5.2
363.15	975.6	5.1
