Measured thermophysical data. Buffers and Ionic Salts: Densities and Solubilities of Aqueous and Electrolyte Solutions of Tris(hydroxymethyl)aminomethane and N-Tris[hydroxymethyl]-4-amino-butanesulfonic Acid
Source: J. Chem. Eng. Data, 2009, 10.1021/je900260g
Compound 1: 2-amino-2-(hydroxymethyl)-1,3-propanediol, C4H11NO3, InChI=1S/C4H11NO3/c5-4(1-6,2-7)3-8/h6-8H,1-3,5H2, purity 99.9%
Compound 2: N-tris(Hydroxymethyl)methyl-4-aminobutanesulfonic acid, C8H19NO6S, InChI=1S/C8H19NO6S/c10-5-8(6-11,7-12)9-3-1-2-4-16(13,14)15/h9-12H,1-7H2,(H,13,14,15), purity 99%
Compound 3: potassium chloride, ClK, InChI=1S/ClH.K/h1H;/q;+1/p-1, purity 99.99%
Compound 4: potassium ethanoate, C2H3KO2, InChI=1S/C2H4O2.K/c1-2(3)4;/h1H3,(H,3,4);/q;+1/p-1, purity 99.98%
Compound 5: potassium bromide, BrK, InChI=1S/BrH.K/h1H;/q;+1/p-1, purity 99.5%
Compound 6: sodium chloride, ClNa, InChI=1S/ClH.Na/h1H;/q;+1/p-1, purity 99.5%
Compound 7: water, H2O, InChI=1S/H2O/h1H2

System: 2-amino-2-(hydroxymethyl)-1,3-propanediol + water; phases: Liquid, Crystal
Property: Molality, mol/kg (Liquid); method: Density Variation
Temperature, K	Pressure, kPa	Molality, mol/kg	uncertainty
298.15	101	5.757	0.0173

System: 2-amino-2-(hydroxymethyl)-1,3-propanediol + water; phases: Liquid, Crystal
Property: Mass density, kg/m3 (Liquid); method: VIBTUB:UFactor:32
Temperature, K	Pressure, kPa	Mass density, kg/m3	uncertainty
298.15	101	1110.99	3.08

System: 2-amino-2-(hydroxymethyl)-1,3-propanediol + water; phases: Liquid
Fixed: Pressure, kPa = 101
Property: Mass density, kg/m3 (Liquid); method: VIBTUB:UFactor:32
Temperature, K	Molality, mol/kg of 2-amino-2-(hydroxymethyl)-1,3-propanediol	Mass density, kg/m3	uncertainty
298.15	1.6667	1043.81	1.54
298.15	2.294	1053.88	1.67
298.15	2.9454	1065.01	1.81
298.15	3.6602	1077.08	1.96
298.15	4.2711	1086.34	2.07
298.15	4.9084	1098.03	2.22
298.15	5.5861	1106.97	2.33
303.15	1.6667	1042.04	1.52
303.15	2.294	1052.01	1.64
303.15	2.9454	1063.04	1.78
303.15	3.6602	1075.01	1.93
303.15	4.2711	1084.19	2.05
303.15	4.9084	1095.81	2.19
303.15	5.5861	1104.68	2.3
310.15	1.6667	1039.3	1.49
310.15	2.294	1049.14	1.61
310.15	2.9454	1060.05	1.75
310.15	3.6602	1071.88	1.89
310.15	4.2711	1080.98	2.01
310.15	4.9084	1092.51	2.15
310.15	5.5861	1101.29	2.26
318.15	1.6667	1035.79	1.44
318.15	2.294	1045.51	1.56
318.15	2.9454	1056.29	1.7
318.15	3.6602	1068.02	1.85
318.15	4.2711	1077.02	1.96
318.15	4.9084	1088.46	2.1
318.15	5.5861	1097.18	2.21
323.15	1.6667	1033.4	1.41
323.15	2.294	1043.01	1.53
323.15	2.9454	1053.79	1.67
323.15	3.6602	1065.43	1.81
323.15	4.2711	1074.4	1.93
323.15	4.9084	1085.8	2.07
323.15	5.5861	1094.46	2.18
328.15	1.6667	1030.82	1.38
328.15	2.294	1039.97	1.49
328.15	2.9454	1051.16	1.64
328.15	3.6602	1062.67	1.78
328.15	4.2711	1071.63	1.89
328.15	4.9084	1083.04	2.03
328.15	5.5861	1091.67	2.14

System: water + N-tris(Hydroxymethyl)methyl-4-aminobutanesulfonic acid; phases: Liquid, Crystal
Property: Molality, mol/kg (Liquid); method: Density Variation
Temperature, K	Pressure, kPa	Molality, mol/kg	uncertainty
298.15	101	5.9075	0.0177

System: water + N-tris(Hydroxymethyl)methyl-4-aminobutanesulfonic acid; phases: Liquid, Crystal
Property: Mass density, kg/m3 (Liquid); method: VIBTUB:UFactor:32
Temperature, K	Pressure, kPa	Mass density, kg/m3	uncertainty
298.15	101	1258.25	5.58

System: water + N-tris(Hydroxymethyl)methyl-4-aminobutanesulfonic acid; phases: Liquid
Fixed: Pressure, kPa = 101
Property: Mass density, kg/m3 (Liquid); method: VIBTUB:UFactor:16
Temperature, K	Molality, mol/kg of N-tris(Hydroxymethyl)methyl-4-aminobutanesulfonic acid	Mass density, kg/m3	uncertainty
298.15	0.9378	1067.23	0.94
298.15	1.5515	1100.73	1.16
298.15	2.4874	1143.55	1.45
298.15	4.0801	1200.45	1.84
298.15	4.7956	1218.48	1.97
298.15	5.1539	1228.57	2.04
298.15	5.5488	1235.88	2.09
303.15	0.9378	1065.48	0.92
303.15	1.5515	1098.86	1.15
303.15	2.4874	1141.42	1.43
303.15	4.0801	1198.12	1.82
303.15	4.7956	1216.1	1.95
303.15	5.1539	1226.17	2.02
303.15	5.5488	1233.46	2.08
310.15	0.9378	1062.76	0.91
310.15	1.5515	1095.93	1.13
310.15	2.4874	1138.29	1.41
310.15	4.0801	1194.76	1.8
310.15	4.7956	1212.71	1.93
310.15	5.1539	1222.74	2
310.15	5.5488	1229.98	2.05
318.15	0.9378	1059.29	0.89
318.15	1.5515	1092.31	1.1
318.15	2.4874	1134.48	1.39
318.15	4.0801	1190.76	1.78
318.15	4.7956	1208.68	1.9
318.15	5.1539	1218.68	1.97
318.15	5.5488	1225.89	2.03
323.15	0.9378	1056.9	0.87
323.15	1.5515	1089.87	1.09
323.15	2.4874	1131.99	1.37
323.15	4.0801	1188.17	1.76
323.15	4.7956	1206.07	1.89
323.15	5.1539	1216.06	1.96
323.15	5.5488	1223.25	2.01
328.15	0.9378	1054.08	0.85
328.15	1.5515	1086.99	1.07
328.15	2.4874	1129.4	1.36
328.15	4.0801	1185.52	1.75
328.15	4.7956	1203.41	1.87
328.15	5.1539	1213.41	1.94
328.15	5.5488	1220.58	1.99

System: 2-amino-2-(hydroxymethyl)-1,3-propanediol + potassium ethanoate + water; phases: Liquid, Crystal
Fixed: Pressure, kPa = 101
Fixed: Temperature, K = 298.15
Property: Molality, mol/kg of 2-amino-2-(hydroxymethyl)-1,3-propanediol (Liquid); method: Density Variation
Solvent: Amount concentration (molarity), mol/dm3 of potassium ethanoate	Molality, mol/kg of 2-amino-2-(hydroxymethyl)-1,3-propanediol	uncertainty
1	4.3503	0.0131
2	3.4018	0.0102
4	2.105	0.0063

System: 2-amino-2-(hydroxymethyl)-1,3-propanediol + potassium ethanoate + water; phases: Liquid, Crystal
Fixed: Pressure, kPa = 101
Fixed: Temperature, K = 298.15
Property: Mass density, kg/m3 (Liquid); method: VIBTUB:UFactor:32
Solvent: Amount concentration (molarity), mol/dm3 of potassium ethanoate	Mass density, kg/m3	uncertainty
1	1127.16	3.34
2	1146.4	3.65
4	1197.5	4.47

System: 2-amino-2-(hydroxymethyl)-1,3-propanediol + potassium ethanoate + water; phases: Liquid
Fixed: Pressure, kPa = 101
Property: Mass density, kg/m3 (Liquid); method: VIBTUB:UFactor:16
Temperature, K	Molality, mol/kg of 2-amino-2-(hydroxymethyl)-1,3-propanediol	Solvent: Amount concentration (molarity), mol/dm3 of potassium ethanoate	Mass density, kg/m3	uncertainty
298.15	0.0991	4	1173.99	1.59
298.15	0.1527	4	1174.71	1.59
298.15	0.1998	4	1175.29	1.59
298.15	0.2196	2	1094.19	1.09
298.15	0.3178	4	1176.8	1.6
298.15	0.3343	2	1095.71	1.1
298.15	0.8428	4	1182.86	1.64
298.15	0.984	1	1066.77	0.92
298.15	0.9881	2	1106.9	1.17
298.15	1.3976	4	1189.44	1.68
298.15	1.4875	2	1115.15	1.22
298.15	1.6204	1	1078.11	0.99
298.15	2.0043	4	1196.31	1.73
298.15	2.2115	1	1089.15	1.06
298.15	2.3262	2	1128.99	1.3
298.15	2.843	1	1100.64	1.13
298.15	3.0279	2	1139.74	1.37
298.15	3.3614	2	1145.54	1.41
298.15	3.4415	1	1111.46	1.2
298.15	4.0688	1	1122.09	1.26
303.15	0.0991	4	1171.61	1.57
303.15	0.1527	4	1172.35	1.58
303.15	0.1998	4	1172.91	1.58
303.15	0.2196	2	1092.23	1.07
303.15	0.3178	4	1174.15	1.59
303.15	0.3343	2	1093.73	1.08
303.15	0.8428	4	1180.56	1.63
303.15	0.984	1	1065	0.9
303.15	0.9881	2	1105.01	1.15
303.15	1.3976	4	1186.92	1.67
303.15	1.4875	2	1112.98	1.2
303.15	1.6204	1	1076.24	0.97
303.15	2.0043	4	1193.73	1.71
303.15	2.2115	1	1087.18	1.04
303.15	2.3262	2	1126.71	1.29
303.15	2.843	1	1098.57	1.11
303.15	3.0279	2	1137.37	1.36
303.15	3.3614	2	1143.15	1.39
303.15	3.4415	1	1109.31	1.18
303.15	4.0688	1	1119.87	1.25
310.15	0.0991	4	1168.04	1.55
310.15	0.1527	4	1168.88	1.55
310.15	0.1998	4	1169.43	1.56
310.15	0.2196	2	1089.28	1.06
310.15	0.3178	4	1170.71	1.57
310.15	0.3343	2	1090.74	1.07
310.15	0.8428	4	1177.15	1.61
310.15	0.984	1	1062.26	0.89
310.15	0.9881	2	1102.03	1.14
310.15	1.3976	4	1183.24	1.64
310.15	1.4875	2	1109.76	1.18
310.15	1.6204	1	1073.37	0.96
310.15	2.0043	4	1189.99	1.69
310.15	2.2115	1	1084.19	1.02
310.15	2.3262	2	1123.41	1.27
310.15	2.843	1	1095.44	1.09
310.15	3.0279	2	1133.91	1.34
310.15	3.3614	2	1139.62	1.37
310.15	3.4415	1	1106.1	1.16
310.15	4.0688	1	1116.57	1.23
318.15	0.0991	4	1163.85	1.52
318.15	0.1527	4	1164.71	1.53
318.15	0.1998	4	1165.28	1.53
318.15	0.2196	2	1085.61	1.03
318.15	0.3178	4	1166.59	1.54
318.15	0.3343	2	1087.04	1.04
318.15	0.8428	4	1172.49	1.58
318.15	0.984	1	1058.75	0.87
318.15	0.9881	2	1098.19	1.11
318.15	1.3976	4	1178.89	1.62
318.15	1.4875	2	1105.84	1.16
318.15	1.6204	1	1069.74	0.93
318.15	2.0043	4	1185.57	1.66
318.15	2.2115	1	1080.43	1
318.15	2.3262	2	1119.34	1.24
318.15	2.843	1	1091.58	1.07
318.15	3.0279	2	1129.75	1.31
318.15	3.3614	2	1135.45	1.35
318.15	3.4415	1	1102.14	1.14
318.15	4.0688	1	1112.52	1.2
323.15	0.0991	4	1161.11	1.51
323.15	0.1527	4	1162	1.51
323.15	0.1998	4	1162.57	1.52
323.15	0.2196	2	1083.16	1.02
323.15	0.3178	4	1163.91	1.52
323.15	0.3343	2	1084.57	1.03
323.15	0.8428	4	1169.88	1.56
323.15	0.984	1	1056.36	0.85
323.15	0.9881	2	1095.65	1.1
323.15	1.3976	4	1176.07	1.6
323.15	1.4875	2	1103.24	1.14
323.15	1.6204	1	1067.24	0.92
323.15	2.0043	4	1182.73	1.64
323.15	2.2115	1	1077.93	0.99
323.15	2.3262	2	1116.69	1.23
323.15	2.843	1	1088.99	1.05
323.15	3.0279	2	1127.04	1.29
323.15	3.3614	2	1132.71	1.33
323.15	3.4415	1	1099.52	1.12
323.15	4.0688	1	1109.86	1.19
328.15	0.0991	4	1158.26	1.49
328.15	0.1527	4	1159.22	1.49
328.15	0.1998	4	1159.78	1.5
328.15	0.2196	2	1080.6	1
328.15	0.3178	4	1161.15	1.51
328.15	0.3343	2	1082.01	1.01
328.15	0.8428	4	1166.64	1.54
328.15	0.984	1	1053.73	0.83
328.15	0.9881	2	1093.02	1.08
328.15	1.3976	4	1173.2	1.58
328.15	1.4875	2	1100.56	1.13
328.15	1.6204	1	1063.93	0.9
328.15	2.0043	4	1179.83	1.62
328.15	2.2115	1	1075.3	0.97
328.15	2.3262	2	1113.85	1.21
328.15	2.843	1	1086.23	1.04
328.15	3.0279	2	1124.25	1.28
328.15	3.3614	2	1129.9	1.31
328.15	3.4415	1	1096.75	1.1
328.15	4.0688	1	1107.1	1.17

System: 2-amino-2-(hydroxymethyl)-1,3-propanediol + water + potassium bromide; phases: Liquid, Crystal
Fixed: Pressure, kPa = 101
Fixed: Temperature, K = 298.15
Property: Molality, mol/kg of 2-amino-2-(hydroxymethyl)-1,3-propanediol (Liquid); method: Density Variation
Solvent: Amount concentration (molarity), mol/dm3 of potassium bromide	Molality, mol/kg of 2-amino-2-(hydroxymethyl)-1,3-propanediol	uncertainty
1	4.7606	0.0143
2	3.9153	0.0117
4	2.455	0.0074

System: 2-amino-2-(hydroxymethyl)-1,3-propanediol + water + potassium bromide; phases: Liquid, Crystal
Fixed: Pressure, kPa = 101
Fixed: Temperature, K = 298.15
Property: Mass density, kg/m3 (Liquid); method: VIBTUB:UFactor:32
Solvent: Amount concentration (molarity), mol/dm3 of potassium bromide	Mass density, kg/m3	uncertainty
1	1159.06	3.87
2	1209.29	4.68
4	1319.98	6.48

System: 2-amino-2-(hydroxymethyl)-1,3-propanediol + water + potassium bromide; phases: Liquid
Fixed: Pressure, kPa = 101
Property: Mass density, kg/m3 (Liquid); method: VIBTUB:UFactor:16
Temperature, K	Molality, mol/kg of 2-amino-2-(hydroxymethyl)-1,3-propanediol	Solvent: Amount concentration (molarity), mol/dm3 of potassium bromide	Mass density, kg/m3	uncertainty
298.15	0.2163	2	1167.71	1.56
298.15	0.2295	1	1089.68	1.07
298.15	0.2873	2	1168.51	1.57
298.15	0.3368	1	1091.26	1.08
298.15	0.8486	2	1175.22	1.61
298.15	0.9122	4	1312.53	2.47
298.15	0.9477	1	1101.97	1.15
298.15	1.1317	4	1313.59	2.48
298.15	1.4273	2	1181.23	1.65
298.15	1.5816	1	1110.63	1.2
298.15	1.944	4	1317.6	2.5
298.15	2.0117	2	1188.21	1.69
298.15	2.1339	4	1318.35	2.51
298.15	2.1479	1	1119.34	1.26
298.15	2.3766	4	1319.51	2.51
298.15	2.8207	2	1197.11	1.75
298.15	3.0329	1	1132.42	1.34
298.15	3.6693	2	1206.47	1.8
298.15	3.9417	1	1146.85	1.43
303.15	0.2163	2	1165.49	1.55
303.15	0.2295	1	1087.79	1.06
303.15	0.2873	2	1165.99	1.55
303.15	0.3368	1	1089.36	1.07
303.15	0.8486	2	1172.91	1.59
303.15	0.9122	4	1309.98	2.45
303.15	0.9477	1	1099.96	1.13
303.15	1.1317	4	1310.93	2.46
303.15	1.4273	2	1178.89	1.63
303.15	1.5816	1	1108.53	1.19
303.15	1.944	4	1315.24	2.49
303.15	2.0117	2	1185.99	1.68
303.15	2.1339	4	1316.03	2.49
303.15	2.1479	1	1117.24	1.24
303.15	2.3766	4	1317.23	2.5
303.15	2.8207	2	1194.58	1.73
303.15	3.0329	1	1130.32	1.33
303.15	3.6693	2	1203.45	1.78
303.15	3.9417	1	1144.47	1.41
310.15	0.2163	2	1162.2	1.53
310.15	0.2295	1	1084.87	1.04
310.15	0.2873	2	1162.71	1.53
310.15	0.3368	1	1086.42	1.05
310.15	0.8486	2	1169.45	1.57
310.15	0.9122	4	1306.12	2.43
310.15	0.9477	1	1096.92	1.12
310.15	1.1317	4	1306.98	2.44
310.15	1.4273	2	1175.77	1.61
310.15	1.5816	1	1105.36	1.17
310.15	1.944	4	1312.08	2.47
310.15	2.0117	2	1182.05	1.65
310.15	2.1339	4	1312.81	2.47
310.15	2.1479	1	1114.07	1.22
310.15	2.3766	4	1313.93	2.48
310.15	2.8207	2	1190.91	1.71
310.15	3.0329	1	1127.15	1.31
310.15	3.6693	2	1199.82	1.76
310.15	3.9417	1	1140.98	1.39
318.15	0.2163	2	1158.12	1.5
318.15	0.2295	1	1081.17	1.02
318.15	0.2873	2	1158.66	1.5
318.15	0.3368	1	1082.74	1.03
318.15	0.8486	2	1165.27	1.55
318.15	0.9122	4	1301.65	2.4
318.15	0.9477	1	1093.11	1.09
318.15	1.1317	4	1302.62	2.41
318.15	1.4273	2	1172.04	1.59
318.15	1.5816	1	1101.35	1.14
318.15	1.944	4	1308.16	2.44
318.15	2.0117	2	1178.17	1.63
318.15	2.1339	4	1308.74	2.45
318.15	2.1479	1	1110.16	1.2
318.15	2.3766	4	1309.86	2.45
318.15	2.8207	2	1186.51	1.68
318.15	3.0329	1	1123.24	1.28
318.15	3.6693	2	1194.9	1.73
318.15	3.9417	1	1136.74	1.37
323.15	0.2163	2	1155.2	1.48
323.15	0.2295	1	1075.7	0.98
323.15	0.2873	2	1155.69	1.49
323.15	0.3368	1	1077.25	0.99
323.15	0.8486	2	1162.52	1.53
323.15	0.9122	4	1298.82	2.38
323.15	0.9477	1	1087.89	1.06
323.15	1.1317	4	1299.55	2.39
323.15	1.4273	2	1169.15	1.57
323.15	1.5816	1	1096.05	1.11
323.15	1.944	4	1305.57	2.43
323.15	2.0117	2	1175.27	1.61
323.15	2.1339	4	1306.14	2.43
323.15	2.1479	1	1105.16	1.17
323.15	2.3766	4	1307.21	2.44
323.15	2.8207	2	1183.64	1.66
323.15	3.0329	1	1120.64	1.26
323.15	3.6693	2	1192.45	1.72
323.15	3.9417	1	1131.99	1.34
328.15	0.2163	2	1149.9	1.45
328.15	0.2295	1	1072.11	0.96
328.15	0.2873	2	1150.19	1.45
328.15	0.3368	1	1073.66	0.97
328.15	0.8486	2	1157.34	1.5
328.15	0.9122	4	1295.44	2.36
328.15	0.9477	1	1084.39	1.04
328.15	1.1317	4	1296.62	2.37
328.15	1.4273	2	1164.23	1.54
328.15	1.5816	1	1092.64	1.09
328.15	1.944	4	1302.84	2.41
328.15	2.0117	2	1170.71	1.58
328.15	2.1339	4	1303.36	2.41
328.15	2.1479	1	1101.95	1.15
328.15	2.3766	4	1304.37	2.42
328.15	2.8207	2	1179.03	1.63
328.15	3.0329	1	1117.93	1.25
328.15	3.6693	2	1186.42	1.68
328.15	3.9417	1	1129.12	1.32

System: 2-amino-2-(hydroxymethyl)-1,3-propanediol + potassium chloride + water; phases: Liquid, Crystal
Fixed: Pressure, kPa = 101
Fixed: Temperature, K = 298.15
Property: Molality, mol/kg of 2-amino-2-(hydroxymethyl)-1,3-propanediol (Liquid); method: Density Variation
Solvent: Amount concentration (molarity), mol/dm3 of potassium chloride	Molality, mol/kg of 2-amino-2-(hydroxymethyl)-1,3-propanediol	uncertainty
1	4.9183	0.0148
2	4.2868	0.0129
4	2.7291	0.0082

System: 2-amino-2-(hydroxymethyl)-1,3-propanediol + potassium chloride + water; phases: Liquid, Crystal
Fixed: Pressure, kPa = 101
Fixed: Temperature, K = 298.15
Property: Mass density, kg/m3 (Liquid); method: VIBTUB:UFactor:32
Solvent: Amount concentration (molarity), mol/dm3 of potassium chloride	Mass density, kg/m3	uncertainty
1	1131.23	3.4
2	1155.05	3.79
4	1214.03	4.74

System: 2-amino-2-(hydroxymethyl)-1,3-propanediol + potassium chloride + water; phases: Liquid
Fixed: Pressure, kPa = 101
Property: Mass density, kg/m3 (Liquid); method: VIBTUB:UFactor:16
Temperature, K	Molality, mol/kg of 2-amino-2-(hydroxymethyl)-1,3-propanediol	Solvent: Amount concentration (molarity), mol/dm3 of potassium chloride	Mass density, kg/m3	uncertainty
298.15	0.1577	1	1047.12	0.79
298.15	0.2443	1	1049.2	0.81
298.15	0.2476	4	1164.32	1.53
298.15	0.3071	2	1094.02	1.09
298.15	0.3195	1	1050.64	0.81
298.15	0.4681	4	1169.58	1.56
298.15	0.7231	4	1174.64	1.59
298.15	0.9072	2	1102.88	1.14
298.15	0.9708	1	1061.49	0.88
298.15	1.0509	4	1180.57	1.63
298.15	1.2737	4	1185.55	1.66
298.15	1.5676	2	1113.75	1.21
298.15	1.6122	1	1073.1	0.95
298.15	1.8582	4	1197.45	1.73
298.15	2.1521	4	1203.05	1.77
298.15	2.2123	2	1123.07	1.27
298.15	2.2131	1	1084.29	1.02
298.15	2.3906	4	1206.57	1.79
298.15	3.0073	2	1135.67	1.35
298.15	3.141	1	1098.9	1.12
298.15	4.0829	1	1117.64	1.23
298.15	4.1506	2	1152.83	1.45
298.15	4.8539	1	1129.91	1.31
303.15	0.1577	1	1045.38	0.78
303.15	0.2443	1	1047.5	0.79
303.15	0.2476	4	1162.06	1.51
303.15	0.3071	2	1092.04	1.07
303.15	0.3195	1	1048.87	0.8
303.15	0.4681	4	1167.35	1.54
303.15	0.7231	4	1172.28	1.58
303.15	0.9072	2	1101.04	1.13
303.15	0.9708	1	1059.71	0.87
303.15	1.0509	4	1178.4	1.61
303.15	1.2737	4	1183.27	1.64
303.15	1.5676	2	1111.79	1.2
303.15	1.6122	1	1071.12	0.94
303.15	1.8582	4	1195.19	1.72
303.15	2.1521	4	1200.66	1.75
303.15	2.2123	2	1121.04	1.26
303.15	2.2131	1	1082.67	1.01
303.15	2.3906	4	1204.6	1.78
303.15	3.0073	2	1133.91	1.34
303.15	3.141	1	1097.34	1.11
303.15	4.0829	1	1115.57	1.22
303.15	4.1506	2	1150.4	1.44
303.15	4.8539	1	1127.54	1.3
310.15	0.1577	1	1042.68	0.76
310.15	0.2443	1	1044.79	0.78
310.15	0.2476	4	1158.81	1.49
310.15	0.3071	2	1089.04	1.05
310.15	0.3195	1	1046.12	0.79
310.15	0.4681	4	1164.11	1.52
310.15	0.7231	4	1169.06	1.56
310.15	0.9072	2	1098.22	1.11
310.15	0.9708	1	1057.06	0.85
310.15	1.0509	4	1175.18	1.59
310.15	1.2737	4	1179.97	1.62
310.15	1.5676	2	1108.37	1.18
310.15	1.6122	1	1068.35	0.93
310.15	1.8582	4	1191.92	1.7
310.15	2.1521	4	1197.13	1.73
310.15	2.2123	2	1117.38	1.23
310.15	2.2131	1	1080.21	1
310.15	2.3906	4	1200.69	1.75
310.15	3.0073	2	1129.3	1.31
310.15	3.141	1	1095.01	1.09
310.15	4.0829	1	1111.98	1.2
310.15	4.1506	2	1146.88	1.42
310.15	4.8539	1	1124.08	1.27
318.15	0.1577	1	1039.23	0.74
318.15	0.2443	1	1041.33	0.76
318.15	0.2476	4	1154.84	1.47
318.15	0.3071	2	1085.36	1.03
318.15	0.3195	1	1042.66	0.76
318.15	0.4681	4	1160.21	1.5
318.15	0.7231	4	1165.22	1.53
318.15	0.9072	2	1094.69	1.09
318.15	0.9708	1	1053.64	0.83
318.15	1.0509	4	1171.26	1.57
318.15	1.2737	4	1175.9	1.6
318.15	1.5676	2	1104.9	1.15
318.15	1.6122	1	1065.13	0.91
318.15	1.8582	4	1186.89	1.67
318.15	2.1521	4	1192.96	1.71
318.15	2.2123	2	1114.25	1.21
318.15	2.2131	1	1077.1	0.98
318.15	2.3906	4	1197.14	1.73
318.15	3.0073	2	1126.29	1.29
318.15	3.141	1	1091.35	1.07
318.15	4.0829	1	1107.88	1.17
318.15	4.1506	2	1142.67	1.39
318.15	4.8539	1	1119.93	1.25
323.15	0.1577	1	1036.9	0.73
323.15	0.2443	1	1038.99	0.74
323.15	0.2476	4	1152.29	1.45
323.15	0.3071	2	1082.91	1.02
323.15	0.3195	1	1040.3	0.75
323.15	0.4681	4	1157.64	1.48
323.15	0.7231	4	1162.68	1.52
323.15	0.9072	2	1092.15	1.07
323.15	0.9708	1	1051.44	0.82
323.15	1.0509	4	1168.66	1.55
323.15	1.2737	4	1173.25	1.58
323.15	1.5676	2	1102.64	1.14
323.15	1.6122	1	1062.85	0.89
323.15	1.8582	4	1184.31	1.65
323.15	2.1521	4	1190.22	1.69
323.15	2.2123	2	1111.46	1.2
323.15	2.2131	1	1073.74	0.96
323.15	2.3906	4	1193.72	1.71
323.15	3.0073	2	1123.14	1.27
323.15	3.141	1	1089.18	1.06
323.15	4.0829	1	1106.01	1.16
323.15	4.1506	2	1139.92	1.37
323.15	4.8539	1	1117.22	1.23
328.15	0.1577	1	1034.46	0.71
328.15	0.2443	1	1036.53	0.73
328.15	0.2476	4	1149.63	1.43
328.15	0.3071	2	1080.36	1
328.15	0.3195	1	1037.81	0.73
328.15	0.4681	4	1155.01	1.47
328.15	0.7231	4	1160.05	1.5
328.15	0.9072	2	1089.61	1.06
328.15	0.9708	1	1049.08	0.8
328.15	1.0509	4	1165.98	1.54
328.15	1.2737	4	1170.41	1.56
328.15	1.5676	2	1100.32	1.13
328.15	1.6122	1	1059.87	0.87
328.15	1.8582	4	1181.89	1.64
328.15	2.1521	4	1187.41	1.67
328.15	2.2123	2	1108.84	1.18
328.15	2.2131	1	1071.07	0.94
328.15	2.3906	4	1191.33	1.7
328.15	3.0073	2	1120.46	1.25
328.15	3.141	1	1085.46	1.03
328.15	4.0829	1	1101.92	1.14
328.15	4.1506	2	1137.12	1.36
328.15	4.8539	1	1114.41	1.21

System: 2-amino-2-(hydroxymethyl)-1,3-propanediol + sodium chloride + water; phases: Liquid, Crystal
Fixed: Pressure, kPa = 101
Fixed: Temperature, K = 298.15
Property: Molality, mol/kg of 2-amino-2-(hydroxymethyl)-1,3-propanediol (Liquid); method: Density Variation
Solvent: Amount concentration (molarity), mol/dm3 of sodium chloride	Molality, mol/kg of 2-amino-2-(hydroxymethyl)-1,3-propanediol	uncertainty
1	4.9703	0.0149
2	4.5575	0.0137
4	3.5166	0.0105

System: 2-amino-2-(hydroxymethyl)-1,3-propanediol + sodium chloride + water; phases: Liquid, Crystal
Fixed: Pressure, kPa = 101
Fixed: Temperature, K = 298.15
Property: Mass density, kg/m3 (Liquid); method: VIBTUB:UFactor:32
Solvent: Amount concentration (molarity), mol/dm3 of sodium chloride	Mass density, kg/m3	uncertainty
1	1131.23	3.42
2	1150.78	3.74
4	1193.5	4.43

System: 2-amino-2-(hydroxymethyl)-1,3-propanediol + sodium chloride + water; phases: Liquid
Fixed: Pressure, kPa = 101
Property: Mass density, kg/m3 (Liquid); method: VIBTUB:UFactor:16
Temperature, K	Molality, mol/kg of 2-amino-2-(hydroxymethyl)-1,3-propanediol	Solvent: Amount concentration (molarity), mol/dm3 of sodium chloride	Mass density, kg/m3	uncertainty
298.15	0.1767	4	1151.9	1.46
298.15	0.3087	2	1086.06	1.05
298.15	0.3335	4	1153.41	1.47
298.15	0.3558	1	1050.04	0.82
298.15	0.8981	4	1161.5	1.52
298.15	0.9312	2	1095.57	1.11
298.15	0.9658	1	1060.86	0.89
298.15	1.4364	4	1168.25	1.56
298.15	1.5371	2	1105.6	1.17
298.15	1.5841	1	1072.09	0.96
298.15	2.0101	4	1175.03	1.61
298.15	2.1438	2	1114.42	1.23
298.15	2.2173	1	1083.7	1.03
298.15	2.5722	4	1181.98	1.65
298.15	2.7505	2	1123.33	1.28
298.15	2.8488	1	1094.09	1.1
298.15	3.1608	4	1188.9	1.69
298.15	3.3589	2	1132.81	1.34
298.15	3.434	4	1192.26	1.71
298.15	3.4654	1	1105.12	1.17
298.15	3.9764	2	1142.1	1.4
298.15	4.0928	1	1115.22	1.23
298.15	4.4486	2	1148.93	1.44
298.15	4.7375	1	1127.08	1.31
303.15	0.1767	4	1149.33	1.44
303.15	0.3087	2	1083.95	1.03
303.15	0.3335	4	1150.91	1.45
303.15	0.3558	1	1048.21	0.81
303.15	0.8981	4	1159.06	1.51
303.15	0.9312	2	1093.38	1.09
303.15	0.9658	1	1058.92	0.88
303.15	1.4364	4	1165.81	1.55
303.15	1.5371	2	1103.35	1.16
303.15	1.5841	1	1070.06	0.95
303.15	2.0101	4	1172.75	1.59
303.15	2.1438	2	1112.11	1.21
303.15	2.2173	1	1081.59	1.02
303.15	2.5722	4	1179.61	1.64
303.15	2.7505	2	1120.96	1.27
303.15	2.8488	1	1091.89	1.08
303.15	3.1608	4	1186.66	1.68
303.15	3.3589	2	1130.41	1.33
303.15	3.434	4	1189.78	1.7
303.15	3.4654	1	1102.77	1.15
303.15	3.9764	2	1139.64	1.38
303.15	4.0928	1	1113.19	1.22
303.15	4.4486	2	1146.41	1.43
303.15	4.7375	1	1124.7	1.29
310.15	0.1767	4	1145.74	1.42
310.15	0.3087	2	1080.81	1.01
310.15	0.3335	4	1147.38	1.43
310.15	0.3558	1	1045.37	0.79
310.15	0.8981	4	1155.61	1.48
310.15	0.9312	2	1090.15	1.07
310.15	0.9658	1	1055.97	0.86
310.15	1.4364	4	1162.46	1.53
310.15	1.5371	2	1100.02	1.14
310.15	1.5841	1	1067.01	0.93
310.15	2.0101	4	1169.38	1.57
310.15	2.1438	2	1108.71	1.19
310.15	2.2173	1	1078.43	1
310.15	2.5722	4	1176.21	1.61
310.15	2.7505	2	1117.48	1.24
310.15	2.8488	1	1088.64	1.06
310.15	3.1608	4	1183.14	1.66
310.15	3.3589	2	1126.87	1.3
310.15	3.434	4	1186.18	1.68
310.15	3.4654	1	1099.52	1.13
310.15	3.9764	2	1136.02	1.36
310.15	4.0928	1	1109.77	1.2
310.15	4.4486	2	1142.75	1.4
310.15	4.7375	1	1121.2	1.27
318.15	0.1767	4	1141.5	1.4
318.15	0.3087	2	1077.02	0.99
318.15	0.3335	4	1143.19	1.41
318.15	0.3558	1	1041.83	0.77
318.15	0.8981	4	1151.36	1.46
318.15	0.9312	2	1086.22	1.05
318.15	0.9658	1	1052.32	0.84
318.15	1.4364	4	1158.53	1.5
318.15	1.5371	2	1095.93	1.11
318.15	1.5841	1	1063.29	0.9
318.15	2.0101	4	1165.32	1.55
318.15	2.1438	2	1104.53	1.16
318.15	2.2173	1	1074.54	0.98
318.15	2.5722	4	1172.12	1.59
318.15	2.7505	2	1113.27	1.22
318.15	2.8488	1	1084.72	1.04
318.15	3.1608	4	1179	1.63
318.15	3.3589	2	1122.63	1.28
318.15	3.434	4	1181.96	1.65
318.15	3.4654	1	1095.58	1.11
318.15	3.9764	2	1131.73	1.33
318.15	4.0928	1	1105.78	1.17
318.15	4.4486	2	1138.56	1.38
318.15	4.7375	1	1117.01	1.24
323.15	0.1767	4	1138.74	1.38
323.15	0.3087	2	1074.54	0.98
323.15	0.3335	4	1140.47	1.39
323.15	0.3558	1	1039.43	0.76
323.15	0.8981	4	1148.68	1.44
323.15	0.9312	2	1083.62	1.03
323.15	0.9658	1	1049.88	0.82
323.15	1.4364	4	1156.01	1.49
323.15	1.5371	2	1093.29	1.09
323.15	1.5841	1	1060.77	0.89
323.15	2.0101	4	1162.67	1.53
323.15	2.1438	2	1101.85	1.15
323.15	2.2173	1	1071.99	0.96
323.15	2.5722	4	1169.44	1.57
323.15	2.7505	2	1110.56	1.2
323.15	2.8488	1	1082.13	1.02
323.15	3.1608	4	1176.27	1.61
323.15	3.3589	2	1119.89	1.26
323.15	3.434	4	1179.19	1.63
323.15	3.4654	1	1092.96	1.09
323.15	3.9764	2	1128.95	1.32
323.15	4.0928	1	1103.1	1.15
323.15	4.4486	2	1135.77	1.36
323.15	4.7375	1	1114.27	1.22
328.15	0.1767	4	1135.91	1.36
328.15	0.3087	2	1071.91	0.96
328.15	0.3335	4	1137.72	1.37
328.15	0.3558	1	1035.81	0.73
328.15	0.8981	4	1146.01	1.42
328.15	0.9312	2	1080.96	1.02
328.15	0.9658	1	1046.24	0.8
328.15	1.4364	4	1153.32	1.47
328.15	1.5371	2	1090.6	1.08
328.15	1.5841	1	1057.41	0.87
328.15	2.0101	4	1159.91	1.51
328.15	2.1438	2	1099.13	1.13
328.15	2.2173	1	1068.72	0.94
328.15	2.5722	4	1166.66	1.55
328.15	2.7505	2	1107.78	1.18
328.15	2.8488	1	1078.95	1
328.15	3.1608	4	1173.45	1.6
328.15	3.3589	2	1117.08	1.24
328.15	3.434	4	1176.35	1.61
328.15	3.4654	1	1089.83	1.07
328.15	3.9764	2	1126.11	1.3
328.15	4.0928	1	1100.11	1.14
328.15	4.4486	2	1132.92	1.34
328.15	4.7375	1	1111.44	1.21

System: potassium ethanoate + water + N-tris(Hydroxymethyl)methyl-4-aminobutanesulfonic acid; phases: Liquid, Crystal
Fixed: Pressure, kPa = 101
Fixed: Temperature, K = 298.15
Property: Molality, mol/kg of N-tris(Hydroxymethyl)methyl-4-aminobutanesulfonic acid (Liquid); method: Density Variation
Solvent: Amount concentration (molarity), mol/dm3 of potassium ethanoate	Molality, mol/kg of N-tris(Hydroxymethyl)methyl-4-aminobutanesulfonic acid	uncertainty
1	5.5076	0.0165
2	4.7649	0.0143
4	4.1248	0.0124

System: potassium ethanoate + water + N-tris(Hydroxymethyl)methyl-4-aminobutanesulfonic acid; phases: Liquid, Crystal
Fixed: Pressure, kPa = 101
Fixed: Temperature, K = 298.15
Property: Mass density, kg/m3 (Liquid); method: VIBTUB:UFactor:32
Solvent: Amount concentration (molarity), mol/dm3 of potassium ethanoate	Mass density, kg/m3	uncertainty
1	1264.99	5.62
2	1283.4	5.92
4	1299.57	6.18

System: potassium ethanoate + water + N-tris(Hydroxymethyl)methyl-4-aminobutanesulfonic acid; phases: Liquid
Fixed: Pressure, kPa = 101
Property: Mass density, kg/m3 (Liquid); method: VIBTUB:UFactor:32
Temperature, K	Molality, mol/kg of N-tris(Hydroxymethyl)methyl-4-aminobutanesulfonic acid	Solvent: Amount concentration (molarity), mol/dm3 of potassium ethanoate	Mass density, kg/m3	uncertainty
298.15	0.6829	4	1213.38	3.7
298.15	0.745	2	1131.61	2.68
298.15	1.0801	2	1151.14	2.92
298.15	1.0999	4	1227.47	3.88
298.15	1.1092	1	1122.06	2.55
298.15	1.2927	2	1160.47	3.04
298.15	1.4753	4	1241.02	4.05
298.15	1.4913	2	1168.58	3.14
298.15	1.7143	1	1146.57	2.86
298.15	1.9129	2	1191.9	3.43
298.15	1.9887	4	1253.7	4.21
298.15	2.0187	1	1157.85	3
298.15	2.2756	1	1170.32	3.16
298.15	2.7415	2	1218.59	3.77
298.15	2.8255	4	1270.24	4.42
298.15	3.0564	1	1192.19	3.44
298.15	3.2752	4	1278.66	4.52
298.15	3.3739	2	1238.9	4.02
298.15	3.7151	1	1215.98	3.74
298.15	3.8714	2	1250.68	4.17
298.15	3.9265	4	1292.47	4.7
298.15	4.4438	2	1263.46	4.33
298.15	4.7178	1	1240.59	4.05
298.15	5.1065	1	1250.37	4.17
298.15	5.4501	1	1259.15	4.28
303.15	0.6829	4	1211.08	3.67
303.15	0.745	2	1129.52	2.65
303.15	1.0801	2	1148.98	2.89
303.15	1.0999	4	1225.13	3.85
303.15	1.1092	1	1120.1	2.53
303.15	1.2927	2	1158.2	3.01
303.15	1.4753	4	1238.62	4.02
303.15	1.4913	2	1166.26	3.11
303.15	1.7143	1	1144.52	2.84
303.15	1.9129	2	1189.52	3.4
303.15	1.9887	4	1251.26	4.18
303.15	2.0187	1	1155.67	2.98
303.15	2.2756	1	1168.1	3.13
303.15	2.7415	2	1216.17	3.74
303.15	2.8255	4	1267.78	4.39
303.15	3.0564	1	1189.88	3.41
303.15	3.2752	4	1276.19	4.49
303.15	3.3739	2	1236.47	3.99
303.15	3.7151	1	1213.61	3.71
303.15	3.8714	2	1248.25	4.14
303.15	3.9265	4	1289.99	4.67
303.15	4.4438	2	1261.02	4.3
303.15	4.7178	1	1238.21	4.02
303.15	5.1065	1	1247.96	4.14
303.15	5.4501	1	1256.75	4.25
310.15	0.6829	4	1207.81	3.63
310.15	0.745	2	1126.41	2.61
310.15	1.0801	2	1145.77	2.85
310.15	1.0999	4	1221.79	3.81
310.15	1.1092	1	1117.13	2.49
310.15	1.2927	2	1154.88	2.97
310.15	1.4753	4	1235.13	3.98
310.15	1.4913	2	1162.88	3.07
310.15	1.7143	1	1141.41	2.8
310.15	1.9129	2	1186.08	3.36
310.15	1.9887	4	1247.73	4.14
310.15	2.0187	1	1152.45	2.94
310.15	2.2756	1	1164.84	3.09
310.15	2.7415	2	1212.71	3.69
310.15	2.8255	4	1264.22	4.34
310.15	3.0564	1	1186.5	3.36
310.15	3.2752	4	1272.63	4.45
310.15	3.3739	2	1232.97	3.95
310.15	3.7151	1	1210.19	3.66
310.15	3.8714	2	1244.73	4.1
310.15	3.9265	4	1286.42	4.62
310.15	4.4438	2	1257.49	4.26
310.15	4.7178	1	1234.73	3.97
310.15	5.1065	1	1244.46	4.09
310.15	5.4501	1	1253.25	4.2
318.15	0.6829	4	1203.92	3.58
318.15	0.745	2	1122.65	2.56
318.15	1.0801	2	1141.89	2.8
318.15	1.0999	4	1217.86	3.76
318.15	1.1092	1	1113.47	2.45
318.15	1.2927	2	1150.93	2.92
318.15	1.4753	4	1231.02	3.93
318.15	1.4913	2	1158.86	3.02
318.15	1.7143	1	1137.66	2.75
318.15	1.9129	2	1182.02	3.31
318.15	1.9887	4	1243.58	4.08
318.15	2.0187	1	1148.58	2.89
318.15	2.2756	1	1160.93	3.04
318.15	2.7415	2	1208.62	3.64
318.15	2.8255	4	1260.04	4.29
318.15	3.0564	1	1182.49	3.31
318.15	3.2752	4	1268.44	4.4
318.15	3.3739	2	1228.85	3.9
318.15	3.7151	1	1206.15	3.61
318.15	3.8714	2	1240.61	4.05
318.15	3.9265	4	1282.2	4.57
318.15	4.4438	2	1253.38	4.21
318.15	4.7178	1	1230.68	3.92
318.15	5.1065	1	1240.38	4.04
318.15	5.4501	1	1249.16	4.15
323.15	0.6829	4	1201.28	3.55
323.15	0.745	2	1120.19	2.53
323.15	1.0801	2	1139.39	2.77
323.15	1.0999	4	1215.3	3.73
323.15	1.1092	1	1111.09	2.42
323.15	1.2927	2	1148.41	2.89
323.15	1.4753	4	1228.44	3.89
323.15	1.4913	2	1156.32	2.99
323.15	1.7143	1	1135.25	2.72
323.15	1.9129	2	1179.47	3.28
323.15	1.9887	4	1240.98	4.05
323.15	2.0187	1	1146.12	2.86
323.15	2.2756	1	1158.44	3.01
323.15	2.7415	2	1206.05	3.61
323.15	2.8255	4	1257.42	4.26
323.15	3.0564	1	1179.96	3.28
323.15	3.2752	4	1265.81	4.36
323.15	3.3739	2	1226.27	3.87
323.15	3.7151	1	1203.6	3.58
323.15	3.8714	2	1238.03	4.01
323.15	3.9265	4	1279.57	4.54
323.15	4.4438	2	1250.79	4.17
323.15	4.7178	1	1228.11	3.89
323.15	5.1065	1	1237.8	4.01
323.15	5.4501	1	1246.59	4.12
328.15	0.6829	4	1198.58	3.52
328.15	0.745	2	1117.62	2.5
328.15	1.0801	2	1136.82	2.74
328.15	1.0999	4	1212.67	3.69
328.15	1.1092	1	1108.51	2.38
328.15	1.2927	2	1145.83	2.85
328.15	1.4753	4	1225.8	3.86
328.15	1.4913	2	1153.73	2.95
328.15	1.7143	1	1132.76	2.69
328.15	1.9129	2	1176.87	3.25
328.15	1.9887	4	1238.34	4.02
328.15	2.0187	1	1143.58	2.83
328.15	2.2756	1	1155.85	2.98
328.15	2.7415	2	1203.45	3.58
328.15	2.8255	4	1254.77	4.22
328.15	3.0564	1	1177.36	3.25
328.15	3.2752	4	1263.17	4.33
328.15	3.3739	2	1223.66	3.83
328.15	3.7151	1	1201	3.55
328.15	3.8714	2	1235.43	3.98
328.15	3.9265	4	1276.92	4.5
328.15	4.4438	2	1248.18	4.14
328.15	4.7178	1	1225.5	3.86
328.15	5.1065	1	1235.19	3.98
328.15	5.4501	1	1243.99	4.09

System: water + potassium bromide + N-tris(Hydroxymethyl)methyl-4-aminobutanesulfonic acid; phases: Liquid, Crystal
Fixed: Pressure, kPa = 101
Fixed: Temperature, K = 298.15
Property: Molality, mol/kg of N-tris(Hydroxymethyl)methyl-4-aminobutanesulfonic acid (Liquid); method: Density Variation
Solvent: Amount concentration (molarity), mol/dm3 of potassium bromide	Molality, mol/kg of N-tris(Hydroxymethyl)methyl-4-aminobutanesulfonic acid	uncertainty
1	5.5367	0.0166
2	5.2056	0.0156
4	4.5014	0.0135

System: water + potassium bromide + N-tris(Hydroxymethyl)methyl-4-aminobutanesulfonic acid; phases: Liquid, Crystal
Fixed: Pressure, kPa = 101
Fixed: Temperature, K = 298.15
Property: Mass density, kg/m3 (Liquid); method: VIBTUB:UFactor:32
Solvent: Amount concentration (molarity), mol/dm3 of potassium bromide	Mass density, kg/m3	uncertainty
1	1292.11	6.12
2	1327.72	6.7
4	1399.25	7.87

System: water + potassium bromide + N-tris(Hydroxymethyl)methyl-4-aminobutanesulfonic acid; phases: Liquid
Fixed: Pressure, kPa = 101
Property: Mass density, kg/m3 (Liquid); method: VIBTUB:UFactor:32
Temperature, K	Molality, mol/kg of N-tris(Hydroxymethyl)methyl-4-aminobutanesulfonic acid	Solvent: Amount concentration (molarity), mol/dm3 of potassium bromide	Mass density, kg/m3	uncertainty
298.15	0.9366	2	1213.27	3.74
298.15	0.9627	4	1348.09	5.45
298.15	1.1889	1	1155.88	3.02
298.15	1.4267	4	1358.06	5.58
298.15	1.6871	2	1240.56	4.09
298.15	1.7909	1	1181.84	3.35
298.15	2.0066	4	1369.16	5.72
298.15	2.2775	2	1261.9	4.36
298.15	2.3552	1	1205.64	3.65
298.15	3.014	4	1382.24	5.88
298.15	3.0462	1	1222.42	3.86
298.15	3.351	2	1288.87	4.7
298.15	3.644	4	1388.36	5.96
298.15	3.7081	1	1246.16	4.16
298.15	3.9499	4	1392.02	6.01
298.15	4.3871	2	1308.63	4.95
298.15	4.4738	1	1262.47	4.37
298.15	4.7318	2	1316.58	5.05
303.15	0.9366	2	1210.91	3.71
303.15	0.9627	4	1345.32	5.42
303.15	1.1889	1	1153.74	2.99
303.15	1.4267	4	1355.29	5.54
303.15	1.6871	2	1238.12	4.06
303.15	1.7909	1	1179.57	3.32
303.15	2.0066	4	1366.38	5.68
303.15	2.2775	2	1259.4	4.33
303.15	2.3552	1	1203.33	3.62
303.15	3.014	4	1379.44	5.85
303.15	3.0462	1	1220.06	3.83
303.15	3.351	2	1286.31	4.67
303.15	3.644	4	1385.57	5.93
303.15	3.7081	1	1243.73	4.13
303.15	3.9499	4	1389.26	5.97
303.15	4.3871	2	1306.03	4.92
303.15	4.4738	1	1259.99	4.33
303.15	4.7318	2	1313.99	5.02
310.15	0.9366	2	1207.43	3.67
310.15	0.9627	4	1341.3	5.36
310.15	1.1889	1	1150.56	2.95
310.15	1.4267	4	1351.3	5.49
310.15	1.6871	2	1234.59	4.01
310.15	1.7909	1	1176.32	3.28
310.15	2.0066	4	1362.4	5.63
310.15	2.2775	2	1255.8	4.28
310.15	2.3552	1	1199.94	3.57
310.15	3.014	4	1375.49	5.8
310.15	3.0462	1	1216.61	3.79
310.15	3.351	2	1282.63	4.62
310.15	3.644	4	1381.63	5.88
310.15	3.7081	1	1240.2	4.08
310.15	3.9499	4	1385.33	5.92
310.15	4.3871	2	1302.32	4.87
310.15	4.4738	1	1256.44	4.29
310.15	4.7318	2	1310.26	4.97
318.15	0.9366	2	1203.24	3.62
318.15	0.9627	4	1336.59	5.3
318.15	1.1889	1	1146.65	2.9
318.15	1.4267	4	1346.62	5.43
318.15	1.6871	2	1230.36	3.96
318.15	1.7909	1	1172.33	3.23
318.15	2.0066	4	1357.74	5.57
318.15	2.2775	2	1251.51	4.23
318.15	2.3552	1	1195.88	3.52
318.15	3.014	4	1370.87	5.74
318.15	3.0462	1	1212.5	3.73
318.15	3.351	2	1278.3	4.57
318.15	3.644	4	1377.05	5.82
318.15	3.7081	1	1236.04	4.03
318.15	3.9499	4	1380.77	5.86
318.15	4.3871	2	1297.96	4.82
318.15	4.4738	1	1252.25	4.24
318.15	4.7318	2	1305.91	4.92
323.15	0.9366	2	1200.51	3.58
323.15	0.9627	4	1333.57	5.27
323.15	1.1889	1	1141.79	2.84
323.15	1.4267	4	1343.63	5.39
323.15	1.6871	2	1227.61	3.93
323.15	1.7909	1	1167.62	3.17
323.15	2.0066	4	1354.78	5.54
323.15	2.2775	2	1248.75	4.19
323.15	2.3552	1	1191.25	3.47
323.15	3.014	4	1367.95	5.7
323.15	3.0462	1	1208.02	3.68
323.15	3.351	2	1275.53	4.53
323.15	3.644	4	1374.15	5.78
323.15	3.7081	1	1232.01	3.98
323.15	3.9499	4	1377.88	5.83
323.15	4.3871	2	1295.19	4.78
323.15	4.4738	1	1248.55	4.19
323.15	4.7318	2	1303.13	4.88
328.15	0.9366	2	1195.7	3.52
328.15	0.9627	4	1330.5	5.23
328.15	1.1889	1	1138.52	2.8
328.15	1.4267	4	1340.58	5.36
328.15	1.6871	2	1222.81	3.87
328.15	1.7909	1	1164.33	3.13
328.15	2.0066	4	1351.76	5.5
328.15	2.2775	2	1244.63	4.14
328.15	2.3552	1	1188.05	3.43
328.15	3.014	4	1364.98	5.67
328.15	3.0462	1	1204.87	3.64
328.15	3.351	2	1271.71	4.48
328.15	3.644	4	1371.21	5.74
328.15	3.7081	1	1229.17	3.95
328.15	3.9499	4	1374.95	5.79
328.15	4.3871	2	1291.73	4.74
328.15	4.4738	1	1246.01	4.16
328.15	4.7318	2	1299.72	4.84

System: potassium chloride + water + N-tris(Hydroxymethyl)methyl-4-aminobutanesulfonic acid; phases: Liquid, Crystal
Fixed: Pressure, kPa = 101
Fixed: Temperature, K = 298.15
Property: Molality, mol/kg of N-tris(Hydroxymethyl)methyl-4-aminobutanesulfonic acid (Liquid); method: Density Variation
Solvent: Amount concentration (molarity), mol/dm3 of potassium chloride	Molality, mol/kg of N-tris(Hydroxymethyl)methyl-4-aminobutanesulfonic acid	uncertainty
1	5.7501	0.0173
2	5.3234	0.016
4	4.9456	0.0148

System: potassium chloride + water + N-tris(Hydroxymethyl)methyl-4-aminobutanesulfonic acid; phases: Liquid, Crystal
Fixed: Pressure, kPa = 101
Fixed: Temperature, K = 298.15
Property: Mass density, kg/m3 (Liquid); method: VIBTUB:UFactor:32
Solvent: Amount concentration (molarity), mol/dm3 of potassium chloride	Mass density, kg/m3	uncertainty
1	1276.39	5.8
2	1291.47	6.05
4	1325.65	6.6

System: potassium chloride + water + N-tris(Hydroxymethyl)methyl-4-aminobutanesulfonic acid; phases: Liquid
Fixed: Pressure, kPa = 101
Property: Mass density, kg/m3 (Liquid); method: VIBTUB:UFactor:32
Temperature, K	Molality, mol/kg of N-tris(Hydroxymethyl)methyl-4-aminobutanesulfonic acid	Solvent: Amount concentration (molarity), mol/dm3 of potassium chloride	Mass density, kg/m3	uncertainty
298.15	0.9914	4	1223.09	3.82
298.15	1.0008	2	1152.28	2.93
298.15	1.2651	1	1126.71	2.61
298.15	1.5752	4	1244.08	4.09
298.15	1.6902	2	1180.11	3.28
298.15	1.8927	1	1155.17	2.97
298.15	2.2794	4	1264.58	4.35
298.15	2.4232	2	1211.22	3.68
298.15	2.5873	1	1183.34	3.32
298.15	2.9153	4	1279.13	4.53
298.15	3.1228	2	1228.05	3.89
298.15	3.5939	4	1297.27	4.76
298.15	3.6148	1	1212.24	3.69
298.15	3.8344	2	1251.91	4.19
298.15	4.0249	4	1303.34	4.83
298.15	4.2165	1	1234.56	3.97
298.15	4.3125	4	1310.44	4.92
298.15	4.5115	2	1267.47	4.38
298.15	4.8158	2	1275.47	4.48
298.15	4.871	1	1248.51	4.14
298.15	5.1605	1	1257.04	4.25
303.15	0.9914	4	1220.7	3.79
303.15	1.0008	2	1150.1	2.91
303.15	1.2651	1	1124.65	2.59
303.15	1.5752	4	1241.65	4.06
303.15	1.6902	2	1177.86	3.26
303.15	1.8927	1	1153.02	2.94
303.15	2.2794	4	1262.09	4.32
303.15	2.4232	2	1208.86	3.65
303.15	2.5873	1	1181.06	3.3
303.15	2.9153	4	1276.6	4.5
303.15	3.1228	2	1225.64	3.86
303.15	3.5939	4	1294.72	4.73
303.15	3.6148	1	1209.92	3.66
303.15	3.8344	2	1249.44	4.16
303.15	4.0249	4	1300.78	4.8
303.15	4.2165	1	1232.15	3.94
303.15	4.3125	4	1307.87	4.89
303.15	4.5115	2	1264.96	4.35
303.15	4.8158	2	1272.95	4.45
303.15	4.871	1	1246.04	4.11
303.15	5.1605	1	1254.56	4.22
310.15	0.9914	4	1217.58	3.76
310.15	1.0008	2	1146.9	2.87
310.15	1.2651	1	1121.59	2.55
310.15	1.5752	4	1238.22	4.01
310.15	1.6902	2	1174.56	3.21
310.15	1.8927	1	1149.82	2.9
310.15	2.2794	4	1258.51	4.27
310.15	2.4232	2	1205.45	3.6
310.15	2.5873	1	1177.75	3.25
310.15	2.9153	4	1272.98	4.45
310.15	3.1228	2	1222.17	3.81
310.15	3.5939	4	1291.07	4.68
310.15	3.6148	1	1206.57	3.62
310.15	3.8344	2	1245.91	4.11
310.15	4.0249	4	1297.13	4.76
310.15	4.2165	1	1228.68	3.89
310.15	4.3125	4	1304.21	4.85
310.15	4.5115	2	1261.41	4.31
310.15	4.8158	2	1269.36	4.41
310.15	4.871	1	1242.53	4.07
310.15	5.1605	1	1250.99	4.18
318.15	0.9914	4	1213.67	3.71
318.15	1.0008	2	1143.05	2.82
318.15	1.2651	1	1117.83	2.5
318.15	1.5752	4	1234.21	3.96
318.15	1.6902	2	1170.59	3.16
318.15	1.8927	1	1145.97	2.85
318.15	2.2794	4	1254.32	4.22
318.15	2.4232	2	1201.41	3.55
318.15	2.5873	1	1173.78	3.2
318.15	2.9153	4	1268.75	4.4
318.15	3.1228	2	1218.06	3.76
318.15	3.5939	4	1286.81	4.63
318.15	3.6148	1	1202.56	3.57
318.15	3.8344	2	1241.76	4.06
318.15	4.0249	4	1292.86	4.7
318.15	4.2165	1	1224.57	3.84
318.15	4.3125	4	1299.91	4.79
318.15	4.5115	2	1257.23	4.25
318.15	4.8158	2	1265.15	4.35
318.15	4.871	1	1238.39	4.02
318.15	5.1605	1	1246.84	4.12
323.15	0.9914	4	1211.04	3.67
323.15	1.0008	2	1140.5	2.79
323.15	1.2651	1	1115.35	2.47
323.15	1.5752	4	1231.56	3.93
323.15	1.6902	2	1168	3.13
323.15	1.8927	1	1143.46	2.82
323.15	2.2794	4	1251.65	4.18
323.15	2.4232	2	1198.8	3.52
323.15	2.5873	1	1171.22	3.17
323.15	2.9153	4	1266.06	4.37
323.15	3.1228	2	1215.43	3.73
323.15	3.5939	4	1284.1	4.59
323.15	3.6148	1	1199.97	3.53
323.15	3.8344	2	1239.12	4.03
323.15	4.0249	4	1290.14	4.67
323.15	4.2165	1	1221.94	3.81
323.15	4.3125	4	1297.19	4.76
323.15	4.5115	2	1254.57	4.22
323.15	4.8158	2	1262.48	4.32
323.15	4.871	1	1235.74	3.98
323.15	5.1605	1	1244.17	4.09
328.15	0.9914	4	1208.35	3.64
328.15	1.0008	2	1137.83	2.75
328.15	1.2651	1	1112.79	2.44
328.15	1.5752	4	1228.84	3.9
328.15	1.6902	2	1165.33	3.1
328.15	1.8927	1	1140.87	2.79
328.15	2.2794	4	1248.92	4.15
328.15	2.4232	2	1196.12	3.49
328.15	2.5873	1	1168.58	3.14
328.15	2.9153	4	1263.33	4.33
328.15	3.1228	2	1212.74	3.69
328.15	3.5939	4	1281.36	4.56
328.15	3.6148	1	1197.28	3.5
328.15	3.8344	2	1236.42	3.99
328.15	4.0249	4	1287.41	4.63
328.15	4.2165	1	1219.24	3.78
328.15	4.3125	4	1294.45	4.72
328.15	4.5115	2	1251.87	4.19
328.15	4.8158	2	1259.77	4.29
328.15	4.871	1	1233.04	3.95
328.15	5.1605	1	1241.46	4.06

System: sodium chloride + water + N-tris(Hydroxymethyl)methyl-4-aminobutanesulfonic acid; phases: Liquid, Crystal
Fixed: Pressure, kPa = 101
Fixed: Temperature, K = 298.15
Property: Molality, mol/kg of N-tris(Hydroxymethyl)methyl-4-aminobutanesulfonic acid (Liquid); method: Density Variation
Solvent: Amount concentration (molarity), mol/dm3 of sodium chloride	Molality, mol/kg of N-tris(Hydroxymethyl)methyl-4-aminobutanesulfonic acid	uncertainty
1	5.6106	0.0168
2	5.4699	0.0164
4	4.8927	0.0147

System: sodium chloride + water + N-tris(Hydroxymethyl)methyl-4-aminobutanesulfonic acid; phases: Liquid, Crystal
Fixed: Pressure, kPa = 101
Fixed: Temperature, K = 298.15
Property: Mass density, kg/m3 (Liquid); method: VIBTUB:UFactor:32
Solvent: Amount concentration (molarity), mol/dm3 of sodium chloride	Mass density, kg/m3	uncertainty
1	1269.82	5.76
2	1285.26	6.01
4	1312.16	6.45

System: sodium chloride + water + N-tris(Hydroxymethyl)methyl-4-aminobutanesulfonic acid; phases: Liquid
Fixed: Pressure, kPa = 101
Property: Mass density, kg/m3 (Liquid); method: VIBTUB:UFactor:32
Temperature, K	Molality, mol/kg of N-tris(Hydroxymethyl)methyl-4-aminobutanesulfonic acid	Solvent: Amount concentration (molarity), mol/dm3 of sodium chloride	Mass density, kg/m3	uncertainty
298.15	0.9211	1	1101.31	2.33
298.15	0.9452	4	1199.29	3.57
298.15	1.0194	2	1140.59	2.82
298.15	1.52	4	1221.23	3.84
298.15	1.6553	1	1136.36	2.77
298.15	1.7625	2	1174.23	3.25
298.15	1.8185	4	1233.81	4
298.15	2.0066	1	1151.71	2.97
298.15	2.1442	2	1191.01	3.46
298.15	2.2643	4	1245.07	4.15
298.15	2.4096	1	1170.21	3.2
298.15	2.7734	2	1208.5	3.68
298.15	3.1003	4	1270.45	4.47
298.15	3.6141	2	1237.17	4.05
298.15	3.8585	1	1219.22	3.82
298.15	3.974	4	1289.51	4.71
298.15	4.3066	4	1295.94	4.79
298.15	4.4423	2	1254.8	4.27
298.15	4.6879	1	1237.61	4.05
298.15	4.7905	4	1303.56	4.89
298.15	4.7936	2	1264.12	4.39
298.15	5.1034	2	1273.4	4.5
298.15	5.356	1	1253.73	4.26
298.15	0.9452	4	1199.29	3.57
303.15	0.9211	1	1099.28	2.3
303.15	0.9452	4	1196.75	3.53
303.15	1.0194	2	1138.34	2.8
303.15	1.52	4	1218.66	3.81
303.15	1.6553	1	1134.27	2.74
303.15	1.7625	2	1171.92	3.22
303.15	1.8185	4	1231.21	3.97
303.15	2.0066	1	1149.55	2.94
303.15	2.1442	2	1188.63	3.43
303.15	2.2643	4	1242.45	4.11
303.15	2.4096	1	1167.94	3.17
303.15	2.7734	2	1206.07	3.65
303.15	3.1003	4	1267.81	4.43
303.15	3.6141	2	1234.67	4.01
303.15	3.8585	1	1216.81	3.79
303.15	3.974	4	1286.87	4.68
303.15	4.3066	4	1293.29	4.76
303.15	4.4423	2	1252.28	4.24
303.15	4.6879	1	1235.14	4.02
303.15	4.7905	4	1300.9	4.85
303.15	4.7936	2	1261.58	4.35
303.15	5.1034	2	1270.84	4.47
303.15	5.356	1	1251.24	4.22
303.15	0.9452	4	1196.75	3.53
310.15	0.9211	1	1096.24	2.26
310.15	0.9452	4	1193.11	3.49
310.15	1.0194	2	1135.03	2.75
310.15	1.52	4	1214.98	3.77
310.15	1.6553	1	1131.12	2.7
310.15	1.7625	2	1168.52	3.18
310.15	1.8185	4	1227.49	3.92
310.15	2.0066	1	1146.31	2.9
310.15	2.1442	2	1185.17	3.39
310.15	2.2643	4	1238.7	4.07
310.15	2.4096	1	1164.6	3.13
310.15	2.7734	2	1202.56	3.61
310.15	3.1003	4	1264.04	4.39
310.15	3.6141	2	1231.09	3.97
310.15	3.8585	1	1213.34	3.74
310.15	3.974	4	1283.09	4.63
310.15	4.3066	4	1289.53	4.71
310.15	4.4423	2	1248.67	4.19
310.15	4.6879	1	1231.62	3.98
310.15	4.7905	4	1297.13	4.8
310.15	4.7936	2	1257.95	4.31
310.15	5.1034	2	1267.21	4.43
310.15	5.356	1	1247.66	4.18
310.15	0.9452	4	1193.11	3.49
318.15	0.9211	1	1092.5	2.22
318.15	0.9452	4	1188.78	3.43
318.15	1.0194	2	1131.05	2.7
318.15	1.52	4	1210.63	3.71
318.15	1.6553	1	1127.34	2.66
318.15	1.7625	2	1164.46	3.13
318.15	1.8185	4	1223.13	3.87
318.15	2.0066	1	1142.44	2.85
318.15	2.1442	2	1181.07	3.34
318.15	2.2643	4	1234.33	4.01
318.15	2.4096	1	1160.62	3.08
318.15	2.7734	2	1198.43	3.56
318.15	3.1003	4	1259.66	4.33
318.15	3.6141	2	1226.89	3.92
318.15	3.8585	1	1209.22	3.69
318.15	3.974	4	1278.69	4.57
318.15	4.3066	4	1285.14	4.65
318.15	4.4423	2	1244.44	4.14
318.15	4.6879	1	1227.46	3.92
318.15	4.7905	4	1292.74	4.75
318.15	4.7936	2	1253.7	4.26
318.15	5.1034	2	1262.97	4.37
318.15	5.356	1	1243.47	4.13
318.15	0.9452	4	1188.78	3.43
323.15	0.9211	1	1090.04	2.19
323.15	0.9452	4	1186.01	3.4
323.15	1.0194	2	1128.46	2.67
323.15	1.52	4	1207.87	3.68
323.15	1.6553	1	1124.85	2.63
323.15	1.7625	2	1161.83	3.09
323.15	1.8185	4	1220.36	3.83
323.15	2.0066	1	1139.91	2.82
323.15	2.1442	2	1178.4	3.3
323.15	2.2643	4	1231.56	3.98
323.15	2.4096	1	1158.05	3.05
323.15	2.7734	2	1195.75	3.52
323.15	3.1003	4	1256.88	4.3
323.15	3.6141	2	1224.2	3.88
323.15	3.8585	1	1206.57	3.66
323.15	3.974	4	1275.91	4.54
323.15	4.3066	4	1282.35	4.62
323.15	4.4423	2	1241.76	4.1
323.15	4.6879	1	1224.8	3.89
323.15	4.7905	4	1289.95	4.71
323.15	4.7936	2	1251.01	4.22
323.15	5.1034	2	1260.28	4.34
323.15	5.356	1	1240.8	4.09
323.15	0.9452	4	1186.01	3.4
328.15	0.9211	1	1086.65	2.14
328.15	0.9452	4	1183.2	3.36
328.15	1.0194	2	1125.79	2.64
328.15	1.52	4	1205.06	3.64
328.15	1.6553	1	1121.54	2.58
328.15	1.7625	2	1159.12	3.06
328.15	1.8185	4	1217.54	3.8
328.15	2.0066	1	1136.81	2.78
328.15	2.1442	2	1175.66	3.27
328.15	2.2643	4	1228.73	3.94
328.15	2.4096	1	1155.02	3.01
328.15	2.7734	2	1193.03	3.49
328.15	3.1003	4	1254.06	4.26
328.15	3.6141	2	1221.47	3.85
328.15	3.8585	1	1203.87	3.63
328.15	3.974	4	1273.09	4.5
328.15	4.3066	4	1279.52	4.58
328.15	4.4423	2	1239.01	4.07
328.15	4.6879	1	1222.09	3.86
328.15	4.7905	4	1287.14	4.68
328.15	4.7936	2	1248.25	4.19
328.15	5.1034	2	1257.53	4.3
328.15	5.356	1	1238.07	4.06
328.15	0.9452	4	1183.2	3.36
