Measured thermophysical data. Molar Conductivities and Association Constants of 1-Butyl-3-methylimidazolium Chloride and 1-Butyl-3-methylimidazolium Tetrafluoroborate in Methanol and DMSO
Source: J. Chem. Eng. Data, 2010, 10.1021/je900531b
Compound 1: 1-butyl-3-methylimidazolium tetrafluoroborate, C8H15BF4N2, InChI=1S/C8H15N2.BF4/c1-3-4-5-10-7-6-9(2)8-10;2-1(3,4)5/h6-8H,3-5H2,1-2H3;/q+1;-1
Compound 2: 1-butyl-3-methylimidazolium chloride, C8H15ClN2, InChI=1S/C8H15N2.ClH/c1-3-4-5-10-7-6-9(2)8-10;/h6-8H,3-5H2,1-2H3;1H/q+1;/p-1
Compound 3: methanol, CH4O, InChI=1S/CH4O/c1-2/h2H,1H3, purity 99.9%
Compound 4: dimethyl sulfoxide, C2H6OS, InChI=1S/C2H6OS/c1-4(2)3/h1-2H3, purity 99.9%

System: methanol; phases: Liquid
Fixed: Pressure, kPa = 101.325
Property: Mass density, kg/m3 (Liquid); method: Vibrating tube method
Temperature, K	Mass density, kg/m3	uncertainty
273.15	809.772	0.145
278.15	805.111	0.146
283.15	800.446	0.148
288.15	795.769	0.149
293.15	791.08	0.15
298.15	786.373	0.151
303.15	781.646	0.153
308.15	776.894	0.154
313.15	772.114	0.155

System: dimethyl sulfoxide; phases: Liquid
Fixed: Pressure, kPa = 101.325
Property: Mass density, kg/m3 (Liquid); method: Vibrating tube method
Temperature, K	Mass density, kg/m3	uncertainty
293.15	1100.424	0.127
298.15	1095.448	0.126
303.15	1090.467	0.125
308.15	1085.481	0.124
313.15	1080.49	0.123
318.15	1075.493	0.122

System: methanol + 1-butyl-3-methylimidazolium tetrafluoroborate; phases: Liquid
Fixed: Pressure, kPa = 101
Property: Molar conductivity, S*m2/mol (Liquid); method: Alternating current cell with electrodes
Temperature, K	Molality, mol/kg of 1-butyl-3-methylimidazolium tetrafluoroborate	Molar conductivity, S*m2/mol	uncertainty
273.15	0.00105013	0.0079728	8e-06
273.15	0.00142814	0.0078597	7.9e-06
273.15	0.0019593	0.0077171	7.7e-06
273.15	0.00253526	0.0075651	7.6e-06
273.15	0.0031841	0.0074345	7.4e-06
273.15	0.0039638	0.0072935	7.3e-06
273.15	0.00485363	0.0071498	7.2e-06
273.15	0.00583332	0.0070087	7e-06
278.15	0.00105013	0.0085775	8.6e-06
278.15	0.00142814	0.0084551	8.5e-06
278.15	0.0019593	0.0083092	8.3e-06
278.15	0.00253526	0.008168	8.2e-06
278.15	0.0031841	0.0080068	8e-06
278.15	0.0039638	0.0078558	7.9e-06
278.15	0.00485363	0.0077031	7.7e-06
278.15	0.00583332	0.0075519	7.6e-06
283.15	0.00105013	0.0092115	9.2e-06
283.15	0.00142814	0.0090807	9.1e-06
283.15	0.0019593	0.0089225	8.9e-06
283.15	0.00253526	0.0087705	8.8e-06
283.15	0.0031841	0.0085977	8.6e-06
283.15	0.0039638	0.0084375	8.4e-06
283.15	0.00485363	0.0082734	8.3e-06
283.15	0.00583332	0.0081135	8.1e-06
288.15	0.00105013	0.0098674	9.9e-06
288.15	0.00142814	0.00972586	9.73e-06
288.15	0.0019593	0.0095544	9.6e-06
288.15	0.00253526	0.0093917	9.4e-06
288.15	0.0031841	0.0092077	9.2e-06
288.15	0.0039638	0.009037	9e-06
288.15	0.00485363	0.0088633	8.9e-06
288.15	0.00583332	0.0086923	8.7e-06
293.15	0.00105013	0.0105443	1.05e-05
293.15	0.00142814	0.0103923	1.04e-05
293.15	0.0019593	0.0102073	1.02e-05
293.15	0.00253526	0.0100333	1e-05
293.15	0.0031841	0.0098372	9.8e-06
293.15	0.0039638	0.0096552	9.7e-06
293.15	0.00485363	0.0094702	9.5e-06
293.15	0.00583332	0.0092893	9.3e-06
298.15	0.00105013	0.0112441	1.12e-05
298.15	0.00142814	0.0110791	1.11e-05
298.15	0.0019593	0.0108813	1.09e-05
298.15	0.00253526	0.0106953	1.07e-05
298.15	0.0031841	0.010486	1.05e-05
298.15	0.0039638	0.0102929	1.03e-05
298.15	0.00485363	0.010097	1.01e-05
298.15	0.00583332	0.0099051	9.9e-06
303.15	0.00105013	0.0119665	1.2e-05
303.15	0.00142814	0.0117895	1.18e-05
303.15	0.0019593	0.0115772	1.16e-05
303.15	0.00253526	0.0113784	1.14e-05
303.15	0.0031841	0.011155	1.12e-05
303.15	0.0039638	0.01095	1.1e-05
303.15	0.00485363	0.0107425	1.07e-05
303.15	0.00583332	0.0105386	1.05e-05
308.15	0.00105013	0.012707	1.27e-05
308.15	0.00142814	0.0125185	1.25e-05
308.15	0.0019593	0.0122921	1.23e-05
308.15	0.00253526	0.0120799	1.21e-05
308.15	0.0031841	0.0118426	1.18e-05
308.15	0.0039638	0.0116245	1.16e-05
308.15	0.00485363	0.0114043	1.14e-05
308.15	0.00583332	0.0111884	1.12e-05
313.15	0.00105013	0.0134618	1.35e-05
313.15	0.00142814	0.0132615	1.33e-05
313.15	0.0019593	0.013021	1.3e-05
313.15	0.00253526	0.0127957	1.28e-05
313.15	0.0031841	0.0125431	1.25e-05
313.15	0.0039638	0.0123123	1.23e-05
313.15	0.00485363	0.012079	1.21e-05
313.15	0.00583332	0.0118514	1.19e-05

System: methanol + 1-butyl-3-methylimidazolium chloride; phases: Liquid
Fixed: Pressure, kPa = 101
Property: Molar conductivity, S*m2/mol (Liquid); method: Alternating current cell with electrodes
Temperature, K	Molality, mol/kg of 1-butyl-3-methylimidazolium chloride	Molar conductivity, S*m2/mol	uncertainty
273.15	0.00021706	0.0073393	7.3e-06
273.15	0.00044773	0.0072782	7.3e-06
273.15	0.00070908	0.0071799	7.2e-06
273.15	0.00100624	0.0070861	7.1e-06
273.15	0.00130503	0.0070238	7e-06
273.15	0.00166937	0.006955	7e-06
273.15	0.00215968	0.0068767	6.9e-06
273.15	0.00270532	0.006814	6.8e-06
273.15	0.0033311	0.0067423	6.7e-06
273.15	0.0040168	0.0066807	6.7e-06
278.15	0.00021706	0.0079262	7.9e-06
278.15	0.00044773	0.0078342	7.8e-06
278.15	0.00070908	0.0077563	7.8e-06
278.15	0.00100624	0.0076578	7.7e-06
278.15	0.00130503	0.0075829	7.6e-06
278.15	0.00166937	0.0075087	7.5e-06
278.15	0.00215968	0.0074242	7.4e-06
278.15	0.00270532	0.0073481	7.3e-06
278.15	0.0033311	0.0072725	7.3e-06
278.15	0.0040168	0.0072036	7.2e-06
283.15	0.00021706	0.0085336	8.5e-06
283.15	0.00044773	0.0084382	8.4e-06
283.15	0.00070908	0.008356	8.4e-06
283.15	0.00100624	0.0082474	8.2e-06
283.15	0.00130503	0.0081655	8.2e-06
283.15	0.00166937	0.0080837	8.1e-06
283.15	0.00215968	0.0079912	8e-06
283.15	0.00270532	0.0079077	7.9e-06
283.15	0.0033311	0.0078251	7.8e-06
283.15	0.0040168	0.0077501	7.8e-06
288.15	0.00021706	0.0091641	9.2e-06
288.15	0.00044773	0.0090616	9.1e-06
288.15	0.00070908	0.008978	9e-06
288.15	0.00100624	0.008858	8.9e-06
288.15	0.00130503	0.0087677	8.8e-06
288.15	0.00166937	0.0086781	8.7e-06
288.15	0.00215968	0.0085775	8.6e-06
288.15	0.00270532	0.008486	8.5e-06
288.15	0.0033311	0.0083961	8.4e-06
288.15	0.0040168	0.0083144	8.3e-06
293.15	0.00021706	0.0098195	9.8e-06
293.15	0.00044773	0.0097114	9.7e-06
293.15	0.00070908	0.009622	9.6e-06
293.15	0.00100624	0.0094915	9.5e-06
293.15	0.00130503	0.0093939	9.4e-06
293.15	0.00166937	0.0092964	9.3e-06
293.15	0.00215968	0.009186	9.2e-06
293.15	0.00270532	0.0090881	9.1e-06
293.15	0.0033311	0.0089891	9e-06
293.15	0.0040168	0.0089008	8.9e-06
298.15	0.00021706	0.0105039	1.05e-05
298.15	0.00044773	0.0103863	1.04e-05
298.15	0.00070908	0.0102917	1.03e-05
298.15	0.00100624	0.0101496	1.01e-05
298.15	0.00130503	0.0100424	1e-05
298.15	0.00166937	0.0099376	9.9e-06
298.15	0.00215968	0.0098178	9.8e-06
298.15	0.00270532	0.0097109	9.7e-06
298.15	0.0033311	0.0096027	9.6e-06
298.15	0.0040168	0.0095056	9.5e-06
303.15	0.00021706	0.0112158	1.12e-05
303.15	0.00044773	0.0110902	1.11e-05
303.15	0.00070908	0.0109877	1.1e-05
303.15	0.00100624	0.0108331	1.08e-05
303.15	0.00130503	0.0107176	1.07e-05
303.15	0.00166937	0.0106027	1.06e-05
303.15	0.00215968	0.0104727	1.05e-05
303.15	0.00270532	0.0103574	1.04e-05
303.15	0.0033311	0.0102412	1.02e-05
303.15	0.0040168	0.0101388	1.01e-05
308.15	0.00021706	0.0119554	1.2e-05
308.15	0.00044773	0.0118256	1.18e-05
308.15	0.00070908	0.0117084	1.17e-05
308.15	0.00100624	0.0115437	1.15e-05
308.15	0.00130503	0.011418	1.14e-05
308.15	0.00166937	0.0112917	1.13e-05
308.15	0.00215968	0.011152	1.12e-05
308.15	0.00270532	0.0110267	1.1e-05
308.15	0.0033311	0.0109007	1.09e-05
308.15	0.0040168	0.0107961	1.08e-05
313.15	0.00021706	0.0127274	1.27e-05
313.15	0.00044773	0.012588	1.26e-05
313.15	0.00070908	0.0124513	1.25e-05
313.15	0.00100624	0.0122757	1.23e-05
313.15	0.00130503	0.012139	1.21e-05
313.15	0.00166937	0.0120017	1.2e-05
313.15	0.00215968	0.0118515	1.19e-05
313.15	0.00270532	0.0117153	1.17e-05
313.15	0.0033311	0.011581	1.16e-05
313.15	0.0040168	0.0114654	1.15e-05

System: dimethyl sulfoxide + 1-butyl-3-methylimidazolium tetrafluoroborate; phases: Liquid
Fixed: Pressure, kPa = 101
Property: Molar conductivity, S*m2/mol (Liquid); method: Alternating current cell with electrodes
Temperature, K	Molality, mol/kg of 1-butyl-3-methylimidazolium tetrafluoroborate	Molar conductivity, S*m2/mol	uncertainty
293.15	0.000597	0.0036272	3.6e-06
293.15	0.00098148	0.0035999	3.6e-06
293.15	0.00131707	0.0035787	3.6e-06
293.15	0.0017718	0.0035525	3.6e-06
293.15	0.00240603	0.003522	3.5e-06
293.15	0.00319254	0.0034899	3.5e-06
293.15	0.00407267	0.0034599	3.5e-06
293.15	0.00502217	0.0034309	3.4e-06
293.15	0.00609087	0.0034012	3.4e-06
298.15	0.000597	0.0040134	4e-06
298.15	0.00098148	0.0039794	4e-06
298.15	0.00131707	0.0039554	4e-06
298.15	0.0017718	0.0039264	3.9e-06
298.15	0.00240603	0.0038932	3.9e-06
298.15	0.00319254	0.0038573	3.9e-06
298.15	0.00407267	0.0038232	3.8e-06
298.15	0.00502217	0.0037913	3.8e-06
298.15	0.00609087	0.0037588	3.8e-06
303.15	0.000597	0.0044107	4.4e-06
303.15	0.00098148	0.0043725	4.4e-06
303.15	0.00131707	0.004346	4.3e-06
303.15	0.0017718	0.0043139	4.3e-06
303.15	0.00240603	0.0042759	4.3e-06
303.15	0.00319254	0.0042379	4.2e-06
303.15	0.00407267	0.0041995	4.2e-06
303.15	0.00502217	0.004165	4.2e-06
303.15	0.00609087	0.0041286	4.1e-06
308.15	0.000597	0.0048196	4.8e-06
308.15	0.00098148	0.0047783	4.8e-06
308.15	0.00131707	0.0047484	4.7e-06
308.15	0.0017718	0.0047129	4.7e-06
308.15	0.00240603	0.0046717	4.7e-06
308.15	0.00319254	0.0046301	4.6e-06
308.15	0.00407267	0.0045879	4.6e-06
308.15	0.00502217	0.004549	4.5e-06
308.15	0.00609087	0.00451036	4.51e-06
313.15	0.000597	0.0052392	5.2e-06
313.15	0.00098148	0.0051927	5.2e-06
313.15	0.00131707	0.0051609	5.2e-06
313.15	0.0017718	0.0051222	5.1e-06
313.15	0.00240603	0.0050772	5.1e-06
313.15	0.00319254	0.0050318	5e-06
313.15	0.00407267	0.0049863	5e-06
313.15	0.00502217	0.0049439	4.9e-06
313.15	0.00609087	0.0049016	4.9e-06
318.15	0.000597	0.005671	5.7e-06
318.15	0.00098148	0.0056206	5.6e-06
318.15	0.00131707	0.0055847	5.6e-06
318.15	0.0017718	0.0055438	5.5e-06
318.15	0.00240603	0.0054948	5.5e-06
318.15	0.00319254	0.005446	5.4e-06
318.15	0.00407267	0.0053964	5.4e-06
318.15	0.00502217	0.0053503	5.4e-06
318.15	0.00609087	0.0053043	5.3e-06

System: dimethyl sulfoxide + 1-butyl-3-methylimidazolium chloride; phases: Liquid
Fixed: Pressure, kPa = 101
Property: Molar conductivity, S*m2/mol (Liquid); method: Alternating current cell with electrodes
Temperature, K	Molality, mol/kg of 1-butyl-3-methylimidazolium chloride	Molar conductivity, S*m2/mol	uncertainty
293.15	0.00014598	0.0034012	3.4e-06
293.15	0.0003611	0.0033668	3.4e-06
293.15	0.00058065	0.0033354	3.3e-06
293.15	0.00085343	0.0033054	3.3e-06
293.15	0.00112857	0.0032776	3.3e-06
293.15	0.00147448	0.003253	3.3e-06
293.15	0.00188032	0.0032237	3.2e-06
293.15	0.00230667	0.003199	3.2e-06
293.15	0.00276804	0.0031699	3.2e-06
293.15	0.00333797	0.0031448	3.1e-06
298.15	0.00014598	0.0037784	3.8e-06
298.15	0.0003611	0.003741	3.7e-06
298.15	0.00058065	0.003704	3.7e-06
298.15	0.00085343	0.003671	3.7e-06
298.15	0.00112857	0.0036432	3.6e-06
298.15	0.00147448	0.0036131	3.6e-06
298.15	0.00188032	0.0035828	3.6e-06
298.15	0.00230667	0.003553	3.6e-06
298.15	0.00276804	0.0035251	3.5e-06
298.15	0.00333797	0.0034928	3.5e-06
303.15	0.00014598	0.004171	4.2e-06
303.15	0.0003611	0.0041279	4.1e-06
303.15	0.00058065	0.0040878	4.1e-06
303.15	0.00085343	0.0040516	4.1e-06
303.15	0.00112857	0.0040206	4e-06
303.15	0.00147448	0.003987	4e-06
303.15	0.00188032	0.0039534	4e-06
303.15	0.00230667	0.0039213	3.9e-06
303.15	0.00276804	0.0038905	3.9e-06
303.15	0.00333797	0.0038544	3.9e-06
308.15	0.00014598	0.0045748	4.6e-06
308.15	0.0003611	0.0045277	4.5e-06
308.15	0.00058065	0.0044849	4.5e-06
308.15	0.00085343	0.0044454	4.4e-06
308.15	0.00112857	0.0044116	4.4e-06
308.15	0.00147448	0.0043752	4.4e-06
308.15	0.00188032	0.0043382	4.3e-06
308.15	0.00230667	0.0043029	4.3e-06
308.15	0.00276804	0.0042689	4.3e-06
308.15	0.00333797	0.0042298	4.2e-06
313.15	0.00014598	0.0049923	5e-06
313.15	0.0003611	0.0049403	4.9e-06
313.15	0.00058065	0.0048931	4.9e-06
313.15	0.00085343	0.0048504	4.9e-06
313.15	0.00112857	0.0048138	4.8e-06
313.15	0.00147448	0.0047741	4.8e-06
313.15	0.00188032	0.0047337	4.7e-06
313.15	0.00230667	0.0046958	4.7e-06
313.15	0.00276804	0.0046588	4.7e-06
313.15	0.00333797	0.0046168	4.6e-06
318.15	0.00014598	0.0054246	5.4e-06
318.15	0.0003611	0.0053679	5.4e-06
318.15	0.00058065	0.0053164	5.3e-06
318.15	0.00085343	0.0052689	5.3e-06
318.15	0.00112857	0.0052303	5.2e-06
318.15	0.00147448	0.0051869	5.2e-06
318.15	0.00188032	0.0051432	5.1e-06
318.15	0.00230667	0.0051006	5.1e-06
318.15	0.00276804	0.005062	5.1e-06
318.15	0.00333797	0.0050166	5e-06
