Measured thermophysical data. Volumetric Properties of Pressure-Transmitting Fluids up to 350 MPa: Water, Ethanol, Ethylene Glycol, Propylene Glycol, Castor Oil, Silicon Oil, and Some of Their Binary Mixture
Source: J. Chem. Eng. Data, 2010, 10.1021/je9010568
Compound 1: water, H2O, InChI=1S/H2O/h1H2
Compound 2: 1,2-propanediol, C3H8O2, InChI=1S/C3H8O2/c1-3(5)2-4/h3-5H,2H2,1H3
Compound 3: 1,2-ethanediol, C2H6O2, InChI=1S/C2H6O2/c3-1-2-4/h3-4H,1-2H2

System: 1,2-propanediol; phases: Liquid
Fixed: Pressure, kPa = 100
Property: Specific volume, m3/kg (Liquid); method: Vibrating tube method
Temperature, K	Specific volume, m3/kg	uncertainty
288.31	0.0009617	2.4e-07
273.15	0.00095186	2.4e-07
274.15	0.00095251	2.4e-07
275.15	0.00095316	2.4e-07
276.15	0.00095378	2.4e-07
277.15	0.00095441	2.4e-07
278.15	0.00095505	2.4e-07
279.15	0.00095568	2.4e-07
280.15	0.00095633	2.4e-07
281.15	0.00095697	2.4e-07
282.16	0.00095762	2.4e-07
283.16	0.00095827	2.4e-07
284.16	0.00095893	2.4e-07
285.16	0.00095959	2.4e-07
286.16	0.00096025	2.4e-07
287.16	0.00096091	2.4e-07
288.16	0.00096158	2.4e-07
289.16	0.00096224	2.4e-07
290.15	0.00096292	2.4e-07
291.15	0.00096359	2.4e-07
292.15	0.00096426	2.4e-07
293.15	0.00096494	2.4e-07
294.15	0.00096562	2.4e-07
295.15	0.00096631	2.4e-07
296.16	0.00096699	2.4e-07
297.16	0.00096768	2.4e-07
298.16	0.00096837	2.4e-07
299.16	0.00096906	2.4e-07
300.16	0.00096976	2.4e-07
301.16	0.00097046	2.4e-07
302.16	0.00097116	2.4e-07
303.16	0.00097186	2.4e-07
304.15	0.00097257	2.4e-07
305.15	0.00097327	2.4e-07
306.15	0.00097398	2.4e-07
307.15	0.0009747	2.4e-07
308.15	0.00097541	2.4e-07
309.15	0.00097613	2.4e-07
310.15	0.00097685	2.4e-07
311.15	0.00097758	2.4e-07
312.15	0.0009783	2.4e-07
313.15	0.00097903	2.4e-07
288.34	0.0009617	2.4e-07
288.05	0.0009615	2.4e-07

System: 1,2-propanediol; phases: Liquid
Property: Specific volume, m3/kg (Liquid); method: Bellows volumetry
Pressure, kPa	Temperature, K	Specific volume, m3/kg	uncertainty
48800	288.38	0.0009437	3.6e-07
49000	288.17	0.0009425	2.7e-07
49200	288.05	0.0009434	4.3e-07
99300	288.15	0.000926	3.77e-06
99800	288.22	0.0009279	1.31e-06
99900	288.14	0.0009277	8.3e-06
148200	288.21	0.0009125	4.4e-07
148700	288.11	0.0009148	1.11e-06
149900	288.28	0.0009146	1.62e-06
198400	288.12	0.0009035	1.4e-06
199500	288.24	0.0009	5.9e-07
199600	288.31	0.0009031	1.99e-06
248700	288.12	0.0008932	2.29e-06
249300	288.2	0.0008891	7.1e-07
250100	288.29	0.0008927	1.98e-06
298200	287.78	0.0008796	1.38e-06
299700	288.1	0.0008829	1.26e-06
299900	288.31	0.0008834	9.9e-07
348900	287.98	0.0008706	1.77e-06
349100	288.32	0.000875	1.31e-06
349200	288.17	0.0008746	1.3e-06

System: 1,2-ethanediol; phases: Liquid
Fixed: Pressure, kPa = 100
Property: Specific volume, m3/kg (Liquid); method: Vibrating tube method
Temperature, K	Specific volume, m3/kg	uncertainty
288.22	0.0008954	8.7e-07
273.15	0.0008871	8.7e-07
274.14	0.00088764	8.7e-07
275.14	0.00088819	8.7e-07
276.15	0.00088873	8.7e-07
277.15	0.00088928	8.7e-07
278.15	0.00088982	8.7e-07
279.15	0.00089037	8.7e-07
280.15	0.00089092	8.7e-07
281.15	0.00089147	8.7e-07
282.15	0.00089203	8.7e-07
283.15	0.00089258	8.7e-07
284.15	0.00089313	8.7e-07
285.15	0.00089369	8.7e-07
286.15	0.00089424	8.7e-07
287.15	0.0008948	8.7e-07
288.15	0.00089535	8.7e-07
289.15	0.00089591	8.7e-07
290.15	0.00089647	8.7e-07
291.15	0.00089703	8.7e-07
292.15	0.0008976	8.7e-07
293.15	0.00089816	8.7e-07
294.15	0.00089872	8.7e-07
295.15	0.00089929	8.7e-07
296.15	0.00089985	8.7e-07
297.15	0.00090042	8.7e-07
298.16	0.00090099	8.7e-07
299.16	0.00090156	8.7e-07
300.16	0.00090213	8.7e-07
301.16	0.0009027	8.7e-07
302.16	0.00090327	8.7e-07
303.15	0.00090385	8.7e-07
304.16	0.00090442	8.7e-07
305.15	0.000905	8.7e-07
306.15	0.00090557	8.7e-07
307.15	0.00090615	8.7e-07
308.15	0.00090674	8.7e-07
309.15	0.00090732	8.7e-07
310.15	0.0009079	8.7e-07
311.15	0.00090849	8.7e-07
312.15	0.00090907	8.7e-07
313.15	0.00090966	8.7e-07
288.16	0.0008954	8.7e-07
288.21	0.0008954	8.7e-07

System: 1,2-ethanediol; phases: Liquid
Property: Specific volume, m3/kg (Liquid); method: Bellows volumetry
Pressure, kPa	Temperature, K	Specific volume, m3/kg	uncertainty
48900	288.18	0.0008815	8.1e-07
49000	288.21	0.0008815	8.1e-07
49200	288.19	0.0008811	8.1e-07
99600	288.24	0.0008688	8.1e-07
99800	288.18	0.0008684	8.1e-07
99800	288.09	0.0008687	8.1e-07
149400	288.18	0.0008577	8.1e-07
149400	288.23	0.000858	8.1e-07
150000	288.17	0.0008579	8.1e-07
198100	288.18	0.0008485	8.1e-07
199700	288.21	0.0008479	8.1e-07
199700	288.24	0.0008482	8.1e-07
248600	288.2	0.0008396	8.1e-07
248800	288.17	0.0008395	8.1e-07
249300	288.19	0.0008392	8.1e-07
298500	288.17	0.0008314	8.1e-07
299200	288.18	0.0008312	8.1e-07
299700	288.15	0.0008313	8.1e-07
348700	288.12	0.0008241	8.1e-07
349400	288.15	0.0008238	8.1e-07
350400	288.17	0.0008236	8.1e-07

System: 1,2-ethanediol + water; phases: Liquid
Fixed: Pressure, kPa = 100
Fixed: Volume fraction of 1,2-ethanediol = 0.75
Property: Specific volume, m3/kg (Liquid); method: Vibrating tube method
Temperature, K	Specific volume, m3/kg	uncertainty
288.13	0.0009105	5.3e-07
273.15	0.00090241	5.3e-07
274.15	0.00090294	5.3e-07
275.15	0.00090347	5.3e-07
276.15	0.000904	5.3e-07
277.15	0.00090453	5.3e-07
278.15	0.00090506	5.3e-07
279.15	0.0009056	5.3e-07
280.15	0.00090613	5.3e-07
281.15	0.00090667	5.3e-07
282.15	0.00090721	5.3e-07
283.16	0.00090775	5.3e-07
284.16	0.00090829	5.3e-07
285.16	0.00090883	5.3e-07
286.16	0.00090938	5.3e-07
287.16	0.00090992	5.3e-07
288.16	0.00091047	5.3e-07
289.16	0.00091102	5.3e-07
290.16	0.00091157	5.3e-07
291.16	0.00091212	5.3e-07
292.15	0.00091267	5.3e-07
293.15	0.00091323	5.3e-07
294.15	0.00091378	5.3e-07
295.16	0.00091434	5.3e-07
296.16	0.0009149	5.3e-07
297.15	0.00091546	5.3e-07
298.15	0.00091603	5.3e-07
299.15	0.00091659	5.3e-07
300.16	0.00091716	5.3e-07
301.16	0.00091773	5.3e-07
302.16	0.0009183	5.3e-07
303.16	0.00091887	5.3e-07
304.16	0.00091945	5.3e-07
305.16	0.00092003	5.3e-07
306.16	0.0009206	5.3e-07
307.15	0.00092118	5.2e-07
308.15	0.00092177	5.2e-07
309.15	0.00092235	5.2e-07
310.15	0.00092293	5.2e-07
311.15	0.00092352	5.2e-07
312.15	0.00092411	5.2e-07
313.15	0.00092471	5.2e-07
288.11	0.0009104	5.3e-07
288.09	0.0009104	5.3e-07

System: 1,2-ethanediol + water; phases: Liquid
Fixed: Volume fraction of 1,2-ethanediol = 0.75
Property: Specific volume, m3/kg (Liquid); method: Bellows volumetry
Pressure, kPa	Temperature, K	Specific volume, m3/kg	uncertainty
49300	288.33	0.0008968	5e-07
49400	288.13	0.0008974	5e-07
49700	288.11	0.0008965	5e-07
98200	288.12	0.0008844	5e-07
98200	288.1	0.0008859	5e-07
100900	288.36	0.0008842	5e-07
148600	288.09	0.0008753	5e-07
149300	288.33	0.0008737	5e-07
149800	288.14	0.0008734	5e-07
199000	288.14	0.0008635	5e-07
199100	288.15	0.0008654	5e-07
199200	288.31	0.0008639	5e-07
248700	288.16	0.0008558	5e-07
250600	288.19	0.0008544	5e-07
251000	288.32	0.0008545	5e-07
299600	288.29	0.0008463	5e-07
299900	288.17	0.0008461	5e-07
300300	288.33	0.0008464	5e-07
348300	288.33	0.0008391	5e-07
349300	288.13	0.0008385	5e-07
350200	288.31	0.0008386	5e-07

System: 1,2-propanediol + water; phases: Liquid
Fixed: Pressure, kPa = 100
Fixed: Volume fraction of 1,2-propanediol = 0.55
Property: Specific volume, m3/kg (Liquid); method: Vibrating tube method
Temperature, K	Specific volume, m3/kg	uncertainty
273.15	0.00094991	2.3e-07
274.15	0.00095046	2.3e-07
275.15	0.00095101	2.3e-07
276.15	0.00095158	2.3e-07
277.15	0.00095214	2.3e-07
278.15	0.00095271	2.3e-07
279.15	0.00095327	2.3e-07
280.15	0.00095385	2.3e-07
281.15	0.00095442	2.3e-07
282.15	0.000955	2.3e-07
283.15	0.00095558	2.3e-07
284.15	0.00095617	2.3e-07
285.16	0.00095676	2.3e-07
286.16	0.00095735	2.3e-07
287.16	0.00095794	2.3e-07
288.16	0.00095854	2.3e-07
289.16	0.00095914	2.3e-07
290.16	0.00095974	2.3e-07
291.15	0.00096034	2.3e-07
292.15	0.00096095	2.3e-07
293.15	0.00096157	2.3e-07
294.15	0.00096218	2.3e-07
295.15	0.0009628	2.3e-07
296.16	0.00096343	2.3e-07
297.16	0.00096406	2.3e-07
298.16	0.00096469	2.3e-07
299.16	0.00096532	2.3e-07
300.16	0.00096596	2.3e-07
301.16	0.00096661	2.3e-07
302.16	0.00096725	2.3e-07
303.16	0.0009679	2.3e-07
304.16	0.00096855	2.3e-07
305.16	0.0009692	2.3e-07
306.16	0.00096986	2.3e-07
307.15	0.00097053	2.3e-07
308.15	0.00097119	2.3e-07
309.15	0.00097186	2.3e-07
310.15	0.00097254	2.3e-07
311.15	0.00097321	2.3e-07
312.15	0.00097389	2.3e-07
313.15	0.00097458	2.3e-07
288.13	0.0009585	2.3e-07
288.32	0.0009586	2.3e-07
288.13	0.0009585	2.3e-07

System: 1,2-propanediol + water; phases: Liquid
Fixed: Volume fraction of 1,2-propanediol = 0.55
Property: Specific volume, m3/kg (Liquid); method: Bellows volumetry
Pressure, kPa	Temperature, K	Specific volume, m3/kg	uncertainty
49500	288.03	0.0009439	2.7e-07
49600	288.12	0.0009432	2.7e-07
49800	288.33	0.0009434	2.7e-07
98100	288.13	0.0009301	2.7e-07
100100	288	0.0009305	2.7e-07
100900	288.3	0.0009295	2.7e-07
148600	288.13	0.0009182	2.6e-07
148900	288.04	0.0009188	2.6e-07
149300	288.31	0.0009178	2.6e-07
198700	288.12	0.000907	2.6e-07
198800	287.99	0.0009078	2.6e-07
201100	288.31	0.0009066	2.6e-07
248600	288.11	0.0008977	2.6e-07
249300	288.22	0.000897	2.6e-07
249400	288.33	0.0008969	2.6e-07
298400	288.11	0.0008885	2.6e-07
299200	288.36	0.0008882	2.6e-07
300500	288.31	0.0008875	2.6e-07
348400	288.12	0.0008794	2.6e-07
348700	288.31	0.0008793	2.6e-07
350000	288.35	0.0008796	2.6e-07
