Measured thermophysical data. Physical Properties of Binary Mixtures of Ethyl Formate with Benzene, Isopropyl Benzene, Isobutyl Benzene, and Butylbenzene at (303.15, 308.15, and 313.15) K
Source: J. Chem. Eng. Data, 2010, 10.1021/je900689m
Compound 1: ethyl methanoate, C3H6O2, InChI=1S/C3H6O2/c1-2-5-3-4/h3H,2H2,1H3, purity 99%
Compound 2: benzene, C6H6, InChI=1S/C6H6/c1-2-4-6-5-3-1/h1-6H, purity 99%
Compound 3: isopropylbenzene, C9H12, InChI=1S/C9H12/c1-8(2)9-6-4-3-5-7-9/h3-8H,1-2H3, purity 99%
Compound 4: (2-methylpropyl)benzene, C10H14, InChI=1S/C10H14/c1-9(2)8-10-6-4-3-5-7-10/h3-7,9H,8H2,1-2H3, purity 99%
Compound 5: butylbenzene, C10H14, InChI=1S/C10H14/c1-2-3-7-10-8-5-4-6-9-10/h4-6,8-9H,2-3,7H2,1H3, purity 99%

System: ethyl methanoate; phases: Liquid
Fixed: Pressure, kPa = 101
Property: Viscosity, Pa*s (Liquid); method: Capillary tube (Ostwald; Ubbelohde) method
Temperature, K	Viscosity, Pa*s	uncertainty
303.15	0.000373	1.1e-05
308.15	0.000345	1e-05
313.15	0.000324	1e-05

System: ethyl methanoate; phases: Liquid
Fixed: Pressure, kPa = 101
Property: Speed of sound, m/s (Liquid); method: FPINT:UFactor:4
Temperature, K	Speed of sound, m/s	uncertainty
303.15	1092	5
308.15	1072	5
313.15	1052	5

System: ethyl methanoate; phases: Liquid
Fixed: Pressure, kPa = 101
Property: Mass density, kg/m3 (Liquid); method: VIBTUB:UFactor:6
Temperature, K	Mass density, kg/m3	uncertainty
303.15	907.8	0.7
308.15	902.6	0.7
313.15	897.1	0.7

System: benzene; phases: Liquid
Fixed: Pressure, kPa = 101
Property: Viscosity, Pa*s (Liquid); method: Capillary tube (Ostwald; Ubbelohde) method
Temperature, K	Viscosity, Pa*s	uncertainty
303.15	0.000569	1.1e-05
308.15	0.000534	1.1e-05
313.15	0.000497	1.1e-05

System: benzene; phases: Liquid
Fixed: Pressure, kPa = 101
Property: Speed of sound, m/s (Liquid); method: FPINT::UFactor:4
Temperature, K	Speed of sound, m/s	uncertainty
303.15	1276	6
308.15	1252	6
313.15	1228	6

System: benzene; phases: Liquid
Fixed: Pressure, kPa = 101
Property: Mass density, kg/m3 (Liquid); method: VIBTUB::UFactor:6
Temperature, K	Mass density, kg/m3	uncertainty
303.15	867.6	0.7
308.15	863.2	0.7
313.15	858.9	0.7

System: isopropylbenzene; phases: Liquid
Fixed: Pressure, kPa = 101
Property: Viscosity, Pa*s (Liquid); method: Capillary tube (Ostwald; Ubbelohde) method
Temperature, K	Viscosity, Pa*s	uncertainty
303.15	0.00069	1.1e-05
308.15	0.000651	1.1e-05
313.15	0.000611	1.1e-05

System: isopropylbenzene; phases: Liquid
Fixed: Pressure, kPa = 101
Property: Speed of sound, m/s (Liquid); method: FPINT::UFactor:4
Temperature, K	Speed of sound, m/s	uncertainty
303.15	1280	6
308.15	1264	6
313.15	1248	6

System: isopropylbenzene; phases: Liquid
Fixed: Pressure, kPa = 101
Property: Mass density, kg/m3 (Liquid); method: VIBTUB::UFactor:6
Temperature, K	Mass density, kg/m3	uncertainty
303.15	852.7	0.7
308.15	849	0.7
313.15	845.4	0.7

System: (2-methylpropyl)benzene; phases: Liquid
Fixed: Pressure, kPa = 101
Property: Viscosity, Pa*s (Liquid); method: Capillary tube (Ostwald; Ubbelohde) method
Temperature, K	Viscosity, Pa*s	uncertainty
303.15	0.000905	1.2e-05
308.15	0.000848	1.2e-05
313.15	0.000784	1.2e-05

System: (2-methylpropyl)benzene; phases: Liquid
Fixed: Pressure, kPa = 101
Property: Speed of sound, m/s (Liquid); method: FPINT::UFactor:4
Temperature, K	Speed of sound, m/s	uncertainty
303.15	1268	6
308.15	1252	6
313.15	1236	6

System: (2-methylpropyl)benzene; phases: Liquid
Fixed: Pressure, kPa = 101
Property: Mass density, kg/m3 (Liquid); method: VIBTUB::UFactor:6
Temperature, K	Mass density, kg/m3	uncertainty
303.15	844.4	0.7
308.15	841.1	0.8
313.15	837.6	0.8

System: butylbenzene; phases: Liquid
Fixed: Pressure, kPa = 101
Property: Viscosity, Pa*s (Liquid); method: Capillary tube (Ostwald; Ubbelohde) method
Temperature, K	Viscosity, Pa*s	uncertainty
303.15	0.000901	1.2e-05
308.15	0.000844	1.2e-05
313.15	0.000787	1.2e-05

System: butylbenzene; phases: Liquid
Fixed: Pressure, kPa = 101
Property: Speed of sound, m/s (Liquid); method: FPINT::UFactor:4
Temperature, K	Speed of sound, m/s	uncertainty
303.15	1308	6
308.15	1292	6
313.15	1276	6

System: butylbenzene; phases: Liquid
Fixed: Pressure, kPa = 101
Property: Mass density, kg/m3 (Liquid); method: VIBTUB::UFactor:6
Temperature, K	Mass density, kg/m3	uncertainty
303.15	851.3	0.7
308.15	848	0.7
313.15	844.6	0.7

System: benzene + ethyl methanoate; phases: Liquid
Fixed: Pressure, kPa = 101
Property: Viscosity, Pa*s (Liquid); method: Capillary tube (Ostwald; Ubbelohde) method
Temperature, K	Mole fraction of ethyl methanoate	Viscosity, Pa*s	uncertainty
303.15	0	0.000569	1.1e-05
303.15	0.1089	0.000529	1.1e-05
303.15	0.2169	0.000493	1.1e-05
303.15	0.3189	0.000462	1.1e-05
303.15	0.4239	0.000439	1.1e-05
303.15	0.5253	0.000422	1.1e-05
303.15	0.6233	0.00041	1.1e-05
303.15	0.7211	0.000399	1.1e-05
303.15	0.8148	0.000389	1.1e-05
303.15	0.9088	0.000379	1.1e-05
303.15	1	0.000373	1.1e-05
308.15	0	0.000534	1.1e-05
308.15	0.1089	0.000499	1.1e-05
308.15	0.2169	0.00046	1.1e-05
308.15	0.3189	0.000431	1.1e-05
308.15	0.4239	0.000408	1.1e-05
308.15	0.5253	0.000392	1.1e-05
308.15	0.6233	0.00038	1.1e-05
308.15	0.7211	0.00037	1e-05
308.15	0.8148	0.000364	1e-05
308.15	0.9088	0.000355	1e-05
308.15	1	0.000345	1e-05
313.15	0	0.000497	1.1e-05
313.15	0.1089	0.000468	1.1e-05
313.15	0.2169	0.000428	1.1e-05
313.15	0.3189	0.000401	1.1e-05
313.15	0.4239	0.00038	1.1e-05
313.15	0.5253	0.000364	1e-05
313.15	0.6233	0.000354	1e-05
313.15	0.7211	0.000348	1e-05
313.15	0.8148	0.000338	1e-05
313.15	0.9088	0.000329	1e-05
313.15	1	0.000324	1e-05

System: benzene + ethyl methanoate; phases: Liquid
Fixed: Pressure, kPa = 101
Property: Speed of sound, m/s (Liquid); method: FPINT:UFactor:4
Temperature, K	Mole fraction of ethyl methanoate	Speed of sound, m/s	uncertainty
303.15	0	1276	6
303.15	0.1089	1252	6
303.15	0.2169	1228	6
303.15	0.3189	1208	5
303.15	0.4239	1188	5
303.15	0.5253	1172	5
303.15	0.6233	1156	5
303.15	0.7211	1140	5
303.15	0.8148	1124	5
303.15	0.9088	1108	5
303.15	1	1092	5
308.15	0	1252	6
308.15	0.1089	1228	6
308.15	0.2169	1208	5
308.15	0.3189	1188	5
308.15	0.4239	1168	5
308.15	0.5253	1152	5
308.15	0.6233	1136	5
308.15	0.7211	1120	5
308.15	0.8148	1104	5
308.15	0.9088	1088	5
308.15	1	1072	5
313.15	0	1228	6
313.15	0.1089	1208	5
313.15	0.2169	1188	5
313.15	0.3189	1168	5
313.15	0.4239	1148	5
313.15	0.5253	1132	5
313.15	0.6233	1116	5
313.15	0.7211	1100	5
313.15	0.8148	1084	5
313.15	0.9088	1068	5
313.15	1	1052	5

System: benzene + ethyl methanoate; phases: Liquid
Fixed: Pressure, kPa = 101
Property: Mass density, kg/m3 (Liquid); method: VIBTUB:UFactor:6
Temperature, K	Mole fraction of ethyl methanoate	Mass density, kg/m3	uncertainty
303.15	0	867.6	0.7
303.15	0.1089	870.4	0.7
303.15	0.2169	873.5	0.7
303.15	0.3189	876.9	0.7
303.15	0.4239	880.8	0.7
303.15	0.5253	884.9	0.7
303.15	0.6233	889.1	0.7
303.15	0.7211	893.6	0.7
303.15	0.8148	898.1	0.7
303.15	0.9088	903	0.7
303.15	1	907.8	0.7
308.15	0	863.2	0.7
308.15	0.1089	865.8	0.7
308.15	0.2169	868.9	0.7
308.15	0.3189	872.2	0.7
308.15	0.4239	876	0.7
308.15	0.5253	880.1	0.7
308.15	0.6233	884.2	0.7
308.15	0.7211	888.6	0.7
308.15	0.8148	893	0.7
308.15	0.9088	897.8	0.7
308.15	1	902.6	0.7
313.15	0	858.9	0.7
313.15	0.1089	861.3	0.7
313.15	0.2169	864.3	0.7
313.15	0.3189	867.5	0.7
313.15	0.4239	871.2	0.7
313.15	0.5253	875.2	0.7
313.15	0.6233	879.2	0.7
313.15	0.7211	883.4	0.7
313.15	0.8148	887.7	0.7
313.15	0.9088	892.3	0.7
313.15	1	897.1	0.7

System: isopropylbenzene + ethyl methanoate; phases: Liquid
Fixed: Pressure, kPa = 101
Property: Viscosity, Pa*s (Liquid); method: Capillary tube (Ostwald; Ubbelohde) method
Temperature, K	Mole fraction of ethyl methanoate	Viscosity, Pa*s	uncertainty
303.15	0	0.00069	1.1e-05
303.15	0.1603	0.00063	1.1e-05
303.15	0.3007	0.000577	1.1e-05
303.15	0.4234	0.000534	1.1e-05
303.15	0.5352	0.0005	1.1e-05
303.15	0.633	0.000468	1.1e-05
303.15	0.7203	0.000444	1.1e-05
303.15	0.801	0.000424	1.1e-05
303.15	0.8724	0.000407	1.1e-05
303.15	0.9399	0.00039	1.1e-05
303.15	1	0.000373	1.1e-05
308.15	0	0.000651	1.1e-05
308.15	0.1603	0.000585	1.1e-05
308.15	0.3007	0.000537	1.1e-05
308.15	0.4234	0.000497	1.1e-05
308.15	0.5352	0.000463	1.1e-05
308.15	0.633	0.000437	1.1e-05
308.15	0.7203	0.000414	1.1e-05
308.15	0.801	0.000394	1.1e-05
308.15	0.8724	0.000382	1.1e-05
308.15	0.9399	0.000362	1e-05
308.15	1	0.000345	1e-05
313.15	0	0.000611	1.1e-05
313.15	0.1603	0.000544	1.1e-05
313.15	0.3007	0.000499	1.1e-05
313.15	0.4234	0.00046	1.1e-05
313.15	0.5352	0.000431	1.1e-05
313.15	0.633	0.000409	1.1e-05
313.15	0.7203	0.000386	1.1e-05
313.15	0.801	0.000367	1e-05
313.15	0.8724	0.000359	1e-05
313.15	0.9399	0.00034	1e-05
313.15	1	0.000324	1e-05

System: isopropylbenzene + ethyl methanoate; phases: Liquid
Fixed: Pressure, kPa = 101
Property: Speed of sound, m/s (Liquid); method: FPINT:UFactor:4
Temperature, K	Mole fraction of ethyl methanoate	Speed of sound, m/s	uncertainty
303.15	0	1280	6
303.15	0.1603	1252	6
303.15	0.3007	1228	6
303.15	0.4234	1204	5
303.15	0.5352	1180	5
303.15	0.633	1160	5
303.15	0.7203	1144	5
303.15	0.801	1128	5
303.15	0.8724	1116	5
303.15	0.9399	1104	5
303.15	1	1092	5
308.15	0	1264	6
308.15	0.1603	1240	6
308.15	0.3007	1216	5
308.15	0.4234	1192	5
308.15	0.5352	1168	5
308.15	0.633	1148	5
308.15	0.7203	1132	5
308.15	0.801	1116	5
308.15	0.8724	1100	5
308.15	0.9399	1088	5
308.15	1	1072	5
313.15	0	1248	6
313.15	0.1603	1228	6
313.15	0.3007	1200	5
313.15	0.4234	1176	5
313.15	0.5352	1152	5
313.15	0.633	1132	5
313.15	0.7203	1116	5
313.15	0.801	1100	5
313.15	0.8724	1084	5
313.15	0.9399	1068	5
313.15	1	1052	5

System: isopropylbenzene + ethyl methanoate; phases: Liquid
Fixed: Pressure, kPa = 101
Property: Mass density, kg/m3 (Liquid); method: VIBTUB:UFactor:6
Temperature, K	Mole fraction of ethyl methanoate	Mass density, kg/m3	uncertainty
303.15	0	852.7	0.7
303.15	0.1603	857	0.7
303.15	0.3007	861.7	0.7
303.15	0.4234	866.5	0.7
303.15	0.5352	871.9	0.7
303.15	0.633	877.4	0.7
303.15	0.7203	882.8	0.7
303.15	0.801	888.9	0.7
303.15	0.8724	894.8	0.7
303.15	0.9399	901.3	0.7
303.15	1	907.8	0.7
308.15	0	849	0.7
308.15	0.1603	853.2	0.7
308.15	0.3007	857.7	0.7
308.15	0.4234	862.4	0.7
308.15	0.5352	867.7	0.7
308.15	0.633	872.9	0.7
308.15	0.7203	878.2	0.7
308.15	0.801	884.2	0.7
308.15	0.8724	890	0.7
308.15	0.9399	896.4	0.7
308.15	1	902.6	0.7
313.15	0	845.4	0.7
313.15	0.1603	849.4	0.7
313.15	0.3007	853.7	0.7
313.15	0.4234	858.3	0.7
313.15	0.5352	863.3	0.7
313.15	0.633	868.4	0.7
313.15	0.7203	873.7	0.7
313.15	0.801	879.3	0.7
313.15	0.8724	884.9	0.7
313.15	0.9399	891.1	0.7
313.15	1	897.1	0.7

System: ethyl methanoate + (2-methylpropyl)benzene; phases: Liquid
Fixed: Pressure, kPa = 101
Property: Viscosity, Pa*s (Liquid); method: Capillary tube (Ostwald; Ubbelohde) method
Temperature, K	Mole fraction of ethyl methanoate	Viscosity, Pa*s	uncertainty
303.15	0	0.000905	1.2e-05
303.15	0.1772	0.000788	1.2e-05
303.15	0.3217	0.000699	1.1e-05
303.15	0.4514	0.000625	1.1e-05
303.15	0.5631	0.000569	1.1e-05
303.15	0.6604	0.00052	1.1e-05
303.15	0.7444	0.000481	1.1e-05
303.15	0.8191	0.00045	1.1e-05
303.15	0.8852	0.000418	1.1e-05
303.15	0.9461	0.000394	1.1e-05
303.15	1	0.000373	1.1e-05
308.15	0	0.000848	1.2e-05
308.15	0.1772	0.000726	1.1e-05
308.15	0.3217	0.000641	1.1e-05
308.15	0.4514	0.000573	1.1e-05
308.15	0.5631	0.000522	1.1e-05
308.15	0.6604	0.000479	1.1e-05
308.15	0.7444	0.000445	1.1e-05
308.15	0.8191	0.000415	1.1e-05
308.15	0.8852	0.000388	1.1e-05
308.15	0.9461	0.000369	1e-05
308.15	1	0.000345	1e-05
313.15	0	0.000784	1.2e-05
313.15	0.1772	0.000666	1.1e-05
313.15	0.3217	0.000591	1.1e-05
313.15	0.4514	0.000529	1.1e-05
313.15	0.5631	0.00048	1.1e-05
313.15	0.6604	0.000442	1.1e-05
313.15	0.7444	0.000413	1.1e-05
313.15	0.8191	0.000384	1.1e-05
313.15	0.8852	0.000362	1e-05
313.15	0.9461	0.000347	1e-05
313.15	1	0.000324	1e-05

System: ethyl methanoate + (2-methylpropyl)benzene; phases: Liquid
Fixed: Pressure, kPa = 101
Property: Speed of sound, m/s (Liquid); method: FPINT:UFactor:4
Temperature, K	Mole fraction of ethyl methanoate	Speed of sound, m/s	uncertainty
303.15	0	1268	6
303.15	0.1772	1248	6
303.15	0.3217	1224	6
303.15	0.4514	1200	5
303.15	0.5631	1180	5
303.15	0.6604	1164	5
303.15	0.7444	1148	5
303.15	0.8191	1132	5
303.15	0.8852	1120	5
303.15	0.9461	1104	5
303.15	1	1092	5
308.15	0	1252	6
308.15	0.1772	1228	6
308.15	0.3217	1204	5
308.15	0.4514	1180	5
308.15	0.5631	1160	5
308.15	0.6604	1144	5
308.15	0.7444	1128	5
308.15	0.8191	1112	5
308.15	0.8852	1100	5
308.15	0.9461	1084	5
308.15	1	1072	5
313.15	0	1236	6
313.15	0.1772	1208	5
313.15	0.3217	1184	5
313.15	0.4514	1160	5
313.15	0.5631	1140	5
313.15	0.6604	1124	5
313.15	0.7444	1108	5
313.15	0.8191	1092	5
313.15	0.8852	1080	5
313.15	0.9461	1064	5
313.15	1	1052	5

System: ethyl methanoate + (2-methylpropyl)benzene; phases: Liquid
Fixed: Pressure, kPa = 101
Property: Mass density, kg/m3 (Liquid); method: VIBTUB:UFactor:6
Temperature, K	Mole fraction of ethyl methanoate	Mass density, kg/m3	uncertainty
303.15	0	844.4	0.7
303.15	0.1772	849.5	0.7
303.15	0.3217	854.9	0.7
303.15	0.4514	860.8	0.7
303.15	0.5631	866.8	0.7
303.15	0.6604	873.3	0.7
303.15	0.7444	879.7	0.7
303.15	0.8191	886.3	0.7
303.15	0.8852	893.1	0.7
303.15	0.9461	900.5	0.7
303.15	1	907.8	0.7
308.15	0	841.1	0.8
308.15	0.1772	845.8	0.7
308.15	0.3217	851	0.7
308.15	0.4514	856.8	0.7
308.15	0.5631	862.7	0.7
308.15	0.6604	868.8	0.7
308.15	0.7444	875	0.7
308.15	0.8191	881.5	0.7
308.15	0.8852	888	0.7
308.15	0.9461	895.3	0.7
308.15	1	902.6	0.7
313.15	0	837.6	0.8
313.15	0.1772	842.1	0.8
313.15	0.3217	847	0.7
313.15	0.4514	852.6	0.7
313.15	0.5631	858.3	0.7
313.15	0.6604	864.3	0.7
313.15	0.7444	870.3	0.7
313.15	0.8191	876.6	0.7
313.15	0.8852	883	0.7
313.15	0.9461	890	0.7
313.15	1	897.1	0.7

System: butylbenzene + ethyl methanoate; phases: Liquid
Fixed: Pressure, kPa = 101
Property: Viscosity, Pa*s (Liquid); method: Capillary tube (Ostwald; Ubbelohde) method
Temperature, K	Mole fraction of ethyl methanoate	Viscosity, Pa*s	uncertainty
303.15	0	0.000901	1.2e-05
303.15	0.1738	0.000782	1.2e-05
303.15	0.3241	0.000692	1.1e-05
303.15	0.4533	0.000625	1.1e-05
303.15	0.563	0.000571	1.1e-05
303.15	0.6587	0.000525	1.1e-05
303.15	0.744	0.000482	1.1e-05
303.15	0.8189	0.000451	1.1e-05
303.15	0.8855	0.000419	1.1e-05
303.15	0.9459	0.000398	1.1e-05
303.15	1	0.000373	1.1e-05
308.15	0	0.000844	1.2e-05
308.15	0.1738	0.000713	1.1e-05
308.15	0.3241	0.000627	1.1e-05
308.15	0.4533	0.000569	1.1e-05
308.15	0.563	0.000521	1.1e-05
308.15	0.6587	0.00048	1.1e-05
308.15	0.744	0.000443	1.1e-05
308.15	0.8189	0.000412	1.1e-05
308.15	0.8855	0.000385	1.1e-05
308.15	0.9459	0.000366	1e-05
308.15	1	0.000345	1e-05
313.15	0	0.000787	1.2e-05
313.15	0.1738	0.00065	1.1e-05
313.15	0.3241	0.000571	1.1e-05
313.15	0.4533	0.000518	1.1e-05
313.15	0.563	0.000476	1.1e-05
313.15	0.6587	0.00044	1.1e-05
313.15	0.744	0.000407	1.1e-05
313.15	0.8189	0.000381	1.1e-05
313.15	0.8855	0.000355	1e-05
313.15	0.9459	0.000336	1e-05
313.15	1	0.000324	1e-05

System: butylbenzene + ethyl methanoate; phases: Liquid
Fixed: Pressure, kPa = 101
Property: Speed of sound, m/s (Liquid); method: FPINT:UFactor:4
Temperature, K	Mole fraction of ethyl methanoate	Speed of sound, m/s	uncertainty
303.15	0	1308	6
303.15	0.1738	1284	6
303.15	0.3241	1252	6
303.15	0.4533	1220	6
303.15	0.563	1196	5
303.15	0.6587	1176	5
303.15	0.744	1156	5
303.15	0.8189	1140	5
303.15	0.8855	1124	5
303.15	0.9459	1108	5
303.15	1	1092	5
308.15	0	1292	6
308.15	0.1738	1264	6
308.15	0.3241	1232	6
308.15	0.4533	1200	5
308.15	0.563	1176	5
308.15	0.6587	1156	5
308.15	0.744	1136	5
308.15	0.8189	1120	5
308.15	0.8855	1104	5
308.15	0.9459	1088	5
308.15	1	1072	5
313.15	0	1276	6
313.15	0.1738	1244	6
313.15	0.3241	1212	5
313.15	0.4533	1180	5
313.15	0.563	1156	5
313.15	0.6587	1136	5
313.15	0.744	1116	5
313.15	0.8189	1100	5
313.15	0.8855	1084	5
313.15	0.9459	1068	5
313.15	1	1052	5

System: butylbenzene + ethyl methanoate; phases: Liquid
Fixed: Pressure, kPa = 101
Property: Mass density, kg/m3 (Liquid); method: VIBTUB:UFactor:6
Temperature, K	Mole fraction of ethyl methanoate	Mass density, kg/m3	uncertainty
303.15	0	851.3	0.7
303.15	0.1738	855.4	0.7
303.15	0.3241	860.3	0.7
303.15	0.4533	865.4	0.7
303.15	0.563	870.7	0.7
303.15	0.6587	876.3	0.7
303.15	0.744	882.2	0.7
303.15	0.8189	888.4	0.7
303.15	0.8855	894.5	0.7
303.15	0.9459	901.2	0.7
303.15	1	907.8	0.7
308.15	0	848	0.7
308.15	0.1738	851.9	0.7
308.15	0.3241	856.6	0.7
308.15	0.4533	861.5	0.7
308.15	0.563	866.6	0.7
308.15	0.6587	872	0.7
308.15	0.744	877.6	0.7
308.15	0.8189	883.6	0.7
308.15	0.8855	889.6	0.7
308.15	0.9459	896	0.7
308.15	1	902.6	0.7
313.15	0	844.6	0.7
313.15	0.1738	848.4	0.7
313.15	0.3241	852.9	0.7
313.15	0.4533	857.5	0.7
313.15	0.563	862.4	0.7
313.15	0.6587	867.6	0.7
313.15	0.744	873.1	0.7
313.15	0.8189	878.8	0.7
313.15	0.8855	884.6	0.7
313.15	0.9459	890.8	0.7
313.15	1	897.1	0.7
