Measured thermophysical data. Re-Evaluation of the Thermodynamic Activity Quantities in Aqueous Alkali Metal Bromide Solutions at 25 degC
Source: J. Chem. Eng. Data, 2010, 10.1021/je9007662
Compound 1: cesium bromide, BrCs, InChI=1S/BrH.Cs/h1H;/q;+1/p-1
Compound 2: water, H2O, InChI=1S/H2O/h1H2

System: water + cesium bromide; phases: Liquid
Fixed: Pressure, kPa = 101
Fixed: Temperature, K = 298.15
Property: Mean ionic activity coefficient of cesium bromide (Liquid); method: ?
Molality, mol/kg of cesium bromide	Mean ionic activity coefficient of cesium bromide	uncertainty
0.1	0.75	0.001
0.2	0.689	0.001
0.3	0.652	0.001
0.4	0.625	0.001
0.5	0.604	0.001
0.6	0.587	0.001
0.7	0.573	0.001
0.8	0.561	0.001
0.9	0.551	0.001
1	0.542	0.001
1.2	0.526	0.001
1.4	0.514	0.001
1.6	0.504	0.001
1.8	0.495	0.001
2	0.488	0.001
2.5	0.475	0.001
3	0.466	0.001
3.5	0.461	0.001
4	0.46	0.001
4.5	0.46	0.001
5	0.463	0.001
