Measured thermophysical data. Stability of Ion Pairs of Bis(trifluoromethanesulfonyl)amide-Based Ionic Liquids in Dichloromethane
Source: J. Chem. Eng. Data, 2010, 10.1021/je900694m
Compound 1: 1-butyl-3-methylimidazolium bis(trifluoromethylsulfonyl)imide, C10H15F6N3O4S2, InChI=1S/C8H15N2.C2F6NO4S2/c1-3-4-5-10-7-6-9(2)8-10;3-1(4,5)14(10,11)9-15(12,13)2(6,7)8/h6-8H,3-5H2,1-2H3;/q+1;-1, purity 97%
Compound 2: 1-butylpyridinium bis[(trifluoromethyl)sulfonyl]imide, C11H14F6N2O4S2, InChI=1S/C9H14N.C2F6NO4S2/c1-2-3-7-10-8-5-4-6-9-10;3-1(4,5)14(10,11)9-15(12,13)2(6,7)8/h4-6,8-9H,2-3,7H2,1H3;/q+1;-1
Compound 3: 1-butyl-1-methylpyrrolidinium bis[(trifluoromethyl)sulfonyl]imide, C11H20F6N2O4S2, InChI=1S/C9H20N.C2F6NO4S2/c1-3-4-7-10(2)8-5-6-9-10;3-1(4,5)14(10,11)9-15(12,13)2(6,7)8/h3-9H2,1-2H3;/q+1;-1
Compound 4: 1-butyl-2,3-dimethyl-1H-imidazolium bis(trifluoromethylsulfonyl)amide, C11H17F6N3O4S2, InChI=1S/C9H17N2.C2F6NO4S2/c1-4-5-6-11-8-7-10(3)9(11)2;3-1(4,5)14(10,11)9-15(12,13)2(6,7)8/h7-8H,4-6H2,1-3H3;/q+1;-1, purity 97%
Compound 5: 2,3,5-trimethyl-1-propyl-1H-pyrazolium 1,1,1-trifluoro-N-[(trifluoromethyl)sulfonyl]methanesulfonamide, C11H17F6N3O4S2, InChI=1S/C9H17N2.C2F6NO4S2/c1-5-6-11-9(3)7-8(2)10(11)4;3-1(4,5)14(10,11)9-15(12,13)2(6,7)8/h7H,5-6H2,1-4H3;/q+1;-1
Compound 6: 1-methyl-1-propylpiperidinium bis(trifluoromethylsulfonyl)imide, C11H20F6N2O4S2, InChI=1S/C9H20N.C2F6NO4S2/c1-3-7-10(2)8-5-4-6-9-10;3-1(4,5)14(10,11)9-15(12,13)2(6,7)8/h3-9H2,1-2H3;/q+1;-1
Compound 7: methyltripropylammonium bis[(trifluoromethyl)sulfonyl]amide, C12H24F6N2O4S2, InChI=1S/C10H24N.C2F6NO4S2/c1-5-8-11(4,9-6-2)10-7-3;3-1(4,5)14(10,11)9-15(12,13)2(6,7)8/h5-10H2,1-4H3;/q+1;-1, purity 97%
Compound 8: N,N,N-trimethylpropanaminium bis((trifluoromethyl)sulfonyl)amide, C8H16F6N2O4S2, InChI=1S/C6H16N.C2F6NO4S2/c1-5-6-7(2,3)4;3-1(4,5)14(10,11)9-15(12,13)2(6,7)8/h5-6H2,1-4H3;/q+1;-1, purity 97%
Compound 9: tetraethylammonium bis[(trifluoromethyl)sulfonyl]imide, C10H20F6N2O4S2, InChI=1S/C8H20N.C2F6NO4S2/c1-5-9(6-2,7-3)8-4;3-1(4,5)14(10,11)9-15(12,13)2(6,7)8/h5-8H2,1-4H3;/q+1;-1, purity 97%
Compound 10: dichloromethane, CH2Cl2, InChI=1S/CH2Cl2/c2-1-3/h1H2

System: 1-butyl-3-methylimidazolium bis(trifluoromethylsulfonyl)imide; phases: Crystal, Liquid, Air at 1 atmosphere
Property: Normal melting temperature, K (Crystal); method: VISOBS
Normal melting temperature, K	uncertainty
270.1	2

System: 1-butyl-3-methylimidazolium bis(trifluoromethylsulfonyl)imide; phases: Liquid
Fixed: Pressure, kPa = 101.325
Property: Kinematic viscosity, m2/s (Liquid); method: CAPTUB:UFactor:4
Temperature, K	Kinematic viscosity, m2/s	uncertainty
293	4.355e-05	1.02e-06
298.2	3.474e-05	9.5e-07
303.2	2.835e-05	6.7e-07
308.2	2.334e-05	5.6e-07

System: 1-butyl-3-methylimidazolium bis(trifluoromethylsulfonyl)imide; phases: Liquid
Fixed: Pressure, kPa = 101.325
Property: Mass density, kg/m3 (Liquid); method: Vibrating tube method
Temperature, K	Mass density, kg/m3	uncertainty
293.2	1442.6	4.3
294.2	1441.1	4.2
295.2	1440.7	4.2
297.1	1439.5	4.2
298.2	1437.3	4.2
299.2	1436.6	4.2
300.2	1435.8	4.2
301.1	1435.2	4.2
302.2	1434.3	4.2
303.2	1433.5	4.2
304.1	1432.7	4.2
305.1	1431.7	4.2
307	1429.8	4.2
308.4	1428.3	4.2

System: 1-butyl-1-methylpyrrolidinium bis[(trifluoromethyl)sulfonyl]imide; phases: Liquid
Fixed: Pressure, kPa = 101.325
Property: Kinematic viscosity, m2/s (Liquid); method: CAPTUB:UFactor:4
Temperature, K	Kinematic viscosity, m2/s	uncertainty
292.9	7.12e-05	2.13e-06
298	5.578e-05	1.08e-06
302.8	4.51e-05	1.06e-06
308.7	3.546e-05	9.8e-07

System: 1-butyl-1-methylpyrrolidinium bis[(trifluoromethyl)sulfonyl]imide; phases: Liquid
Fixed: Pressure, kPa = 101.325
Property: Mass density, kg/m3 (Liquid); method: Vibrating tube method
Temperature, K	Mass density, kg/m3	uncertainty
292.2	1401	4
293.2	1399.9	4
294.2	1398.8	4
295.2	1398.1	4
296.2	1397.7	4
297.2	1397.4	4
298.2	1397	4
299.2	1396.2	4
300.2	1395.3	4
301.1	1395.4	4
302.2	1393.6	4
303.2	1392.6	4
304.1	1391.8	4
305.1	1390.9	4
306.2	1389.8	4
307.1	1388.9	4
308.2	1387.8	4
308.6	1387.3	4
309.7	1386.2	4

System: 1-butyl-2,3-dimethyl-1H-imidazolium bis(trifluoromethylsulfonyl)amide; phases: Liquid
Fixed: Pressure, kPa = 101.325
Property: Kinematic viscosity, m2/s (Liquid); method: CAPTUB:UFactor:4
Temperature, K	Kinematic viscosity, m2/s	uncertainty
292.6	8.953e-05	4.89e-06
298.3	6.592e-05	1.77e-06
303.5	4.861e-05	1.18e-06
308.3	4.089e-05	9.6e-07

System: 1-butyl-2,3-dimethyl-1H-imidazolium bis(trifluoromethylsulfonyl)amide; phases: Liquid
Fixed: Pressure, kPa = 101.325
Property: Mass density, kg/m3 (Liquid); method: Vibrating tube method
Temperature, K	Mass density, kg/m3	uncertainty
292.2	1421.1	4.1
293.2	1420	4.1
294.2	1418.9	4.1
295.2	1418	4.1
296.2	1417.4	4.1
297.2	1416.7	4.1
298.2	1415.9	4.1
299.2	1415.2	4.1
300.2	1414.4	4.1
301.2	1413.6	4.1
302.2	1412.8	4.1
303.2	1411.9	4.1
304.2	1411.2	4.1
305.2	1410.3	4.1
306.1	1409.6	4.1
307.1	1408.7	4.1
308.2	1407.8	4.1
310.5	1405.6	4.1

System: 2,3,5-trimethyl-1-propyl-1H-pyrazolium 1,1,1-trifluoro-N-[(trifluoromethyl)sulfonyl]methanesulfonamide; phases: Crystal, Liquid, Air at 1 atmosphere
Property: Normal melting temperature, K (Crystal); method: VISOBS
Normal melting temperature, K	uncertainty
290.1	2

System: 2,3,5-trimethyl-1-propyl-1H-pyrazolium 1,1,1-trifluoro-N-[(trifluoromethyl)sulfonyl]methanesulfonamide; phases: Liquid
Fixed: Pressure, kPa = 101.325
Property: Kinematic viscosity, m2/s (Liquid); method: CAPTUB:UFactor:4
Temperature, K	Kinematic viscosity, m2/s	uncertainty
292.6	7.415e-05	2.41e-06
297.9	5.564e-05	1.11e-06
302.7	4.405e-05	1.05e-06
308.6	3.39e-05	8.3e-07

System: 2,3,5-trimethyl-1-propyl-1H-pyrazolium 1,1,1-trifluoro-N-[(trifluoromethyl)sulfonyl]methanesulfonamide; phases: Liquid
Fixed: Pressure, kPa = 101.325
Property: Mass density, kg/m3 (Liquid); method: Vibrating tube method
Temperature, K	Mass density, kg/m3	uncertainty
296.5	1430.2	4.2
297.2	1429.4	4.2
298.2	1428.3	4.2
301.2	1425.8	4.2
303.3	1423.8	4.1
305.2	1421.8	4.1
305.9	1421.2	4.1
307.9	1419.1	4.1
311.2	1415.2	4.1
313.1	1412.6	4.1

System: 1-methyl-1-propylpiperidinium bis(trifluoromethylsulfonyl)imide; phases: Crystal, Liquid, Air at 1 atmosphere
Property: Normal melting temperature, K (Crystal); method: VISOBS
Normal melting temperature, K	uncertainty
285.1	2

System: 1-methyl-1-propylpiperidinium bis(trifluoromethylsulfonyl)imide; phases: Liquid
Fixed: Pressure, kPa = 101.325
Property: Kinematic viscosity, m2/s (Liquid); method: CAPTUB:UFactor:4
Temperature, K	Kinematic viscosity, m2/s	uncertainty
293.1	0.00014031	1.021e-05
298.3	0.00010255	5.44e-06
303.3	7.425e-05	2.46e-06
308.7	5.955e-05	1.27e-06

System: 1-methyl-1-propylpiperidinium bis(trifluoromethylsulfonyl)imide; phases: Liquid
Fixed: Pressure, kPa = 101.325
Property: Mass density, kg/m3 (Liquid); method: Vibrating tube method
Temperature, K	Mass density, kg/m3	uncertainty
293.2	1419.3	4.1
294.2	1418.5	4.1
295.2	1416.8	4.1
296.2	1415.5	4.1
297.2	1414.7	4.1
298.2	1413.7	4.1
299.2	1412.9	4.1
300.2	1412.1	4.1
301.2	1411.3	4.1
302.2	1410.5	4.1
303.2	1409.6	4.1
304.2	1408.7	4.1
305.3	1407.7	4.1
306.1	1406.9	4.1
307.1	1405.9	4.1
308	1405.1	4.1
309.1	1404	4.1
310.1	1403	4.1
312.1	1400.9	4
313.1	1399.8	4
314.9	1397.6	4

System: methyltripropylammonium bis[(trifluoromethyl)sulfonyl]amide; phases: Crystal, Liquid, Air at 1 atmosphere
Property: Normal melting temperature, K (Crystal); method: VISOBS
Normal melting temperature, K	uncertainty
319.1	2

System: N,N,N-trimethylpropanaminium bis((trifluoromethyl)sulfonyl)amide; phases: Crystal, Liquid, Air at 1 atmosphere
Property: Normal melting temperature, K (Crystal); method: VISOBS
Normal melting temperature, K	uncertainty
292.1	2

System: N,N,N-trimethylpropanaminium bis((trifluoromethyl)sulfonyl)amide; phases: Liquid
Fixed: Pressure, kPa = 101.325
Property: Kinematic viscosity, m2/s (Liquid); method: CAPTUB:UFactor:4
Temperature, K	Kinematic viscosity, m2/s	uncertainty
292.5	7.171e-05	2.18e-06
297.3	5.645e-05	1.1e-06
303.2	4.344e-05	1.03e-06
308.2	3.54e-05	9.7e-07

System: N,N,N-trimethylpropanaminium bis((trifluoromethyl)sulfonyl)amide; phases: Liquid
Fixed: Pressure, kPa = 101.325
Property: Mass density, kg/m3 (Liquid); method: Vibrating tube method
Temperature, K	Mass density, kg/m3	uncertainty
298.2	1429.6	4.2
299.2	1429	4.2
301.2	1427.7	4.2
303.2	1425.6	4.2
305.2	1423.7	4.1
307.2	1421.8	4.1
309	1420.2	4.1
311.1	1418.2	4.1
313	1416.3	4.1
315.1	1414.2	4.1

System: tetraethylammonium bis[(trifluoromethyl)sulfonyl]imide; phases: Crystal, Liquid, Air at 1 atmosphere
Property: Normal melting temperature, K (Crystal); method: VISOBS
Normal melting temperature, K	uncertainty
374.15	2

System: dichloromethane + 1-butylpyridinium bis[(trifluoromethyl)sulfonyl]imide; phases: Liquid
Fixed: Pressure, kPa = 101
Fixed: Temperature, K = 298.2
Property: Molar conductivity, S*m2/mol (Liquid); method: Linear-bridge conductometer
Amount concentration (molarity), mol/dm3 of 1-butylpyridinium bis[(trifluoromethyl)sulfonyl]imide	Molar conductivity, S*m2/mol	uncertainty
0.2445	0.0069897	2.8e-05
0.5334	0.0054605	2.19e-05
0.8083	0.004716	1.89e-05
1.158	0.0041359	1.66e-05
1.5422	0.0037071	1.48e-05
2.494	0.0030863	1.24e-05
3.0695	0.0028343	1.13e-05
3.5861	0.0026563	1.06e-05
4.232	0.0024687	9.9e-06

System: dichloromethane + 2,3,5-trimethyl-1-propyl-1H-pyrazolium 1,1,1-trifluoro-N-[(trifluoromethyl)sulfonyl]methanesulfonamide; phases: Liquid
Fixed: Pressure, kPa = 101
Fixed: Temperature, K = 298.2
Property: Molar conductivity, S*m2/mol (Liquid); method: Linear-bridge conductometer
Amount concentration (molarity), mol/dm3 of 2,3,5-trimethyl-1-propyl-1H-pyrazolium 1,1,1-trifluoro-N-[(trifluoromethyl)sulfonyl]methanesulfonamide	Molar conductivity, S*m2/mol	uncertainty
0.2936	0.0085462	3.42e-05
0.4859	0.0075234	3.01e-05
0.5725	0.0072001	2.88e-05
0.9417	0.006207	2.48e-05
1.3156	0.005582	2.23e-05
1.8797	0.0049596	1.98e-05
2.7854	0.0043282	1.73e-05

System: dichloromethane + 1-butyl-1-methylpyrrolidinium bis[(trifluoromethyl)sulfonyl]imide; phases: Liquid
Fixed: Pressure, kPa = 101
Fixed: Temperature, K = 298.2
Property: Molar conductivity, S*m2/mol (Liquid); method: Linear-bridge conductometer
Amount concentration (molarity), mol/dm3 of 1-butyl-1-methylpyrrolidinium bis[(trifluoromethyl)sulfonyl]imide	Molar conductivity, S*m2/mol	uncertainty
0.1668	0.008425	3.37e-05
0.3446	0.0069194	2.77e-05
0.5653	0.0059339	2.38e-05
0.7591	0.0053682	2.15e-05
1.06	0.004784	1.91e-05
1.3078	0.0044472	1.78e-05
1.7959	0.0039416	1.58e-05
2.2051	0.0036613	1.47e-05
3.0105	0.003245	1.3e-05
3.6667	0.0030234	1.21e-05

System: dichloromethane + 1-methyl-1-propylpiperidinium bis(trifluoromethylsulfonyl)imide; phases: Liquid
Fixed: Pressure, kPa = 101
Fixed: Temperature, K = 298.2
Property: Molar conductivity, S*m2/mol (Liquid); method: Linear-bridge conductometer
Amount concentration (molarity), mol/dm3 of 1-methyl-1-propylpiperidinium bis(trifluoromethylsulfonyl)imide	Molar conductivity, S*m2/mol	uncertainty
0.2329	0.0079769	3.19e-05
0.3991	0.0069037	2.76e-05
0.6916	0.0058192	2.33e-05
0.9486	0.0052471	2.1e-05
1.4797	0.0044939	1.8e-05
2.0896	0.0039689	1.59e-05
2.8832	0.0035245	1.41e-05
3.8364	0.0031667	1.27e-05

System: dichloromethane + methyltripropylammonium bis[(trifluoromethyl)sulfonyl]amide; phases: Liquid
Fixed: Pressure, kPa = 101
Fixed: Temperature, K = 298.2
Property: Molar conductivity, S*m2/mol (Liquid); method: Linear-bridge conductometer
Amount concentration (molarity), mol/dm3 of methyltripropylammonium bis[(trifluoromethyl)sulfonyl]amide	Molar conductivity, S*m2/mol	uncertainty
0.2106	0.0081107	3.24e-05
0.3171	0.0073486	2.94e-05
0.4417	0.0067113	2.69e-05
0.5071	0.0064465	2.58e-05
0.7119	0.0058172	2.33e-05
1.148	0.0049757	1.99e-05
1.6495	0.0043893	1.76e-05
3.4168	0.0033402	1.34e-05

System: dichloromethane + N,N,N-trimethylpropanaminium bis((trifluoromethyl)sulfonyl)amide; phases: Liquid
Fixed: Pressure, kPa = 101
Fixed: Temperature, K = 298.2
Property: Molar conductivity, S*m2/mol (Liquid); method: Linear-bridge conductometer
Amount concentration (molarity), mol/dm3 of N,N,N-trimethylpropanaminium bis((trifluoromethyl)sulfonyl)amide	Molar conductivity, S*m2/mol	uncertainty
0.3969	0.0059719	2.39e-05
0.5674	0.0052684	2.11e-05
0.7046	0.0048697	1.95e-05
0.841	0.0045645	1.83e-05
1.6104	0.0035523	1.42e-05
3.2766	0.0026638	1.07e-05
3.9835	0.0024579	9.8e-06
