Measured thermophysical data. Molar Volumes and Refractive Indexes of Hexane-1,2,3,4,5,6-hexol in Aqueous Solutions of 1-Propanol and 2-Propanol
Source: J. Chem. Eng. Data, 2010, 10.1021/je900966r
Compound 1: mannitol, C6H14O6, InChI=1S/C6H14O6/c7-1-3(9)5(11)6(12)4(10)2-8/h3-12H,1-2H2/t3-,4-,5-,6-/m1/s1, purity 99%
Compound 2: propan-1-ol, C3H8O, InChI=1S/C3H8O/c1-2-3-4/h4H,2-3H2,1H3, purity 99.7%
Compound 3: propan-2-ol, C3H8O, InChI=1S/C3H8O/c1-3(2)4/h3-4H,1-2H3, purity 99.7%
Compound 4: water, H2O, InChI=1S/H2O/h1H2, purity 99.9%

System: mannitol + water; phases: Liquid
Fixed: Pressure, kPa = 101
Fixed: Temperature, K = 298.15
Property: Refractive index (Na D-line) (Liquid); method: Standard Abbe refractometry
Molality, mol/kg of mannitol	Refractive index (Na D-line)	uncertainty
0	1.3326	0.0007
0.1	1.3358	0.0007
0.1499	1.337	0.0007
0.1999	1.3385	0.0007
0.25	1.3396	0.0007
0.3	1.341	0.0007
0.35	1.3422	0.0007
0.4	1.343	0.0007

System: mannitol + water; phases: Liquid
Fixed: Pressure, kPa = 101
Property: Mass density, kg/m3 (Liquid); method: VIBTUB:UFactor:6
Temperature, K	Molality, mol/kg of mannitol	Mass density, kg/m3	uncertainty
293.15	0	998.205	0.202
293.15	0.1	1004.395	0.209
293.15	0.1499	1007.499	0.216
293.15	0.1999	1010.61	0.223
293.15	0.25	1013.687	0.23
293.15	0.3	1016.747	0.238
293.15	0.35	1019.738	0.245
293.15	0.4	1022.709	0.252
298.15	0	997.045	0.205
298.15	0.1	1003.213	0.206
298.15	0.1499	1006.298	0.213
298.15	0.1999	1009.401	0.22
298.15	0.25	1012.458	0.228
298.15	0.3	1015.475	0.235
298.15	0.35	1018.461	0.242
298.15	0.4	1021.426	0.249
303.15	0	995.645	0.208
303.15	0.1	1001.786	0.203
303.15	0.1499	1004.865	0.21
303.15	0.1999	1007.949	0.217
303.15	0.25	1010.982	0.224
303.15	0.3	1013.991	0.231
303.15	0.35	1016.974	0.238
303.15	0.4	1019.919	0.245
308.15	0	994.027	0.212
308.15	0.1	1000.125	0.199
308.15	0.1499	1003.19	0.206
308.15	0.1999	1006.229	0.213
308.15	0.25	1009.258	0.22
308.15	0.3	1012.248	0.227
308.15	0.35	1015.194	0.234
308.15	0.4	1018.126	0.241
313.15	0	992.212	0.216
313.15	0.1	998.283	0.203
313.15	0.1499	1001.328	0.202
313.15	0.1999	1004.362	0.209
313.15	0.25	1007.369	0.216
313.15	0.3	1010.33	0.223
313.15	0.35	1013.262	0.23
313.15	0.4	1016.177	0.237

System: propan-1-ol + water; phases: Liquid
Fixed: Pressure, kPa = 101
Fixed: Temperature, K = 298.15
Property: Refractive index (Na D-line) (Liquid); method: Standard Abbe refractometry
Molality, mol/kg of propan-1-ol	Refractive index (Na D-line)	uncertainty
0.1001	1.3331	0.0007
0.15	1.3338	0.0007
0.20002	1.3341	0.0007
0.30001	1.3344	0.0007
0.4	1.3349	0.0007
0.5	1.3353	0.0007

System: propan-1-ol + water; phases: Liquid
Fixed: Pressure, kPa = 101
Property: Mass density, kg/m3 (Liquid); method: VIBTUB:UFactor:6
Molality, mol/kg of propan-1-ol	Temperature, K	Mass density, kg/m3	uncertainty
0.1001	293.15	996.609	0.205
0.1001	298.15	995.441	0.208
0.1001	303.15	994.029	0.211
0.1001	308.15	992.397	0.215
0.1001	313.15	990.564	0.219
0.15	293.15	996.479	0.205
0.15	298.15	995.293	0.208
0.15	303.15	993.828	0.212
0.15	308.15	992.237	0.215
0.15	313.15	990.399	0.219
0.20002	293.15	996.336	0.206
0.20002	298.15	995.163	0.209
0.20002	303.15	993.747	0.212
0.20002	308.15	992.113	0.216
0.20002	313.15	990.278	0.22
0.30001	293.15	995.903	0.208
0.30001	298.15	994.694	0.21
0.30001	303.15	993.242	0.214
0.30001	308.15	991.569	0.217
0.30001	313.15	989.694	0.222
0.4	293.15	994.27	0.21
0.4	298.15	993.072	0.213
0.4	303.15	991.629	0.216
0.4	308.15	989.962	0.22
0.4	313.15	988.093	0.224
0.5	293.15	993.364	0.212
0.5	298.15	992.148	0.215
0.5	303.15	990.687	0.219
0.5	308.15	989.004	0.222
0.5	313.15	987.114	0.227

System: propan-2-ol + water; phases: Liquid
Fixed: Pressure, kPa = 101
Fixed: Temperature, K = 298.15
Property: Refractive index (Na D-line) (Liquid); method: Standard Abbe refractometry
Molality, mol/kg of propan-2-ol	Refractive index (Na D-line)	uncertainty
0.1	1.3329	0.0007
0.1501	1.3335	0.0007
0.1999	1.3338	0.0007
0.3	1.3341	0.0007
0.3998	1.3345	0.0007
0.5	1.335	0.0007

System: propan-2-ol + water; phases: Liquid
Fixed: Pressure, kPa = 101
Property: Mass density, kg/m3 (Liquid); method: VIBTUB:UFactor:4
Molality, mol/kg of propan-2-ol	Temperature, K	Mass density, kg/m3	uncertainty
0.1	293.15	996.544	0.146
0.1	298.15	995.386	0.148
0.1	303.15	993.986	0.15
0.1	308.15	992.365	0.152
0.1	313.15	990.542	0.154
0.1501	293.15	995.924	0.146
0.1501	298.15	994.764	0.148
0.1501	303.15	993.358	0.15
0.1501	308.15	991.731	0.153
0.1501	313.15	989.901	0.155
0.1999	293.15	995.4	0.147
0.1999	298.15	994.22	0.149
0.1999	303.15	992.795	0.151
0.1999	308.15	991.148	0.153
0.1999	313.15	989.299	0.155
0.3	293.15	994.591	0.148
0.3	298.15	993.429	0.149
0.3	303.15	992.018	0.151
0.3	308.15	990.384	0.154
0.3	313.15	988.545	0.156
0.3998	293.15	993.922	0.149
0.3998	298.15	992.857	0.151
0.3998	303.15	991.441	0.153
0.3998	308.15	989.702	0.156
0.3998	313.15	987.816	0.158
0.5	293.15	993.065	0.15
0.5	298.15	991.893	0.152
0.5	303.15	990.472	0.154
0.5	308.15	988.826	0.156
0.5	313.15	986.979	0.158

System: propan-1-ol + mannitol + water; phases: Liquid
Fixed: Pressure, kPa = 101
Fixed: Temperature, K = 298.15
Property: Refractive index (Na D-line) (Liquid); method: Standard Abbe refractometry
Molality, mol/kg of propan-1-ol	Molality, mol/kg of mannitol	Refractive index (Na D-line)	uncertainty
0.1001	0	1.3331	0.0007
0.1001	0.1	1.336	0.0007
0.1001	0.15	1.3372	0.0007
0.1001	0.2	1.3385	0.0007
0.1001	0.25	1.3398	0.0007
0.1001	0.3	1.341	0.0007
0.1001	0.3501	1.3421	0.0007
0.1001	0.4	1.3435	0.0007
0.15	0	1.3338	0.0007
0.15	0.1	1.3363	0.0007
0.15	0.1501	1.3376	0.0007
0.15	0.1999	1.3388	0.0007
0.15	0.2499	1.3401	0.0007
0.15	0.3	1.3415	0.0007
0.15	0.3501	1.3426	0.0007
0.15	0.4	1.3439	0.0007
0.20002	0	1.3341	0.0007
0.20002	0.1001	1.3366	0.0007
0.20002	0.15	1.3375	0.0007
0.20002	0.1999	1.3388	0.0007
0.20002	0.25	1.34	0.0007
0.20002	0.3001	1.3411	0.0007
0.20002	0.3499	1.3426	0.0007
0.20002	0.4001	1.3437	0.0007
0.30001	0	1.3344	0.0007
0.30001	0.1	1.3369	0.0007
0.30001	0.1501	1.3381	0.0007
0.30001	0.2	1.3393	0.0007
0.30001	0.25	1.3405	0.0007
0.30001	0.3	1.3418	0.0007
0.30001	0.35	1.3432	0.0007
0.30001	0.4	1.3444	0.0007
0.4	0	1.3349	0.0007
0.4	0.1001	1.3378	0.0007
0.4	0.1499	1.3388	0.0007
0.4	0.2	1.34	0.0007
0.4	0.2501	1.3411	0.0007
0.4	0.3	1.3422	0.0007
0.4	0.35	1.344	0.0007
0.4	0.4	1.345	0.0007
0.5	0	1.3353	0.0007
0.5	0.0999	1.338	0.0007
0.5	0.1501	1.3391	0.0007
0.5	0.2	1.3403	0.0007
0.5	0.25	1.3414	0.0007
0.5	0.3	1.3426	0.0007
0.5	0.35	1.3442	0.0007
0.5	0.4	1.3454	0.0007

System: propan-1-ol + mannitol + water; phases: Liquid
Fixed: Pressure, kPa = 101
Property: Mass density, kg/m3 (Liquid); method: VIBTUB:UFactor:6
Molality, mol/kg of propan-1-ol	Temperature, K	Molality, mol/kg of mannitol	Mass density, kg/m3	uncertainty
0.1001	293.15	0	996.609	0.205
0.1001	293.15	0.1	1002.706	0.205
0.1001	293.15	0.15	1005.814	0.212
0.1001	293.15	0.2	1008.905	0.219
0.1001	293.15	0.25	1011.965	0.227
0.1001	293.15	0.3	1015.022	0.234
0.1001	293.15	0.3501	1018.005	0.241
0.1001	293.15	0.4	1020.968	0.248
0.1001	298.15	0	995.441	0.208
0.1001	298.15	0.1	1001.52	0.202
0.1001	298.15	0.15	1004.611	0.209
0.1001	298.15	0.2	1007.701	0.217
0.1001	298.15	0.25	1010.734	0.224
0.1001	298.15	0.3	1013.742	0.231
0.1001	298.15	0.3501	1016.72	0.238
0.1001	298.15	0.4	1019.662	0.245
0.1001	303.15	0	994.029	0.211
0.1001	303.15	0.1	1000.083	0.199
0.1001	303.15	0.15	1003.167	0.206
0.1001	303.15	0.2	1006.238	0.213
0.1001	303.15	0.25	1009.256	0.22
0.1001	303.15	0.3	1012.242	0.227
0.1001	303.15	0.3501	1015.181	0.234
0.1001	303.15	0.4	1018.099	0.241
0.1001	308.15	0	992.397	0.215
0.1001	308.15	0.1	998.407	0.202
0.1001	308.15	0.15	1001.477	0.203
0.1001	308.15	0.2	1004.505	0.21
0.1001	308.15	0.25	1007.514	0.217
0.1001	308.15	0.3	1010.471	0.223
0.1001	308.15	0.3501	1013.422	0.23
0.1001	308.15	0.4	1016.325	0.237
0.1001	313.15	0	990.564	0.219
0.1001	313.15	0.1	996.536	0.206
0.1001	313.15	0.15	999.577	0.2
0.1001	313.15	0.2	1002.62	0.205
0.1001	313.15	0.25	1005.605	0.212
0.1001	313.15	0.3	1008.556	0.219
0.1001	313.15	0.3501	1011.479	0.226
0.1001	313.15	0.4	1014.362	0.233
0.15	293.15	0	996.479	0.205
0.15	293.15	0.1	1002.478	0.204
0.15	293.15	0.1501	1005.592	0.212
0.15	293.15	0.1999	1008.663	0.219
0.15	293.15	0.2499	1011.718	0.226
0.15	293.15	0.3	1014.769	0.233
0.15	293.15	0.3501	1017.741	0.24
0.15	293.15	0.4	1020.661	0.247
0.15	298.15	0	995.293	0.208
0.15	298.15	0.1	1001.299	0.201
0.15	298.15	0.1501	1004.389	0.209
0.15	298.15	0.1999	1007.46	0.216
0.15	298.15	0.2499	1010.488	0.223
0.15	298.15	0.3	1013.458	0.23
0.15	298.15	0.3501	1016.441	0.237
0.15	298.15	0.4	1019.361	0.244
0.15	303.15	0	993.828	0.212
0.15	303.15	0.1	999.852	0.199
0.15	303.15	0.1501	1002.932	0.206
0.15	303.15	0.1999	1005.995	0.213
0.15	303.15	0.2499	1009.006	0.22
0.15	303.15	0.3	1011.982	0.227
0.15	303.15	0.3501	1014.921	0.234
0.15	303.15	0.4	1017.819	0.241
0.15	308.15	0	992.237	0.215
0.15	308.15	0.1	998.174	0.203
0.15	308.15	0.1501	1001.242	0.202
0.15	308.15	0.1999	1004.26	0.209
0.15	308.15	0.2499	1007.263	0.216
0.15	308.15	0.3	1010.211	0.223
0.15	308.15	0.3501	1013.152	0.23
0.15	308.15	0.4	1016.036	0.237
0.15	313.15	0	990.399	0.219
0.15	313.15	0.1	996.305	0.207
0.15	313.15	0.1501	999.349	0.201
0.15	313.15	0.1999	1002.372	0.205
0.15	313.15	0.2499	1005.35	0.212
0.15	313.15	0.3	1008.297	0.218
0.15	313.15	0.3501	1011.211	0.225
0.15	313.15	0.4	1014.099	0.232
0.20002	293.15	0	996.336	0.206
0.20002	293.15	0.1001	1002.377	0.204
0.20002	293.15	0.15	1005.471	0.211
0.20002	293.15	0.1999	1008.549	0.219
0.20002	293.15	0.25	1011.599	0.226
0.20002	293.15	0.3001	1014.638	0.233
0.20002	293.15	0.3499	1017.591	0.24
0.20002	293.15	0.4001	1020.532	0.246
0.20002	298.15	0	995.163	0.209
0.20002	298.15	0.1001	1001.187	0.201
0.20002	298.15	0.15	1004.263	0.209
0.20002	298.15	0.1999	1007.341	0.216
0.20002	298.15	0.25	1010.365	0.223
0.20002	298.15	0.3001	1013.355	0.23
0.20002	298.15	0.3499	1016.298	0.237
0.20002	298.15	0.4001	1019.222	0.243
0.20002	303.15	0	993.747	0.212
0.20002	303.15	0.1001	999.743	0.199
0.20002	303.15	0.15	1002.804	0.206
0.20002	303.15	0.1999	1005.873	0.213
0.20002	303.15	0.25	1008.881	0.22
0.20002	303.15	0.3001	1011.848	0.226
0.20002	303.15	0.3499	1014.769	0.233
0.20002	303.15	0.4001	1017.68	0.24
0.20002	308.15	0	992.113	0.216
0.20002	308.15	0.1001	998.071	0.203
0.20002	308.15	0.15	1001.125	0.202
0.20002	308.15	0.1999	1004.14	0.209
0.20002	308.15	0.25	1007.132	0.216
0.20002	308.15	0.3001	1010.072	0.222
0.20002	308.15	0.3499	1012.981	0.229
0.20002	308.15	0.4001	1015.885	0.236
0.20002	313.15	0	990.278	0.22
0.20002	313.15	0.1001	996.199	0.207
0.20002	313.15	0.15	999.231	0.201
0.20002	313.15	0.1999	1002.252	0.205
0.20002	313.15	0.25	1005.215	0.211
0.20002	313.15	0.3001	1008.159	0.218
0.20002	313.15	0.3499	1011.04	0.225
0.20002	313.15	0.4001	1013.925	0.232
0.30001	293.15	0	995.903	0.208
0.30001	293.15	0.1	1001.858	0.202
0.30001	293.15	0.1501	1004.911	0.21
0.30001	293.15	0.2	1007.973	0.217
0.30001	293.15	0.25	1010.998	0.224
0.30001	293.15	0.3	1013.949	0.231
0.30001	293.15	0.35	1016.87	0.238
0.30001	293.15	0.4	1019.766	0.244
0.30001	298.15	0	994.694	0.21
0.30001	298.15	0.1	1000.609	0.2
0.30001	298.15	0.1501	1003.66	0.207
0.30001	298.15	0.2	1006.676	0.215
0.30001	298.15	0.25	1009.699	0.222
0.30001	298.15	0.3	1012.629	0.228
0.30001	298.15	0.35	1015.587	0.235
0.30001	298.15	0.4	1018.478	0.241
0.30001	303.15	0	993.242	0.214
0.30001	303.15	0.1	999.129	0.2
0.30001	303.15	0.1501	1002.169	0.204
0.30001	303.15	0.2	1005.168	0.211
0.30001	303.15	0.25	1008.172	0.218
0.30001	303.15	0.3	1011.096	0.225
0.30001	303.15	0.35	1013.995	0.232
0.30001	303.15	0.4	1016.868	0.238
0.30001	308.15	0	991.569	0.217
0.30001	308.15	0.1	997.408	0.204
0.30001	308.15	0.1501	1000.432	0.2
0.30001	308.15	0.2	1003.408	0.207
0.30001	308.15	0.25	1006.399	0.214
0.30001	308.15	0.3	1009.333	0.221
0.30001	308.15	0.35	1012.205	0.228
0.30001	308.15	0.4	1015.059	0.234
0.30001	313.15	0	989.694	0.222
0.30001	313.15	0.1	995.513	0.209
0.30001	313.15	0.1501	998.514	0.203
0.30001	313.15	0.2	1001.503	0.203
0.30001	313.15	0.25	1004.471	0.21
0.30001	313.15	0.3	1007.362	0.217
0.30001	313.15	0.35	1010.248	0.224
0.30001	313.15	0.4	1013.089	0.229
0.4	293.15	0	994.27	0.21
0.4	293.15	0.1001	1000.183	0.199
0.4	293.15	0.1499	1003.222	0.207
0.4	293.15	0.2	1006.274	0.214
0.4	293.15	0.2501	1009.255	0.221
0.4	293.15	0.3	1012.182	0.227
0.4	293.15	0.35	1015.098	0.234
0.4	293.15	0.4	1017.962	0.242
0.4	298.15	0	993.072	0.213
0.4	298.15	0.1001	998.943	0.201
0.4	298.15	0.1499	1001.969	0.204
0.4	298.15	0.2	1005.008	0.211
0.4	298.15	0.2501	1008.007	0.218
0.4	298.15	0.3	1010.923	0.224
0.4	298.15	0.35	1013.819	0.231
0.4	298.15	0.4	1016.665	0.239
0.4	303.15	0	991.629	0.216
0.4	303.15	0.1001	997.47	0.204
0.4	303.15	0.1499	1000.483	0.2
0.4	303.15	0.2	1003.486	0.207
0.4	303.15	0.2501	1006.446	0.214
0.4	303.15	0.3	1009.337	0.221
0.4	303.15	0.35	1012.231	0.228
0.4	303.15	0.4	1015.078	0.235
0.4	308.15	0	989.962	0.22
0.4	308.15	0.1001	995.765	0.208
0.4	308.15	0.1499	998.766	0.202
0.4	308.15	0.2	1001.741	0.204
0.4	308.15	0.2501	1004.687	0.21
0.4	308.15	0.3	1007.592	0.217
0.4	308.15	0.35	1010.437	0.224
0.4	308.15	0.4	1013.304	0.231
0.4	313.15	0	988.093	0.224
0.4	313.15	0.1001	993.864	0.212
0.4	313.15	0.1499	996.838	0.207
0.4	313.15	0.2	999.844	0.2
0.4	313.15	0.2501	1002.759	0.206
0.4	313.15	0.3	1005.642	0.213
0.4	313.15	0.35	1008.524	0.219
0.4	313.15	0.4	1011.346	0.227
0.5	293.15	0	993.364	0.212
0.5	293.15	0.0999	999.212	0.2
0.5	293.15	0.1501	1002.261	0.204
0.5	293.15	0.2	1005.268	0.211
0.5	293.15	0.25	1008.225	0.218
0.5	293.15	0.3	1011.131	0.225
0.5	293.15	0.35	1014.019	0.232
0.5	293.15	0.4	1016.881	0.238
0.5	298.15	0	992.148	0.215
0.5	298.15	0.0999	997.964	0.203
0.5	298.15	0.1501	1001.001	0.201
0.5	298.15	0.2	1004.002	0.208
0.5	298.15	0.25	1006.96	0.215
0.5	298.15	0.3	1009.86	0.222
0.5	298.15	0.35	1012.737	0.229
0.5	298.15	0.4	1015.604	0.235
0.5	303.15	0	990.687	0.219
0.5	303.15	0.0999	996.468	0.206
0.5	303.15	0.1501	999.489	0.2
0.5	303.15	0.2	1002.451	0.205
0.5	303.15	0.25	1005.383	0.212
0.5	303.15	0.3	1008.271	0.218
0.5	303.15	0.35	1011.134	0.225
0.5	303.15	0.4	1014.037	0.232
0.5	308.15	0	989.004	0.222
0.5	308.15	0.0999	994.743	0.21
0.5	308.15	0.1501	997.757	0.204
0.5	308.15	0.2	1000.699	0.201
0.5	308.15	0.25	1003.609	0.208
0.5	308.15	0.3	1006.505	0.214
0.5	308.15	0.35	1009.352	0.221
0.5	308.15	0.4	1012.202	0.228
0.5	313.15	0	987.114	0.227
0.5	313.15	0.0999	992.826	0.214
0.5	313.15	0.1501	995.809	0.209
0.5	313.15	0.2	998.785	0.202
0.5	313.15	0.25	1001.664	0.203
0.5	313.15	0.3	1004.54	0.21
0.5	313.15	0.35	1007.393	0.217
0.5	313.15	0.4	1010.224	0.224

System: propan-2-ol + mannitol + water; phases: Liquid
Fixed: Pressure, kPa = 101
Fixed: Temperature, K = 298.15
Property: Refractive index (Na D-line) (Liquid); method: Standard Abbe refractometry
Molality, mol/kg of propan-2-ol	Molality, mol/kg of mannitol	Refractive index (Na D-line)	uncertainty
0.1	0	1.3329	0.0007
0.1	0.1	1.336	0.0007
0.1	0.15	1.3371	0.0007
0.1	0.2	1.3385	0.0007
0.1	0.25	1.3398	0.0007
0.1	0.3	1.341	0.0007
0.1	0.35	1.3421	0.0007
0.1	0.4	1.3434	0.0007
0.1501	0	1.3335	0.0007
0.1501	0.1001	1.3362	0.0007
0.1501	0.1499	1.3372	0.0007
0.1501	0.2	1.3388	0.0007
0.1501	0.25	1.3401	0.0007
0.1501	0.3	1.3413	0.0007
0.1501	0.35	1.3426	0.0007
0.1501	0.4	1.3439	0.0007
0.1999	0	1.3338	0.0007
0.1999	0.1	1.3363	0.0007
0.1999	0.15	1.3374	0.0007
0.1999	0.2	1.339	0.0007
0.1999	0.25	1.3403	0.0007
0.1999	0.3	1.3412	0.0007
0.1999	0.35	1.3424	0.0007
0.1999	0.4001	1.3441	0.0007
0.3	0	1.3341	0.0007
0.3	0.0999	1.3368	0.0007
0.3	0.1499	1.3385	0.0007
0.3	0.2	1.3392	0.0007
0.3	0.25	1.3405	0.0007
0.3	0.3	1.3416	0.0007
0.3	0.35	1.3429	0.0007
0.3	0.4	1.3443	0.0007
0.3998	0	1.3345	0.0007
0.3998	0.1	1.337	0.0007
0.3998	0.15	1.3388	0.0007
0.3998	0.2	1.3396	0.0007
0.3998	0.2501	1.3408	0.0007
0.3998	0.3	1.3419	0.0007
0.3998	0.35	1.3431	0.0007
0.3998	0.4	1.3445	0.0007
0.5	0	1.335	0.0007
0.5	0.0999	1.3375	0.0007
0.5	0.15	1.339	0.0007
0.5	0.2	1.3401	0.0007
0.5	0.25	1.3412	0.0007
0.5	0.3	1.3424	0.0007
0.5	0.35	1.3435	0.0007
0.5	0.4	1.3448	0.0007

System: propan-2-ol + mannitol + water; phases: Liquid
Fixed: Pressure, kPa = 101
Property: Mass density, kg/m3 (Liquid); method: VIBTUB:UFactor:4
Molality, mol/kg of propan-2-ol	Temperature, K	Molality, mol/kg of mannitol	Mass density, kg/m3	uncertainty
0.1	293.15	0	996.544	0.146
0.1	293.15	0.1	1002.684	0.146
0.1	293.15	0.15	1005.789	0.15
0.1	293.15	0.2	1008.882	0.155
0.1	293.15	0.25	1011.95	0.16
0.1	293.15	0.3	1014.995	0.164
0.1	293.15	0.35	1017.983	0.169
0.1	293.15	0.4	1020.946	0.173
0.1	298.15	0	995.386	0.148
0.1	298.15	0.1	1001.499	0.144
0.1	298.15	0.15	1004.578	0.149
0.1	298.15	0.2	1007.675	0.153
0.1	298.15	0.25	1010.701	0.158
0.1	298.15	0.3	1013.717	0.162
0.1	298.15	0.35	1016.685	0.167
0.1	298.15	0.4	1019.629	0.171
0.1	303.15	0	993.986	0.15
0.1	303.15	0.1	1000.069	0.142
0.1	303.15	0.15	1003.135	0.147
0.1	303.15	0.2	1006.209	0.151
0.1	303.15	0.25	1009.221	0.156
0.1	303.15	0.3	1012.206	0.16
0.1	303.15	0.35	1015.146	0.164
0.1	303.15	0.4	1018.065	0.169
0.1	308.15	0	992.365	0.152
0.1	308.15	0.1	998.398	0.144
0.1	308.15	0.15	1001.452	0.144
0.1	308.15	0.2	1004.485	0.149
0.1	308.15	0.25	1007.495	0.153
0.1	308.15	0.3	1010.47	0.158
0.1	308.15	0.35	1013.408	0.162
0.1	308.15	0.4	1016.315	0.166
0.1	313.15	0	990.542	0.154
0.1	313.15	0.1	996.541	0.147
0.1	313.15	0.15	999.562	0.143
0.1	313.15	0.2	1002.605	0.146
0.1	313.15	0.25	1005.594	0.151
0.1	313.15	0.3	1008.542	0.155
0.1	313.15	0.35	1011.462	0.159
0.1	313.15	0.4	1014.365	0.164
0.1501	293.15	0	995.924	0.146
0.1501	293.15	0.1001	1002.038	0.145
0.1501	293.15	0.1499	1005.131	0.149
0.1501	293.15	0.2	1008.217	0.154
0.1501	293.15	0.25	1011.27	0.159
0.1501	293.15	0.3	1014.307	0.163
0.1501	293.15	0.35	1017.301	0.168
0.1501	293.15	0.4	1020.246	0.172
0.1501	298.15	0	994.764	0.148
0.1501	298.15	0.1001	1000.854	0.143
0.1501	298.15	0.1499	1003.918	0.148
0.1501	298.15	0.2	1007.009	0.152
0.1501	298.15	0.25	1010.028	0.157
0.1501	298.15	0.3	1013.019	0.161
0.1501	298.15	0.35	1015.986	0.166
0.1501	298.15	0.4	1018.921	0.17
0.1501	303.15	0	993.358	0.15
0.1501	303.15	0.1001	999.418	0.142
0.1501	303.15	0.1499	1002.471	0.146
0.1501	303.15	0.2	1005.543	0.15
0.1501	303.15	0.25	1008.551	0.155
0.1501	303.15	0.3	1011.525	0.159
0.1501	303.15	0.35	1014.458	0.163
0.1501	303.15	0.4	1017.378	0.168
0.1501	308.15	0	991.731	0.153
0.1501	308.15	0.1001	997.744	0.145
0.1501	308.15	0.1499	1000.787	0.143
0.1501	308.15	0.2	1003.812	0.148
0.1501	308.15	0.25	1006.816	0.152
0.1501	308.15	0.3	1009.77	0.157
0.1501	308.15	0.35	1012.699	0.161
0.1501	308.15	0.4	1015.599	0.166
0.1501	313.15	0	989.901	0.155
0.1501	313.15	0.1001	995.879	0.148
0.1501	313.15	0.1499	998.893	0.144
0.1501	313.15	0.2	1001.926	0.145
0.1501	313.15	0.25	1004.908	0.15
0.1501	313.15	0.3	1007.851	0.154
0.1501	313.15	0.35	1010.758	0.158
0.1501	313.15	0.4	1013.662	0.163
0.1999	293.15	0	995.4	0.147
0.1999	293.15	0.1	1001.474	0.143
0.1999	293.15	0.15	1004.576	0.148
0.1999	293.15	0.2	1007.644	0.153
0.1999	293.15	0.25	1010.681	0.158
0.1999	293.15	0.3	1013.722	0.162
0.1999	293.15	0.35	1016.7	0.167
0.1999	293.15	0.4001	1019.639	0.172
0.1999	298.15	0	994.22	0.149
0.1999	298.15	0.1	1000.269	0.142
0.1999	298.15	0.15	1003.341	0.147
0.1999	298.15	0.2	1006.415	0.151
0.1999	298.15	0.25	1009.44	0.156
0.1999	298.15	0.3	1012.427	0.16
0.1999	298.15	0.35	1015.379	0.165
0.1999	298.15	0.4001	1018.308	0.169
0.1999	303.15	0	992.795	0.151
0.1999	303.15	0.1	998.815	0.143
0.1999	303.15	0.15	1001.872	0.145
0.1999	303.15	0.2	1004.938	0.149
0.1999	303.15	0.25	1007.943	0.153
0.1999	303.15	0.3	1010.914	0.158
0.1999	303.15	0.35	1013.842	0.162
0.1999	303.15	0.4001	1016.757	0.167
0.1999	308.15	0	991.148	0.153
0.1999	308.15	0.1	997.129	0.145
0.1999	308.15	0.15	1000.175	0.142
0.1999	308.15	0.2	1003.191	0.147
0.1999	308.15	0.25	1006.186	0.151
0.1999	308.15	0.3	1009.128	0.155
0.1999	308.15	0.35	1012.044	0.16
0.1999	308.15	0.4001	1014.961	0.165
0.1999	313.15	0	989.299	0.155
0.1999	313.15	0.1	995.242	0.148
0.1999	313.15	0.15	998.265	0.144
0.1999	313.15	0.2	1001.289	0.144
0.1999	313.15	0.25	1004.251	0.148
0.1999	313.15	0.3	1007.204	0.153
0.1999	313.15	0.35	1010.099	0.157
0.1999	313.15	0.4001	1013.003	0.162
0.3	293.15	0	994.591	0.148
0.3	293.15	0.0999	1000.566	0.142
0.3	293.15	0.1499	1003.67	0.147
0.3	293.15	0.2	1006.761	0.152
0.3	293.15	0.25	1009.83	0.156
0.3	293.15	0.3	1012.828	0.161
0.3	293.15	0.35	1015.808	0.165
0.3	293.15	0.4	1018.763	0.17
0.3	298.15	0	993.429	0.149
0.3	298.15	0.0999	999.334	0.142
0.3	298.15	0.1499	1002.411	0.145
0.3	298.15	0.2	1005.454	0.15
0.3	298.15	0.25	1008.483	0.154
0.3	298.15	0.3	1011.451	0.158
0.3	298.15	0.35	1014.398	0.163
0.3	298.15	0.4	1017.325	0.168
0.3	303.15	0	992.018	0.151
0.3	303.15	0.0999	997.888	0.144
0.3	303.15	0.1499	1000.96	0.143
0.3	303.15	0.2	1003.989	0.148
0.3	303.15	0.25	1007.03	0.152
0.3	303.15	0.3	1010.005	0.156
0.3	303.15	0.35	1012.931	0.161
0.3	303.15	0.4	1015.853	0.165
0.3	308.15	0	990.384	0.154
0.3	308.15	0.0999	996.228	0.146
0.3	308.15	0.1499	999.274	0.143
0.3	308.15	0.2	1002.304	0.145
0.3	308.15	0.25	1005.313	0.15
0.3	308.15	0.3	1008.259	0.154
0.3	308.15	0.35	1011.162	0.159
0.3	308.15	0.4	1014.081	0.163
0.3	313.15	0	988.545	0.156
0.3	313.15	0.0999	994.343	0.149
0.3	313.15	0.1499	997.38	0.146
0.3	313.15	0.2	1000.386	0.143
0.3	313.15	0.25	1003.349	0.147
0.3	313.15	0.3	1006.315	0.151
0.3	313.15	0.35	1009.218	0.156
0.3	313.15	0.4	1012.09	0.16
0.3998	293.15	0	993.922	0.149
0.3998	293.15	0.1	1000.013	0.141
0.3998	293.15	0.15	1003.055	0.146
0.3998	293.15	0.2	1006.107	0.15
0.3998	293.15	0.2501	1009.098	0.155
0.3998	293.15	0.3	1012.06	0.159
0.3998	293.15	0.35	1015.001	0.164
0.3998	293.15	0.4	1017.893	0.168
0.3998	298.15	0	992.857	0.151
0.3998	298.15	0.1	998.811	0.142
0.3998	298.15	0.15	1001.843	0.144
0.3998	298.15	0.2	1004.863	0.149
0.3998	298.15	0.2501	1007.875	0.153
0.3998	298.15	0.3	1010.804	0.157
0.3998	298.15	0.35	1013.723	0.162
0.3998	298.15	0.4	1016.604	0.165
0.3998	303.15	0	991.441	0.153
0.3998	303.15	0.1	997.36	0.144
0.3998	303.15	0.15	1000.387	0.142
0.3998	303.15	0.2	1003.388	0.147
0.3998	303.15	0.2501	1006.411	0.151
0.3998	303.15	0.3	1009.336	0.155
0.3998	303.15	0.35	1012.232	0.16
0.3998	303.15	0.4	1015.105	0.163
0.3998	308.15	0	989.702	0.156
0.3998	308.15	0.1	995.68	0.147
0.3998	308.15	0.15	998.685	0.144
0.3998	308.15	0.2	1001.68	0.144
0.3998	308.15	0.2501	1004.656	0.149
0.3998	308.15	0.3	1007.576	0.153
0.3998	308.15	0.35	1010.481	0.157
0.3998	308.15	0.4	1013.317	0.161
0.3998	313.15	0	987.816	0.158
0.3998	313.15	0.1	993.813	0.15
0.3998	313.15	0.15	996.799	0.146
0.3998	313.15	0.2	999.788	0.142
0.3998	313.15	0.2501	1002.729	0.146
0.3998	313.15	0.3	1005.625	0.15
0.3998	313.15	0.35	1008.496	0.155
0.3998	313.15	0.4	1011.331	0.158
0.5	293.15	0	993.065	0.15
0.5	293.15	0.0999	998.935	0.142
0.5	293.15	0.15	1001.971	0.144
0.5	293.15	0.2	1004.994	0.149
0.5	293.15	0.25	1007.99	0.153
0.5	293.15	0.3	1010.913	0.158
0.5	293.15	0.35	1013.803	0.162
0.5	293.15	0.4	1016.683	0.167
0.5	298.15	0	991.893	0.152
0.5	298.15	0.0999	997.738	0.144
0.5	298.15	0.15	1000.76	0.143
0.5	298.15	0.2	1003.778	0.147
0.5	298.15	0.25	1006.726	0.151
0.5	298.15	0.3	1009.635	0.156
0.5	298.15	0.35	1012.537	0.16
0.5	298.15	0.4	1015.403	0.164
0.5	303.15	0	990.472	0.154
0.5	303.15	0.0999	996.279	0.146
0.5	303.15	0.15	999.285	0.143
0.5	303.15	0.2	1002.261	0.145
0.5	303.15	0.25	1005.182	0.149
0.5	303.15	0.3	1008.069	0.154
0.5	303.15	0.35	1010.96	0.158
0.5	303.15	0.4	1013.831	0.162
0.5	308.15	0	988.826	0.156
0.5	308.15	0.0999	994.587	0.148
0.5	308.15	0.15	997.581	0.145
0.5	308.15	0.2	1000.538	0.143
0.5	308.15	0.25	1003.46	0.147
0.5	308.15	0.3	1006.357	0.151
0.5	308.15	0.35	1009.203	0.156
0.5	308.15	0.4	1012.042	0.16
0.5	313.15	0	986.979	0.158
0.5	313.15	0.0999	992.719	0.151
0.5	313.15	0.15	995.687	0.148
0.5	313.15	0.2	998.668	0.144
0.5	313.15	0.25	1001.562	0.144
0.5	313.15	0.3	1004.436	0.148
0.5	313.15	0.35	1007.275	0.153
0.5	313.15	0.4	1010.111	0.157
