Measured thermophysical data. Volumetric and Viscometric Properties of Binary Liquid Mixtures of Ethylene Glycol Monomethyl Ether + 1-Hexanol, 1-Octanol, and 1-Decanol at Temperatures of T = (293.15, 298.15, 303.15, and 308.15) K
Source: J. Chem. Eng. Data, 2010, 10.1021/je9005344
Compound 1: 2-methoxyethan-1-ol, C3H8O2, InChI=1S/C3H8O2/c1-5-3-2-4/h4H,2-3H2,1H3, purity 99%
Compound 2: hexan-1-ol, C6H14O, InChI=1S/C6H14O/c1-2-3-4-5-6-7/h7H,2-6H2,1H3, purity 99%
Compound 3: octan-1-ol, C8H18O, InChI=1S/C8H18O/c1-2-3-4-5-6-7-8-9/h9H,2-8H2,1H3, purity 99%
Compound 4: decan-1-ol, C10H22O, InChI=1S/C10H22O/c1-2-3-4-5-6-7-8-9-10-11/h11H,2-10H2,1H3, purity 99%

System: 2-methoxyethan-1-ol; phases: Liquid
Property: Viscosity, Pa*s (Liquid); method: Capillary tube (Ostwald; Ubbelohde) method
Temperature, K	Pressure, kPa	Viscosity, Pa*s	uncertainty
298.15	101.3	0.0015119	1.26e-05

System: 2-methoxyethan-1-ol; phases: Liquid
Property: Speed of sound, m/s (Liquid); method: Pulse-echo method
Temperature, K	Pressure, kPa	Speed of sound, m/s	uncertainty
298.15	101.3	1343.5	1.21

System: 2-methoxyethan-1-ol; phases: Liquid
Property: Mass density, kg/m3 (Liquid); method: Vibrating tube method
Temperature, K	Pressure, kPa	Mass density, kg/m3	uncertainty
298.15	101.3	960.978	0.229

System: hexan-1-ol; phases: Liquid
Property: Viscosity, Pa*s (Liquid); method: Capillary tube (Ostwald; Ubbelohde) method
Temperature, K	Pressure, kPa	Viscosity, Pa*s	uncertainty
298.15	101.3	0.0044395	3.3e-05

System: hexan-1-ol; phases: Liquid
Property: Speed of sound, m/s (Liquid); method: Pulse-echo method
Temperature, K	Pressure, kPa	Speed of sound, m/s	uncertainty
298.15	101.3	1303.24	1.2

System: hexan-1-ol; phases: Liquid
Property: Mass density, kg/m3 (Liquid); method: Vibrating tube method
Temperature, K	Pressure, kPa	Mass density, kg/m3	uncertainty
298.15	101.3	815.265	0.235

System: octan-1-ol; phases: Liquid
Property: Viscosity, Pa*s (Liquid); method: Capillary tube (Ostwald; Ubbelohde) method
Temperature, K	Pressure, kPa	Viscosity, Pa*s	uncertainty
298.15	101.3	0.007143	5.06e-05

System: octan-1-ol; phases: Liquid
Property: Speed of sound, m/s (Liquid); method: Pulse-echo method
Temperature, K	Pressure, kPa	Speed of sound, m/s	uncertainty
298.15	101.3	1347.56	1.21

System: octan-1-ol; phases: Liquid
Property: Mass density, kg/m3 (Liquid); method: Vibrating tube method
Temperature, K	Pressure, kPa	Mass density, kg/m3	uncertainty
298.15	101.3	821.794	0.234

System: decan-1-ol; phases: Liquid
Property: Viscosity, Pa*s (Liquid); method: Capillary tube (Ostwald; Ubbelohde) method
Temperature, K	Pressure, kPa	Viscosity, Pa*s	uncertainty
298.15	101.3	0.0111922	7.66e-05

System: decan-1-ol; phases: Liquid
Property: Speed of sound, m/s (Liquid); method: Pulse-echo method
Temperature, K	Pressure, kPa	Speed of sound, m/s	uncertainty
298.15	101.3	1379.87	1.21

System: decan-1-ol; phases: Liquid
Property: Mass density, kg/m3 (Liquid); method: Vibrating tube method
Temperature, K	Pressure, kPa	Mass density, kg/m3	uncertainty
298.15	101.3	826.47	0.234

System: 2-methoxyethan-1-ol + hexan-1-ol; phases: Liquid
Fixed: Pressure, kPa = 101
Property: Speed of sound, m/s (Liquid); method: Pulse-echo method
Temperature, K	Mole fraction of 2-methoxyethan-1-ol	Speed of sound, m/s	uncertainty
293.15	0.0538	1319.22	1.2
293.15	0.1042	1318.29	1.2
293.15	0.1509	1317.73	1.2
293.15	0.2055	1317.07	1.2
293.15	0.2405	1316.69	1.2
293.15	0.2987	1316.34	1.2
293.15	0.4088	1317.34	1.2
293.15	0.5134	1318.59	1.2
293.15	0.5991	1321.17	1.2
293.15	0.6915	1325.88	1.2
293.15	0.805	1334.19	1.2
293.15	0.9039	1345.03	1.21
298.15	0.0538	1302.27	1.2
298.15	0.1042	1301.37	1.2
298.15	0.1509	1300.81	1.2
298.15	0.2055	1300.24	1.2
298.15	0.2405	1299.85	1.2
298.15	0.2987	1299.45	1.2
298.15	0.4088	1300.48	1.2
298.15	0.5134	1301.66	1.2
298.15	0.5991	1304.25	1.2
298.15	0.6915	1308.85	1.2
298.15	0.805	1317.11	1.2
298.15	0.9039	1327.86	1.2
303.15	0.0538	1285.53	1.19
303.15	0.1042	1284.6	1.19
303.15	0.1509	1284.05	1.19
303.15	0.2055	1283.4	1.19
303.15	0.2405	1283.06	1.19
303.15	0.2987	1282.7	1.19
303.15	0.4088	1283.63	1.19
303.15	0.5134	1284.81	1.19
303.15	0.5991	1287.35	1.19
303.15	0.6915	1291.92	1.2
303.15	0.805	1300.13	1.2
303.15	0.9039	1310.75	1.2
308.15	0.0538	1268.87	1.19
308.15	0.1042	1267.93	1.19
308.15	0.1509	1267.36	1.19
308.15	0.2055	1266.75	1.19
308.15	0.2405	1266.38	1.2
308.15	0.2987	1206.03	1.18
308.15	0.4088	1266.93	1.19
308.15	0.5134	1268.06	1.19
308.15	0.5991	1270.56	1.19
308.15	0.6915	1275.04	1.19
308.15	0.805	1283.19	1.19
308.15	0.9039	1293.68	1.2

System: 2-methoxyethan-1-ol + hexan-1-ol; phases: Liquid
Fixed: Pressure, kPa = 101
Property: Mass density, kg/m3 (Liquid); method: Vibrating tube method
Temperature, K	Mole fraction of 2-methoxyethan-1-ol	Mass density, kg/m3	uncertainty
293.15	0.0538	822.792	0.235
293.15	0.1042	828.127	0.234
293.15	0.1509	831.771	0.234
293.15	0.2055	837.788	0.234
293.15	0.2405	841.087	0.234
293.15	0.2987	847.639	0.234
293.15	0.4088	860.712	0.233
293.15	0.5134	874.132	0.233
293.15	0.5991	886.614	0.233
293.15	0.6915	901.59	0.233
293.15	0.805	922.045	0.233
293.15	0.9039	942.54	0.233
298.15	0.0538	819.173	0.235
298.15	0.1042	824.464	0.235
298.15	0.1509	828.075	0.235
298.15	0.2055	834.043	0.234
298.15	0.2405	837.314	0.234
298.15	0.2987	843.81	0.234
298.15	0.4088	856.785	0.233
298.15	0.5134	870.1	0.233
298.15	0.5991	882.495	0.233
298.15	0.6915	897.37	0.233
298.15	0.805	917.699	0.233
298.15	0.9039	938.079	0.233
303.15	0.0538	815.536	0.235
303.15	0.1042	820.781	0.235
303.15	0.1509	824.358	0.235
303.15	0.2055	830.27	0.235
303.15	0.2405	833.515	0.234
303.15	0.2987	839.961	0.234
303.15	0.4088	852.828	0.234
303.15	0.5134	866.048	0.233
303.15	0.5991	878.355	0.233
303.15	0.6915	893.13	0.233
303.15	0.805	913.334	0.233
303.15	0.9039	933.591	0.233
308.15	0.0538	811.869	0.236
308.15	0.1042	817.068	0.235
308.15	0.1509	820.611	0.235
308.15	0.2055	826.473	0.235
308.15	0.2405	829.687	0.235
308.15	0.2987	836.084	0.234
308.15	0.4088	848.853	0.234
308.15	0.5134	861.965	0.233
308.15	0.5991	874.185	0.233
308.15	0.6915	888.857	0.233
308.15	0.805	908.936	0.233
308.15	0.9039	929.076	0.233

System: 2-methoxyethan-1-ol + octan-1-ol; phases: Liquid
Fixed: Pressure, kPa = 101
Property: Speed of sound, m/s (Liquid); method: Pulse-echo method
Temperature, K	Mole fraction of 2-methoxyethan-1-ol	Speed of sound, m/s	uncertainty
293.15	0.0535	1362	1.21
293.15	0.1073	1359.28	1.21
293.15	0.1407	1357.89	1.21
293.15	0.2002	1354.89	1.21
293.15	0.2659	1351.86	1.21
293.15	0.2973	1350.54	1.21
293.15	0.3559	1348	1.21
293.15	0.5233	1342.27	1.21
293.15	0.6059	1340.36	1.21
293.15	0.7126	1339.66	1.21
293.15	0.7903	1340.94	1.21
293.15	0.9202	1349.35	1.21
298.15	0.0535	1345.03	1.21
298.15	0.1073	1342.33	1.21
298.15	0.1407	1340.65	1.21
298.15	0.2002	1337.92	1.21
298.15	0.2659	1334.89	1.2
298.15	0.2973	1333.57	1.2
298.15	0.3559	1331.06	1.2
298.15	0.5233	1325.29	1.2
298.15	0.6059	1323.44	1.2
298.15	0.7126	1322.59	1.2
298.15	0.7903	1323.89	1.2
298.15	0.9202	1332.15	1.2
303.15	0.0535	1328.23	1.2
303.15	0.1073	1325.51	1.2
303.15	0.1407	1323.86	1.2
303.15	0.2002	1321.13	1.2
303.15	0.2659	1318.11	1.2
303.15	0.2973	1316.77	1.2
303.15	0.3559	1314.24	1.2
303.15	0.5233	1308.46	1.2
303.15	0.6059	1306.5	1.2
303.15	0.7126	1305.7	1.2
303.15	0.7903	1306.89	1.2
303.15	0.9202	1315.02	1.2
308.15	0.0535	1311.53	1.2
308.15	0.1073	1308.89	1.2
308.15	0.1407	1307.17	1.2
308.15	0.2002	1304.45	1.2
308.15	0.2659	1301.42	1.2
308.15	0.2973	1300.08	1.2
308.15	0.3559	1297.54	1.2
308.15	0.5233	1296.57	1.2
308.15	0.6059	1289.68	1.2
308.15	0.7126	1288.78	1.19
308.15	0.7903	1289.99	1.2
308.15	0.9202	1297.96	1.2

System: 2-methoxyethan-1-ol + octan-1-ol; phases: Liquid
Fixed: Pressure, kPa = 101
Property: Mass density, kg/m3 (Liquid); method: Vibrating tube method
Temperature, K	Mole fraction of 2-methoxyethan-1-ol	Mass density, kg/m3	uncertainty
293.15	0.0535	828.636	0.234
293.15	0.1073	832.242	0.234
293.15	0.1407	834.668	0.234
293.15	0.2002	839.135	0.234
293.15	0.2659	844.444	0.233
293.15	0.2973	847.294	0.233
293.15	0.3559	852.613	0.233
293.15	0.5233	870.97	0.233
293.15	0.6059	881.954	0.233
293.15	0.7126	898.662	0.233
293.15	0.7903	912.569	0.234
293.15	0.9202	942.675	0.234
298.15	0.0535	825.138	0.234
298.15	0.1073	828.704	0.234
298.15	0.1407	831.104	0.234
298.15	0.2002	835.528	0.234
298.15	0.2659	840.786	0.234
298.15	0.2973	843.606	0.233
298.15	0.3559	848.877	0.234
298.15	0.5233	870.97	0.232
298.15	0.6059	867.068	0.232
298.15	0.7126	877.961	0.235
298.15	0.7903	908.335	0.237
298.15	0.9202	938.234	0.234
303.15	0.0535	821.625	0.235
303.15	0.1073	825.153	0.234
303.15	0.1407	827.528	0.234
303.15	0.2002	831.905	0.234
303.15	0.2659	837.111	0.234
303.15	0.2973	839.904	0.234
303.15	0.3559	845.122	0.234
303.15	0.5233	863.148	0.233
303.15	0.6059	873.942	0.233
303.15	0.7126	890.382	0.233
303.15	0.7903	904.076	0.234
303.15	0.9202	933.772	0.234
308.15	0.0535	818.089	0.235
308.15	0.1073	821.583	0.235
308.15	0.1407	823.931	0.234
308.15	0.2002	828.261	0.234
308.15	0.2659	833.414	0.234
308.15	0.2973	836.178	0.234
308.15	0.3559	841.346	0.234
308.15	0.5233	859.203	0.233
308.15	0.6059	869.902	0.233
308.15	0.7126	886.205	0.233
308.15	0.7903	899.757	0.234
308.15	0.9202	929.291	0.234

System: 2-methoxyethan-1-ol + decan-1-ol; phases: Liquid
Fixed: Pressure, kPa = 101
Property: Speed of sound, m/s (Liquid); method: Pulse-echo method
Temperature, K	Mole fraction of 2-methoxyethan-1-ol	Speed of sound, m/s	uncertainty
293.15	0.0606	1393.08	1.22
293.15	0.1173	1389.5	1.22
293.15	0.1631	1386.6	1.22
293.15	0.1934	1384.72	1.22
293.15	0.251	1380.78	1.21
293.15	0.3025	1377.51	1.21
293.15	0.413	1370.19	1.21
293.15	0.517	1363.6	1.21
293.15	0.6285	1356.62	1.21
293.15	0.7087	1352.47	1.21
293.15	0.7965	1349.49	1.21
293.15	0.9382	1352.49	1.21
298.15	0.0606	1375.93	1.21
298.15	0.1173	1372.36	1.21
298.15	0.1631	1369.54	1.21
298.15	0.1934	1367.52	1.21
298.15	0.251	1363.74	1.21
298.15	0.3025	1360.44	1.21
298.15	0.413	1353.11	1.21
298.15	0.517	1346.56	1.21
298.15	0.6285	1339.57	1.21
298.15	0.7087	1335.35	1.2
298.15	0.7965	1332.28	1.2
298.15	0.9382	1335.34	1.2
303.15	0.0606	1358.98	1.21
303.15	0.1173	1355.38	1.21
303.15	0.1631	1352.56	1.21
303.15	0.1934	1350.62	1.21
303.15	0.251	1346.8	1.21
303.15	0.3025	1343.53	1.21
303.15	0.413	1336.2	1.21
303.15	0.517	1329.58	1.2
303.15	0.6285	1322.58	1.2
303.15	0.7087	1318.38	1.2
303.15	0.7965	1315.26	1.2
303.15	0.9382	1318.15	1.2
308.15	0.0606	1342.16	1.21
308.15	0.1173	1338.64	1.21
308.15	0.1631	1335.78	1.21
308.15	0.1934	1333.81	1.2
308.15	0.251	1329.97	1.2
308.15	0.3025	1326.72	1.2
308.15	0.413	1319.38	1.2
308.15	0.517	1312.77	1.2
308.15	0.6285	1305.7	1.2
308.15	0.7087	1301.46	1.2
308.15	0.7965	1298.31	1.2
308.15	0.9382	1301.08	1.2

System: 2-methoxyethan-1-ol + decan-1-ol; phases: Liquid
Fixed: Pressure, kPa = 101
Property: Mass density, kg/m3 (Liquid); method: Vibrating tube method
Temperature, K	Mole fraction of 2-methoxyethan-1-ol	Mass density, kg/m3	uncertainty
293.15	0.0606	832.95	0.234
293.15	0.1173	835.952	0.233
293.15	0.1631	838.564	0.233
293.15	0.1934	840.414	0.233
293.15	0.251	844.262	0.233
293.15	0.3025	847.887	0.233
293.15	0.413	856.97	0.233
293.15	0.517	867.321	0.233
293.15	0.6285	880.912	0.232
293.15	0.7087	892.252	0.233
293.15	0.7965	909.015	0.234
293.15	0.9382	944.534	0.234
298.15	0.0606	829.505	0.234
298.15	0.1173	832.457	0.234
298.15	0.1631	835.06	0.234
298.15	0.1934	836.878	0.234
298.15	0.251	840.695	0.233
298.15	0.3025	844.28	0.233
298.15	0.413	853.268	0.233
298.15	0.517	863.518	0.233
298.15	0.6285	876.98	0.233
298.15	0.7087	888.913	0.233
298.15	0.7965	904.836	0.234
298.15	0.9382	940.097	0.234
303.15	0.0606	826.05	0.234
303.15	0.1173	828.982	0.234
303.15	0.1631	831.539	0.234
303.15	0.1934	833.342	0.234
303.15	0.251	837.111	0.234
303.15	0.3025	840.662	0.233
303.15	0.413	849.553	0.233
303.15	0.517	859.697	0.233
303.15	0.6285	873.028	0.233
303.15	0.7087	884.854	0.233
303.15	0.7965	900.644	0.235
303.15	0.9382	935.63	0.234
308.15	0.0606	822.58	0.234
308.15	0.1173	825.482	0.234
308.15	0.1631	828.008	0.234
308.15	0.1934	829.786	0.234
308.15	0.251	833.512	0.234
308.15	0.3025	837.024	0.234
308.15	0.413	845.819	0.233
308.15	0.517	855.861	0.233
308.15	0.6285	869.056	0.233
308.15	0.7087	880.773	0.233
308.15	0.7965	896.427	0.235
308.15	0.9382	931.137	0.234
