Measured thermophysical data. Accurate PVT Data for Ethane from (298 to 450) K up to 200 MPa
Source: J. Chem. Eng. Data, 2010, 10.1021/je900978x
Compound 1: ethane, C2H6, InChI=1S/C2H6/c1-2/h1-2H3, purity 99.95%

System: ethane; phases: Fluid (supercritical or subcritical phases)
Property: Mass density, kg/m3 (Fluid (supercritical or subcritical phases)); method: Buoyancy - hydrostatic balance with magnetic suspension - one sinker
Temperature, K	Pressure, kPa	Mass density, kg/m3	uncertainty
298.15	2000	29.226	0.03
298.15	5987	352.999	0.356
298.15	7909	371.593	0.228
298.15	10071	385.867	0.237
298.15	14959	407.911	0.251
298.15	20004	423.934	0.261
298.15	24927	436.235	0.266
298.15	29893	446.599	0.273
298.15	35020	455.82	0.278
298.15	39905	463.582	0.283
298.15	49977	477.362	0.291
298.15	75091	503.592	0.307
298.15	99827	523.125	0.319
298.15	119760	536.225	0.327
298.15	149807	552.995	0.337
350	1999	22.819	0.023
350	29974	384.889	0.235
350	49928	430.315	0.263
350	74959	464.696	0.284
350	100019	489.111	0.298
350	124863	508.192	0.31
350	149906	524.195	0.32
350	172157	536.528	0.327
400	805	7.452	0.008
400	7325	84.481	0.052
400	27286	311.921	0.19
400	48575	383.533	0.234
400	69346	421.214	0.257
400	92289	450.02	0.275
400	117459	473.901	0.289
400	139686	491.026	0.3
400	154657	501.119	0.306
400	166558	508.474	0.31
400	181565	517.111	0.315
400	196062	524.823	0.32
450	1998	16.685	0.017
450	5021	44.467	0.045
450	10001	96.599	0.06
450	20005	202.282	0.125
450	30018	272.417	0.166
450	49974	346.238	0.211
450	69967	388.105	0.237
450	79928	403.693	0.246
450	99962	429.113	0.262
450	119860	449.29	0.274
450	139478	465.963	0.284
