Measured thermophysical data. Heat Capacity of Sodium Aminoacetate Solutions before and after CO2 Absorption
Source: J. Chem. Eng. Data, 2010, 10.1021/je9002948
Compound 1: sodium glycinate, C2H4NNaO2, InChI=1S/C2H5NO2.Na/c3-1-2(4)5;/h1,3H2,(H,4,5);/q;+1/p-1
Compound 2: water, H2O, InChI=1S/H2O/h1H2
Compound 3: carbon dioxide, CO2, InChI=1S/CO2/c2-1-3

System: water; phases: Liquid
Fixed: Pressure, kPa = 101.325
Property: Molar heat capacity at constant pressure, J/K/mol (Liquid); method: Small sample (50 mg) DSC
Temperature, K	Molar heat capacity at constant pressure, J/K/mol	uncertainty
303.15	75.28585512	1.5129232144
308.15	75.35791624	1.5129232144
313.15	75.37593152	1.5129232144
318.15	75.3939468	1.5129232144
323.15	75.3939468	1.5129232144
328.15	75.3939468	1.5129232144
333.15	75.41196208	1.5129232144
338.15	75.41196208	1.5129232144
343.15	75.42997736	1.5129232144
348.15	75.44799264	1.5129232144
353.15	75.4840232	1.5129232144

System: sodium glycinate + water; phases: Liquid
Fixed: Pressure, kPa = 101
Property: Molar heat capacity at constant pressure, J/K/mol (Liquid); method: Small sample (50 mg) DSC
Mass fraction of sodium glycinate	Temperature, K	Molar heat capacity at constant pressure, J/K/mol	uncertainty
0.01	298.15	75.1956	1.508
0.01	303.15	75.2138	1.508
0.01	308.15	75.2501	1.508
0.01	313.15	75.3228	1.508
0.01	318.15	75.3954	1.508
0.01	323.15	75.4136	1.508
0.05	298.15	76.6974	1.54
0.05	303.15	76.7162	1.54
0.05	308.15	76.7725	1.54
0.05	313.15	76.8476	1.54
0.05	318.15	76.9228	1.54
0.05	323.15	77.0542	1.54
0.1	298.15	77.3908	1.549
0.1	303.15	77.4104	1.549
0.1	308.15	77.4692	1.549
0.1	313.15	77.528	1.549
0.1	318.15	77.5869	1.549
0.1	323.15	77.6653	1.549
0.15	298.15	78.8051	1.58
0.15	303.15	78.8462	1.58
0.15	308.15	78.9077	1.58
0.15	313.15	78.9898	1.58
0.15	318.15	79.0719	1.58
0.15	323.15	79.1951	1.58
0.2	298.15	78.2266	1.571
0.2	303.15	78.7861	1.571
0.2	308.15	79.4533	1.593
0.2	313.15	80.1204	1.593
0.2	318.15	80.766	1.614
0.2	323.15	81.4762	1.636
0.3	298.15	80.8398	1.621
0.3	303.15	81.4597	1.621
0.3	308.15	82.1033	1.645
0.3	313.15	82.747	1.645
0.3	318.15	83.4383	1.669
0.3	323.15	84.1058	1.693

System: carbon dioxide + sodium glycinate + water; phases: Liquid
Fixed: Pressure, kPa = 101
Property: Molar heat capacity at constant pressure, J/K/mol (Liquid); method: Small sample (50 mg) DSC
Solvent: Mass fraction of sodium glycinate	Mole fraction of carbon dioxide	Temperature, K	Molar heat capacity at constant pressure, J/K/mol	uncertainty
0.01	0	298.15	75.1956	1.508
0.01	0	303.15	75.2138	1.508
0.01	0	308.15	75.2501	1.508
0.01	0	313.15	75.3228	1.508
0.01	0	318.15	75.3954	1.508
0.01	0	323.15	75.4136	1.508
0.01	0.00431	298.15	73.6101	1.48
0.01	0.00431	303.15	73.9756	1.48
0.01	0.00431	308.15	74.341	1.48
0.01	0.00431	313.15	74.7065	1.499
0.01	0.00431	318.15	75.072	1.499
0.01	0.00431	323.15	75.4375	1.517
0.01	0.005006	298.15	72.8594	1.463
0.01	0.005006	303.15	73.2984	1.463
0.01	0.005006	308.15	73.7557	1.482
0.01	0.005006	313.15	74.2862	1.482
0.01	0.005006	318.15	74.835	1.5
0.01	0.005006	323.15	75.2191	1.5
0.01	0.005931	298.15	72.1303	1.447
0.01	0.005931	303.15	72.6798	1.447
0.01	0.005931	308.15	73.3575	1.465
0.01	0.005931	313.15	73.9803	1.484
0.01	0.005931	318.15	74.5115	1.484
0.01	0.005931	323.15	75.0976	1.502
0.01	0.006277	298.15	71.5975	1.429
0.01	0.006277	303.15	72.2205	1.448
0.01	0.006277	308.15	72.8802	1.466
0.01	0.006277	313.15	73.54	1.466
0.01	0.006277	318.15	74.2363	1.484
0.01	0.006277	323.15	74.951	1.503
0.01	0.006624	298.15	71.4492	1.43
0.01	0.006624	303.15	72.1092	1.448
0.01	0.006624	308.15	72.8792	1.467
0.01	0.006624	313.15	73.5943	1.467
0.01	0.006624	318.15	74.2177	1.485
0.01	0.006624	323.15	74.9327	1.503
0.01	0.007547	298.15	70.3488	1.414
0.01	0.007547	303.15	71.0832	1.414
0.01	0.007547	308.15	71.9093	1.432
0.01	0.007547	313.15	72.7721	1.45
0.01	0.007547	318.15	73.6717	1.469
0.01	0.007547	323.15	74.6814	1.487
0.05	0	298.15	76.6974	1.54
0.05	0	303.15	76.7162	1.54
0.05	0	308.15	76.7725	1.54
0.05	0	313.15	76.8476	1.54
0.05	0	318.15	76.9228	1.54
0.05	0	323.15	77.0542	1.54
0.05	0.011837	298.15	75.4178	1.507
0.05	0.011837	303.15	75.9138	1.526
0.05	0.011837	308.15	76.4098	1.526
0.05	0.011837	313.15	76.9059	1.545
0.05	0.011837	318.15	77.421	1.545
0.05	0.011837	323.15	77.9171	1.564
0.05	0.013016	298.15	73.7392	1.471
0.05	0.013016	303.15	74.064	1.49
0.05	0.013016	308.15	74.771	1.49
0.05	0.013016	313.15	75.6309	1.51
0.05	0.013016	318.15	76.6245	1.529
0.05	0.013016	323.15	77.943	1.567
0.05	0.013129	298.15	73.3106	1.472
0.05	0.013129	303.15	74.1706	1.491
0.05	0.013129	308.15	75.1453	1.51
0.05	0.013129	313.15	76.0244	1.529
0.05	0.013129	318.15	76.8079	1.529
0.05	0.013129	323.15	77.668	1.548
0.05	0.013487	298.15	72.504	1.453
0.05	0.013487	303.15	73.4408	1.472
0.05	0.013487	308.15	74.416	1.491
0.05	0.013487	313.15	75.4294	1.51
0.05	0.013487	318.15	76.5192	1.53
0.05	0.013487	323.15	77.6282	1.549
0.05	0.013723	298.15	72.4883	1.454
0.05	0.013723	303.15	73.4637	1.473
0.05	0.013723	308.15	74.6113	1.492
0.05	0.013723	313.15	75.7015	1.511
0.05	0.013723	318.15	76.5813	1.53
0.05	0.013723	323.15	77.289	1.549
0.05	0.014541	298.15	71.0922	1.417
0.05	0.014541	303.15	72.0878	1.436
0.05	0.014541	308.15	73.1792	1.455
0.05	0.014541	313.15	74.3854	1.493
0.05	0.014541	318.15	75.63	1.513
0.05	0.014541	323.15	76.7788	1.532
0.1	0	298.15	77.3908	1.549
0.1	0	303.15	77.4104	1.549
0.1	0	308.15	77.4692	1.549
0.1	0	313.15	77.528	1.549
0.1	0	318.15	77.5869	1.549
0.1	0	323.15	77.6653	1.549
0.1	0.019206	298.15	75.1231	1.506
0.1	0.019206	303.15	75.8059	1.526
0.1	0.019206	308.15	76.6493	1.526
0.1	0.019206	313.15	77.4124	1.546
0.1	0.019206	318.15	78.0148	1.566
0.1	0.019206	323.15	78.5369	1.566
0.1	0.022828	298.15	75.0301	1.493
0.1	0.022828	303.15	75.9378	1.513
0.1	0.022828	308.15	76.9261	1.533
0.1	0.022828	313.15	77.8539	1.553
0.1	0.022828	318.15	78.4791	1.573
0.1	0.022828	323.15	78.58	1.573
0.1	0.025234	298.15	73.4684	1.477
0.1	0.025234	303.15	74.2776	1.477
0.1	0.025234	308.15	75.1676	1.497
0.1	0.025234	313.15	76.179	1.517
0.1	0.025234	318.15	77.3118	1.537
0.1	0.025234	323.15	78.5254	1.578
0.1	0.025964	298.15	72.8245	1.458
0.1	0.025964	303.15	73.3104	1.458
0.1	0.025964	308.15	73.938	1.478
0.1	0.025964	313.15	74.9301	1.498
0.1	0.025964	318.15	76.489	1.539
0.1	0.025964	323.15	78.8578	1.579
0.1	0.026806	298.15	72.3107	1.439
0.1	0.026806	303.15	73.1416	1.459
0.1	0.026806	308.15	73.9523	1.479
0.1	0.026806	313.15	74.9656	1.5
0.1	0.026806	318.15	76.4248	1.52
0.1	0.026806	323.15	78.6946	1.581
0.1	0.028106	298.15	71.348	1.421
0.1	0.028106	303.15	72.2614	1.441
0.1	0.028106	308.15	73.2561	1.461
0.1	0.028106	313.15	74.4131	1.482
0.1	0.028106	318.15	75.976	1.522
0.1	0.028106	323.15	78.4118	1.563
0.15	0	298.15	78.8051	1.58
0.15	0	303.15	78.8462	1.58
0.15	0	308.15	78.9077	1.58
0.15	0	313.15	78.9898	1.58
0.15	0	318.15	79.0719	1.58
0.15	0	323.15	79.1951	1.58
0.15	0.028624	298.15	76.724	1.526
0.15	0.028624	303.15	77.1479	1.547
0.15	0.028624	308.15	77.8685	1.547
0.15	0.028624	313.15	78.6951	1.568
0.15	0.028624	318.15	79.564	1.59
0.15	0.028624	323.15	80.7933	1.611
0.15	0.031132	298.15	75.492	1.509
0.15	0.031132	303.15	76.5334	1.53
0.15	0.031132	308.15	77.5536	1.551
0.15	0.031132	313.15	78.5737	1.573
0.15	0.031132	318.15	79.6152	1.594
0.15	0.031132	323.15	80.6353	1.615
0.15	0.032113	298.15	74.2334	1.489
0.15	0.032113	303.15	75.4675	1.511
0.15	0.032113	308.15	76.8079	1.532
0.15	0.032113	313.15	78.127	1.553
0.15	0.032113	318.15	79.4036	1.596
0.15	0.032113	323.15	80.7015	1.617
0.15	0.032351	298.15	73.806	1.468
0.15	0.032351	303.15	75.0829	1.511
0.15	0.032351	308.15	76.6365	1.532
0.15	0.032351	313.15	78.5306	1.575
0.15	0.032351	318.15	80.2332	1.596
0.15	0.032351	323.15	80.7014	1.617
0.15	0.0341	298.15	72.925	1.45
0.15	0.0341	303.15	74.3323	1.493
0.15	0.0341	308.15	75.7609	1.514
0.15	0.0341	313.15	77.4455	1.557
0.15	0.0341	318.15	79.2366	1.578
0.15	0.0341	323.15	80.5373	1.621
0.15	0.034839	298.15	72.2161	1.451
0.15	0.034839	303.15	73.6886	1.472
0.15	0.034839	308.15	75.2251	1.515
0.15	0.034839	313.15	76.8469	1.537
0.15	0.034839	318.15	78.5115	1.579
0.15	0.034839	323.15	80.1974	1.601
0.2	0	298.15	78.2266	1.571
0.2	0	303.15	78.7861	1.571
0.2	0	308.15	79.4533	1.593
0.2	0	313.15	80.1204	1.593
0.2	0	318.15	80.766	1.614
0.2	0	323.15	81.4762	1.636
0.2	0.030235	298.15	77.4792	1.554
0.2	0.030235	303.15	78.2784	1.576
0.2	0.030235	308.15	79.2774	1.576
0.2	0.030235	313.15	80.3208	1.598
0.2	0.030235	318.15	81.3421	1.621
0.2	0.030235	323.15	82.4521	1.643
0.2	0.040061	298.15	73.9455	1.48
0.2	0.040061	303.15	75.4926	1.502
0.2	0.040061	308.15	77.376	1.547
0.2	0.040061	313.15	79.0127	1.569
0.2	0.040061	318.15	80.2907	1.614
0.2	0.040061	323.15	81.6809	1.637
0.2	0.0421	298.15	73.0857	1.46
0.2	0.0421	303.15	74.7034	1.505
0.2	0.0421	308.15	76.3884	1.528
0.2	0.0421	313.15	78.1184	1.573
0.2	0.0421	318.15	79.8708	1.595
0.2	0.0421	323.15	81.6232	1.64
0.2	0.04336	298.15	72.7055	1.462
0.2	0.04336	303.15	74.3027	1.485
0.2	0.04336	308.15	75.9448	1.53
0.2	0.04336	313.15	77.6995	1.552
0.2	0.04336	318.15	79.5666	1.597
0.2	0.04336	323.15	81.5912	1.642
0.2	0.04716	298.15	71.2204	1.423
0.2	0.04716	303.15	73.3204	1.468
0.2	0.04716	308.15	75.0591	1.49
0.2	0.04716	313.15	76.6172	1.536
0.2	0.04716	318.15	78.4237	1.558
0.2	0.04716	323.15	81.0431	1.626
0.2	0.047884	298.15	71.0232	1.424
0.2	0.047884	303.15	72.8309	1.446
0.2	0.047884	308.15	74.8195	1.491
0.2	0.047884	313.15	76.8533	1.537
0.2	0.047884	318.15	78.9096	1.582
0.2	0.047884	323.15	81.0563	1.627
0.3	0	298.15	80.8398	1.621
0.3	0	303.15	81.4597	1.621
0.3	0	308.15	82.1033	1.645
0.3	0	313.15	82.747	1.645
0.3	0	318.15	83.4383	1.669
0.3	0	323.15	84.1058	1.693
0.3	0.043896	298.15	78.4521	1.558
0.3	0.043896	303.15	79.2928	1.582
0.3	0.043896	308.15	80.1334	1.607
0.3	0.043896	313.15	81.0482	1.632
0.3	0.043896	318.15	81.9878	1.632
0.3	0.043896	323.15	82.9768	1.657
0.3	0.062588	298.15	75.7074	1.506
0.3	0.062588	303.15	77.3139	1.556
0.3	0.062588	308.15	79.2217	1.581
0.3	0.062588	313.15	80.9788	1.632
0.3	0.062588	318.15	82.4096	1.657
0.3	0.062588	323.15	83.6898	1.682
0.3	0.065943	298.15	72.0102	1.435
0.3	0.065943	303.15	74.1496	1.485
0.3	0.065943	308.15	76.3142	1.535
0.3	0.065943	313.15	78.5543	1.561
0.3	0.065943	318.15	80.8699	1.611
0.3	0.065943	323.15	83.2358	1.661
0.3	0.066521	298.15	71.3385	1.435
0.3	0.066521	303.15	73.3278	1.461
0.3	0.066521	308.15	75.4934	1.511
0.3	0.066521	313.15	77.8353	1.561
0.3	0.066521	318.15	80.4037	1.612
0.3	0.066521	323.15	83.2744	1.662
0.3	0.067676	298.15	71.0768	1.411
0.3	0.067676	303.15	72.5135	1.462
0.3	0.067676	308.15	74.7567	1.487
0.3	0.067676	313.15	77.1763	1.537
0.3	0.067676	318.15	79.8228	1.588
0.3	0.067676	323.15	83.2506	1.664
0.3	0.070613	298.15	70.107	1.415
0.3	0.070613	303.15	72.2292	1.44
0.3	0.070613	308.15	74.5787	1.491
0.3	0.070613	313.15	77.1809	1.541
0.3	0.070613	318.15	80.0609	1.592
0.3	0.070613	323.15	83.2442	1.667
