Measured thermophysical data. Solubility of Anthracene in Binary and Ternary Mixtures of Cyclohexanone, Ethyl Acetate, and Methanol at 298.2 K
Source: J. Chem. Eng. Data, 2010, 10.1021/je900852t
Compound 1: anthracene, C14H10, InChI=1S/C14H10/c1-2-6-12-10-14-8-4-3-7-13(14)9-11(12)5-1/h1-10H
Compound 2: cyclohexanone, C6H10O, InChI=1S/C6H10O/c7-6-4-2-1-3-5-6/h1-5H2
Compound 3: ethyl acetate, C4H8O2, InChI=1S/C4H8O2/c1-3-6-4(2)5/h3H2,1-2H3
Compound 4: methanol, CH4O, InChI=1S/CH4O/c1-2/h2H,1H3

System: anthracene; phases: Crystal, Liquid, Air at 1 atmosphere
Property: Normal melting temperature, K (Crystal); method: VISOBS
Normal melting temperature, K	uncertainty
488	1

System: cyclohexanone + anthracene + ethyl acetate; phases: Liquid, Crystal
Fixed: Temperature, K = 298.2
Fixed: Pressure, kPa = 101
Property: Amount concentration (molarity), mol/dm3 of anthracene (Liquid); method: UV-Vis spectrophotometer
Solvent: Mole fraction of cyclohexanone	Amount concentration (molarity), mol/dm3 of anthracene	uncertainty
0	0.049	0.003
0.096	0.074	0.005
0.193	0.078	0.005
0.29	0.085	0.005
0.389	0.094	0.006
0.489	0.103	0.006
0.589	0.107	0.006
0.69	0.114	0.007
0.793	0.124	0.007
0.896	0.125	0.008
1	0.136	0.008

System: cyclohexanone + anthracene + ethyl acetate; phases: Liquid, Crystal
Fixed: Temperature, K = 298.2
Fixed: Pressure, kPa = 101
Property: Mass density, kg/m3 (Liquid); method: Pycnometric method
Solvent: Mole fraction of cyclohexanone	Mass density, kg/m3	uncertainty
0	901	1
0.096	903	1
0.193	909	2
0.29	917	2
0.389	921	2
0.489	927	2
0.589	931	2
0.69	937	2
0.793	942	2
0.896	948	2
1	953	2

System: methanol + cyclohexanone + anthracene; phases: Liquid, Crystal
Fixed: Temperature, K = 298.2
Fixed: Pressure, kPa = 101
Property: Amount concentration (molarity), mol/dm3 of anthracene (Liquid); method: UV-Vis spectrophotometer
Solvent: Mole fraction of cyclohexanone	Amount concentration (molarity), mol/dm3 of anthracene	uncertainty
0	0.006	0.001
0.042	0.013	0.002
0.089	0.016	0.002
0.144	0.022	0.002
0.207	0.034	0.003
0.281	0.039	0.003
0.37	0.056	0.005
0.477	0.068	0.006
0.61	0.095	0.008
0.779	0.111	0.009
1	0.136	0.011

System: methanol + cyclohexanone + anthracene; phases: Liquid, Crystal
Fixed: Temperature, K = 298.2
Fixed: Pressure, kPa = 101
Property: Mass density, kg/m3 (Liquid); method: Pycnometric method
Solvent: Mole fraction of cyclohexanone	Mass density, kg/m3	uncertainty
0	811	1
0.042	831	5
0.089	852	5
0.144	876	4
0.207	892	3
0.281	906	2
0.37	915	2
0.477	928	2
0.61	938	2
0.779	949	2
1	966	2

System: methanol + anthracene + ethyl acetate; phases: Liquid, Crystal
Fixed: Temperature, K = 298.2
Fixed: Pressure, kPa = 101
Property: Amount concentration (molarity), mol/dm3 of anthracene (Liquid); method: UV-Vis spectrophotometer
Solvent: Mole fraction of ethyl acetate	Amount concentration (molarity), mol/dm3 of anthracene	uncertainty
0	0.006	0.001
0.044	0.009	0.001
0.093	0.012	0.001
0.149	0.016	0.002
0.215	0.019	0.002
0.291	0.026	0.003
0.381	0.028	0.003
0.489	0.038	0.004
0.621	0.04	0.004
0.787	0.045	0.005
1	0.049	0.005

System: methanol + anthracene + ethyl acetate; phases: Liquid, Crystal
Fixed: Temperature, K = 298.2
Fixed: Pressure, kPa = 101
Property: Mass density, kg/m3 (Liquid); method: Pycnometric method
Solvent: Mole fraction of ethyl acetate	Mass density, kg/m3	uncertainty
0	821	1
0.044	831	3
0.093	844	3
0.149	856	2
0.215	864	2
0.291	872	2
0.381	882	2
0.489	891	2
0.621	905	2
0.787	918	2
1	933	1
