Measured thermophysical data. Apparent Molar Volume and Compressibility of Tetrabutylphosphonium Bromide in Various Solvents
Source: J. Chem. Eng. Data, 2010, 10.1021/je900888e
Compound 1: tetrabutylphosphonium bromide, C16H36BrP, InChI=1S/C16H36P.BrH/c1-5-9-13-17(14-10-6-2,15-11-7-3)16-12-8-4;/h5-16H2,1-4H3;1H/q+1;/p-1
Compound 2: ethanol, C2H6O, InChI=1S/C2H6O/c1-2-3/h3H,2H2,1H3
Compound 3: propan-1-ol, C3H8O, InChI=1S/C3H8O/c1-2-3-4/h4H,2-3H2,1H3
Compound 4: butan-1-ol, C4H10O, InChI=1S/C4H10O/c1-2-3-4-5/h5H,2-4H2,1H3
Compound 5: acetone, C3H6O, InChI=1S/C3H6O/c1-3(2)4/h1-2H3
Compound 6: acetonitrile, C2H3N, InChI=1S/C2H3N/c1-2-3/h1H3

System: ethanol + tetrabutylphosphonium bromide; phases: Liquid
Fixed: Pressure, kPa = 101
Fixed: Temperature, K = 298.15
Property: Speed of sound, m/s (Liquid); method: Pulse-echo method
Molality, mol/kg of tetrabutylphosphonium bromide	Speed of sound, m/s	uncertainty
0.01059	1143.41	0.81
0.02012	1144.16	0.81
0.03006	1144.9	0.81
0.04161	1145.8	0.81
0.05762	1146.99	0.81
0.0739	1148.28	0.82
0.09578	1150.03	0.82
0.1153	1151.58	0.83
0.1491	1154.02	0.83
0.1902	1157.13	0.84
0.2304	1160.13	0.85
0.2693	1163.18	0.86
0.3148	1166.56	0.87
0.3532	1169.74	0.88

System: ethanol + tetrabutylphosphonium bromide; phases: Liquid
Fixed: Pressure, kPa = 101
Property: Mass density, kg/m3 (Liquid); method: VIBTUB:UFactor:2
Temperature, K	Molality, mol/kg of tetrabutylphosphonium bromide	Mass density, kg/m3	uncertainty
288.15	0	793.628	0.242
288.15	0.01059	794.469	0.241
288.15	0.01529	794.835	0.241
288.15	0.02012	795.211	0.24
288.15	0.02498	795.579	0.24
288.15	0.03006	795.97	0.24
288.15	0.03503	796.342	0.24
288.15	0.04151	796.84	0.24
288.15	0.05762	798.064	0.239
288.15	0.0739	799.301	0.239
288.15	0.09578	800.947	0.238
288.15	0.1153	802.415	0.238
288.15	0.1491	805.003	0.237
288.15	0.1902	808.127	0.237
288.15	0.2304	811.194	0.237
288.15	0.2693	814.212	0.236
288.15	0.3148	817.67	0.236
288.15	0.3532	820.707	0.236
293.15	0	789.354	0.245
293.15	0.01059	790.202	0.245
293.15	0.01529	790.569	0.244
293.15	0.02012	790.945	0.243
293.15	0.02498	791.314	0.243
293.15	0.03006	791.71	0.243
293.15	0.03503	792.084	0.243
293.15	0.04151	792.586	0.243
293.15	0.05762	793.819	0.242
293.15	0.0739	795.066	0.242
293.15	0.09578	796.718	0.241
293.15	0.1153	798.195	0.241
293.15	0.1491	800.793	0.241
293.15	0.1902	803.94	0.24
293.15	0.2304	807.016	0.24
293.15	0.2693	810.05	0.239
293.15	0.3148	813.522	0.239
293.15	0.3532	816.572	0.239
298.15	0	785.063	0.249
298.15	0.01059	785.915	0.248
298.15	0.01529	786.285	0.247
298.15	0.02012	786.664	0.247
298.15	0.02498	787.039	0.247
298.15	0.03006	787.435	0.246
298.15	0.03503	787.812	0.246
298.15	0.04151	788.317	0.246
298.15	0.05762	789.557	0.246
298.15	0.0739	790.805	0.245
298.15	0.09578	792.466	0.245
298.15	0.1153	793.96	0.244
298.15	0.1491	796.569	0.244
298.15	0.1902	799.735	0.243
298.15	0.2304	802.825	0.243
298.15	0.2693	805.871	0.242
298.15	0.3148	809.364	0.242
298.15	0.3532	812.423	0.242
303.15	0	780.745	0.252
303.15	0.01059	781.605	0.251
303.15	0.01529	781.975	0.251
303.15	0.02012	782.36	0.25
303.15	0.02498	782.735	0.25
303.15	0.03006	783.133	0.25
303.15	0.03503	783.514	0.25
303.15	0.04151	784.017	0.249
303.15	0.05762	785.266	0.249
303.15	0.0739	786.532	0.248
303.15	0.09578	788.201	0.248
303.15	0.1153	789.696	0.248
303.15	0.1491	792.326	0.247
303.15	0.1902	795.51	0.246
303.15	0.2304	798.61	0.246
303.15	0.2693	801.675	0.245
303.15	0.3148	805.185	0.245
303.15	0.3532	808.255	0.245
308.15	0	776.392	0.256
308.15	0.01059	777.266	0.255
308.15	0.01529	777.642	0.254
308.15	0.02012	778.029	0.253
308.15	0.02498	778.405	0.253
308.15	0.03006	778.811	0.253
308.15	0.03503	779.185	0.253
308.15	0.04151	779.692	0.253
308.15	0.05762	780.958	0.252
308.15	0.0739	782.224	0.252
308.15	0.09578	783.906	0.251
308.15	0.1153	785.405	0.251
308.15	0.1491	788.054	0.25
308.15	0.1902	791.254	0.249
308.15	0.2304	794.369	0.249
308.15	0.2693	797.452	0.248
308.15	0.3148	800.979	0.248
308.15	0.3532	804.069	0.248
313.15	0	772	0.26
313.15	0.01059	772.883	0.258
313.15	0.01529	773.262	0.258
313.15	0.02012	773.654	0.257
313.15	0.02498	774.033	0.257
313.15	0.03006	774.44	0.256
313.15	0.03503	774.821	0.256
313.15	0.04151	775.339	0.256
313.15	0.05762	776.605	0.256
313.15	0.0739	777.879	0.255
313.15	0.09578	779.575	0.254
313.15	0.1153	781.083	0.254
313.15	0.1491	783.746	0.253
313.15	0.1902	786.963	0.253
313.15	0.2304	790.1	0.252
313.15	0.2693	793.195	0.252
313.15	0.3148	796.743	0.251
313.15	0.3532	799.851	0.251
323.15	0	763.084	0.266
323.15	0.01059	763.983	0.265
323.15	0.01529	764.367	0.264
323.15	0.02012	764.765	0.264
323.15	0.02498	765.15	0.264
323.15	0.03006	765.563	0.263
323.15	0.03503	765.954	0.263
323.15	0.04151	766.473	0.263
323.15	0.05762	767.762	0.262
323.15	0.0739	769.054	0.262
323.15	0.09578	770.773	0.261
323.15	0.1153	772.302	0.261
323.15	0.1491	775	0.26
323.15	0.1902	778.257	0.259
323.15	0.2304	781.434	0.259
323.15	0.2693	784.564	0.258
323.15	0.3148	788.154	0.257
323.15	0.3532	791.3	0.258

System: propan-1-ol + tetrabutylphosphonium bromide; phases: Liquid
Fixed: Pressure, kPa = 101
Fixed: Temperature, K = 298.15
Property: Speed of sound, m/s (Liquid); method: Pulse-echo method
Molality, mol/kg of tetrabutylphosphonium bromide	Speed of sound, m/s	uncertainty
0.01006	1205.61	0.82
0.02524	1206.64	0.83
0.05294	1208.61	0.83
0.06813	1209.54	0.83
0.0867	1210.79	0.84
0.1076	1212.19	0.84
0.1375	1213.91	0.85
0.1743	1216.23	0.86
0.2115	1218.41	0.86
0.2447	1220.65	0.87
0.2873	1223.51	0.88
0.3248	1225.72	0.89

System: propan-1-ol + tetrabutylphosphonium bromide; phases: Liquid
Fixed: Pressure, kPa = 101
Property: Mass density, kg/m3 (Liquid); method: VIBTUB:UFactor:2
Temperature, K	Molality, mol/kg of tetrabutylphosphonium bromide	Mass density, kg/m3	uncertainty
288.15	0	807.448	0.23
288.15	0.008229	808.063	0.23
288.15	0.01006	808.2	0.23
288.15	0.01526	808.58	0.229
288.15	0.02043	808.96	0.229
288.15	0.02524	809.318	0.229
288.15	0.03024	809.68	0.229
288.15	0.03749	810.212	0.229
288.15	0.05294	811.322	0.228
288.15	0.06813	812.403	0.228
288.15	0.0867	813.75	0.228
288.15	0.1076	815.247	0.227
288.15	0.1375	817.423	0.227
288.15	0.1743	820.087	0.226
288.15	0.2115	822.781	0.226
288.15	0.2447	825.209	0.226
288.15	0.2873	828.335	0.226
288.15	0.3248	831.089	0.226
293.15	0	803.46	0.234
293.15	0.008229	804.08	0.234
293.15	0.01006	804.217	0.233
293.15	0.01526	804.599	0.232
293.15	0.02043	804.977	0.232
293.15	0.02524	805.33	0.232
293.15	0.03024	805.698	0.232
293.15	0.03749	806.23	0.232
293.15	0.05294	807.354	0.231
293.15	0.06813	808.443	0.231
293.15	0.0867	809.793	0.231
293.15	0.1076	811.298	0.23
293.15	0.1375	813.485	0.23
293.15	0.1743	816.159	0.229
293.15	0.2115	818.864	0.229
293.15	0.2447	821.3	0.229
293.15	0.2873	824.437	0.229
293.15	0.3248	827.205	0.229
298.15	0	799.452	0.237
298.15	0.008229	800.075	0.238
298.15	0.01006	800.212	0.236
298.15	0.01526	800.599	0.235
298.15	0.02043	800.981	0.235
298.15	0.02524	801.34	0.235
298.15	0.03024	801.705	0.235
298.15	0.03749	802.24	0.235
298.15	0.05294	803.369	0.234
298.15	0.06813	804.463	0.234
298.15	0.0867	805.818	0.233
298.15	0.1076	807.331	0.233
298.15	0.1375	809.531	0.233
298.15	0.1743	812.214	0.232
298.15	0.2115	814.928	0.232
298.15	0.2447	817.377	0.232
298.15	0.2873	820.523	0.232
298.15	0.3248	823.305	0.231
303.15	0	795.414	0.24
303.15	0.008229	796.04	0.241
303.15	0.01006	796.179	0.239
303.15	0.01526	796.569	0.239
303.15	0.02043	796.957	0.238
303.15	0.02524	797.315	0.238
303.15	0.03024	797.688	0.238
303.15	0.03749	798.225	0.238
303.15	0.05294	799.354	0.237
303.15	0.06813	800.458	0.237
303.15	0.0867	801.819	0.236
303.15	0.1076	803.338	0.236
303.15	0.1375	805.541	0.236
303.15	0.1743	808.243	0.235
303.15	0.2115	810.97	0.235
303.15	0.2447	813.431	0.235
303.15	0.2873	816.588	0.234
303.15	0.3248	819.382	0.234
308.15	0	791.344	0.243
308.15	0.008229	791.98	0.245
308.15	0.01006	792.12	0.242
308.15	0.01526	792.51	0.242
308.15	0.02043	792.896	0.241
308.15	0.02524	793.259	0.241
308.15	0.03024	793.626	0.241
308.15	0.03749	794.174	0.241
308.15	0.05294	795.307	0.24
308.15	0.06813	796.411	0.24
308.15	0.0867	797.792	0.24
308.15	0.1076	799.313	0.239
308.15	0.1375	801.524	0.239
308.15	0.1743	804.242	0.238
308.15	0.2115	806.982	0.238
308.15	0.2447	809.45	0.238
308.15	0.2873	812.63	0.237
308.15	0.3248	815.432	0.237
313.15	0	787.227	0.247
313.15	0.008229	787.867	0.251
313.15	0.01006	788.009	0.246
313.15	0.01526	788.405	0.245
313.15	0.02043	788.788	0.245
313.15	0.02524	789.158	0.245
313.15	0.03024	789.53	0.244
313.15	0.03749	790.075	0.244
313.15	0.05294	791.221	0.243
313.15	0.06813	792.34	0.243
313.15	0.0867	793.72	0.243
313.15	0.1076	795.248	0.242
313.15	0.1375	797.479	0.242
313.15	0.1743	800.208	0.241
313.15	0.2115	802.96	0.241
313.15	0.2447	805.445	0.241
313.15	0.2873	808.638	0.24
313.15	0.3248	811.451	0.24
323.15	0	778.86	0.252
323.15	0.008229	779.506	0.252
323.15	0.01006	779.649	0.252
323.15	0.01526	780.051	0.251
323.15	0.02043	780.443	0.251
323.15	0.02524	780.808	0.251
323.15	0.03024	781.191	0.251
323.15	0.03749	781.741	0.25
323.15	0.05294	782.905	0.25
323.15	0.06813	784.043	0.249
323.15	0.0867	785.44	0.249
323.15	0.1076	786.995	0.249
323.15	0.1375	789.244	0.248
323.15	0.1743	792.006	0.247
323.15	0.2115	794.787	0.247
323.15	0.2447	797.302	0.247
323.15	0.2873	800.526	0.246
323.15	0.3248	803.369	0.246

System: butan-1-ol + tetrabutylphosphonium bromide; phases: Liquid
Fixed: Pressure, kPa = 101
Fixed: Temperature, K = 298.15
Property: Speed of sound, m/s (Liquid); method: Pulse-echo method
Molality, mol/kg of tetrabutylphosphonium bromide	Speed of sound, m/s	uncertainty
0.01936	1240.12	0.84
0.0369	1241.03	0.84
0.05364	1242.05	0.84
0.07129	1243.05	0.84
0.09251	1244.11	0.85
0.1101	1245.14	0.85
0.1395	1246.69	0.86
0.1776	1248.76	0.87
0.218	1251.11	0.87
0.2537	1252.93	0.88
0.2955	1255.28	0.89
0.3323	1257.12	0.9

System: butan-1-ol + tetrabutylphosphonium bromide; phases: Liquid
Fixed: Pressure, kPa = 101
Property: Mass density, kg/m3 (Liquid); method: VIBTUB:UFactor:2
Temperature, K	Molality, mol/kg of tetrabutylphosphonium bromide	Mass density, kg/m3	uncertainty
288.15	0	813.269	0.225
288.15	0.009722	813.972	0.225
288.15	0.01455	814.314	0.224
288.15	0.01936	814.655	0.224
288.15	0.0242	814.996	0.224
288.15	0.02918	815.348	0.224
288.15	0.0369	815.894	0.224
288.15	0.05364	817.07	0.224
288.15	0.07129	818.321	0.223
288.15	0.09251	819.818	0.223
288.15	0.1101	821.058	0.223
288.15	0.1395	823.126	0.222
288.15	0.1776	825.836	0.222
288.15	0.218	828.688	0.222
288.15	0.2537	831.238	0.222
288.15	0.2955	834.232	0.222
288.15	0.3323	836.873	0.222
293.15	0	809.472	0.228
293.15	0.009722	810.179	0.228
293.15	0.01455	810.525	0.227
293.15	0.01936	810.867	0.227
293.15	0.0242	811.209	0.227
293.15	0.02918	811.563	0.227
293.15	0.0369	812.109	0.227
293.15	0.05364	813.293	0.226
293.15	0.07129	814.549	0.226
293.15	0.09251	816.049	0.226
293.15	0.1101	817.297	0.225
293.15	0.1395	819.37	0.225
293.15	0.1776	822.089	0.225
293.15	0.218	824.949	0.224
293.15	0.2537	827.51	0.224
293.15	0.2955	830.511	0.224
293.15	0.3323	833.16	0.224
298.15	0	805.659	0.231
298.15	0.009722	806.37	0.231
298.15	0.01455	806.716	0.23
298.15	0.01936	807.061	0.23
298.15	0.0242	807.404	0.23
298.15	0.02918	807.767	0.232
298.15	0.0369	808.382	0.229
298.15	0.05364	809.495	0.229
298.15	0.07129	810.756	0.229
298.15	0.09251	812.265	0.229
298.15	0.1101	813.514	0.228
298.15	0.1395	815.598	0.228
298.15	0.1776	818.326	0.228
298.15	0.218	821.197	0.227
298.15	0.2537	823.765	0.227
298.15	0.2955	826.778	0.227
298.15	0.3323	829.434	0.227
303.15	0	801.817	0.234
303.15	0.009722	802.533	0.234
303.15	0.01455	802.882	0.233
303.15	0.01936	803.227	0.233
303.15	0.0242	803.574	0.233
303.15	0.02918	803.93	0.233
303.15	0.0369	804.48	0.232
303.15	0.05364	805.673	0.232
303.15	0.07129	806.941	0.232
303.15	0.09251	808.455	0.231
303.15	0.1101	809.71	0.231
303.15	0.1395	811.804	0.231
303.15	0.1776	814.54	0.23
303.15	0.218	817.424	0.23
303.15	0.2537	820.001	0.23
303.15	0.2955	823.022	0.23
303.15	0.3323	825.687	0.229
308.15	0	797.945	0.237
308.15	0.009722	798.665	0.236
308.15	0.01455	799.017	0.236
308.15	0.01936	799.366	0.236
308.15	0.0242	799.712	0.236
308.15	0.02918	800.07	0.236
308.15	0.0369	800.621	0.235
308.15	0.05364	801.825	0.235
308.15	0.07129	803.095	0.235
308.15	0.09251	804.62	0.234
308.15	0.1101	805.879	0.234
308.15	0.1395	807.981	0.234
308.15	0.1776	810.729	0.233
308.15	0.218	813.625	0.233
308.15	0.2537	816.21	0.233
308.15	0.2955	819.242	0.232
308.15	0.3323	821.922	0.232
313.15	0	794.037	0.241
313.15	0.009722	794.76	0.239
313.15	0.01455	795.113	0.239
313.15	0.01936	795.464	0.239
313.15	0.0242	795.815	0.239
313.15	0.02918	796.175	0.239
313.15	0.0369	796.727	0.239
313.15	0.05364	797.943	0.238
313.15	0.07129	799.213	0.238
313.15	0.09251	800.743	0.237
313.15	0.1101	802.009	0.237
313.15	0.1395	804.127	0.237
313.15	0.1776	806.888	0.236
313.15	0.218	809.794	0.236
313.15	0.2537	812.388	0.235
313.15	0.2955	815.431	0.235
313.15	0.3323	818.127	0.235
323.15	0	786.081	0.246
323.15	0.009722	786.817	0.246
323.15	0.01455	787.175	0.245
323.15	0.01936	787.531	0.245
323.15	0.0242	787.89	0.245
323.15	0.02918	788.253	0.244
323.15	0.0369	788.815	0.244
323.15	0.05364	790.046	0.244
323.15	0.07129	791.333	0.244
323.15	0.09251	792.887	0.243
323.15	0.1101	794.162	0.243
323.15	0.1395	796.295	0.242
323.15	0.1776	799.08	0.242
323.15	0.218	802.026	0.241
323.15	0.2537	804.641	0.241
323.15	0.2955	807.714	0.241
323.15	0.3323	810.433	0.241

System: acetone + tetrabutylphosphonium bromide; phases: Liquid
Fixed: Pressure, kPa = 101
Fixed: Temperature, K = 298.15
Property: Speed of sound, m/s (Liquid); method: Pulse-echo method
Molality, mol/kg of tetrabutylphosphonium bromide	Speed of sound, m/s	uncertainty
0.009972	1161.12	0.81
0.01959	1161.78	0.81
0.03385	1162.7	0.82
0.04786	1163.63	0.82
0.0619	1164.55	0.82
0.07794	1165.66	0.82
0.09642	1166.79	0.83
0.123	1168.38	0.83
0.1559	1170.43	0.84
0.1912	1172.71	0.85
0.2209	1174.32	0.85
0.2576	1176.62	0.86
0.2914	1178.69	0.87

System: acetone + tetrabutylphosphonium bromide; phases: Liquid
Fixed: Pressure, kPa = 101
Property: Mass density, kg/m3 (Liquid); method: VIBTUB:UFactor:2
Temperature, K	Molality, mol/kg of tetrabutylphosphonium bromide	Mass density, kg/m3	uncertainty
288.15	0	795.633	0.243
288.15	0.009972	796.516	0.243
288.15	0.01477	796.926	0.242
288.15	0.01959	797.328	0.241
288.15	0.02424	797.711	0.241
288.15	0.02891	798.099	0.241
288.15	0.03385	798.51	0.24
288.15	0.04786	799.673	0.24
288.15	0.0619	800.822	0.239
288.15	0.07794	802.136	0.239
288.15	0.09642	803.646	0.238
288.15	0.123	805.822	0.238
288.15	0.1559	808.487	0.237
288.15	0.1912	811.381	0.237
288.15	0.2209	813.828	0.236
288.15	0.2576	816.813	0.235
288.15	0.2914	819.596	0.235
293.15	0	789.952	0.248
293.15	0.009972	790.843	0.247
293.15	0.01477	791.257	0.246
293.15	0.01959	791.666	0.245
293.15	0.02424	792.056	0.245
293.15	0.02891	792.447	0.245
293.15	0.03385	792.86	0.245
293.15	0.04786	794.037	0.244
293.15	0.0619	795.195	0.244
293.15	0.07794	796.525	0.243
293.15	0.09642	798.046	0.243
293.15	0.123	800.247	0.242
293.15	0.1559	802.938	0.241
293.15	0.1912	805.858	0.241
293.15	0.2209	808.333	0.24
293.15	0.2576	811.345	0.239
293.15	0.2914	814.151	0.239
298.15	0	784.234	0.253
298.15	0.009972	785.133	0.252
298.15	0.01477	785.552	0.25
298.15	0.01959	785.967	0.25
298.15	0.02424	786.362	0.25
298.15	0.02891	786.758	0.249
298.15	0.03385	787.178	0.249
298.15	0.04786	788.362	0.249
298.15	0.0619	789.537	0.248
298.15	0.07794	790.878	0.247
298.15	0.09642	792.414	0.247
298.15	0.123	794.64	0.246
298.15	0.1559	797.356	0.245
298.15	0.1912	800.306	0.245
298.15	0.2209	802.798	0.244
298.15	0.2576	805.845	0.244
298.15	0.2914	808.679	0.243
303.15	0	778.47	0.258
303.15	0.009972	779.385	0.256
303.15	0.01477	779.806	0.255
303.15	0.01959	780.225	0.254
303.15	0.02424	780.624	0.254
303.15	0.02891	781.026	0.254
303.15	0.03385	781.451	0.254
303.15	0.04786	782.648	0.253
303.15	0.0619	783.836	0.252
303.15	0.07794	785.191	0.252
303.15	0.09642	786.74	0.251
303.15	0.123	788.995	0.251
303.15	0.1559	791.736	0.25
303.15	0.1912	794.713	0.249
303.15	0.2209	797.229	0.248
303.15	0.2576	800.309	0.248
303.15	0.2914	803.169	0.247
308.15	0	772.661	0.262
308.15	0.009972	773.586	0.261
308.15	0.01477	774.015	0.26
308.15	0.01959	774.439	0.259
308.15	0.02424	774.841	0.259
308.15	0.02891	775.247	0.258
308.15	0.03385	775.678	0.258
308.15	0.04786	776.885	0.257
308.15	0.0619	778.088	0.257
308.15	0.07794	779.457	0.256
308.15	0.09642	781.022	0.255
308.15	0.123	783.255	0.255
308.15	0.1559	786.072	0.254
308.15	0.1912	789.077	0.253
308.15	0.2209	791.622	0.253
308.15	0.2576	794.734	0.252
308.15	0.2914	797.619	0.251
313.15	0	766.799	0.266
313.15	0.009972	767.735	0.265
313.15	0.01477	768.169	0.264
313.15	0.01959	768.597	0.263
313.15	0.02424	769.006	0.263
313.15	0.02891	769.416	0.263
313.15	0.03385	769.85	0.263
313.15	0.04786	771.075	0.262
313.15	0.0619	772.29	0.261
313.15	0.07794	773.675	0.261
313.15	0.09642	775.257	0.26
313.15	0.123	777.557	0.259
313.15	0.1559	780.36	0.258
313.15	0.1912	783.39	0.258
313.15	0.2209	785.97	0.257
313.15	0.2576	789.113	0.256
313.15	0.2914	792.03	0.256

System: acetonitrile + tetrabutylphosphonium bromide; phases: Liquid
Fixed: Pressure, kPa = 101
Fixed: Temperature, K = 298.15
Property: Speed of sound, m/s (Liquid); method: Pulse-echo method
Molality, mol/kg of tetrabutylphosphonium bromide	Speed of sound, m/s	uncertainty
0.03974	1280.09	0.85
0.04929	1280.5	0.85
0.06938	1281.39	0.86
0.08849	1282.24	0.86
0.1338	1284.11	0.87
0.1671	1285.61	0.87
0.1987	1287	0.88
0.2296	1288.3	0.89
0.2599	1289.51	0.89
0.2925	1290.82	0.9
0.3259	1292.25	0.91

System: acetonitrile + tetrabutylphosphonium bromide; phases: Liquid
Fixed: Pressure, kPa = 101
Property: Mass density, kg/m3 (Liquid); method: VIBTUB:UFactor:2
Temperature, K	Molality, mol/kg of tetrabutylphosphonium bromide	Mass density, kg/m3	uncertainty
288.15	0	787.275	0.248
288.15	0.007874	787.927	0.247
288.15	0.01066	788.155	0.247
288.15	0.01465	788.477	0.247
288.15	0.01965	788.885	0.246
288.15	0.02448	789.275	0.246
288.15	0.0297	789.7	0.246
288.15	0.03509	790.132	0.246
288.15	0.03974	790.506	0.246
288.15	0.04929	791.273	0.245
288.15	0.06938	792.879	0.245
288.15	0.08849	794.411	0.244
288.15	0.1056	795.783	0.244
288.15	0.1224	797.155	0.244
288.15	0.1338	798.088	0.243
288.15	0.1414	798.688	0.243
288.15	0.1504	799.412	0.243
288.15	0.1671	800.758	0.243
288.15	0.1811	801.879	0.242
288.15	0.1987	803.297	0.242
288.15	0.2296	805.781	0.242
288.15	0.2599	808.22	0.241
288.15	0.2925	810.865	0.241
288.15	0.3259	813.591	0.241
293.15	0	781.893	0.252
293.15	0.007874	782.552	0.251
293.15	0.01066	782.783	0.251
293.15	0.01465	783.109	0.251
293.15	0.01965	783.521	0.25
293.15	0.02448	783.912	0.25
293.15	0.0297	784.34	0.25
293.15	0.03509	784.784	0.25
293.15	0.03974	785.156	0.25
293.15	0.04929	785.93	0.249
293.15	0.06938	787.551	0.249
293.15	0.08849	789.095	0.248
293.15	0.1056	790.48	0.248
293.15	0.1224	791.858	0.248
293.15	0.1338	792.8	0.247
293.15	0.1414	793.405	0.247
293.15	0.1504	794.136	0.247
293.15	0.1671	795.492	0.246
293.15	0.1811	796.621	0.246
293.15	0.1987	798.049	0.246
293.15	0.2296	800.553	0.245
293.15	0.2599	803.012	0.245
293.15	0.2925	805.677	0.245
293.15	0.3259	808.424	0.244
298.15	0	776.493	0.256
298.15	0.007874	777.157	0.255
298.15	0.01066	777.389	0.255
298.15	0.01465	777.721	0.255
298.15	0.01965	778.136	0.255
298.15	0.02448	778.532	0.254
298.15	0.0297	778.965	0.254
298.15	0.03509	779.405	0.254
298.15	0.03974	779.78	0.254
298.15	0.04929	780.567	0.254
298.15	0.06938	782.208	0.253
298.15	0.08849	783.76	0.252
298.15	0.1056	785.156	0.252
298.15	0.1224	786.545	0.252
298.15	0.1338	787.494	0.251
298.15	0.1414	788.102	0.251
298.15	0.1504	788.839	0.251
298.15	0.1671	790.206	0.251
298.15	0.1811	791.346	0.25
298.15	0.1987	792.784	0.25
298.15	0.2296	795.309	0.249
298.15	0.2599	797.78	0.249
298.15	0.2925	800.473	0.249
298.15	0.3259	803.241	0.248
303.15	0	771.067	0.261
303.15	0.007874	771.738	0.26
303.15	0.01066	771.974	0.259
303.15	0.01465	772.308	0.259
303.15	0.01965	772.724	0.259
303.15	0.02448	773.125	0.259
303.15	0.0297	773.559	0.258
303.15	0.03509	774.005	0.258
303.15	0.03974	774.389	0.258
303.15	0.04929	775.178	0.258
303.15	0.06938	776.834	0.257
303.15	0.08849	778.399	0.256
303.15	0.1056	779.812	0.256
303.15	0.1224	781.208	0.256
303.15	0.1338	782.156	0.255
303.15	0.1414	782.773	0.255
303.15	0.1504	783.514	0.255
303.15	0.1671	784.9	0.255
303.15	0.1811	786.047	0.254
303.15	0.1987	787.498	0.254
303.15	0.2296	790.042	0.253
303.15	0.2599	792.541	0.253
303.15	0.2925	795.247	0.253
303.15	0.3259	798.038	0.252
308.15	0	765.61	0.265
308.15	0.007874	766.288	0.264
308.15	0.01066	766.524	0.264
308.15	0.01465	766.862	0.263
308.15	0.01965	767.283	0.263
308.15	0.02448	767.689	0.263
308.15	0.0297	768.128	0.263
308.15	0.03509	768.58	0.262
308.15	0.03974	768.965	0.262
308.15	0.04929	769.76	0.262
308.15	0.06938	771.429	0.261
308.15	0.08849	773.011	0.261
308.15	0.1056	774.43	0.26
308.15	0.1224	775.841	0.26
308.15	0.1338	776.78	0.259
308.15	0.1414	777.428	0.259
308.15	0.1504	778.17	0.259
308.15	0.1671	779.563	0.259
308.15	0.1811	780.72	0.258
308.15	0.1987	782.184	0.258
308.15	0.2296	784.751	0.257
308.15	0.2599	787.27	0.257
308.15	0.2925	789.997	0.256
308.15	0.3259	792.811	0.256
313.15	0	760.119	0.27
313.15	0.007874	760.805	0.268
313.15	0.01066	761.045	0.268
313.15	0.01465	761.385	0.268
313.15	0.01965	761.811	0.267
313.15	0.02448	762.22	0.267
313.15	0.0297	762.662	0.267
313.15	0.03509	763.119	0.266
313.15	0.03974	763.508	0.266
313.15	0.04929	764.31	0.266
313.15	0.06938	765.995	0.265
313.15	0.08849	767.591	0.265
313.15	0.1056	769.023	0.264
313.15	0.1224	770.445	0.264
313.15	0.1338	771.4	0.264
313.15	0.1414	772.045	0.263
313.15	0.1504	772.795	0.263
313.15	0.1671	774.2	0.263
313.15	0.1811	775.365	0.262
313.15	0.1987	776.843	0.262
313.15	0.2296	779.433	0.261
313.15	0.2599	781.973	0.261
313.15	0.2925	784.72	0.26
313.15	0.3259	787.558	0.26
323.15	0	749.031	0.277
323.15	0.007874	749.733	0.277
323.15	0.01066	749.978	0.276
323.15	0.01465	750.325	0.276
323.15	0.01965	750.761	0.276
323.15	0.02448	751.178	0.276
323.15	0.0297	751.631	0.275
323.15	0.03509	752.095	0.275
323.15	0.03974	752.488	0.275
323.15	0.04929	753.307	0.274
323.15	0.06938	755.023	0.274
323.15	0.08849	756.649	0.273
323.15	0.1056	758.107	0.273
323.15	0.1224	759.553	0.272
323.15	0.1338	760.532	0.272
323.15	0.1414	761.174	0.272
323.15	0.1504	761.945	0.271
323.15	0.1671	763.372	0.271
323.15	0.1811	764.561	0.271
323.15	0.1987	766.064	0.27
323.15	0.2296	768.697	0.269
323.15	0.2599	771.277	0.269
323.15	0.2925	774.075	0.268
323.15	0.3259	776.962	0.268
