Measured thermophysical data. sobaric Vapor-Liquid Equilibria for Binary and Ternary Mixtures of Diisopropyl Ether, 2-Propyl Alcohol, and n-Butyl Propionate at 101.3 kPa
Source: J. Chem. Eng. Data, 2009, 10.1021/je900042q
Compound 1: diisopropyl ether, C6H14O, InChI=1S/C6H14O/c1-5(2)7-6(3)4/h5-6H,1-4H3, purity 99%
Compound 2: propan-2-ol, C3H8O, InChI=1S/C3H8O/c1-3(2)4/h3-4H,1-2H3, purity 99.8%
Compound 3: butyl propanoate, C7H14O2, InChI=1S/C7H14O2/c1-3-5-6-9-7(8)4-2/h3-6H2,1-2H3, purity 99%

System: diisopropyl ether; phases: Liquid
Property: Refractive index (Na D-line) (Liquid); method: Standard Abbe refractometry
Temperature, K	Pressure, kPa	Refractive index (Na D-line)	uncertainty
298.15	101.325	1.3652	0.0005

System: diisopropyl ether; phases: Liquid
Property: Mass density, kg/m3 (Liquid); method: VIBTUB:UFactor:6
Temperature, K	Pressure, kPa	Mass density, kg/m3	uncertainty
298.15	101.325	718.32	0.96

System: diisopropyl ether; phases: Liquid, Gas
Property: Vapor or sublimation pressure, kPa (Liquid); method: Ebulliometric method (Recirculating still)
Temperature, K	Vapor or sublimation pressure, kPa	uncertainty
341.49	101.3	0.3

System: propan-2-ol; phases: Liquid
Property: Refractive index (Na D-line) (Liquid); method: Standard Abbe refractometry
Temperature, K	Pressure, kPa	Refractive index (Na D-line)	uncertainty
298.15	101.325	1.3754	0.0005

System: propan-2-ol; phases: Liquid
Property: Mass density, kg/m3 (Liquid); method: VIBTUB:UFactor:2
Temperature, K	Pressure, kPa	Mass density, kg/m3	uncertainty
298.15	101.325	782.69	0.24

System: propan-2-ol; phases: Liquid, Gas
Property: Vapor or sublimation pressure, kPa (Liquid); method: Ebulliometric method (Recirculating still)
Temperature, K	Vapor or sublimation pressure, kPa	uncertainty
355.35	101.3	0.2

System: butyl propanoate; phases: Liquid
Property: Refractive index (Na D-line) (Liquid); method: Standard Abbe refractometry
Temperature, K	Pressure, kPa	Refractive index (Na D-line)	uncertainty
298.15	101.325	1.3992	0.0005

System: butyl propanoate; phases: Liquid
Property: Mass density, kg/m3 (Liquid); method: VIBTUB:UFactor:6
Temperature, K	Pressure, kPa	Mass density, kg/m3	uncertainty
298.15	101.325	870.88	0.65

System: butyl propanoate; phases: Liquid, Gas
Property: Vapor or sublimation pressure, kPa (Liquid); method: Ebulliometric method (Recirculating still)
Temperature, K	Vapor or sublimation pressure, kPa	uncertainty
418.69	101.3	0.3

System: diisopropyl ether + butyl propanoate; phases: Liquid, Gas
Fixed: Pressure, kPa = 101.3
Property: Boiling temperature at pressure P, K (Liquid); method: Ebulliometric method (Recirculating still)
Mole fraction of diisopropyl ether	Boiling temperature at pressure P, K	uncertainty
0	418.69	0.1
0.252	410.65	0.12
0.424	402.95	0.14
0.568	395.6	0.15
0.672	388.73	0.17
0.738	383.55	0.2
0.797	378.16	0.21
0.84	373.79	0.25
0.878	368.97	0.28
0.9	365.89	0.35
0.918	362.25	0.4
0.941	357.99	0.39
0.958	354.63	0.46
0.969	351.7	0.55
0.978	349.23	0.61
0.984	347.16	0.68
0.99	345.18	0.66
0.994	343.88	0.75
0.996	342.69	0.75
1	341.49	0.1

System: diisopropyl ether + butyl propanoate; phases: Liquid, Gas
Fixed: Pressure, kPa = 101.3
Property: Mole fraction of diisopropyl ether (Liquid); method: Chromatography
Mole fraction of diisopropyl ether	Mole fraction of diisopropyl ether	uncertainty
0	0	0.001
0.252	0.041	0.002
0.424	0.082	0.002
0.568	0.13	0.002
0.672	0.181	0.003
0.738	0.227	0.003
0.797	0.279	0.003
0.84	0.324	0.004
0.878	0.383	0.005
0.9	0.433	0.006
0.918	0.484	0.008
0.941	0.561	0.008
0.958	0.633	0.01
0.969	0.699	0.013
0.978	0.762	0.016
0.984	0.818	0.019
0.99	0.872	0.019
0.994	0.913	0.026
0.996	0.952	0.026
1	1	0.001

System: propan-2-ol + butyl propanoate; phases: Liquid, Gas
Fixed: Pressure, kPa = 101.3
Property: Boiling temperature at pressure P, K (Liquid); method: Ebulliometric method (Recirculating still)
Mole fraction of propan-2-ol	Boiling temperature at pressure P, K	uncertainty
0	418.69	0.09
0.229	411.37	0.12
0.43	402.72	0.13
0.572	394.81	0.15
0.671	388.02	0.17
0.726	383.7	0.19
0.788	378.51	0.2
0.828	374.35	0.23
0.861	370.96	0.23
0.886	368.1	0.26
0.9	366.24	0.28
0.916	364.2	0.25
0.931	362.59	0.25
0.941	361.23	0.27
0.951	360.07	0.26
0.959	359.04	0.25
0.968	358.1	0.22
0.977	357.24	0.22
0.984	356.48	0.21
0.992	355.79	0.17
1	355.35	0.09

System: propan-2-ol + butyl propanoate; phases: Liquid, Gas
Fixed: Pressure, kPa = 101.3
Property: Mole fraction of propan-2-ol (Liquid); method: Chromatography
Mole fraction of propan-2-ol	Mole fraction of propan-2-ol	uncertainty
0	0	0.001
0.229	0.027	0.002
0.43	0.066	0.002
0.572	0.11	0.002
0.671	0.161	0.003
0.726	0.202	0.003
0.788	0.265	0.004
0.828	0.326	0.005
0.861	0.389	0.006
0.886	0.454	0.007
0.9	0.506	0.009
0.916	0.574	0.009
0.931	0.637	0.01
0.941	0.696	0.012
0.951	0.75	0.012
0.959	0.801	0.012
0.968	0.849	0.011
0.977	0.894	0.011
0.984	0.935	0.011
0.992	0.972	0.008
1	1	0.001

System: propan-2-ol + diisopropyl ether + butyl propanoate; phases: Gas, Liquid
Fixed: Pressure, kPa = 101.3
Property: Mole fraction of propan-2-ol (Gas); method: Chromatography
Property: Mole fraction of propan-2-ol (Liquid); method: Chromatography
Property: Mole fraction of diisopropyl ether (Liquid); method: Chromatography
Temperature, K	Mole fraction of diisopropyl ether	Mole fraction of propan-2-ol	uncertainty	Mole fraction of propan-2-ol	uncertainty	Mole fraction of diisopropyl ether	uncertainty
340.7	0.75	0.248	0.003	0.269	0.003	0.688	
341.71	0.914	0.083	0.002	0.056	0.002	0.895	
341.73	0.639	0.359	0.004	0.51	0.004	0.465	
342.56	0.706	0.287	0.003	0.318	0.003	0.59	
342.78	0.85	0.143	0.002	0.106	0.002	0.793	
344.56	0.578	0.415	0.004	0.549	0.004	0.367	
344.83	0.512	0.485	0.005	0.703	0.003	0.266	
345.51	0.651	0.336	0.004	0.35	0.003	0.481	
346.24	0.839	0.144	0.002	0.1	0.002	0.702	
346.41	0.741	0.242	0.003	0.198	0.003	0.586	
347.13	0.577	0.408	0.004	0.441	0.004	0.374	
348.35	0.493	0.491	0.005	0.559	0.004	0.274	
348.96	0.383	0.608	0.004	0.754	0.003	0.162	
349.48	0.676	0.298	0.003	0.234	0.003	0.474	
350.3	0.59	0.383	0.004	0.326	0.003	0.376	
351.5	0.481	0.492	0.005	0.44	0.004	0.272	
351.78	0.37	0.607	0.004	0.623	0.003	0.173	
352.32	0.222	0.765	0.003	0.844	0.002	0.076	
354	0.111	0.88	0.002	0.919	0.002	0.033	
354.28	0.628	0.328	0.004	0.216	0.003	0.374	
354.58	0.369	0.596	0.004	0.501	0.004	0.18	
354.73	0.506	0.453	0.005	0.326	0.003	0.277	
354.77	0.762	0.192	0.003	0.109	0.002	0.478	
354.87	0.193	0.782	0.003	0.751	0.003	0.073	
355.06	0.879	0.077	0.002	0.041	0.002	0.566	
