Measured thermophysical data. p?Tx-Property Measurements Near Saturation in the Gaseous Phase for Propane + Isobutane
Source: J. Chem. Eng. Data, 2009, 10.1021/je900244c
Compound 1: propane, C3H8, InChI=1S/C3H8/c1-3-2/h3H2,1-2H3, purity 99.99%
Compound 2: 2-methylpropane, C4H10, InChI=1S/C4H10/c1-4(2)3/h4H,1-3H3, purity 99.99%

System: propane + 2-methylpropane; phases: Gas
Property: Mass density, kg/m3 (Gas); method: Buoyancy - hydrostatic balance with magnetic suspension - two sinkers
Mole fraction of propane	Temperature, K	Pressure, kPa	Mass density, kg/m3	uncertainty
0.244	323.15	590.1	13.582	0.042
0.244	323.15	600.1	13.847	0.043
0.244	323.15	609.5	14.1	0.043
0.244	323.15	620.5	14.391	0.043
0.244	323.15	629.7	14.643	0.044
0.244	323.15	630.5	14.658	0.043
0.244	323.15	640.7	14.937	0.044
0.244	323.15	650.3	15.201	0.044
0.244	323.15	651.3	15.223	0.044
0.244	323.15	660.6	15.487	0.044
0.244	323.15	670	15.744	0.045
0.244	323.15	679.7	16.015	0.045
0.244	323.15	690.2	16.31	0.045
0.244	323.15	691.1	16.328	0.045
0.244	323.15	700.1	16.592	0.046
0.244	323.15	709.8	16.868	0.046
0.244	323.15	710.3	16.875	0.046
0.244	323.15	720.6	17.177	0.047
0.244	323.15	730.4	17.456	0.047
0.244	323.15	730.5	17.456	0.047
0.244	323.15	740.4	17.75	0.048
0.244	323.15	749.8	18.022	0.048
0.244	323.15	750.2	18.029	0.048
0.244	323.15	761.2	18.357	0.048
0.244	323.15	769.7	18.602	0.049
0.244	323.15	790.6	19.228	0.05
0.244	323.15	670	15.744	0.045
0.249	323.15	600.6	13.833	0.042
0.249	323.15	600.7	13.848	0.042
0.249	323.15	610.4	14.09	0.042
0.249	323.15	620.1	14.354	0.044
0.249	323.15	620.7	14.369	0.044
0.249	323.15	630.3	14.633	0.043
0.249	323.15	630.5	14.64	0.043
0.249	323.15	640.1	14.889	0.044
0.249	323.15	640.9	14.923	0.044
0.249	323.15	650.1	15.168	0.044
0.249	323.15	660	15.436	0.044
0.249	323.15	660.1	15.447	0.045
0.249	323.15	670	15.714	0.045
0.249	323.15	670.1	15.719	0.045
0.249	323.15	680.3	15.998	0.045
0.249	323.15	680.4	16.006	0.045
0.249	323.15	690.2	16.277	0.046
0.249	323.15	700.3	16.571	0.046
0.249	323.15	700.4	16.571	0.046
0.249	323.15	710	16.835	0.046
0.249	323.15	710.1	16.843	0.046
0.249	323.15	720.3	17.129	0.047
0.249	323.15	720.4	17.137	0.047
0.249	323.15	730	17.416	0.047
0.249	323.15	730.3	17.408	0.047
0.249	323.15	739.8	17.687	0.047
0.249	323.15	740	17.697	0.047
0.249	323.15	750	17.989	0.048
0.249	323.15	759.7	18.276	0.048
0.249	323.15	759.9	18.276	0.048
0.249	323.15	769.9	18.577	0.049
0.249	323.15	770	18.577	0.049
0.249	323.15	780	18.871	0.05
0.249	323.15	780.5	18.894	0.05
0.249	323.15	799.9	19.467	0.051
0.249	323.15	650.1	15.168	0.044
0.249	323.15	690.2	16.285	0.046
0.249	323.15	750	17.996	0.048
0.499	323.15	770.4	16.983	0.049
0.499	323.15	770.7	16.982	0.049
0.499	323.15	780.2	17.239	0.049
0.499	323.15	780.3	17.244	0.049
0.499	323.15	790.6	17.513	0.05
0.499	323.15	800.2	17.765	0.051
0.499	323.15	810.5	18.042	0.051
0.499	323.15	820.2	18.299	0.051
0.499	323.15	820.4	18.307	0.051
0.499	323.15	830.3	18.572	0.052
0.499	323.15	840.3	18.844	0.052
0.499	323.15	840.4	18.848	0.052
0.499	323.15	850.3	19.121	0.052
0.499	323.15	860.2	19.387	0.052
0.499	323.15	860.4	19.398	0.052
0.499	323.15	870.4	19.669	0.053
0.499	323.15	879.9	19.938	0.053
0.499	323.15	880.4	19.948	0.053
0.499	323.15	890.2	20.228	0.053
0.499	323.15	900.1	20.506	0.053
0.499	323.15	900.6	20.517	0.053
0.499	323.15	910.1	20.784	0.053
0.499	323.15	920.3	21.078	0.053
0.499	323.15	920.6	21.087	0.053
0.499	323.15	930.3	21.359	0.053
0.499	323.15	939.7	21.637	0.053
0.499	323.15	939.8	21.635	0.053
0.499	323.15	950.6	21.949	0.053
0.499	323.15	960.2	22.222	0.053
0.499	323.15	960.3	22.242	0.052
0.499	323.15	970.3	22.521	0.052
0.499	323.15	978.9	22.767	0.052
0.499	323.15	979.6	22.791	0.052
0.499	323.15	800.2	17.769	0.051
0.503	303.15	440.3	9.824	0.035
0.503	303.15	440.7	9.834	0.035
0.503	303.15	449.9	10.061	0.036
0.503	303.15	450	10.069	0.036
0.503	303.15	460	10.317	0.036
0.503	303.15	460.4	10.325	0.036
0.503	303.15	470.2	10.57	0.037
0.503	303.15	470.5	10.581	0.037
0.503	303.15	480	10.823	0.037
0.503	303.15	480.3	10.83	0.037
0.503	303.15	489.7	11.072	0.037
0.503	303.15	490.4	11.087	0.037
0.503	303.15	500.3	11.344	0.038
0.503	303.15	500.4	11.344	0.037
0.503	303.15	510.3	11.608	0.038
0.503	303.15	510.5	11.6	0.037
0.503	303.15	520.4	11.861	0.038
0.503	303.15	530.4	12.121	0.038
0.503	303.15	530.7	12.129	0.038
0.503	303.15	540.1	12.37	0.038
0.503	303.15	540.2	12.378	0.038
0.503	303.15	550.1	12.642	0.038
0.503	303.15	550.3	12.642	0.038
0.503	303.15	560.3	12.914	0.038
0.503	303.15	564.6	13.019	0.039
0.503	303.15	570.1	13.17	0.039
0.503	303.15	570.4	13.178	0.039
0.503	303.15	575.1	13.306	0.039
0.503	303.15	580.1	13.434	0.039
0.503	303.15	580.7	13.453	0.039
0.503	303.15	584.3	13.548	0.039
0.503	303.15	500.4	11.344	0.037
0.503	303.15	520.4	11.864	0.038
0.503	303.15	540.2	12.378	0.038
0.503	303.15	560.3	12.914	0.038
0.799	303.15	599.9	12.55	0.039
0.799	303.15	600.1	12.557	0.039
0.799	303.15	609.7	12.784	0.039
0.799	303.15	610.2	12.802	0.039
0.799	303.15	620.2	13.04	0.021
0.799	303.15	630.2	13.289	0.04
0.799	303.15	639.7	13.516	0.04
0.799	303.15	649.7	13.757	0.04
0.799	303.15	659.8	14.006	0.04
0.799	303.15	680.1	14.516	0.041
0.799	303.15	700	15.01	0.041
0.799	303.15	720	15.515	0.041
0.799	303.15	739.9	16.028	0.041
0.799	303.15	760.5	16.557	0.041
0.799	303.15	770.4	16.821	0.041
0.799	303.15	779.5	17.055	0.041
0.799	303.15	780.1	17.073	0.024
0.799	303.15	789.8	17.319	0.041
0.799	303.15	790.1	17.342	0.041
0.799	303.15	799.6	17.59	0.041
