Measured thermophysical data. Liquid-Liquid Equilibria for Benzene + Cyclohexane + 1-Butyl-3-methylimidazolium Hexafluorophosphate
Source: J. Chem. Eng. Data, 2010, 10.1021/je900324s
Compound 1: benzene, C6H6, InChI=1S/C6H6/c1-2-4-6-5-3-1/h1-6H, purity 99.5%
Compound 2: cyclohexane, C6H12, InChI=1S/C6H12/c1-2-4-6-5-3-1/h1-6H2, purity 99.5%
Compound 3: 1-butyl-3-methylimidazolium hexafluorophosphate, C8H15F6N2P, InChI=1S/C8H15N2.F6P/c1-3-4-5-10-7-6-9(2)8-10;1-7(2,3,4,5)6/h6-8H,3-5H2,1-2H3;/q+1;-1, purity 98%

System: benzene + cyclohexane + 1-butyl-3-methylimidazolium hexafluorophosphate; phases: Liquid mixture 1, Liquid mixture 2
Fixed: Pressure, kPa = 101
Property: Mole fraction of cyclohexane (Liquid mixture 1); method: Chromatography
Property: Mole fraction of 1-butyl-3-methylimidazolium hexafluorophosphate (Liquid mixture 2); method: Chromatography
Property: Mole fraction of benzene (Liquid mixture 2); method: Chromatography
Temperature, K	Mole fraction of benzene	Mole fraction of cyclohexane	uncertainty	Mole fraction of 1-butyl-3-methylimidazolium hexafluorophosphate	uncertainty	Mole fraction of benzene	uncertainty
298.2	0.0268	0.973	0.002	0.833	0.01	0.0808	
298.2	0.0309	0.969	0.002	0.826	0.01	0.0902	
298.2	0.0388	0.961	0.002	0.81	0.01	0.108	
298.2	0.049	0.951	0.002	0.785	0.01	0.129	
298.2	0.0661	0.934	0.002	0.755	0.01	0.16	
308.2	0.0117	0.988	0.001	0.917	0.01	0.0339	
308.2	0.021	0.979	0.002	0.884	0.01	0.059	
308.2	0.0424	0.958	0.002	0.821	0.01	0.114	
308.2	0.0598	0.94	0.002	0.763	0.01	0.157	
308.2	0.0706	0.929	0.002	0.758	0.01	0.165	
318.2	0.00964	0.99	0.001	0.906	0.01	0.0274	
318.2	0.0134	0.987	0.002	0.858	0.01	0.0449	
318.2	0.0199	0.98	0.002	0.859	0.01	0.0521	
318.2	0.028	0.972	0.002	0.813	0.01	0.0789	
318.2	0.0803	0.92	0.002	0.739	0.01	0.169	
