Measured thermophysical data. Study of Solution Properties of Some Alkali Bromides in Aqueous Binary Mixtures of 1,3-Dioxolane in View of Different Models
Source: J. Chem. Eng. Data, 2010, 10.1021/je900709n
Compound 1: lithium bromide, BrLi, InChI=1S/BrH.Li/h1H;/q;+1/p-1
Compound 2: water, H2O, InChI=1S/H2O/h1H2
Compound 3: sodium bromide, BrNa, InChI=1S/BrH.Na/h1H;/q;+1/p-1
Compound 4: potassium bromide, BrK, InChI=1S/BrH.K/h1H;/q;+1/p-1
Compound 5: 1,3-dioxolane, C3H6O2, InChI=1S/C3H6O2/c1-2-5-3-4-1/h1-3H2

System: 1,3-dioxolane; phases: Liquid, Gas
Property: Normal boiling temperature, K (Liquid); method: Distillation
Normal boiling temperature, K	uncertainty
348	1

System: 1,3-dioxolane; phases: Liquid
Property: Mass density, kg/m3 (Liquid); method: Pycnometric method
Temperature, K	Pressure, kPa	Mass density, kg/m3	uncertainty
298.15	101.325	1058.6	1.2

System: 1,3-dioxolane; phases: Liquid
Property: Viscosity, Pa*s (Liquid); method: Capillary tube (Ostwald; Ubbelohde) method
Temperature, K	Pressure, kPa	Viscosity, Pa*s	uncertainty
298.15	101.325	0.000575	1.2e-05

System: 1,3-dioxolane + lithium bromide + water; phases: Liquid
Fixed: Pressure, kPa = 101
Property: Mass density, kg/m3 (Liquid); method: Pycnometric method
Temperature, K	Solvent: Volume fraction of water	Molality, mol/kg of lithium bromide	Mass density, kg/m3	uncertainty
298.15	0.3	0.009	1054.3	0.8
298.15	0.3	0.0194	1054.9	0.7
298.15	0.3	0.0276	1055.3	0.7
298.15	0.3	0.0363	1055.9	0.7
298.15	0.3	0.0479	1056.7	0.7
298.15	0.3	0.0567	1057.2	0.7
298.15	0.3	0.0671	1057.9	0.7
298.15	0.3	0.0746	1058.4	0.7
308.15	0.3	0.009	1045.6	0.8
308.15	0.3	0.0194	1046.5	0.7
308.15	0.3	0.0276	1047.3	0.7
308.15	0.3	0.0363	1048.2	0.7
308.15	0.3	0.0479	1049.5	0.7
308.15	0.3	0.0567	1050.3	0.7
308.15	0.3	0.0671	1051.3	0.7
308.15	0.3	0.0746	1051.9	0.7
298.15	0.6	0.0126	1040.4	0.7
298.15	0.6	0.017	1040.6	0.7
298.15	0.6	0.0283	1041.3	0.7
298.15	0.6	0.0392	1042	0.7
298.15	0.6	0.0516	1042.7	0.7
298.15	0.6	0.0552	1043.1	0.8
298.15	0.6	0.0681	1043.6	0.7
298.15	0.6	0.077	1044.1	0.9
308.15	0.6	0.0126	1031.6	0.7
308.15	0.6	0.017	1031.8	0.7
308.15	0.6	0.0283	1032.3	0.7
308.15	0.6	0.0392	1032.9	0.7
308.15	0.6	0.0516	1033.5	0.7
308.15	0.6	0.0552	1033.7	0.7
308.15	0.6	0.0681	1034.4	0.7
308.15	0.6	0.077	1035	0.8
298.15	0.9	0.0135	1010	0.7
298.15	0.9	0.019	1010.3	0.7
298.15	0.9	0.0249	1010.9	0.7
298.15	0.9	0.0426	1011.6	0.7
298.15	0.9	0.0488	1011.9	0.7
298.15	0.9	0.0626	1012.5	0.7
298.15	0.9	0.0695	1012.8	0.7
298.15	0.9	0.0786	1013.3	0.7
308.15	0.9	0.0135	1003.9	0.7
308.15	0.9	0.019	1004.2	0.7
308.15	0.9	0.0249	1004.5	0.7
308.15	0.9	0.0426	1005.5	0.7
308.15	0.9	0.0488	1005.9	0.7
308.15	0.9	0.0626	1006.7	0.7
308.15	0.9	0.0695	1007	0.7
308.15	0.9	0.0786	1007.6	0.7
298.15	0.3	0	1049.2	0.9
308.15	0.3	0	1041.1	0.9
298.15	0.6	0	1039.1	0.9
308.15	0.6	0	1030.7	0.9
298.15	0.9	0	1009.2	0.7
308.15	0.9	0	1003.3	0.7

System: 1,3-dioxolane + lithium bromide + water; phases: Liquid
Fixed: Pressure, kPa = 101
Property: Viscosity, Pa*s (Liquid); method: Capillary tube (Ostwald; Ubbelohde) method
Temperature, K	Molality, mol/kg of lithium bromide	Solvent: Volume fraction of water	Viscosity, Pa*s	uncertainty
298.15	0.009	0.3	0.001025	2.2e-05
298.15	0.0194	0.3	0.001034	2.2e-05
298.15	0.0276	0.3	0.001041	2.2e-05
298.15	0.0363	0.3	0.001048	2.2e-05
298.15	0.0479	0.3	0.001059	2.2e-05
298.15	0.0567	0.3	0.001067	2.3e-05
298.15	0.0671	0.3	0.001077	2.3e-05
298.15	0.0746	0.3	0.001087	2.3e-05
308.15	0.009	0.3	0.000932	2e-05
308.15	0.0194	0.3	0.000952	2e-05
308.15	0.0276	0.3	0.000977	2.1e-05
308.15	0.0363	0.3	0.000993	2.1e-05
308.15	0.0479	0.3	0.001024	2.2e-05
308.15	0.0567	0.3	0.001085	2.3e-05
308.15	0.0671	0.3	0.001123	2.4e-05
308.15	0.0746	0.3	0.001158	2.4e-05
298.15	0.0126	0.6	0.001406	3e-05
298.15	0.017	0.6	0.001418	3e-05
298.15	0.0283	0.6	0.001438	3e-05
298.15	0.0392	0.6	0.001453	3.1e-05
298.15	0.0516	0.6	0.001472	3.1e-05
298.15	0.0552	0.6	0.001481	3.1e-05
298.15	0.0681	0.6	0.001503	3.2e-05
298.15	0.077	0.6	0.001516	3.2e-05
308.15	0.0126	0.6	0.001198	2.5e-05
308.15	0.017	0.6	0.001213	2.6e-05
308.15	0.0283	0.6	0.001226	2.6e-05
308.15	0.0392	0.6	0.00124	2.6e-05
308.15	0.0516	0.6	0.001253	2.6e-05
308.15	0.0552	0.6	0.001258	2.7e-05
308.15	0.0681	0.6	0.001272	2.7e-05
308.15	0.077	0.6	0.001282	2.7e-05
298.15	0.0135	0.9	0.001006	2.1e-05
298.15	0.019	0.9	0.001013	2.1e-05
298.15	0.0249	0.9	0.001024	2.2e-05
298.15	0.0426	0.9	0.001049	2.2e-05
298.15	0.0488	0.9	0.001057	2.2e-05
298.15	0.0626	0.9	0.001072	2.3e-05
298.15	0.0695	0.9	0.001081	2.3e-05
298.15	0.0786	0.9	0.001093	2.3e-05
308.15	0.0135	0.9	0.000971	2.1e-05
308.15	0.019	0.9	0.000981	2.1e-05
308.15	0.0249	0.9	0.000988	2.1e-05
308.15	0.0426	0.9	0.001008	2.1e-05
308.15	0.0488	0.9	0.001015	2.1e-05
308.15	0.0626	0.9	0.001029	2.2e-05
308.15	0.0695	0.9	0.001035	2.2e-05
308.15	0.0786	0.9	0.001043	2.2e-05
298.15	0	0.3	0.0009716	2.05e-05
308.15	0	0.3	0.0009314	1.97e-05
298.15	0	0.6	0.0013572	2.86e-05
308.15	0	0.6	0.0011328	2.39e-05
298.15	0	0.9	0.0009415	1.99e-05
308.15	0	0.9	0.000822	1.74e-05

System: 1,3-dioxolane + sodium bromide + water; phases: Liquid
Fixed: Pressure, kPa = 101
Property: Mass density, kg/m3 (Liquid); method: Pycnometric method
Temperature, K	Solvent: Volume fraction of water	Molality, mol/kg of sodium bromide	Mass density, kg/m3	uncertainty
298.15	0.3	0.0111	1055.6	0.8
298.15	0.3	0.0192	1055.8	0.7
298.15	0.3	0.0287	1057.1	0.7
298.15	0.3	0.0381	1057.3	0.7
298.15	0.3	0.0494	1058.2	0.7
298.15	0.3	0.0567	1058.9	0.7
298.15	0.3	0.0665	1059.5	0.7
298.15	0.3	0.0747	1060.7	0.7
308.15	0.3	0.0111	1045.6	0.8
308.15	0.3	0.0192	1046.4	0.7
308.15	0.3	0.0287	1047.3	0.7
308.15	0.3	0.0381	1048.3	0.7
308.15	0.3	0.0477	1049.1	0.7
308.15	0.3	0.0567	1050.1	0.7
308.15	0.3	0.0665	1051	0.7
308.15	0.3	0.0747	1051.8	0.7
298.15	0.6	0.0109	1039.6	0.7
298.15	0.6	0.0192	1040.4	0.7
298.15	0.6	0.0286	1041	0.7
298.15	0.6	0.0376	1041.6	0.7
298.15	0.6	0.049	1042.3	0.7
298.15	0.6	0.0606	1043.1	0.7
298.15	0.6	0.0672	1043.7	0.7
298.15	0.6	0.0737	1044.3	0.9
308.15	0.6	0.0109	1030.9	0.7
308.15	0.6	0.0192	1031.6	0.7
308.15	0.6	0.0286	1032.9	0.7
308.15	0.6	0.0376	1033.8	0.7
308.15	0.6	0.049	1035.7	0.7
308.15	0.6	0.0606	1036	0.7
308.15	0.6	0.0672	1035.9	0.7
308.15	0.6	0.0737	1036.6	0.9
298.15	0.9	0.0092	1010.4	0.7
298.15	0.9	0.0196	1011	0.7
298.15	0.9	0.0293	1011.8	0.7
298.15	0.9	0.0391	1012.5	0.7
298.15	0.9	0.0508	1013.4	0.7
298.15	0.9	0.0594	1014.1	0.7
298.15	0.9	0.0693	1015.1	0.7
298.15	0.9	0.0734	1015.7	0.7
308.15	0.9	0.0092	1004.1	0.7
308.15	0.9	0.0196	1004.7	0.7
308.15	0.9	0.0293	1005.3	0.7
308.15	0.9	0.0391	1006.4	0.7
308.15	0.9	0.0508	1007	0.7
308.15	0.9	0.0594	1007.3	0.7
308.15	0.9	0.0693	1008.8	0.7
308.15	0.9	0.0734	1009.2	0.7
298.15	0.3	0	1049.2	0.9
308.15	0.3	0	1041.1	0.8
298.15	0.6	0	1039.1	0.9
308.15	0.6	0	1030.7	0.9
298.15	0.9	0	1009.2	0.7
308.15	0.9	0	1003.3	0.7

System: 1,3-dioxolane + sodium bromide + water; phases: Liquid
Fixed: Pressure, kPa = 101
Property: Viscosity, Pa*s (Liquid); method: Capillary tube (Ostwald; Ubbelohde) method
Temperature, K	Molality, mol/kg of sodium bromide	Solvent: Volume fraction of water	Viscosity, Pa*s	uncertainty
298.15	0.0111	0.3	0.000993	2.1e-05
298.15	0.0192	0.3	0.001012	2.1e-05
298.15	0.0287	0.3	0.001017	2.1e-05
298.15	0.0381	0.3	0.001028	2.2e-05
298.15	0.0494	0.3	0.001037	2.2e-05
298.15	0.0567	0.3	0.001044	2.2e-05
298.15	0.0665	0.3	0.001056	2.2e-05
298.15	0.0747	0.3	0.001065	2.2e-05
308.15	0.0111	0.3	0.000982	2.1e-05
308.15	0.0192	0.3	0.000989	2.1e-05
308.15	0.0287	0.3	0.000997	2.1e-05
308.15	0.0381	0.3	0.001006	2.1e-05
308.15	0.0477	0.3	0.001014	2.1e-05
308.15	0.0567	0.3	0.001023	2.2e-05
308.15	0.0665	0.3	0.001032	2.2e-05
308.15	0.0747	0.3	0.00104	2.2e-05
298.15	0.0109	0.6	0.001384	2.9e-05
298.15	0.0192	0.6	0.001402	3e-05
298.15	0.0286	0.6	0.001424	3e-05
298.15	0.0376	0.6	0.001441	3e-05
298.15	0.049	0.6	0.001463	3.1e-05
298.15	0.0606	0.6	0.001483	3.1e-05
298.15	0.0672	0.6	0.001496	3.1e-05
298.15	0.0737	0.6	0.00151	3.2e-05
308.15	0.0109	0.6	0.001157	2.4e-05
308.15	0.0192	0.6	0.001173	2.5e-05
308.15	0.0286	0.6	0.001184	2.5e-05
308.15	0.0376	0.6	0.001195	2.5e-05
308.15	0.049	0.6	0.001209	2.5e-05
308.15	0.0606	0.6	0.001225	2.6e-05
308.15	0.0672	0.6	0.001234	2.6e-05
308.15	0.0737	0.6	0.001242	2.6e-05
298.15	0.0092	0.9	0.001111	2.3e-05
298.15	0.0196	0.9	0.001128	2.4e-05
298.15	0.0293	0.9	0.001145	2.4e-05
298.15	0.0391	0.9	0.001161	2.4e-05
298.15	0.0508	0.9	0.00118	2.5e-05
298.15	0.0594	0.9	0.001194	2.5e-05
298.15	0.0693	0.9	0.001209	2.5e-05
298.15	0.0734	0.9	0.001215	2.6e-05
308.15	0.0092	0.9	0.001058	2.2e-05
308.15	0.0196	0.9	0.001076	2.3e-05
308.15	0.0293	0.9	0.001089	2.3e-05
308.15	0.0391	0.9	0.001103	2.3e-05
308.15	0.0508	0.9	0.001116	2.4e-05
308.15	0.0594	0.9	0.001128	2.4e-05
308.15	0.0693	0.9	0.00114	2.4e-05
308.15	0.0734	0.9	0.001144	2.4e-05
298.15	0	0.3	0.0009716	2.05e-05
308.15	0	0.3	0.0009314	1.97e-05
298.15	0	0.6	0.0013572	2.86e-05
308.15	0	0.6	0.0011328	2.39e-05
298.15	0	0.9	0.0009415	1.99e-05
308.15	0	0.9	0.000822	1.74e-05

System: 1,3-dioxolane + water + potassium bromide; phases: Liquid
Fixed: Pressure, kPa = 101
Property: Mass density, kg/m3 (Liquid); method: Pycnometric method
Temperature, K	Solvent: Volume fraction of water	Molality, mol/kg of potassium bromide	Mass density, kg/m3	uncertainty
298.15	0.3	0.0111	1056	0.8
298.15	0.3	0.0179	1056.6	0.7
298.15	0.3	0.028	1057.4	0.7
298.15	0.3	0.0389	1058.3	0.7
298.15	0.3	0.0477	1059	0.7
298.15	0.3	0.0562	1059.7	0.7
298.15	0.3	0.0659	1060.6	0.7
298.15	0.3	0.0753	1061.3	0.7
308.15	0.3	0.0111	1044.5	0.7
308.15	0.3	0.0179	1045.4	0.7
308.15	0.3	0.028	1046.9	0.7
308.15	0.3	0.0389	1048.5	0.7
308.15	0.3	0.0477	1049.7	0.7
308.15	0.3	0.0562	1050.8	0.7
308.15	0.3	0.0659	1052	0.7
308.15	0.3	0.0753	1053.1	0.7
298.15	0.6	0.0111	1039.7	0.7
298.15	0.6	0.0203	1040.5	0.7
298.15	0.6	0.0298	1041.3	0.7
298.15	0.6	0.039	1042.1	0.7
298.15	0.6	0.0496	1043	0.7
298.15	0.6	0.0578	1043.7	0.7
298.15	0.6	0.0672	1044.6	0.7
298.15	0.6	0.0745	1045.3	0.9
308.15	0.6	0.0111	1030.7	0.7
308.15	0.6	0.0203	1031.8	0.7
308.15	0.6	0.0298	1032.7	0.7
308.15	0.6	0.039	1033.5	0.7
308.15	0.6	0.0496	1034.4	0.7
308.15	0.6	0.0578	1035.2	0.7
308.15	0.6	0.0672	1035.9	0.7
308.15	0.6	0.0745	1036.5	0.8
298.15	0.9	0.0091	1009.5	0.7
298.15	0.9	0.0198	1010.5	0.7
298.15	0.9	0.0298	1011.5	0.7
298.15	0.9	0.0403	1012.6	0.7
298.15	0.9	0.05	1013.6	0.7
298.15	0.9	0.0608	1014.5	0.7
298.15	0.9	0.0694	1015.2	0.7
298.15	0.9	0.0792	1016.2	0.7
308.15	0.9	0.0091	1004	0.7
308.15	0.9	0.0198	1004.9	0.7
308.15	0.9	0.0298	1005.8	0.7
308.15	0.9	0.0403	1006.8	0.7
308.15	0.9	0.05	1007.7	0.7
308.15	0.9	0.0608	1008.7	0.7
308.15	0.9	0.0694	1009.5	0.7
308.15	0.9	0.0792	1010.4	0.7
298.15	0.3	0	1049.2	0.9
308.15	0.3	0	1041.1	0.8
298.15	0.6	0	1039.1	0.9
308.15	0.6	0	1030.7	0.9
298.15	0.9	0	1009.2	0.7
308.15	0.9	0	1003.3	0.7

System: 1,3-dioxolane + water + potassium bromide; phases: Liquid
Fixed: Pressure, kPa = 101
Property: Viscosity, Pa*s (Liquid); method: Capillary tube (Ostwald; Ubbelohde) method
Temperature, K	Molality, mol/kg of potassium bromide	Solvent: Volume fraction of water	Viscosity, Pa*s	uncertainty
298.15	0.0111	0.3	0.00099	2.1e-05
298.15	0.0179	0.3	0.001001	2.1e-05
298.15	0.028	0.3	0.001017	2.1e-05
298.15	0.0389	0.3	0.001035	2.2e-05
298.15	0.0477	0.3	0.001048	2.2e-05
298.15	0.0562	0.3	0.00106	2.2e-05
298.15	0.0659	0.3	0.001075	2.3e-05
298.15	0.0753	0.3	0.001088	2.3e-05
308.15	0.0111	0.3	0.000958	2e-05
308.15	0.0179	0.3	0.000959	2e-05
308.15	0.028	0.3	0.000973	2.1e-05
308.15	0.0389	0.3	0.000986	2.1e-05
308.15	0.0477	0.3	0.001	2.1e-05
308.15	0.0562	0.3	0.001012	2.1e-05
308.15	0.0659	0.3	0.001026	2.2e-05
308.15	0.0753	0.3	0.001037	2.2e-05
298.15	0.0111	0.6	0.001383	2.9e-05
298.15	0.0203	0.6	0.001404	3e-05
298.15	0.0298	0.6	0.001426	3e-05
298.15	0.039	0.6	0.001448	3e-05
298.15	0.0496	0.6	0.001472	3.1e-05
298.15	0.0578	0.6	0.001491	3.1e-05
298.15	0.0672	0.6	0.001512	3.2e-05
298.15	0.0745	0.6	0.001527	3.2e-05
308.15	0.0111	0.6	0.001156	2.4e-05
308.15	0.0203	0.6	0.001174	2.5e-05
308.15	0.0298	0.6	0.001192	2.5e-05
308.15	0.039	0.6	0.001208	2.5e-05
308.15	0.0496	0.6	0.001225	2.6e-05
308.15	0.0578	0.6	0.001241	2.6e-05
308.15	0.0672	0.6	0.001256	2.6e-05
308.15	0.0745	0.6	0.001268	2.7e-05
298.15	0.0091	0.9	0.000985	2.1e-05
298.15	0.0198	0.9	0.001002	2.1e-05
298.15	0.0298	0.9	0.001018	2.1e-05
298.15	0.0403	0.9	0.001035	2.2e-05
298.15	0.05	0.9	0.00105	2.2e-05
298.15	0.0608	0.9	0.001068	2.3e-05
298.15	0.0694	0.9	0.001083	2.3e-05
298.15	0.0792	0.9	0.001099	2.3e-05
308.15	0.0091	0.9	0.000947	2e-05
308.15	0.0198	0.9	0.000965	2e-05
308.15	0.0298	0.9	0.000978	2.1e-05
308.15	0.0403	0.9	0.000993	2.1e-05
308.15	0.05	0.9	0.001006	2.1e-05
308.15	0.0608	0.9	0.001022	2.2e-05
308.15	0.0694	0.9	0.001035	2.2e-05
308.15	0.0792	0.9	0.001049	2.2e-05
298.15	0	0.3	0.0009716	2.05e-05
308.15	0	0.3	0.0009314	1.97e-05
298.15	0	0.6	0.0013572	2.86e-05
308.15	0	0.6	0.0011328	2.39e-05
298.15	0	0.9	0.0009415	1.99e-05
308.15	0	0.9	0.000822	1.74e-05

System: 1,3-dioxolane + water; phases: Liquid
Fixed: Pressure, kPa = 101
Property: Mass density, kg/m3 (Liquid); method: Pycnometric method
Temperature, K	Volume fraction of water	Mass density, kg/m3	uncertainty
298.15	0.3	1049.2	6
308.15	0.3	1041.1	6
298.15	0.6	1039.1	6
308.15	0.6	1030.7	6
298.15	0.9	1009.2	6
308.15	0.9	1003.3	6

System: 1,3-dioxolane + water; phases: Liquid
Fixed: Pressure, kPa = 101
Property: Viscosity, Pa*s (Liquid); method: Capillary tube (Ostwald; Ubbelohde) method
Temperature, K	Volume fraction of water	Viscosity, Pa*s	uncertainty
298.15	0.3	0.0009716	0.0001944
308.15	0.3	0.0009314	0.0001864
298.15	0.6	0.0013572	0.0002716
308.15	0.6	0.0011328	0.0002267
298.15	0.9	0.0009415	0.0001884
308.15	0.9	0.000822	0.0001645
