Measured thermophysical data. Apparent Molar Volumes and Isentropic Compressibilities of Benzene Sulfonates and Naphthalene Sulfonates in Aqueous Solutions at (293.15, 303.15, 313.15, 323.15, and 333.15) K
Source: J. Chem. Eng. Data, 2010, 10.1021/je9005486
Compound 1: sodium benzene sulfonate, C6H5NaO3S, InChI=1S/C6H6O3S.Na/c7-10(8,9)6-4-2-1-3-5-6;/h1-5H,(H,7,8,9);/q;+1/p-1
Compound 2: sodium p-toluenesulfonate, C7H7NaO3S, InChI=1S/C7H8O3S.Na/c1-6-2-4-7(5-3-6)11(8,9)10;/h2-5H,1H3,(H,8,9,10);/q;+1/p-1
Compound 3: disodium 1,5-naphthalene disulfonate, C10H6Na2O6S2, InChI=1S/C10H8O6S2.2Na/c11-17(12,13)9-5-1-3-7-8(9)4-2-6-10(7)18(14,15)16;;/h1-6H,(H,11,12,13)(H,14,15,16);;/q;2*+1/p-2
Compound 4: 1,3-benzenedisulfonic acid, disodium salt, C6H4Na2O6S2, InChI=1S/C6H6O6S2.2Na/c7-13(8,9)5-2-1-3-6(4-5)14(10,11)12;;/h1-4H,(H,7,8,9)(H,10,11,12);;/q;2*+1/p-2
Compound 5: sodium 1-naphthalene sulfonate, C10H7NaO3S, InChI=1S/C10H8O3S.Na/c11-14(12,13)10-7-3-5-8-4-1-2-6-9(8)10;/h1-7H,(H,11,12,13);/q;+1/p-1
Compound 6: water, H2O, InChI=1S/H2O/h1H2

System: sodium benzene sulfonate + water; phases: Liquid
Fixed: Pressure, kPa = 101
Property: Speed of sound, m/s (Liquid); method: PULSEH:UFactor:2
Temperature, K	Molality, mol/kg of sodium benzene sulfonate	Speed of sound, m/s	uncertainty
293.15	0	1482.55	1.54
293.15	0.0504	1488.55	1.56
293.15	0.102	1494.24	1.58
293.15	0.1506	1499.81	1.6
293.15	0.2017	1505.41	1.62
293.15	0.2517	1510.65	1.64
293.15	0.3011	1515.98	1.66
293.15	0.3512	1521.14	1.68
293.15	0.4029	1526.26	1.7
293.15	0.4992	1535.89	1.74
303.15	0	1509.29	1.56
303.15	0.0504	1514.36	1.58
303.15	0.102	1519.35	1.6
303.15	0.1506	1524.08	1.61
303.15	0.2017	1528.91	1.63
303.15	0.2517	1533.49	1.65
303.15	0.3011	1538.01	1.67
303.15	0.3512	1542.49	1.69
303.15	0.4029	1546.96	1.71
303.15	0.4992	1555.18	1.75
313.15	0	1529.03	1.58
313.15	0.0504	1533.42	1.59
313.15	0.102	1537.8	1.61
313.15	0.1506	1541.88	1.63
313.15	0.2017	1546.05	1.64
313.15	0.2517	1550.02	1.66
313.15	0.3011	1553.91	1.68
313.15	0.3512	1557.79	1.7
313.15	0.4029	1561.69	1.72
313.15	0.4992	1568.77	1.76
323.15	0	1542.74	1.59
323.15	0.0504	1546.61	1.6
323.15	0.102	1550.39	1.62
323.15	0.1506	1553.97	1.64
323.15	0.2017	1557.57	1.65
323.15	0.2517	1560.99	1.67
323.15	0.3011	1564.37	1.69
323.15	0.3512	1567.7	1.71
323.15	0.4029	1571.08	1.73
323.15	0.4992	1577.23	1.76
333.15	0	1551.18	1.59
333.15	0.0504	1554.54	1.61
333.15	0.102	1557.9	1.62
333.15	0.1506	1560.93	1.64
333.15	0.2017	1564.07	1.66
333.15	0.2517	1567.07	1.67
333.15	0.3011	1569.98	1.69
333.15	0.3512	1572.87	1.71
333.15	0.4029	1575.78	1.73
333.15	0.4992	1581.07	1.76

System: sodium benzene sulfonate + water; phases: Liquid
Fixed: Pressure, kPa = 101
Property: Mass density, kg/m3 (Liquid); method: Vibrating tube method
Temperature, K	Molality, mol/kg of sodium benzene sulfonate	Mass density, kg/m3	uncertainty
293.15	0	998.24	0.132
293.15	0.0504	1002.28	0.14
293.15	0.102	1006.285	0.151
293.15	0.1506	1010.024	0.163
293.15	0.2017	1013.889	0.177
293.15	0.2517	1017.615	0.191
293.15	0.3011	1021.268	0.206
293.15	0.3512	1024.932	0.222
293.15	0.4029	1028.65	0.24
293.15	0.4992	1035.484	0.275
303.15	0	995.681	0.135
303.15	0.0504	999.64	0.138
303.15	0.102	1003.564	0.149
303.15	0.1506	1007.224	0.161
303.15	0.2017	1011.014	0.175
303.15	0.2517	1014.66	0.189
303.15	0.3011	1018.241	0.204
303.15	0.3512	1021.825	0.22
303.15	0.4029	1025.474	0.237
303.15	0.4992	1032.163	0.271
313.15	0	992.248	0.135
313.15	0.0504	996.144	0.139
313.15	0.102	1000.001	0.147
313.15	0.1506	1003.601	0.159
313.15	0.2017	1007.328	0.172
313.15	0.2517	1010.912	0.186
313.15	0.3011	1014.43	0.201
313.15	0.3512	1017.954	0.217
313.15	0.4029	1021.541	0.234
313.15	0.4992	1028.114	0.267
323.15	0	988.07	0.136
323.15	0.0504	991.91	0.14
323.15	0.102	995.717	0.148
323.15	0.1506	999.263	0.157
323.15	0.2017	1002.938	0.169
323.15	0.2517	1006.475	0.183
323.15	0.3011	1009.945	0.198
323.15	0.3512	1013.422	0.213
323.15	0.4029	1016.956	0.23
323.15	0.4992	1023.432	0.263
333.15	0	983.232	0.135
333.15	0.0504	987.03	0.142
333.15	0.102	990.794	0.15
333.15	0.1506	994.303	0.158
333.15	0.2017	997.935	0.168
333.15	0.2517	1001.426	0.18
333.15	0.3011	1004.856	0.194
333.15	0.3512	1008.291	0.209
333.15	0.4029	1011.784	0.226
333.15	0.4992	1018.186	0.259

System: sodium p-toluenesulfonate + water; phases: Liquid
Fixed: Pressure, kPa = 101
Property: Speed of sound, m/s (Liquid); method: PULSEH:UFactor:2
Temperature, K	Molality, mol/kg of sodium p-toluenesulfonate	Speed of sound, m/s	uncertainty
293.15	0	1482.55	1.54
293.15	0.0508	1489.55	1.56
293.15	0.1007	1496.3	1.58
293.15	0.1518	1502.72	1.6
293.15	0.2006	1508.92	1.62
293.15	0.2498	1514.88	1.64
293.15	0.3016	1520.87	1.67
293.15	0.3496	1526.57	1.69
293.15	0.3976	1531.97	1.71
293.15	0.4991	1543.14	1.75
303.15	0	1509.29	1.56
303.15	0.0508	1515.23	1.58
303.15	0.1007	1521.1	1.6
303.15	0.1518	1526.57	1.62
303.15	0.2006	1531.85	1.64
303.15	0.2498	1536.96	1.66
303.15	0.3016	1542.21	1.68
303.15	0.3496	1547.03	1.7
303.15	0.3976	1551.7	1.72
303.15	0.4991	1561.27	1.77
313.15	0	1529.03	1.58
313.15	0.0508	1534.18	1.59
313.15	0.1007	1539.24	1.61
313.15	0.1518	1543.96	1.63
313.15	0.2006	1548.49	1.65
313.15	0.2498	1552.92	1.67
313.15	0.3016	1557.37	1.69
313.15	0.3496	1561.52	1.71
313.15	0.3976	1565.53	1.73
313.15	0.4991	1573.72	1.77
323.15	0	1542.74	1.59
323.15	0.0508	1547.22	1.6
323.15	0.1007	1551.55	1.62
323.15	0.1518	1555.64	1.64
323.15	0.2006	1559.53	1.66
323.15	0.2498	1563.32	1.68
323.15	0.3016	1567.17	1.7
323.15	0.3496	1570.73	1.72
323.15	0.3976	1574.14	1.74
323.15	0.4991	1581.18	1.78
333.15	0	1551.18	1.59
333.15	0.0508	1555.04	1.61
333.15	0.1007	1558.72	1.63
333.15	0.1518	1562.29	1.64
333.15	0.2006	1565.62	1.66
333.15	0.2498	1568.88	1.68
333.15	0.3016	1572.21	1.7
333.15	0.3496	1575.18	1.72
333.15	0.3976	1578.09	1.74
333.15	0.4991	1584.12	1.78

System: sodium p-toluenesulfonate + water; phases: Liquid
Fixed: Pressure, kPa = 101
Property: Mass density, kg/m3 (Liquid); method: Vibrating tube method
Temperature, K	Molality, mol/kg of sodium p-toluenesulfonate	Mass density, kg/m3	uncertainty
293.15	0	998.24	0.131
293.15	0.0508	1002.294	0.141
293.15	0.1007	1006.199	0.153
293.15	0.1518	1010.152	0.167
293.15	0.2006	1013.877	0.181
293.15	0.2498	1017.551	0.196
293.15	0.3016	1021.362	0.213
293.15	0.3496	1024.889	0.23
293.15	0.3976	1028.357	0.247
293.15	0.4991	1035.528	0.287
303.15	0	995.681	0.133
303.15	0.0508	999.463	0.139
303.15	0.1007	1003.46	0.152
303.15	0.1518	1007.32	0.164
303.15	0.2006	1010.958	0.178
303.15	0.2498	1014.55	0.193
303.15	0.3016	1018.268	0.21
303.15	0.3496	1021.714	0.227
303.15	0.3976	1025.097	0.244
303.15	0.4991	1032.101	0.283
313.15	0	992.248	0.135
313.15	0.0508	996.134	0.14
313.15	0.1007	999.881	0.148
313.15	0.1518	1003.669	0.162
313.15	0.2006	1007.236	0.175
313.15	0.2498	1010.753	0.19
313.15	0.3016	1014.403	0.207
313.15	0.3496	1017.783	0.224
313.15	0.3976	1021.098	0.241
313.15	0.4991	1027.964	0.279
323.15	0	988.07	0.136
323.15	0.0508	991.895	0.141
323.15	0.1007	995.58	0.15
323.15	0.1518	999.31	0.159
323.15	0.2006	1002.819	0.172
323.15	0.2498	1006.281	0.187
323.15	0.3016	1009.868	0.204
323.15	0.3496	1013.191	0.22
323.15	0.3976	1016.453	0.237
323.15	0.4991	1023.204	0.275
333.15	0	983.232	0.134
333.15	0.0508	987.007	0.142
333.15	0.1007	990.644	0.151
333.15	0.1518	994.33	0.161
333.15	0.2006	997.789	0.171
333.15	0.2498	1001.201	0.183
333.15	0.3016	1004.74	0.2
333.15	0.3496	1008.018	0.216
333.15	0.3976	1011.233	0.233
333.15	0.4991	1017.888	0.271

System: disodium 1,5-naphthalene disulfonate + water; phases: Liquid
Fixed: Pressure, kPa = 101
Property: Speed of sound, m/s (Liquid); method: PULSEH:UFactor:2
Temperature, K	Molality, mol/kg of disodium 1,5-naphthalene disulfonate	Speed of sound, m/s	uncertainty
293.15	0	1482.55	1.54
293.15	0.05	1491.21	1.57
293.15	0.075	1495.43	1.59
293.15	0.1001	1499.71	1.61
293.15	0.1261	1503.92	1.63
293.15	0.15	1507.79	1.64
293.15	0.1987	1515.75	1.68
293.15	0.2426	1522.73	1.71
293.15	0.2865	1529.52	1.74
293.15	0.337	1537.13	1.78
303.15	0	1509.29	1.56
303.15	0.05	1516.91	1.59
303.15	0.075	1520.62	1.61
303.15	0.1001	1524.36	1.62
303.15	0.1261	1528.15	1.64
303.15	0.15	1531.59	1.66
303.15	0.1987	1538.6	1.69
303.15	0.2426	1544.72	1.72
303.15	0.2865	1550.75	1.76
303.15	0.337	1557.56	1.79
313.15	0	1529.03	1.58
313.15	0.05	1535.86	1.61
313.15	0.075	1539.18	1.62
313.15	0.1001	1542.51	1.64
313.15	0.1261	1545.89	1.65
313.15	0.15	1548.97	1.67
313.15	0.1987	1555.19	1.7
313.15	0.2426	1560.68	1.73
313.15	0.2865	1566.08	1.77
313.15	0.337	1572.16	1.8
323.15	0	1542.74	1.59
323.15	0.05	1548.94	1.62
323.15	0.075	1551.94	1.63
323.15	0.1001	1554.92	1.65
323.15	0.1261	1557.99	1.66
323.15	0.15	1560.73	1.68
323.15	0.1987	1566.31	1.71
323.15	0.2426	1571.26	1.74
323.15	0.2865	1576.08	1.77
323.15	0.337	1581.57	1.81
333.15	0	1551.18	1.59
333.15	0.05	1556.8	1.62
333.15	0.075	1559.53	1.64
333.15	0.1001	1562.24	1.65
333.15	0.1261	1565.03	1.67
333.15	0.15	1567.52	1.68
333.15	0.1987	1572.59	1.72
333.15	0.2426	1577.12	1.75
333.15	0.2865	1581.44	1.78
333.15	0.337	1586.45	1.81

System: disodium 1,5-naphthalene disulfonate + water; phases: Liquid
Fixed: Pressure, kPa = 101
Property: Mass density, kg/m3 (Liquid); method: Vibrating tube method
Temperature, K	Molality, mol/kg of disodium 1,5-naphthalene disulfonate	Mass density, kg/m3	uncertainty
293.15	0	998.24	0.204
293.15	0.05	1006.983	0.216
293.15	0.075	1011.226	0.221
293.15	0.1001	1015.43	0.23
293.15	0.1261	1019.782	0.24
293.15	0.15	1023.7	0.249
293.15	0.1987	1031.581	0.273
293.15	0.2426	1038.549	0.297
293.15	0.2865	1045.388	0.324
293.15	0.337	1053.15	0.36
303.15	0	995.681	0.207
303.15	0.05	1004.289	0.212
303.15	0.075	1008.466	0.218
303.15	0.1001	1012.605	0.227
303.15	0.1261	1016.887	0.236
303.15	0.15	1020.748	0.246
303.15	0.1987	1028.506	0.27
303.15	0.2426	1035.373	0.294
303.15	0.2865	1042.108	0.321
303.15	0.337	1049.758	0.354
313.15	0	992.248	0.205
313.15	0.05	1000.754	0.209
313.15	0.075	1004.88	0.215
313.15	0.1001	1008.968	0.224
313.15	0.1261	1013.2	0.233
313.15	0.15	1017.013	0.243
313.15	0.1987	1024.68	0.266
313.15	0.2426	1031.464	0.29
313.15	0.2865	1038.122	0.317
313.15	0.337	1045.682	0.35
323.15	0	988.07	0.205
323.15	0.05	996.493	0.209
323.15	0.075	1000.58	0.212
323.15	0.1001	1004.631	0.221
323.15	0.1261	1008.82	0.23
323.15	0.15	1012.602	0.24
323.15	0.1987	1020.198	0.263
323.15	0.2426	1026.917	0.286
323.15	0.2865	1033.513	0.313
323.15	0.337	1041.004	0.346
333.15	0	983.232	0.201
333.15	0.05	991.597	0.21
333.15	0.075	995.655	0.212
333.15	0.1001	999.675	0.218
333.15	0.1261	1003.836	0.227
333.15	0.15	1007.59	0.236
333.15	0.1987	1015.131	0.259
333.15	0.2426	1021.802	0.282
333.15	0.2865	1028.349	0.308
333.15	0.337	1035.786	0.342

System: 1,3-benzenedisulfonic acid, disodium salt + water; phases: Liquid
Fixed: Pressure, kPa = 101
Property: Speed of sound, m/s (Liquid); method: PULSEH:UFactor:2
Temperature, K	Molality, mol/kg of 1,3-benzenedisulfonic acid, disodium salt	Speed of sound, m/s	uncertainty
293.15	0	1482.55	1.54
293.15	0.0502	1489.89	1.56
293.15	0.1001	1496.82	1.58
293.15	0.1533	1503.91	1.61
293.15	0.1997	1510.19	1.63
293.15	0.2494	1516.65	1.65
293.15	0.3001	1524.1	1.67
293.15	0.3495	1529.65	1.7
293.15	0.3998	1536.44	1.72
293.15	0.4987	1548.52	1.77
303.15	0	1509.29	1.56
303.15	0.0502	1515.67	1.58
303.15	0.1001	1521.83	1.6
303.15	0.1533	1528.19	1.62
303.15	0.1997	1533.72	1.64
303.15	0.2494	1539.5	1.67
303.15	0.3001	1546.15	1.69
303.15	0.3495	1551.03	1.71
303.15	0.3998	1557.11	1.74
303.15	0.4987	1567.88	1.78
313.15	0	1529.03	1.58
313.15	0.0502	1534.76	1.6
313.15	0.1001	1540.31	1.62
313.15	0.1533	1546.06	1.64
313.15	0.1997	1550.97	1.66
313.15	0.2494	1556.15	1.68
313.15	0.3001	1562.06	1.7
313.15	0.3495	1566.52	1.72
313.15	0.3998	1571.99	1.75
313.15	0.4987	1581.7	1.79
323.15	0	1542.74	1.59
323.15	0.0502	1547.97	1.6
323.15	0.1001	1552.98	1.62
323.15	0.1533	1558.19	1.65
323.15	0.1997	1562.68	1.66
323.15	0.2494	1567.38	1.69
323.15	0.3001	1572.78	1.71
323.15	0.3495	1576.78	1.73
323.15	0.3998	1581.74	1.75
323.15	0.4987	1590.6	1.8
333.15	0	1551.18	1.59
333.15	0.0502	1555.94	1.61
333.15	0.1001	1560.55	1.63
333.15	0.1533	1565.35	1.65
333.15	0.1997	1569.48	1.67
333.15	0.2494	1573.77	1.69
333.15	0.3001	1578.74	1.71
333.15	0.3495	1582.36	1.73
333.15	0.3998	1586.88	1.76
333.15	0.4987	1595.1	1.8

System: 1,3-benzenedisulfonic acid, disodium salt + water; phases: Liquid
Fixed: Pressure, kPa = 101
Property: Mass density, kg/m3 (Liquid); method: Vibrating tube method
Temperature, K	Molality, mol/kg of 1,3-benzenedisulfonic acid, disodium salt	Mass density, kg/m3	uncertainty
293.15	0	998.24	0.193
293.15	0.0502	1006.388	0.199
293.15	0.1001	1014.177	0.208
293.15	0.1533	1022.346	0.221
293.15	0.1997	1029.343	0.233
293.15	0.2494	1036.683	0.251
293.15	0.3001	1044.508	0.267
293.15	0.3495	1051.286	0.285
293.15	0.3998	1058.634	0.307
293.15	0.4987	1072.371	0.353
303.15	0	995.681	0.196
303.15	0.0502	1003.706	0.197
303.15	0.1001	1011.378	0.205
303.15	0.1533	1019.425	0.217
303.15	0.1997	1026.319	0.23
303.15	0.2494	1033.553	0.248
303.15	0.3001	1041.278	0.264
303.15	0.3495	1047.95	0.282
303.15	0.3998	1055.248	0.303
303.15	0.4987	1068.751	0.348
313.15	0	992.248	0.195
313.15	0.0502	1000.182	0.194
313.15	0.1001	1007.764	0.202
313.15	0.1533	1015.717	0.215
313.15	0.1997	1022.536	0.227
313.15	0.2494	1029.689	0.245
313.15	0.3001	1037.336	0.261
313.15	0.3495	1043.93	0.278
313.15	0.3998	1051.15	0.3
313.15	0.4987	1064.505	0.344
323.15	0	988.07	0.195
323.15	0.0502	995.933	0.194
323.15	0.1001	1003.453	0.2
323.15	0.1533	1011.337	0.212
323.15	0.1997	1018.096	0.224
323.15	0.2494	1025.188	0.242
323.15	0.3001	1032.77	0.257
323.15	0.3495	1039.307	0.275
323.15	0.3998	1046.468	0.296
323.15	0.4987	1059.71	0.34
333.15	0	983.232	0.192
333.15	0.0502	991.049	0.195
333.15	0.1001	998.523	0.197
333.15	0.1533	1006.27	0.209
333.15	0.1997	1013.068	0.221
333.15	0.2494	1020.117	0.236
333.15	0.3001	1027.221	0.253
333.15	0.3495	1034.144	0.273
333.15	0.3998	1041.263	0.291
333.15	0.4987	1054.419	0.336

System: sodium 1-naphthalene sulfonate + water; phases: Liquid
Fixed: Pressure, kPa = 101
Property: Speed of sound, m/s (Liquid); method: PULSEH:UFactor:2
Temperature, K	Molality, mol/kg of sodium 1-naphthalene sulfonate	Speed of sound, m/s	uncertainty
293.15	0	1482.55	1.54
293.15	0.0251	1486.17	1.55
293.15	0.0503	1489.61	1.56
293.15	0.0748	1492.77	1.58
293.15	0.0994	1495.84	1.59
293.15	0.1249	1499.17	1.6
293.15	0.1496	1502.28	1.61
293.15	0.1703	1504.74	1.62
293.15	0.2001	1508.36	1.64
293.15	0.2245	1511.22	1.65
303.15	0	1509.29	1.56
303.15	0.0251	1512.24	1.57
303.15	0.0503	1515.17	1.58
303.15	0.0748	1517.94	1.59
303.15	0.0994	1520.57	1.6
303.15	0.1249	1523.4	1.62
303.15	0.1496	1526.05	1.63
303.15	0.1703	1528.22	1.64
303.15	0.2001	1531.34	1.65
303.15	0.2245	1533.82	1.66
313.15	0	1529.03	1.58
313.15	0.0251	1531.56	1.59
313.15	0.0503	1534.07	1.6
313.15	0.0748	1536.41	1.61
313.15	0.0994	1538.72	1.62
313.15	0.1249	1541.12	1.63
313.15	0.1496	1543.41	1.64
313.15	0.1703	1545.27	1.65
313.15	0.2001	1547.95	1.66
313.15	0.2245	1550.08	1.67
323.15	0	1542.74	1.59
323.15	0.0251	1544.89	1.6
323.15	0.0503	1547.11	1.61
323.15	0.0748	1549.07	1.62
323.15	0.0994	1551.08	1.63
323.15	0.1249	1553.12	1.64
323.15	0.1496	1555.07	1.65
323.15	0.1703	1556.68	1.66
323.15	0.2001	1558.98	1.67
323.15	0.2245	1560.79	1.68
333.15	0	1551.18	1.59
333.15	0.0251	1552.95	1.6
333.15	0.0503	1554.89	1.61
333.15	0.0748	1556.54	1.62
333.15	0.0994	1558.25	1.63
333.15	0.1249	1560.02	1.64
333.15	0.1496	1561.69	1.65
333.15	0.1703	1563.06	1.66
333.15	0.2001	1565.02	1.67
333.15	0.2245	1566.6	1.69

System: sodium 1-naphthalene sulfonate + water; phases: Liquid
Fixed: Pressure, kPa = 101
Property: Mass density, kg/m3 (Liquid); method: Vibrating tube method
Temperature, K	Molality, mol/kg of sodium 1-naphthalene sulfonate	Mass density, kg/m3	uncertainty
293.15	0	998.24	0.141
293.15	0.0251	1000.628	0.145
293.15	0.0503	1002.916	0.15
293.15	0.0748	1005.115	0.156
293.15	0.0994	1007.307	0.163
293.15	0.1249	1009.575	0.171
293.15	0.1496	1011.758	0.179
293.15	0.1703	1013.542	0.186
293.15	0.2001	1016.147	0.197
293.15	0.2245	1018.241	0.206
303.15	0	995.681	0.149
303.15	0.0251	998.022	0.144
303.15	0.0503	1000.26	0.147
303.15	0.0748	1002.403	0.154
303.15	0.0994	1004.55	0.161
303.15	0.1249	1006.766	0.169
303.15	0.1496	1008.901	0.176
303.15	0.1703	1010.646	0.184
303.15	0.2001	1013.188	0.194
303.15	0.2245	1015.237	0.199
313.15	0	992.248	0.148
313.15	0.0251	994.547	0.144
313.15	0.0503	996.743	0.147
313.15	0.0748	998.85	0.152
313.15	0.0994	1000.953	0.158
313.15	0.1249	1003.128	0.166
313.15	0.1496	1005.223	0.173
313.15	0.1703	1006.931	0.181
313.15	0.2001	1009.428	0.191
313.15	0.2245	1011.437	0.196
323.15	0	988.07	0.148
323.15	0.0251	990.337	0.145
323.15	0.0503	992.491	0.148
323.15	0.0748	994.569	0.153
323.15	0.0994	996.635	0.159
323.15	0.1249	998.779	0.164
323.15	0.1496	1000.838	0.17
323.15	0.1703	1002.52	0.178
323.15	0.2001	1004.977	0.188
323.15	0.2245	1006.954	0.193
333.15	0	983.232	0.143
333.15	0.0251	985.467	0.146
333.15	0.0503	987.601	0.15
333.15	0.0748	989.647	0.154
333.15	0.0994	991.692	0.16
333.15	0.1249	993.801	0.165
333.15	0.1496	995.835	0.171
333.15	0.1703	997.491	0.176
333.15	0.2001	999.916	0.184
333.15	0.2245	1001.866	0.193
