Measured thermophysical data. Thermal Properties of Alkali Bis(pentafluoroethylsulfonyl)amides and Their Binary Mixtures
Source: J. Chem. Eng. Data, 2010, 10.1021/je900902z
Compound 1: lithium bis(pentafluoroethylsulfonyl)amide, C4F10LiNO4S2, InChI=1S/C4F10NO4S2.Li/c5-1(6,7)3(11,12)20(16,17)15-21(18,19)4(13,14)2(8,9)10;/q-1;+1
Compound 2: sodium bis(pentafluoroethylsulfonyl)amide, C4F10NNaO4S2, InChI=1S/C4F10NO4S2.Na/c5-1(6,7)3(11,12)20(16,17)15-21(18,19)4(13,14)2(8,9)10;/q-1;+1
Compound 3: potassium bis(pentafluoroethylsulfonyl) amide, C4F10KNO4S2, InChI=1S/C4F10NO4S2.K/c5-1(6,7)3(11,12)20(16,17)15-21(18,19)4(13,14)2(8,9)10;/q-1;+1
Compound 4: rubidium bis((perfluoroethyl)sulfonyl)amide, C4F10NO4RbS2, InChI=1S/C4F10NO4S2.Rb/c5-1(6,7)3(11,12)20(16,17)15-21(18,19)4(13,14)2(8,9)10;/q-1;+1
Compound 5: cesium bis((perfluoroethyl)sulfonyl)amide, C4CsF10NO4S2, InChI=1S/C4F10NO4S2.Cs/c5-1(6,7)3(11,12)20(16,17)15-21(18,19)4(13,14)2(8,9)10;/q-1;+1

System: lithium bis(pentafluoroethylsulfonyl)amide; phases: Crystal 2, Crystal 1, Air at 1 atmosphere
Property: Triple point temperature, K (Crystal 2); method: DTA
Triple point temperature, K	uncertainty
485	2

System: lithium bis(pentafluoroethylsulfonyl)amide; phases: Crystal, Liquid, Air at 1 atmosphere
Property: Normal melting temperature, K (Crystal); method: DTA
Normal melting temperature, K	uncertainty
601	2

System: sodium bis(pentafluoroethylsulfonyl)amide; phases: Crystal 2, Crystal 1, Air at 1 atmosphere
Property: Triple point temperature, K (Crystal 2); method: DTA
Triple point temperature, K	uncertainty
454	2

System: sodium bis(pentafluoroethylsulfonyl)amide; phases: Crystal, Liquid, Air at 1 atmosphere
Property: Normal melting temperature, K (Crystal); method: DTA
Normal melting temperature, K	uncertainty
539	2

System: potassium bis(pentafluoroethylsulfonyl) amide; phases: Crystal 2, Crystal 1, Air at 1 atmosphere
Property: Triple point temperature, K (Crystal 2); method: DTA
Triple point temperature, K	uncertainty
427	2

System: potassium bis(pentafluoroethylsulfonyl) amide; phases: Crystal, Liquid, Air at 1 atmosphere
Property: Normal melting temperature, K (Crystal); method: DTA
Normal melting temperature, K	uncertainty
546	2

System: rubidium bis((perfluoroethyl)sulfonyl)amide; phases: Crystal 2, Crystal 1, Air at 1 atmosphere
Property: Triple point temperature, K (Crystal 2); method: DTA
Triple point temperature, K	uncertainty
419	2

System: rubidium bis((perfluoroethyl)sulfonyl)amide; phases: Crystal, Liquid, Air at 1 atmosphere
Property: Normal melting temperature, K (Crystal); method: DTA
Normal melting temperature, K	uncertainty
539	2

System: cesium bis((perfluoroethyl)sulfonyl)amide; phases: Crystal 2, Crystal 1, Air at 1 atmosphere
Property: Triple point temperature, K (Crystal 2); method: DTA
Triple point temperature, K	uncertainty
369	2

System: cesium bis((perfluoroethyl)sulfonyl)amide; phases: Crystal, Liquid, Air at 1 atmosphere
Property: Normal melting temperature, K (Crystal); method: DTA
Normal melting temperature, K	uncertainty
526	2

System: lithium bis(pentafluoroethylsulfonyl)amide + sodium bis(pentafluoroethylsulfonyl)amide; phases: Crystal, Crystal, Liquid, Air at 1 atmosphere
Property: Eutectic temperature, K (Crystal); method: DTA:
Eutectic temperature, K	uncertainty
509	2

System: lithium bis(pentafluoroethylsulfonyl)amide + sodium bis(pentafluoroethylsulfonyl)amide; phases: Crystal, Crystal, Liquid, Air at 1 atmosphere
Property: Eutectic composition: mole fraction of lithium bis(pentafluoroethylsulfonyl)amide (Crystal); method: OTHER::sMethod:DSC
Eutectic composition: mole fraction of lithium bis(pentafluoroethylsulfonyl)amide	uncertainty
0.3	0.05

System: lithium bis(pentafluoroethylsulfonyl)amide + sodium bis(pentafluoroethylsulfonyl)amide; phases: Liquid, Crystal
Fixed: Pressure, kPa = 101
Property: Solid-liquid equilibrium temperature, K (Liquid); method: DTA
Mole fraction of sodium bis(pentafluoroethylsulfonyl)amide	Solid-liquid equilibrium temperature, K	uncertainty
0	601	4
0.1	592	5
0.2	580	5
0.3	569	5

System: lithium bis(pentafluoroethylsulfonyl)amide + sodium bis(pentafluoroethylsulfonyl)amide; phases: Liquid, Crystal of intercomponent compound 1
Fixed: Pressure, kPa = 101
Property: Solid-liquid equilibrium temperature, K (Liquid); method: DTA
Mole fraction of sodium bis(pentafluoroethylsulfonyl)amide	Solid-liquid equilibrium temperature, K	uncertainty
0.4	556	5
0.5	545	5
0.6	530	5

System: lithium bis(pentafluoroethylsulfonyl)amide + sodium bis(pentafluoroethylsulfonyl)amide; phases: Liquid, Crystal
Fixed: Pressure, kPa = 101
Property: Solid-liquid equilibrium temperature, K (Liquid); method: DTA
Mole fraction of sodium bis(pentafluoroethylsulfonyl)amide	Solid-liquid equilibrium temperature, K	uncertainty
0.7	509	5
0.8	520	5
0.9	529	4
1	539	4

System: lithium bis(pentafluoroethylsulfonyl)amide + potassium bis(pentafluoroethylsulfonyl) amide; phases: Crystal, Crystal, Liquid, Air at 1 atmosphere
Property: Eutectic temperature, K (Crystal); method: DTA:
Eutectic temperature, K	uncertainty
487	2

System: lithium bis(pentafluoroethylsulfonyl)amide + potassium bis(pentafluoroethylsulfonyl) amide; phases: Crystal, Crystal, Liquid, Air at 1 atmosphere
Property: Eutectic composition: mole fraction of lithium bis(pentafluoroethylsulfonyl)amide (Crystal); method: OTHER::sMethod:DSC
Eutectic composition: mole fraction of lithium bis(pentafluoroethylsulfonyl)amide	uncertainty
0.35	0.05

System: lithium bis(pentafluoroethylsulfonyl)amide + potassium bis(pentafluoroethylsulfonyl) amide; phases: Liquid, Crystal
Fixed: Pressure, kPa = 101
Property: Solid-liquid equilibrium temperature, K (Liquid); method: DTA
Mole fraction of potassium bis(pentafluoroethylsulfonyl) amide	Solid-liquid equilibrium temperature, K	uncertainty
0	601	4
0.1	592	5
0.2	566	5
0.3	564	5
0.4	544	6
0.5	524	6
0.6	498	7

System: lithium bis(pentafluoroethylsulfonyl)amide + potassium bis(pentafluoroethylsulfonyl) amide; phases: Liquid, Crystal
Fixed: Pressure, kPa = 101
Property: Solid-liquid equilibrium temperature, K (Liquid); method: DTA
Mole fraction of potassium bis(pentafluoroethylsulfonyl) amide	Solid-liquid equilibrium temperature, K	uncertainty
0.7	499	6
0.8	518	5
0.9	534	5
1	546	4

System: lithium bis(pentafluoroethylsulfonyl)amide + rubidium bis((perfluoroethyl)sulfonyl)amide; phases: Crystal, Crystal, Liquid, Air at 1 atmosphere
Property: Eutectic temperature, K (Crystal); method: DTA:
Eutectic temperature, K	uncertainty
473	2

System: lithium bis(pentafluoroethylsulfonyl)amide + rubidium bis((perfluoroethyl)sulfonyl)amide; phases: Crystal, Crystal, Liquid, Air at 1 atmosphere
Property: Eutectic composition: mole fraction of lithium bis(pentafluoroethylsulfonyl)amide (Crystal); method: OTHER::sMethod:DSC
Eutectic composition: mole fraction of lithium bis(pentafluoroethylsulfonyl)amide	uncertainty
0.35	0.05

System: lithium bis(pentafluoroethylsulfonyl)amide + rubidium bis((perfluoroethyl)sulfonyl)amide; phases: Liquid, Crystal
Fixed: Pressure, kPa = 101
Property: Solid-liquid equilibrium temperature, K (Liquid); method: DTA
Mole fraction of rubidium bis((perfluoroethyl)sulfonyl)amide	Solid-liquid equilibrium temperature, K	uncertainty
0	601	4
0.1	591	5
0.2	576	5
0.3	560	5
0.4	543	6
0.5	519	6
0.6	495	6

System: lithium bis(pentafluoroethylsulfonyl)amide + rubidium bis((perfluoroethyl)sulfonyl)amide; phases: Liquid, Crystal
Fixed: Pressure, kPa = 101
Property: Solid-liquid equilibrium temperature, K (Liquid); method: DTA
Mole fraction of rubidium bis((perfluoroethyl)sulfonyl)amide	Solid-liquid equilibrium temperature, K	uncertainty
0.7	483	6
0.8	507	6
0.9	525	5
1	539	4

System: lithium bis(pentafluoroethylsulfonyl)amide + cesium bis((perfluoroethyl)sulfonyl)amide; phases: Crystal, Crystal, Liquid, Air at 1 atmosphere
Property: Eutectic temperature, K (Crystal); method: DTA:
Eutectic temperature, K	uncertainty
454	2

System: lithium bis(pentafluoroethylsulfonyl)amide + cesium bis((perfluoroethyl)sulfonyl)amide; phases: Crystal, Crystal, Liquid, Air at 1 atmosphere
Property: Eutectic composition: mole fraction of lithium bis(pentafluoroethylsulfonyl)amide (Crystal); method: OTHER::sMethod:DSC
Eutectic composition: mole fraction of lithium bis(pentafluoroethylsulfonyl)amide	uncertainty
0.3	0.05

System: lithium bis(pentafluoroethylsulfonyl)amide + cesium bis((perfluoroethyl)sulfonyl)amide; phases: Liquid, Crystal
Fixed: Pressure, kPa = 101
Property: Solid-liquid equilibrium temperature, K (Liquid); method: DTA
Mole fraction of cesium bis((perfluoroethyl)sulfonyl)amide	Solid-liquid equilibrium temperature, K	uncertainty
0	601	4
0.1	592	5
0.2	578	5
0.3	560	6
0.4	540	6
0.5	512	7
0.6	484	7

System: lithium bis(pentafluoroethylsulfonyl)amide + cesium bis((perfluoroethyl)sulfonyl)amide; phases: Liquid, Crystal
Fixed: Pressure, kPa = 101
Property: Solid-liquid equilibrium temperature, K (Liquid); method: DTA
Mole fraction of cesium bis((perfluoroethyl)sulfonyl)amide	Solid-liquid equilibrium temperature, K	uncertainty
0.7	459	7
0.8	490	7
0.9	510	5
1	526	4

System: sodium bis(pentafluoroethylsulfonyl)amide + cesium bis((perfluoroethyl)sulfonyl)amide; phases: Crystal, Crystal, Liquid, Air at 1 atmosphere
Property: Eutectic temperature, K (Crystal); method: DTA:
Eutectic temperature, K	uncertainty
486	2

System: sodium bis(pentafluoroethylsulfonyl)amide + cesium bis((perfluoroethyl)sulfonyl)amide; phases: Crystal, Crystal, Liquid, Air at 1 atmosphere
Property: Eutectic composition: mole fraction of sodium bis(pentafluoroethylsulfonyl)amide (Crystal); method: OTHER::sMethod:DSC
Eutectic composition: mole fraction of sodium bis(pentafluoroethylsulfonyl)amide	uncertainty
0.4	0.05

System: sodium bis(pentafluoroethylsulfonyl)amide + cesium bis((perfluoroethyl)sulfonyl)amide; phases: Liquid, Crystal
Fixed: Pressure, kPa = 101
Property: Solid-liquid equilibrium temperature, K (Liquid); method: DTA
Mole fraction of cesium bis((perfluoroethyl)sulfonyl)amide	Solid-liquid equilibrium temperature, K	uncertainty
0	539	4
0.1	533	4
0.2	522	5
0.3	512	5
0.4	502	5
0.5	490	4
0.6	486	4

System: sodium bis(pentafluoroethylsulfonyl)amide + cesium bis((perfluoroethyl)sulfonyl)amide; phases: Liquid, Crystal
Fixed: Pressure, kPa = 101
Property: Solid-liquid equilibrium temperature, K (Liquid); method: DTA
Mole fraction of cesium bis((perfluoroethyl)sulfonyl)amide	Solid-liquid equilibrium temperature, K	uncertainty
0.7	494	5
0.8	506	5
1	526	4
