Measured thermophysical data. Solubility of Isoniazid in Supercritical Carbon Dioxide
Source: J. Chem. Eng. Data, 2010, 10.1021/je900622h
Compound 1: isonicotinic acid hydrazide, C6H7N3O, InChI=1S/C6H7N3O/c7-9-6(10)5-1-3-8-4-2-5/h1-4H,7H2,(H,9,10)
Compound 2: carbon dioxide, CO2, InChI=1S/CO2/c2-1-3

System: isonicotinic acid hydrazide + carbon dioxide; phases: Fluid (supercritical or subcritical phases), Crystal
Property: Mole fraction of isonicotinic acid hydrazide (Fluid (supercritical or subcritical phases)); method: spectrophotometric method
Temperature, K	Pressure, kPa	Mole fraction of isonicotinic acid hydrazide	uncertainty
308	13000	5.3e-07	1.56e-07
308	14000	7.9e-07	2.3e-07
308	15000	9.99e-07	2.88e-07
308	16000	1.127e-06	3.25e-07
308	17000	1.414e-06	4.14e-07
308	18500	1.61e-06	4.82e-07
311	13000	1.169e-06	3.36e-07
311	14000	1.59e-06	4.59e-07
311	15000	1.812e-06	5.25e-07
311	16000	2.174e-06	6.3e-07
311	17000	2.988e-06	8.58e-07
311	18500	4.02e-06	1.149e-06
313	13000	2.118e-06	6.06e-07
313	14000	3.281e-06	9.4e-07
313	15000	4.141e-06	1.192e-06
313	16000	4.849e-06	1.395e-06
313	17000	5.449e-06	1.558e-06
313	18500	6.045e-06	1.72e-06
