Measured thermophysical data. Solid-Liquid Phase Diagram for the System MgCl2-NH3-CH3OH at 298 K
Source: J. Chem. Eng. Data, 2010, 10.1021/je9008359
Compound 1: magnesium chloride, Cl2Mg, InChI=1S/2ClH.Mg/h2*1H;/q;;+2/p-2, purity 99.7%
Compound 2: ammonia, H3N, InChI=1S/H3N/h1H3
Compound 3: methanol, CH4O, InChI=1S/CH4O/c1-2/h2H,1H3

System: methanol + magnesium chloride; phases: Liquid, Crystal
Property: Mass fraction of magnesium chloride (Liquid); method: Titration method
Temperature, K	Pressure, kPa	Mass fraction of magnesium chloride	uncertainty
298	101	0.1485	0.02

System: methanol + ammonia; phases: Liquid, Gas
Property: Mass fraction of ammonia (Liquid); method: Titration method
Temperature, K	Pressure, kPa	Mass fraction of ammonia	uncertainty
298	101	0.174	0.02

System: methanol + ammonia + magnesium chloride; phases: Liquid, Crystal of intercomponent compound 1
Fixed: Pressure, kPa = 101
Fixed: Temperature, K = 298
Property: Mass fraction of ammonia (Liquid); method: Tecator 1035 Automatic Kjeltec Analyser
Mass fraction of magnesium chloride	Mass fraction of ammonia	uncertainty
0.0002	0.1179	0.02
0.0002	0.1148	0.02
0.0004	0.0882	0.02
0.0006	0.0873	0.02
0.0018	0.0623	0.02
0.0018	0.0614	0.02
0.0124	0.0425	0.02
0.0183	0.0404	0.02
0.0361	0.0367	0.02

System: methanol + ammonia + magnesium chloride; phases: Liquid, Crystal of intercomponent compound 2, Crystal of intercomponent compound 1
Fixed: Temperature, K = 298
Fixed: Pressure, kPa = 101
Property: Mass fraction of ammonia (Liquid); method: Titration method
Mass fraction of ammonia	uncertainty
0.0413	0.02
0.0416	0.02
0.0409	0.02
0.0408	0.02
0.0439	0.02

System: methanol + ammonia + magnesium chloride; phases: Liquid, Crystal of intercomponent compound 1, Crystal of intercomponent compound 2
Fixed: Temperature, K = 298
Fixed: Pressure, kPa = 101
Property: Mass fraction of ammonia (Liquid); method: Titration method
Mass fraction of ammonia	uncertainty
0.0098	0.0098
0.0111	0.0111
0.0227	0.02
0.0236	0.02

System: methanol + ammonia + magnesium chloride; phases: Liquid, Crystal of intercomponent compound 2
Fixed: Temperature, K = 298
Fixed: Pressure, kPa = 101
Property: Mass fraction of ammonia (Liquid); method: Titration method
Mass fraction of magnesium chloride	Mass fraction of ammonia	uncertainty
0.1345	0.0432	0.02
0.1366	0.0437	0.02

System: methanol + ammonia + magnesium chloride; phases: Liquid, Crystal of intercomponent compound 2
Fixed: Pressure, kPa = 101
Fixed: Temperature, K = 298
Property: Mass fraction of ammonia (Liquid); method: Tecator 1035 Automatic Kjeltec Analyser
Mass fraction of magnesium chloride	Mass fraction of ammonia	uncertainty
0.095	0.0329	0.02
0.0956	0.032	0.02
0.114	0.0163	0.0163
0.1576	0.0443	0.02

System: methanol + ammonia + magnesium chloride; phases: Liquid, Crystal of intercomponent compound 2, Crystal of intercomponent compound 1
Fixed: Temperature, K = 298
Fixed: Pressure, kPa = 101
Property: Mass fraction of magnesium chloride (Liquid); method: Titration method
Mass fraction of magnesium chloride	uncertainty
0.0344	0.02
0.0324	0.02
0.0585	0.02
0.06	0.02
0.1505	0.02

System: methanol + ammonia + magnesium chloride; phases: Liquid, Crystal of intercomponent compound 1, Crystal of intercomponent compound 2
Fixed: Temperature, K = 298
Fixed: Pressure, kPa = 101
Property: Mass fraction of magnesium chloride (Liquid); method: Titration method
Mass fraction of magnesium chloride	uncertainty
0.14	0.02
0.1436	0.02
0.1744	0.02
0.1756	0.02
