Measured thermophysical data. Solubility of Luteolin in Ethanol + Water Mixed Solvents at Different Temperatures
Source: J. Chem. Eng. Data, 2010, 10.1021/je900381r
Compound 1: 5,7,3',4'-tetrahydroxyflavone, C15H10O6, InChI=1S/C15H10O6/c16-8-4-11(19)15-12(20)6-13(21-14(15)5-8)7-1-2-9(17)10(18)3-7/h1-6,16-19H, purity 99%
Compound 2: ethanol, C2H6O, InChI=1S/C2H6O/c1-2-3/h3H,2H2,1H3, purity 99%
Compound 3: water, H2O, InChI=1S/H2O/h1H2

System: 5,7,3',4'-tetrahydroxyflavone; phases: Crystal, Liquid, Air at 1 atmosphere
Property: Normal melting temperature, K (Crystal); method: DTA
Normal melting temperature, K	uncertainty
610.58	1

System: ethanol + 5,7,3',4'-tetrahydroxyflavone + water; phases: Liquid, Crystal
Fixed: Pressure, kPa = 101
Property: Mole fraction of 5,7,3',4'-tetrahydroxyflavone (Liquid); method: Chromatography
Temperature, K	Mole fraction of ethanol	Mole fraction of 5,7,3',4'-tetrahydroxyflavone	uncertainty
273.2	0	2.06e-07	2.311e-08
273.2	0.1	3.14e-07	3.334e-08
273.2	0.2	2.19e-07	2.123e-08
273.2	0.3	1.027e-06	7.09e-08
273.2	0.4	3.175e-06	9.72e-08
273.2	0.5	6.624e-06	3.758e-07
273.2	0.6	1.3295e-05	1.2e-06
273.2	0.7	2.13e-05	5.21e-07
273.2	0.8	3.0677e-05	1.004e-06
273.2	0.9	2.8613e-05	8.65e-07
273.2	1	7.554e-06	5.341e-07
283.2	0	2.72e-07	2.025e-08
283.2	0.1	3.44e-07	5.69e-08
283.2	0.2	3.31e-07	2.062e-08
283.2	0.3	1.747e-06	7.25e-08
283.2	0.4	4.304e-06	1.629e-07
283.2	0.5	8.933e-06	3.381e-07
283.2	0.6	1.6078e-05	7.49e-07
283.2	0.7	2.5268e-05	1.104e-06
283.2	0.8	3.3336e-05	9.64e-07
283.2	0.9	3.0202e-05	6.83e-07
283.2	1	1.1741e-05	4.9e-07
293.2	0	3.49e-07	2.86e-08
293.2	0.1	3.75e-07	1.239e-08
293.2	0.2	5.51e-07	3.063e-08
293.2	0.3	2.179e-06	7.12e-08
293.2	0.4	5.724e-06	1.865e-07
293.2	0.5	1.1745e-05	3.18e-07
293.2	0.6	1.9136e-05	7e-07
293.2	0.7	2.9062e-05	1.027e-06
293.2	0.8	3.8281e-05	1.607e-06
293.2	0.9	3.6508e-05	1.571e-06
293.2	1	1.7385e-05	1.4e-06
303.2	0	4.68e-07	3.236e-08
303.2	0.1	6.55e-07	3.793e-08
303.2	0.2	9.02e-07	8.405e-08
303.2	0.3	3.703e-06	2.683e-07
303.2	0.4	7.928e-06	2.089e-07
303.2	0.5	1.4489e-05	6.96e-07
303.2	0.6	2.2847e-05	9.12e-07
303.2	0.7	3.1987e-05	7.35e-07
303.2	0.8	4.1825e-05	1.652e-06
303.2	0.9	4.021e-05	1.24e-06
303.2	1	2.0467e-05	8.78e-07
313.2	0	7.3e-07	7.247e-08
313.2	0.1	1.067e-06	8.09e-08
313.2	0.2	1.214e-06	4.17e-08
313.2	0.3	4.997e-06	1.662e-07
313.2	0.4	1.0224e-05	2.43e-07
313.2	0.5	1.7157e-05	5.51e-07
313.2	0.6	2.5655e-05	1.853e-06
313.2	0.7	3.6074e-05	8.82e-07
313.2	0.8	4.6778e-05	7.75e-07
313.2	0.9	4.5746e-05	1.48e-06
313.2	1	2.7077e-05	1.077e-06
323.2	0	9.48e-07	5.783e-08
323.2	0.1	1.618e-06	1.273e-07
323.2	0.2	1.636e-06	1.412e-07
323.2	0.3	7.127e-06	2.194e-07
323.2	0.4	1.3814e-05	3.82e-07
323.2	0.5	2.0425e-05	5.35e-07
323.2	0.6	2.9733e-05	1.882e-06
323.2	0.7	4.0701e-05	8.47e-07
323.2	0.8	5.1335e-05	1.388e-06
323.2	0.9	5.0328e-05	2.289e-06
323.2	1	3.1834e-05	2.31e-06
