Measured thermophysical data. Thermodynamics of Some Amphiphilic Drugs in Presence of Additives
Source: J. Chem. Eng. Data, 2010, 10.1021/je900749a
Compound 1: 3-(10,11-dihydro-5H-dibenzo[a,d]cyclohepten-5-ylidine)-N,N-dimethyl-1-propanamine hydrochloride, C20H24ClN, InChI=1S/C20H23N.ClH/c1-21(2)15-7-12-20-18-10-5-3-8-16(18)13-14-17-9-4-6-11-19(17)20;/h3-6,8-12H,7,13-15H2,1-2H3;1H
Compound 2: 3-(10,11-dihydro-5H-dibenzo[b,f]azepin-5-yl)-N,N-dimethylpropan-1-amine hydrochloride (1:1), C19H25ClN2, InChI=1S/C19H24N2.ClH/c1-20(2)14-7-15-21-18-10-5-3-8-16(18)12-13-17-9-4-6-11-19(17)21;/h3-6,8-11H,7,12-15H2,1-2H3;1H
Compound 3: 2-chloro-10-(3-dimethylaminopropyl)phenothiazine hydrochloride, C17H20Cl2N2S, InChI=1S/C17H19ClN2S.ClH/c1-19(2)10-5-11-20-14-6-3-4-7-16(14)21-17-9-8-13(18)12-15(17)20;/h3-4,6-9,12H,5,10-11H2,1-2H3;1H
Compound 4: promethazine hydrochloride, C17H21ClN2S, InChI=1S/C17H20N2S.ClH/c1-13(18(2)3)12-19-14-8-4-6-10-16(14)20-17-11-7-5-9-15(17)19;/h4-11,13H,12H2,1-3H3;1H
Compound 5: sodium chloride, ClNa, InChI=1S/ClH.Na/h1H;/q;+1/p-1
Compound 6: N,N,N-trimethyl-1-hexadecanaminium bromide, C19H42BrN, InChI=1S/C19H42N.BrH/c1-5-6-7-8-9-10-11-12-13-14-15-16-17-18-19-20(2,3)4;/h5-19H2,1-4H3;1H/q+1;/p-1
Compound 7: water, H2O, InChI=1S/H2O/h1H2

System: 3-(10,11-dihydro-5H-dibenzo[a,d]cyclohepten-5-ylidine)-N,N-dimethyl-1-propanamine hydrochloride + water; phases: Liquid, Air at 1 atmosphere
Fixed: Temperature, K = 300
Property: Surface tension liquid-gas, N/m (Liquid); method: Ring tensiometer
Amount concentration (molarity), mol/dm3 of 3-(10,11-dihydro-5H-dibenzo[a,d]cyclohepten-5-ylidine)-N,N-dimethyl-1-propanamine hydrochloride	Surface tension liquid-gas, N/m	uncertainty
0.0015842	0.06915	0.00117
0.0031376	0.06275	0.00107
0.0090573	0.05525	0.00095
0.014545	0.05075	0.00088
0.024406	0.0461	0.00081
0.028854	0.04455	0.00079
0.033014	0.04315	0.00076
0.040598	0.04255	0.00075
0.045719	0.0425	0.00075

System: 3-(10,11-dihydro-5H-dibenzo[b,f]azepin-5-yl)-N,N-dimethylpropan-1-amine hydrochloride (1:1) + water; phases: Liquid, Air at 1 atmosphere
Fixed: Temperature, K = 300
Property: Surface tension liquid-gas, N/m (Liquid); method: Ring tensiometer
Amount concentration (molarity), mol/dm3 of 3-(10,11-dihydro-5H-dibenzo[b,f]azepin-5-yl)-N,N-dimethylpropan-1-amine hydrochloride (1:1)	Surface tension liquid-gas, N/m	uncertainty
0.0036585	0.06855	0.00116
0.0071433	0.06215	0.00106
0.013636	0.0546	0.00094
0.019566	0.0517	0.0009
0.029999	0.04705	0.00082
0.038887	0.04375	0.00077
0.042865	0.043	0.00076
0.046548	0.0423	0.00075
0.050003	0.0423	0.00075
0.05769	0.0423	0.00075

System: 2-chloro-10-(3-dimethylaminopropyl)phenothiazine hydrochloride + water; phases: Liquid, Air at 1 atmosphere
Fixed: Temperature, K = 300
Property: Surface tension liquid-gas, N/m (Liquid); method: Ring tensiometer
Amount concentration (molarity), mol/dm3 of 2-chloro-10-(3-dimethylaminopropyl)phenothiazine hydrochloride	Surface tension liquid-gas, N/m	uncertainty
0.0013807	0.0657	0.00123
0.0023437	0.0605	0.00114
0.0032885	0.05715	0.00108
0.0047621	0.0534	0.00101
0.0065418	0.0505	0.00096
0.0090908	0.04715	0.0009
0.01228	0.0452	0.00087
0.015255	0.04415	0.00085
0.016665	0.044	0.00085
0.018034	0.04405	0.00085
0.019355	0.044	0.00085

System: promethazine hydrochloride + water; phases: Liquid, Air at 1 atmosphere
Fixed: Temperature, K = 300
Property: Surface tension liquid-gas, N/m (Liquid); method: Ring tensiometer
Amount concentration (molarity), mol/dm3 of promethazine hydrochloride	Surface tension liquid-gas, N/m	uncertainty
0.002941	0.0713	0.0012
0.005769	0.06415	0.00109
0.011112	0.05645	0.00097
0.01842	0.05035	0.00088
0.029034	0.04645	0.00081
0.036366	0.0434	0.00077
0.042865	0.04255	0.00075
0.048652	0.0422	0.00075
0.053852	0.0421	0.00075
0.058533	0.04215	0.00075

System: 3-(10,11-dihydro-5H-dibenzo[b,f]azepin-5-yl)-N,N-dimethylpropan-1-amine hydrochloride (1:1) + sodium chloride + water; phases: Liquid, Air at 1 atmosphere
Fixed: Temperature, K = 300
Property: Surface tension liquid-gas, N/m (Liquid); method: Ring tensiometer
Solvent: Amount concentration (molarity), mol/dm3 of sodium chloride	Amount concentration (molarity), mol/dm3 of 3-(10,11-dihydro-5H-dibenzo[b,f]azepin-5-yl)-N,N-dimethylpropan-1-amine hydrochloride (1:1)	Surface tension liquid-gas, N/m	uncertainty
0	0.0036585	0.06855	0.00116
0	0.0071433	0.06215	0.00106
0	0.013636	0.0546	0.00094
0	0.019566	0.0517	0.0009
0	0.029999	0.04705	0.00082
0	0.038887	0.04375	0.00077
0	0.042865	0.043	0.00076
0	0.046548	0.0423	0.00075
0	0.050003	0.0423	0.00075
0	0.05769	0.0423	0.00075
0.1	0.0019802	0.0689	0.00116
0.1	0.0039219	0.06495	0.0011
0.1	0.011321	0.0535	0.00092
0.1	0.01818	0.04825	0.00084
0.1	0.024564	0.04515	0.00079
0.1	0.030507	0.0424	0.00075
0.1	0.036066	0.04125	0.00073
0.1	0.041267	0.0412	0.00073
0.1	0.046153	0.04125	0.00073
0.2	0.0019802	0.0665	0.00112
0.2	0.0039219	0.06075	0.00104
0.2	0.011321	0.0491	0.00086
0.2	0.01818	0.0449	0.00079
0.2	0.024564	0.0411	0.00073
0.2	0.030507	0.04025	0.00072
0.2	0.036066	0.0403	0.00072
0.2	0.041267	0.04035	0.00072
0.2	0.046153	0.0403	0.00072
0.3	0.0019802	0.06485	0.0011
0.3	0.0039219	0.05825	0.001
0.3	0.011321	0.0478	0.00084
0.3	0.01818	0.0422	0.00075
0.3	0.024564	0.04005	0.00072
0.3	0.030507	0.03955	0.00071
0.3	0.036066	0.0396	0.00071
0.3	0.041267	0.03955	0.00071
0.3	0.046153	0.03955	0.00071
0.4	0.0019802	0.0621	0.00106
0.4	0.0039219	0.05415	0.00093
0.4	0.0076931	0.0479	0.00084
0.4	0.011321	0.0436	0.00077
0.4	0.01818	0.03985	0.00071
0.4	0.024564	0.03905	0.0007
0.4	0.030507	0.0389	0.0007
0.4	0.036066	0.03885	0.0007
0.4	0.041267	0.03895	0.0007
0.4	0.046153	0.0389	0.0007

System: 3-(10,11-dihydro-5H-dibenzo[a,d]cyclohepten-5-ylidine)-N,N-dimethyl-1-propanamine hydrochloride + sodium chloride + water; phases: Liquid, Air at 1 atmosphere
Fixed: Temperature, K = 300
Property: Surface tension liquid-gas, N/m (Liquid); method: Ring tensiometer
Solvent: Amount concentration (molarity), mol/dm3 of sodium chloride	Amount concentration (molarity), mol/dm3 of 3-(10,11-dihydro-5H-dibenzo[a,d]cyclohepten-5-ylidine)-N,N-dimethyl-1-propanamine hydrochloride	Surface tension liquid-gas, N/m	uncertainty
0	0.0015842	0.06915	0.00117
0	0.0031376	0.06275	0.00107
0	0.0090573	0.05525	0.00095
0	0.014545	0.05075	0.00088
0	0.024406	0.0461	0.00081
0	0.028854	0.04455	0.00079
0	0.033014	0.04315	0.00076
0	0.040598	0.04255	0.00075
0	0.045719	0.0425	0.00075
0.1	0.0015842	0.06765	0.00114
0.1	0.0031376	0.0608	0.00104
0.1	0.0090573	0.0524	0.00091
0.1	0.014545	0.04765	0.00083
0.1	0.019647	0.0445	0.00078
0.1	0.024406	0.04265	0.00076
0.1	0.028854	0.0416	0.00074
0.1	0.033014	0.0415	0.00074
0.1	0.036923	0.0415	0.00074
0.2	0.0015842	0.06465	0.0011
0.2	0.0031376	0.0589	0.00101
0.2	0.0090573	0.0497	0.00087
0.2	0.014545	0.04525	0.0008
0.2	0.019647	0.0425	0.00075
0.2	0.024406	0.04115	0.00073
0.2	0.028854	0.04085	0.00073
0.2	0.033014	0.0408	0.00073
0.2	0.036923	0.04085	0.00073
0.3	0.0015842	0.06325	0.00107
0.3	0.0031376	0.0564	0.00097
0.3	0.0090573	0.04735	0.00083
0.3	0.017144	0.04165	0.00074
0.3	0.019647	0.041	0.00073
0.3	0.024406	0.0403	0.00072
0.3	0.028854	0.04015	0.00072
0.3	0.033014	0.04015	0.00072
0.3	0.036923	0.0402	0.00072
0.4	0.0015842	0.06115	0.00104
0.4	0.0031376	0.05455	0.00094
0.4	0.0090573	0.04565	0.0008
0.4	0.014545	0.04125	0.00073
0.4	0.019647	0.0394	0.00071
0.4	0.024406	0.0394	0.00071
0.4	0.028854	0.0394	0.00071
0.4	0.033014	0.0394	0.00071
0.4	0.036923	0.0394	0.00071

System: 2-chloro-10-(3-dimethylaminopropyl)phenothiazine hydrochloride + sodium chloride + water; phases: Liquid, Air at 1 atmosphere
Fixed: Temperature, K = 300
Property: Surface tension liquid-gas, N/m (Liquid); method: Ring tensiometer
Solvent: Amount concentration (molarity), mol/dm3 of sodium chloride	Amount concentration (molarity), mol/dm3 of 2-chloro-10-(3-dimethylaminopropyl)phenothiazine hydrochloride	Surface tension liquid-gas, N/m	uncertainty
0	0.0013807	0.0657	0.00123
0	0.0023437	0.0605	0.00114
0	0.0032885	0.05715	0.00108
0	0.0047621	0.0534	0.00101
0	0.0065418	0.0505	0.00096
0	0.0090908	0.04715	0.0009
0	0.01228	0.0452	0.00087
0	0.015255	0.04415	0.00085
0	0.016665	0.044	0.00085
0	0.018034	0.04405	0.00085
0	0.019355	0.044	0.00085
0.1	0.00079214	0.06835	0.00127
0.1	0.0015686	0.06175	0.00116
0.1	0.0045279	0.05125	0.00098
0.1	0.0072728	0.04705	0.0009
0.1	0.0098243	0.0442	0.00085
0.1	0.012204	0.04345	0.00084
0.1	0.014428	0.04285	0.00083
0.1	0.016508	0.0428	0.00083
0.1	0.018463	0.04285	0.00083
0.2	0.00079214	0.0661	0.00123
0.2	0.0015686	0.05975	0.00112
0.2	0.0045279	0.04975	0.00095
0.2	0.0072728	0.04385	0.00085
0.2	0.0098243	0.04255	0.00083
0.2	0.012204	0.04215	0.00082
0.2	0.014428	0.0421	0.00082
0.2	0.016508	0.042	0.00082
0.2	0.018463	0.04205	0.00082
0.3	0.00069311	0.06425	0.0012
0.3	0.0013725	0.05825	0.0011
0.3	0.0039628	0.04755	0.00091
0.3	0.0063636	0.0458	0.00088
0.3	0.0085961	0.04115	0.0008
0.3	0.010678	0.0412	0.0008
0.3	0.012624	0.04115	0.0008
0.3	0.014444	0.04115	0.0008
0.4	0.00069311	0.06315	0.00118
0.4	0.0013725	0.05585	0.00106
0.4	0.0026922	0.04925	0.00094
0.4	0.0039628	0.04585	0.00088
0.4	0.0051856	0.04215	0.00082
0.4	0.0063636	0.0408	0.0008
0.4	0.0085961	0.0405	0.00079
0.4	0.010678	0.04055	0.00079
0.4	0.012624	0.0405	0.00079
0.4	0.013549	0.0405	0.00079

System: promethazine hydrochloride + sodium chloride + water; phases: Liquid, Air at 1 atmosphere
Fixed: Temperature, K = 300
Property: Surface tension liquid-gas, N/m (Liquid); method: Ring tensiometer
Solvent: Amount concentration (molarity), mol/dm3 of sodium chloride	Amount concentration (molarity), mol/dm3 of promethazine hydrochloride	Surface tension liquid-gas, N/m	uncertainty
0	0.002941	0.0713	0.0012
0	0.005769	0.06415	0.00109
0	0.011112	0.05645	0.00097
0	0.01842	0.05035	0.00088
0	0.029034	0.04645	0.00081
0	0.036366	0.0434	0.00077
0	0.042865	0.04255	0.00075
0	0.048652	0.0422	0.00075
0	0.053852	0.0421	0.00075
0	0.058533	0.04215	0.00075
0.1	0.0039219	0.06485	0.0011
0.1	0.011321	0.05295	0.00092
0.1	0.01818	0.04785	0.00084
0.1	0.024564	0.04405	0.00078
0.1	0.030507	0.0427	0.00076
0.1	0.036066	0.0414	0.00074
0.1	0.041267	0.04145	0.00074
0.1	0.046153	0.0414	0.00074
0.2	0.0019802	0.06825	0.00115
0.2	0.0039219	0.06215	0.00106
0.2	0.011321	0.0505	0.00088
0.2	0.01818	0.04555	0.0008
0.2	0.024564	0.0425	0.00075
0.2	0.030507	0.0415	0.00074
0.2	0.036066	0.0406	0.00072
0.2	0.041267	0.04065	0.00073
0.2	0.046153	0.0406	0.00072
0.3	0.0019802	0.06635	0.00112
0.3	0.0039219	0.0598	0.00102
0.3	0.011321	0.0478	0.00084
0.3	0.01818	0.04325	0.00077
0.3	0.024564	0.0405	0.00072
0.3	0.030507	0.03925	0.0007
0.3	0.036066	0.0388	0.0007
0.3	0.041267	0.03875	0.0007
0.3	0.046153	0.03875	0.0007
0.4	0.0019802	0.06425	0.00109
0.4	0.0039219	0.0557	0.00096
0.4	0.0076931	0.04835	0.00084
0.4	0.011321	0.04245	0.00075
0.4	0.01818	0.03845	0.00069
0.4	0.024564	0.03795	0.00068
0.4	0.030507	0.03745	0.00068
0.4	0.036066	0.03745	0.00068
0.4	0.041267	0.0375	0.00068
0.4	0.046153	0.0375	0.00068

System: N,N,N-trimethyl-1-hexadecanaminium bromide + 3-(10,11-dihydro-5H-dibenzo[a,d]cyclohepten-5-ylidine)-N,N-dimethyl-1-propanamine hydrochloride + water; phases: Liquid, Air at 1 atmosphere
Fixed: Temperature, K = 300
Property: Surface tension liquid-gas, N/m (Liquid); method: Ring tensiometer
Solvent: Amount concentration (molarity), mol/dm3 of N,N,N-trimethyl-1-hexadecanaminium bromide	Amount concentration (molarity), mol/dm3 of 3-(10,11-dihydro-5H-dibenzo[a,d]cyclohepten-5-ylidine)-N,N-dimethyl-1-propanamine hydrochloride	Surface tension liquid-gas, N/m	uncertainty
0	0.0015842	0.06915	0.00119
0	0.0031376	0.06275	0.00109
0	0.0090573	0.05525	0.00097
0	0.014545	0.05075	0.0009
0	0.024406	0.0461	0.00083
0	0.028854	0.04455	0.0008
0	0.033014	0.04315	0.00078
0	0.040598	0.04255	0.00077
0	0.045719	0.0425	0.00077
0.00025	0.0019611	0.0574	0.00101
0.00025	0.0038468	0.05175	0.00092
0.00025	0.007408	0.0462	0.00083
0.00025	0.0090949	0.0439	0.00079
0.00025	0.010715	0.0427	0.00077
0.00025	0.01228	0.04175	0.00076
0.00025	0.018034	0.03885	0.00071
0.00025	0.020635	0.0389	0.00071
0.00025	0.023078	0.039	0.00071
0.0005	0.0019611	0.0503	0.00089
0.0005	0.0038468	0.0451	0.00081
0.0005	0.0065418	0.0407	0.00074
0.0005	0.0090949	0.03785	0.0007
0.0005	0.010715	0.0372	0.00069
0.0005	0.013794	0.03725	0.00069
0.00075	0.00078433	0.04985	0.00089
0.00075	0.0015385	0.0449	0.00081
0.00075	0.0022641	0.0412	0.00075
0.00075	0.0033029	0.0384	0.0007
0.00075	0.0039637	0.03695	0.00068
0.00075	0.0046015	0.0364	0.00067
0.00075	0.0049125	0.03635	0.00067
0.00075	0.005517	0.03635	0.00067
0.001	0.00015937	0.05035	0.0009
0.001	0.000396	0.0432	0.00078
0.001	0.00055233	0.0398	0.00073
0.001	0.00093756	0.0352	0.00066
0.001	0.0013155	0.03245	0.00061
0.001	0.0016858	0.03245	0.00061
0.001	0.0020493	0.0325	0.00061
0.001	0.002617	0.03255	0.00061

System: N,N,N-trimethyl-1-hexadecanaminium bromide + 3-(10,11-dihydro-5H-dibenzo[b,f]azepin-5-yl)-N,N-dimethylpropan-1-amine hydrochloride (1:1) + water; phases: Liquid, Air at 1 atmosphere
Fixed: Temperature, K = 300
Property: Surface tension liquid-gas, N/m (Liquid); method: Ring tensiometer
Solvent: Amount concentration (molarity), mol/dm3 of N,N,N-trimethyl-1-hexadecanaminium bromide	Amount concentration (molarity), mol/dm3 of 3-(10,11-dihydro-5H-dibenzo[b,f]azepin-5-yl)-N,N-dimethylpropan-1-amine hydrochloride (1:1)	Surface tension liquid-gas, N/m	uncertainty
0	0.0036585	0.06855	0.00118
0	0.0071433	0.06215	0.00108
0	0.013636	0.0546	0.00096
0	0.019566	0.0517	0.00092
0	0.029999	0.04705	0.00084
0	0.038887	0.04375	0.00079
0	0.042865	0.043	0.00078
0	0.046548	0.0423	0.00077
0	0.050003	0.0423	0.00077
0	0.05769	0.0423	0.00077
0.00025	0.0039219	0.05945	0.00104
0.00025	0.0076931	0.05565	0.00098
0.00025	0.014815	0.04815	0.00086
0.00025	0.021429	0.04555	0.00082
0.00025	0.024564	0.04305	0.00078
0.00025	0.030507	0.0409	0.00074
0.00025	0.036066	0.03935	0.00072
0.00025	0.041267	0.03925	0.00072
0.00025	0.046153	0.03925	0.00072
0.0005	0.0019802	0.06065	0.00106
0.0005	0.0039219	0.05465	0.00096
0.0005	0.0076931	0.04685	0.00084
0.0005	0.011321	0.04225	0.00077
0.0005	0.014815	0.03995	0.00073
0.0005	0.01982	0.03815	0.0007
0.0005	0.021429	0.03755	0.00069
0.0005	0.024564	0.03715	0.00068
0.0005	0.030507	0.0372	0.00069
0.0005	0.036066	0.03725	0.00069
0.0005	0.041267	0.0373	0.00069
0.00075	0.00074251	0.05685	0.001
0.00075	0.0014706	0.0511	0.00091
0.00075	0.0028847	0.04455	0.0008
0.00075	0.0042648	0.04125	0.00075
0.00075	0.0055565	0.03825	0.0007
0.00075	0.0068187	0.03675	0.00068
0.00075	0.0092109	0.03475	0.00065
0.00075	0.011442	0.03455	0.00064
0.00075	0.013524	0.03465	0.00065
0.00075	0.015477	0.0346	0.00064
0.001	0.00074251	0.04735	0.00085
0.001	0.0010356	0.04265	0.00077
0.001	0.0017579	0.03785	0.0007
0.001	0.0024666	0.03505	0.00065
0.001	0.0031608	0.0322	0.00061
0.001	0.0038424	0.03235	0.00061
0.001	0.0045113	0.0323	0.00061
0.001	0.0051677	0.03235	0.00061
0.001	0.0061916	0.0322	0.00061

System: N,N,N-trimethyl-1-hexadecanaminium bromide + 2-chloro-10-(3-dimethylaminopropyl)phenothiazine hydrochloride + water; phases: Liquid, Air at 1 atmosphere
Fixed: Temperature, K = 300
Property: Surface tension liquid-gas, N/m (Liquid); method: Ring tensiometer
Solvent: Amount concentration (molarity), mol/dm3 of N,N,N-trimethyl-1-hexadecanaminium bromide	Amount concentration (molarity), mol/dm3 of 2-chloro-10-(3-dimethylaminopropyl)phenothiazine hydrochloride	Surface tension liquid-gas, N/m	uncertainty
0	0.0013807	0.0657	0.00127
0	0.0023437	0.0605	0.00118
0	0.0032885	0.05715	0.00112
0	0.0047621	0.0534	0.00105
0	0.0065418	0.0505	0.001
0	0.0090908	0.04715	0.00094
0	0.01228	0.0452	0.0009
0	0.015255	0.04415	0.00088
0	0.016665	0.044	0.00088
0	0.018034	0.04405	0.00088
0	0.019355	0.044	0.00088
0.00025	0.00049499	0.06485	0.00126
0.00025	0.0019231	0.05435	0.00107
0.00025	0.0037034	0.04825	0.00096
0.00025	0.0053567	0.04285	0.00086
0.00025	0.006896	0.0411	0.00083
0.00025	0.008333	0.0399	0.00081
0.00025	0.0096783	0.03925	0.0008
0.00025	0.010937	0.0392	0.0008
0.00025	0.01154	0.03925	0.0008
0.0005	0.00098039	0.0543	0.00107
0.0005	0.0019231	0.04925	0.00098
0.0005	0.0037034	0.04365	0.00088
0.0005	0.0053567	0.03965	0.0008
0.0005	0.006896	0.03815	0.00078
0.0005	0.008333	0.0376	0.00077
0.0005	0.0096783	0.0377	0.00077
0.0005	0.010937	0.0377	0.00077
0.0005	0.01154	0.03775	0.00077
0.00075	0.00039219	0.0528	0.00104
0.00075	0.00076931	0.0474	0.00094
0.00075	0.0011321	0.0427	0.00086
0.00075	0.001818	0.0384	0.00078
0.00075	0.0024564	0.03625	0.00074
0.00075	0.0030507	0.0357	0.00073
0.00075	0.0033335	0.0355	0.00073
0.00075	0.0038654	0.0355	0.00073
0.00075	0.0043752	0.0356	0.00073
0.00075	0.0046153	0.03555	0.00073
0.001	0.00019802	0.05185	0.00102
0.001	0.00039219	0.04655	0.00093
0.001	0.00076931	0.04075	0.00082
0.001	0.0011321	0.03625	0.00074
0.001	0.0014815	0.0344	0.00071
0.001	0.001818	0.03345	0.00069
0.001	0.0024564	0.03355	0.00069
0.001	0.0030507	0.0335	0.00069
0.001	0.0036066	0.0335	0.00069
0.001	0.0041267	0.03355	0.00069

System: N,N,N-trimethyl-1-hexadecanaminium bromide + promethazine hydrochloride + water; phases: Liquid, Air at 1 atmosphere
Fixed: Temperature, K = 300
Property: Surface tension liquid-gas, N/m (Liquid); method: Ring tensiometer
Solvent: Amount concentration (molarity), mol/dm3 of N,N,N-trimethyl-1-hexadecanaminium bromide	Amount concentration (molarity), mol/dm3 of promethazine hydrochloride	Surface tension liquid-gas, N/m	uncertainty
0	0.002941	0.0713	0.00123
0	0.005769	0.06415	0.00111
0	0.011112	0.05645	0.00099
0	0.01842	0.05035	0.00089
0	0.029034	0.04645	0.00083
0	0.036366	0.0434	0.00078
0	0.042865	0.04255	0.00077
0	0.048652	0.0422	0.00076
0	0.053852	0.0421	0.00076
0	0.058533	0.04215	0.00076
0.00025	0.0019802	0.06345	0.0011
0.00025	0.0039219	0.05855	0.00102
0.00025	0.0076931	0.05385	0.00095
0.00025	0.011321	0.04965	0.00088
0.00025	0.014815	0.04585	0.00082
0.00025	0.01818	0.04375	0.00079
0.00025	0.021429	0.04125	0.00075
0.00025	0.024564	0.04035	0.00074
0.00025	0.030507	0.03905	0.00071
0.00025	0.036066	0.03835	0.0007
0.00025	0.041267	0.0383	0.0007
0.00025	0.046153	0.0383	0.0007
0.0005	0.0019802	0.06005	0.00105
0.0005	0.0039219	0.05465	0.00096
0.0005	0.0076931	0.0476	0.00085
0.0005	0.011321	0.04285	0.00078
0.0005	0.014815	0.0403	0.00073
0.0005	0.01818	0.03845	0.00071
0.0005	0.021429	0.0365	0.00067
0.0005	0.024564	0.03615	0.00067
0.0005	0.030507	0.0361	0.00067
0.0005	0.036066	0.03615	0.00067
0.0005	0.041267	0.03615	0.00067
0.0005	0.043752	0.03615	0.00067
0.00075	0.00074251	0.05885	0.00103
0.00075	0.0014706	0.05135	0.00091
0.00075	0.0028847	0.04445	0.0008
0.00075	0.0042648	0.04115	0.00075
0.00075	0.0055565	0.0384	0.00071
0.00075	0.0080371	0.0356	0.00066
0.00075	0.010347	0.03425	0.00064
0.00075	0.015477	0.0343	0.00064
0.00075	0.017306	0.03435	0.00064
0.001	0.00074251	0.04405	0.0008
0.001	0.0010356	0.04065	0.00074
0.001	0.0014706	0.0364	0.00068
0.001	0.0017579	0.03365	0.00063
0.001	0.0021847	0.0325	0.00061
0.001	0.0028847	0.03225	0.00061
0.001	0.0042648	0.0323	0.00061
0.001	0.0049068	0.03225	0.00061
0.001	0.0055565	0.03235	0.00061
0.001	0.0049068	0.03225	0.00061
