Measured thermophysical data. Density and Excess Molar Volume for Binary Mixtures of Naphthenic Acid Ionic Liquids and Ethanol
Source: J. Chem. Eng. Data, 2010, 10.1021/je900544m
Compound 1: ethanol, C2H6O, InChI=1S/C2H6O/c1-2-3/h3H,2H2,1H3, purity 99.9%
Compound 2: 2-hydroxy-N,N,N-trimethylethan-1-aminium cyclohexanecarboxylate, C12H25NO3, InChI=1S/C7H12O2.C5H14NO/c8-7(9)6-4-2-1-3-5-6;1-6(2,3)4-5-7/h6H,1-5H2,(H,8,9);7H,4-5H2,1-3H3/q;+1/p-1
Compound 3: choline cyclopentane carboxylate, C11H23NO3, InChI=1S/C6H10O2.C5H14NO/c7-6(8)5-3-1-2-4-5;1-6(2,3)4-5-7/h5H,1-4H2,(H,7,8);7H,4-5H2,1-3H3/q;+1/p-1

System: ethanol; phases: Liquid
Fixed: Pressure, kPa = 101
Property: Mass density, kg/m3 (Liquid); method: Vibrating tube method
Temperature, K	Mass density, kg/m3	uncertainty
293.15	789.921	0.114
298.15	785.631	0.116
303.15	781.313	0.118
308.15	776.961	0.119
313.15	772.569	0.121
318.15	768.129	0.123
323.15	763.643	0.125

System: 2-hydroxy-N,N,N-trimethylethan-1-aminium cyclohexanecarboxylate; phases: Liquid
Fixed: Pressure, kPa = 101
Property: Mass density, kg/m3 (Liquid); method: Vibrating tube method
Temperature, K	Mass density, kg/m3	uncertainty
293.15	1070.688	2.182
298.15	1067.771	2.169
303.15	1064.857	2.157
308.15	1061.954	2.144
313.15	1059.052	2.132
318.15	1056.156	2.119
323.15	1053.262	2.107

System: choline cyclopentane carboxylate; phases: Liquid
Fixed: Pressure, kPa = 101
Property: Mass density, kg/m3 (Liquid); method: Vibrating tube method
Temperature, K	Mass density, kg/m3	uncertainty
293.15	1092.476	6.469
298.15	1089.616	6.435
303.15	1086.76	6.4
308.15	1083.909	6.366
313.15	1081.066	6.332
318.15	1078.224	6.298
323.15	1075.387	6.264

System: ethanol + 2-hydroxy-N,N,N-trimethylethan-1-aminium cyclohexanecarboxylate; phases: Liquid
Fixed: Pressure, kPa = 101
Property: Mass density, kg/m3 (Liquid); method: Vibrating tube method
Temperature, K	Mole fraction of 2-hydroxy-N,N,N-trimethylethan-1-aminium cyclohexanecarboxylate	Mass density, kg/m3	uncertainty
293.15	0	789.921	0.114
293.15	0.1	884.111	0.18
293.15	0.2	939.492	0.164
293.15	0.3	977.638	0.227
293.15	0.4	1003.876	0.353
293.15	0.5	1020.607	0.54
293.15	0.5999	1034.454	0.773
293.15	0.7	1045.82	1.052
293.15	0.8	1054.632	1.377
293.15	0.8999	1062.969	1.753
293.15	1	1070.688	2.182
298.15	0	785.631	0.116
298.15	0.1	880.427	0.181
298.15	0.2	936.092	0.165
298.15	0.3	974.422	0.227
298.15	0.4	1000.8	0.35
298.15	0.5	1017.52	0.536
298.15	0.5999	1031.406	0.767
298.15	0.7	1042.819	1.045
298.15	0.8	1051.664	1.369
298.15	0.8999	1060.028	1.742
298.15	1	1067.771	2.169
303.15	0	781.313	0.118
303.15	0.1	876.732	0.183
303.15	0.2	932.694	0.166
303.15	0.3	971.201	0.227
303.15	0.4	997.714	0.348
303.15	0.5	1014.426	0.531
303.15	0.5999	1028.358	0.762
303.15	0.7	1039.825	1.038
303.15	0.8	1048.699	1.36
303.15	0.8999	1057.095	1.732
303.15	1	1064.857	2.157
308.15	0	776.961	0.119
308.15	0.1	873.026	0.184
308.15	0.2	929.294	0.167
308.15	0.3	967.983	0.227
308.15	0.4	994.621	0.348
308.15	0.5	1011.378	0.527
308.15	0.5999	1025.304	0.756
308.15	0.7	1036.831	1.032
308.15	0.8	1045.742	1.351
308.15	0.8999	1054.166	1.722
308.15	1	1061.954	2.144
313.15	0	772.569	0.121
313.15	0.1	869.305	0.186
313.15	0.2	925.891	0.168
313.15	0.3	964.764	0.227
313.15	0.4	991.526	0.347
313.15	0.5	1008.388	0.523
313.15	0.5999	1022.278	0.751
313.15	0.7	1033.834	1.025
313.15	0.8	1042.782	1.343
313.15	0.8999	1051.243	1.711
313.15	1	1059.052	2.132
318.15	0	768.129	0.123
318.15	0.1	865.569	0.187
318.15	0.2	922.481	0.169
318.15	0.3	961.547	0.228
318.15	0.4	988.431	0.346
318.15	0.5	1005.38	0.519
318.15	0.5999	1019.32	0.746
318.15	0.7	1030.832	1.018
318.15	0.8	1039.815	1.334
318.15	0.8999	1048.324	1.701
318.15	1	1056.156	2.119
323.15	0	763.643	0.125
323.15	0.1	861.812	0.189
323.15	0.2	919.065	0.17
323.15	0.3	958.33	0.228
323.15	0.4	985.334	0.346
323.15	0.5	1002.364	0.515
323.15	0.5999	1016.343	0.74
323.15	0.7	1027.835	1.011
323.15	0.8	1036.855	1.326
323.15	0.8999	1045.406	1.691
323.15	1	1053.262	2.107

System: ethanol + choline cyclopentane carboxylate; phases: Liquid
Fixed: Pressure, kPa = 101
Property: Mass density, kg/m3 (Liquid); method: Vibrating tube method
Temperature, K	Mole fraction of choline cyclopentane carboxylate	Mass density, kg/m3	uncertainty
293.15	0	789.921	0.114
293.15	0.1	883.761	0.181
293.15	0.2	941.296	0.166
293.15	0.3	980.491	0.228
293.15	0.3999	1009.161	0.359
293.15	0.5001	1031.159	0.555
293.15	0.5992	1048.049	0.796
293.15	0.7	1062.087	1.09
293.15	0.7986	1073.668	1.428
293.15	0.9001	1083.359	1.828
293.15	1	1092.476	2.278
298.15	0	785.631	0.116
298.15	0.1	880.058	0.183
298.15	0.2	937.876	0.166
298.15	0.3	977.241	0.228
298.15	0.3999	1006.035	0.356
298.15	0.5001	1028.152	0.551
298.15	0.5992	1045.022	0.79
298.15	0.7	1059.122	1.083
298.15	0.7986	1070.713	1.42
298.15	0.9001	1080.47	1.817
298.15	1	1089.616	2.265
303.15	0	781.313	0.118
303.15	0.1	876.346	0.184
303.15	0.2	934.456	0.167
303.15	0.3	973.993	0.228
303.15	0.3999	1002.907	0.353
303.15	0.5001	1025.132	0.547
303.15	0.5992	1041.989	0.785
303.15	0.7	1056.16	1.08
303.15	0.7986	1067.766	1.411
303.15	0.9001	1077.581	1.807
303.15	1	1086.76	2.253
308.15	0	776.961	0.119
308.15	0.1	872.62	0.186
308.15	0.2	931.034	0.168
308.15	0.3	970.744	0.228
308.15	0.3999	999.781	0.35
308.15	0.5001	1022.098	0.543
308.15	0.5992	1039.004	0.78
308.15	0.7	1053.198	1.07
308.15	0.7986	1064.83	1.4
308.15	0.9001	1074.698	1.796
308.15	1	1083.909	2.24
313.15	0	772.569	0.121
313.15	0.1	868.882	0.187
313.15	0.2	927.61	0.169
313.15	0.3	967.493	0.228
313.15	0.3999	996.653	0.349
313.15	0.5001	1019.059	0.539
313.15	0.5992	1036.073	0.774
313.15	0.7	1050.244	1.063
313.15	0.7986	1061.9	1.4
313.15	0.9001	1071.818	1.786
313.15	1	1081.066	2.228
318.15	0	768.129	0.123
318.15	0.1	865.346	0.189
318.15	0.2	924.175	0.17
318.15	0.3	964.241	0.229
318.15	0.3999	993.519	0.349
318.15	0.5001	1016.017	0.534
318.15	0.5992	1033.125	0.769
318.15	0.7	1047.289	1.056
318.15	0.7986	1058.956	1.385
318.15	0.9001	1068.938	1.775
318.15	1	1078.224	2.215
323.15	0	763.643	0.125
323.15	0.1	861.675	0.19
323.15	0.2	920.729	0.171
323.15	0.3	961.028	0.229
323.15	0.3999	990.377	0.348
323.15	0.5001	1012.964	0.53
323.15	0.5992	1030.17	0.764
323.15	0.7	1044.338	1.049
323.15	0.7986	1056.007	1.377
323.15	0.9001	1066.058	1.765
323.15	1	1075.387	2.203
