Measured thermophysical data. Solubility of Acetamide, Propionamide, and Butyramide in Water at Temperatures between (278.15 and 333.15) K
Source: J. Chem. Eng. Data, 2010, 10.1021/je9007475
Compound 1: ethanamide, C2H5NO, InChI=1S/C2H5NO/c1-2(3)4/h1H3,(H2,3,4), purity 99%
Compound 2: water, H2O, InChI=1S/H2O/h1H2
Compound 3: propanamide, C3H7NO, InChI=1S/C3H7NO/c1-2-3(4)5/h2H2,1H3,(H2,4,5), purity 97%
Compound 4: butanamide, C4H9NO, InChI=1S/C4H9NO/c1-2-3-4(5)6/h2-3H2,1H3,(H2,5,6), purity 98%

System: ethanamide + water; phases: Liquid, Crystal
Fixed: Pressure, kPa = 101
Property: Mole fraction of ethanamide (Liquid); method: gravimetric
Temperature, K	Mole fraction of ethanamide	uncertainty
278.15	0.3087	0.03
283.15	0.3424	0.03
288.15	0.3709	0.03
293.15	0.4017	0.0301
298.15	0.4431	0.0301
303.15	0.4775	0.0301
308.15	0.5149	0.0301
313.15	0.5563	0.0302
318.15	0.5913	0.0302
323.15	0.6308	0.0303
328.15	0.6773	0.0304
333.15	0.7213	0.0305

System: propanamide + water; phases: Liquid, Crystal
Fixed: Pressure, kPa = 101
Property: Mole fraction of propanamide (Liquid); method: gravimetric
Temperature, K	Mole fraction of propanamide	uncertainty
278.15	0.1336	0.03
283.15	0.1629	0.03
288.15	0.1945	0.03
293.15	0.2315	0.0301
298.15	0.2757	0.0301
303.15	0.3153	0.0301
308.15	0.3708	0.0301
313.15	0.3999	0.0301
318.15	0.4503	0.0301
323.15	0.4859	0.0301
328.15	0.527	0.0301
333.15	0.5678	0.0302

System: butanamide + water; phases: Liquid, Crystal
Fixed: Pressure, kPa = 101
Property: Mole fraction of butanamide (Liquid); method: gravimetric
Temperature, K	Mole fraction of butanamide	uncertainty
278.15	0.0163	0.0163
283.15	0.021	0.021
288.15	0.026	0.026
293.15	0.0331	0.03
298.15	0.0442	0.03
303.15	0.0575	0.03
308.15	0.0724	0.03
313.15	0.0895	0.03
318.15	0.1089	0.03
323.15	0.1305	0.03
328.15	0.1524	0.03
333.15	0.1748	0.03
