Measured thermophysical data. Thermodynamics of Aggregation of Ammonium/Tetraalkylammonium Perfluorooctanoates: Effect of Counterions
Source: J. Chem. Eng. Data, 2010, 10.1021/je900916e
Compound 1: ammonium perfluorooctanoate, C8H4F15NO2, InChI=1S/C8HF15O2.H3N/c9-2(10,1(24)25)3(11,12)4(13,14)5(15,16)6(17,18)7(19,20)8(21,22)23;/h(H,24,25);1H3
Compound 2: tetrabutylammonium perfluorooctanoate, C24H36F15NO2, InChI=1S/C16H36N.C8HF15O2/c1-5-9-13-17(14-10-6-2,15-11-7-3)16-12-8-4;9-2(10,1(24)25)3(11,12)4(13,14)5(15,16)6(17,18)7(19,20)8(21,22)23/h5-16H2,1-4H3;(H,24,25)/q+1;/p-1
Compound 3: tetramethylammonium perfluorooctanoate, C12H12F15NO2, InChI=1S/C8HF15O2.C4H12N/c9-2(10,1(24)25)3(11,12)4(13,14)5(15,16)6(17,18)7(19,20)8(21,22)23;1-5(2,3)4/h(H,24,25);1-4H3/q;+1/p-1
Compound 4: tetraethylammonium perfluorooctanoate, C16H20F15NO2, InChI=1S/C8HF15O2.C8H20N/c9-2(10,1(24)25)3(11,12)4(13,14)5(15,16)6(17,18)7(19,20)8(21,22)23;1-5-9(6-2,7-3)8-4/h(H,24,25);5-8H2,1-4H3/q;+1/p-1
Compound 5: tetrapropylammonium perfluorooctanoate, C20H28F15NO2, InChI=1S/C12H28N.C8HF15O2/c1-5-9-13(10-6-2,11-7-3)12-8-4;9-2(10,1(24)25)3(11,12)4(13,14)5(15,16)6(17,18)7(19,20)8(21,22)23/h5-12H2,1-4H3;(H,24,25)/q+1;/p-1
Compound 6: water, H2O, InChI=1S/H2O/h1H2

System: ammonium perfluorooctanoate + water; phases: Liquid
Fixed: Pressure, kPa = 101
Property: Electrical conductivity, S/m (Liquid); method: Advanced Condctivity Orion 162A
Temperature, K	Amount concentration (molarity), mol/dm3 of ammonium perfluorooctanoate	Electrical conductivity, S/m	uncertainty
288.15	0.002632	0.019	0.0001
288.15	0.005195	0.0351	0.0001
288.15	0.007692	0.051	0.0001
288.15	0.01013	0.0665	0.0001
288.15	0.0125	0.0805	0.0002
288.15	0.01481	0.0943	0.0002
288.15	0.01707	0.1074	0.0002
288.15	0.01928	0.1198	0.0002
288.15	0.02143	0.1318	0.0003
288.15	0.02353	0.1429	0.0003
288.15	0.02558	0.1533	0.0003
288.15	0.02759	0.163	0.0003
288.15	0.02955	0.1691	0.0003
288.15	0.03146	0.174	0.0004
288.15	0.03333	0.1785	0.0004
288.15	0.03516	0.1828	0.0004
288.15	0.03696	0.187	0.0004
288.15	0.03957	0.1926	0.0004
288.15	0.04211	0.1982	0.0004
288.15	0.04456	0.2036	0.0004
288.15	0.04694	0.209	0.0004
288.15	0.05	0.2155	0.0004
288.15	0.05294	0.2216	0.0004
288.15	0.05577	0.2275	0.0005
293.15	0.002632	0.021	0.0001
293.15	0.005195	0.0402	0.0001
293.15	0.007692	0.0582	0.0001
293.15	0.01013	0.0753	0.0002
293.15	0.0125	0.092	0.0002
293.15	0.01481	0.1078	0.0002
293.15	0.01707	0.1224	0.0003
293.15	0.01928	0.1364	0.0003
293.15	0.02143	0.1498	0.0003
293.15	0.02353	0.1625	0.0003
293.15	0.02558	0.1735	0.0004
293.15	0.02759	0.1815	0.0004
293.15	0.02955	0.1888	0.0004
293.15	0.03146	0.1942	0.0004
293.15	0.03333	0.1995	0.0004
293.15	0.03516	0.2045	0.0004
293.15	0.03696	0.209	0.0004
293.15	0.03957	0.216	0.0004
293.15	0.04211	0.222	0.0004
293.15	0.04536	0.231	0.0005
293.15	0.04848	0.239	0.0005
293.15	0.05149	0.247	0.0005
293.15	0.05437	0.2545	0.0005
298.15	0.002817	0.0241	0.0001
298.15	0.005556	0.0457	0.0001
298.15	0.008219	0.0665	0.0001
298.15	0.01081	0.0848	0.0002
298.15	0.01333	0.1033	0.0002
298.15	0.01579	0.1221	0.0003
298.15	0.01818	0.1411	0.0003
298.15	0.02051	0.1577	0.0003
298.15	0.02278	0.1735	0.0004
298.15	0.025	0.1884	0.0004
298.15	0.02716	0.199	0.0004
298.15	0.02927	0.2067	0.0004
298.15	0.03132	0.2144	0.0004
298.15	0.03333	0.2207	0.0004
298.15	0.03529	0.2269	0.0005
298.15	0.03721	0.2337	0.0005
298.15	0.03908	0.2394	0.0005
298.15	0.04091	0.2452	0.0005
298.15	0.0427	0.251	0.0005
298.15	0.04444	0.2558	0.0005
298.15	0.04699	0.2635	0.0005
298.15	0.04946	0.2721	0.0005
298.15	0.05185	0.2798	0.0006
298.15	0.05417	0.2856	0.0006
298.15	0.05641	0.2923	0.0006
303.15	0.002632	0.0264	0.0001
303.15	0.005195	0.0503	0.0001
303.15	0.007692	0.0726	0.0002
303.15	0.01013	0.0937	0.0002
303.15	0.0125	0.1137	0.0002
303.15	0.01481	0.1325	0.0003
303.15	0.01707	0.1505	0.0003
303.15	0.01928	0.1679	0.0003
303.15	0.02143	0.1833	0.0004
303.15	0.02353	0.1983	0.0004
303.15	0.02558	0.2125	0.0004
303.15	0.02759	0.221	0.0004
303.15	0.02955	0.229	0.0005
303.15	0.03146	0.236	0.0005
303.15	0.03333	0.243	0.0005
303.15	0.03516	0.2495	0.0005
303.15	0.03696	0.256	0.0005
303.15	0.03957	0.2645	0.0005
303.15	0.04211	0.273	0.0005
303.15	0.04456	0.281	0.0006
303.15	0.04694	0.289	0.0006
303.15	0.05	0.299	0.0006
303.15	0.05294	0.309	0.0006
303.15	0.05577	0.3185	0.0006
308.15	0.002632	0.0291	0.0001
308.15	0.005195	0.0556	0.0001
308.15	0.007692	0.0802	0.0002
308.15	0.01013	0.1034	0.0002
308.15	0.0125	0.1244	0.0003
308.15	0.01481	0.1452	0.0003
308.15	0.01707	0.165	0.0003
308.15	0.01928	0.1844	0.0004
308.15	0.02143	0.203	0.0004
308.15	0.02353	0.22	0.0004
308.15	0.02558	0.232	0.0005
308.15	0.02759	0.242	0.0005
308.15	0.02955	0.251	0.0005
308.15	0.03146	0.259	0.0005
308.15	0.03333	0.267	0.0005
308.15	0.03516	0.274	0.0006
308.15	0.03696	0.281	0.0006
308.15	0.03957	0.291	0.0006
308.15	0.04211	0.301	0.0006
308.15	0.04456	0.3105	0.0006
308.15	0.04772	0.322	0.0006
308.15	0.05075	0.333	0.0007
308.15	0.05366	0.344	0.0007
313.15	0.002632	0.0318	0.0001
313.15	0.005195	0.0606	0.0001
313.15	0.007692	0.0875	0.0002
313.15	0.01013	0.1126	0.0002
313.15	0.0125	0.1364	0.0003
313.15	0.01481	0.1592	0.0003
313.15	0.01707	0.1811	0.0004
313.15	0.01928	0.2025	0.0004
313.15	0.02143	0.223	0.0004
313.15	0.02353	0.241	0.0005
313.15	0.02558	0.256	0.0005
313.15	0.02759	0.267	0.0005
313.15	0.02955	0.277	0.0006
313.15	0.03146	0.286	0.0006
313.15	0.03333	0.295	0.0006
313.15	0.03516	0.303	0.0006
313.15	0.03696	0.311	0.0006
313.15	0.03957	0.322	0.0006
313.15	0.04211	0.333	0.0007
313.15	0.04456	0.344	0.0007
313.15	0.04694	0.354	0.0007
313.15	0.05	0.367	0.0007
313.15	0.05294	0.38	0.0008
318.15	0.002632	0.0344	0.0001
318.15	0.005195	0.0656	0.0001
318.15	0.007692	0.0948	0.0002
318.15	0.01013	0.1225	0.0003
318.15	0.0125	0.1474	0.0003
318.15	0.01481	0.1726	0.0003
318.15	0.01707	0.1968	0.0004
318.15	0.01928	0.219	0.0004
318.15	0.02143	0.241	0.0005
318.15	0.02353	0.262	0.0005
318.15	0.02558	0.279	0.0006
318.15	0.02759	0.292	0.0006
318.15	0.02955	0.303	0.0006
318.15	0.03146	0.313	0.0006
318.15	0.03333	0.323	0.0006
318.15	0.03516	0.3325	0.0007
318.15	0.03696	0.3415	0.0007
318.15	0.03957	0.3535	0.0007
318.15	0.04211	0.3655	0.0007
318.15	0.04456	0.377	0.0008
318.15	0.04772	0.3915	0.0008
318.15	0.05074	0.4055	0.0008
318.15	0.05366	0.419	0.0008

System: water + tetrabutylammonium perfluorooctanoate; phases: Liquid
Fixed: Pressure, kPa = 101
Property: Electrical conductivity, S/m (Liquid); method: Advanced Conductivity Orion 162A
Temperature, K	Amount concentration (molarity), mol/dm3 of tetrabutylammonium perfluorooctanoate	Electrical conductivity, S/m	uncertainty
283.1	0.000329	0.00105	1e-05
283.1	0.000649	0.0019	1e-05
283.1	0.000962	0.00271	1e-05
283.1	0.001266	0.00351	1e-05
283.1	0.001562	0.00431	1e-05
283.1	0.001852	0.00505	1e-05
283.1	0.002134	0.00579	1e-05
283.1	0.00241	0.00643	1e-05
283.1	0.002678	0.00707	2e-05
283.1	0.002941	0.00749	2e-05
283.1	0.003198	0.00762	2e-05
283.1	0.003448	0.0077	2e-05
283.1	0.003814	0.00782	2e-05
283.1	0.004167	0.00793	2e-05
283.1	0.004508	0.00803	2e-05
283.1	0.004839	0.00812	2e-05
283.1	0.005159	0.00821	2e-05
283.1	0.005469	0.00831	2e-05
288.15	0.000247	0.00099	1e-05
288.15	0.000488	0.00175	1e-05
288.15	0.000723	0.00249	1e-05
288.15	0.000952	0.0032	1e-05
288.15	0.001176	0.00389	1e-05
288.15	0.001395	0.00457	1e-05
288.15	0.001609	0.00521	1e-05
288.15	0.001818	0.00582	1e-05
288.15	0.00202	0.00641	1e-05
288.15	0.002222	0.00704	2e-05
288.15	0.002418	0.00756	2e-05
288.15	0.002609	0.00796	2e-05
288.15	0.002796	0.00811	2e-05
288.15	0.002979	0.00819	2e-05
288.15	0.003246	0.0083	2e-05
288.15	0.003505	0.00839	2e-05
288.15	0.003838	0.00852	2e-05
288.15	0.004158	0.00863	2e-05
288.15	0.004466	0.00873	2e-05
288.15	0.004906	0.00888	2e-05
288.15	0.005321	0.00902	2e-05
293.15	0.000263	0.00116	1e-05
293.15	0.000519	0.0021	1e-05
293.15	0.000769	0.00299	1e-05
293.15	0.001013	0.00386	1e-05
293.15	0.00125	0.00471	1e-05
293.15	0.001481	0.00552	1e-05
293.15	0.001707	0.00626	1e-05
293.15	0.001928	0.00699	2e-05
293.15	0.002143	0.0077	2e-05
293.15	0.002353	0.00829	2e-05
293.15	0.002558	0.0085	2e-05
293.15	0.002759	0.00862	2e-05
293.15	0.002954	0.00871	2e-05
293.15	0.00324	0.00884	2e-05
293.15	0.003516	0.00895	2e-05
293.15	0.003784	0.00907	2e-05
293.15	0.004042	0.0092	2e-05
293.15	0.004375	0.00931	2e-05
293.15	0.004694	0.00944	2e-05
293.15	0.005	0.00956	2e-05
298.15	0.000248	0.00124	1e-05
298.15	0.00049	0.00229	1e-05
298.15	0.000728	0.0033	1e-05
298.15	0.000962	0.0043	1e-05
298.15	0.00119	0.00528	1e-05
298.15	0.001415	0.00618	1e-05
298.15	0.001636	0.00703	2e-05
298.15	0.001852	0.00789	2e-05
298.15	0.002064	0.00869	2e-05
298.15	0.002273	0.00907	2e-05
298.15	0.002477	0.00916	2e-05
298.15	0.002728	0.00927	2e-05
298.15	0.003094	0.00944	2e-05
298.15	0.003448	0.00959	2e-05
298.15	0.003814	0.00976	2e-05
298.15	0.004167	0.00992	2e-05
298.15	0.004592	0.01011	2e-05
298.15	0.005	0.01028	2e-05
303.15	0.000263	0.00148	1e-05
303.15	0.000519	0.00267	1e-05
303.15	0.000769	0.00383	1e-05
303.15	0.001013	0.00497	1e-05
303.15	0.00125	0.0061	1e-05
303.15	0.001481	0.00717	2e-05
303.15	0.001707	0.00814	2e-05
303.15	0.001928	0.00909	2e-05
303.15	0.002143	0.00964	2e-05
303.15	0.002353	0.00979	2e-05
303.15	0.002558	0.00989	2e-05
303.15	0.002759	0.00998	2e-05
303.15	0.002954	0.01005	2e-05
303.15	0.00324	0.01016	2e-05
303.15	0.003516	0.01026	2e-05
303.15	0.003784	0.01035	2e-05
303.15	0.004042	0.01044	2e-05
303.15	0.004375	0.01055	2e-05
303.15	0.004694	0.01065	2e-05
308.15	0.000309	0.00189	1e-05
308.15	0.00061	0.0034	1e-05
308.15	0.000904	0.00484	1e-05
308.15	0.00119	0.00633	1e-05
308.15	0.00147	0.00774	2e-05
308.15	0.001744	0.00909	2e-05
308.15	0.002011	0.01001	2e-05
308.15	0.002273	0.01017	2e-05
308.15	0.002423	0.01022	2e-05
308.15	0.002578	0.01026	2e-05
308.15	0.002728	0.0103	2e-05
308.15	0.002876	0.01034	2e-05

System: water + tetramethylammonium perfluorooctanoate; phases: Liquid
Fixed: Pressure, kPa = 101
Property: Electrical conductivity, S/m (Liquid); method: Advanced Conductivity Orion 162A
Temperature, K	Amount concentration (molarity), mol/dm3 of tetramethylammonium perfluorooctanoate	Electrical conductivity, S/m	uncertainty
288.15	0.001316	0.00725	2e-05
288.15	0.002597	0.0135	3e-05
288.15	0.003846	0.01958	4e-05
288.15	0.005063	0.0253	5e-05
288.15	0.00625	0.0306	6e-05
288.15	0.007407	0.0357	7e-05
288.15	0.008536	0.0405	8e-05
288.15	0.009638	0.0451	9e-05
288.15	0.01071	0.0494	0.0001
288.15	0.01176	0.0536	0.00011
288.15	0.01279	0.0574	0.00011
288.15	0.01379	0.0598	0.00012
288.15	0.01477	0.0611	0.00012
288.15	0.01573	0.0622	0.00012
288.15	0.01704	0.0637	0.00013
288.15	0.01848	0.0656	0.00013
288.15	0.02004	0.0675	0.00014
288.15	0.02171	0.0693	0.00014
288.15	0.02331	0.0714	0.00014
288.15	0.02485	0.0732	0.00015
293.15	0.001316	0.00808	2e-05
293.15	0.002597	0.01512	3e-05
293.15	0.003846	0.0218	4e-05
293.15	0.005063	0.0282	6e-05
293.15	0.00625	0.0341	7e-05
293.15	0.007407	0.0401	8e-05
293.15	0.008537	0.0455	9e-05
293.15	0.009638	0.0503	0.0001
293.15	0.01071	0.0551	0.00011
293.15	0.01176	0.0597	0.00012
293.15	0.01279	0.0634	0.00013
293.15	0.01379	0.0657	0.00013
293.15	0.01477	0.0675	0.00014
293.15	0.01573	0.0691	0.00014
293.15	0.01667	0.0706	0.00014
293.15	0.01803	0.0726	0.00015
293.15	0.01935	0.0745	0.00015
293.15	0.02063	0.0764	0.00015
293.15	0.02187	0.0781	0.00016
293.15	0.02347	0.0803	0.00016
293.15	0.025	0.0825	0.00017
298.15	0.001234	0.0087	2e-05
298.15	0.002439	0.01642	3e-05
298.15	0.003614	0.0236	5e-05
298.15	0.004762	0.0304	6e-05
298.15	0.005882	0.0371	7e-05
298.15	0.006977	0.0435	9e-05
298.15	0.008046	0.0498	0.0001
298.15	0.009091	0.0554	0.00011
298.15	0.01011	0.0612	0.00012
298.15	0.01111	0.0661	0.00013
298.15	0.01209	0.0713	0.00014
298.15	0.01304	0.0744	0.00015
298.15	0.01398	0.0766	0.00015
298.15	0.01489	0.0785	0.00016
298.15	0.01579	0.0801	0.00016
298.15	0.0171	0.0823	0.00016
298.15	0.01837	0.0844	0.00017
298.15	0.02	0.087	0.00017
298.15	0.02157	0.0895	0.00018
298.15	0.02308	0.092	0.00018
298.15	0.02453	0.0944	0.00019
298.15	0.02593	0.0968	0.00019
303.15	0.001316	0.00997	2e-05
303.15	0.002597	0.01874	4e-05
303.15	0.003846	0.0272	5e-05
303.15	0.005063	0.0352	7e-05
303.15	0.00625	0.0427	9e-05
303.15	0.007407	0.0498	0.0001
303.15	0.008537	0.0566	0.00011
303.15	0.009638	0.063	0.00013
303.15	0.01071	0.0691	0.00014
303.15	0.01176	0.0748	0.00015
303.15	0.01279	0.0795	0.00016
303.15	0.01379	0.0823	0.00016
303.15	0.01477	0.0844	0.00017
303.15	0.01573	0.0864	0.00017
303.15	0.01667	0.0884	0.00018
303.15	0.01803	0.0912	0.00018
303.15	0.01935	0.0938	0.00019
303.15	0.02063	0.0964	0.00019
303.15	0.02187	0.0988	0.0002
303.15	0.02347	0.1017	0.0002
303.15	0.025	0.1045	0.00021
308.15	0.001316	0.01109	2e-05
308.15	0.002597	0.0209	4e-05
308.15	0.003846	0.0302	6e-05
308.15	0.005063	0.0388	8e-05
308.15	0.00625	0.0475	0.0001
308.15	0.007407	0.0554	0.00011
308.15	0.008536	0.0626	0.00013
308.15	0.009638	0.07	0.00014
308.15	0.01071	0.077	0.00015
308.15	0.01176	0.0828	0.00017
308.15	0.01279	0.0888	0.00018
308.15	0.01379	0.0918	0.00018
308.15	0.01477	0.095	0.00019
308.15	0.01573	0.0969	0.00019
308.15	0.01667	0.0996	0.0002
308.15	0.01758	0.101	0.0002
308.15	0.01848	0.1029	0.00021
308.15	0.02021	0.1067	0.00021
308.15	0.02188	0.1102	0.00022
308.15	0.02347	0.1136	0.00023
308.15	0.025	0.1168	0.00023
308.15	0.02647	0.1208	0.00024
313.15	0.001316	0.01241	3e-05
313.15	0.002597	0.0231	5e-05
313.15	0.003846	0.0333	7e-05
313.15	0.005063	0.0428	9e-05
313.15	0.00625	0.0521	0.0001
313.15	0.007407	0.0608	0.00012
313.15	0.008537	0.0687	0.00014
313.15	0.009638	0.0765	0.00015
313.15	0.01071	0.0841	0.00017
313.15	0.01176	0.0905	0.00018
313.15	0.01279	0.0971	0.00019
313.15	0.01379	0.1009	0.0002
313.15	0.01477	0.1039	0.00021
313.15	0.01573	0.1067	0.00021
313.15	0.01667	0.1091	0.00022
313.15	0.01803	0.1125	0.00023
313.15	0.01935	0.1158	0.00023
313.15	0.02063	0.119	0.00024
313.15	0.02187	0.122	0.00024
313.15	0.02347	0.1258	0.00025
313.15	0.025	0.1294	0.00026
318.15	0.001316	0.01322	3e-05
318.15	0.002597	0.0253	5e-05
318.15	0.003846	0.0367	7e-05
318.15	0.005063	0.0466	9e-05
318.15	0.00625	0.0564	0.00011
318.15	0.007407	0.0659	0.00013
318.15	0.008536	0.0745	0.00015
318.15	0.009638	0.0838	0.00017
318.15	0.01071	0.0921	0.00018
318.15	0.01176	0.0993	0.0002
318.15	0.01279	0.1064	0.00021
318.15	0.01379	0.1119	0.00022
318.15	0.01477	0.1156	0.00023
318.15	0.01573	0.1188	0.00024
318.15	0.01667	0.1218	0.00024
318.15	0.01803	0.1263	0.00025
318.15	0.01935	0.1307	0.00026
318.15	0.02105	0.1349	0.00027
318.15	0.02268	0.14	0.00028
318.15	0.02424	0.1434	0.00029
318.15	0.02574	0.1473	0.00029

System: water + tetraethylammonium perfluorooctanoate; phases: Liquid
Fixed: Pressure, kPa = 101
Property: Electrical conductivity, S/m (Liquid); method: Advanced Conductivity Orion 162A
Temperature, K	Amount concentration (molarity), mol/dm3 of tetraethylammonium perfluorooctanoate	Electrical conductivity, S/m	uncertainty
288.15	0.000744	0.00332	7e-05
288.15	0.001478	0.00651	0.00013
288.15	0.0022	0.0094	0.00019
288.15	0.002913	0.01219	0.00024
288.15	0.003614	0.01501	0.0003
288.15	0.004306	0.0176	0.00035
288.15	0.005101	0.0205	0.00041
288.15	0.005882	0.0233	0.00047
288.15	0.006651	0.0258	0.00052
288.15	0.007407	0.0275	0.00055
288.15	0.008152	0.0283	0.00057
288.15	0.009091	0.0292	0.00058
288.15	0.01011	0.0301	0.0006
288.15	0.01131	0.0311	0.00062
288.15	0.01266	0.0322	0.00064
288.15	0.01398	0.0332	0.00066
288.15	0.01543	0.0343	0.00069
293.15	0.000662	0.00339	7e-05
293.15	0.001316	0.00649	0.00013
293.15	0.001961	0.00944	0.00019
293.15	0.002597	0.01225	0.00025
293.15	0.003226	0.01492	0.0003
293.15	0.003846	0.01756	0.00035
293.15	0.004458	0.0201	0.0004
293.15	0.005063	0.0226	0.00045
293.15	0.00566	0.0249	0.0005
293.15	0.00625	0.027	0.00054
293.15	0.006832	0.029	0.00058
293.15	0.007407	0.0301	0.0006
293.15	0.007975	0.0309	0.00062
293.15	0.008536	0.0316	0.00063
293.15	0.00942	0.0325	0.00065
293.15	0.01029	0.0334	0.00067
293.15	0.01114	0.0342	0.00068
293.15	0.01218	0.0351	0.0007
293.15	0.01319	0.036	0.00072
293.15	0.01419	0.0369	0.00074
293.15	0.01516	0.0378	0.00076
298.15	0.000662	0.00389	8e-05
298.15	0.001316	0.00743	0.00015
298.15	0.001961	0.01081	0.00022
298.15	0.002597	0.01407	0.00028
298.15	0.003226	0.01718	0.00034
298.15	0.003846	0.0202	0.0004
298.15	0.004458	0.0231	0.00046
298.15	0.005063	0.0259	0.00052
298.15	0.00566	0.0286	0.00057
298.15	0.00625	0.0313	0.00063
298.15	0.006832	0.0329	0.00066
298.15	0.007407	0.0339	0.00068
298.15	0.007975	0.0348	0.0007
298.15	0.008536	0.0356	0.00071
298.15	0.00942	0.0366	0.00073
298.15	0.01029	0.0376	0.00075
298.15	0.01114	0.0386	0.00077
298.15	0.01218	0.03974	0.00079
298.15	0.01319	0.04087	0.00082
298.15	0.01419	0.042	0.00084
298.15	0.01516	0.0431	0.00086
303.15	0.000662	0.00431	9e-05
303.15	0.001316	0.00815	0.00016
303.15	0.001961	0.01186	0.00024
303.15	0.002597	0.01541	0.00031
303.15	0.003226	0.01889	0.00038
303.15	0.003846	0.0222	0.00044
303.15	0.004458	0.0254	0.00051
303.15	0.005063	0.0285	0.00057
303.15	0.00566	0.0314	0.00063
303.15	0.00625	0.0344	0.00069
303.15	0.006832	0.0365	0.00073
303.15	0.007407	0.038	0.00076
303.15	0.007975	0.0389	0.00078
303.15	0.008536	0.0398	0.0008
303.15	0.00942	0.0409	0.00082
303.15	0.01029	0.042	0.00084
303.15	0.01114	0.0431	0.00086
303.15	0.01218	0.0444	0.00089
303.15	0.01319	0.0457	0.00091
303.15	0.01419	0.047	0.00094
303.15	0.01516	0.0483	0.00097
308.15	0.000744	0.00544	0.00011
308.15	0.001478	0.01022	0.0002
308.15	0.0022	0.01482	0.0003
308.15	0.002913	0.01927	0.00039
308.15	0.003614	0.0234	0.00047
308.15	0.004306	0.0275	0.00055
308.15	0.004988	0.0316	0.00063
308.15	0.00566	0.0354	0.00071
308.15	0.006323	0.0391	0.00078
308.15	0.006977	0.0419	0.00084
308.15	0.007621	0.0433	0.00087
308.15	0.008467	0.0448	0.0009
308.15	0.009297	0.0462	0.00092
308.15	0.01011	0.0475	0.00095
308.15	0.01111	0.049	0.00098
308.15	0.01228	0.0508	0.00102
308.15	0.01361	0.0527	0.00105
308.15	0.01489	0.0545	0.00109
308.15	0.01632	0.0565	0.00113
313.15	0.000662	0.00523	0.0001
313.15	0.001316	0.01006	0.0002
313.15	0.001961	0.01455	0.00029
313.15	0.002597	0.01886	0.00038
313.15	0.003226	0.0231	0.00046
313.15	0.003846	0.0272	0.00054
313.15	0.004458	0.0312	0.00062
313.15	0.005063	0.0351	0.0007
313.15	0.00566	0.0388	0.00078
313.15	0.00625	0.0422	0.00084
313.15	0.006832	0.0455	0.00091
313.15	0.007407	0.047	0.00094
313.15	0.007975	0.0482	0.00096
313.15	0.008536	0.0493	0.00099
313.15	0.00942	0.0508	0.00102
313.15	0.01029	0.0523	0.00105
313.15	0.01114	0.0537	0.00107
313.15	0.01218	0.0554	0.00111
313.15	0.01319	0.0571	0.00114
313.15	0.01419	0.0587	0.00117
313.15	0.01516	0.0603	0.00121
318.15	0.000744	0.00628	0.00013
318.15	0.001478	0.01215	0.00024
318.15	0.0022	0.01769	0.00035
318.15	0.002913	0.023	0.00046
318.15	0.003614	0.028	0.00056
318.15	0.004306	0.033	0.00066
318.15	0.004988	0.0379	0.00076
318.15	0.00566	0.0424	0.00085
318.15	0.006323	0.0468	0.00094
318.15	0.006977	0.0504	0.00101
318.15	0.007621	0.0534	0.00107
318.15	0.008257	0.0548	0.0011
318.15	0.009091	0.0566	0.00113
318.15	0.00991	0.0583	0.00117
318.15	0.01091	0.0602	0.0012
318.15	0.01209	0.0624	0.00125
318.15	0.01342	0.0646	0.00129
318.15	0.01471	0.0667	0.00133
318.15	0.01614	0.0692	0.00138

System: water + tetrapropylammonium perfluorooctanoate; phases: Liquid
Fixed: Pressure, kPa = 101
Property: Electrical conductivity, S/m (Liquid); method: Advanced Conductivity Orion 162A
Temperature, K	Amount concentration (molarity), mol/dm3 of tetrapropylammonium perfluorooctanoate	Electrical conductivity, S/m	uncertainty
288.15	0.000528	0.00204	1e-05
288.15	0.001044	0.00381	1e-05
288.15	0.00155	0.0055	1e-05
288.15	0.002046	0.00718	2e-05
288.15	0.002532	0.00868	2e-05
288.15	0.003008	0.01018	2e-05
288.15	0.003474	0.01159	2e-05
288.15	0.003931	0.01294	3e-05
288.15	0.00438	0.01384	3e-05
288.15	0.004819	0.01423	3e-05
288.15	0.00525	0.01452	3e-05
288.15	0.005674	0.01478	3e-05
288.15	0.006192	0.01508	3e-05
288.15	0.006697	0.01536	3e-05
288.15	0.007289	0.01569	3e-05
288.15	0.007865	0.01602	3e-05
288.15	0.008563	0.0164	3e-05
288.15	0.009239	0.01676	3e-05
293.15	0.000528	0.0023	1e-05
293.15	0.001044	0.00429	1e-05
293.15	0.00155	0.00632	1e-05
293.15	0.002046	0.00818	2e-05
293.15	0.002532	0.00994	2e-05
293.15	0.003008	0.01165	2e-05
293.15	0.003474	0.01327	3e-05
293.15	0.003931	0.01471	3e-05
293.15	0.00438	0.01537	3e-05
293.15	0.004819	0.01577	3e-05
293.15	0.00525	0.01611	3e-05
293.15	0.005674	0.0164	3e-05
293.15	0.006089	0.01668	3e-05
293.15	0.006597	0.01702	3e-05
293.15	0.007094	0.01735	4e-05
293.15	0.007675	0.01772	4e-05
293.15	0.00824	0.01806	4e-05
293.15	0.008791	0.0184	4e-05
298.15	0.000495	0.0024	1e-05
298.15	0.00098	0.00458	1e-05
298.15	0.001456	0.00662	1e-05
298.15	0.001923	0.00856	2e-05
298.15	0.002381	0.01055	2e-05
298.15	0.00283	0.01231	3e-05
298.15	0.003271	0.0142	3e-05
298.15	0.003704	0.01594	3e-05
298.15	0.004128	0.017	3e-05
298.15	0.004545	0.01751	4e-05
298.15	0.004955	0.01791	4e-05
298.15	0.005357	0.01828	4e-05
298.15	0.005752	0.01864	4e-05
298.15	0.00614	0.01894	4e-05
298.15	0.006522	0.01924	4e-05
298.15	0.006989	0.0196	4e-05
298.15	0.007447	0.01995	4e-05
298.15	0.007895	0.0203	4e-05
298.15	0.008333	0.02064	4e-05
298.15	0.008762	0.02098	4e-05
298.15	0.009182	0.0213	4e-05
303.15	0.000528	0.00301	1e-05
303.15	0.001044	0.00562	1e-05
303.15	0.00155	0.008	2e-05
303.15	0.002046	0.01044	2e-05
303.15	0.002532	0.01274	3e-05
303.15	0.003008	0.01498	3e-05
303.15	0.003474	0.01705	3e-05
303.15	0.003931	0.01837	4e-05
303.15	0.00438	0.01898	4e-05
303.15	0.004819	0.01954	4e-05
303.15	0.00525	0.01997	4e-05
303.15	0.005674	0.0204	4e-05
303.15	0.006294	0.0209	4e-05
303.15	0.006896	0.0214	4e-05
303.15	0.007579	0.022	4e-05
303.15	0.00824	0.0226	5e-05
303.15	0.008882	0.0231	5e-05
303.15	0.00959	0.0236	5e-05
308.15	0.000528	0.00324	1e-05
308.15	0.001044	0.00611	1e-05
308.15	0.00155	0.00888	2e-05
308.15	0.002046	0.01161	2e-05
308.15	0.002532	0.01414	3e-05
308.15	0.003008	0.01657	3e-05
308.15	0.003474	0.01894	4e-05
308.15	0.003931	0.0203	4e-05
308.15	0.00438	0.021	4e-05
308.15	0.004819	0.0215	4e-05
308.15	0.005357	0.0221	4e-05
308.15	0.005882	0.0227	5e-05
308.15	0.006496	0.0234	5e-05
308.15	0.007094	0.0239	5e-05
308.15	0.00777	0.0245	5e-05
308.15	0.008426	0.0252	5e-05
308.15	0.00915	0.0259	5e-05
313.15	0.000434	0.00302	1e-05
313.15	0.00086	0.00567	1e-05
313.15	0.001279	0.00818	2e-05
313.15	0.001691	0.01052	2e-05
313.15	0.002096	0.01293	3e-05
313.15	0.002494	0.01538	3e-05
313.15	0.002886	0.0176	4e-05
313.15	0.003271	0.01978	4e-05
313.15	0.00365	0.0218	4e-05
313.15	0.004023	0.0228	5e-05
313.15	0.00439	0.0234	5e-05
313.15	0.004751	0.024	5e-05
313.15	0.005257	0.0245	5e-05
313.15	0.005752	0.0251	5e-05
313.15	0.006332	0.0258	5e-05
313.15	0.006896	0.0265	5e-05
313.15	0.007447	0.0271	5e-05
313.15	0.008071	0.0276	6e-05
318.15	0.000495	0.00372	1e-05
318.15	0.00098	0.00708	2e-05
318.15	0.001456	0.01024	2e-05
318.15	0.001923	0.01335	3e-05
318.15	0.002381	0.01634	3e-05
318.15	0.00283	0.01918	4e-05
318.15	0.003271	0.0219	4e-05
318.15	0.003704	0.0243	5e-05
318.15	0.004128	0.0256	5e-05
318.15	0.004545	0.0263	5e-05
318.15	0.004955	0.0268	5e-05
318.15	0.005456	0.0276	6e-05
318.15	0.006044	0.0285	6e-05
318.15	0.006616	0.0291	6e-05
318.15	0.007173	0.0298	6e-05
318.15	0.007806	0.0306	6e-05
318.15	0.008506	0.0314	6e-05
