Measured thermophysical data. Temperature and Pressure Dependence of the Viscosities of 2-Ethylhexyl Benzoate, Bis(2-ethylhexyl) Phthalate, 2,6,10,15,19,23-Hexamethyltetracosane (Squalane), and Diisodecyl Phthalate
Source: J. Chem. Eng. Data, 2009, 10.1021/je900284z
Compound 1: 2-ethylhexyl benzoate, C15H22O2, InChI=1S/C15H22O2/c1-3-5-9-13(4-2)12-17-15(16)14-10-7-6-8-11-14/h6-8,10-11,13H,3-5,9,12H2,1-2H3
Compound 2: bis(2-ethylhexyl) 1,2-benzenedicarboxylate, C24H38O4, InChI=1S/C24H38O4/c1-5-9-13-19(7-3)17-27-23(25)21-15-11-12-16-22(21)24(26)28-18-20(8-4)14-10-6-2/h11-12,15-16,19-20H,5-10,13-14,17-18H2,1-4H3
Compound 3: 2,6,10,15,19,23-hexamethyltetracosane, C30H62, InChI=1S/C30H62/c1-25(2)15-11-19-29(7)23-13-21-27(5)17-9-10-18-28(6)22-14-24-30(8)20-12-16-26(3)4/h25-30H,9-24H2,1-8H3
Compound 4: 3-methylnonyl 1,2-benzenedioate, C28H46O4, InChI=1S/C28H46O4/c1-23(2)17-11-7-5-9-15-21-31-27(29)25-19-13-14-20-26(25)28(30)32-22-16-10-6-8-12-18-24(3)4/h13-14,19-20,23-24H,5-12,15-18,21-22H2,1-4H3

System: 2-ethylhexyl benzoate; phases: Liquid
Fixed: Pressure, kPa = 101.325
Property: Mass density, kg/m3 (Liquid); method: VIBTUB:UFactor:4
Temperature, K	Mass density, kg/m3	uncertainty
273.15	981.12	0.34
278.15	977.18	0.35
283.15	973.25	0.35
288.15	969.32	0.36
293.15	965.4	0.36
298.15	961.49	0.37
303.15	957.57	0.37
313.15	949.73	0.38
323.15	941.92	0.39
333.15	934.11	0.4
343.15	926.28	0.41
353.15	918.45	0.42
363.15	910.61	0.43

System: 2-ethylhexyl benzoate; phases: Liquid
Property: Viscosity, Pa*s (Liquid); method: Falling or rolling sphere viscometry
Temperature, K	Pressure, kPa	Viscosity, Pa*s	uncertainty
263.15	100	0.02942	0.00065
263.15	100	0.02939	0.00065
268.15	100	0.02145	0.00048
268.15	100	0.02143	0.00048
273.15	100	0.01622	0.00036
273.15	700	0.01639	0.00036
273.15	14200	0.02088	0.00046
273.15	16100	0.02211	0.00049
273.15	29700	0.0288	0.00064
273.15	45500	0.03879	0.00086
273.15	47100	0.0395	0.00088
273.15	60900	0.05194	0.0011
273.15	81800	0.07837	0.00198
273.15	102000	0.1147	0.0038
273.15	110600	0.1325	0.0049
273.15	149800	0.2869	0.017
273.150001	100	0.01621	0.00036
283.15	100	0.01007	0.00022
283.15	100	0.01007	0.00022
293.15	100	0.006753	0.00015
293.15	100	0.006756	0.00015
298.15	100	0.005574	0.000124
298.15	300	0.005708	0.000127
298.15	900	0.005771	0.000128
298.15	26000	0.0084	0.000186
298.15	50900	0.01207	0.00027
298.15	75600	0.01719	0.00038
298.15	100800	0.02458	0.00055
298.15	125500	0.0349	0.00078
298.15	150900	0.04992	0.00111
298.15	175100	0.07034	0.00166
298.15	200700	0.101	0.0031
298.15	225200	0.1431	0.0055
298.15	250700	0.206	0.01
298.15	100	0.005529	0.000123
303.15	100	0.004847	0.000107
303.15	100	0.004847	0.000107
313.15	100	0.003641	8.1e-05
313.15	100	0.003641	8.1e-05
313.15	100	0.003644	8.1e-05
313.15	100	0.003646	8.1e-05
323.15	100	0.002859	6.3e-05
323.15	25900	0.003952	8.8e-05
323.15	50900	0.00532	0.000118
323.15	75800	0.007088	0.000157
323.15	100600	0.009368	0.000208
323.15	125700	0.01233	0.00027
323.15	150400	0.01617	0.00036
323.15	174800	0.02075	0.00046
323.15	175600	0.02133	0.00047
323.15	200800	0.02803	0.00062
323.15	225600	0.03682	0.00082
323.15	250400	0.04819	0.00107
323.15	275200	0.06286	0.0014
323.15	300000	0.08218	0.00214
323.15	300100	0.08204	0.00214
323.15	100	0.002857	6.3e-05
333.15	100	0.0023	5.1e-05
333.15	100	0.0023	5.1e-05
343.15	100	0.001824	4e-05
343.15	100	0.001804	4e-05
343.15	100	0.001834	4.1e-05
343.15	100	0.001882	4.2e-05
343.15	100	0.001891	4.2e-05
348.15	100	0.001728	3.8e-05
348.15	10800	0.001956	4.3e-05
348.15	25400	0.0023	5.1e-05
348.15	50800	0.002994	6.6e-05
348.15	75900	0.003826	8.5e-05
348.15	100800	0.004842	0.000107
348.15	125700	0.006009	0.000133
348.15	150700	0.007634	0.000169
348.15	175700	0.009511	0.000211
348.15	200700	0.01185	0.00026
348.15	225700	0.01477	0.00033
348.15	250500	0.01823	0.0004
348.15	275300	0.02256	0.0005
348.15	276300	0.02283	0.00051
348.15	302300	0.02848	0.00063
348.15	315200	0.03158	0.0007
348.15	100	0.00173	3.8e-05

System: bis(2-ethylhexyl) 1,2-benzenedicarboxylate; phases: Liquid
Fixed: Pressure, kPa = 101.325
Property: Mass density, kg/m3 (Liquid); method: VIBTUB:UFactor:3
Temperature, K	Mass density, kg/m3	uncertainty
273.15	998.82	0.14
278.15	995.01	0.15
283.15	991.26	0.15
293.15	983.87	0.16
298.15	980.15	0.16
303.15	976.42	0.16
313.15	968.98	0.17
323.15	961.53	0.17
333.15	954.11	0.18
343.15	946.68	0.19
353.15	939.27	0.19
363.15	931.85	0.2

System: bis(2-ethylhexyl) 1,2-benzenedicarboxylate; phases: Liquid
Property: Viscosity, Pa*s (Liquid); method: Falling or rolling sphere viscometry
Temperature, K	Pressure, kPa	Viscosity, Pa*s	uncertainty
273.15	100	0.3599	0.0241
273.15	24100	0.6807	0.0602
273.150001	100	0.3597	0.024
283.15	100	0.1586	0.0065
283.15	400	0.1602	0.0066
283.15	20800	0.2665	0.0151
283.15	41000	0.4305	0.0314
283.15	60000	0.6635	0.058
283.15	80400	1.034	0.106
283.15	100100	1.566	0.183
283.15	123400	2.473	0.327
283.15	100	0.158	0.0065
298.15	100	0.05879	0.00124
298.15	600	0.05935	0.00126
298.15	25800	0.1034	0.0031
298.15	50000	0.1674	0.0071
298.15	50900	0.1742	0.0076
298.15	76300	0.2878	0.0171
298.15	100500	0.4552	0.034
298.15	126600	0.7307	0.0663
298.15	150400	1.103	0.115
298.15	174300	1.631	0.192
298.15	199800	2.527	0.336
298.15	100	0.05758	0.00121
298.15	100	0.05759	0.00121
303.15	100	0.04429	0.00096
303.15	100	0.0442	0.00096
303.15	100	0.04349	0.00094
303.15	100	0.04349	0.00094
310.93	100	0.02883	0.00063
310.93	47400	0.07356	0.00175
310.93	75300	0.1203	0.0041
310.93	99500	0.1851	0.0084
310.93	148600	0.4131	0.0295
310.93	176000	0.6179	0.0525
310.93	201800	0.9127	0.0896
310.93	223800	1.259	0.137
310.93	247800	1.794	0.217
310.93	250800	1.819	0.221
310.93	274000	2.555	0.34
310.93	100	0.02877	0.00062
310.93	100	0.02891	0.00063
310.93	100	0.02891	0.00063
310.93	100	0.02888	0.00063
313.15	100	0.0266	0.00058
313.15	100	0.02658	0.00058
323.15	100	0.01717	0.00037
323.15	700	0.01726	0.00037
323.15	10600	0.02076	0.00045
323.15	25700	0.02726	0.00059
323.15	50700	0.04219	0.00092
323.15	75600	0.06374	0.00139
323.15	100600	0.09467	0.00269
323.15	125600	0.1387	0.0052
323.15	150600	0.2002	0.0095
323.15	175600	0.2863	0.0169
323.15	200300	0.4034	0.0285
323.15	223100	0.539	0.0433
323.15	252300	0.7948	0.0742
323.15	276700	1.0551	0.1087
323.15	295400	1.3551	0.151
323.15	323700	1.9523	0.2418
323.15	100	0.01701	0.00037
323.15	100	0.0171	0.00037
333.15	100	0.01173	0.00025
333.15	100	0.01171	0.00025
343.15	100	0.008499	0.000184
343.15	100	0.00851	0.000184
348.15	100	0.007416	0.000161
348.15	50800	0.01552	0.00034
348.15	54100	0.01645	0.00036
348.15	75900	0.02209	0.00048
348.15	100800	0.03091	0.00067
348.15	103500	0.03217	0.0007
348.15	125800	0.04261	0.00092
348.15	150800	0.05812	0.00122
348.15	175700	0.07872	0.00195
348.15	200700	0.1056	0.0033
348.15	225500	0.1404	0.0053
348.15	250300	0.1856	0.0084
348.15	275000	0.2438	0.0131
348.15	299100	0.3167	0.0198
348.15	324100	0.4127	0.0294
348.15	348100	0.5294	0.0422
348.15	371000	0.669	0.0586
348.15	100	0.007422	0.000161

System: 2,6,10,15,19,23-hexamethyltetracosane; phases: Liquid
Fixed: Pressure, kPa = 101.325
Property: Mass density, kg/m3 (Liquid); method: VIBTUB:UFactor:4
Temperature, K	Mass density, kg/m3	uncertainty
273.15	821.58	0.54
283.15	815.16	0.55
288.15	811.95	0.55
293.15	808.74	0.56
298.15	805.55	0.56
303.15	802.34	0.57
313.15	795.93	0.58
323.15	789.53	0.58
333.15	783.14	0.59
343.15	776.77	0.6
353.15	770.42	0.61
363.15	764.06	0.62

System: 2,6,10,15,19,23-hexamethyltetracosane; phases: Liquid
Property: Viscosity, Pa*s (Liquid); method: Falling or rolling sphere viscometry
Temperature, K	Pressure, kPa	Viscosity, Pa*s	uncertainty
273.15	100	0.116	0.0039
273.15	600	0.1219	0.0042
273.15	10600	0.1596	0.0066
273.15	20600	0.208	0.0102
273.15	30700	0.2676	0.0153
273.15	41400	0.3484	0.023
273.15	50500	0.4423	0.0327
273.150001	100	0.1162	0.0039
283.15	100	0.05927	0.00129
283.15	9600	0.07631	0.0019
283.15	19900	0.09769	0.00289
283.15	25810	0.1152	0.0038
283.15	50880	0.2065	0.01
283.15	76760	0.3606	0.0242
283.15	100400	0.5735	0.0474
283.15	100	0.05925	0.00129
293.15	100	0.03597	0.0008
293.15	100	0.03596	0.0008
298.15	100	0.02835	0.00063
298.15	700	0.02857	0.00063
298.15	800	0.02867	0.00064
298.15	10800	0.03577	0.0008
298.15	20600	0.0442	0.00098
298.15	26000	0.04937	0.0011
298.15	30800	0.05449	0.00116
298.15	40200	0.06584	0.0015
298.15	50100	0.08008	0.00205
298.15	50600	0.08124	0.0021
298.15	51600	0.08403	0.00223
298.15	60700	0.09821	0.00291
298.15	70700	0.1188	0.004
298.15	74700	0.1295	0.0047
298.15	75800	0.1303	0.0047
298.15	80500	0.1423	0.0055
298.15	98800	0.2007	0.0096
298.15	100100	0.2018	0.0097
298.15	125900	0.3158	0.0198
298.15	150000	0.4657	0.0352
298.15	150100	0.4735	0.0361
298.15	100	0.02824	0.00063
298.15	100	0.02845	0.00063
298.15	100	0.02842	0.00063
298.15	100	0.02861	0.00064
298.15	100	0.02856	0.00063
303.15	100	0.02258	0.0005
303.15	100	0.02258	0.0005
303.15	100	0.02286	0.00051
303.15	100	0.02284	0.00051
313.15	100	0.01505	0.00033
313.15	800	0.01515	0.00034
313.15	10700	0.01858	0.00041
313.15	20600	0.02264	0.0005
313.15	30700	0.02733	0.00061
313.15	40500	0.03269	0.00073
313.15	50200	0.03901	0.00087
313.15	60600	0.04676	0.00104
313.15	70600	0.05553	0.00118
313.15	80600	0.06568	0.00149
313.15	91700	0.07858	0.00199
313.15	112400	0.1089	0.0035
313.15	131700	0.1453	0.0057
313.15	151600	0.1928	0.009
313.15	151900	0.1968	0.0093
313.15	168600	0.25	0.0137
313.15	175400	0.2767	0.0161
313.15	190000	0.3369	0.0218
313.15	190100	0.3401	0.0221
313.15	199800	0.3792	0.026
313.15	210400	0.4338	0.0317
313.15	227900	0.5499	0.0446
313.15	241700	0.6693	0.0587
313.15	261500	0.8638	0.0833
313.15	279800	1.065	0.11
313.15	300500	1.395	0.157
313.15	100	0.01507	0.00033
313.15	100	0.01516	0.00034
313.15	100	0.01517	0.00034
313.15	100	0.01518	0.00034
313.15	100	0.01481	0.00033
323.15	100	0.01073	0.00024
323.15	100	0.01071	0.00024
323.15	100	0.01069	0.00024
333.15	100	0.007856	0.000174
333.15	100	0.007861	0.000174
338.15	100	0.006785	0.00015
338.15	9700	0.008064	0.000179
338.15	22100	0.009958	0.000221
338.15	30100	0.01136	0.00025
338.15	40600	0.0134	0.0003
338.15	40800	0.01345	0.0003
338.15	50300	0.01555	0.00034
338.15	60000	0.01798	0.0004
338.15	60700	0.01792	0.0004
338.15	80700	0.02424	0.00054
338.15	100600	0.03202	0.00071
338.15	120400	0.04162	0.00092
338.15	140400	0.05367	0.00114
338.15	160300	0.06903	0.00161
338.15	175300	0.08243	0.00215
338.15	199800	0.111	0.0036
338.15	226500	0.1506	0.006
338.15	246000	0.1846	0.0084
338.15	255100	0.2015	0.0096
338.15	274800	0.2525	0.0139
338.15	275200	0.2469	0.0134
338.15	300000	0.3215	0.0203
338.15	303600	0.3374	0.0218
338.15	324900	0.4163	0.0299
338.15	350600	0.5402	0.0435
338.15	373000	0.6772	0.0597
343.15	100	0.005984	0.000133
343.15	100	0.005979	0.000133
343.15	100	0.005976	0.000132
343.15	100	0.005972	0.000132
348.15	100	0.005281	0.000117
348.15	9700	0.006195	0.000137
348.15	20600	0.00741	0.000164
348.15	30800	0.008689	0.000193
348.15	40900	0.01014	0.00022
348.15	50400	0.01163	0.00026
348.15	60400	0.01325	0.00029
348.15	60500	0.01345	0.0003
348.15	70300	0.01523	0.00034
348.15	70900	0.0155	0.00034
348.15	80100	0.01789	0.0004
348.15	80300	0.01739	0.00039
348.15	90300	0.01995	0.00044
348.15	90600	0.02048	0.00045
348.15	100100	0.02265	0.0005
348.15	100800	0.02318	0.00051
348.15	200500	0.07169	0.00171
348.15	225500	0.09381	0.00268
348.15	250300	0.1218	0.0042
348.15	275300	0.1571	0.0064
348.15	300000	0.2015	0.0096
348.15	319700	0.2444	0.0132
348.15	339600	0.2958	0.0178
348.15	359000	0.3562	0.0237
348.15	378600	0.4285	0.0311
348.15	100	0.00528	0.000117
348.15	100	0.005248	0.000116
353.15	100	0.004692	0.000104
353.15	100	0.004695	0.000104

System: 3-methylnonyl 1,2-benzenedioate; phases: Liquid
Property: Viscosity, Pa*s (Liquid); method: Falling or rolling sphere viscometry
Temperature, K	Pressure, kPa	Viscosity, Pa*s	uncertainty
273.15	100	0.6258	0.0536
273.15	9900	0.8451	0.0809
298.15	100	0.08737	0.00235
298.15	9600	0.1107	0.0035
298.15	20600	0.145	0.0056
298.15	20700	0.1455	0.0057
298.15	30100	0.1825	0.0082
298.15	30300	0.183	0.0082
298.15	40700	0.2342	0.0123
298.15	50200	0.2894	0.0172
298.15	59200	0.3562	0.0237
298.15	71600	0.4654	0.0351
298.15	82000	0.589	0.0491
298.15	83300	0.6084	0.0514
298.15	100	0.08741	0.00235
313.15	100	0.03771	0.00082
313.15	10900	0.04729	0.00103
313.15	21200	0.05895	0.00125
313.15	30600	0.07154	0.00168
313.15	40900	0.08899	0.00242
313.15	51600	0.1091	0.0035
313.15	62400	0.1367	0.0051
313.15	71300	0.1608	0.0067
313.15	80300	0.1924	0.0089
313.15	89800	0.2344	0.0123
338.15	100	0.01314	0.00029
338.15	9700	0.01554	0.00034
338.15	10700	0.01628	0.00035
338.15	19400	0.01862	0.00041
338.15	20500	0.01938	0.00042
338.15	31000	0.02329	0.00051
338.15	31770	0.02304	0.0005
338.15	40100	0.02724	0.00059
338.15	41110	0.02691	0.00059
338.15	50300	0.03242	0.00071
338.15	51100	0.03186	0.00069
338.15	60400	0.03831	0.00083
338.15	60510	0.03734	0.00081
338.15	70700	0.04525	0.00099
338.15	70710	0.0436	0.00095
338.15	80200	0.05253	0.00109
338.15	80970	0.05173	0.00107
338.15	100	0.01337	0.00029
338.15	100	0.01338	0.00029
338.15	100	0.01336	0.00029
348.15	100	0.00971	0.000211
348.15	9800	0.01147	0.00025
348.15	20600	0.01371	0.0003
348.15	30230	0.01596	0.00035
348.15	31300	0.01634	0.00036
348.15	40810	0.01891	0.00041
348.15	50600	0.02215	0.00048
348.15	50710	0.02205	0.00048
348.15	61220	0.02589	0.00056
348.15	69800	0.02977	0.00065
348.15	72330	0.03055	0.00066
348.15	85770	0.03723	0.00081
