Measured thermophysical data. Solubility of Ofloxacin in 1,2-Dichloromethane, Chloroform, Carbon Tetrachloride, and Water from (293.15 to 313.15) K
Source: J. Chem. Eng. Data, 2010, 10.1021/je900540d
Compound 1: ofloxacin, C18H20FN3O4, InChI=1S/C18H20FN3O4/c1-10-9-26-17-14-11(16(23)12(18(24)25)8-22(10)14)7-13(19)15(17)21-5-3-20(2)4-6-21/h7-8,10H,3-6,9H2,1-2H3,(H,24,25), purity 99.65%
Compound 2: water, H2O, InChI=1S/H2O/h1H2
Compound 3: dichloromethane, CH2Cl2, InChI=1S/CH2Cl2/c2-1-3/h1H2
Compound 4: trichloromethane, CHCl3, InChI=1S/CHCl3/c2-1(3)4/h1H
Compound 5: tetrachloromethane, CCl4, InChI=1S/CCl4/c2-1(3,4)5

System: water + ofloxacin; phases: Liquid, Crystal
Fixed: Pressure, kPa = 101
Property: Mole fraction of ofloxacin (Liquid); method: gravimetric
Temperature, K	Mole fraction of ofloxacin	uncertainty
293.15	0.00015	1e-05
295.15	0.00018	1e-05
298.15	0.00022	1e-05
300.15	0.00024	1e-05
303.15	0.00028	1e-05
305.15	0.00029	1e-05
308.15	0.00032	2e-05
310.15	0.00034	2e-05
313.15	0.00036	2e-05

System: dichloromethane + ofloxacin; phases: Liquid, Crystal
Fixed: Pressure, kPa = 101
Property: Mole fraction of ofloxacin (Liquid); method: gravimetric
Temperature, K	Mole fraction of ofloxacin	uncertainty
293.15	0.0031	4e-05
295.15	0.00341	4e-05
298.15	0.00387	5e-05
300.15	0.00418	6e-05
303.15	0.00464	5e-05
305.15	0.00505	6e-05
308.15	0.00567	7e-05
310.15	0.00608	6e-05
313.15	0.00671	7e-05

System: trichloromethane + ofloxacin; phases: Liquid, Crystal
Fixed: Pressure, kPa = 101
Property: Mole fraction of ofloxacin (Liquid); method: gravimetric
Temperature, K	Mole fraction of ofloxacin	uncertainty
293.15	0.00332	4e-05
295.15	0.00361	4e-05
298.15	0.00405	5e-05
300.15	0.00435	4e-05
303.15	0.00479	4e-05
305.15	0.00521	5e-05
308.15	0.00584	5e-05
310.15	0.00627	5e-05
313.15	0.0069	5e-05

System: tetrachloromethane + ofloxacin; phases: Liquid, Crystal
Fixed: Pressure, kPa = 101
Property: Mole fraction of ofloxacin (Liquid); method: gravimetric
Temperature, K	Mole fraction of ofloxacin	uncertainty
293.15	0.00146	4e-05
295.15	0.00186	3e-05
298.15	0.00246	3e-05
300.15	0.00286	4e-05
303.15	0.00346	4e-05
305.15	0.00369	3e-05
308.15	0.00403	6e-05
310.15	0.00426	4e-05
313.15	0.00459	4e-05
