Measured thermophysical data. Solubilities of N-[(4-Bromo-3,5-difluorine)phenyl]acrylamide in Benzene, Methanol, Pyridine, Ethanol, Acetonitrile, and Toluene at Temperatures between (284.65 and 348.95) K
Source: J. Chem. Eng. Data, 2010, 10.1021/je900609f
Compound 1: N-(4-bromo-3,5-difluorophenyl)acrylamide, C9H6BrF2NO, InChI=1S/C9H6BrF2NO/c1-2-8(14)13-5-3-6(11)9(10)7(12)4-5/h2-4H,1H2,(H,13,14), purity 99.2%
Compound 2: benzene, C6H6, InChI=1S/C6H6/c1-2-4-6-5-3-1/h1-6H, purity 99.8%
Compound 3: pyridine, C5H5N, InChI=1S/C5H5N/c1-2-4-6-5-3-1/h1-5H, purity 99.8%
Compound 4: acetonitrile, C2H3N, InChI=1S/C2H3N/c1-2-3/h1H3, purity 99.8%
Compound 5: methanol, CH4O, InChI=1S/CH4O/c1-2/h2H,1H3, purity 99.8%
Compound 6: ethanol, C2H6O, InChI=1S/C2H6O/c1-2-3/h3H,2H2,1H3, purity 99.8%
Compound 7: toluene, C7H8, InChI=1S/C7H8/c1-7-5-3-2-4-6-7/h2-6H,1H3, purity 99.8%

System: N-(4-bromo-3,5-difluorophenyl)acrylamide; phases: Crystal, Liquid, Air at 1 atmosphere
Property: Normal melting temperature, K (Crystal); method: VISOBS
Normal melting temperature, K	uncertainty
455	0.7

System: benzene + N-(4-bromo-3,5-difluorophenyl)acrylamide; phases: Liquid, Crystal
Fixed: Pressure, kPa = 101
Property: Mole fraction of N-(4-bromo-3,5-difluorophenyl)acrylamide (Liquid); method: laser monitoring observation
Temperature, K	Mole fraction of N-(4-bromo-3,5-difluorophenyl)acrylamide	uncertainty
296.35	0.00069	6e-05
302.95	0.00105	6e-05
308.75	0.00136	6e-05
310.75	0.00153	0.0001
317.65	0.0022	0.00011
324.25	0.003	0.00016
332.05	0.0044	0.00021
335.95	0.00544	0.00026
340.85	0.00668	0.00036
347.05	0.00938	0.00045

System: pyridine + N-(4-bromo-3,5-difluorophenyl)acrylamide; phases: Liquid, Crystal
Fixed: Pressure, kPa = 101
Property: Mole fraction of N-(4-bromo-3,5-difluorophenyl)acrylamide (Liquid); method: laser monitoring observation
Temperature, K	Mole fraction of N-(4-bromo-3,5-difluorophenyl)acrylamide	uncertainty
288.95	0.13928	0.00223
292.45	0.1453	0.00229
298.95	0.15672	0.00241
303.85	0.16593	0.00256
310.25	0.17841	0.00274
317.05	0.19283	0.00293
322.55	0.20502	0.0031
328.45	0.21882	0.00327
333.15	0.2304	0.00345
338.25	0.24348	0.00364
344.95	0.26177	0.00385
348.85	0.27286	0.00398

System: acetonitrile + N-(4-bromo-3,5-difluorophenyl)acrylamide; phases: Liquid, Crystal
Fixed: Pressure, kPa = 101
Property: Mole fraction of N-(4-bromo-3,5-difluorophenyl)acrylamide (Liquid); method: laser monitoring observation
Temperature, K	Mole fraction of N-(4-bromo-3,5-difluorophenyl)acrylamide	uncertainty
284.65	0.00604	0.00028
291.45	0.00788	0.0003
294.75	0.00901	0.00038
298.25	0.01041	0.00044
301.85	0.01206	0.00051
305.35	0.01391	0.00058
308.45	0.01577	0.00065
312.75	0.01858	0.00074
316.65	0.02168	0.00088
320.05	0.02482	0.00102
323.85	0.02876	0.00115
327.65	0.03324	0.00129
331.75	0.03855	0.00144
334.15	0.04231	0.00167
337.75	0.0482	0.0018
340.45	0.05326	0.00204
343.55	0.05958	0.00227
346.35	0.06615	0.00249
348.95	0.07252	0.00256

System: methanol + N-(4-bromo-3,5-difluorophenyl)acrylamide; phases: Liquid, Crystal
Fixed: Pressure, kPa = 101
Property: Mole fraction of N-(4-bromo-3,5-difluorophenyl)acrylamide (Liquid); method: laser monitoring observation
Temperature, K	Mole fraction of N-(4-bromo-3,5-difluorophenyl)acrylamide	uncertainty
294.25	0.01422	0.0005
298.65	0.01634	0.00055
303.16	0.01888	0.00062
308.45	0.02213	0.00069
312.35	0.02491	0.00083
318.15	0.02975	0.00091
321.05	0.03245	0.00102
324.65	0.03604	0.0011
327.45	0.03912	0.00122
328.95	0.04103	0.00134

System: ethanol + N-(4-bromo-3,5-difluorophenyl)acrylamide; phases: Liquid, Crystal
Fixed: Pressure, kPa = 101
Property: Mole fraction of N-(4-bromo-3,5-difluorophenyl)acrylamide (Liquid); method: laser monitoring observation
Temperature, K	Mole fraction of N-(4-bromo-3,5-difluorophenyl)acrylamide	uncertainty
295.25	0.02509	0.00061
297.65	0.02643	0.00071
301.55	0.02919	0.00081
309.25	0.03508	0.00088
312.95	0.0384	0.00104
318.55	0.04403	0.0012
326.45	0.05341	0.00138
331.35	0.06039	0.0016
334.85	0.06586	0.0018
339.55	0.07401	0.00201
344.45	0.08375	0.00223
347.55	0.0905	0.00237

System: toluene + N-(4-bromo-3,5-difluorophenyl)acrylamide; phases: Liquid, Crystal
Fixed: Pressure, kPa = 101
Property: Mole fraction of N-(4-bromo-3,5-difluorophenyl)acrylamide (Liquid); method: laser monitoring observation
Temperature, K	Mole fraction of N-(4-bromo-3,5-difluorophenyl)acrylamide	uncertainty
286.65	0.000587	3.1e-05
291.95	0.00075	3.4e-05
292.05	0.000757	3.4e-05
295.95	0.000898	3.9e-05
301.75	0.00112	5e-05
301.85	0.00115	5e-05
307.95	0.0015	7e-05
312.05	0.00186	9e-05
312.35	0.00186	9e-05
316.05	0.00224	0.0001
319.25	0.00255	0.00011
319.35	0.00256	0.00011
323.75	0.00303	0.00012
327.95	0.00353	0.00017
331.15	0.00428	0.00024
334.65	0.00514	0.00025
337.65	0.00588	0.00023
342.35	0.00689	0.00023
