Measured thermophysical data. Studies on Transport and Thermodynamic Properties of Binary Mixtures of Hexan-1-ol with Halogenated Compounds at 293.15 K
Source: J. Chem. Eng. Data, 2009, 10.1021/je900278v
Compound 1: 1,2-dichloroethane, C2H4Cl2, InChI=1S/C2H4Cl2/c3-1-2-4/h1-2H2, purity 99.7%
Compound 2: 1,2-dibromoethane, C2H4Br2, InChI=1S/C2H4Br2/c3-1-2-4/h1-2H2, purity 99.5%
Compound 3: tetrachloroethene, C2Cl4, InChI=1S/C2Cl4/c3-1(4)2(5)6, purity 99.4%
Compound 4: hexan-1-ol, C6H14O, InChI=1S/C6H14O/c1-2-3-4-5-6-7/h7H,2-6H2,1H3, purity 99.7%

System: 1,2-dichloroethane; phases: Liquid
Property: Viscosity, Pa*s (Liquid); method: Capillary tube (Ostwald; Ubbelohde) method
Temperature, K	Pressure, kPa	Viscosity, Pa*s	uncertainty
293.15	101	0.000827	7e-06

System: 1,2-dichloroethane; phases: Liquid
Property: Mass density, kg/m3 (Liquid); method: VIBTUB::UFactor:4
Temperature, K	Pressure, kPa	Mass density, kg/m3	uncertainty
298.15	101	1252.766	0.596

System: 1,2-dibromoethane; phases: Liquid
Property: Viscosity, Pa*s (Liquid); method: Capillary tube (Ostwald; Ubbelohde) method
Temperature, K	Pressure, kPa	Viscosity, Pa*s	uncertainty
293.15	101	0.001733	1.1e-05

System: 1,2-dibromoethane; phases: Liquid
Property: Mass density, kg/m3 (Liquid); method: VIBTUB:UFactor:4
Temperature, K	Pressure, kPa	Mass density, kg/m3	uncertainty
298.15	101	2179.591	2.202

System: tetrachloroethene; phases: Liquid
Property: Viscosity, Pa*s (Liquid); method: Capillary tube (Ostwald; Ubbelohde) method
Temperature, K	Pressure, kPa	Viscosity, Pa*s	uncertainty
293.15	101	0.00089	7e-06

System: tetrachloroethene; phases: Liquid
Property: Mass density, kg/m3 (Liquid); method: VIBTUB::UFactor:4
Temperature, K	Pressure, kPa	Mass density, kg/m3	uncertainty
298.15	101	1622.745	1.227

System: hexan-1-ol; phases: Liquid
Property: Viscosity, Pa*s (Liquid); method: Capillary tube (Ostwald; Ubbelohde) method
Temperature, K	Pressure, kPa	Viscosity, Pa*s	uncertainty
293.15	101	0.005291	3e-05

System: hexan-1-ol; phases: Liquid
Property: Mass density, kg/m3 (Liquid); method: VIBTUB:UFactor:4
Temperature, K	Pressure, kPa	Mass density, kg/m3	uncertainty
298.15	101	818.856	0.419

System: 1,2-dichloroethane + hexan-1-ol; phases: Liquid
Fixed: Temperature, K = 293.15
Fixed: Pressure, kPa = 101
Property: Viscosity, Pa*s (Liquid); method: Capillary tube (Ostwald; Ubbelohde) method
Mole fraction of 1,2-dichloroethane	Viscosity, Pa*s	uncertainty
0	0.005291	3e-05
0.037	0.005008	3.2e-05
0.0769	0.004696	3e-05
0.1499	0.004191	2.7e-05
0.2147	0.003787	2.5e-05
0.2935	0.003292	2.3e-05
0.3952	0.002726	2e-05
0.4532	0.002405	1.8e-05
0.5596	0.001894	1.5e-05
0.6113	0.001677	1.3e-05
0.6971	0.001372	1.1e-05
0.7791	0.001137	9e-06
0.8563	0.000977	8e-06
0.9335	0.000873	7e-06
0.979	0.000833	7e-06
1	0.000827	7e-06

System: 1,2-dichloroethane + hexan-1-ol; phases: Liquid
Fixed: Temperature, K = 298.15
Fixed: Pressure, kPa = 101
Property: Mass density, kg/m3 (Liquid); method: VIBTUB:UFactor:4
Mole fraction of 1,2-dichloroethane	Mass density, kg/m3	uncertainty
0	818.856	0.419
0.037	828.769	0.68
0.0769	839.847	0.685
0.1499	860.583	0.68
0.2147	879.725	0.701
0.2935	904.954	0.735
0.3952	940.475	0.754
0.4532	962.107	0.816
0.5596	1005.05	0.841
0.6113	1027.551	0.94
0.6971	1067.981	1.032
0.7791	1111.055	1.149
0.8563	1155.161	1.294
0.9335	1205.426	1.426
0.979	1236.986	1.528
1	1252.766	0.596

System: 1,2-dibromoethane + hexan-1-ol; phases: Liquid
Fixed: Temperature, K = 293.15
Fixed: Pressure, kPa = 101
Property: Viscosity, Pa*s (Liquid); method: Capillary tube (Ostwald; Ubbelohde) method
Mole fraction of 1,2-dibromoethane	Viscosity, Pa*s	uncertainty
0	0.005291	3e-05
0.0402	0.004925	3.3e-05
0.0682	0.004703	3.1e-05
0.1276	0.004275	2.8e-05
0.2056	0.003781	2.5e-05
0.2686	0.003412	2.2e-05
0.3892	0.002862	1.9e-05
0.4277	0.002711	1.8e-05
0.5444	0.002325	1.5e-05
0.6405	0.00207	1.4e-05
0.7326	0.001877	1.2e-05
0.8519	0.001726	1.1e-05
0.9273	0.00169	1.1e-05
0.9587	0.001692	1.1e-05
0.9782	0.00171	1.1e-05
1	0.001733	1.1e-05

System: 1,2-dibromoethane + hexan-1-ol; phases: Liquid
Fixed: Temperature, K = 298.15
Fixed: Pressure, kPa = 101
Property: Mass density, kg/m3 (Liquid); method: VIBTUB:UFactor:4
Mole fraction of 1,2-dibromoethane	Mass density, kg/m3	uncertainty
0	818.856	0.419
0.0402	856.608	0.408
0.0682	883.413	0.376
0.1276	941.916	0.309
0.2056	1022.358	0.279
0.2686	1090.467	0.371
0.3892	1228.973	0.574
0.4277	1276.432	0.656
0.5444	1427.131	0.9
0.6405	1561.996	1.129
0.7326	1701.636	1.373
0.8519	1899.692	1.722
0.9273	2036.524	1.972
0.9587	2096.509	2.084
0.9782	2135.291	2.157
1	2179.591	2.202

System: hexan-1-ol + tetrachloroethene; phases: Liquid
Fixed: Temperature, K = 293.15
Fixed: Pressure, kPa = 101
Property: Viscosity, Pa*s (Liquid); method: Capillary tube (Ostwald; Ubbelohde) method
Mole fraction of tetrachloroethene	Viscosity, Pa*s	uncertainty
0	0.005291	3e-05
0.0688	0.004756	3.1e-05
0.123	0.004351	2.9e-05
0.2457	0.003493	2.4e-05
0.3618	0.002772	2e-05
0.4502	0.002308	1.7e-05
0.5583	0.001853	1.4e-05
0.6518	0.001534	1.2e-05
0.7068	0.001382	1e-05
0.7419	0.001297	1e-05
0.7797	0.001213	9e-06
0.8315	0.001116	9e-06
0.8718	0.001051	8e-06
0.9179	0.000982	8e-06
0.9504	0.000942	7e-06
1	0.00089	7e-06

System: hexan-1-ol + tetrachloroethene; phases: Liquid
Fixed: Temperature, K = 298.15
Fixed: Pressure, kPa = 101
Property: Mass density, kg/m3 (Liquid); method: VIBTUB:UFactor:4
Mole fraction of tetrachloroethene	Mass density, kg/m3	uncertainty
0	818.856	0.419
0.0688	864.637	0.375
0.123	901.521	0.326
0.2457	987.759	0.22
0.3618	1072.992	0.308
0.4502	1140.457	0.413
0.5583	1226.302	0.552
0.6518	1303.622	0.681
0.7068	1350.534	0.762
0.7419	1381.185	0.815
0.7797	1414.647	0.873
0.8315	1461.437	0.954
0.8718	1498.8	1.021
0.9179	1542.246	1.098
0.9504	1573.609	1.155
1	1622.745	1.227
