Measured thermophysical data. Solubility of Elemental Sulfur in Toluene between (267.15 and 313.15) K under Atmospheric Pressure
Source: J. Chem. Eng. Data, 2009, 10.1021/je9002256
Compound 1: toluene, C7H8, InChI=1S/C7H8/c1-7-5-3-2-4-6-7/h2-6H,1H3
Compound 2: cyclooctasulfur, S8, InChI=1S/S8/c1-2-4-6-8-7-5-3-1

System: toluene + cyclooctasulfur; phases: Liquid, Crystal
Fixed: Pressure, kPa = 101
Property: Mass fraction of cyclooctasulfur (Liquid); method: Chromatography
Temperature, K	Mass fraction of cyclooctasulfur	uncertainty
267.15	0.00782	0.00074
274.95	0.01042	0.00098
284.15	0.01266	0.00119
293.25	0.01695	0.0016
303.35	0.02121	0.002
312.95	0.028	0.00264
