Measured thermophysical data. Isobaric Vapor-Liquid Equilibria at 101.32 kPa and Densities, Speeds of Sound, and Refractive Indices at 298.15 K for MTBE or DIPE or TAME + 1-Propanol Binary Systems
Source: J. Chem. Eng. Data, 2010, 10.1021/je900274n
Compound 1: propan-1-ol, C3H8O, InChI=1S/C3H8O/c1-2-3-4/h4H,2-3H2,1H3, purity 99.9%
Compound 2: 2-methoxy-2-methylpropane, C5H12O, InChI=1S/C5H12O/c1-5(2,3)6-4/h1-4H3, purity 99.8%
Compound 3: diisopropyl ether, C6H14O, InChI=1S/C6H14O/c1-5(2)7-6(3)4/h5-6H,1-4H3, purity 99%
Compound 4: 2-methoxy-2-methylbutane, C6H14O, InChI=1S/C6H14O/c1-5-6(2,3)7-4/h5H2,1-4H3, purity 97%

System: propan-1-ol; phases: Liquid
Property: Refractive index (Na D-line) (Liquid); method: ABBE:UFactor:2
Temperature, K	Pressure, kPa	Refractive index (Na D-line)	uncertainty
298.15	101.325	1.38308	0.00062

System: propan-1-ol; phases: Liquid
Property: Speed of sound, m/s (Liquid); method: PULSEH:UFactor:4
Pressure, kPa	Temperature, K	Speed of sound, m/s	uncertainty
101	298.15	1207	3

System: propan-1-ol; phases: Liquid
Property: Mass density, kg/m3 (Liquid); method: VIBTUB:UFactor:4
Temperature, K	Pressure, kPa	Mass density, kg/m3	uncertainty
298.15	101	799.64	0.44

System: 2-methoxy-2-methylpropane; phases: Liquid
Property: Refractive index (Na D-line) (Liquid); method: ABBE::UFactor:2
Temperature, K	Pressure, kPa	Refractive index (Na D-line)	uncertainty
298.15	101.325	1.36628	0.00062

System: 2-methoxy-2-methylpropane; phases: Liquid
Property: Speed of sound, m/s (Liquid); method: PULSEH::UFactor:4
Pressure, kPa	Temperature, K	Speed of sound, m/s	uncertainty
101	298.15	1037	3

System: 2-methoxy-2-methylpropane; phases: Liquid
Property: Mass density, kg/m3 (Liquid); method: VIBTUB::UFactor:4
Temperature, K	Pressure, kPa	Mass density, kg/m3	uncertainty
298.15	101	735.56	0.54

System: diisopropyl ether; phases: Liquid
Property: Refractive index (Na D-line) (Liquid); method: ABBE::UFactor:2
Temperature, K	Pressure, kPa	Refractive index (Na D-line)	uncertainty
298.15	101.325	1.36523	0.00065

System: diisopropyl ether; phases: Liquid
Property: Speed of sound, m/s (Liquid); method: PULSEH::UFactor:4
Pressure, kPa	Temperature, K	Speed of sound, m/s	uncertainty
101	298.15	997	3

System: diisopropyl ether; phases: Liquid
Property: Mass density, kg/m3 (Liquid); method: VIBTUB::UFactor:6
Temperature, K	Pressure, kPa	Mass density, kg/m3	uncertainty
298.15	101	718.32	0.95

System: 2-methoxy-2-methylbutane; phases: Liquid
Property: Refractive index (Na D-line) (Liquid); method: ABBE::UFactor:2
Temperature, K	Pressure, kPa	Refractive index (Na D-line)	uncertainty
298.15	101.325	1.38587	0.00086

System: 2-methoxy-2-methylbutane; phases: Liquid
Property: Speed of sound, m/s (Liquid); method: PULSEH::UFactor:4
Pressure, kPa	Temperature, K	Speed of sound, m/s	uncertainty
101	298.15	1116	4

System: 2-methoxy-2-methylbutane; phases: Liquid
Property: Mass density, kg/m3 (Liquid); method: VIBTUB::UFactor:16
Temperature, K	Pressure, kPa	Mass density, kg/m3	uncertainty
298.15	101	765.92	3.05

System: propan-1-ol + 2-methoxy-2-methylpropane; phases: Liquid
Fixed: Pressure, kPa = 101
Fixed: Temperature, K = 298.15
Property: Refractive index (Na D-line) (Liquid); method: ABBE:UFactor:2
Mole fraction of 2-methoxy-2-methylpropane	Refractive index (Na D-line)	uncertainty
0	1.38308	0.00062
0.0584	1.38233	0.00062
0.0942	1.38191	0.00062
0.1293	1.38154	0.00062
0.1923	1.38064	0.00062
0.2104	1.38021	0.00062
0.2769	1.37933	0.00062
0.3348	1.37842	0.00062
0.376	1.37743	0.00062
0.4154	1.3769	0.00062
0.4663	1.376	0.00062
0.4881	1.37558	0.00062
0.5644	1.37419	0.00062
0.5901	1.3738	0.00062
0.6768	1.37239	0.00062
0.7881	1.37033	0.00062
0.8496	1.36915	0.00062
0.8918	1.36836	0.00062
0.9035	1.36811	0.00062
0.9746	1.36673	0.00062
1	1.36628	0.00062

System: propan-1-ol + 2-methoxy-2-methylpropane; phases: Liquid
Fixed: Pressure, kPa = 101
Fixed: Temperature, K = 298.15
Property: Speed of sound, m/s (Liquid); method: PULSEH:UFactor:4
Mole fraction of 2-methoxy-2-methylpropane	Speed of sound, m/s	uncertainty
0	1207	3
0.0584	1196	3
0.0942	1190	3
0.1293	1184	3
0.1923	1173	3
0.2104	1168	3
0.2769	1156	3
0.3348	1146	3
0.376	1139	3
0.4154	1132	3
0.4663	1123	3
0.4881	1119	3
0.5644	1107	3
0.5901	1102	3
0.6768	1089	3
0.7881	1072	3
0.8496	1062	3
0.8918	1056	3
0.9035	1054	3
0.9746	1042	3
1	1037	3

System: propan-1-ol + 2-methoxy-2-methylpropane; phases: Liquid, Gas
Fixed: Pressure, kPa = 101.32
Property: Boiling temperature at pressure P, K (Liquid); method: EBULLIO:UFactor:4
Mole fraction of 2-methoxy-2-methylpropane	Boiling temperature at pressure P, K	uncertainty
0.0055	369.54	0.59
0.0174	368.12	0.59
0.0291	366.67	0.55
0.0705	362.26	0.55
0.094	359.74	0.49
0.1547	354.78	0.47
0.1879	352.31	0.44
0.218	350.49	0.41
0.2498	348.77	0.41
0.2529	348.26	0.41
0.2823	346.93	0.39
0.3192	345.14	0.38
0.3521	343.81	0.38
0.3867	342.19	0.37
0.4254	340.94	0.37
0.4276	340.18	0.37
0.4868	338.76	0.35
0.5416	337.55	0.35
0.577	336.56	0.36
0.5919	335.99	0.37
0.6618	334.67	0.35
0.7035	333.75	0.35
0.7413	333.05	0.35
0.771	332.34	0.35
0.8046	331.67	0.35
0.8403	331	0.35
0.8672	330.46	0.35
0.9037	329.81	0.35
0.9399	329.13	0.35
0.9657	328.68	0.35

System: propan-1-ol + 2-methoxy-2-methylpropane; phases: Liquid
Fixed: Temperature, K = 298.15
Fixed: Pressure, kPa = 101
Property: Mass density, kg/m3 (Liquid); method: VIBTUB:UFactor:4
Mole fraction of 2-methoxy-2-methylpropane	Mass density, kg/m3	uncertainty
0	799.64	0.44
0.0584	795.35	0.45
0.0942	792.82	0.45
0.1293	790.29	0.45
0.1923	786.06	0.46
0.2104	784.45	0.46
0.2769	779.97	0.47
0.3348	776.07	0.48
0.376	773.56	0.48
0.4154	770.88	0.49
0.4663	767.49	0.49
0.4881	766.16	0.49
0.5644	761.34	0.5
0.5901	759.75	0.5
0.6768	754.54	0.51
0.7881	747.98	0.52
0.8496	744.33	0.53
0.8918	741.7	0.53
0.9035	741.17	0.53
0.9746	737.03	0.54
1	735.56	0.54

System: propan-1-ol + 2-methoxy-2-methylpropane; phases: Gas, Liquid
Fixed: Pressure, kPa = 101.32
Property: Mole fraction of 2-methoxy-2-methylpropane (Gas); method: Density calibration data
Mole fraction of 2-methoxy-2-methylpropane	Mole fraction of 2-methoxy-2-methylpropane	uncertainty
0.0055	0.0277	0.0203
0.0174	0.0868	0.0206
0.0291	0.1472	0.0168
0.0705	0.3079	0.0151
0.094	0.3818	0.0112
0.1547	0.5318	0.01
0.1879	0.5932	0.0076
0.218	0.6338	0.0072
0.2498	0.685	0.0066
0.2529	0.679	0.0066
0.2823	0.7184	0.006
0.3192	0.7524	0.0052
0.3521	0.7754	0.0051
0.3867	0.8046	0.0047
0.4254	0.8194	0.0045
0.4276	0.826	0.0045
0.4868	0.8531	0.0042
0.5416	0.8646	0.0041
0.577	0.8772	0.0043
0.5919	0.8851	0.0045
0.6618	0.8977	0.0041
0.7035	0.9131	0.0042
0.7413	0.9208	0.0041
0.771	0.9297	0.0042
0.8046	0.9394	0.0041
0.8403	0.9469	0.0041
0.8672	0.955	0.0042
0.9037	0.9655	0.0041
0.9399	0.9733	0.0041
0.9657	0.9811	0.0042

System: propan-1-ol + diisopropyl ether; phases: Liquid
Fixed: Pressure, kPa = 101
Fixed: Temperature, K = 298.15
Property: Refractive index (Na D-line) (Liquid); method: ABBE:UFactor:2
Mole fraction of diisopropyl ether	Refractive index (Na D-line)	uncertainty
0	1.38308	0.00062
0.0602	1.38242	0.00062
0.1201	1.38153	0.00062
0.1569	1.38101	0.00062
0.2127	1.38022	0.00062
0.2472	1.37959	0.00062
0.2939	1.37874	0.00062
0.3513	1.37774	0.00063
0.3835	1.37719	0.00063
0.4282	1.37637	0.00063
0.4934	1.37518	0.00063
0.5267	1.37447	0.00063
0.5772	1.37356	0.00063
0.6167	1.37281	0.00063
0.7267	1.37073	0.00064
0.7533	1.37025	0.00064
0.7824	1.36964	0.00064
0.8325	1.36871	0.00064
0.8608	1.36811	0.00064
0.9496	1.36638	0.00065
1	1.36523	0.00065

System: propan-1-ol + diisopropyl ether; phases: Liquid
Fixed: Pressure, kPa = 101
Fixed: Temperature, K = 298.15
Property: Speed of sound, m/s (Liquid); method: PULSEH:UFactor:4
Mole fraction of diisopropyl ether	Speed of sound, m/s	uncertainty
0	1207	3
0.0602	1189	3
0.1201	1168	3
0.1569	1162	3
0.2127	1147	3
0.2472	1137	3
0.2939	1128	3
0.3513	1113	3
0.3835	1107	3
0.4282	1097	3
0.4934	1083	3
0.5267	1077	3
0.5772	1067	3
0.6167	1060	3
0.7267	1042	3
0.7533	1037	3
0.7824	1033	3
0.8325	1025	3
0.8608	1021	3
0.9496	1006	3
1	997	3

System: propan-1-ol + diisopropyl ether; phases: Liquid, Gas
Fixed: Pressure, kPa = 101.32
Property: Boiling temperature at pressure P, K (Liquid); method: EBULLIO:UFactor:3
Mole fraction of diisopropyl ether	Boiling temperature at pressure P, K	uncertainty
0.0545	364.78	0.42
0.0785	362.78	0.41
0.102	360.96	0.39
0.133	358.82	0.38
0.143	358.09	0.36
0.1738	356.27	0.33
0.2038	354.8	0.31
0.2413	353.19	0.3
0.2644	352.44	0.29
0.3055	350.98	0.29
0.3504	349.72	0.28
0.3967	348.53	0.27
0.449	347.46	0.27
0.505	346.5	0.26
0.5677	345.52	0.26
0.6673	344.2	0.26
0.7483	343.27	0.26
0.8331	342.48	0.26
0.9177	341.86	0.26

System: propan-1-ol + diisopropyl ether; phases: Liquid
Fixed: Temperature, K = 298.15
Fixed: Pressure, kPa = 101
Property: Mass density, kg/m3 (Liquid); method: VIBTUB:UFactor:6
Mole fraction of diisopropyl ether	Mass density, kg/m3	uncertainty
0	799.64	0.66
0.0602	793.89	0.67
0.1201	787.09	0.69
0.1569	783.68	0.7
0.2127	778.46	0.72
0.2472	775.39	0.73
0.2939	771.16	0.74
0.3513	766.09	0.76
0.3835	763.45	0.76
0.4282	759.51	0.78
0.4934	754.16	0.8
0.5267	751.59	0.81
0.5772	747.7	0.82
0.6167	744.73	0.83
0.7267	736.98	0.86
0.7533	735.13	0.87
0.7824	733.09	0.88
0.8325	729.72	0.9
0.8608	727.8	0.9
0.9496	721.77	0.93
1	718.32	0.95

System: propan-1-ol + diisopropyl ether; phases: Gas, Liquid
Fixed: Pressure, kPa = 101.32
Property: Mole fraction of diisopropyl ether (Gas); method: Density calibration data
Mole fraction of diisopropyl ether	Mole fraction of diisopropyl ether	uncertainty
0.0545	0.219	0.0138
0.0785	0.2985	0.0119
0.102	0.3524	0.0111
0.133	0.4388	0.0126
0.143	0.4769	0.0083
0.1738	0.5173	0.0069
0.2038	0.5565	0.0066
0.2413	0.5983	0.0061
0.2644	0.6181	0.0058
0.3055	0.655	0.0055
0.3504	0.6846	0.0053
0.3967	0.7172	0.0052
0.449	0.7459	0.0049
0.505	0.7692	0.0047
0.5677	0.7913	0.0047
0.6673	0.8318	0.0046
0.7483	0.856	0.0045
0.8331	0.8904	0.0046
0.9177	0.9361	0.0046

System: propan-1-ol + 2-methoxy-2-methylbutane; phases: Liquid
Fixed: Pressure, kPa = 101
Fixed: Temperature, K = 298.15
Property: Refractive index (Na D-line) (Liquid); method: ABBE:UFactor:2
Mole fraction of 2-methoxy-2-methylbutane	Refractive index (Na D-line)	uncertainty
0	1.38308	0.00062
0.0485	1.38373	0.00062
0.0884	1.3842	0.00062
0.1546	1.38487	0.00063
0.2036	1.38525	0.00064
0.2523	1.38557	0.00064
0.289	1.38579	0.00065
0.3413	1.38602	0.00066
0.3936	1.38623	0.00067
0.4451	1.38636	0.00068
0.4847	1.38646	0.00069
0.5461	1.38654	0.00071
0.5802	1.38657	0.00072
0.6175	1.3866	0.00073
0.6546	1.3866	0.00074
0.6858	1.38659	0.00075
0.775	1.3865	0.00078
0.8308	1.3864	0.0008
0.9096	1.38619	0.00083
0.9486	1.38605	0.00084
1	1.38587	0.00086

System: propan-1-ol + 2-methoxy-2-methylbutane; phases: Liquid
Fixed: Pressure, kPa = 101
Fixed: Temperature, K = 298.15
Property: Speed of sound, m/s (Liquid); method: PULSEH:UFactor:4
Mole fraction of 2-methoxy-2-methylbutane	Speed of sound, m/s	uncertainty
0	1207	3
0.0485	1203	3
0.0884	1199	3
0.1546	1193	3
0.2036	1188	3
0.2523	1184	3
0.289	1180	3
0.3413	1175	3
0.3936	1170	3
0.4451	1165	3
0.4847	1161	3
0.5461	1156	3
0.5802	1153	4
0.6175	1149	4
0.6546	1147	4
0.6858	1144	4
0.775	1136	4
0.8308	1132	4
0.9096	1125	4
0.9486	1121	4
1	1116	4

System: propan-1-ol + 2-methoxy-2-methylbutane; phases: Liquid, Gas
Fixed: Pressure, kPa = 101.32
Property: Boiling temperature at pressure P, K (Liquid); method: EBULLIO:UFactor:3
Mole fraction of 2-methoxy-2-methylbutane	Boiling temperature at pressure P, K	uncertainty
0.0433	368.23	0.3
0.1062	365.81	0.3
0.1304	365.02	0.28
0.161	364.13	0.29
0.1795	363.35	0.27
0.2154	362.82	0.27
0.2639	361.61	0.27
0.2983	361.08	0.27
0.3369	360.52	0.26
0.4054	359.62	0.26
0.4546	359.15	0.26
0.5004	358.71	0.26
0.5716	358.22	0.27
0.6402	357.92	0.27
0.7034	357.8	0.27
0.7764	357.8	0.27
0.8586	357.87	0.28
0.9008	358.16	0.28
0.9523	358.77	0.28

System: propan-1-ol + 2-methoxy-2-methylbutane; phases: Liquid
Fixed: Temperature, K = 298.15
Fixed: Pressure, kPa = 101
Property: Mass density, kg/m3 (Liquid); method: VIBTUB:UFactor:16
Mole fraction of 2-methoxy-2-methylbutane	Mass density, kg/m3	uncertainty
0	799.64	1.75
0.0485	797.8	1.77
0.0884	796.27	1.79
0.1546	793.8	1.82
0.2036	791.96	1.86
0.2523	790.15	1.89
0.289	788.84	1.93
0.3413	786.97	1.97
0.3936	785.18	2.03
0.4451	783.4	2.09
0.4847	782.08	2.14
0.5461	780.04	2.22
0.5802	778.92	2.27
0.6175	777.72	2.32
0.6546	776.55	2.38
0.6858	775.56	2.43
0.775	772.78	2.59
0.8308	771.1	2.69
0.9096	768.73	2.85
0.9486	767.47	2.93
1	765.92	3.05

System: propan-1-ol + 2-methoxy-2-methylbutane; phases: Gas, Liquid
Fixed: Pressure, kPa = 101.32
Property: Mole fraction of 2-methoxy-2-methylbutane (Gas); method: Density calibration data
Mole fraction of 2-methoxy-2-methylbutane	Mole fraction of 2-methoxy-2-methylbutane	uncertainty
0.0433	0.1083	0.0094
0.1062	0.2416	0.0092
0.1304	0.2876	0.0078
0.161	0.3325	0.0079
0.1795	0.3699	0.0067
0.2154	0.4022	0.0064
0.2639	0.4556	0.0069
0.2983	0.4798	0.0069
0.3369	0.5091	0.0074
0.4054	0.5554	0.0077
0.4546	0.5883	0.0078
0.5004	0.6157	0.0078
0.5716	0.658	0.0079
0.6402	0.6931	0.0078
0.7034	0.7243	0.0078
0.7764	0.7746	0.0076
0.8586	0.8377	0.0071
0.9008	0.8763	0.007
0.9523	0.9338	0.0065
