Measured thermophysical data. Density, Speed of Sound, and Refractive Index for Binary Mixtures Containing Cycloalkanes with o-Xylene, m-Xylene, p-Xylene, and Mesitylene at T = (298.15 and 313.15) K
Source: J. Chem. Eng. Data, 2010, 10.1021/je901020a
Compound 1: cyclopentane, C5H10, InChI=1S/C5H10/c1-2-4-5-3-1/h1-5H2
Compound 2: cyclohexane, C6H12, InChI=1S/C6H12/c1-2-4-6-5-3-1/h1-6H2
Compound 3: methylcyclohexane, C7H14, InChI=1S/C7H14/c1-7-5-3-2-4-6-7/h7H,2-6H2,1H3
Compound 4: cyclooctane, C8H16, InChI=1S/C8H16/c1-2-4-6-8-7-5-3-1/h1-8H2
Compound 5: 1,2-dimethylbenzene, C8H10, InChI=1S/C8H10/c1-7-5-3-4-6-8(7)2/h3-6H,1-2H3
Compound 6: 1,3-dimethylbenzene, C8H10, InChI=1S/C8H10/c1-7-4-3-5-8(2)6-7/h3-6H,1-2H3
Compound 7: 1,4-dimethylbenzene, C8H10, InChI=1S/C8H10/c1-7-3-5-8(2)6-4-7/h3-6H,1-2H3
Compound 8: 1,3,5-trimethylbenzene, C9H12, InChI=1S/C9H12/c1-7-4-8(2)6-9(3)5-7/h4-6H,1-3H3

System: cyclopentane; phases: Liquid
Fixed: Pressure, kPa = 101.325
Property: Refractive index (Na D-line) (Liquid); method: Standard Abbe refractometry
Temperature, K	Refractive index (Na D-line)	uncertainty
298.15	1.40292	0.00103
313.15	1.39456	0.00103

System: cyclopentane; phases: Liquid
Fixed: Pressure, kPa = 101
Property: Speed of sound, m/s (Liquid); method: Pulse-echo method
Temperature, K	Speed of sound, m/s	uncertainty
298.15	1204	2
313.15	1130	2

System: cyclopentane; phases: Liquid
Fixed: Pressure, kPa = 101
Property: Mass density, kg/m3 (Liquid); method: VIBTUB:UFactor:4
Temperature, K	Mass density, kg/m3	uncertainty
298.15	740	0.6
313.15	725	0.7

System: cyclohexane; phases: Liquid
Fixed: Pressure, kPa = 101.325
Property: Refractive index (Na D-line) (Liquid); method: Standard Abbe refractometry
Temperature, K	Refractive index (Na D-line)	uncertainty
298.15	1.4236	0.00064
313.15	1.41516	0.00064

System: cyclohexane; phases: Liquid
Fixed: Pressure, kPa = 101
Property: Speed of sound, m/s (Liquid); method: Pulse-echo method
Temperature, K	Speed of sound, m/s	uncertainty
298.15	1255	2
313.15	1182	2

System: cyclohexane; phases: Liquid
Fixed: Pressure, kPa = 101
Property: Mass density, kg/m3 (Liquid); method: VIBTUB:UFactor:4
Temperature, K	Mass density, kg/m3	uncertainty
298.15	773.9	0.5
313.15	759.6	0.5
313.15	759.59	0.5

System: methylcyclohexane; phases: Liquid
Fixed: Pressure, kPa = 101.325
Property: Refractive index (Na D-line) (Liquid); method: Standard Abbe refractometry
Temperature, K	Refractive index (Na D-line)	uncertainty
298.15	1.42062	0.00064
313.15	1.41274	0.00064
313.15	1.412735	0.001018

System: methylcyclohexane; phases: Liquid
Fixed: Pressure, kPa = 101
Property: Speed of sound, m/s (Liquid); method: Pulse-echo method
Temperature, K	Speed of sound, m/s	uncertainty
298.15	1215	2
313.15	1150	2

System: methylcyclohexane; phases: Liquid
Fixed: Pressure, kPa = 101
Property: Mass density, kg/m3 (Liquid); method: VIBTUB:UFactor:4
Temperature, K	Mass density, kg/m3	uncertainty
298.15	765	0.6
298.15	765.1	0.6
313.15	751.9	0.6

System: cyclooctane; phases: Liquid
Fixed: Pressure, kPa = 101.325
Property: Refractive index (Na D-line) (Liquid); method: Standard Abbe refractometry
Temperature, K	Refractive index (Na D-line)	uncertainty
298.15	1.45598	0.00061
313.15	1.44877	0.00061

System: cyclooctane; phases: Liquid
Fixed: Pressure, kPa = 101
Property: Speed of sound, m/s (Liquid); method: Pulse-echo method
Temperature, K	Speed of sound, m/s	uncertainty
298.15	1391	2
313.15	1326	2
313.15	1325	2

System: cyclooctane; phases: Liquid
Fixed: Pressure, kPa = 101
Property: Mass density, kg/m3 (Liquid); method: VIBTUB:UFactor:4
Temperature, K	Mass density, kg/m3	uncertainty
298.15	831.5	0.5
313.15	819.2	0.5

System: 1,2-dimethylbenzene; phases: Liquid
Fixed: Pressure, kPa = 101.325
Property: Refractive index (Na D-line) (Liquid); method: Standard Abbe refractometry
Temperature, K	Refractive index (Na D-line)	uncertainty
298.15	1.50262	0.00102
313.15	1.49466	0.00102

System: 1,2-dimethylbenzene; phases: Liquid
Fixed: Pressure, kPa = 101
Property: Speed of sound, m/s (Liquid); method: Pulse-echo method
Temperature, K	Speed of sound, m/s	uncertainty
298.15	1350	2
313.15	1290	2
313.15	1289	2

System: 1,2-dimethylbenzene; phases: Liquid
Fixed: Pressure, kPa = 101
Property: Mass density, kg/m3 (Liquid); method: VIBTUB:UFactor:4
Temperature, K	Mass density, kg/m3	uncertainty
298.15	875.4	0.5
313.15	862.9	0.5

System: 1,3-dimethylbenzene; phases: Liquid
Fixed: Pressure, kPa = 101.325
Property: Refractive index (Na D-line) (Liquid); method: Standard Abbe refractometry
Temperature, K	Refractive index (Na D-line)	uncertainty
298.15	1.49466	0.00103
313.15	1.48653	0.00103

System: 1,3-dimethylbenzene; phases: Liquid
Fixed: Pressure, kPa = 101
Property: Speed of sound, m/s (Liquid); method: Pulse-echo method
Temperature, K	Speed of sound, m/s	uncertainty
298.15	1321	2
313.15	1259	2

System: 1,3-dimethylbenzene; phases: Liquid
Fixed: Pressure, kPa = 101
Property: Mass density, kg/m3 (Liquid); method: VIBTUB:UFactor:4
Temperature, K	Mass density, kg/m3	uncertainty
298.15	859.8	0.5
313.15	846.9	0.5

System: 1,4-dimethylbenzene; phases: Liquid
Fixed: Pressure, kPa = 101.325
Property: Refractive index (Na D-line) (Liquid); method: Standard Abbe refractometry
Temperature, K	Refractive index (Na D-line)	uncertainty
298.15	1.49312	0.00105
313.15	1.48444	0.00105

System: 1,4-dimethylbenzene; phases: Liquid
Fixed: Pressure, kPa = 101
Property: Speed of sound, m/s (Liquid); method: Pulse-echo method
Temperature, K	Speed of sound, m/s	uncertainty
298.15	1310	2
313.15	1248	2

System: 1,4-dimethylbenzene; phases: Liquid
Fixed: Pressure, kPa = 101
Property: Mass density, kg/m3 (Liquid); method: VIBTUB:UFactor:4
Temperature, K	Mass density, kg/m3	uncertainty
298.15	856.6	0.5
313.15	843.5	0.5

System: 1,3,5-trimethylbenzene; phases: Liquid
Fixed: Pressure, kPa = 101.325
Property: Refractive index (Na D-line) (Liquid); method: Standard Abbe refractometry
Temperature, K	Refractive index (Na D-line)	uncertainty
298.15	1.49693	0.00101
313.15	1.48923	0.00101

System: 1,3,5-trimethylbenzene; phases: Liquid
Fixed: Pressure, kPa = 101
Property: Speed of sound, m/s (Liquid); method: Pulse-echo method
Temperature, K	Speed of sound, m/s	uncertainty
298.15	1336	2
313.15	1277	2

System: 1,3,5-trimethylbenzene; phases: Liquid
Fixed: Pressure, kPa = 101
Property: Mass density, kg/m3 (Liquid); method: VIBTUB:UFactor:4
Temperature, K	Mass density, kg/m3	uncertainty
298.15	861.1	0.5
313.15	848.8	0.5

System: 1,2-dimethylbenzene + cyclopentane; phases: Liquid
Fixed: Pressure, kPa = 101
Property: Refractive index (Na D-line) (Liquid); method: Standard Abbe refractometry
Temperature, K	Mole fraction of cyclopentane	Refractive index (Na D-line)	uncertainty
298.15	0	1.50262	0.00102
298.15	0.045	1.49951	0.00106
298.15	0.0924	1.49549	0.00102
298.15	0.1949	1.48698	0.00106
298.15	0.2932	1.4791	0.00103
298.15	0.3903	1.47003	0.00106
298.15	0.4954	1.46059	0.00106
298.15	0.594	1.4507	0.00106
298.15	0.6958	1.43935	0.00106
298.15	0.7939	1.42832	0.00106
298.15	0.8926	1.41649	0.00106
298.15	0.9503	1.40949	0.00106
298.15	1	1.40292	0.00103
313.15	0	1.49466	0.00102
313.15	0.072	1.48922	0.00102
313.15	0.0931	1.48739	0.00102
313.15	0.1919	1.47936	0.001
313.15	0.2934	1.47048	0.00105
313.15	0.3772	1.46299	0.00093
313.15	0.4855	1.45278	0.00089
313.15	0.5894	1.44238	0.00087
313.15	0.685	1.43216	0.00092
313.15	0.8099	1.41833	0.00101
313.15	0.8912	1.40862	0.00116
313.15	0.9479	1.402	0.00166
313.15	1	1.39456	0.00103

System: 1,2-dimethylbenzene + cyclopentane; phases: Liquid
Fixed: Pressure, kPa = 101
Property: Speed of sound, m/s (Liquid); method: Pulse-echo method
Temperature, K	Mole fraction of cyclopentane	Speed of sound, m/s	uncertainty
298.15	0	1350	2
298.15	0.045	1342	2
298.15	0.0924	1336	2
298.15	0.1949	1319	2
298.15	0.2932	1304	2
298.15	0.3903	1289	2
298.15	0.4954	1273	2
298.15	0.594	1259	2
298.15	0.6958	1244	2
298.15	0.7939	1231	2
298.15	0.8926	1217	2
298.15	0.9503	1210	2
298.15	1	1204	2
313.15	0	1290	2
313.15	0.072	1277	2
313.15	0.0931	1274	2
313.15	0.1919	1257	2
313.15	0.2934	1241	2
313.15	0.3772	1227	2
313.15	0.4855	1209	2
313.15	0.5894	1192	2
313.15	0.685	1177	2
313.15	0.8099	1158	2
313.15	0.8912	1146	2
313.15	0.9479	1138	2
313.15	1	1130	2

System: 1,2-dimethylbenzene + cyclopentane; phases: Liquid
Fixed: Pressure, kPa = 101
Property: Mass density, kg/m3 (Liquid); method: VIBTUB:UFactor:4
Temperature, K	Mole fraction of cyclopentane	Mass density, kg/m3	uncertainty
298.15	0	875.4	0.5
298.15	0.045	870.7	0.5
298.15	0.0924	865.7	0.5
298.15	0.1949	854.1	0.5
298.15	0.2932	842.5	0.5
298.15	0.3903	830.4	0.5
298.15	0.4954	816.6	0.6
298.15	0.594	802.9	0.6
298.15	0.6958	788.1	0.6
298.15	0.7939	773	0.6
298.15	0.8926	757.3	0.6
298.15	0.9503	747.9	0.6
298.15	1	740	0.6
313.15	0	862.9	0.5
313.15	0.072	855	0.5
313.15	0.0931	852.7	0.5
313.15	0.1919	841.5	0.5
313.15	0.2934	829.3	0.5
313.15	0.3772	818.8	0.5
313.15	0.4855	804.6	0.6
313.15	0.5894	790.1	0.6
313.15	0.685	776.2	0.6
313.15	0.8099	756.9	0.6
313.15	0.8912	743.6	0.6
313.15	0.9479	734.1	0.7
313.15	1	725	0.7

System: 1,3-dimethylbenzene + cyclopentane; phases: Liquid
Fixed: Pressure, kPa = 101
Property: Refractive index (Na D-line) (Liquid); method: Standard Abbe refractometry
Temperature, K	Mole fraction of cyclopentane	Refractive index (Na D-line)	uncertainty
298.15	0	1.49466	0.00103
298.15	0.0391	1.49183	0.00106
298.15	0.0908	1.48818	0.00106
298.15	0.1894	1.48065	0.00106
298.15	0.2859	1.47341	0.00102
298.15	0.3868	1.46504	0.00106
298.15	0.4808	1.45745	0.00106
298.15	0.6394	1.44242	0.00106
298.15	0.6923	1.43668	0.00106
298.15	0.7909	1.42686	0.00106
298.15	0.8952	1.41504	0.00106
298.15	0.9514	1.40888	0.00106
298.15	1	1.40292	0.00103
313.15	0	1.48653	0.00103
313.15	0.0431	1.48387	0.00106
313.15	0.0812	1.48096	0.00106
313.15	0.1859	1.47303	0.00106
313.15	0.2864	1.46521	0.00103
313.15	0.3348	1.46128	0.00106
313.15	0.4741	1.44893	0.00106
313.15	0.5747	1.43989	0.00106
313.15	0.6933	1.42834	0.00106
313.15	0.7932	1.4181	0.00106
313.15	0.8961	1.4067	0.00106
313.15	0.9472	1.40122	0.00106
313.15	1	1.39456	0.00103

System: 1,3-dimethylbenzene + cyclopentane; phases: Liquid
Fixed: Pressure, kPa = 101
Property: Speed of sound, m/s (Liquid); method: Pulse-echo method
Temperature, K	Mole fraction of cyclopentane	Speed of sound, m/s	uncertainty
298.15	0	1321	2
298.15	0.0391	1315	2
298.15	0.0908	1308	2
298.15	0.1894	1296	2
298.15	0.2859	1284	2
298.15	0.3868	1272	2
298.15	0.4808	1260	2
298.15	0.6394	1241	2
298.15	0.6923	1235	2
298.15	0.7909	1224	2
298.15	0.8952	1214	2
298.15	0.9514	1208	2
298.15	1	1204	2
313.15	0	1259	2
313.15	0.0431	1253	2
313.15	0.0812	1248	2
313.15	0.1859	1234	2
313.15	0.2864	1220	2
313.15	0.3348	1213	2
313.15	0.4741	1194	2
313.15	0.5747	1181	2
313.15	0.6933	1166	2
313.15	0.7932	1153	2
313.15	0.8961	1141	2
313.15	0.9472	1135	2
313.15	1	1130	2

System: 1,3-dimethylbenzene + cyclopentane; phases: Liquid
Fixed: Pressure, kPa = 101
Property: Mass density, kg/m3 (Liquid); method: VIBTUB:UFactor:4
Temperature, K	Mole fraction of cyclopentane	Mass density, kg/m3	uncertainty
298.15	0	859.8	0.5
298.15	0.0391	856.1	0.5
298.15	0.0908	851.1	0.5
298.15	0.1894	841.2	0.5
298.15	0.2859	831.2	0.5
298.15	0.3868	820.1	0.5
298.15	0.4808	809.2	0.6
298.15	0.6394	789.8	0.6
298.15	0.6923	782.9	0.6
298.15	0.7909	769.7	0.6
298.15	0.8952	755	0.6
298.15	0.9514	746.9	0.6
298.15	1	740	0.6
313.15	0	846.9	0.5
313.15	0.0431	842.9	0.5
313.15	0.0812	839.2	0.5
313.15	0.1859	828.6	0.5
313.15	0.2864	818	0.5
313.15	0.3348	812.6	0.6
313.15	0.4741	796.4	0.6
313.15	0.5747	784.1	0.6
313.15	0.6933	768.8	0.6
313.15	0.7932	755.2	0.6
313.15	0.8961	740.5	0.6
313.15	0.9472	733	0.7
313.15	1	725	0.7

System: 1,4-dimethylbenzene + cyclopentane; phases: Liquid
Fixed: Pressure, kPa = 101
Property: Refractive index (Na D-line) (Liquid); method: Standard Abbe refractometry
Temperature, K	Mole fraction of cyclopentane	Refractive index (Na D-line)	uncertainty
298.15	0	1.49312	0.00105
298.15	0.0462	1.49015	0.00106
298.15	0.0885	1.48707	0.00106
298.15	0.1848	1.48001	0.00106
298.15	0.2886	1.47236	0.00106
298.15	0.3869	1.46445	0.00106
298.15	0.4744	1.45737	0.00106
298.15	0.5886	1.44669	0.00106
298.15	0.6913	1.4372	0.00106
298.15	0.7923	1.42618	0.00106
298.15	0.8935	1.41575	0.00106
298.15	0.9471	1.40916	0.00106
298.15	1	1.40292	0.00103
313.15	0	1.48444	0.00105
313.15	0.0443	1.48224	0.00104
313.15	0.0981	1.47862	0.00101
313.15	0.2012	1.47117	0.00099
313.15	0.2998	1.46343	0.00095
313.15	0.3542	1.4589	0.00092
313.15	0.4799	1.44816	0.00089
313.15	0.6021	1.43702	0.00087
313.15	0.703	1.42761	0.0009
313.15	0.8072	1.41693	0.00107
313.15	0.909	1.4057	0.00138
313.15	0.9601	1.39936	0.00182
313.15	1	1.39456	0.00103

System: 1,4-dimethylbenzene + cyclopentane; phases: Liquid
Fixed: Pressure, kPa = 101
Property: Speed of sound, m/s (Liquid); method: Pulse-echo method
Temperature, K	Mole fraction of cyclopentane	Speed of sound, m/s	uncertainty
298.15	0	1310	2
298.15	0.0462	1305	2
298.15	0.0885	1300	2
298.15	0.1848	1289	2
298.15	0.2886	1277	2
298.15	0.3869	1266	2
298.15	0.4744	1256	2
298.15	0.5886	1244	2
298.15	0.6913	1233	2
298.15	0.7923	1223	2
298.15	0.8935	1213	2
298.15	0.9471	1208	2
298.15	1	1204	2
313.15	0	1248	2
313.15	0.0443	1243	2
313.15	0.0981	1236	2
313.15	0.2012	1224	2
313.15	0.2998	1211	2
313.15	0.3542	1204	2
313.15	0.4799	1189	2
313.15	0.6021	1173	2
313.15	0.703	1161	2
313.15	0.8072	1149	2
313.15	0.909	1138	2
313.15	0.9601	1133	2
313.15	1	1130	2

System: 1,4-dimethylbenzene + cyclopentane; phases: Liquid
Fixed: Pressure, kPa = 101
Property: Mass density, kg/m3 (Liquid); method: VIBTUB:UFactor:4
Temperature, K	Mole fraction of cyclopentane	Mass density, kg/m3	uncertainty
298.15	0	856.6	0.5
298.15	0.0462	852.5	0.5
298.15	0.0885	848.7	0.5
298.15	0.1848	839.6	0.5
298.15	0.2886	829.3	0.5
298.15	0.3869	818.8	0.5
298.15	0.4744	809	0.6
298.15	0.5886	795.1	0.6
298.15	0.6913	782.2	0.6
298.15	0.7923	768.9	0.6
298.15	0.8935	755	0.6
298.15	0.9471	747.4	0.6
298.15	1	740	0.6
313.15	0	843.5	0.5
313.15	0.0443	839.7	0.5
313.15	0.0981	834.8	0.5
313.15	0.2012	824.7	0.5
313.15	0.2998	814.5	0.5
313.15	0.3542	808.5	0.6
313.15	0.4799	794.3	0.6
313.15	0.6021	779.4	0.6
313.15	0.703	766.4	0.6
313.15	0.8072	752.3	0.6
313.15	0.909	737.9	0.6
313.15	0.9601	730.6	0.7
313.15	1	725	0.7

System: 1,3,5-trimethylbenzene + cyclopentane; phases: Liquid
Fixed: Pressure, kPa = 101
Property: Refractive index (Na D-line) (Liquid); method: Standard Abbe refractometry
Temperature, K	Mole fraction of cyclopentane	Refractive index (Na D-line)	uncertainty
298.15	0	1.49693	0.00101
298.15	0.0383	1.49446	0.00106
298.15	0.0884	1.49105	0.00106
298.15	0.1869	1.48398	0.00106
298.15	0.2531	1.47925	0.00106
298.15	0.3849	1.46883	0.00106
298.15	0.4879	1.4596	0.00106
298.15	0.5891	1.45045	0.00106
298.15	0.6926	1.4403	0.00106
298.15	0.7807	1.43111	0.00106
298.15	0.8901	1.41728	0.00106
298.15	0.9487	1.40994	0.00106
298.15	1	1.40292	0.00103
313.15	0	1.48923	0.00101
313.15	0.0414	1.48675	0.00101
313.15	0.0948	1.48324	0.001
313.15	0.1986	1.47585	0.00097
313.15	0.2985	1.46786	0.00094
313.15	0.4078	1.45906	0.00091
313.15	0.4703	1.45335	0.00087
313.15	0.6043	1.4411	0.00088
313.15	0.7006	1.4312	0.00101
313.15	0.8048	1.42003	0.00151
313.15	0.9074	1.40648	0.00199
313.15	0.9595	1.40014	0.00195
313.15	1	1.39456	0.00103

System: 1,3,5-trimethylbenzene + cyclopentane; phases: Liquid
Fixed: Pressure, kPa = 101
Property: Speed of sound, m/s (Liquid); method: Pulse-echo method
Temperature, K	Mole fraction of cyclopentane	Speed of sound, m/s	uncertainty
298.15	0	1336	2
298.15	0.0383	1332	2
298.15	0.0884	1325	2
298.15	0.1869	1311	2
298.15	0.2531	1302	2
298.15	0.3849	1283	2
298.15	0.4879	1269	2
298.15	0.5891	1255	2
298.15	0.6926	1241	2
298.15	0.7807	1229	2
298.15	0.8901	1216	2
298.15	0.9487	1210	2
298.15	1	1204	2
313.15	0	1277	2
313.15	0.0414	1271	2
313.15	0.0948	1263	2
313.15	0.1986	1248	2
313.15	0.2985	1232	2
313.15	0.4078	1216	2
313.15	0.4703	1206	2
313.15	0.6043	1186	2
313.15	0.7006	1171	2
313.15	0.8048	1155	2
313.15	0.9074	1140	2
313.15	0.9595	1134	2
313.15	1	1130	2

System: 1,3,5-trimethylbenzene + cyclopentane; phases: Liquid
Fixed: Pressure, kPa = 101
Property: Mass density, kg/m3 (Liquid); method: VIBTUB:UFactor:4
Temperature, K	Mole fraction of cyclopentane	Mass density, kg/m3	uncertainty
298.15	0	861.1	0.5
298.15	0.0383	857.8	0.5
298.15	0.0884	853.3	0.5
298.15	0.1869	843.9	0.5
298.15	0.2531	837.5	0.5
298.15	0.3849	823.5	0.5
298.15	0.4879	811.9	0.6
298.15	0.5891	799.5	0.6
298.15	0.6926	786	0.6
298.15	0.7807	774	0.6
298.15	0.8901	757.9	0.6
298.15	0.9487	748.6	0.6
298.15	1	740	0.6
313.15	0	848.8	0.5
313.15	0.0414	845.1	0.5
313.15	0.0948	840.2	0.5
313.15	0.1986	830.2	0.5
313.15	0.2985	819.9	0.5
313.15	0.4078	807.7	0.6
313.15	0.4703	800.3	0.6
313.15	0.6043	783.5	0.6
313.15	0.7006	770.4	0.6
313.15	0.8048	755.4	0.6
313.15	0.9074	739.7	0.6
313.15	0.9595	731.4	0.7
313.15	1	725	0.7

System: 1,2-dimethylbenzene + cyclohexane; phases: Liquid
Fixed: Pressure, kPa = 101
Property: Refractive index (Na D-line) (Liquid); method: Standard Abbe refractometry
Temperature, K	Mole fraction of cyclohexane	Refractive index (Na D-line)	uncertainty
298.15	0	1.50262	0.00065
298.15	0.0471	1.49895	0.0007
298.15	0.0981	1.49488	0.00063
298.15	0.1961	1.48705	0.00062
298.15	0.2986	1.47886	0.00069
298.15	0.3979	1.47092	0.00069
298.15	0.4964	1.46293	0.00069
298.15	0.5975	1.45493	0.00062
298.15	0.6978	1.44691	0.00061
298.15	0.796	1.43924	0.00068
298.15	0.8995	1.43126	0.00063
298.15	0.9512	1.42739	0.00068
298.15	1	1.4236	0.00064
313.15	0	1.49466	0.00065
313.15	0.0528	1.49053	0.00064
313.15	0.0977	1.48716	0.00063
313.15	0.1958	1.47934	0.00062
313.15	0.2169	1.47754	0.00056
313.15	0.4011	1.46285	0.00061
313.15	0.4999	1.45473	0.00059
313.15	0.5976	1.44694	0.00062
313.15	0.6971	1.43921	0.00061
313.15	0.7994	1.43094	0.00062
313.15	0.8995	1.42311	0.00063
313.15	0.9484	1.41926	0.00064
313.15	1	1.41516	0.00064

System: 1,2-dimethylbenzene + cyclohexane; phases: Liquid
Fixed: Pressure, kPa = 101
Property: Speed of sound, m/s (Liquid); method: Pulse-echo method
Temperature, K	Mole fraction of cyclohexane	Speed of sound, m/s	uncertainty
298.15	0	1350	2
298.15	0.0471	1343	2
298.15	0.0981	1336	2
298.15	0.1961	1323	2
298.15	0.2986	1310	2
298.15	0.3979	1298	2
298.15	0.4964	1288	2
298.15	0.5975	1278	2
298.15	0.6978	1269	2
298.15	0.796	1263	2
298.15	0.8995	1257	2
298.15	0.9512	1255	2
298.15	1	1255	2
313.15	0	1289	2
313.15	0.0528	1282	2
313.15	0.0977	1275	2
313.15	0.1958	1261	2
313.15	0.2169	1258	2
313.15	0.4011	1234	2
313.15	0.4999	1222	2
313.15	0.5976	1211	2
313.15	0.6971	1201	2
313.15	0.7994	1193	2
313.15	0.8995	1186	2
313.15	0.9484	1183	2
313.15	1	1182	2

System: 1,2-dimethylbenzene + cyclohexane; phases: Liquid
Fixed: Pressure, kPa = 101
Property: Mass density, kg/m3 (Liquid); method: VIBTUB:UFactor:4
Temperature, K	Mole fraction of cyclohexane	Mass density, kg/m3	uncertainty
298.15	0	875.4	0.5
298.15	0.0471	870.8	0.5
298.15	0.0981	865.5	0.5
298.15	0.1961	855.2	0.5
298.15	0.2986	844.5	0.5
298.15	0.3979	834	0.5
298.15	0.4964	823.8	0.5
298.15	0.5975	813.5	0.5
298.15	0.6978	803.2	0.5
298.15	0.796	793.4	0.5
298.15	0.8995	783.4	0.5
298.15	0.9512	778.6	0.5
298.15	1	773.9	0.5
313.15	0	862.9	0.5
313.15	0.0528	857.4	0.5
313.15	0.0977	852.7	0.5
313.15	0.1958	842.3	0.5
313.15	0.2169	840	0.5
313.15	0.4011	820.4	0.5
313.15	0.4999	809.9	0.5
313.15	0.5976	799.6	0.5
313.15	0.6971	789.4	0.5
313.15	0.7994	779	0.5
313.15	0.8995	769.1	0.5
313.15	0.9484	764.5	0.5
313.15	1	759.6	0.5

System: 1,3-dimethylbenzene + cyclohexane; phases: Liquid
Fixed: Pressure, kPa = 101
Property: Refractive index (Na D-line) (Liquid); method: Standard Abbe refractometry
Temperature, K	Mole fraction of cyclohexane	Refractive index (Na D-line)	uncertainty
298.15	0	1.49466	0.00066
298.15	0.0346	1.49219	0.0007
298.15	0.096	1.48781	0.0007
298.15	0.1974	1.48052	0.0007
298.15	0.2879	1.47391	0.00069
298.15	0.3982	1.46589	0.00069
298.15	0.5005	1.45851	0.00069
298.15	0.6019	1.45128	0.00068
298.15	0.6976	1.44447	0.00068
298.15	0.7985	1.43723	0.00068
298.15	0.9021	1.42992	0.00068
298.15	0.9509	1.42673	0.00068
298.15	1	1.4236	0.00064
313.15	0	1.48653	0.00066
313.15	0.0355	1.48408	0.0007
313.15	0.095	1.47988	0.0007
313.15	0.1903	1.47305	0.0007
313.15	0.2937	1.46566	0.00069
313.15	0.3969	1.45826	0.00069
313.15	0.4919	1.45153	0.00069
313.15	0.5952	1.44402	0.00068
313.15	0.6963	1.43677	0.00068
313.15	0.7968	1.42954	0.00068
313.15	0.8984	1.42246	0.00068
313.15	0.9496	1.41885	0.00068
313.15	1	1.41516	0.00064

System: 1,3-dimethylbenzene + cyclohexane; phases: Liquid
Fixed: Pressure, kPa = 101
Property: Speed of sound, m/s (Liquid); method: Pulse-echo method
Temperature, K	Mole fraction of cyclohexane	Speed of sound, m/s	uncertainty
298.15	0	1321	2
298.15	0.0346	1317	2
298.15	0.096	1310	2
298.15	0.1974	1300	2
298.15	0.2879	1291	2
298.15	0.3982	1281	2
298.15	0.5005	1273	2
298.15	0.6019	1267	2
298.15	0.6976	1261	2
298.15	0.7985	1257	2
298.15	0.9021	1254	2
298.15	0.9509	1254	2
298.15	1	1255	2
313.15	0	1259	2
313.15	0.0355	1255	2
313.15	0.095	1248	2
313.15	0.1903	1238	2
313.15	0.2937	1227	2
313.15	0.3969	1217	2
313.15	0.4919	1209	2
313.15	0.5952	1200	2
313.15	0.6963	1193	2
313.15	0.7968	1187	2
313.15	0.8984	1183	2
313.15	0.9496	1182	2
313.15	1	1182	2

System: 1,3-dimethylbenzene + cyclohexane; phases: Liquid
Fixed: Pressure, kPa = 101
Property: Mass density, kg/m3 (Liquid); method: VIBTUB:UFactor:4
Temperature, K	Mole fraction of cyclohexane	Mass density, kg/m3	uncertainty
298.15	0	859.8	0.5
298.15	0.0346	856.9	0.5
298.15	0.096	851.4	0.5
298.15	0.1974	842.2	0.5
298.15	0.2879	834.1	0.5
298.15	0.3982	824.1	0.5
298.15	0.5005	815	0.5
298.15	0.6019	806.2	0.5
298.15	0.6976	797.9	0.5
298.15	0.7985	789.4	0.5
298.15	0.9021	781.1	0.5
298.15	0.9509	777.4	0.5
298.15	1	773.9	0.5
313.15	0	846.9	0.5
313.15	0.0355	843.7	0.5
313.15	0.095	838.3	0.5
313.15	0.1903	829.6	0.5
313.15	0.2937	820.2	0.5
313.15	0.3969	810.8	0.5
313.15	0.4919	802.3	0.5
313.15	0.5952	793.1	0.5
313.15	0.6963	784.3	0.5
313.15	0.7968	775.5	0.5
313.15	0.8984	767.3	0.5
313.15	0.9496	763.45	0.5
313.15	1	759.59	0.5

System: 1,4-dimethylbenzene + cyclohexane; phases: Liquid
Fixed: Pressure, kPa = 101
Property: Refractive index (Na D-line) (Liquid); method: Standard Abbe refractometry
Temperature, K	Mole fraction of cyclohexane	Refractive index (Na D-line)	uncertainty
298.15	0	1.49312	0.00069
298.15	0.0459	1.49003	0.0007
298.15	0.0952	1.4866	0.0007
298.15	0.1948	1.47959	0.0007
298.15	0.2874	1.47324	0.00069
298.15	0.3929	1.4656	0.00069
298.15	0.4964	1.45843	0.00069
298.15	0.5938	1.45142	0.00068
298.15	0.6949	1.44417	0.00068
298.15	0.7906	1.43762	0.00068
298.15	0.8927	1.43057	0.00068
298.15	0.9493	1.42692	0.00068
298.15	1	1.4236	0.00064
313.15	0	1.48444	0.00069
313.15	0.0494	1.48145	0.00068
313.15	0.1056	1.47781	0.00066
313.15	0.2078	1.47072	0.00064
313.15	0.3149	1.46341	0.00063
313.15	0.4156	1.45628	0.0006
313.15	0.5115	1.44953	0.0006
313.15	0.6083	1.44272	0.00062
313.15	0.7079	1.43584	0.00067
313.15	0.8167	1.42845	0.00061
313.15	0.9109	1.42167	0.00049
313.15	0.9601	1.41809	0.00045
313.15	1	1.41516	0.00064

System: 1,4-dimethylbenzene + cyclohexane; phases: Liquid
Fixed: Pressure, kPa = 101
Property: Speed of sound, m/s (Liquid); method: Pulse-echo method
Temperature, K	Mole fraction of cyclohexane	Speed of sound, m/s	uncertainty
298.15	0	1310	2
298.15	0.0459	1306	2
298.15	0.0952	1301	2
298.15	0.1948	1292	2
298.15	0.2874	1284	2
298.15	0.3929	1275	2
298.15	0.4964	1269	2
298.15	0.5938	1263	2
298.15	0.6949	1258	2
298.15	0.7906	1254	2
298.15	0.8927	1253	2
298.15	0.9493	1253	2
298.15	1	1255	2
313.15	0	1248	2
313.15	0.0494	1243	2
313.15	0.1056	1238	2
313.15	0.2078	1228	2
313.15	0.3149	1218	2
313.15	0.4156	1209	2
313.15	0.5115	1202	2
313.15	0.6083	1195	2
313.15	0.7079	1189	2
313.15	0.8167	1184	2
313.15	0.9109	1182	2
313.15	0.9601	1181	2
313.15	1	1182	2

System: 1,4-dimethylbenzene + cyclohexane; phases: Liquid
Fixed: Pressure, kPa = 101
Property: Mass density, kg/m3 (Liquid); method: VIBTUB:UFactor:4
Temperature, K	Mole fraction of cyclohexane	Mass density, kg/m3	uncertainty
298.15	0	856.6	0.5
298.15	0.0459	852.9	0.5
298.15	0.0952	848.6	0.5
298.15	0.1948	840.1	0.5
298.15	0.2874	832.3	0.5
298.15	0.3929	823	0.5
298.15	0.4964	814.1	0.5
298.15	0.5938	805.7	0.5
298.15	0.6949	797.2	0.5
298.15	0.7906	789.5	0.5
298.15	0.8927	781.5	0.5
298.15	0.9493	777.5	0.5
298.15	1	773.9	0.5
313.15	0	843.5	0.5
313.15	0.0494	839.4	0.5
313.15	0.1056	834.5	0.5
313.15	0.2078	825.8	0.5
313.15	0.3149	816.5	0.5
313.15	0.4156	807.5	0.5
313.15	0.5115	799.2	0.5
313.15	0.6083	790.9	0.5
313.15	0.7079	782.5	0.5
313.15	0.8167	773.7	0.5
313.15	0.9109	766.2	0.5
313.15	0.9601	762.5	0.5
313.15	1	759.6	0.5

System: 1,3,5-trimethylbenzene + cyclohexane; phases: Liquid
Fixed: Pressure, kPa = 101
Property: Refractive index (Na D-line) (Liquid); method: Standard Abbe refractometry
Temperature, K	Mole fraction of cyclohexane	Refractive index (Na D-line)	uncertainty
298.15	0	1.49693	0.00063
298.15	0.0459	1.4939	0.0007
298.15	0.0956	1.49061	0.0007
298.15	0.193	1.48396	0.0007
298.15	0.2937	1.47698	0.00069
298.15	0.3878	1.46995	0.00069
298.15	0.4953	1.46201	0.00069
298.15	0.598	1.45441	0.00068
298.15	0.6944	1.44675	0.00068
298.15	0.796	1.43896	0.00068
298.15	0.8942	1.43119	0.00068
298.15	0.9515	1.42697	0.00068
298.15	1	1.4236	0.00064
313.15	0	1.48923	0.00063
313.15	0.0488	1.48628	0.0007
313.15	0.102	1.48264	0.0007
313.15	0.2008	1.47604	0.0007
313.15	0.3053	1.4688	0.00069
313.15	0.416	1.46071	0.00069
313.15	0.5105	1.4534	0.00068
313.15	0.6084	1.44576	0.00068
313.15	0.7068	1.43825	0.00068
313.15	0.8092	1.43012	0.00068
313.15	0.911	1.4222	0.00068
313.15	0.9612	1.41833	0.00068
313.15	1	1.41516	0.00064

System: 1,3,5-trimethylbenzene + cyclohexane; phases: Liquid
Fixed: Pressure, kPa = 101
Property: Speed of sound, m/s (Liquid); method: Pulse-echo method
Temperature, K	Mole fraction of cyclohexane	Speed of sound, m/s	uncertainty
298.15	0	1336	2
298.15	0.0459	1331	2
298.15	0.0956	1326	2
298.15	0.193	1315	2
298.15	0.2937	1304	2
298.15	0.3878	1294	2
298.15	0.4953	1283	2
298.15	0.598	1274	2
298.15	0.6944	1265	2
298.15	0.796	1258	2
298.15	0.8942	1252	2
298.15	0.9515	1250	2
298.15	1	1255	2
313.15	0	1277	2
313.15	0.0488	1271	2
313.15	0.102	1265	2
313.15	0.2008	1253	2
313.15	0.3053	1241	2
313.15	0.416	1229	2
313.15	0.5105	1219	2
313.15	0.6084	1209	2
313.15	0.7068	1200	2
313.15	0.8092	1191	2
313.15	0.911	1185	2
313.15	0.9612	1183	2
313.15	1	1182	2

System: 1,3,5-trimethylbenzene + cyclohexane; phases: Liquid
Fixed: Pressure, kPa = 101
Property: Mass density, kg/m3 (Liquid); method: VIBTUB:UFactor:4
Temperature, K	Mole fraction of cyclohexane	Mass density, kg/m3	uncertainty
298.15	0	861.1	0.5
298.15	0.0459	857.3	0.5
298.15	0.0956	853.1	0.5
298.15	0.193	844.8	0.5
298.15	0.2937	835.9	0.5
298.15	0.3878	827.5	0.5
298.15	0.4953	817.9	0.5
298.15	0.598	808.6	0.5
298.15	0.6944	799.7	0.5
298.15	0.796	790.3	0.5
298.15	0.8942	781.5	0.5
298.15	0.9515	776.9	0.5
298.15	1	773.9	0.5
313.15	0	848.8	0.5
313.15	0.0488	844.8	0.5
313.15	0.102	840.2	0.5
313.15	0.2008	831.7	0.5
313.15	0.3053	822.6	0.5
313.15	0.416	812.4	0.5
313.15	0.5105	803.5	0.5
313.15	0.6084	794.3	0.5
313.15	0.7068	785.2	0.5
313.15	0.8092	775.9	0.5
313.15	0.911	766.9	0.5
313.15	0.9612	762.7	0.5
313.15	1	759.6	0.5

System: 1,2-dimethylbenzene + methylcyclohexane; phases: Liquid
Fixed: Pressure, kPa = 101
Property: Refractive index (Na D-line) (Liquid); method: Standard Abbe refractometry
Temperature, K	Mole fraction of methylcyclohexane	Refractive index (Na D-line)	uncertainty
298.15	0	1.50262	0.00065
298.15	0.0558	1.49758	0.0007
298.15	0.0973	1.49375	0.0007
298.15	0.1875	1.48587	0.0007
298.15	0.2979	1.47605	0.0007
298.15	0.4084	1.46659	0.00071
298.15	0.4965	1.45929	0.00071
298.15	0.5946	1.45128	0.00071
298.15	0.6948	1.44332	0.0007
298.15	0.7944	1.43568	0.00063
298.15	0.8912	1.42852	0.0007
298.15	0.9497	1.42429	0.0007
298.15	1	1.42062	0.00064
313.15	0	1.49466	0.00065
313.15	0.049	1.49036	0.00064
313.15	0.0983	1.48589	0.00064
313.15	0.1972	1.47705	0.00066
313.15	0.2832	1.46962	0.00069
313.15	0.403	1.45951	0.00072
313.15	0.5001	1.4514	0.00077
313.15	0.598	1.44349	0.00083
313.15	0.6977	1.43558	0.0009
313.15	0.7947	1.4281	0.00062
313.15	0.9013	1.42003	0.00101
313.15	0.9474	1.4165	0.00114
313.15	1	1.41274	0.00064

System: 1,2-dimethylbenzene + methylcyclohexane; phases: Liquid
Fixed: Pressure, kPa = 101
Property: Speed of sound, m/s (Liquid); method: Pulse-echo method
Temperature, K	Mole fraction of methylcyclohexane	Speed of sound, m/s	uncertainty
298.15	0	1350	2
298.15	0.0558	1340	2
298.15	0.0973	1333	2
298.15	0.1875	1318	2
298.15	0.2979	1300	2
298.15	0.4084	1283	2
298.15	0.4965	1271	2
298.15	0.5946	1259	2
298.15	0.6948	1246	2
298.15	0.7944	1235	2
298.15	0.8912	1225	2
298.15	0.9497	1219	2
298.15	1	1215	2
313.15	0	1289	2
313.15	0.049	1281	2
313.15	0.0983	1272	2
313.15	0.1972	1255	2
313.15	0.2832	1241	2
313.15	0.403	1222	2
313.15	0.5001	1208	2
313.15	0.598	1195	2
313.15	0.6977	1182	2
313.15	0.7947	1171	2
313.15	0.9013	1160	2
313.15	0.9474	1154	2
313.15	1	1150	2

System: 1,2-dimethylbenzene + methylcyclohexane; phases: Liquid
Fixed: Pressure, kPa = 101
Property: Mass density, kg/m3 (Liquid); method: VIBTUB:UFactor:4
Temperature, K	Mole fraction of methylcyclohexane	Mass density, kg/m3	uncertainty
298.15	0	875.4	0.5
298.15	0.0558	868.7	0.5
298.15	0.0973	863.5	0.5
298.15	0.1875	852.9	0.5
298.15	0.2979	839.7	0.5
298.15	0.4084	827	0.5
298.15	0.4965	817.1	0.5
298.15	0.5946	806.3	0.6
298.15	0.6948	795.5	0.6
298.15	0.7944	785.2	0.6
298.15	0.8912	775.6	0.6
298.15	0.9497	769.9	0.6
298.15	1	765	0.6
313.15	0	862.9	0.5
313.15	0.049	856.8	0.5
313.15	0.0983	850.8	0.5
313.15	0.1972	838.9	0.5
313.15	0.2832	828.7	0.5
313.15	0.403	814.8	0.6
313.15	0.5001	803.8	0.6
313.15	0.598	793	0.6
313.15	0.6977	782.3	0.6
313.15	0.7947	772.2	0.6
313.15	0.9013	761.5	0.6
313.15	0.9474	756.9	0.6
313.15	1	751.9	0.6

System: 1,3-dimethylbenzene + methylcyclohexane; phases: Liquid
Fixed: Pressure, kPa = 101
Property: Refractive index (Na D-line) (Liquid); method: Standard Abbe refractometry
Temperature, K	Mole fraction of methylcyclohexane	Refractive index (Na D-line)	uncertainty
298.15	0	1.49466	0.00066
298.15	0.0514	1.49046	0.0007
298.15	0.0975	1.4867	0.0007
298.15	0.159	1.48174	0.0007
298.15	0.2977	1.47072	0.0007
298.15	0.399	1.46292	0.0007
298.15	0.4954	1.45565	0.00071
298.15	0.5965	1.44827	0.0007
298.15	0.6974	1.44107	0.0007
298.15	0.7948	1.4343	0.0007
298.15	0.8933	1.42759	0.0007
298.15	0.9495	1.42388	0.0007
298.15	1	1.42062	0.00064
313.15	0	1.48653	0.00066
313.15	0.0457	1.4829	0.0007
313.15	0.0933	1.47908	0.0007
313.15	0.1938	1.47103	0.0007
313.15	0.2886	1.46361	0.0007
313.15	0.3966	1.45534	0.0007
313.15	0.5077	1.44702	0.00071
313.15	0.595	1.44063	0.0007
313.15	0.6933	1.43362	0.0007
313.15	0.7987	1.42615	0.0007
313.15	0.8973	1.41945	0.0007
313.15	0.9504	1.41609	0.0007
313.15	1	1.41274	0.00064

System: 1,3-dimethylbenzene + methylcyclohexane; phases: Liquid
Fixed: Pressure, kPa = 101
Property: Speed of sound, m/s (Liquid); method: Pulse-echo method
Temperature, K	Mole fraction of methylcyclohexane	Speed of sound, m/s	uncertainty
298.15	0	1321	2
298.15	0.0514	1313	2
298.15	0.0975	1307	2
298.15	0.159	1298	2
298.15	0.2977	1281	2
298.15	0.399	1269	2
298.15	0.4954	1258	2
298.15	0.5965	1248	2
298.15	0.6974	1238	2
298.15	0.7948	1230	2
298.15	0.8933	1222	2
298.15	0.9495	1218	2
298.15	1	1215	2
313.15	0	1259	2
313.15	0.0457	1252	2
313.15	0.0933	1246	2
313.15	0.1938	1232	2
313.15	0.2886	1219	2
313.15	0.3966	1206	2
313.15	0.5077	1194	2
313.15	0.595	1184	2
313.15	0.6933	1175	2
313.15	0.7987	1165	2
313.15	0.8973	1157	2
313.15	0.9504	1153	2
313.15	1	1150	2

System: 1,3-dimethylbenzene + methylcyclohexane; phases: Liquid
Fixed: Pressure, kPa = 101
Property: Mass density, kg/m3 (Liquid); method: VIBTUB:UFactor:4
Temperature, K	Mole fraction of methylcyclohexane	Mass density, kg/m3	uncertainty
298.15	0	859.8	0.5
298.15	0.0514	854.4	0.5
298.15	0.0975	849.6	0.5
298.15	0.159	843.2	0.5
298.15	0.2977	829.1	0.5
298.15	0.399	819.1	0.5
298.15	0.4954	809.7	0.6
298.15	0.5965	800.2	0.6
298.15	0.6974	791	0.6
298.15	0.7948	782.3	0.6
298.15	0.8933	773.8	0.6
298.15	0.9495	769.1	0.6
298.15	1	765	0.6
313.15	0	846.9	0.5
313.15	0.0457	842.1	0.5
313.15	0.0933	837.1	0.5
313.15	0.1938	826.7	0.5
313.15	0.2886	817	0.5
313.15	0.3966	806.3	0.6
313.15	0.5077	795.5	0.6
313.15	0.595	787.3	0.6
313.15	0.6933	778.3	0.6
313.15	0.7987	768.8	0.6
313.15	0.8973	760.3	0.6
313.15	0.9504	756.1	0.6
313.15	1	751.9	0.6

System: 1,4-dimethylbenzene + methylcyclohexane; phases: Liquid
Fixed: Pressure, kPa = 101
Property: Refractive index (Na D-line) (Liquid); method: Standard Abbe refractometry
Temperature, K	Mole fraction of methylcyclohexane	Refractive index (Na D-line)	uncertainty
298.15	0	1.49312	0.00105
298.15	0.0513	1.48906	0.00102
298.15	0.0979	1.48531	0.00106
298.15	0.1917	1.47789	0.00106
298.15	0.3009	1.46944	0.00106
298.15	0.3971	1.46214	0.00106
298.15	0.4963	1.4548	0.00106
298.15	0.5987	1.44757	0.00106
298.15	0.6966	1.44052	0.00106
298.15	0.7958	1.43389	0.00106
298.15	0.8922	1.42739	0.00106
298.15	0.9501	1.42377	0.00106
298.15	1	1.42062	0.00102
313.15	0	1.48444	0.00105
313.15	0.0506	1.48121	0.00103
313.15	0.1051	1.4771	0.00106
313.15	0.204	1.46914	0.00106
313.15	0.3096	1.46083	0.00106
313.15	0.4064	1.45361	0.00106
313.15	0.5061	1.44635	0.00106
313.15	0.605	1.43928	0.00106
313.15	0.7057	1.43227	0.00106
313.15	0.8112	1.42509	0.00106
313.15	0.9095	1.41853	0.00106
313.15	0.9599	1.41538	0.00106
313.15	1	1.41274	0.00102

System: 1,4-dimethylbenzene + methylcyclohexane; phases: Liquid
Fixed: Pressure, kPa = 101
Property: Speed of sound, m/s (Liquid); method: Pulse-echo method
Temperature, K	Mole fraction of methylcyclohexane	Speed of sound, m/s	uncertainty
298.15	0	1310	2
298.15	0.0513	1303	2
298.15	0.0979	1297	2
298.15	0.1917	1285	2
298.15	0.3009	1272	2
298.15	0.3971	1262	2
298.15	0.4963	1252	2
298.15	0.5987	1243	2
298.15	0.6966	1234	2
298.15	0.7958	1227	2
298.15	0.8922	1221	2
298.15	0.9501	1217	2
298.15	1	1215	2
313.15	0	1248	2
313.15	0.0506	1242	2
313.15	0.1051	1234	2
313.15	0.204	1221	2
313.15	0.3096	1209	2
313.15	0.4064	1198	2
313.15	0.5061	1188	2
313.15	0.605	1179	2
313.15	0.7057	1170	2
313.15	0.8112	1162	2
313.15	0.9095	1155	2
313.15	0.9599	1152	2
313.15	1	1150	2

System: 1,4-dimethylbenzene + methylcyclohexane; phases: Liquid
Fixed: Pressure, kPa = 101
Property: Mass density, kg/m3 (Liquid); method: VIBTUB:UFactor:4
Temperature, K	Mole fraction of methylcyclohexane	Mass density, kg/m3	uncertainty
298.15	0	856.6	0.5
298.15	0.0513	851.4	0.5
298.15	0.0979	846.7	0.5
298.15	0.1917	837.2	0.5
298.15	0.3009	826.5	0.5
298.15	0.3971	817.3	0.5
298.15	0.4963	808	0.6
298.15	0.5987	798.8	0.6
298.15	0.6966	789.9	0.6
298.15	0.7958	781.6	0.6
298.15	0.8922	773.4	0.6
298.15	0.9501	768.9	0.6
298.15	1	765	0.6
313.15	0	843.5	0.5
313.15	0.0506	838.4	0.5
313.15	0.1051	832.9	0.5
313.15	0.204	823.1	0.5
313.15	0.3096	812.6	0.6
313.15	0.4064	803.4	0.6
313.15	0.5061	794	0.6
313.15	0.605	785.1	0.6
313.15	0.7057	776.2	0.6
313.15	0.8112	767.2	0.6
313.15	0.9095	759	0.6
313.15	0.9599	755	0.6
313.15	1	751.9	0.6

System: 1,3,5-trimethylbenzene + methylcyclohexane; phases: Liquid
Fixed: Pressure, kPa = 101
Property: Refractive index (Na D-line) (Liquid); method: Standard Abbe refractometry
Temperature, K	Mole fraction of methylcyclohexane	Refractive index (Na D-line)	uncertainty
298.15	0	1.49693	0.00101
298.15	0.0463	1.49346	0.00106
298.15	0.0962	1.48973	0.00106
298.15	0.197	1.48211	0.00106
298.15	0.2868	1.47524	0.00106
298.15	0.3963	1.46685	0.00106
298.15	0.4972	1.45909	0.00106
298.15	0.5956	1.45153	0.00106
298.15	0.6974	1.44373	0.00106
298.15	0.7932	1.43635	0.00106
298.15	0.8942	1.42859	0.00106
298.15	0.9497	1.42444	0.00106
298.15	1	1.42062	0.00102
313.15	0	1.48923	0.001012
313.15	0.0524	1.485471	0.001011
313.15	0.1075	1.481439	0.001007
313.15	0.2051	1.47418	0.001003
313.15	0.314	1.466	0.000996
313.15	0.4067	1.458921	0.000985
313.15	0.5093	1.451033	0.000977
313.15	0.6083	1.443354	0.000962
313.15	0.7071	1.435583	0.000959
313.15	0.8106	1.427524	0.000966
313.15	0.9093	1.419829	0.000962
313.15	0.9596	1.415882	0.000958
313.15	1	1.412735	0.001018

System: 1,3,5-trimethylbenzene + methylcyclohexane; phases: Liquid
Fixed: Pressure, kPa = 101
Property: Speed of sound, m/s (Liquid); method: Pulse-echo method
Temperature, K	Mole fraction of methylcyclohexane	Speed of sound, m/s	uncertainty
298.15	0	1336	2
298.15	0.0463	1330	2
298.15	0.0962	1323	2
298.15	0.197	1310	2
298.15	0.2868	1298	2
298.15	0.3963	1283	2
298.15	0.4972	1271	2
298.15	0.5956	1259	2
298.15	0.6974	1247	2
298.15	0.7932	1236	2
298.15	0.8942	1226	2
298.15	0.9497	1220	2
298.15	1	1215	2
313.15	0	1277	2
313.15	0.0524	1269	2
313.15	0.1075	1262	2
313.15	0.2051	1248	2
313.15	0.314	1233	2
313.15	0.4067	1221	2
313.15	0.5093	1207	2
313.15	0.6083	1195	2
313.15	0.7071	1183	2
313.15	0.8106	1171	2
313.15	0.9093	1159	2
313.15	0.9596	1154	2
313.15	1	1150	2

System: 1,3,5-trimethylbenzene + methylcyclohexane; phases: Liquid
Fixed: Pressure, kPa = 101
Property: Mass density, kg/m3 (Liquid); method: VIBTUB:UFactor:4
Temperature, K	Mole fraction of methylcyclohexane	Mass density, kg/m3	uncertainty
298.15	0	861.1	0.5
298.15	0.0463	856.7	0.5
298.15	0.0962	851.9	0.5
298.15	0.197	842.2	0.5
298.15	0.2868	833.5	0.5
298.15	0.3963	822.8	0.5
298.15	0.4972	813	0.6
298.15	0.5956	803.4	0.6
298.15	0.6974	793.6	0.6
298.15	0.7932	784.3	0.6
298.15	0.8942	774.8	0.6
298.15	0.9497	769.6	0.6
298.15	1	765.1	0.6
313.15	0	848.8	0.5
313.15	0.0524	843.8	0.5
313.15	0.1075	838.5	0.5
313.15	0.2051	829.1	0.5
313.15	0.314	818.5	0.5
313.15	0.4067	809.5	0.6
313.15	0.5093	799.5	0.6
313.15	0.6083	789.8	0.6
313.15	0.7071	780.1	0.6
313.15	0.8106	770.1	0.6
313.15	0.9093	760.4	0.6
313.15	0.9596	755.7	0.6
313.15	1	751.9	0.6

System: 1,2-dimethylbenzene + cyclooctane; phases: Liquid
Fixed: Pressure, kPa = 101
Property: Refractive index (Na D-line) (Liquid); method: Standard Abbe refractometry
Temperature, K	Mole fraction of cyclooctane	Refractive index (Na D-line)	uncertainty
298.15	0	1.50262	0.00065
298.15	0.0513	1.49887	0.00061
298.15	0.1015	1.49595	0.0007
298.15	0.2	1.49039	0.0007
298.15	0.3067	1.48468	0.0007
298.15	0.4026	1.47987	0.0007
298.15	0.5037	1.47508	0.0007
298.15	0.6262	1.46963	0.0007
298.15	0.7007	1.46653	0.0007
298.15	0.8028	1.4626	0.0007
298.15	0.8953	1.45933	0.0007
298.15	0.9498	1.45752	0.0007
298.15	1	1.45598	0.00061
313.15	0	1.49466	0.00065
313.15	0.0508	1.49181	0.0006
313.15	0.0905	1.48933	0.0007
313.15	0.1697	1.48503	0.0007
313.15	0.2967	1.47816	0.0007
313.15	0.3824	1.47392	0.0007
313.15	0.4839	1.46911	0.0007
313.15	0.5878	1.46435	0.0007
313.15	0.6869	1.46018	0.0007
313.15	0.7892	1.45617	0.0007
313.15	0.8891	1.45244	0.0007
313.15	0.9368	1.45072	0.0007
313.15	1	1.44877	0.00061

System: 1,2-dimethylbenzene + cyclooctane; phases: Liquid
Fixed: Pressure, kPa = 101
Property: Speed of sound, m/s (Liquid); method: Pulse-echo method
Temperature, K	Mole fraction of cyclooctane	Speed of sound, m/s	uncertainty
298.15	0	1350	2
298.15	0.0513	1347	2
298.15	0.1015	1348	2
298.15	0.2	1349	2
298.15	0.3067	1351	2
298.15	0.4026	1354	2
298.15	0.5037	1358	2
298.15	0.6262	1364	2
298.15	0.7007	1368	2
298.15	0.8028	1375	2
298.15	0.8953	1381	2
298.15	0.9498	1386	2
298.15	1	1391	2
313.15	0	1289	2
313.15	0.0508	1289	2
313.15	0.0905	1289	2
313.15	0.1697	1289	2
313.15	0.2967	1291	2
313.15	0.3824	1293	2
313.15	0.4839	1296	2
313.15	0.5878	1300	2
313.15	0.6869	1305	2
313.15	0.7892	1310	2
313.15	0.8891	1317	2
313.15	0.9368	1321	2
313.15	1	1326	2

System: 1,2-dimethylbenzene + cyclooctane; phases: Liquid
Fixed: Pressure, kPa = 101
Property: Mass density, kg/m3 (Liquid); method: VIBTUB:UFactor:4
Temperature, K	Mole fraction of cyclooctane	Mass density, kg/m3	uncertainty
298.15	0	875.4	0.5
298.15	0.0513	871.8	0.5
298.15	0.1015	868.4	0.5
298.15	0.2	862.5	0.5
298.15	0.3067	856.9	0.5
298.15	0.4026	852.2	0.5
298.15	0.5037	847.6	0.5
298.15	0.6262	842.6	0.5
298.15	0.7007	839.9	0.5
298.15	0.8028	836.5	0.5
298.15	0.8953	833.9	0.5
298.15	0.9498	832.5	0.5
298.15	1	831.5	0.5
313.15	0	862.9	0.5
313.15	0.0508	859.7	0.5
313.15	0.0905	857.3	0.5
313.15	0.1697	852.7	0.5
313.15	0.2967	845.9	0.5
313.15	0.3824	841.6	0.5
313.15	0.4839	836.9	0.5
313.15	0.5878	832.4	0.5
313.15	0.6869	828.6	0.5
313.15	0.7892	825.1	0.5
313.15	0.8891	822	0.5
313.15	0.9368	820.7	0.5
313.15	1	819.2	0.5

System: 1,3-dimethylbenzene + cyclooctane; phases: Liquid
Fixed: Pressure, kPa = 101
Property: Refractive index (Na D-line) (Liquid); method: Standard Abbe refractometry
Temperature, K	Mole fraction of cyclooctane	Refractive index (Na D-line)	uncertainty
298.15	0	1.49466	0.00066
298.15	0.0545	1.49186	0.0007
298.15	0.0993	1.48961	0.0007
298.15	0.2059	1.4845	0.0007
298.15	0.3074	1.4799	0.0007
298.15	0.3933	1.47623	0.0007
298.15	0.5031	1.47176	0.0007
298.15	0.6002	1.46806	0.0007
298.15	0.6993	1.46461	0.0007
298.15	0.8198	1.46072	0.0007
298.15	0.8909	1.45869	0.0007
298.15	0.9503	1.45714	0.0007
298.15	1	1.45598	0.00061
313.15	0	1.48653	0.00066
313.15	0.0506	1.48423	0.00065
313.15	0.0888	1.48242	0.00065
313.15	0.1861	1.47779	0.00066
313.15	0.2924	1.47308	0.0007
313.15	0.3795	1.46944	0.00075
313.15	0.487	1.46522	0.0008
313.15	0.5832	1.46159	0.00086
313.15	0.6823	1.45808	0.00097
313.15	0.7874	1.45469	0.00109
313.15	0.8879	1.45169	0.00125
313.15	0.9389	1.45047	0.00137
313.15	1	1.44877	0.00061
313.15	0	1.48653	0.00066

System: 1,3-dimethylbenzene + cyclooctane; phases: Liquid
Fixed: Pressure, kPa = 101
Property: Speed of sound, m/s (Liquid); method: Pulse-echo method
Temperature, K	Mole fraction of cyclooctane	Speed of sound, m/s	uncertainty
298.15	0	1321	2
298.15	0.0545	1322	2
298.15	0.0993	1324	2
298.15	0.2059	1328	2
298.15	0.3074	1333	2
298.15	0.3933	1338	2
298.15	0.5031	1346	2
298.15	0.6002	1353	2
298.15	0.6993	1361	2
298.15	0.8198	1372	2
298.15	0.8909	1379	2
298.15	0.9503	1385	2
298.15	1	1391	2
313.15	0	1259	2
313.15	0.0506	1260	2
313.15	0.0888	1262	2
313.15	0.1861	1265	2
313.15	0.2924	1270	2
313.15	0.3795	1275	2
313.15	0.487	1282	2
313.15	0.5832	1289	2
313.15	0.6823	1296	2
313.15	0.7874	1305	2
313.15	0.8879	1315	2
313.15	0.9389	1320	2
313.15	1	1326	2
313.15	0	1259	2

System: 1,3-dimethylbenzene + cyclooctane; phases: Liquid
Fixed: Pressure, kPa = 101
Property: Mass density, kg/m3 (Liquid); method: VIBTUB:UFactor:4
Temperature, K	Mole fraction of cyclooctane	Mass density, kg/m3	uncertainty
298.15	0	859.8	0.5
298.15	0.0545	857.4	0.5
298.15	0.0993	855.5	0.5
298.15	0.2059	851.1	0.5
298.15	0.3074	847.4	0.5
298.15	0.3933	844.4	0.5
298.15	0.5031	841	0.5
298.15	0.6002	838.2	0.5
298.15	0.6993	835.9	0.5
298.15	0.8198	833.5	0.5
298.15	0.8909	832.4	0.5
298.15	0.9503	831.8	0.5
298.15	1	831.5	0.5
313.15	0	846.9	0.5
313.15	0.0506	844.7	0.5
313.15	0.0888	843.1	0.5
313.15	0.1861	839.3	0.5
313.15	0.2924	835.4	0.5
313.15	0.3795	832.4	0.5
313.15	0.487	829.1	0.5
313.15	0.5832	826.4	0.5
313.15	0.6823	824	0.5
313.15	0.7874	821.9	0.5
313.15	0.8879	820.3	0.5
313.15	0.9389	819.7	0.5
313.15	1	819.2	0.5
313.15	0	846.9	0.5

System: 1,4-dimethylbenzene + cyclooctane; phases: Liquid
Fixed: Pressure, kPa = 101
Property: Refractive index (Na D-line) (Liquid); method: Standard Abbe refractometry
Temperature, K	Mole fraction of cyclooctane	Refractive index (Na D-line)	uncertainty
298.15	0	1.49312	0.00069
298.15	0.0534	1.49055	0.0007
298.15	0.1004	1.4883	0.0007
298.15	0.2025	1.48358	0.0007
298.15	0.303	1.4792	0.0007
298.15	0.402	1.47506	0.0007
298.15	0.4986	1.47129	0.0007
298.15	0.599	1.46764	0.0007
298.15	0.6981	1.46424	0.0007
298.15	0.7968	1.46119	0.0007
298.15	0.8926	1.4585	0.0007
298.15	0.9504	1.45707	0.0007
298.15	1	1.45598	0.00061
313.15	0	1.48444	0.00069
313.15	0.0485	1.48247	0.0007
313.15	0.0874	1.48077	0.0007
313.15	0.1848	1.47651	0.0007
313.15	0.2948	1.472	0.0007
313.15	0.3853	1.46825	0.0007
313.15	0.4829	1.46454	0.0007
313.15	0.5809	1.46094	0.0007
313.15	0.6837	1.45755	0.0007
313.15	0.7877	1.45432	0.0007
313.15	0.8888	1.45148	0.0007
313.15	0.9413	1.4501	0.0007
313.15	1	1.44877	0.00061

System: 1,4-dimethylbenzene + cyclooctane; phases: Liquid
Fixed: Pressure, kPa = 101
Property: Speed of sound, m/s (Liquid); method: Pulse-echo method
Temperature, K	Mole fraction of cyclooctane	Speed of sound, m/s	uncertainty
298.15	0	1310	2
298.15	0.0534	1312	2
298.15	0.1004	1314	2
298.15	0.2025	1319	2
298.15	0.303	1325	2
298.15	0.402	1332	2
298.15	0.4986	1339	2
298.15	0.599	1348	2
298.15	0.6981	1357	2
298.15	0.7968	1367	2
298.15	0.8926	1377	2
298.15	0.9504	1384	2
298.15	1	1391	2
313.15	0	1248	2
313.15	0.0485	1250	2
313.15	0.0874	1252	2
313.15	0.1848	1256	2
313.15	0.2948	1262	2
313.15	0.3853	1268	2
313.15	0.4829	1274	2
313.15	0.5809	1282	2
313.15	0.6837	1291	2
313.15	0.7877	1301	2
313.15	0.8888	1312	2
313.15	0.9413	1318	2
313.15	1	1325	2

System: 1,4-dimethylbenzene + cyclooctane; phases: Liquid
Fixed: Pressure, kPa = 101
Property: Mass density, kg/m3 (Liquid); method: VIBTUB:UFactor:4
Temperature, K	Mole fraction of cyclooctane	Mass density, kg/m3	uncertainty
298.15	0	856.6	0.5
298.15	0.0534	854.3	0.5
298.15	0.1004	852.6	0.5
298.15	0.2025	848.8	0.5
298.15	0.303	845.4	0.5
298.15	0.402	842.4	0.5
298.15	0.4986	839.6	0.5
298.15	0.599	837.1	0.5
298.15	0.6981	835	0.5
298.15	0.7968	833.3	0.5
298.15	0.8926	832	0.5
298.15	0.9504	831.5	0.5
298.15	1	831.5	0.5
313.15	0	843.5	0.5
313.15	0.0485	841.6	0.5
313.15	0.0874	840.2	0.5
313.15	0.1848	836.7	0.5
313.15	0.2948	833.2	0.5
313.15	0.3853	830.4	0.5
313.15	0.4829	827.7	0.5
313.15	0.5809	825.3	0.5
313.15	0.6837	823.1	0.5
313.15	0.7877	821.3	0.5
313.15	0.8888	820	0.5
313.15	0.9413	819.5	0.5
313.15	1	819.2	0.5

System: 1,3,5-trimethylbenzene + cyclooctane; phases: Liquid
Fixed: Pressure, kPa = 101
Property: Refractive index (Na D-line) (Liquid); method: Standard Abbe refractometry
Temperature, K	Mole fraction of cyclooctane	Refractive index (Na D-line)	uncertainty
298.15	0	1.49693	0.00063
298.15	0.0496	1.49453	0.0007
298.15	0.1026	1.49198	0.0007
298.15	0.2035	1.48725	0.0007
298.15	0.307	1.48253	0.0007
298.15	0.4062	1.47807	0.0007
298.15	0.5042	1.47384	0.0007
298.15	0.598	1.46995	0.0007
298.15	0.696	1.46606	0.0007
298.15	0.8308	1.46115	0.0007
298.15	0.8926	1.45905	0.0007
298.15	0.9484	1.45738	0.0007
298.15	1	1.45598	0.00061
313.15	0	1.48923	0.00063
313.15	0.0517	1.48694	0.00063
313.15	0.0872	1.48532	0.00063
313.15	0.1842	1.48082	0.00063
313.15	0.2935	1.4759	0.00064
313.15	0.3891	1.47166	0.00066
313.15	0.4882	1.46743	0.0007
313.15	0.5857	1.4634	0.00076
313.15	0.6847	1.45952	0.00084
313.15	0.791	1.45559	0.00094
313.15	0.8911	1.45214	0.00102
313.15	0.939	1.45053	0.00121
313.15	1	1.44877	0.00061

System: 1,3,5-trimethylbenzene + cyclooctane; phases: Liquid
Fixed: Pressure, kPa = 101
Property: Speed of sound, m/s (Liquid); method: Pulse-echo method
Temperature, K	Mole fraction of cyclooctane	Speed of sound, m/s	uncertainty
298.15	0	1336	2
298.15	0.0496	1338	2
298.15	0.1026	1339	2
298.15	0.2035	1341	2
298.15	0.307	1345	2
298.15	0.4062	1349	2
298.15	0.5042	1354	2
298.15	0.598	1359	2
298.15	0.696	1366	2
298.15	0.8308	1376	2
298.15	0.8926	1381	2
298.15	0.9484	1386	2
298.15	1	1391	2
313.15	0	1277	2
313.15	0.0517	1277	2
313.15	0.0872	1278	2
313.15	0.1842	1280	2
313.15	0.2935	1283	2
313.15	0.3891	1287	2
313.15	0.4882	1291	2
313.15	0.5857	1296	2
313.15	0.6847	1302	2
313.15	0.791	1309	2
313.15	0.8911	1317	2
313.15	0.939	1321	2
313.15	1	1325	2

System: 1,3,5-trimethylbenzene + cyclooctane; phases: Liquid
Fixed: Pressure, kPa = 101
Property: Mass density, kg/m3 (Liquid); method: VIBTUB:UFactor:4
Temperature, K	Mole fraction of cyclooctane	Mass density, kg/m3	uncertainty
298.15	0	861.1	0.5
298.15	0.0496	858.9	0.5
298.15	0.1026	856.8	0.5
298.15	0.2035	852.7	0.5
298.15	0.307	848.8	0.5
298.15	0.4062	845.2	0.5
298.15	0.5042	841.9	0.5
298.15	0.598	839	0.5
298.15	0.696	836.2	0.5
298.15	0.8308	833.3	0.5
298.15	0.8926	832.3	0.5
298.15	0.9484	831.7	0.5
298.15	1	831.5	0.5
313.15	0	848.8	0.5
313.15	0.0517	846.6	0.5
313.15	0.0872	845.2	0.5
313.15	0.1842	841.3	0.5
313.15	0.2935	837.2	0.5
313.15	0.3891	833.8	0.5
313.15	0.4882	830.4	0.5
313.15	0.5857	827.5	0.5
313.15	0.6847	824.6	0.5
313.15	0.791	822.1	0.5
313.15	0.8911	820.3	0.5
313.15	0.939	819.7	0.6
313.15	1	819.2	0.5
