Measured thermophysical data. Densities and Viscosities of 1,1'-(Pentane-1,5-diyl)-bis(pyridinium) Dibromide in Ethanol + Water from (293.15 to 344.15) K
Source: J. Chem. Eng. Data, 2010, 10.1021/je900743e
Compound 1: 1,1'-(pentane-1,5-diyl)-bis(pyridinium) dibromide, C15H20Br2N2, InChI=1S/C15H20N2.2BrH/c1-4-10-16(11-5-1)14-8-3-9-15-17-12-6-2-7-13-17;;/h1-2,4-7,10-13H,3,8-9,14-15H2;2*1H/q+2;;/p-2, purity 99%
Compound 2: ethanol, C2H6O, InChI=1S/C2H6O/c1-2-3/h3H,2H2,1H3
Compound 3: water, H2O, InChI=1S/H2O/h1H2

System: 1,1'-(pentane-1,5-diyl)-bis(pyridinium) dibromide; phases: Crystal, Liquid, Air at 1 atmosphere
Property: Normal melting temperature, K (Crystal); method: VISOBS
Normal melting temperature, K	uncertainty
471.15	2.94

System: ethanol + water; phases: Liquid
Fixed: Pressure, kPa = 101
Property: Viscosity, Pa*s (Liquid); method: Capillary tube (Ostwald; Ubbelohde) method
Temperature, K	Mass fraction of ethanol	Viscosity, Pa*s	uncertainty
293.15	0.1	0.0015377	3.38e-05
293.15	0.2	0.0021833	4.96e-05
293.15	0.3	0.0027009	6.36e-05
293.15	0.4	0.0029101	7.14e-05
293.15	0.5	0.0028702	7.37e-05
303.15	0.1	0.0011603	2.56e-05
303.15	0.2	0.0015526	3.54e-05
303.15	0.3	0.0018701	4.43e-05
303.15	0.4	0.0020202	4.99e-05
303.15	0.5	0.0020217	5.21e-05
313.15	0.1	0.0009068	2.01e-05
313.15	0.2	0.0011602	2.66e-05
313.15	0.3	0.0013684	3.25e-05
313.15	0.4	0.0014818	3.67e-05
313.15	0.5	0.0014993	3.87e-05

System: ethanol + water; phases: Liquid
Fixed: Pressure, kPa = 101
Property: Mass density, kg/m3 (Liquid); method: Pycnometric method
Temperature, K	Mass fraction of ethanol	Mass density, kg/m3	uncertainty
293.15	0.1	981.8	0.6
293.15	0.2	968.2	0.8
293.15	0.3	953.6	1.1
293.15	0.4	935.5	1.4
293.15	0.5	913.9	1.8
303.15	0.1	979	0.6
303.15	0.2	964.1	0.9
303.15	0.3	947.4	1.1
303.15	0.4	927.2	1.4
303.15	0.5	905.6	1.8
313.15	0.1	974.6	0.6
313.15	0.2	958.7	0.9
313.15	0.3	940.3	1.1
313.15	0.4	919.8	1.4
313.15	0.5	897.6	1.7

System: ethanol + water + 1,1'-(pentane-1,5-diyl)-bis(pyridinium) dibromide; phases: Liquid
Fixed: Pressure, kPa = 101
Property: Viscosity, Pa*s (Liquid); method: Capillary tube (Ostwald; Ubbelohde) method
Temperature, K	Molality, mol/kg of 1,1'-(pentane-1,5-diyl)-bis(pyridinium) dibromide	Solvent: Mass fraction of ethanol	Viscosity, Pa*s	uncertainty
292.15	0.5	0.5	0.0032672	7.78e-05
292.45	0.5	0.4	0.0033667	8.01e-05
292.95	0.3	0.4	0.0031161	7.42e-05
293.15	0.1	0.2	0.0023414	5.6e-05
293.15	0.2	0.2	0.0024217	5.79e-05
293.15	0.2	0.3	0.0029065	6.93e-05
293.15	0.3	0.1	0.0017369	4.14e-05
293.15	0.3	0.2	0.0024972	5.96e-05
293.15	0.4	0.2	0.0025125	6.01e-05
293.15	0.4	0.5	0.003157	7.54e-05
293.15	0.5	0.3	0.0030599	7.3e-05
293.65	0.1	0.1	0.0015963	3.83e-05
293.75	0.3	0.5	0.0029079	6.96e-05
294.15	0.1	0.3	0.002745	6.52e-05
294.15	0.1	0.5	0.0027968	6.7e-05
294.15	0.2	0.1	0.001658	3.96e-05
294.15	0.2	0.5	0.0028075	6.72e-05
294.15	0.3	0.3	0.0028739	6.85e-05
294.15	0.4	0.4	0.0031677	7.54e-05
296.15	0.4	0.3	0.0028049	6.68e-05
297.15	0.4	0.5	0.002729	6.53e-05
297.15	0.5	0.2	0.0023261	5.57e-05
297.35	0.2	0.4	0.0027391	6.54e-05
297.65	0.1	0.4	0.0025887	6.18e-05
297.65	0.3	0.4	0.0027303	6.53e-05
297.75	0.1	0.5	0.0024516	5.89e-05
297.75	0.2	0.5	0.0025067	6e-05
297.85	0.3	0.5	0.0025545	6.12e-05
297.85	0.5	0.4	0.0028897	6.9e-05
297.95	0.4	0.4	0.0028881	6.88e-05
298.15	0.1	0.3	0.0023684	5.68e-05
298.15	0.2	0.2	0.0020315	4.88e-05
298.15	0.3	0.2	0.0021148	5.08e-05
298.15	0.4	0.2	0.0021344	5.12e-05
298.35	0.5	0.5	0.0028235	6.74e-05
298.65	0.1	0.1	0.0013467	3.23e-05
299.15	0.1	0.2	0.0018684	4.49e-05
299.15	0.2	0.3	0.0023398	5.62e-05
299.15	0.3	0.1	0.001508	3.6e-05
299.15	0.3	0.3	0.0023874	5.73e-05
299.15	0.4	0.1	0.0018238	4.34e-05
299.15	0.5	0.1	0.0019311	4.63e-05
299.15	0.5	0.3	0.0025479	6.09e-05
299.65	0.2	0.1	0.0014399	3.44e-05
303.15	0.1	0.2	0.0016358	3.92e-05
303.15	0.1	0.3	0.0019875	4.77e-05
303.15	0.1	0.4	0.0020931	5.02e-05
303.15	0.1	0.5	0.0019745	4.75e-05
303.15	0.2	0.2	0.0017062	4.09e-05
303.15	0.2	0.3	0.0020482	4.9e-05
303.15	0.2	0.5	0.0021153	5.06e-05
303.15	0.3	0.1	0.0013792	3.29e-05
303.15	0.3	0.2	0.0017602	4.22e-05
303.15	0.3	0.4	0.0022833	5.46e-05
303.15	0.3	0.5	0.0020944	5.02e-05
303.15	0.4	0.1	0.0016386	3.92e-05
303.15	0.4	0.2	0.0018072	4.33e-05
303.15	0.4	0.5	0.0022866	5.47e-05
303.15	0.5	0.1	0.0016835	4.03e-05
303.15	0.5	0.2	0.0019091	4.58e-05
303.35	0.1	0.1	0.0011812	2.83e-05
303.35	0.5	0.4	0.0025351	6.05e-05
303.65	0.2	0.4	0.0021978	5.27e-05
304.15	0.2	0.1	0.0012802	3.06e-05
304.15	0.3	0.3	0.0019943	4.78e-05
304.15	0.4	0.3	0.0022038	5.28e-05
304.15	0.5	0.3	0.0021987	5.25e-05
304.15	0.5	0.5	0.0023925	5.72e-05
304.95	0.4	0.4	0.0023574	5.64e-05
308.15	0.1	0.2	0.0014043	3.36e-05
308.15	0.1	0.3	0.0016958	4.06e-05
308.15	0.1	0.5	0.0016777	4.02e-05
308.15	0.2	0.2	0.0014553	3.49e-05
308.15	0.2	0.3	0.0017547	4.2e-05
308.15	0.2	0.5	0.0018215	4.36e-05
308.15	0.3	0.1	0.0012274	2.94e-05
308.15	0.3	0.2	0.0015588	3.73e-05
308.15	0.3	0.3	0.0017584	4.21e-05
308.15	0.3	0.5	0.0018234	4.36e-05
308.15	0.4	0.1	0.0014472	3.46e-05
308.15	0.4	0.2	0.0015466	3.7e-05
308.15	0.4	0.3	0.0019759	4.72e-05
308.15	0.4	0.5	0.001965	4.7e-05
308.15	0.5	0.1	0.0014658	3.51e-05
308.15	0.5	0.2	0.0016452	3.94e-05
308.15	0.5	0.5	0.0021656	5.17e-05
308.65	0.4	0.4	0.0021383	5.1e-05
308.65	0.5	0.3	0.0019497	4.66e-05
308.75	0.2	0.4	0.0018655	4.47e-05
308.95	0.5	0.4	0.0022336	5.32e-05
309.15	0.1	0.1	0.0010342	2.48e-05
309.15	0.1	0.4	0.0017388	4.16e-05
309.15	0.2	0.1	0.001113	2.66e-05
309.15	0.3	0.4	0.0019636	4.69e-05
312.15	0.4	0.5	0.0017831	4.26e-05
312.65	0.1	0.5	0.0014579	3.49e-05
312.65	0.2	0.5	0.0015978	3.82e-05
312.85	0.5	0.5	0.0019328	4.61e-05
313.15	0.1	0.2	0.0012359	2.96e-05
313.15	0.1	0.3	0.0014781	3.54e-05
313.15	0.2	0.2	0.0012885	3.08e-05
313.15	0.2	0.3	0.0015346	3.67e-05
313.15	0.2	0.4	0.0016488	3.94e-05
313.15	0.3	0.1	0.0010777	2.58e-05
313.15	0.3	0.2	0.0013685	3.27e-05
313.15	0.3	0.3	0.0015453	3.69e-05
313.15	0.3	0.4	0.0017366	4.15e-05
313.15	0.3	0.5	0.0015722	3.77e-05
313.15	0.4	0.1	0.0012618	3.02e-05
313.15	0.4	0.2	0.0013817	3.3e-05
313.15	0.5	0.1	0.0012625	3.02e-05
313.15	0.5	0.2	0.0014503	3.47e-05
313.15	0.5	0.4	0.0020362	4.85e-05
313.35	0.1	0.4	0.0015456	3.69e-05
313.35	0.4	0.3	0.0017123	4.09e-05
313.35	0.4	0.4	0.0019034	4.54e-05
313.35	0.5	0.3	0.0017257	4.12e-05
314.15	0.1	0.1	0.0009151	2.19e-05
314.15	0.2	0.1	0.0010079	2.41e-05
317.15	0.2	0.4	0.0014893	3.56e-05
317.15	0.3	0.5	0.0013886	3.32e-05
317.65	0.5	0.5	0.0017275	4.12e-05
317.85	0.2	0.3	0.0013837	3.3e-05
317.95	0.1	0.5	0.0012558	3.01e-05
317.95	0.2	0.5	0.0013738	3.29e-05
317.95	0.4	0.5	0.0015441	3.69e-05
318.15	0.1	0.2	0.0010968	2.63e-05
318.15	0.1	0.3	0.001302	3.12e-05
318.15	0.2	0.1	0.0009079	2.17e-05
318.15	0.2	0.2	0.0011386	2.73e-05
318.15	0.3	0.2	0.001195	2.86e-05
318.15	0.3	0.3	0.0013635	3.26e-05
318.15	0.4	0.1	0.0011015	2.64e-05
318.15	0.4	0.2	0.0012266	2.93e-05
318.15	0.5	0.1	0.0011598	2.78e-05
318.15	0.5	0.2	0.0012791	3.06e-05
318.15	0.5	0.3	0.0015366	3.67e-05
318.15	0.5	0.4	0.0018471	4.4e-05
318.35	0.3	0.4	0.0015183	3.63e-05
318.35	0.4	0.4	0.0016977	4.06e-05
318.45	0.1	0.4	0.0013522	3.23e-05
318.45	0.4	0.3	0.0014974	3.58e-05
319.15	0.1	0.1	0.0008225	1.97e-05
319.15	0.3	0.1	0.0009512	2.28e-05
322.15	0.4	0.5	0.0014252	3.4e-05
322.85	0.5	0.4	0.0016765	4e-05
322.95	0.3	0.4	0.0013575	3.24e-05
323.15	0.1	0.2	0.0009749	2.33e-05
323.15	0.1	0.3	0.0011448	2.74e-05
323.15	0.2	0.1	0.0008349	2e-05
323.15	0.2	0.2	0.001009	2.42e-05
323.15	0.2	0.3	0.0012331	2.95e-05
323.15	0.2	0.4	0.0012784	3.06e-05
323.15	0.3	0.1	0.0008742	2.09e-05
323.15	0.3	0.2	0.0010879	2.6e-05
323.15	0.3	0.3	0.0012145	2.9e-05
323.15	0.3	0.5	0.0012021	2.88e-05
323.15	0.4	0.1	0.0009685	2.32e-05
323.15	0.4	0.2	0.0011052	2.64e-05
323.15	0.4	0.3	0.00132	3.16e-05
323.15	0.4	0.4	0.0014899	3.56e-05
323.15	0.5	0.1	0.0009825	2.36e-05
323.15	0.5	0.2	0.0011584	2.77e-05
323.15	0.5	0.5	0.0015326	3.66e-05
323.35	0.1	0.4	0.0012197	2.91e-05
323.35	0.5	0.3	0.0013566	3.24e-05
323.45	0.1	0.5	0.0011017	2.64e-05
323.45	0.2	0.5	0.0011748	2.82e-05
324.15	0.1	0.1	0.0007414	1.78e-05
327.15	0.1	0.2	0.0009008	2.16e-05
327.15	0.2	0.2	0.0009267	2.22e-05
327.15	0.3	0.2	0.0009595	2.3e-05
327.15	0.3	0.3	0.0011091	2.65e-05
327.15	0.4	0.2	0.0010179	2.43e-05
327.15	0.5	0.2	0.0010341	2.47e-05
327.35	0.1	0.5	0.0010006	2.4e-05
327.35	0.2	0.5	0.0010712	2.56e-05
327.65	0.3	0.5	0.0010828	2.59e-05
327.65	0.4	0.5	0.0012613	3.01e-05
327.95	0.2	0.4	0.0011565	2.76e-05
328.15	0.1	0.1	0.0006922	1.66e-05
328.15	0.1	0.3	0.0010231	2.45e-05
328.15	0.2	0.1	0.000753	1.8e-05
328.15	0.2	0.3	0.0011037	2.64e-05
328.15	0.3	0.1	0.0007864	1.88e-05
328.15	0.4	0.1	0.0008621	2.07e-05
328.15	0.4	0.3	0.0011769	2.82e-05
328.15	0.4	0.4	0.0013389	3.2e-05
328.15	0.5	0.1	0.0008858	2.12e-05
328.15	0.5	0.3	0.0012228	2.92e-05
328.15	0.5	0.4	0.0015187	3.62e-05
328.15	0.5	0.5	0.0013562	3.24e-05
328.35	0.1	0.4	0.0010955	2.62e-05
328.45	0.3	0.4	0.0012183	2.91e-05
332.45	0.4	0.5	0.0011621	2.78e-05
332.55	0.3	0.5	0.0009516	2.28e-05
332.75	0.1	0.5	0.0008893	2.13e-05
332.75	0.2	0.5	0.0009266	2.22e-05
332.85	0.5	0.4	0.0013912	3.32e-05
332.95	0.3	0.3	0.0009869	2.36e-05
332.95	0.5	0.5	0.0012201	2.92e-05
333.15	0.1	0.3	0.0009179	2.2e-05
333.15	0.1	0.4	0.0010044	2.4e-05
333.15	0.2	0.1	0.0006925	1.66e-05
333.15	0.2	0.2	0.0008269	1.98e-05
333.15	0.2	0.3	0.0009532	2.28e-05
333.15	0.2	0.4	0.0010354	2.48e-05
333.15	0.3	0.1	0.0007246	1.74e-05
333.15	0.3	0.2	0.0008826	2.11e-05
333.15	0.3	0.4	0.0011031	2.64e-05
333.15	0.4	0.1	0.0007569	1.82e-05
333.15	0.4	0.2	0.0009343	2.23e-05
333.15	0.5	0.1	0.00079	1.89e-05
333.15	0.5	0.2	0.0009384	2.24e-05
333.35	0.4	0.3	0.0010266	2.46e-05
333.35	0.4	0.4	0.0012146	2.9e-05
333.45	0.5	0.3	0.0010932	2.61e-05
334.15	0.1	0.1	0.0006194	1.49e-05
335.15	0.1	0.2	0.0007654	1.83e-05
337.15	0.4	0.5	0.0010489	2.51e-05
337.65	0.1	0.5	0.0007985	1.91e-05
337.65	0.2	0.5	0.0008195	1.97e-05
337.65	0.4	0.3	0.0009113	2.18e-05
337.65	0.5	0.5	0.0010993	2.63e-05
337.85	0.3	0.3	0.0009032	2.16e-05
337.95	0.1	0.4	0.0009185	2.19e-05
337.95	0.5	0.4	0.0012686	3.03e-05
338.15	0.1	0.2	0.0007359	1.76e-05
338.15	0.1	0.3	0.0008223	1.97e-05
338.15	0.2	0.1	0.0006296	1.51e-05
338.15	0.2	0.2	0.0007538	1.81e-05
338.15	0.2	0.3	0.0008715	2.09e-05
338.15	0.2	0.4	0.0009387	2.24e-05
338.15	0.3	0.1	0.0006572	1.58e-05
338.15	0.3	0.2	0.0008012	1.92e-05
338.15	0.3	0.5	0.0008512	2.04e-05
338.15	0.4	0.1	0.0006862	1.65e-05
338.15	0.4	0.2	0.0008628	2.06e-05
338.15	0.4	0.4	0.0010985	2.62e-05
338.15	0.5	0.1	0.0007359	1.76e-05
338.15	0.5	0.2	0.0008778	2.1e-05
338.15	0.5	0.3	0.0009971	2.38e-05
338.35	0.3	0.4	0.0009764	2.34e-05
339.15	0.1	0.1	0.0005729	1.38e-05
342.15	0.4	0.5	0.0009472	2.27e-05
342.15	0.5	0.5	0.0010115	2.42e-05
342.95	0.1	0.5	0.0007257	1.74e-05
342.95	0.2	0.5	0.0007312	1.75e-05
342.95	0.4	0.4	0.0010057	2.41e-05
343.15	0.1	0.2	0.0006674	1.6e-05
343.15	0.1	0.3	0.0007514	1.8e-05
343.15	0.2	0.1	0.0005854	1.41e-05
343.15	0.2	0.2	0.0006991	1.68e-05
343.15	0.2	0.3	0.0007877	1.89e-05
343.15	0.3	0.1	0.0005992	1.44e-05
343.15	0.3	0.2	0.0007469	1.79e-05
343.15	0.3	0.3	0.0008027	1.92e-05
343.15	0.3	0.5	0.0007945	1.9e-05
343.15	0.4	0.1	0.0006176	1.48e-05
343.15	0.4	0.2	0.0008038	1.93e-05
343.15	0.4	0.3	0.0008292	1.98e-05
343.15	0.5	0.1	0.0006718	1.61e-05
343.15	0.5	0.2	0.0008226	1.97e-05
343.15	0.5	0.4	0.0011641	2.81e-05
343.25	0.2	0.4	0.0008592	2.06e-05
343.35	0.1	0.4	0.0008472	2.04e-05
343.35	0.5	0.3	0.0009117	2.18e-05
343.45	0.3	0.4	0.0008931	2.14e-05
344.15	0.1	0.1	0.0005366	1.29e-05

System: ethanol + water + 1,1'-(pentane-1,5-diyl)-bis(pyridinium) dibromide; phases: Liquid
Fixed: Pressure, kPa = 101
Property: Mass density, kg/m3 (Liquid); method: Pycnometric method
Temperature, K	Molality, mol/kg of 1,1'-(pentane-1,5-diyl)-bis(pyridinium) dibromide	Solvent: Mass fraction of ethanol	Mass density, kg/m3	uncertainty
292.15	0.5	0.5	972.7	1.3
292.45	0.5	0.4	994.4	1.3
292.95	0.3	0.4	967.4	1.3
293.15	0.1	0.2	978.8	1.3
293.15	0.2	0.2	990.9	1.3
293.15	0.2	0.3	970.2	1.3
293.15	0.3	0.1	1016.3	1.4
293.15	0.3	0.2	1004.5	1.4
293.15	0.4	0.2	1019.3	1.4
293.15	0.4	0.5	962.5	1.3
293.15	0.5	0.3	1011.1	1.4
293.65	0.1	0.1	1002.2	1.4
293.75	0.3	0.5	946	1
294.15	0.1	0.3	963.1	1.3
294.15	0.1	0.5	920.5	1.2
294.15	0.2	0.1	1006.4	1.4
294.15	0.2	0.5	937	1
294.15	0.3	0.3	992.2	1.3
294.15	0.4	0.4	979.9	1.3
296.15	0.4	0.3	993.9	1.3
297.15	0.4	0.5	959.1	1.3
297.15	0.5	0.2	1027.4	1.4
297.35	0.2	0.4	947.3	1.2
297.65	0.1	0.4	939.8	1.2
297.65	0.3	0.4	963.8	1.3
297.75	0.1	0.5	917.5	1.2
297.75	0.2	0.5	933.3	1.2
297.85	0.3	0.5	943.5	1.2
297.85	0.5	0.4	990.5	1.3
297.95	0.4	0.4	977.5	1.3
298.15	0.1	0.3	957.8	1.3
298.15	0.2	0.2	987.3	1.3
298.15	0.3	0.2	1000.6	1.4
298.15	0.4	0.2	1014.6	1.4
298.35	0.5	0.5	967.5	1.3
298.65	0.1	0.1	997.7	1.4
299.15	0.1	0.2	974.8	1.3
299.15	0.2	0.3	965.6	1.3
299.15	0.3	0.1	1013.2	1.4
299.15	0.3	0.3	987.3	1.3
299.15	0.4	0.1	1024.4	1.4
299.15	0.5	0.1	1037.5	1.5
299.15	0.5	0.3	1005.8	1.4
299.65	0.2	0.1	1002.3	1.4
303.15	0.1	0.2	971.9	1.3
303.15	0.1	0.3	954.7	1.3
303.15	0.1	0.4	933.3	1.2
303.15	0.1	0.5	911.1	1.2
303.15	0.2	0.2	983.7	1.3
303.15	0.2	0.3	962.6	1.3
303.15	0.2	0.5	928.4	1.2
303.15	0.3	0.1	1010.8	1.4
303.15	0.3	0.2	996.5	1.4
303.15	0.3	0.4	959.1	1.3
303.15	0.3	0.5	939.1	1.2
303.15	0.4	0.1	1021	1.4
303.15	0.4	0.2	1009.1	1.4
303.15	0.4	0.5	954.7	1.3
303.15	0.5	0.1	1032.3	1.5
303.15	0.5	0.2	1023.2	1.4
303.35	0.1	0.1	993	1.4
303.35	0.5	0.4	986.8	1.3
303.65	0.2	0.4	940.2	1.2
304.15	0.2	0.1	998.5	1.4
304.15	0.3	0.3	980.6	1.3
304.15	0.4	0.3	987.6	1.3
304.15	0.5	0.3	1001.8	1.4
304.15	0.5	0.5	963.3	1.3
304.95	0.4	0.4	972.5	1.3
308.15	0.1	0.2	967.9	1.3
308.15	0.1	0.3	951.2	1.3
308.15	0.1	0.5	907.4	1.2
308.15	0.2	0.2	980.7	1.3
308.15	0.2	0.3	958.9	1.3
308.15	0.2	0.5	925.7	1.2
308.15	0.3	0.1	1007.1	1.4
308.15	0.3	0.2	992.3	1.4
308.15	0.3	0.3	977.2	1.3
308.15	0.3	0.5	934.8	1.2
308.15	0.4	0.1	1017.3	1.4
308.15	0.4	0.2	1004.8	1.4
308.15	0.4	0.3	984.6	1.3
308.15	0.4	0.5	951.1	1.3
308.15	0.5	0.1	1027.8	1.5
308.15	0.5	0.2	1019.9	1.4
308.15	0.5	0.5	960.6	1.3
308.65	0.4	0.4	970.1	1.3
308.65	0.5	0.3	998.6	1.4
308.75	0.2	0.4	935.7	1.2
308.95	0.5	0.4	983.2	1.3
309.15	0.1	0.1	987	1.4
309.15	0.1	0.4	927.8	1.2
309.15	0.2	0.1	995.1	1.4
309.15	0.3	0.4	955.2	1.3
312.15	0.4	0.5	948.5	1.3
312.65	0.1	0.5	903	1
312.65	0.2	0.5	922.6	1.2
312.85	0.5	0.5	956.7	1.3
313.15	0.1	0.2	964.9	1.3
313.15	0.1	0.3	948.1	1.3
313.15	0.2	0.2	977.2	1.3
313.15	0.2	0.3	955.9	1.3
313.15	0.2	0.4	931.5	1.2
313.15	0.3	0.1	1003.4	1.4
313.15	0.3	0.2	988.9	1.4
313.15	0.3	0.3	973.5	1.3
313.15	0.3	0.4	951.9	1.3
313.15	0.3	0.5	931.1	1.2
313.15	0.4	0.1	1014.1	1.4
313.15	0.4	0.2	1000.5	1.4
313.15	0.5	0.1	1022.8	1.5
313.15	0.5	0.2	1015.7	1.4
313.15	0.5	0.4	979.8	1.3
313.35	0.1	0.4	925.2	1.2
313.35	0.4	0.3	981.1	1.3
313.35	0.4	0.4	967	1
313.35	0.5	0.3	995.4	1.4
314.15	0.1	0.1	983.4	1.4
314.15	0.2	0.1	992.7	1.4
317.15	0.2	0.4	929	1
317.15	0.3	0.5	928.1	1.2
317.65	0.5	0.5	953.6	1.3
317.85	0.2	0.3	952.9	1.3
317.95	0.1	0.5	899.7	1.2
317.95	0.2	0.5	917.8	1.2
317.95	0.4	0.5	944.1	1.3
318.15	0.1	0.2	960.6	1.3
318.15	0.1	0.3	944.3	1.3
318.15	0.2	0.1	989.8	1.4
318.15	0.2	0.2	974.5	1.3
318.15	0.3	0.2	985.4	1.4
318.15	0.3	0.3	969.7	1.3
318.15	0.4	0.1	1010.3	1.4
318.15	0.4	0.2	995.7	1.4
318.15	0.5	0.1	1019.7	1.5
318.15	0.5	0.2	1012.2	1.4
318.15	0.5	0.3	992.3	1.4
318.15	0.5	0.4	976.6	1.3
318.35	0.3	0.4	948.1	1.3
318.35	0.4	0.4	963.2	1.3
318.45	0.1	0.4	921.6	1.2
318.45	0.4	0.3	977.8	1.3
319.15	0.1	0.1	981.6	1.4
319.15	0.3	0.1	1000.3	1.4
322.15	0.4	0.5	941.1	1.3
322.85	0.5	0.4	973.2	1.4
322.95	0.3	0.4	945.7	1.3
323.15	0.1	0.2	958.1	1.3
323.15	0.1	0.3	942.4	1.3
323.15	0.2	0.1	986.9	1.4
323.15	0.2	0.2	971.3	1.3
323.15	0.2	0.3	950.3	1.3
323.15	0.2	0.4	924.8	1.2
323.15	0.3	0.1	997.4	1.4
323.15	0.3	0.2	982.2	1.4
323.15	0.3	0.3	966.1	1.3
323.15	0.3	0.5	923	1.2
323.15	0.4	0.1	1007.1	1.4
323.15	0.4	0.2	991.3	1.4
323.15	0.4	0.3	975.4	1.4
323.15	0.4	0.4	960.4	1.3
323.15	0.5	0.1	1016.9	1.5
323.15	0.5	0.2	1008.1	1.4
323.15	0.5	0.5	950.1	1.3
323.35	0.1	0.4	916.8	1.2
323.35	0.5	0.3	989.1	1.4
323.45	0.1	0.5	893.6	1.2
323.45	0.2	0.5	912.6	1.2
324.15	0.1	0.1	979.9	1.4
327.15	0.1	0.2	956	1.3
327.15	0.2	0.2	968.5	1.3
327.15	0.3	0.2	979.6	1.4
327.15	0.3	0.3	963.8	1.3
327.15	0.4	0.2	987.9	1.4
327.15	0.5	0.2	1004.7	1.4
327.35	0.1	0.5	891.5	1.2
327.35	0.2	0.5	910.7	1.2
327.65	0.3	0.5	919.6	1.2
327.65	0.4	0.5	937.5	1.3
327.95	0.2	0.4	921.3	1.2
328.15	0.1	0.1	978.9	1.4
328.15	0.1	0.3	939.2	1.3
328.15	0.2	0.1	984.3	1.4
328.15	0.2	0.3	947.7	1.3
328.15	0.3	0.1	994.4	1.4
328.15	0.4	0.1	1003.8	1.4
328.15	0.4	0.3	971.4	1.4
328.15	0.4	0.4	957	1
328.15	0.5	0.1	1014.6	1.5
328.15	0.5	0.3	985.9	1.4
328.15	0.5	0.4	969.7	1.4
328.15	0.5	0.5	946.6	1.3
328.35	0.1	0.4	914.5	1.2
328.45	0.3	0.4	942.4	1.3
332.45	0.4	0.5	934.5	1.3
332.55	0.3	0.5	916.1	1.2
332.75	0.1	0.5	888.3	1.2
332.75	0.2	0.5	906.2	1.2
332.85	0.5	0.4	966.1	1.4
332.95	0.3	0.3	961.2	1.3
332.95	0.5	0.5	943.1	1.3
333.15	0.1	0.3	936.6	1.3
333.15	0.1	0.4	911.8	1.2
333.15	0.2	0.1	981.4	1.4
333.15	0.2	0.2	965.1	1.4
333.15	0.2	0.3	945.4	1.3
333.15	0.2	0.4	917.3	1.2
333.15	0.3	0.1	991.5	1.4
333.15	0.3	0.2	977.4	1.4
333.15	0.3	0.4	939.3	1.3
333.15	0.4	0.1	999.9	1.4
333.15	0.4	0.2	983.6	1.4
333.15	0.5	0.1	1012.6	1.5
333.15	0.5	0.2	1001.8	1.4
333.35	0.4	0.3	968.1	1.4
333.35	0.4	0.4	954.2	1.3
333.45	0.5	0.3	983.3	1.4
334.15	0.1	0.1	976.8	1.4
335.15	0.1	0.2	952.6	1.3
337.15	0.4	0.5	931.7	1.3
337.65	0.1	0.5	883.4	1.2
337.65	0.2	0.5	903.3	1.2
337.65	0.4	0.3	965.9	1.4
337.65	0.5	0.5	939.3	1.3
337.85	0.3	0.3	958.4	1.3
337.95	0.1	0.4	908.4	1.2
337.95	0.5	0.4	962.9	1.4
338.15	0.1	0.2	952.2	1.3
338.15	0.1	0.3	932	1.3
338.15	0.2	0.1	979.4	1.4
338.15	0.2	0.2	961.8	1.4
338.15	0.2	0.3	942	1.3
338.15	0.2	0.4	912.6	1.2
338.15	0.3	0.1	988.3	1.4
338.15	0.3	0.2	975.1	1.4
338.15	0.3	0.5	911.5	1.2
338.15	0.4	0.1	996.6	1.4
338.15	0.4	0.2	979.5	1.4
338.15	0.4	0.4	951.1	1.3
338.15	0.5	0.1	1010.8	1.5
338.15	0.5	0.2	998.7	1.5
338.15	0.5	0.3	980.6	1.4
338.35	0.3	0.4	935.7	1.3
339.15	0.1	0.1	975.4	1.4
342.15	0.4	0.5	927.9	1.3
342.15	0.5	0.5	936.4	1.3
342.95	0.1	0.5	880.7	1.2
342.95	0.2	0.5	900.4	1.2
342.95	0.4	0.4	948.4	1.3
343.15	0.1	0.2	949.6	1.3
343.15	0.1	0.3	929.8	1.3
343.15	0.2	0.1	977.1	1.4
343.15	0.2	0.2	959.2	1.4
343.15	0.2	0.3	940.3	1.3
343.15	0.3	0.1	986.1	1.4
343.15	0.3	0.2	973.2	1.4
343.15	0.3	0.3	956.8	1.4
343.15	0.3	0.5	907.6	1.2
343.15	0.4	0.1	993.7	1.4
343.15	0.4	0.2	975.1	1.4
343.15	0.4	0.3	963.1	1.4
343.15	0.5	0.1	1009.1	1.5
343.15	0.5	0.2	996.4	1.5
343.15	0.5	0.4	959.1	1.4
343.25	0.2	0.4	909.1	1.3
343.35	0.1	0.4	906.1	1.2
343.35	0.5	0.3	977.8	1.4
343.45	0.3	0.4	932.5	1.3
344.15	0.1	0.1	974.5	1.4
