Measured thermophysical data. Solubility of 1,3-Dimethyl-7H-purine-2,6-dione (Theophylline) in Supercritical Carbon Dioxide
Source: J. Chem. Eng. Data, 2009, 10.1021/je900099m
Compound 1: 3,7-dihydro-1,3-dimethyl-1H-purine-2,6-dione, C7H8N4O2, InChI=1S/C7H8N4O2/c1-10-5-4(8-3-9-5)6(12)11(2)7(10)13/h3H,1-2H3,(H,8,9)
Compound 2: carbon dioxide, CO2, InChI=1S/CO2/c2-1-3

System: 3,7-dihydro-1,3-dimethyl-1H-purine-2,6-dione + carbon dioxide; phases: Fluid (supercritical or subcritical phases), Crystal
Property: Mole fraction of 3,7-dihydro-1,3-dimethyl-1H-purine-2,6-dione (Fluid (supercritical or subcritical phases)); method: Chromatography
Temperature, K	Pressure, kPa	Mole fraction of 3,7-dihydro-1,3-dimethyl-1H-purine-2,6-dione	uncertainty
313	15700	5.3e-06	1.9e-06
313	16200	3.3e-06	1.7e-06
313	16500	3.5e-06	1.2e-06
313	21500	6.6e-06	1.8e-06
313	24300	4.8e-06	1.3e-06
313	26400	8.7e-06	2.1e-06
313	29700	9.5e-06	2e-06
313	29800	1.1e-05	2.3e-06
313	33400	1.1e-05	2.5e-06
313	37300	1.8e-05	3.7e-06
323	10100	4.1e-06	1.8e-06
323	14700	9.7e-06	2.2e-06
323	22900	1.7e-05	3.6e-06
323	24300	1.6e-05	3.4e-06
323	29600	1.7e-05	3.6e-06
323	34700	2.5e-05	5.1e-06
323	39100	2.6e-05	5.3e-06
323	40200	3e-05	6e-06
323	41200	2.6e-05	5.2e-06
323	44100	2.8e-05	5.7e-06
333	15200	2.5e-05	5.4e-06
333	15500	2.7e-05	5.7e-06
333	15800	2.7e-05	5.7e-06
333	19900	2.5e-05	5.1e-06
333	35300	3.2e-05	6.4e-06
333	39300	3.3e-05	6.6e-06
333	40000	3.3e-05	6.6e-06
