Measured thermophysical data. Partitioning of Phenylalkanols between Micelles and Water Studied by Limiting Interdiffusion Coefficients in Water and Tetradecyltrimethylammonium Bromide Solutions
Source: J. Chem. Eng. Data, 2010, 10.1021/je900967j
Compound 1: benzenemethanol, C7H8O, InChI=1S/C7H8O/c8-6-7-4-2-1-3-5-7/h1-5,8H,6H2
Compound 2: 2-phenylethanol, C8H10O, InChI=1S/C8H10O/c9-7-6-8-4-2-1-3-5-8/h1-5,9H,6-7H2
Compound 3: 3-phenyl-1-propanol, C9H12O, InChI=1S/C9H12O/c10-8-4-7-9-5-2-1-3-6-9/h1-3,5-6,10H,4,7-8H2
Compound 4: 4-phenyl-1-butanol, C10H14O, InChI=1S/C10H14O/c11-9-5-4-8-10-6-2-1-3-7-10/h1-3,6-7,11H,4-5,8-9H2
Compound 5: 1-pentanol, 5-phenyl-, C11H16O, InChI=1S/C11H16O/c12-10-6-2-5-9-11-7-3-1-4-8-11/h1,3-4,7-8,12H,2,5-6,9-10H2
Compound 6: tetradecyltrimethylammonium bromide, C17H38BrN, InChI=1S/C17H38N.BrH/c1-5-6-7-8-9-10-11-12-13-14-15-16-17-18(2,3)4;/h5-17H2,1-4H3;1H/q+1;/p-1
Compound 7: water, H2O, InChI=1S/H2O/h1H2, purity 99.9%
Compound 8: pyrene, C16H10, InChI=1S/C16H10/c1-3-11-7-9-13-5-2-6-14-10-8-12(4-1)15(11)16(13)14/h1-10H

System: benzenemethanol + water; phases: Liquid
Property: Binary diffusion coefficient, m2/s (Liquid); method: Dispersion
Temperature, K	Pressure, kPa	Mole fraction of benzenemethanol	Binary diffusion coefficient, m2/s	uncertainty
298.15	101	0	8.3e-10	0.099

System: 2-phenylethanol + water; phases: Liquid
Property: Binary diffusion coefficient, m2/s (Liquid); method: Dispersion
Temperature, K	Pressure, kPa	Mole fraction of 2-phenylethanol	Binary diffusion coefficient, m2/s	uncertainty
298.15	101	0	7.92e-10	0.068

System: 3-phenyl-1-propanol + water; phases: Liquid
Property: Binary diffusion coefficient, m2/s (Liquid); method: Dispersion
Temperature, K	Pressure, kPa	Mole fraction of 3-phenyl-1-propanol	Binary diffusion coefficient, m2/s	uncertainty
298.15	101	0	7.22e-10	0.049

System: 4-phenyl-1-butanol + water; phases: Liquid
Property: Binary diffusion coefficient, m2/s (Liquid); method: Dispersion
Temperature, K	Pressure, kPa	Mole fraction of 4-phenyl-1-butanol	Binary diffusion coefficient, m2/s	uncertainty
298.15	101	0	6.64e-10	0.046

System: water + 1-pentanol, 5-phenyl-; phases: Liquid
Property: Binary diffusion coefficient, m2/s (Liquid); method: Dispersion
Temperature, K	Pressure, kPa	Mole fraction of 1-pentanol, 5-phenyl-	Binary diffusion coefficient, m2/s	uncertainty
298.15	101	0	5.32e-10	0.029

System: benzenemethanol + tetradecyltrimethylammonium bromide + water; phases: Liquid
Property: Binary diffusion coefficient, m2/s (Liquid); method: Dispersion
Temperature, K	Pressure, kPa	Mole fraction of benzenemethanol	Solvent: Amount concentration (molarity), mol/dm3 of tetradecyltrimethylammonium bromide	Binary diffusion coefficient, m2/s	uncertainty
298.15	101	0	0.04	5.8e-10	0.029

System: 2-phenylethanol + tetradecyltrimethylammonium bromide + water; phases: Liquid
Property: Binary diffusion coefficient, m2/s (Liquid); method: Dispersion
Temperature, K	Pressure, kPa	Mole fraction of 2-phenylethanol	Solvent: Amount concentration (molarity), mol/dm3 of tetradecyltrimethylammonium bromide	Binary diffusion coefficient, m2/s	uncertainty
298.15	101	0	0.04	4.59e-10	0.022

System: 3-phenyl-1-propanol + tetradecyltrimethylammonium bromide + water; phases: Liquid
Property: Binary diffusion coefficient, m2/s (Liquid); method: Dispersion
Temperature, K	Pressure, kPa	Mole fraction of 3-phenyl-1-propanol	Solvent: Amount concentration (molarity), mol/dm3 of tetradecyltrimethylammonium bromide	Binary diffusion coefficient, m2/s	uncertainty
298.15	101	0	0.04	2.62e-10	0.016

System: tetradecyltrimethylammonium bromide + 4-phenyl-1-butanol + water; phases: Liquid
Property: Binary diffusion coefficient, m2/s (Liquid); method: Dispersion
Temperature, K	Pressure, kPa	Mole fraction of 4-phenyl-1-butanol	Solvent: Amount concentration (molarity), mol/dm3 of tetradecyltrimethylammonium bromide	Binary diffusion coefficient, m2/s	uncertainty
298.15	101	0	0.04	1.73e-10	0.013

System: tetradecyltrimethylammonium bromide + water + 1-pentanol, 5-phenyl-; phases: Liquid
Property: Binary diffusion coefficient, m2/s (Liquid); method: Dispersion
Temperature, K	Pressure, kPa	Mole fraction of 1-pentanol, 5-phenyl-	Solvent: Amount concentration (molarity), mol/dm3 of tetradecyltrimethylammonium bromide	Binary diffusion coefficient, m2/s	uncertainty
298.15	101	0	0.04	1.05e-10	0.011

System: pyrene + tetradecyltrimethylammonium bromide + water; phases: Liquid
Property: Binary diffusion coefficient, m2/s (Liquid); method: Dispersion
Temperature, K	Pressure, kPa	Mole fraction of pyrene	Solvent: Amount concentration (molarity), mol/dm3 of tetradecyltrimethylammonium bromide	Binary diffusion coefficient, m2/s	uncertainty
298.15	101	0	0.04	7.46e-11	0.0101
