Measured thermophysical data. Vapor-Liquid Equilibria in Binary Systems Formed by n-Hexane with Alcohols
Source: J. Chem. Eng. Data, 2010, 10.1021/je900530f
Compound 1: butan-2-ol, C4H10O, InChI=1S/C4H10O/c1-3-4(2)5/h4-5H,3H2,1-2H3, purity 99.95%
Compound 2: hexane, C6H14, InChI=1S/C6H14/c1-3-5-6-4-2/h3-6H2,1-2H3, purity 99.95%
Compound 3: pentan-2-ol, C5H12O, InChI=1S/C5H12O/c1-3-4-5(2)6/h5-6H,3-4H2,1-2H3, purity 99.95%
Compound 4: 2-methylbutan-2-ol, C5H12O, InChI=1S/C5H12O/c1-4-5(2,3)6/h6H,4H2,1-3H3, purity 99.95%

System: butan-2-ol; phases: Liquid, Gas
Property: Vapor or sublimation pressure, kPa (Liquid); method: EBULLIO::UFactor:3
Temperature, K	Vapor or sublimation pressure, kPa	uncertainty
313.15	5.83	0.18
323.15	10.48	0.24
333.15	18.2	0.33

System: hexane; phases: Liquid, Gas
Property: Vapor or sublimation pressure, kPa (Liquid); method: EBULLIO::UFactor:3
Temperature, K	Vapor or sublimation pressure, kPa	uncertainty
313.15	37.04	0.55
323.15	53.91	0.74
333.15	76.32	1
338.15	89.92	1.16

System: pentan-2-ol; phases: Liquid, Gas
Property: Vapor or sublimation pressure, kPa (Liquid); method: EBULLIO:UFactor:3
Temperature, K	Vapor or sublimation pressure, kPa	uncertainty
313.15	2.13	0.14
323.15	4.16	0.16
333.15	7.57	0.2
338.15	9.99	0.23

System: 2-methylbutan-2-ol; phases: Liquid, Gas
Property: Vapor or sublimation pressure, kPa (Liquid); method: EBULLIO::UFactor:4
Temperature, K	Vapor or sublimation pressure, kPa	uncertainty
313.15	5.69	0.24
323.15	10.41	0.32
333.15	17.87	0.43
338.15	22.87	0.51

System: butan-2-ol + hexane; phases: Liquid, Gas
Property: Vapor or sublimation pressure, kPa (Liquid); method: EBULLIO:UFactor:3
Temperature, K	Mole fraction of butan-2-ol	Vapor or sublimation pressure, kPa	uncertainty
313.15	0	37.04	0.55
313.15	0.1113	38.24	0.56
313.15	0.2089	37.55	0.55
313.15	0.2763	36.97	0.55
313.15	0.3351	36.53	0.54
313.15	0.3953	35.93	0.53
313.15	0.4642	35.15	0.53
313.15	0.4644	35.14	0.53
313.15	0.5292	34.16	0.51
313.15	0.5971	33.13	0.5
313.15	0.5976	33.11	0.5
313.15	0.6564	31.89	0.49
313.15	0.7125	30.39	0.47
313.15	0.7726	27.71	0.44
313.15	0.8226	25.25	0.41
313.15	0.8746	22.44	0.38
313.15	1	5.83	0.18
323.15	0	53.91	0.74
323.15	0.109	55.95	0.77
323.15	0.2046	55.04	0.76
323.15	0.271	54.27	0.75
323.15	0.3294	53.61	0.74
323.15	0.3894	52.83	0.73
323.15	0.458	51.67	0.72
323.15	0.4581	51.67	0.72
323.15	0.5225	50.32	0.7
323.15	0.5895	48.62	0.68
323.15	0.5898	48.6	0.68
323.15	0.6475	46.95	0.66
323.15	0.7025	44	0.63
323.15	0.7614	40.6	0.59
323.15	0.8108	37.64	0.55
323.15	0.862	33.67	0.51
323.15	0.9108	29.2	0.46
323.15	0.9478	23.84	0.39
323.15	1	10.48	0.24
333.15	0	76.32	1
333.15	0.1068	79.65	1.04
333.15	0.2009	78.87	1.03
333.15	0.2667	77.47	1.02
333.15	0.3247	76.15	1
333.15	0.3843	75.47	0.99
333.15	0.4523	74.03	0.98
333.15	0.516	72.2	0.96
333.15	0.5741	69.83	0.93
333.15	0.6146	67.71	0.9
333.15	0.6929	62	0.84
333.15	0.7988	54.32	0.75
333.15	0.848	48.93	0.69
333.15	0.894	41.87	0.6
333.15	0.9299	34.39	0.52
333.15	0.9557	30.17	0.47
333.15	0.9735	26.13	0.42
333.15	0.9885	21.91	0.37
333.15	1	18.2	0.33

System: hexane + pentan-2-ol; phases: Liquid, Gas
Property: Vapor or sublimation pressure, kPa (Liquid); method: EBULLIO:UFactor:3
Temperature, K	Mole fraction of pentan-2-ol	Vapor or sublimation pressure, kPa	uncertainty
313.15	0	37.04	0.55
313.15	0.0852	36.48	0.54
313.15	0.1038	36.41	0.54
313.15	0.1293	36.13	0.54
313.15	0.1762	35.44	0.53
313.15	0.2285	34.83	0.52
313.15	0.2728	34.43	0.52
313.15	0.2877	33.93	0.51
313.15	0.3176	33.8	0.51
313.15	0.3372	32.97	0.5
313.15	0.3637	32.8	0.5
313.15	0.3965	32	0.49
313.15	0.4312	31.69	0.49
313.15	0.4482	30.9	0.48
313.15	0.4485	30.89	0.48
313.15	0.4931	30.57	0.47
313.15	0.5565	29.26	0.46
313.15	0.5569	29.25	0.46
313.15	0.6234	27.93	0.44
313.15	0.6923	25.64	0.41
313.15	0.7407	23.64	0.39
313.15	0.8099	19.35	0.34
313.15	0.8709	16	0.3
313.15	1	2.13	0.14
323.15	0	53.91	0.74
323.15	0.0841	53.19	0.74
323.15	0.1026	52.99	0.73
323.15	0.1278	52.67	0.73
323.15	0.1742	51.65	0.72
323.15	0.2258	50.56	0.7
323.15	0.2698	49.73	0.69
323.15	0.3143	48.67	0.68
323.15	0.3601	47.31	0.67
323.15	0.4282	45.68	0.65
323.15	0.4285	45.66	0.65
323.15	0.4889	44.31	0.63
323.15	0.552	42.47	0.61
323.15	0.5523	42.46	0.61
323.15	0.6181	39.6	0.58
323.15	0.6821	36.11	0.54
323.15	0.7326	33.4	0.5
323.15	0.8012	28.8	0.45
323.15	0.8617	24.2	0.4
323.15	0.9102	19.77	0.35
323.15	1	4.16	0.16
333.15	0	76.32	1
333.15	0.0827	75.43	0.99
333.15	0.101	75.09	0.99
333.15	0.126	74.57	0.98
333.15	0.172	73.68	0.97
333.15	0.2233	71.73	0.95
333.15	0.2669	70.65	0.94
333.15	0.2815	69.97	0.93
333.15	0.311	68.93	0.92
333.15	0.3303	68.29	0.91
333.15	0.3564	66.99	0.9
333.15	0.3889	65.56	0.88
333.15	0.4841	62.45	0.84
333.15	0.4844	62.46	0.84
333.15	0.5466	60.04	0.81
333.15	0.5471	60.02	0.81
333.15	0.6121	56	0.77
333.15	0.678	51.27	0.71
333.15	0.792	41.01	0.59
333.15	0.8506	35.43	0.53
333.15	0.8976	29.04	0.45
333.15	1	7.57	0.2
338.15	0	89.92	1.16
338.15	0.0813	88.95	1.15
338.15	0.0994	88.4	1.14
338.15	0.1243	88.01	1.14
338.15	0.1704	86.81	1.13
338.15	0.2219	85.27	1.11
338.15	0.2802	83.47	1.09
338.15	0.3096	81.57	1.07
338.15	0.3288	81.04	1.06
338.15	0.3548	80.31	1.05
338.15	0.387	78.79	1.03
338.15	0.3875	78.81	1.03
338.15	0.4815	73.45	0.97
338.15	0.5436	70.71	0.94
338.15	0.6082	66.12	0.89
338.15	0.6089	66.11	0.89
338.15	0.6745	60.73	0.82
338.15	0.7865	48.8	0.68
338.15	0.8436	42.05	0.61
338.15	0.8904	34.73	0.52
338.15	0.978	18.15	0.33
338.15	1	9.99	0.23

System: 2-methylbutan-2-ol + hexane; phases: Liquid, Gas
Property: Vapor or sublimation pressure, kPa (Liquid); method: EBULLIO:UFactor:4
Temperature, K	Mole fraction of 2-methylbutan-2-ol	Vapor or sublimation pressure, kPa	uncertainty
313.15	0	37.04	0.73
313.15	0.0503	37.31	0.73
313.15	0.1265	36.87	0.73
313.15	0.2466	34.91	0.7
313.15	0.2935	34.23	0.69
313.15	0.3432	33.23	0.67
313.15	0.4127	32.21	0.65
313.15	0.4129	32.21	0.65
313.15	0.5408	30.74	0.63
313.15	0.541	30.73	0.63
313.15	0.5976	29.29	0.61
313.15	0.6612	27.07	0.57
313.15	0.7151	25.07	0.54
313.15	0.7714	21.91	0.49
313.15	0.828	19.6	0.46
313.15	1	5.69	0.24
323.15	0	53.91	0.99
323.15	0.0499	54.35	1
323.15	0.126	53.83	0.99
323.15	0.1899	52.63	0.97
323.15	0.2462	51.19	0.95
323.15	0.2929	50	0.93
323.15	0.3418	48.27	0.9
323.15	0.4092	45.81	0.87
323.15	0.4765	44.72	0.85
323.15	0.4768	44.69	0.85
323.15	0.5317	41.76	0.8
323.15	0.5867	40.29	0.78
323.15	0.587	40.27	0.78
323.15	0.6432	37.39	0.73
323.15	0.7035	35.27	0.7
323.15	0.7625	33.28	0.67
323.15	0.8204	29.92	0.62
323.15	0.8674	26.53	0.57
323.15	0.9097	22.29	0.5
323.15	0.9367	19.51	0.46
323.15	1	10.41	0.32
333.15	0	76.32	1.34
333.15	0.0484	76.96	1.35
333.15	0.1219	76.37	1.34
333.15	0.1863	75.21	1.32
333.15	0.2433	73.79	1.3
333.15	0.2901	72.2	1.27
333.15	0.3385	70.11	1.24
333.15	0.4039	66.94	1.19
333.15	0.4042	66.91	1.19
333.15	0.5772	57.98	1.05
333.15	0.5776	57.95	1.05
333.15	0.6338	54.57	1
333.15	0.7532	49.11	0.92
333.15	0.8093	44.57	0.85
333.15	0.8543	40.11	0.78
333.15	0.8961	34.21	0.69
333.15	0.9245	29.87	0.62
333.15	0.9595	24.77	0.54
333.15	0.982	21.33	0.49
333.15	1	17.87	0.43
338.15	0	89.92	1.55
338.15	0.0479	90.73	1.56
338.15	0.1204	90.13	1.55
338.15	0.1849	89.15	1.54
338.15	0.2419	87.17	1.51
338.15	0.2886	86	1.49
338.15	0.3367	82.93	1.44
338.15	0.4014	79.45	1.39
338.15	0.4017	79.43	1.39
338.15	0.5733	69	1.22
338.15	0.5735	69.01	1.22
338.15	0.6295	65.01	1.16
338.15	0.7484	59.09	1.07
338.15	0.8038	53.63	0.99
338.15	0.8483	48.47	0.91
338.15	0.8901	41.95	0.81
338.15	0.9193	36.87	0.73
338.15	0.9563	31.13	0.64
338.15	0.9807	27.07	0.57
338.15	1	22.87	0.51
