Measured thermophysical data. Liquid-Liquid Coexistence Curves of {x 1-Butyl-3-methylimidazolium Tetrafluoroborate + (1 - x) 1,3-Propanediol} and {x 1-Butyl-3-methylimidazolium Tetrafluoroborate + (1 - x) 1,4-Butanediol}
Source: J. Chem. Eng. Data, 2010, 10.1021/je900864n
Compound 1: propan-1,3-diol, C3H8O2, InChI=1S/C3H8O2/c4-2-1-3-5/h4-5H,1-3H2
Compound 2: 1,4-butanediol, C4H10O2, InChI=1S/C4H10O2/c5-3-1-2-4-6/h5-6H,1-4H2
Compound 3: 1-butyl-3-methylimidazolium tetrafluoroborate, C8H15BF4N2, InChI=1S/C8H15N2.BF4/c1-3-4-5-10-7-6-9(2)8-10;2-1(3,4)5/h6-8H,3-5H2,1-2H3;/q+1;-1

System: propan-1,3-diol; phases: Liquid
Fixed: Pressure, kPa = 101.325
Property: Mass density, kg/m3 (Liquid); method: VIBTUB:UFactor:4
Temperature, K	Mass density, kg/m3	uncertainty
293.15	1053.48	0.26
298.15	1050.28	0.26
303.15	1047.26	0.25
308.15	1044.11	0.25
313.15	1040.94	0.24

System: propan-1,3-diol; phases: Liquid
Fixed: Pressure, kPa = 101
Fixed: Wavelength, nm = 63.28
Property: Refractive index (other wavelength) (Liquid); method: Standard Abbe refractometry
Temperature, K	Refractive index (other wavelength)	uncertainty
287.46	1.4396	0.0004
288.885	1.4392	0.0004
290.941	1.4387	0.0004
293.101	1.4381	0.0004
295.162	1.4375	0.0004
297.022	1.437	0.0004
299.087	1.4365	0.0004
301.207	1.4359	0.0004

System: 1,4-butanediol; phases: Liquid
Fixed: Pressure, kPa = 101.325
Property: Refractive index (Na D-line) (Liquid); method: Standard Abbe refractometry
Temperature, K	Refractive index (Na D-line)	uncertainty
294.225	1.4447	0.0005
297.667	1.4437	0.0005
300.862	1.4428	0.0005
303.233	1.4422	0.0005
306.212	1.4414	0.0005
309.127	1.4406	0.0005
313.686	1.4393	0.0005

System: 1,4-butanediol; phases: Liquid
Fixed: Pressure, kPa = 101.325
Property: Mass density, kg/m3 (Liquid); method: VIBTUB:UFactor:8
Temperature, K	Mass density, kg/m3	uncertainty
293.15	1016.37	0.5
298.15	1013.04	0.49
303.15	1009.96	0.48
308.15	1006.75	0.47
313.15	1003.55	0.46
318.15	1000.72	0.45

System: 1-butyl-3-methylimidazolium tetrafluoroborate; phases: Liquid
Fixed: Pressure, kPa = 101.325
Property: Mass density, kg/m3 (Liquid); method: VIBTUB:UFactor:8
Temperature, K	Mass density, kg/m3	uncertainty
293.15	1210.05	1.21
298.15	1206.32	1.19
303.15	1202.59	1.18
308.15	1198.97	1.17
313.15	1195.24	1.15

System: 1-butyl-3-methylimidazolium tetrafluoroborate; phases: Liquid
Fixed: Pressure, kPa = 101
Fixed: Wavelength, nm = 632.8
Property: Refractive index (other wavelength) (Liquid); method: Standard Abbe refractometry
Temperature, K	Refractive index (other wavelength)	uncertainty
286.907	1.4228	0.0004
288.889	1.4223	0.0004
290.923	1.4218	0.0005
293.04	1.4212	0.0005
295.032	1.4207	0.0004
297.042	1.4202	0.0004
299.02	1.4197	0.0004
304.123	1.4184	0.0004
309.02	1.4171	0.0005
314.345	1.4157	0.0004
318.922	1.4146	0.0004

System: 1,4-butanediol + 1-butyl-3-methylimidazolium tetrafluoroborate; phases: Liquid mixture 1, Liquid mixture 2
Fixed: Pressure, kPa = 101
Fixed: Wavelength, nm = 632.8
Property: Refractive index (other wavelength) (Liquid mixture 1); method: Standard Abbe refractometry
Temperature, K	Refractive index (other wavelength)	uncertainty
290.349	1.4446	0.0004
292.947	1.4436	0.0004
294.517	1.443	0.0004
296.094	1.4424	0.0004
297.433	1.4416	0.0004
298.671	1.441	0.0004
299.609	1.4406	0.0004
300.631	1.4402	0.0004
301.615	1.4397	0.0004
302.478	1.4392	0.0004
303.338	1.4387	0.0004
304.236	1.4382	0.0004
304.915	1.4376	0.0004
305.626	1.4371	0.0004
306.233	1.4367	0.0004
306.77	1.4363	0.0004
307.34	1.4357	0.0004
307.752	1.4353	0.0004
308.14	1.4348	0.0004
308.401	1.4345	0.0004
308.626	1.4342	0.0004
308.8	1.434	0.0004
308.923	1.4337	0.0004
309.028	1.4335	0.0004
309.123	1.4334	0.0004
309.215	1.4332	0.0004
309.295	1.4329	0.0004
309.387	1.4325	0.0004
309.456	1.4323	0.0004
309.501	1.4321	0.0004
309.54	1.4319	0.0004
309.558	1.4318	0.0004
309.58	1.4315	0.0004
309.609	1.431	0.0004

System: 1,4-butanediol + 1-butyl-3-methylimidazolium tetrafluoroborate; phases: Liquid mixture 2, Liquid mixture 1
Fixed: Pressure, kPa = 101
Fixed: Wavelength, nm = 632.8
Property: Refractive index (other wavelength) (Liquid mixture 2); method: Standard Abbe refractometry
Temperature, K	Refractive index (other wavelength)	uncertainty
290.349	1.4253	0.0004
292.947	1.4252	0.0004
294.517	1.4251	0.0004
296.094	1.425	0.0004
297.433	1.4249	0.0004
298.671	1.4248	0.0004
299.609	1.4248	0.0004
300.631	1.4248	0.0004
301.615	1.4248	0.0004
302.478	1.4248	0.0004
303.338	1.4249	0.0004
304.236	1.425	0.0004
304.915	1.4251	0.0004
305.626	1.4252	0.0004
306.233	1.4254	0.0004
306.77	1.4256	0.0004
307.34	1.4258	0.0004
307.752	1.426	0.0004
308.14	1.4262	0.0004
308.401	1.4263	0.0004
308.626	1.4266	0.0004
308.8	1.4268	0.0004
308.923	1.427	0.0004
309.028	1.4271	0.0004
309.123	1.4273	0.0004
309.215	1.4274	0.0004
309.295	1.4276	0.0004
309.387	1.4278	0.0004
309.456	1.4281	0.0004
309.501	1.4283	0.0004
309.54	1.4285	0.0004
309.558	1.4287	0.0004
309.58	1.4289	0.0004
309.609	1.4294	0.0004

System: 1,4-butanediol + 1-butyl-3-methylimidazolium tetrafluoroborate; phases: Liquid mixture 1, Liquid mixture 2
Fixed: Pressure, kPa = 101
Property: Mole fraction of 1-butyl-3-methylimidazolium tetrafluoroborate (Liquid mixture 1); method: derived from calibration curve
Temperature, K	Mole fraction of 1-butyl-3-methylimidazolium tetrafluoroborate	uncertainty
290.349	0.022	0.006
292.947	0.028	0.006
294.517	0.031	0.006
296.094	0.035	0.006
297.433	0.044	0.006
298.671	0.049	0.006
299.609	0.052	0.006
300.631	0.055	0.006
301.615	0.06	0.006
302.478	0.065	0.006
303.338	0.071	0.006
304.236	0.078	0.006
304.915	0.087	0.006
305.626	0.094	0.006
306.233	0.099	0.006
306.77	0.106	0.006
307.34	0.117	0.006
307.752	0.124	0.006
308.14	0.134	0.006
308.401	0.137	0.006
308.626	0.146	0.006
308.8	0.15	0.006
308.923	0.157	0.006
309.028	0.161	0.006
309.123	0.164	0.006
309.215	0.169	0.006
309.295	0.177	0.006
309.387	0.185	0.006
309.456	0.192	0.006
309.501	0.197	0.006
309.54	0.203	0.006
309.558	0.206	0.006
309.58	0.215	0.006
309.609	0.23	0.006

System: 1,4-butanediol + 1-butyl-3-methylimidazolium tetrafluoroborate; phases: Liquid mixture 2, Liquid mixture 1
Fixed: Pressure, kPa = 101
Property: Mole fraction of 1-butyl-3-methylimidazolium tetrafluoroborate (Liquid mixture 2); method: derived from calibration curve
Temperature, K	Mole fraction of 1-butyl-3-methylimidazolium tetrafluoroborate	uncertainty
290.349	0.722	0.006
292.947	0.684	0.006
294.517	0.662	0.006
296.094	0.641	0.006
297.433	0.625	0.006
298.671	0.611	0.006
299.609	0.596	0.006
300.631	0.58	0.006
301.615	0.565	0.006
302.478	0.553	0.006
303.338	0.536	0.006
304.236	0.519	0.006
304.915	0.504	0.006
305.626	0.49	0.006
306.233	0.473	0.006
306.77	0.458	0.006
307.34	0.442	0.006
307.752	0.429	0.006
308.14	0.416	0.006
308.401	0.406	0.006
308.626	0.394	0.006
308.8	0.384	0.006
308.923	0.375	0.006
309.028	0.368	0.006
309.123	0.361	0.006
309.215	0.357	0.006
309.295	0.348	0.006
309.387	0.338	0.006
309.456	0.328	0.006
309.501	0.321	0.006
309.54	0.313	0.006
309.558	0.306	0.006
309.58	0.299	0.006
309.609	0.282	0.006

System: 1,4-butanediol + 1-butyl-3-methylimidazolium tetrafluoroborate; phases: Liquid
Fixed: Pressure, kPa = 101
Fixed: Wavelength, nm = 632.8
Property: Refractive index (other wavelength) (Liquid); method: Standard Abbe refractometry
Mass fraction of 1-butyl-3-methylimidazolium tetrafluoroborate	Temperature, K	Refractive index (other wavelength)	uncertainty
0.094	306.251	1.4367	0.0004
0.094	307.203	1.4364	0.0004
0.094	308.24	1.4361	0.0004
0.094	309.231	1.4358	0.0004
0.094	310.169	1.4355	0.0004
0.094	312.271	1.4349	0.0004
0.094	314.325	1.4343	0.0004
0.19	309.545	1.4322	0.0004
0.19	311.248	1.4317	0.0004
0.19	312.778	1.4312	0.0004
0.19	314.291	1.4308	0.0004
0.19	316.135	1.4302	0.0004
0.19	317.296	1.4299	0.0004
0.286	309.877	1.4289	0.0004
0.286	311.224	1.4285	0.0004
0.286	312.995	1.4279	0.0004
0.286	314.394	1.4275	0.0004
0.286	315.792	1.4271	0.0004
0.286	317.348	1.4266	0.0004
0.381	309.264	1.4264	0.0004
0.381	310.639	1.426	0.0004
0.381	312.315	1.4255	0.0004
0.381	313.793	1.4251	0.0004
0.381	315.655	1.4246	0.0004
0.381	317.383	1.4241	0.0004
0.484	306.699	1.4247	0.0004
0.484	308.217	1.4243	0.0004
0.484	309.725	1.4238	0.0004
0.484	311.331	1.4234	0.0004
0.484	312.876	1.4229	0.0004
0.484	314.312	1.4225	0.0004
0.579	304.22	1.4237	0.0004
0.579	306.241	1.4231	0.0004
0.579	308.275	1.4225	0.0004
0.579	310.223	1.422	0.0004
0.579	312.195	1.4214	0.0004
0.579	314.294	1.4208	0.0004
0.686	303.255	1.4223	0.0004
0.686	305.261	1.4218	0.0004
0.686	307.292	1.4212	0.0004
0.686	309.202	1.4207	0.0004
0.686	311.217	1.4202	0.0004
0.686	313.283	1.4196	0.0004
0.786	301.241	1.4216	0.0004
0.786	303.162	1.4211	0.0004
0.786	304.235	1.4208	0.0004
0.786	307.212	1.42	0.0004
0.786	309.241	1.4195	0.0004
0.786	311.854	1.4188	0.0004
0.894	296.244	1.4221	0.0004
0.894	298.195	1.4216	0.0004
0.894	300.129	1.4211	0.0004
0.894	302.155	1.4206	0.0004
0.894	304.141	1.42	0.0004
0.894	306.686	1.4194	0.0004

System: propan-1,3-diol + 1-butyl-3-methylimidazolium tetrafluoroborate; phases: Liquid mixture 2, Liquid mixture 1
Fixed: Pressure, kPa = 101
Fixed: Wavelength, nm = 632.8
Property: Refractive index (other wavelength) (Liquid mixture 2); method: Standard Abbe refractometry
Temperature, K	Refractive index (other wavelength)	uncertainty
281.275	1.4258	0.0004
283.268	1.4256	0.0004
285.441	1.4253	0.0004
287.215	1.425	0.0004
289.171	1.4248	0.0004
291.346	1.4246	0.0004
292.361	1.4245	0.0004
293.46	1.4245	0.0004
294.187	1.4245	0.0004
294.915	1.4245	0.0004
295.303	1.4245	0.0004
295.691	1.4245	0.0004
296.081	1.4246	0.0004
296.49	1.4246	0.0004
296.883	1.4247	0.0004
297.22	1.4248	0.0004
297.472	1.4249	0.0004
297.725	1.425	0.0004
297.976	1.4251	0.0004
298.16	1.4252	0.0004
298.365	1.4253	0.0004
298.547	1.4254	0.0004
298.679	1.4255	0.0004
298.782	1.4256	0.0004
298.87	1.4257	0.0004
298.957	1.4258	0.0004
299.078	1.426	0.0004
299.186	1.4262	0.0004
299.238	1.4263	0.0004
299.287	1.4264	0.0004
299.321	1.4265	0.0004
299.353	1.4267	0.0004
299.385	1.427	0.0004
299.397	1.4273	0.0004

System: propan-1,3-diol + 1-butyl-3-methylimidazolium tetrafluoroborate; phases: Liquid mixture 1, Liquid mixture 2
Fixed: Pressure, kPa = 101
Fixed: Wavelength, nm = 632.8
Property: Refractive index (other wavelength) (Liquid mixture 1); method: Standard Abbe refractometry
Temperature, K	Refractive index (other wavelength)	uncertainty
281.275	1.4394	0.0004
283.268	1.4389	0.0004
285.441	1.4382	0.0004
287.215	1.4375	0.0004
289.171	1.4368	0.0004
291.346	1.4359	0.0004
292.361	1.4355	0.0004
293.46	1.4348	0.0004
294.187	1.4344	0.0004
294.915	1.434	0.0004
295.303	1.4337	0.0004
295.691	1.4335	0.0004
296.081	1.4332	0.0004
296.49	1.433	0.0004
296.883	1.4327	0.0004
297.22	1.4325	0.0004
297.472	1.4323	0.0004
297.725	1.4321	0.0004
297.976	1.4318	0.0004
298.16	1.4316	0.0004
298.365	1.4313	0.0004
298.547	1.4311	0.0004
298.679	1.4309	0.0004
298.782	1.4307	0.0004
298.87	1.4306	0.0004
298.957	1.4304	0.0004
299.078	1.4302	0.0004
299.186	1.4299	0.0004
299.238	1.4297	0.0004
299.287	1.4294	0.0004
299.321	1.4293	0.0004
299.353	1.4289	0.0004
299.385	1.4286	0.0004
299.397	1.4284	0.0004

System: propan-1,3-diol + 1-butyl-3-methylimidazolium tetrafluoroborate; phases: Liquid mixture 1, Liquid mixture 2
Fixed: Pressure, kPa = 101
Property: Mole fraction of 1-butyl-3-methylimidazolium tetrafluoroborate (Liquid mixture 1); method: derived from calibration curve
Temperature, K	Mole fraction of 1-butyl-3-methylimidazolium tetrafluoroborate	uncertainty
281.275	0.037	0.004
283.268	0.039	0.004
285.441	0.041	0.004
287.215	0.047	0.004
289.171	0.051	0.004
291.346	0.058	0.004
292.361	0.061	0.004
293.46	0.071	0.004
294.187	0.076	0.004
294.915	0.082	0.004
295.303	0.087	0.004
295.691	0.089	0.004
296.081	0.094	0.004
296.49	0.097	0.004
296.883	0.102	0.004
297.22	0.105	0.004
297.472	0.109	0.004
297.725	0.112	0.004
297.976	0.119	0.004
298.16	0.123	0.004
298.365	0.13	0.004
298.547	0.135	0.004
298.679	0.139	0.004
298.782	0.145	0.004
298.87	0.147	0.004
298.957	0.152	0.004
299.078	0.158	0.004
299.186	0.166	0.004
299.238	0.172	0.004
299.287	0.182	0.004
299.321	0.185	0.004
299.353	0.199	0.004
299.385	0.209	0.004
299.397	0.216	0.004

System: propan-1,3-diol + 1-butyl-3-methylimidazolium tetrafluoroborate; phases: Liquid mixture 2, Liquid mixture 1
Fixed: Pressure, kPa = 101
Property: Mole fraction of 1-butyl-3-methylimidazolium tetrafluoroborate (Liquid mixture 2); method: derived from calibration curve
Temperature, K	Mole fraction of 1-butyl-3-methylimidazolium tetrafluoroborate	uncertainty
281.275	0.642	0.006
283.268	0.627	0.006
285.441	0.6	0.006
287.215	0.585	0.006
289.171	0.557	0.006
291.346	0.527	0.006
292.361	0.514	0.006
293.46	0.493	0.006
294.187	0.479	0.006
294.915	0.466	0.006
295.303	0.459	0.006
295.691	0.452	0.006
296.081	0.439	0.006
296.49	0.433	0.006
296.883	0.42	0.006
297.22	0.409	0.006
297.472	0.399	0.006
297.725	0.39	0.006
297.976	0.38	0.006
298.16	0.372	0.006
298.365	0.364	0.006
298.547	0.356	0.006
298.679	0.349	0.006
298.782	0.343	0.006
298.87	0.337	0.006
298.957	0.331	0.006
299.078	0.32	0.006
299.186	0.309	0.006
299.238	0.304	0.006
299.287	0.299	0.006
299.321	0.294	0.006
299.353	0.284	0.006
299.385	0.271	0.006
299.397	0.259	0.006

System: propan-1,3-diol + 1-butyl-3-methylimidazolium tetrafluoroborate; phases: Liquid
Fixed: Pressure, kPa = 101
Fixed: Wavelength, nm = 632.8
Property: Refractive index (other wavelength) (Liquid); method: Standard Abbe refractometry
Mass fraction of 1-butyl-3-methylimidazolium tetrafluoroborate	Temperature, K	Refractive index (other wavelength)	uncertainty
0.0947	297.159	1.4328	0.0004
0.0947	298.494	1.4325	0.0004
0.0947	300.002	1.4321	0.0005
0.0947	301.525	1.4317	0.0005
0.0947	303.058	1.4313	0.0004
0.0947	305.125	1.4308	0.0004
0.194	299.596	1.4289	0.0006
0.194	301.079	1.4285	0.0004
0.194	302.17	1.4282	0.0006
0.194	304.128	1.4276	0.0005
0.194	305.507	1.4272	0.0005
0.194	307.323	1.4267	0.0005
0.299	299.537	1.4263	0.0005
0.299	301.401	1.4258	0.0005
0.299	303.548	1.4252	0.0005
0.299	305.296	1.4247	0.0005
0.299	307.428	1.4241	0.0005
0.299	309.076	1.4236	0.0005
0.384	299.507	1.4245	0.0005
0.384	301.217	1.424	0.0005
0.384	303.53	1.4234	0.0005
0.384	305.284	1.4229	0.0005
0.384	307.445	1.4223	0.0005
0.384	308.963	1.4219	0.0005
0.513	296.024	1.4235	0.0007
0.513	298.139	1.4229	0.0005
0.513	300	1.4224	0.0005
0.513	302.018	1.4218	0.0005
0.513	304.012	1.4212	0.0005
0.513	304.933	1.4209	0.0005
0.602	290.78	1.4239	0.0005
0.602	293.294	1.4232	0.0005
0.602	295.08	1.4227	0.0005
0.602	296.977	1.4222	0.0005
0.602	298.984	1.4217	0.0005
0.602	301.098	1.4211	0.0004
0.698	286.796	1.424	0.0005
0.698	289.365	1.4234	0.0005
0.698	291.204	1.4229	0.0005
0.698	293.301	1.4223	0.0005
0.698	294.937	1.4219	0.0005
0.698	297.936	1.4211	0.0005
0.796	286.808	1.4233	0.0005
0.796	288.867	1.4228	0.0005
0.796	290.857	1.4223	0.0005
0.796	292.889	1.4218	0.0005
0.796	295.857	1.4211	0.0005
0.796	297.963	1.4206	0.0005
0.901	287.242	1.4228	0.0005
0.901	288.877	1.4224	0.0005
0.901	290.999	1.4219	0.0005
0.901	292.949	1.4214	0.0005
0.901	294.987	1.4209	0.0005
0.901	297.004	1.4204	0.0005
0.901	299.997	1.4196	0.0005
