Measured thermophysical data. Solubilities of Triadimefon in Acetone + Water from (278.15 to 333.15) K
Source: J. Chem. Eng. Data, 2009, 10.1021/je900045z
Compound 1: 1-(4-chlorophenoxy)-3,3-dimethyl-1-(1H-1,2,4-triazol-1-yl)-2-butanone, C14H16ClN3O2, InChI=1S/C14H16ClN3O2/c1-14(2,3)12(19)13(18-9-16-8-17-18)20-11-6-4-10(15)5-7-11/h4-9,13H,1-3H3, purity 95%
Compound 2: acetone, C3H6O, InChI=1S/C3H6O/c1-3(2)4/h1-2H3, purity 99%
Compound 3: water, H2O, InChI=1S/H2O/h1H2

System: acetone + water + 1-(4-chlorophenoxy)-3,3-dimethyl-1-(1H-1,2,4-triazol-1-yl)-2-butanone; phases: Liquid, Crystal
Fixed: Pressure, kPa = 101
Property: Mole fraction of 1-(4-chlorophenoxy)-3,3-dimethyl-1-(1H-1,2,4-triazol-1-yl)-2-butanone (Liquid); method: laser beam
Temperature, K	Solvent: Mass fraction of water	Mole fraction of 1-(4-chlorophenoxy)-3,3-dimethyl-1-(1H-1,2,4-triazol-1-yl)-2-butanone	uncertainty
278.15	0.1	0.105988	0.004417
278.15	0.2	0.066177	0.002702
278.15	0.3	0.032397	0.001316
278.15	0.4	0.0099	0.000421
278.15	0.5	0.002693	0.000118
278.15	0.6	0.000532	2.8e-05
278.15	0.7	7.2e-05	5e-06
278.15	0.8	7e-06	1e-06
278.15	0.9	3e-07	1e-07
283.15	0.1	0.123423	0.005164
283.15	0.2	0.071003	0.002906
283.15	0.3	0.034906	0.001421
283.15	0.4	0.011767	0.000481
283.15	0.5	0.003253	0.000134
283.15	0.6	0.000653	2.7e-05
283.15	0.7	0.000103	4e-06
283.15	0.8	1.1e-05	1e-06
283.15	0.9	6e-07	1e-07
288.15	0.1	0.143648	0.006064
288.15	0.2	0.076094	0.003117
288.15	0.3	0.037233	0.001515
288.15	0.4	0.01308	0.000534
288.15	0.5	0.003816	0.000157
288.15	0.6	0.000853	3.5e-05
288.15	0.7	0.000148	6e-06
288.15	0.8	1.6e-05	1e-06
288.15	0.9	1e-06	1e-06
293.15	0.1	0.167415	0.007182
293.15	0.2	0.08146	0.00334
293.15	0.3	0.039309	0.001599
293.15	0.4	0.014944	0.000609
293.15	0.5	0.004496	0.000183
293.15	0.6	0.001006	4.1e-05
293.15	0.7	0.000182	8e-06
293.15	0.8	2.1e-05	1e-06
293.15	0.9	2e-06	1e-06
298.15	0.1	0.195241	0.008655
298.15	0.2	0.087111	0.003575
298.15	0.3	0.041207	0.001677
298.15	0.4	0.016366	0.000665
298.15	0.5	0.004893	0.000199
298.15	0.6	0.001182	4.8e-05
298.15	0.7	0.000247	1e-05
298.15	0.8	2.9e-05	1e-06
298.15	0.9	3e-06	1e-06
303.15	0.1	0.22778	0.011016
303.15	0.2	0.093058	0.003824
303.15	0.3	0.042875	0.001744
303.15	0.4	0.017348	0.000705
303.15	0.5	0.005566	0.000226
303.15	0.6	0.001372	5.6e-05
303.15	0.7	0.000326	1.4e-05
303.15	0.8	4e-05	1e-05
303.15	0.9	5e-06	1e-06
308.15	0.1	0.265799	0.018758
308.15	0.2	0.099311	0.004088
308.15	0.3	0.044131	0.001795
308.15	0.4	0.018602	0.000756
308.15	0.5	0.005755	0.000233
308.15	0.6	0.00159	6.5e-05
308.15	0.7	0.0004	1.6e-05
308.15	0.8	5.7e-05	2e-06
308.15	0.9	7e-06	1e-06
313.15	0.1	0.310321	0.050893
313.15	0.2	0.10588	0.004365
313.15	0.3	0.045144	0.001836
313.15	0.4	0.019644	0.000798
313.15	0.5	0.006006	0.000244
313.15	0.6	0.001719	7e-05
313.15	0.7	0.000454	1.9e-05
313.15	0.8	7.4e-05	3e-06
313.15	0.9	1.2e-05	1e-06
318.15	0.1	0.362446	0.018
318.15	0.2	0.11278	0.004659
318.15	0.3	0.046005	0.001871
318.15	0.4	0.020509	0.000832
318.15	0.5	0.006332	0.000257
318.15	0.6	0.00183	7.4e-05
318.15	0.7	0.000517	2.1e-05
318.15	0.8	0.000105	4e-06
318.15	0.9	1.7e-05	1e-06
323.15	0.1	0.423454	0.018252
323.15	0.2	0.12002	0.00497
323.15	0.3	0.046428	0.001889
323.15	0.4	0.021183	0.000859
323.15	0.5	0.006719	0.000273
323.15	0.6	0.001925	7.8e-05
323.15	0.7	0.000588	2.4e-05
323.15	0.8	0.000136	6e-06
323.15	0.9	2.3e-05	1e-06
328.15	0.1	0.494832	0.02057
328.15	0.2	0.1276	0.005299
328.15	0.3	0.046585	0.001895
328.15	0.4	0.02166	0.000879
328.15	0.5	0.007075	0.000287
328.15	0.6	0.002036	8.3e-05
328.15	0.7	0.000662	2.7e-05
328.15	0.8	0.000189	8e-06
328.15	0.9	3.6e-05	2e-06
333.15	0.1	0.578315	0.023684
333.15	0.2	0.135551	0.007559
333.15	0.3	0.04649	0.002076
333.15	0.4	0.021939	0.000901
333.15	0.5	0.007277	0.000324
333.15	0.6	0.002128	0.000102
333.15	0.7	0.000742	3.4e-05
333.15	0.8	0.000274	1.3e-05
333.15	0.9	5.1e-05	2e-06
