Measured thermophysical data. Liquid-Liquid Equilibria, Density, Viscosity, and Surface and Interfacial Tension of the System Water + n-Butyl Acetate + 1-Propanol at 323.15 K and Atmospheric Pressure
Source: J. Chem. Eng. Data, 2009, 10.1021/je900337a
Compound 1: water, H2O, InChI=1S/H2O/h1H2
Compound 2: butyl ethanoate, C6H12O2, InChI=1S/C6H12O2/c1-3-4-5-8-6(2)7/h3-5H2,1-2H3, purity 99.5%
Compound 3: propan-1-ol, C3H8O, InChI=1S/C3H8O/c1-2-3-4/h4H,2-3H2,1H3, purity 99.5%

System: water; phases: Liquid, Gas
Property: Surface tension liquid-gas, N/m (Liquid); method: ring detachment method
Temperature, K	Surface tension liquid-gas, N/m	uncertainty
323.15	0.06838	4e-05

System: butyl ethanoate; phases: Liquid
Property: Mass density, kg/m3 (Liquid); method: VIBTUB:UFactor:4
Temperature, K	Pressure, kPa	Mass density, kg/m3	uncertainty
323.15	101.325	849.75	0.4

System: butyl ethanoate; phases: Liquid, Gas
Property: Surface tension liquid-gas, N/m (Liquid); method: Ring tensiometer
Temperature, K	Surface tension liquid-gas, N/m	uncertainty
323.15	0.02212	6e-05

System: butyl ethanoate; phases: Liquid
Property: Viscosity, Pa*s (Liquid); method: Capillary tube (Ostwald; Ubbelohde) method
Temperature, K	Pressure, kPa	Viscosity, Pa*s	uncertainty
323.15	101.325	0.000502	4e-06

System: propan-1-ol; phases: Liquid
Property: Mass density, kg/m3 (Liquid); method: VIBTUB:UFactor:4
Temperature, K	Pressure, kPa	Mass density, kg/m3	uncertainty
323.15	101.325	779.3	0.51

System: propan-1-ol; phases: Liquid, Gas
Property: Surface tension liquid-gas, N/m (Liquid); method: Ring tensiometer
Temperature, K	Surface tension liquid-gas, N/m	uncertainty
323.15	0.02136	6e-05

System: propan-1-ol; phases: Liquid
Property: Viscosity, Pa*s (Liquid); method: Capillary tube (Ostwald; Ubbelohde) method
Temperature, K	Pressure, kPa	Viscosity, Pa*s	uncertainty
323.15	101.325	0.001115	7e-06

System: butyl ethanoate + water; phases: Liquid mixture 1, Liquid mixture 2
Property: Interfacial tension, N/m (Liquid mixture 1); method: Ring tensiometer
Mole fraction of water	Temperature, K	Interfacial tension, N/m	uncertainty
0.9998	323.15	0.0142	0.0003

System: butyl ethanoate + water; phases: Liquid, Air at 1 atmosphere
Fixed: Temperature, K = 323.15
Property: Surface tension liquid-gas, N/m (Liquid); method: Ring tensiometer
Mole fraction of water	Surface tension liquid-gas, N/m	uncertainty
0.02	0.02214	0.00034
0.04	0.02217	0.00034
0.06	0.0222	0.00034
0.08	0.02225	0.00034

System: butyl ethanoate + water; phases: Liquid mixture 2, Air at 1 atmosphere
Property: Surface tension liquid-gas, N/m (Liquid mixture 2); method: Ring tensiometer
Mole fraction of water	Temperature, K	Surface tension liquid-gas, N/m	uncertainty
0.1305	323.15	0.02174	0.00043

System: butyl ethanoate + water; phases: Liquid mixture 2, Liquid mixture 1
Fixed: Pressure, kPa = 101
Fixed: Temperature, K = 323.15
Property: Mole fraction of water (Liquid mixture 2); method: Titration method
Mole fraction of water	uncertainty
0.121	0.0048
0.1305	0.0048

System: butyl ethanoate + water; phases: Liquid mixture 1, Liquid mixture 2
Property: Mole fraction of water (Liquid mixture 1); method: Chromatography
Temperature, K	Pressure, kPa	Mole fraction of water	uncertainty
323.15	101	0.9998	0.0002

System: butyl ethanoate + water; phases: Liquid
Fixed: Pressure, kPa = 101
Fixed: Temperature, K = 323.15
Property: Viscosity, Pa*s (Liquid); method: Capillary tube (Ostwald; Ubbelohde) method
Mole fraction of water	Viscosity, Pa*s	uncertainty
0.02	0.000503	4e-06
0.04	0.000504	4e-06
0.06	0.000506	4e-06
0.08	0.000507	4e-06

System: butyl ethanoate + water; phases: Liquid
Fixed: Pressure, kPa = 101
Fixed: Temperature, K = 323.15
Property: Mass density, kg/m3 (Liquid); method: VIBTUB:UFactor:4
Mole fraction of water	Mass density, kg/m3	uncertainty
0.02	850.18	0.4
0.04	850.62	0.39
0.06	851.07	0.39
0.08	851.57	0.39

System: propan-1-ol + water; phases: Liquid, Air at 1 atmosphere
Fixed: Temperature, K = 323.15
Property: Surface tension liquid-gas, N/m (Liquid); method: Ring tensiometer
Mole fraction of water	Surface tension liquid-gas, N/m	uncertainty
0.05	0.02155	0.00033
0.1	0.02168	0.00033
0.2	0.02193	0.00034
0.3	0.02229	0.00034
0.4	0.02268	0.00034
0.5	0.02306	0.00035
0.6	0.02342	0.00035
0.7	0.02365	0.00035
0.8	0.02412	0.00036
0.9	0.02527	0.00037
0.92	0.02637	0.00039
0.95	0.02958	0.00043
0.98	0.04444	0.0006

System: propan-1-ol + water; phases: Liquid
Fixed: Pressure, kPa = 101
Fixed: Temperature, K = 323.15
Property: Viscosity, Pa*s (Liquid); method: Capillary tube (Ostwald; Ubbelohde) method
Mole fraction of water	Viscosity, Pa*s	uncertainty
0.05	0.001121	7e-06
0.1	0.001127	7e-06
0.2	0.00115	7e-06
0.3	0.00118	8e-06
0.4	0.001219	8e-06
0.5	0.00126	8e-06
0.6	0.001291	8e-06
0.7	0.001305	8e-06
0.8	0.001256	8e-06
0.9	0.001036	6e-06
0.95	0.000827	5e-06

System: propan-1-ol + water; phases: Liquid
Fixed: Pressure, kPa = 101
Fixed: Temperature, K = 323.15
Property: Mass density, kg/m3 (Liquid); method: VIBTUB:UFactor:4
Mole fraction of water	Mass density, kg/m3	uncertainty
0.05	782.94	0.49
0.1	786.61	0.49
0.2	794.62	0.47
0.3	803.64	0.45
0.4	814.4	0.43
0.5	827.68	0.41
0.6	844.41	0.38
0.7	865.87	0.35
0.8	894.61	0.31
0.9	935.04	0.25
0.95	959.71	0.22

System: propan-1-ol + butyl ethanoate; phases: Liquid, Air at 1 atmosphere
Fixed: Temperature, K = 323.15
Property: Surface tension liquid-gas, N/m (Liquid); method: Ring tensiometer
Mole fraction of butyl ethanoate	Surface tension liquid-gas, N/m	uncertainty
0.1	0.02156	0.00033
0.2	0.02172	0.00033
0.3	0.02184	0.00034
0.4	0.02197	0.00034
0.5	0.02205	0.00034
0.6	0.02212	0.00034
0.7	0.02217	0.00034
0.8	0.0222	0.00034
0.9	0.02218	0.00034

System: propan-1-ol + butyl ethanoate; phases: Liquid
Fixed: Pressure, kPa = 101
Fixed: Temperature, K = 323.15
Property: Viscosity, Pa*s (Liquid); method: Capillary tube (Ostwald; Ubbelohde) method
Mole fraction of butyl ethanoate	Viscosity, Pa*s	uncertainty
0.1	0.000879	6e-06
0.2	0.000747	5e-06
0.3	0.000662	5e-06
0.4	0.000604	4e-06
0.5	0.000566	4e-06
0.6	0.000538	4e-06
0.7	0.000521	4e-06
0.8	0.000508	4e-06
0.9	0.000502	4e-06

System: propan-1-ol + butyl ethanoate; phases: Liquid
Fixed: Pressure, kPa = 101
Fixed: Temperature, K = 323.15
Property: Mass density, kg/m3 (Liquid); method: VIBTUB:UFactor:4
Mole fraction of butyl ethanoate	Mass density, kg/m3	uncertainty
0.1	790.07	0.48
0.2	799.51	0.47
0.3	807.87	0.46
0.4	815.42	0.45
0.5	822.21	0.44
0.6	828.46	0.43
0.7	834.3	0.42
0.8	839.71	0.41
0.9	844.84	0.4

System: propan-1-ol + butyl ethanoate + water; phases: Liquid mixture 2, Liquid mixture 1
Fixed: Pressure, kPa = 101
Fixed: Temperature, K = 323.15
Property: Mole fraction of water (Liquid mixture 2); method: Titration method
Mole fraction of butyl ethanoate	Mole fraction of water	uncertainty
0.0008	0.9899	0.0101
0.0008	0.9811	0.0096
0.0012	0.9568	0.0109
0.0029	0.9402	0.0235
0.0029	0.9396	0.0232
0.0044	0.9256	0.0288
0.0064	0.9111	0.0355
0.0079	0.8965	0.042
0.0097	0.8855	0.0388
0.0118	0.8775	0.0374
0.012	0.8768	0.0374
0.015	0.8605	0.0321
0.0152	0.8544	0.0319
0.0197	0.831	0.0331
0.0266	0.7981	0.0285
0.0346	0.763	0.0255
0.046	0.7211	0.0229
0.0611	0.6743	0.0202
0.0824	0.6266	0.0188
0.1048	0.5911	0.0188
0.1208	0.5671	0.0192
0.1234	0.5626	0.0194
0.1244	0.5623	0.0194
0.1485	0.53	0.0202
0.1786	0.4946	0.0208
0.211	0.4621	0.0194
0.2434	0.4322	0.0181
0.2728	0.4086	0.017
0.3321	0.3626	0.0152
0.3349	0.3601	0.0151
0.3956	0.3178	0.0132
0.4687	0.2797	0.0116
0.5197	0.2515	0.0105
0.6204	0.2052	0.0087
0.6499	0.1919	0.0081
0.7187	0.1613	0.0069
0.7636	0.1464	0.0062
0.7938	0.1366	0.0062
0.8155	0.1204	0.005
0.8207	0.1289	0.0053
0.8555	0.122	0.005
0.879	0.121	0.0048

System: propan-1-ol + butyl ethanoate + water; phases: Liquid mixture 1, Liquid mixture 2
Fixed: Temperature, K = 323.15
Property: Interfacial tension, N/m (Liquid mixture 1); method: Ring tensiometer
Mole fraction of water	Mole fraction of propan-1-ol	Interfacial tension, N/m	uncertainty
0.958	0.041	0	0.0001
0.9643	0.0349	0.0028	0.0001
0.9757	0.0238	0.0054	0.0002
0.9842	0.0154	0.0073	0.0002
0.9998	0	0.0142	0.0003

System: propan-1-ol + butyl ethanoate + water; phases: Liquid mixture 2, Air at 1 atmosphere
Fixed: Temperature, K = 323.15
Property: Surface tension liquid-gas, N/m (Liquid mixture 2); method: Ring tensiometer
Mole fraction of water	Mole fraction of propan-1-ol	Surface tension liquid-gas, N/m	uncertainty
0.1305	0	0.02174	0.00043
0.2009	0.1664	0.0224	0.00044
0.2769	0.2593	0.02221	0.00044
0.4117	0.3279	0.02243	0.00044
0.4889	0.3363	0.02256	0.00044

System: propan-1-ol + butyl ethanoate + water; phases: Liquid, Air at 1 atmosphere
Fixed: Temperature, K = 323.15
Property: Surface tension liquid-gas, N/m (Liquid); method: Ring tensiometer
Mole fraction of water	Mole fraction of butyl ethanoate	Surface tension liquid-gas, N/m	uncertainty
0	0.1	0.02156	0.00033
0	0.2	0.02172	0.00033
0	0.3	0.02184	0.00034
0	0.4	0.02197	0.00034
0	0.5	0.02205	0.00034
0	0.6	0.02212	0.00034
0	0.7	0.02217	0.00034
0	0.8	0.0222	0.00034
0	0.9	0.02218	0.00034
0.01	0.9	0.02213	0.00034
0.02	0.8	0.02212	0.00034
0.02	0.98	0.02214	0.00034
0.03	0.9	0.02226	0.00034
0.04	0.6	0.02211	0.00034
0.04	0.96	0.02217	0.00034
0.05	0	0.02155	0.00033
0.05	0.9	0.02236	0.00034
0.06	0.4	0.02197	0.00034
0.06	0.7	0.02218	0.00034
0.06	0.8	0.02231	0.00034
0.06	0.94	0.0222	0.00034
0.08	0.2	0.02187	0.00034
0.08	0.92	0.02225	0.00034
0.09	0.1	0.0218	0.00033
0.1	0	0.02168	0.00033
0.1	0.5	0.02219	0.00034
0.1	0.8	0.02245	0.00034
0.12	0.6	0.02234	0.00034
0.12	0.7	0.02241	0.00034
0.14	0.3	0.02216	0.00034
0.18	0.1	0.02209	0.00034
0.18	0.4	0.02236	0.00034
0.2	0	0.02193	0.00034
0.2	0.5	0.02255	0.00034
0.2	0.6	0.02254	0.00034
0.24	0.2	0.02236	0.00034
0.28	0.3	0.02263	0.00034
0.3	0	0.02229	0.00034
0.3	0.4	0.02269	0.00034
0.36	0.1	0.02268	0.00034
0.4	0	0.02268	0.00034
0.4	0.2	0.02284	0.00035
0.45	0.1	0.02296	0.00035
0.5	0	0.02306	0.00035
0.51	0.15	0.023	0.00035
0.57	0.05	0.02309	0.00035
0.6	0	0.02342	0.00035
0.665	0.05	0.02313	0.00035
0.7	0	0.02365	0.00035
0.78	0.025	0.0235	0.00035
0.8	0	0.02412	0.00036
0.9	0	0.02527	0.00037
0.92	0	0.02637	0.00039
0.95	0	0.02958	0.00043
0.98	0	0.04444	0.0006

System: propan-1-ol + butyl ethanoate + water; phases: Liquid
Fixed: Pressure, kPa = 101
Fixed: Temperature, K = 323.15
Property: Viscosity, Pa*s (Liquid); method: Capillary tube (Ostwald; Ubbelohde) method
Mole fraction of water	Mole fraction of butyl ethanoate	Viscosity, Pa*s	uncertainty
0	0.1	0.000879	6e-06
0	0.2	0.000747	5e-06
0	0.3	0.000662	5e-06
0	0.4	0.000604	4e-06
0	0.5	0.000566	4e-06
0	0.6	0.000538	4e-06
0	0.7	0.000521	4e-06
0	0.8	0.000508	4e-06
0	0.9	0.000502	4e-06
0.01	0.9	0.000503	4e-06
0.02	0.8	0.000511	4e-06
0.02	0.98	0.000503	4e-06
0.03	0.9	0.000505	4e-06
0.04	0.6	0.000545	4e-06
0.04	0.96	0.000504	4e-06
0.05	0	0.001121	7e-06
0.05	0.9	0.000507	4e-06
0.06	0.4	0.000617	5e-06
0.06	0.7	0.000522	4e-06
0.06	0.8	0.000514	4e-06
0.06	0.94	0.000506	4e-06
0.08	0.2	0.000767	5e-06
0.08	0.92	0.000507	4e-06
0.09	0.1	0.000906	6e-06
0.1	0	0.001127	7e-06
0.1	0.5	0.000582	4e-06
0.1	0.8	0.000519	4e-06
0.12	0.6	0.000557	4e-06
0.12	0.7	0.000536	4e-06
0.14	0.3	0.000693	5e-06
0.18	0.1	0.000927	6e-06
0.18	0.4	0.000641	5e-06
0.2	0	0.00115	7e-06
0.2	0.5	0.0006	4e-06
0.2	0.6	0.000569	4e-06
0.24	0.2	0.000806	5e-06
0.28	0.3	0.000724	5e-06
0.3	0	0.00118	8e-06
0.3	0.4	0.000665	5e-06
0.36	0.1	0.00098	6e-06
0.4	0	0.001219	8e-06
0.4	0.2	0.000848	6e-06
0.45	0.1	0.001009	6e-06
0.5	0	0.00126	8e-06
0.51	0.15	0.000949	6e-06
0.57	0.05	0.001158	7e-06
0.6	0	0.001291	8e-06
0.665	0.05	0.001194	7e-06
0.7	0	0.001305	8e-06
0.78	0.025	0.001254	8e-06
0.8	0	0.001256	8e-06
0.9	0	0.001036	6e-06
0.95	0	0.000827	5e-06

System: propan-1-ol + butyl ethanoate + water; phases: Liquid
Fixed: Pressure, kPa = 101
Fixed: Temperature, K = 323.15
Property: Mass density, kg/m3 (Liquid); method: VIBTUB:UFactor:4
Mole fraction of water	Mole fraction of butyl ethanoate	Mass density, kg/m3	uncertainty
0	0.1	790.07	0.48
0	0.2	799.51	0.47
0	0.3	807.87	0.46
0	0.4	815.42	0.45
0	0.5	822.21	0.44
0	0.6	828.46	0.43
0	0.7	834.3	0.42
0	0.8	839.71	0.41
0	0.9	844.84	0.4
0.01	0.9	845.52	0.4
0.02	0.8	841.05	0.41
0.02	0.98	850.18	0.4
0.03	0.9	846.96	0.4
0.04	0.6	831.4	0.42
0.04	0.96	850.62	0.39
0.05	0	782.94	0.49
0.05	0.9	848.39	0.4
0.06	0.4	819.88	0.44
0.06	0.7	838.57	0.41
0.06	0.8	843.96	0.4
0.06	0.94	851.07	0.39
0.08	0.2	805.43	0.46
0.08	0.92	851.57	0.39
0.09	0.1	796.69	0.47
0.1	0	786.61	0.49
0.1	0.5	829.79	0.42
0.1	0.8	847.01	0.4
0.12	0.6	837.5	0.41
0.12	0.7	843.22	0.4
0.14	0.3	818.69	0.44
0.18	0.1	804.03	0.46
0.18	0.4	829.64	0.42
0.2	0	794.62	0.47
0.2	0.5	838.12	0.4
0.2	0.6	844.23	0.39
0.24	0.2	818.98	0.43
0.28	0.3	831.54	0.41
0.3	0	803.64	0.45
0.3	0.4	840.95	0.4
0.36	0.1	821.79	0.42
0.4	0	814.4	0.43
0.4	0.2	836.12	0.4
0.45	0.1	832.58	0.4
0.5	0	827.68	0.41
0.51	0.15	845.85	0.38
0.57	0.05	845.07	0.38
0.6	0	844.41	0.38
0.665	0.05	863.01	0.35
0.7	0	865.87	0.35
0.78	0.025	889.99	0.31
0.8	0	894.61	0.31
0.9	0	935.04	0.25
0.95	0	959.71	0.22

System: propan-1-ol + butyl ethanoate + water; phases: Liquid mixture 1, Liquid mixture 2
Fixed: Temperature, K = 323.15
Fixed: Pressure, kPa = 101
Property: Mole fraction of propan-1-ol (Liquid mixture 1); method: Chromatography
Property: Mole fraction of propan-1-ol (Liquid mixture 2); method: Chromatography
Property: Mole fraction of water (Liquid mixture 2); method: Chromatography
Mole fraction of water	Mole fraction of propan-1-ol	uncertainty	Mole fraction of propan-1-ol	uncertainty	Mole fraction of water	uncertainty
0.9998	0	0.0001	0	0.0001	0.1305	
0.9842	0.0154	0.0071	0.1664	0.0114	0.2009	
0.9757	0.0238	0.0071	0.2593	0.0062	0.2769	
0.9643	0.0349	0.0071	0.3279	0.0052	0.4117	
0.958	0.041	0.0071	0.3363	0.0047	0.4889	
