Measured thermophysical data. Vapor-Liquid Equilibrium Measurements for the Nitrogen + Tetrafluoromethane System over a Temperature Range of (134.27 to 204.85) K
Source: J. Chem. Eng. Data, 2009, 10.1021/je9002064
Compound 1: nitrogen, N2, InChI=1S/N2/c1-2, purity 99.999%
Compound 2: tetrafluoromethane, CF4, InChI=1S/CF4/c2-1(3,4)5, purity 99.999%

System: tetrafluoromethane + nitrogen; phases: Gas, Liquid
Property: Mole fraction of nitrogen (Gas); method: vapor recirculation method
Temperature, K	Pressure, kPa	Mole fraction of nitrogen	uncertainty
134.27	114.1	0.6778	0.0057
134.27	150	0.7498	0.0046
134.27	274.4	0.8658	0.0041
134.27	644.3	0.9382	0.0041
134.27	671.5	0.9506	0.0041
143.57	175.2	0.4683	0.0061
143.57	211.7	0.551	0.0058
143.57	228.9	0.5904	0.0048
143.57	275	0.6582	0.0045
143.57	389	0.7548	0.0041
143.57	614.7	0.842	0.004
143.57	1147	0.9068	0.004
143.57	2529.2	0.9329	0.004
153.95	242.2	0.2971	0.0041
153.95	246.7	0.3085	0.0042
153.95	259.8	0.3498	0.0042
153.95	317.9	0.4709	0.0055
153.95	355.6	0.5326	0.0045
153.95	611.5	0.7055	0.0041
153.95	984.7	0.8167	0.004
153.95	1317	0.8575	0.004
153.95	1630.5	0.8825	0.004
162.7	348	0.118	0.0062
162.7	388	0.2114	0.0055
162.7	454	0.3185	0.0048
162.7	543	0.409	0.0044
162.7	620.2	0.4745	0.0044
162.7	739.2	0.5831	0.0041
162.7	987.6	0.6588	0.004
162.7	1617.5	0.7652	0.004
162.7	3077.1	0.8425	0.004
162.7	3717.7	0.843	0.004
173.43	610.5	0.1516	0.0049
173.43	673	0.2394	0.0045
173.43	837.3	0.3871	0.0043
173.43	1031.8	0.5001	0.0041
173.43	1238.6	0.5754	0.0041
173.43	1491	0.642	0.004
173.43	1809	0.6851	0.004
173.43	2366.3	0.744	0.004
173.43	2682.1	0.7667	0.004
185.33	1058.3	0.144	0.0043
185.33	1081.8	0.1608	0.0043
185.33	1229.5	0.2447	0.0042
185.33	1420.1	0.3377	0.0041
185.33	1750.2	0.4373	0.004
185.33	2103.3	0.4943	0.004
185.33	3023.3	0.5994	0.004
185.33	3631.3	0.6504	0.004
192.51	1408.6	0.1426	0.0041
192.51	1731.1	0.2832	0.0041
192.51	1842	0.3182	0.0042
192.51	1851.1	0.3231	0.0042
192.51	1955	0.3485	0.004
192.51	2315	0.4299	0.004
192.51	2959.2	0.524	0.004
192.51	3364.3	0.5576	0.004
192.51	3915	0.5916	0.004
204.85	2189.4	0.1191	0.0041
204.85	2360	0.1693	0.0041
204.85	2484.3	0.1945	0.004
204.85	2564.6	0.2133	0.0041
204.85	2997.6	0.2886	0.004
204.85	3410.3	0.3473	0.004
204.85	3906.8	0.3879	0.004
204.85	4520.6	0.4207	0.004
