Measured thermophysical data. Static Dielectric Permittivity and Electric Conductivity of N-Methylacetamide + N,N-Dimethylacetamide Mixtures
Source: J. Chem. Eng. Data, 2009, 10.1021/je9002515
Compound 1: N-methylacetamide, C3H7NO, InChI=1S/C3H7NO/c1-3(5)4-2/h1-2H3,(H,4,5)
Compound 2: N,N-dimethylethanamide, C4H9NO, InChI=1S/C4H9NO/c1-4(6)5(2)3/h1-3H3

System: N-methylacetamide; phases: Liquid
Fixed: Pressure, kPa = 101
Property: Electrical conductivity, S/m (Liquid); method: Alternating current cell with electrodes
Temperature, K	Electrical conductivity, S/m	uncertainty
303.15	0.03245	0.00519
313.15	0.04468	0.00715
323.15	0.06136	0.00982
333.15	0.07754	0.01241
343.15	0.10489	0.01678
353.15	0.12892	0.02063
363.15	0.16476	0.02636
373.15	0.19163	0.03066
383.15	0.21925	0.03508
393.15	0.24716	0.03955

System: N-methylacetamide; phases: Liquid
Fixed: Pressure, kPa = 101
Property: Relative permittivity at zero frequency (Liquid); method: Parallel plate capacitor
Temperature, K	Relative permittivity at zero frequency	uncertainty
303.15	178.47	1.785
313.15	163.788	1.638
323.15	150.266	1.503
333.15	137.94	1.379
343.15	127.615	1.276
353.15	118.132	1.181
363.15	108.853	1.089
373.15	100.73	1.007
383.15	93.218	0.932
393.15	86.345	0.863

System: N,N-dimethylethanamide; phases: Liquid
Fixed: Pressure, kPa = 101
Property: Electrical conductivity, S/m (Liquid); method: Alternating current cell with electrodes
Temperature, K	Electrical conductivity, S/m	uncertainty
303.15	0.01487	0.00238
313.15	0.01947	0.00312
323.15	0.024	0.00384
333.15	0.0307	0.00491
343.15	0.03996	0.00639
353.15	0.04619	0.00739
363.15	0.05078	0.00812
373.15	0.05342	0.00855
383.15	0.05438	0.0087
393.15	0.05182	0.00829

System: N,N-dimethylethanamide; phases: Liquid
Fixed: Pressure, kPa = 101
Property: Relative permittivity at zero frequency (Liquid); method: Parallel plate capacitor
Temperature, K	Relative permittivity at zero frequency	uncertainty
303.15	38.67	0.387
313.15	36.551	0.366
323.15	34.678	0.347
333.15	32.949	0.329
343.15	31.458	0.315
353.15	29.954	0.3
363.15	28.578	0.286
373.15	27.287	0.273
383.15	26.074	0.261
393.15	24.923	0.249

System: N-methylacetamide + N,N-dimethylethanamide; phases: Liquid
Fixed: Pressure, kPa = 101
Property: Electrical conductivity, S/m (Liquid); method: Alternating current cell with electrodes
Temperature, K	Mole fraction of N-methylacetamide	Electrical conductivity, S/m	uncertainty
303.15	0	0.01487	0.00238
303.15	0.1041	0.01075	0.00172
303.15	0.2077	0.01733	0.00277
303.15	0.3056	0.0162	0.00259
303.15	0.4019	0.02031	0.00325
303.15	0.506	0.02394	0.00383
303.15	0.6088	0.0215	0.00344
303.15	0.6985	0.03276	0.00524
303.15	0.7974	0.03139	0.00502
303.15	0.9001	0.03291	0.00527
303.15	1	0.03245	0.00519
313.15	0	0.01947	0.00312
313.15	0.1041	0.01305	0.00209
313.15	0.2077	0.02009	0.00321
313.15	0.3056	0.01921	0.00307
313.15	0.4019	0.02414	0.00386
313.15	0.506	0.02872	0.0046
313.15	0.6088	0.02622	0.0042
313.15	0.6985	0.04	0.0064
313.15	0.7974	0.03903	0.00624
313.15	0.9001	0.04214	0.00674
313.15	1	0.04468	0.00715
323.15	0	0.024	0.00384
323.15	0.1041	0.01509	0.00241
323.15	0.2077	0.02295	0.00367
323.15	0.3056	0.02287	0.00366
323.15	0.4019	0.02854	0.00457
323.15	0.506	0.03401	0.00544
323.15	0.6088	0.03153	0.00504
323.15	0.6985	0.04852	0.00776
323.15	0.7974	0.04773	0.00764
323.15	0.9001	0.05279	0.00845
323.15	1	0.06136	0.00982
333.15	0	0.0307	0.00491
333.15	0.1041	0.01748	0.0028
333.15	0.2077	0.02608	0.00417
333.15	0.3056	0.02732	0.00437
333.15	0.4019	0.03352	0.00536
333.15	0.506	0.03969	0.00635
333.15	0.6088	0.03729	0.00597
333.15	0.6985	0.05839	0.00934
333.15	0.7974	0.05708	0.00913
333.15	0.9001	0.06446	0.01031
333.15	1	0.07754	0.01241
343.15	0	0.03996	0.00639
343.15	0.1041	0.02023	0.00324
343.15	0.2077	0.02991	0.00479
343.15	0.3056	0.03308	0.00529
343.15	0.4019	0.03937	0.0063
343.15	0.506	0.04593	0.00735
343.15	0.6088	0.04364	0.00698
343.15	0.6985	0.06884	0.01101
343.15	0.7974	0.06661	0.01066
343.15	0.9001	0.07778	0.01244
343.15	1	0.10489	0.01678
353.15	0	0.04619	0.00739
353.15	0.1041	0.02341	0.00375
353.15	0.2077	0.03489	0.00558
353.15	0.3056	0.04027	0.00644
353.15	0.4019	0.04636	0.00742
353.15	0.506	0.05319	0.00851
353.15	0.6088	0.05095	0.00815
353.15	0.6985	0.07982	0.01277
353.15	0.7974	0.07604	0.01217
353.15	0.9001	0.09288	0.01486
353.15	1	0.12892	0.02063
363.15	0	0.05078	0.00812
363.15	0.1041	0.02689	0.0043
363.15	0.2077	0.04132	0.00661
363.15	0.3056	0.04955	0.00793
363.15	0.4019	0.05478	0.00876
363.15	0.506	0.06189	0.0099
363.15	0.6088	0.05975	0.00956
363.15	0.6985	0.09221	0.01475
363.15	0.7974	0.08537	0.01366
363.15	0.9001	0.10952	0.01752
363.15	1	0.16476	0.02636
373.15	0	0.05342	0.00855
373.15	0.1041	0.03046	0.00487
373.15	0.2077	0.04901	0.00784
373.15	0.3056	0.05996	0.00959
373.15	0.4019	0.06458	0.01033
373.15	0.506	0.07143	0.01143
373.15	0.6088	0.07024	0.01124
373.15	0.6985	0.10567	0.01691
373.15	0.7974	0.09476	0.01516
373.15	0.9001	0.12708	0.02033
373.15	1	0.19163	0.03066
383.15	0	0.05438	0.0087
383.15	0.1041	0.03438	0.0055
383.15	0.2077	0.05668	0.00907
383.15	0.3056	0.07082	0.01133
383.15	0.4019	0.07496	0.01199
383.15	0.506	0.08134	0.01301
383.15	0.6088	0.08157	0.01305
383.15	0.6985	0.11884	0.01901
383.15	0.7974	0.10528	0.01684
383.15	0.9001	0.14604	0.02337
383.15	1	0.21925	0.03508
393.15	0	0.05182	0.00829
393.15	0.1041	0.03955	0.00633
393.15	0.2077	0.06415	0.01026
393.15	0.3056	0.08101	0.01296
393.15	0.4019	0.08514	0.01362
393.15	0.506	0.09069	0.01451
393.15	0.6088	0.0934	0.01494
393.15	0.6985	0.13067	0.02091
393.15	0.7974	0.11778	0.01884
393.15	0.9001	0.16733	0.02677
393.15	1	0.24716	0.03955

System: N-methylacetamide + N,N-dimethylethanamide; phases: Liquid
Fixed: Pressure, kPa = 101
Property: Relative permittivity at zero frequency (Liquid); method: Parallel plate capacitor
Temperature, K	Mole fraction of N-methylacetamide	Relative permittivity at zero frequency	uncertainty
303.15	0	38.67	0.387
303.15	0.1041	43.95	0.44
303.15	0.2077	50.51	0.505
303.15	0.3056	58.27	0.583
303.15	0.4019	66.662	0.667
303.15	0.506	76.952	0.77
303.15	0.6088	90.55	0.906
303.15	0.6985	103.311	1.033
303.15	0.7974	122.244	1.222
303.15	0.9001	148.236	1.482
303.15	1	178.47	1.785
313.15	0	36.551	0.366
313.15	0.1041	41.479	0.415
313.15	0.2077	47.772	0.478
313.15	0.3056	54.986	0.55
313.15	0.4019	62.665	0.627
313.15	0.506	72.11	0.721
313.15	0.6088	84.669	0.847
313.15	0.6985	96.288	0.963
313.15	0.7974	113.519	1.135
313.15	0.9001	137.329	1.373
313.15	1	163.788	1.638
323.15	0	34.678	0.347
323.15	0.1041	39.283	0.393
323.15	0.2077	45.139	0.451
323.15	0.3056	52.07	0.521
323.15	0.4019	58.922	0.589
323.15	0.506	67.677	0.677
323.15	0.6088	79.186	0.792
323.15	0.6985	89.859	0.899
323.15	0.7974	105.499	1.055
323.15	0.9001	127.111	1.271
323.15	1	150.266	1.503
333.15	0	32.949	0.329
333.15	0.1041	37.29	0.373
333.15	0.2077	42.732	0.427
333.15	0.3056	49.353	0.494
333.15	0.4019	55.453	0.555
333.15	0.506	63.638	0.636
333.15	0.6088	74.152	0.742
333.15	0.6985	83.956	0.84
333.15	0.7974	98.207	0.982
333.15	0.9001	117.284	1.173
333.15	1	137.94	1.379
343.15	0	31.458	0.315
343.15	0.1041	35.46	0.355
343.15	0.2077	40.504	0.405
343.15	0.3056	46.701	0.467
343.15	0.4019	52.384	0.524
343.15	0.506	59.929	0.599
343.15	0.6088	69.543	0.695
343.15	0.6985	78.622	0.786
343.15	0.7974	91.732	0.917
343.15	0.9001	108.748	1.087
343.15	1	127.615	1.276
353.15	0	29.954	0.3
353.15	0.1041	33.736	0.337
353.15	0.2077	38.536	0.385
353.15	0.3056	43.904	0.439
353.15	0.4019	49.589	0.496
353.15	0.506	56.545	0.565
353.15	0.6088	65.503	0.655
353.15	0.6985	73.777	0.738
353.15	0.7974	85.688	0.857
353.15	0.9001	101.106	1.011
353.15	1	118.132	1.181
363.15	0	28.578	0.286
363.15	0.1041	32.154	0.322
363.15	0.2077	36.736	0.367
363.15	0.3056	41.559	0.416
363.15	0.4019	46.964	0.47
363.15	0.506	53.459	0.535
363.15	0.6088	61.685	0.617
363.15	0.6985	69.231	0.692
363.15	0.7974	80.159	0.802
363.15	0.9001	94.173	0.942
363.15	1	108.853	1.089
373.15	0	27.287	0.273
373.15	0.1041	30.736	0.307
373.15	0.2077	35.021	0.35
373.15	0.3056	39.45	0.395
373.15	0.4019	44.536	0.445
373.15	0.506	50.494	0.505
373.15	0.6088	58.197	0.582
373.15	0.6985	65.028	0.65
373.15	0.7974	75.044	0.75
373.15	0.9001	87.708	0.877
373.15	1	100.73	1.007
383.15	0	26.074	0.261
383.15	0.1041	29.279	0.293
383.15	0.2077	33.34	0.333
383.15	0.3056	37.455	0.375
383.15	0.4019	42.225	0.422
383.15	0.506	47.73	0.477
383.15	0.6088	54.872	0.549
383.15	0.6985	61.108	0.611
383.15	0.7974	70.275	0.703
383.15	0.9001	81.702	0.817
383.15	1	93.218	0.932
393.15	0	24.923	0.249
393.15	0.1041	27.87	0.279
393.15	0.2077	31.711	0.317
393.15	0.3056	35.573	0.356
393.15	0.4019	40.041	0.4
393.15	0.506	45.144	0.451
393.15	0.6088	51.741	0.517
393.15	0.6985	57.411	0.574
393.15	0.7974	65.866	0.659
393.15	0.9001	76.142	0.761
393.15	1	86.345	0.863
