Measured thermophysical data. Solubility and Acidic Constants of L-Cystine in NaClO4 Aqueous Solutions at 25 deg C
Source: J. Chem. Eng. Data, 2009, 10.1021/je900116h
Compound 1: 3,3'-dithiobis-L-alanine, C6H12N2O4S2, InChI=1S/C6H12N2O4S2/c7-3(5(9)10)1-13-14-2-4(8)6(11)12/h3-4H,1-2,7-8H2,(H,9,10)(H,11,12)/t3-,4-/m0/s1
Compound 2: sodium perchlorate, ClNaO4, InChI=1S/ClHO4.Na/c2-1(3,4)5;/h(H,2,3,4,5);/q;+1/p-1
Compound 3: water, H2O, InChI=1S/H2O/h1H2

System: 3,3'-dithiobis-L-alanine + sodium perchlorate + water; phases: Liquid, Crystal
Fixed: Temperature, K = 298.15
Fixed: Pressure, kPa = 101
Property: Molality, mol/kg of 3,3'-dithiobis-L-alanine (Liquid); method: Differential pulse polarography
Solvent: Molality, mol/kg of sodium perchlorate	Molality, mol/kg of 3,3'-dithiobis-L-alanine	uncertainty
0	0.413	0.008
0.513	0.95	0.02
1.05	1.22	0.03
2.21	1.51	0.04
3.5	1.97	0.04
