Measured thermophysical data. Phase Diagram of [Amim]Cl + Salt Aqueous Biphasic Systems and Its Application for [Amim]Cl Recovery
Source: J. Chem. Eng. Data, 2009, 10.1021/je900009a
Compound 1: water, H2O, InChI=1S/H2O/h1H2
Compound 2: tripotassium phosphate, K3O4P, InChI=1S/3K.H3O4P/c;;;1-5(2,3)4/h;;;(H3,1,2,3,4)/q3*+1;/p-3
Compound 3: 1-allyl-3-methylimidazolium chloride, C7H11ClN2, InChI=1S/C7H11N2.ClH/c1-3-4-9-6-5-8(2)7-9;/h3,5-7H,1,4H2,2H3;1H/q+1;/p-1
Compound 4: dipotassium hydrogen phosphate, HK2O4P, InChI=1S/2K.H3O4P/c;;1-5(2,3)4/h;;(H3,1,2,3,4)/q2*+1;/p-2
Compound 5: potassium carbonate, CK2O3, InChI=1S/CH2O3.2K/c2-1(3)4;;/h(H2,2,3,4);;/q;2*+1/p-2

System: water + tripotassium phosphate + 1-allyl-3-methylimidazolium chloride; phases: Liquid mixture 1, Liquid mixture 2
Fixed: Temperature, K = 298.15
Fixed: Pressure, kPa = 101.325
Property: Mass fraction of tripotassium phosphate (Liquid mixture 1); method: OTHER
Property: Mass fraction of 1-allyl-3-methylimidazolium chloride (Liquid mixture 2); method: OTHER
Property: Mass fraction of tripotassium phosphate (Liquid mixture 2); method: OTHER
Mass fraction of 1-allyl-3-methylimidazolium chloride	Mass fraction of tripotassium phosphate	uncertainty	Mass fraction of 1-allyl-3-methylimidazolium chloride	uncertainty	Mass fraction of tripotassium phosphate	uncertainty
0.4465	0.0182	0.0036	0.0092	0.0018	0.3717	
0.5206	0.0055	0.0011	0.0015	0.0003	0.4372	
0.6001	0.00031	6e-05	0.00029	6e-05	0.484	

System: water + tripotassium phosphate + 1-allyl-3-methylimidazolium chloride; phases: Liquid mixture 1, Liquid mixture 2
Fixed: Pressure, kPa = 101
Fixed: Temperature, K = 298.15
Property: Mass fraction of 1-allyl-3-methylimidazolium chloride (Liquid mixture 1); method: TITR:UFactor:4
Mass fraction of tripotassium phosphate	Mass fraction of 1-allyl-3-methylimidazolium chloride	uncertainty
0.0119	0.4742	0.0759
0.0172	0.4489	0.0718
0.0206	0.4236	0.0678
0.0457	0.3816	0.0611
0.0587	0.3523	0.0564
0.0649	0.3313	0.053
0.0761	0.3058	0.0489
0.095	0.2735	0.0438
0.1066	0.2553	0.0408
0.1151	0.2414	0.0386
0.1262	0.2257	0.0361
0.1361	0.212	0.0339
0.1467	0.1989	0.0318
0.167	0.1728	0.0276
0.1776	0.16	0.0256
0.1871	0.1485	0.0238
0.1984	0.1352	0.0216
0.2141	0.1172	0.0188
0.235	0.095	0.0152
0.247	0.0835	0.0134
0.2538	0.0773	0.0124

System: water + dipotassium hydrogen phosphate + 1-allyl-3-methylimidazolium chloride; phases: Liquid mixture 1, Liquid mixture 2
Fixed: Temperature, K = 298.15
Fixed: Pressure, kPa = 101.325
Property: Mass fraction of dipotassium hydrogen phosphate (Liquid mixture 1); method: Lever Rule
Property: Mass fraction of 1-allyl-3-methylimidazolium chloride (Liquid mixture 2); method: Lever Rule
Property: Mass fraction of dipotassium hydrogen phosphate (Liquid mixture 2); method: Lever Rule
Mass fraction of 1-allyl-3-methylimidazolium chloride	Mass fraction of dipotassium hydrogen phosphate	uncertainty	Mass fraction of 1-allyl-3-methylimidazolium chloride	uncertainty	Mass fraction of dipotassium hydrogen phosphate	uncertainty
0.4679	0.0278	0.0056	0.0268	0.0054	0.4186	
0.5177	0.0185	0.0037	0.0089	0.0018	0.5003	
0.584	0.0099	0.002	0.0032	0.0006	0.5601	
0.6763	0.003	0.0006	0.0015	0.0003	0.5999	

System: water + dipotassium hydrogen phosphate + 1-allyl-3-methylimidazolium chloride; phases: Liquid mixture 1, Liquid mixture 2
Fixed: Pressure, kPa = 101
Fixed: Temperature, K = 298.15
Property: Mass fraction of 1-allyl-3-methylimidazolium chloride (Liquid mixture 1); method: TITR:UFactor:4
Mass fraction of dipotassium hydrogen phosphate	Mass fraction of 1-allyl-3-methylimidazolium chloride	uncertainty
0.0066	0.6323	0.0588
0.0156	0.5222	0.0764
0.0258	0.4783	0.0765
0.0344	0.4382	0.0701
0.0458	0.3974	0.0636
0.0592	0.3591	0.0575
0.0687	0.3368	0.0539
0.0833	0.3097	0.0496
0.0981	0.2852	0.0456
0.1117	0.2643	0.0423
0.1361	0.2328	0.0372
0.148	0.2185	0.035
0.1618	0.2028	0.0324
0.177	0.1864	0.0298
0.1937	0.169	0.027
0.214	0.1489	0.0238
0.2346	0.129	0.0206
0.2548	0.1099	0.0176

System: potassium carbonate + water + 1-allyl-3-methylimidazolium chloride; phases: Liquid mixture 1, Liquid mixture 2
Fixed: Temperature, K = 298.15
Fixed: Pressure, kPa = 101.325
Property: Mass fraction of potassium carbonate (Liquid mixture 1); method: Lever Rule
Property: Mass fraction of 1-allyl-3-methylimidazolium chloride (Liquid mixture 2); method: Lever Rule
Property: Mass fraction of potassium carbonate (Liquid mixture 2); method: Lever Rule
Mass fraction of 1-allyl-3-methylimidazolium chloride	Mass fraction of potassium carbonate	uncertainty	Mass fraction of 1-allyl-3-methylimidazolium chloride	uncertainty	Mass fraction of potassium carbonate	uncertainty
0.3623	0.084	0.0168	0.0894	0.0179	0.2823	
0.5215	0.0296	0.0059	0.0193	0.0039	0.3958	
0.6413	0.0104	0.0021	0.0042	0.0008	0.4718	

System: potassium carbonate + water + 1-allyl-3-methylimidazolium chloride; phases: Liquid mixture 1, Liquid mixture 2
Fixed: Pressure, kPa = 101
Fixed: Temperature, K = 298.15
Property: Mass fraction of 1-allyl-3-methylimidazolium chloride (Liquid mixture 1); method: TITR:UFactor:4
Mass fraction of potassium carbonate	Mass fraction of 1-allyl-3-methylimidazolium chloride	uncertainty
0.0546	0.4391	0.0703
0.0619	0.4102	0.0656
0.0724	0.3858	0.0617
0.0821	0.3632	0.0581
0.1001	0.3301	0.0528
0.1167	0.3009	0.0481
0.1414	0.2618	0.0419
0.1661	0.2266	0.0363
0.1905	0.1942	0.0311
0.2036	0.1777	0.0284
0.215	0.1636	0.0262
0.2246	0.1516	0.0243
0.2356	0.1381	0.0221
0.2467	0.1251	0.02
0.2565	0.1142	0.0183
0.2677	0.1026	0.0164
0.2769	0.0934	0.0149
0.2846	0.0859	0.0137
0.2966	0.0754	0.0121
