Measured thermophysical data. Solubilities of 1,1'-(Ethane-1,2-diyl)-bis(pyridinium) Dihexafluorophosphate in Aqueous Acetone Mixtures
Source: J. Chem. Eng. Data, 2010, 10.1021/je900524t
Compound 1: acetone, C3H6O, InChI=1S/C3H6O/c1-3(2)4/h1-2H3, purity 99%
Compound 2: water, H2O, InChI=1S/H2O/h1H2
Compound 3: 1,1'-(ethane-1,2-diyl)bis(pyridin-1-ium) hexafluorophosphate, C12H14F12N2P2, InChI=1S/C12H14N2.2F6P/c1-3-7-13(8-4-1)11-12-14-9-5-2-6-10-14;2*1-7(2,3,4,5)6/h1-10H,11-12H2;;/q+2;2*-1, purity 99.5%

System: 1,1'-(ethane-1,2-diyl)bis(pyridin-1-ium) hexafluorophosphate; phases: Crystal, Liquid, Air at 1 atmosphere
Property: Normal melting temperature, K (Crystal); method: VISOBS
Normal melting temperature, K	uncertainty
493.35	1.44

System: acetone + water + 1,1'-(ethane-1,2-diyl)bis(pyridin-1-ium) hexafluorophosphate; phases: Liquid, Crystal
Fixed: Pressure, kPa = 101
Property: Mass fraction of 1,1'-(ethane-1,2-diyl)bis(pyridin-1-ium) hexafluorophosphate (Liquid); method: Laser monitoring observation
Solvent: Mass fraction of acetone	Temperature, K	Mass fraction of 1,1'-(ethane-1,2-diyl)bis(pyridin-1-ium) hexafluorophosphate	uncertainty
0.1	290.15	0.003011	0.000121
0.1	296.65	0.003375	0.000136
0.1	301.15	0.003693	0.000148
0.1	305.75	0.003965	0.000159
0.1	309.25	0.004255	0.000171
0.1	314.65	0.004725	0.00019
0.1	319.15	0.005167	0.000208
0.1	324.65	0.005713	0.00023
0.2	292.35	0.003298	0.000133
0.2	296.45	0.003522	0.000142
0.2	301.65	0.003811	0.000153
0.2	306.75	0.004137	0.000167
0.2	312.15	0.004548	0.000183
0.2	316.25	0.004971	0.0002
0.2	321.95	0.00556	0.000224
0.2	326.35	0.006012	0.000242
0.3	290.65	0.002681	0.000108
0.3	296.15	0.003018	0.000121
0.3	300.95	0.003382	0.000136
0.3	305.45	0.003709	0.000149
0.3	311.45	0.004164	0.000167
0.3	317.15	0.004615	0.000185
0.3	322.35	0.004997	0.000201
0.3	326.15	0.005327	0.000213
0.4	290.55	0.00166	6.7e-05
0.4	294.95	0.001918	7.8e-05
0.4	300.55	0.002233	9e-05
0.4	305.85	0.002619	0.000106
0.4	311.35	0.003027	0.000122
0.4	316.35	0.003438	0.000139
0.4	321.05	0.003827	0.000154
0.4	327.15	0.004418	0.000178
0.5	290.35	0.000774	3.3e-05
0.5	292.95	0.000867	3.6e-05
0.5	297.65	0.00107	4.3e-05
0.5	302.75	0.001307	5.3e-05
0.5	308.05	0.0016	6.5e-05
0.5	312.35	0.001859	7.5e-05
0.5	317.95	0.002293	9.3e-05
0.5	323.65	0.002726	0.00011
0.6	291.15	0.000345	1.5e-05
0.6	296.25	0.000468	2e-05
0.6	301.15	0.000597	2.5e-05
0.6	304.65	0.000705	2.9e-05
0.6	308.45	0.000828	3.4e-05
0.6	313.85	0.001019	4.1e-05
0.6	319.35	0.001216	4.9e-05
0.6	325.15	0.001457	5.9e-05
0.7	290.45	0.000222	9e-06
0.7	294.75	0.000271	1.1e-05
0.7	300.55	0.000353	1.4e-05
0.7	305.15	0.000426	1.7e-05
0.7	310.45	0.000529	2.2e-05
0.7	315.35	0.000639	2.6e-05
0.7	319.85	0.000745	3e-05
0.7	326.25	0.00092	3.7e-05
0.8	293.15	8.5e-05	4e-06
0.8	295.45	9.8e-05	4e-06
0.8	300.25	0.000125	5e-06
0.8	306.55	0.000175	7e-06
0.8	311.15	0.000225	9e-06
0.8	316.55	0.000298	1.2e-05
0.8	322.15	0.000389	1.6e-05
0.8	326.75	0.000489	2.1e-05
0.9	293.25	3.3e-05	2e-06
0.9	297.55	4.9e-05	2e-06
0.9	302.35	7.3e-05	3e-06
0.9	307.45	0.000105	4e-06
0.9	312.25	0.000143	6e-06
0.9	317.15	0.000189	8e-06
0.9	323.15	0.000254	1e-05
0.9	327.45	0.000305	1.2e-05
