Measured thermophysical data. Phase Behavior of (1-Alkyl-3-methyl Imidazolium Tetrafluoroborate + 6-(Hydroxymethyl)oxane-2,3,4,5-tetrol + Water)
Source: J. Chem. Eng. Data, 2010, 10.1021/je900473u
Compound 1: water, H2O, InChI=1S/H2O/h1H2
Compound 2: D-glucose, C6H12O6, InChI=1S/C6H12O6/c7-1-3(9)5(11)6(12)4(10)2-8/h1,3-6,8-12H,2H2/t3-,4+,5+,6+/m0/s1
Compound 3: 1-propyl-3-methylimidazolium tetrafluoroborate, C7H13BF4N2, InChI=1S/C7H13N2.BF4/c1-3-4-9-6-5-8(2)7-9;2-1(3,4)5/h5-7H,3-4H2,1-2H3;/q+1;-1
Compound 4: 1-butyl-3-methylimidazolium tetrafluoroborate, C8H15BF4N2, InChI=1S/C8H15N2.BF4/c1-3-4-5-10-7-6-9(2)8-10;2-1(3,4)5/h6-8H,3-5H2,1-2H3;/q+1;-1

System: D-glucose + water + 1-propyl-3-methylimidazolium tetrafluoroborate; phases: Liquid mixture 1, Liquid mixture 2
Fixed: Pressure, kPa = 101
Property: Mass fraction of D-glucose (Liquid mixture 1); method: Chromatography
Property: Mass fraction of 1-propyl-3-methylimidazolium tetrafluoroborate (Liquid mixture 2); method: Chromatography
Property: Mass fraction of D-glucose (Liquid mixture 2); method: Chromatography
Temperature, K	Mass fraction of 1-propyl-3-methylimidazolium tetrafluoroborate	Mass fraction of D-glucose	uncertainty	Mass fraction of 1-propyl-3-methylimidazolium tetrafluoroborate	uncertainty	Mass fraction of D-glucose	uncertainty
278.15	0.897	0.005	0.005	0.0524	0.0201	0.4439	
278.15	0.8681	0.0063	0.0063	0.0554	0.0203	0.4119	
278.15	0.842	0.0108	0.0108	0.0618	0.0221	0.3961	
278.15	0.7811	0.011	0.011	0.0822	0.0228	0.354	
278.15	0.723	0.0157	0.0157	0.1045	0.0236	0.3183	
288.15	0.854	0.0107	0.0107	0.0852	0.0241	0.4301	
288.15	0.8211	0.0117	0.0117	0.0934	0.0246	0.4045	
288.15	0.771	0.0145	0.0145	0.1168	0.023	0.3736	
288.15	0.7164	0.0169	0.0169	0.1295	0.0249	0.3406	
288.15	0.6154	0.046	0.0208	0.1663	0.0255	0.2938	
298.15	0.8432	0.0122	0.0122	0.076	0.0217	0.4527	
298.15	0.7922	0.0183	0.0183	0.0912	0.023	0.4168	
298.15	0.7423	0.0236	0.0203	0.1163	0.0235	0.3812	
298.15	0.6883	0.0358	0.0202	0.1319	0.0275	0.3485	
298.15	0.6364	0.0401	0.0201	0.1772	0.0348	0.3166	
308.15	0.8233	0.0562	0.02	0.0555	0.0231	0.5386	
308.15	0.7472	0.0613	0.0201	0.1071	0.0221	0.449	
308.15	0.6662	0.0723	0.0202	0.1283	0.0247	0.3831	
308.15	0.6003	0.0814	0.0202	0.1993	0.0308	0.3224	

System: D-glucose + water + 1-propyl-3-methylimidazolium tetrafluoroborate; phases: Liquid mixture 1, Liquid mixture 2
Fixed: Pressure, kPa = 101
Property: Mass fraction of 1-propyl-3-methylimidazolium tetrafluoroborate (Liquid mixture 1); method: Chromatography
Temperature, K	Mass fraction of D-glucose	Mass fraction of 1-propyl-3-methylimidazolium tetrafluoroborate	uncertainty
278.15	0.0198	0.6935	0.0201
278.15	0.0447	0.5898	0.0202
278.15	0.0848	0.4295	0.0202
278.15	0.1088	0.3585	0.0202
278.15	0.1901	0.2328	0.0201
278.15	0.2553	0.1591	0.02
278.15	0.3714	0.0856	0.02
278.15	0.4792	0.0502	0.02
278.15	0.5014	0.0452	0.02
288.15	0.0371	0.6721	0.0201
288.15	0.0392	0.6716	0.0201
288.15	0.0711	0.5277	0.0203
288.15	0.0909	0.4595	0.0203
288.15	0.1634	0.313	0.02
288.15	0.2186	0.2376	0.0201
288.15	0.3124	0.1423	0.02
288.15	0.409	0.088	0.02
288.15	0.5113	0.0472	0.02
298.15	0.0303	0.7086	0.0201
298.15	0.0394	0.6542	0.0201
298.15	0.0774	0.5639	0.0202
298.15	0.0895	0.5338	0.0203
298.15	0.1655	0.3804	0.0202
298.15	0.2155	0.2908	0.0201
298.15	0.261	0.2292	0.0201
298.15	0.2802	0.208	0.02
298.15	0.326	0.1565	0.02
298.15	0.3604	0.1305	0.02
298.15	0.3893	0.1145	0.02
298.15	0.4166	0.1017	0.02
298.15	0.4416	0.0886	0.02
308.15	0.0701	0.6533	0.0201
308.15	0.109	0.5505	0.0203
308.15	0.1881	0.3702	0.0202
308.15	0.2088	0.3385	0.0201
308.15	0.293	0.2272	0.0201
308.15	0.3188	0.1995	0.02
308.15	0.3407	0.178	0.02
308.15	0.3651	0.1604	0.02
308.15	0.4055	0.1295	0.02
308.15	0.4514	0.1076	0.02
308.15	0.5013	0.0801	0.02

System: D-glucose + water + 1-butyl-3-methylimidazolium tetrafluoroborate; phases: Liquid mixture 1, Liquid mixture 2
Fixed: Pressure, kPa = 101
Property: Mass fraction of D-glucose (Liquid mixture 1); method: Chromatography
Property: Mass fraction of 1-butyl-3-methylimidazolium tetrafluoroborate (Liquid mixture 2); method: Chromatography
Property: Mass fraction of D-glucose (Liquid mixture 2); method: Chromatography
Temperature, K	Mass fraction of 1-butyl-3-methylimidazolium tetrafluoroborate	Mass fraction of D-glucose	uncertainty	Mass fraction of 1-butyl-3-methylimidazolium tetrafluoroborate	uncertainty	Mass fraction of D-glucose	uncertainty
278.15	0.5634	0.0039	0.0039	0.1008	0.023	0.196	
278.15	0.6804	0.0014	0.0014	0.0843	0.0226	0.225	
278.15	0.764	0.001	0.001	0.0714	0.0219	0.252	
278.15	0.7995	0.0013	0.0013	0.0652	0.0204	0.268	
278.15	0.8783	0.0014	0.0014	0.0586	0.0202	0.312	
278.15	0.9214	0.0013	0.0013	0.0551	0.0201	0.3495	
288.15	0.6063	0.01	0.01	0.117	0.0224	0.223	
288.15	0.734	0.0096	0.0096	0.0925	0.0226	0.268	
288.15	0.768	0.0089	0.0089	0.0845	0.0206	0.286	
288.15	0.812	0.0072	0.0072	0.0822	0.0207	0.309	
288.15	0.864	0.0062	0.0062	0.0703	0.0211	0.341	
288.15	0.9175	0.0071	0.0071	0.0524	0.0209	0.3988	
298.15	0.609	0.0276	0.0201	0.124	0.0217	0.2501	
298.15	0.713	0.0202	0.02	0.1037	0.0217	0.298	
298.15	0.775	0.0192	0.0192	0.0895	0.021	0.3324	
298.15	0.857	0.0191	0.0191	0.0701	0.0209	0.3972	
298.15	0.8914	0.019	0.019	0.0622	0.0206	0.4287	
308.15	0.5644	0.0493	0.0203	0.15	0.0246	0.252	
308.15	0.6557	0.0348	0.0203	0.118	0.0244	0.297	
308.15	0.707	0.0228	0.0201	0.099	0.0212	0.3257	
308.15	0.8109	0.0176	0.0176	0.0807	0.0212	0.3964	
308.15	0.876	0.0165	0.0165	0.0551	0.0206	0.4514	
308.15	0.9148	0.0149	0.0149	0.0536	0.02	0.5087	

System: D-glucose + water + 1-butyl-3-methylimidazolium tetrafluoroborate; phases: Liquid mixture 1, Liquid mixture 2
Fixed: Pressure, kPa = 101
Property: Mass fraction of 1-butyl-3-methylimidazolium tetrafluoroborate (Liquid mixture 1); method: Chromatography
Temperature, K	Mass fraction of D-glucose	Mass fraction of 1-butyl-3-methylimidazolium tetrafluoroborate	uncertainty
278.15	0.0555	0.3463	0.0201
278.15	0.0561	0.288	0.02
278.15	0.0797	0.2192	0.0201
278.15	0.0982	0.1731	0.02
278.15	0.1179	0.1446	0.02
278.15	0.1334	0.1177	0.02
278.15	0.1511	0.0971	0.02
278.15	0.158	0.0966	0.02
278.15	0.1679	0.0862	0.02
278.15	0.2131	0.0554	0.02
278.15	0.229	0.0491	0.02
278.15	0.2566	0.0409	0.02
278.15	0.2709	0.0357	0.02
278.15	0.3293	0.0252	0.02
278.15	0.3573	0.0199	0.0199
278.15	0.4232	0.0122	0.0122
278.15	0.4371	0.0105	0.0105
278.15	0.4969	0.0071	0.0071
278.15	0.4992	0.0066	0.0066
278.15	0.533	0.0049	0.0049
278.15	0.5953	0.0033	0.0033
278.15	0.6137	0.0025	0.0025
288.15	0.0795	0.3158	0.0201
288.15	0.0809	0.3173	0.0201
288.15	0.0858	0.2903	0.0201
288.15	0.0898	0.2723	0.0201
288.15	0.1075	0.2385	0.0201
288.15	0.1184	0.2175	0.0201
288.15	0.1583	0.1514	0.02
288.15	0.177	0.1257	0.02
288.15	0.194	0.1067	0.02
288.15	0.2269	0.0884	0.02
288.15	0.263	0.0673	0.02
288.15	0.3198	0.0508	0.02
288.15	0.3812	0.0379	0.02
288.15	0.401	0.0347	0.02
288.15	0.4519	0.0275	0.02
288.15	0.501	0.0246	0.02
288.15	0.5334	0.02	0.02
288.15	0.6033	0.0155	0.0155
288.15	0.6455	0.012	0.012
288.15	0.649	0.0126	0.0126
288.15	0.7082	0.01	0.01
298.15	0.0892	0.3522	0.0202
298.15	0.0973	0.3192	0.0201
298.15	0.1045	0.296	0.02
298.15	0.1196	0.2584	0.0201
298.15	0.1454	0.2143	0.0201
298.15	0.1582	0.1964	0.02
298.15	0.1698	0.1833	0.02
298.15	0.1844	0.1729	0.02
298.15	0.1955	0.1584	0.02
298.15	0.2125	0.1445	0.02
298.15	0.2438	0.1244	0.02
298.15	0.2874	0.1018	0.02
298.15	0.3137	0.0907	0.02
298.15	0.3394	0.0809	0.02
298.15	0.3571	0.0787	0.02
298.15	0.4215	0.0581	0.02
298.15	0.4425	0.0549	0.02
298.15	0.6116	0.0306	0.02
298.15	0.6742	0.0226	0.02
308.15	0.1343	0.2755	0.0201
308.15	0.1414	0.2687	0.0201
308.15	0.1527	0.2562	0.0201
308.15	0.1654	0.2417	0.0201
308.15	0.1774	0.2288	0.0201
308.15	0.2074	0.1926	0.02
308.15	0.2154	0.1856	0.02
308.15	0.2291	0.1756	0.02
308.15	0.2433	0.1655	0.02
308.15	0.283	0.1439	0.02
308.15	0.2906	0.1396	0.02
308.15	0.3189	0.129	0.02
308.15	0.3326	0.1224	0.02
308.15	0.3479	0.1167	0.02
308.15	0.3884	0.098	0.02
308.15	0.4297	0.0913	0.02
308.15	0.5108	0.0663	0.02
308.15	0.5587	0.0519	0.02
308.15	0.5888	0.047	0.02
308.15	0.6405	0.036	0.02
308.15	0.6767	0.0287	0.02
308.15	0.7024	0.0232	0.02
