Measured thermophysical data. Studies of Monohydric Alcohols in Aqueous Sodium Dodecyl Sulfate Solutions at T = (298.15 and 308.15) K
Source: J. Chem. Eng. Data, 2010, 10.1021/je9006019
Compound 1: pentan-1-ol, C5H12O, InChI=1S/C5H12O/c1-2-3-4-5-6/h6H,2-5H2,1H3, purity 99%
Compound 2: hexan-1-ol, C6H14O, InChI=1S/C6H14O/c1-2-3-4-5-6-7/h7H,2-6H2,1H3, purity 98%
Compound 3: water, H2O, InChI=1S/H2O/h1H2
Compound 4: sodium dodecyl sulfate, C12H25NaO4S, InChI=1S/C12H26O4S.Na/c1-2-3-4-5-6-7-8-9-10-11-12-16-17(13,14)15;/h2-12H2,1H3,(H,13,14,15);/q;+1/p-1, purity 98%

System: sodium dodecyl sulfate + water; phases: Liquid
Fixed: Pressure, kPa = 101
Property: Speed of sound, m/s (Liquid); method: Pulse-echo method
Temperature, K	Molality, mol/kg of sodium dodecyl sulfate	Speed of sound, m/s	uncertainty
298.15	0.001	1497.2	1
298.15	0.003	1497.5	1
298.15	0.005	1497.8	1
298.15	0.007	1497.9	1
298.15	0.008	1497.9	1
298.15	0.01	1498.1	1
298.15	0.02	1498.2	1
298.15	0.03	1498.4	1
298.15	0.05	1498.3	1
298.15	0.07	1498.2	1
298.15	0.1	1498	1.3
298.15	0.103	1498.2	1
298.15	0.05	1498.3	1.3
303.15	0.001	1509.5	1
303.15	0.003	1509.8	1
303.15	0.005	1510.1	1
303.15	0.007	1510.1	1
303.15	0.008	1510.2	1
303.15	0.01	1510.3	1
303.15	0.02	1510.3	1
303.15	0.03	1510.4	1
303.15	0.05	1510.2	1
303.15	0.07	1509.9	1
303.15	0.103	1509.7	1
308.15	0.001	1520.1	1
308.15	0.003	1520.4	1
308.15	0.005	1520.6	1
308.15	0.007	1520.7	1
308.15	0.008	1520.7	1
308.15	0.01	1520.8	1
308.15	0.02	1520.8	1
308.15	0.03	1520.7	1
308.15	0.05	1520.3	1
308.15	0.07	1519.9	1
308.15	0.1	1519.1	1.3
308.15	0.103	1519.3	1
308.15	0.05	1520.2	1.3
313.15	0.001	1529	1
313.15	0.003	1529.3	1
313.15	0.005	1529.5	1
313.15	0.007	1529.5	1
313.15	0.008	1529.6	1
313.15	0.01	1529.7	1
313.15	0.02	1529.5	1
313.15	0.03	1529.4	1
313.15	0.05	1528.8	1
313.15	0.07	1528.2	1
313.15	0.103	1527.3	1

System: sodium dodecyl sulfate + water; phases: Liquid
Fixed: Pressure, kPa = 101
Property: Electrical conductivity, S/m (Liquid); method: DIgital conductivity meter (306) of Systronics
Molality, mol/kg of sodium dodecyl sulfate	Temperature, K	Electrical conductivity, S/m	uncertainty
0.05	298.15	1	0.6
0.05	308.15	2.1	0.6
0.1	298.15	2.6	0.6
0.1	308.15	3.4	0.6

System: sodium dodecyl sulfate + water; phases: Liquid
Fixed: Pressure, kPa = 101
Property: Viscosity, Pa*s (Liquid); method: Capillary tube (Ostwald; Ubbelohde) method
Molality, mol/kg of sodium dodecyl sulfate	Temperature, K	Viscosity, Pa*s	uncertainty
0.05	298.15	0.000986	1e-05
0.05	308.15	0.00079	9e-06
0.1	298.15	0.001133	1.2e-05
0.1	308.15	0.00087	1e-05

System: sodium dodecyl sulfate + water; phases: Liquid
Fixed: Pressure, kPa = 101
Property: Speed of sound, m/s (Liquid); method: Pulse-echo method
Molality, mol/kg of sodium dodecyl sulfate	Temperature, K	Speed of sound, m/s	uncertainty
0.05	298.15	1498.3	1.3
0.05	308.15	1520.2	1.3
0.1	298.15	1498	1.3
0.1	308.15	1519.1	1.3

System: sodium dodecyl sulfate + water; phases: Liquid
Fixed: Pressure, kPa = 101
Property: Mass density, kg/m3 (Liquid); method: VIBTUB:UFactor:4
Molality, mol/kg of sodium dodecyl sulfate	Temperature, K	Mass density, kg/m3	uncertainty
0.05	298.15	999.078	0.434
0.05	308.15	995.942	0.439
0.1	298.15	1000.966	0.436
0.1	308.15	997.734	0.436

System: pentan-1-ol + sodium dodecyl sulfate + water; phases: Liquid
Fixed: Pressure, kPa = 101
Property: Electrical conductivity, S/m (Liquid); method: DIgital conductivity meter (306) of Systronics
Solvent: Molality, mol/kg of sodium dodecyl sulfate	Molality, mol/kg of pentan-1-ol	Temperature, K	Electrical conductivity, S/m	uncertainty
0.05	0	298.15	1	0.6
0.05	0	308.15	2.1	0.6
0.05	0.053	298.15	1.1	0.6
0.05	0.053	308.15	2	0.6
0.05	0.062	298.15	1	0.6
0.05	0.062	308.15	2	0.6
0.05	0.074	298.15	1	0.6
0.05	0.074	308.15	1.9	0.6
0.05	0.078	298.15	0.9	0.6
0.05	0.078	308.15	1.9	0.6
0.05	0.104	298.15	0.8	0.6
0.05	0.104	308.15	1.9	0.6
0.05	0.154	298.15	0.5	0.6
0.05	0.154	308.15	1.7	0.6
0.05	0.169	298.15	0.4	0.6
0.05	0.169	308.15	1.6	0.6
0.05	0.184	298.15	0.3	0.6
0.05	0.184	308.15	1.5	0.6
0.05	0.25	298.15	0.1	0.6
0.05	0.25	308.15	0.1	0.6
0.1	0	298.15	2.6	0.6
0.1	0	308.15	3.4	0.6
0.1	0.07	298.15	2.6	0.6
0.1	0.07	308.15	3.3	0.6
0.1	0.093	298.15	2.5	0.6
0.1	0.093	308.15	3.2	0.6
0.1	0.096	298.15	2.4	0.6
0.1	0.096	308.15	3.2	0.6
0.1	0.106	298.15	2.4	0.6
0.1	0.106	308.15	3.1	0.6
0.1	0.153	298.15	1.9	0.6
0.1	0.153	308.15	2.2	0.6
0.1	0.19	298.15	1.4	0.6
0.1	0.19	308.15	1.3	0.6
0.1	0.25	298.15	0.2	0.6
0.1	0.25	308.15	0.2	0.6

System: pentan-1-ol + sodium dodecyl sulfate + water; phases: Liquid
Fixed: Pressure, kPa = 101
Property: Viscosity, Pa*s (Liquid); method: Capillary tube (Ostwald; Ubbelohde) method
Solvent: Molality, mol/kg of sodium dodecyl sulfate	Molality, mol/kg of pentan-1-ol	Temperature, K	Viscosity, Pa*s	uncertainty
0.05	0	298.15	0.000986	1e-05
0.05	0	308.15	0.00079	9e-06
0.05	0.053	298.15	0.001025	1.1e-05
0.05	0.053	308.15	0.000815	1e-05
0.05	0.062	298.15	0.001036	1.1e-05
0.05	0.062	308.15	0.00082	1e-05
0.05	0.074	298.15	0.001045	1.1e-05
0.05	0.074	308.15	0.000825	1e-05
0.05	0.078	298.15	0.00105	1.1e-05
0.05	0.078	308.15	0.000828	1e-05
0.05	0.104	298.15	0.001073	1.1e-05
0.05	0.104	308.15	0.000844	1e-05
0.05	0.154	298.15	0.001114	1.1e-05
0.05	0.154	308.15	0.000876	1e-05
0.05	0.169	298.15	0.001129	1.2e-05
0.05	0.169	308.15	0.000885	1e-05
0.05	0.184	298.15	0.001144	1.2e-05
0.05	0.184	308.15	0.000896	1e-05
0.05	0.25	298.15	0.0012	1.2e-05
0.05	0.25	308.15	0.00094	1.1e-05
0.1	0	298.15	0.001133	1.2e-05
0.1	0	308.15	0.00087	1e-05
0.1	0.07	298.15	0.001185	1.2e-05
0.1	0.07	308.15	0.00091	1.1e-05
0.1	0.093	298.15	0.001204	1.2e-05
0.1	0.093	308.15	0.000926	1.1e-05
0.1	0.096	298.15	0.001206	1.2e-05
0.1	0.096	308.15	0.000928	1.1e-05
0.1	0.106	298.15	0.001212	1.2e-05
0.1	0.106	308.15	0.000935	1.1e-05
0.1	0.153	298.15	0.001243	1.2e-05
0.1	0.153	308.15	0.000962	1.1e-05
0.1	0.19	298.15	0.001271	1.3e-05
0.1	0.19	308.15	0.000984	1.1e-05
0.1	0.25	298.15	0.001314	1.3e-05
0.1	0.25	308.15	0.001021	1.1e-05

System: pentan-1-ol + sodium dodecyl sulfate + water; phases: Liquid
Fixed: Pressure, kPa = 101
Property: Speed of sound, m/s (Liquid); method: Pulse-echo method
Solvent: Molality, mol/kg of sodium dodecyl sulfate	Molality, mol/kg of pentan-1-ol	Temperature, K	Speed of sound, m/s	uncertainty
0.05	0	298.15	1498.3	1.3
0.05	0	308.15	1520.2	1.3
0.05	0.053	298.15	1500	1.3
0.05	0.053	308.15	1521.2	1.3
0.05	0.062	298.15	1500.3	1.3
0.05	0.062	308.15	1521.4	1.3
0.05	0.074	298.15	1500.7	1.3
0.05	0.074	308.15	1521.6	1.3
0.05	0.078	298.15	1500.8	1.3
0.05	0.078	308.15	1521.7	1.3
0.05	0.104	298.15	1501.7	1.3
0.05	0.104	308.15	1522.3	1.3
0.05	0.154	298.15	1503.6	1.3
0.05	0.154	308.15	1523.4	1.3
0.05	0.169	298.15	1504.2	1.3
0.05	0.169	308.15	1523.8	1.3
0.05	0.184	298.15	1504.8	1.3
0.05	0.184	308.15	1524.2	1.3
0.05	0.25	298.15	1506.5	1.3
0.05	0.25	308.15	1524.5	1.3
0.1	0	298.15	1498	1.3
0.1	0	308.15	1519.1	1.3
0.1	0.07	298.15	1499.4	1.3
0.1	0.07	308.15	1519.5	1.3
0.1	0.093	298.15	1499.8	1.3
0.1	0.093	308.15	1519.6	1.3
0.1	0.096	298.15	1499.9	1.3
0.1	0.096	308.15	1519.6	1.3
0.1	0.106	298.15	1500.2	1.3
0.1	0.106	308.15	1519.7	1.3
0.1	0.153	298.15	1501.2	1.3
0.1	0.153	308.15	1520.1	1.3
0.1	0.19	298.15	1502.1	1.3
0.1	0.19	308.15	1520.5	1.3
0.1	0.25	298.15	1503.7	1.3
0.1	0.25	308.15	1521.2	1.3

System: pentan-1-ol + sodium dodecyl sulfate + water; phases: Liquid
Fixed: Pressure, kPa = 101
Property: Mass density, kg/m3 (Liquid); method: VIBTUB:UFactor:4
Solvent: Molality, mol/kg of sodium dodecyl sulfate	Molality, mol/kg of pentan-1-ol	Temperature, K	Mass density, kg/m3	uncertainty
0.05	0	298.15	999.078	0.434
0.05	0	308.15	995.942	0.439
0.05	0.053	298.15	998.263	0.436
0.05	0.053	308.15	995.102	0.44
0.05	0.062	298.15	998.111	0.436
0.05	0.062	308.15	994.942	0.441
0.05	0.074	298.15	997.938	0.436
0.05	0.074	308.15	994.75	0.441
0.05	0.078	298.15	997.861	0.436
0.05	0.078	308.15	994.68	0.441
0.05	0.104	298.15	997.46	0.437
0.05	0.104	308.15	994.258	0.442
0.05	0.154	298.15	996.675	0.438
0.05	0.154	308.15	993.427	0.443
0.05	0.169	298.15	996.44	0.438
0.05	0.169	308.15	993.137	0.443
0.05	0.184	298.15	996.2	0.439
0.05	0.184	308.15	992.92	0.444
0.05	0.25	298.15	995.145	0.44
0.05	0.25	308.15	991.79	0.445
0.1	0	298.15	1000.966	0.436
0.1	0	308.15	997.734	0.436
0.1	0.07	298.15	999.848	0.433
0.1	0.07	308.15	996.585	0.438
0.1	0.093	298.15	999.49	0.434
0.1	0.093	308.15	996.208	0.439
0.1	0.096	298.15	999.434	0.434
0.1	0.096	308.15	996.15	0.439
0.1	0.106	298.15	999.267	0.434
0.1	0.106	308.15	995.976	0.439
0.1	0.153	298.15	998.507	0.435
0.1	0.153	308.15	995.169	0.44
0.1	0.19	298.15	997.905	0.436
0.1	0.19	308.15	994.525	0.441
0.1	0.25	298.15	996.914	0.438
0.1	0.25	308.15	993.456	0.443

System: hexan-1-ol + sodium dodecyl sulfate + water; phases: Liquid
Fixed: Pressure, kPa = 101
Property: Electrical conductivity, S/m (Liquid); method: DIgital conductivity meter (306) of Systronics
Solvent: Molality, mol/kg of sodium dodecyl sulfate	Molality, mol/kg of hexan-1-ol	Temperature, K	Electrical conductivity, S/m	uncertainty
0.05	0	298.15	1	0.6
0.05	0	308.15	2.1	0.6
0.05	0.02	298.15	1	0.6
0.05	0.02	308.15	1.5	0.6
0.05	0.03	298.15	1	0.6
0.05	0.03	308.15	1.5	0.6
0.05	0.043	298.15	0.9	0.6
0.05	0.043	308.15	1.5	0.6
0.05	0.045	298.15	0.9	0.6
0.05	0.045	308.15	1.5	0.6
0.05	0.06	298.15	0.5	0.6
0.05	0.06	308.15	1	0.6
0.05	0.07	298.15	0.1	0.6
0.05	0.07	308.15	0.4	0.6
0.05	0.082	298.15	0	0.6
0.05	0.082	308.15	0	0.6
0.1	0	298.15	2.6	0.6
0.1	0	308.15	3.4	0.6
0.1	0.02	298.15	1.2	0.6
0.1	0.02	308.15	2.2	0.6
0.1	0.03	298.15	1.2	0.6
0.1	0.03	308.15	2.2	0.6
0.1	0.04	298.15	1.2	0.6
0.1	0.04	308.15	2.2	0.6
0.1	0.05	298.15	1.4	0.6
0.1	0.05	308.15	2	0.6
0.1	0.057	298.15	1.1	0.6
0.1	0.057	308.15	1.7	0.6
0.1	0.062	298.15	0.9	0.6
0.1	0.062	308.15	1.3	0.6
0.1	0.07	298.15	0.8	0.6
0.1	0.07	308.15	0.8	0.6
0.1	0.08	298.15	0.6	0.6
0.1	0.08	308.15	0.2	0.6

System: hexan-1-ol + sodium dodecyl sulfate + water; phases: Liquid
Fixed: Pressure, kPa = 101
Property: Viscosity, Pa*s (Liquid); method: Capillary tube (Ostwald; Ubbelohde) method
Solvent: Molality, mol/kg of sodium dodecyl sulfate	Molality, mol/kg of hexan-1-ol	Temperature, K	Viscosity, Pa*s	uncertainty
0.05	0	298.15	0.000986	1e-05
0.05	0	308.15	0.00079	9e-06
0.05	0.01	298.15	0.001005	1.1e-05
0.05	0.01	308.15	0.000797	1e-05
0.05	0.02	298.15	0.00102	1.1e-05
0.05	0.02	308.15	0.000805	1e-05
0.05	0.03	298.15	0.001035	1.1e-05
0.05	0.03	308.15	0.000815	1e-05
0.05	0.043	298.15	0.001054	1.1e-05
0.05	0.043	308.15	0.000828	1e-05
0.05	0.045	298.15	0.001058	1.1e-05
0.05	0.045	308.15	0.00083	1e-05
0.05	0.06	298.15	0.001084	1.1e-05
0.05	0.06	308.15	0.000845	1e-05
0.05	0.07	298.15	0.001099	1.1e-05
0.05	0.07	308.15	0.000855	1e-05
0.05	0.082	298.15	0.001118	1.2e-05
0.05	0.082	308.15	0.000867	1e-05
0.1	0	298.15	0.001133	1.2e-05
0.1	0	308.15	0.00087	1e-05
0.1	0.01	298.15	0.00114	1.2e-05
0.1	0.01	308.15	0.000885	1e-05
0.1	0.02	298.15	0.001147	1.2e-05
0.1	0.02	308.15	0.000893	1e-05
0.1	0.03	298.15	0.001155	1.2e-05
0.1	0.03	308.15	0.000902	1.1e-05
0.1	0.04	298.15	0.001165	1.2e-05
0.1	0.04	308.15	0.00091	1.1e-05
0.1	0.05	298.15	0.001176	1.2e-05
0.1	0.05	308.15	0.000918	1.1e-05
0.1	0.057	298.15	0.001181	1.2e-05
0.1	0.057	308.15	0.000922	1.1e-05
0.1	0.062	298.15	0.001187	1.2e-05
0.1	0.062	308.15	0.000925	1.1e-05
0.1	0.07	298.15	0.001193	1.2e-05
0.1	0.07	308.15	0.000931	1.1e-05
0.1	0.08	298.15	0.001204	1.2e-05
0.1	0.08	308.15	0.000939	1.1e-05

System: hexan-1-ol + sodium dodecyl sulfate + water; phases: Liquid
Fixed: Pressure, kPa = 101
Property: Speed of sound, m/s (Liquid); method: Pulse-echo method
Solvent: Molality, mol/kg of sodium dodecyl sulfate	Molality, mol/kg of hexan-1-ol	Temperature, K	Speed of sound, m/s	uncertainty
0.05	0	298.15	1498.3	1.3
0.05	0	308.15	1520.2	1.3
0.05	0.01	298.15	1498.4	1.3
0.05	0.01	308.15	1520.2	1.3
0.05	0.02	298.15	1498.4	1.3
0.05	0.02	308.15	1520.1	1.3
0.05	0.03	298.15	1498.5	1.3
0.05	0.03	308.15	1520	1.3
0.05	0.043	298.15	1498.6	1.3
0.05	0.043	308.15	1519.9	1.3
0.05	0.045	298.15	1498.6	1.3
0.05	0.045	308.15	1519.9	1.3
0.05	0.06	298.15	1498.7	1.3
0.05	0.06	308.15	1519.7	1.3
0.05	0.07	298.15	1498.7	1.3
0.05	0.07	308.15	1519.6	1.3
0.05	0.082	298.15	1498.8	1.3
0.05	0.082	308.15	1519.5	1.3
0.1	0	298.15	1498	1.3
0.1	0	308.15	1519.1	1.3
0.1	0.01	298.15	1498	1.3
0.1	0.01	308.15	1519	1.3
0.1	0.02	298.15	1498	1.3
0.1	0.02	308.15	1518.9	1.3
0.1	0.03	298.15	1498	1.3
0.1	0.03	308.15	1518.8	1.3
0.1	0.04	298.15	1498.1	1.3
0.1	0.04	308.15	1518.7	1.3
0.1	0.05	298.15	1498.1	1.3
0.1	0.05	308.15	1518.5	1.3
0.1	0.057	298.15	1498.1	1.3
0.1	0.057	308.15	1518.5	1.3
0.1	0.062	298.15	1498.1	1.3
0.1	0.062	308.15	1518.4	1.3
0.1	0.07	298.15	1498.1	1.3
0.1	0.07	308.15	1518.3	1.3
0.1	0.08	298.15	1498.1	1.3
0.1	0.08	308.15	1518.2	1.3

System: hexan-1-ol + sodium dodecyl sulfate + water; phases: Liquid
Fixed: Pressure, kPa = 101
Property: Mass density, kg/m3 (Liquid); method: VIBTUB:UFactor:4
Solvent: Molality, mol/kg of sodium dodecyl sulfate	Molality, mol/kg of hexan-1-ol	Temperature, K	Mass density, kg/m3	uncertainty
0.05	0	298.15	999.078	0.435
0.05	0	308.15	995.942	0.439
0.05	0.01	298.15	998.897	0.435
0.05	0.01	308.15	995.758	0.439
0.05	0.02	298.15	998.713	0.437
0.05	0.02	308.15	995.57	0.441
0.05	0.03	298.15	998.529	0.435
0.05	0.03	308.15	995.378	0.44
0.05	0.043	298.15	998.287	0.436
0.05	0.043	308.15	995.125	0.44
0.05	0.045	298.15	998.25	0.436
0.05	0.045	308.15	995.086	0.44
0.05	0.06	298.15	997.967	0.436
0.05	0.06	308.15	994.786	0.441
0.05	0.07	298.15	997.78	0.436
0.05	0.07	308.15	994.586	0.441
0.05	0.082	298.15	997.551	0.437
0.05	0.082	308.15	994.343	0.442
0.1	0	298.15	1000.966	0.436
0.1	0	308.15	997.734	0.437
0.1	0.01	298.15	1000.779	0.435
0.1	0.01	308.15	997.545	0.437
0.1	0.02	298.15	1000.59	0.666
0.1	0.02	308.15	997.351	0.56
0.1	0.03	298.15	1000.398	0.434
0.1	0.03	308.15	997.152	0.492
0.1	0.04	298.15	1000.203	0.434
0.1	0.04	308.15	996.949	0.438
0.1	0.05	298.15	1000.008	0.433
0.1	0.05	308.15	996.746	0.438
0.1	0.057	298.15	999.869	0.433
0.1	0.057	308.15	996.601	0.438
0.1	0.062	298.15	999.768	0.434
0.1	0.062	308.15	996.494	0.438
0.1	0.07	298.15	999.611	0.434
0.1	0.07	308.15	996.328	0.439
0.1	0.08	298.15	999.411	0.434
0.1	0.08	308.15	996.119	0.439
