Measured thermophysical data. Relative Permittivities, Refractive Indices, and Densities of Dihydrofuran-2(3H)-one + Butan-1-ol and + Butan-2-ol at T = (293.15, 298.15, 303.15, and 313.15) K
Source: J. Chem. Eng. Data, 2010, 10.1021/je900503p
Compound 1: butan-1-ol, C4H10O, InChI=1S/C4H10O/c1-2-3-4-5/h5H,2-4H2,1H3
Compound 2: butan-2-ol, C4H10O, InChI=1S/C4H10O/c1-3-4(2)5/h4-5H,3H2,1-2H3
Compound 3: .gamma.-butyrolactone, C4H6O2, InChI=1S/C4H6O2/c5-4-2-1-3-6-4/h1-3H2

System: butan-1-ol; phases: Liquid
Fixed: Pressure, kPa = 101.325
Property: Refractive index (Na D-line) (Liquid); method: ABBE:UFactor:4
Temperature, K	Refractive index (Na D-line)	uncertainty
293.15	1.3992	0.0012
298.15	1.3972	0.0012
303.15	1.3963	0.0012
313.15	1.392	0.0012

System: butan-1-ol; phases: Liquid
Fixed: Pressure, kPa = 101
Property: Relative permittivity at zero frequency (Liquid); method: Dekameter
Temperature, K	Relative permittivity at zero frequency	uncertainty
293.15	18.26	0.06
298.15	17.54	0.06
303.15	16.89	0.06
313.15	15.45	0.06

System: butan-1-ol; phases: Liquid
Fixed: Pressure, kPa = 101
Property: Mass density, kg/m3 (Liquid); method: VIBTUB:UFactor:4
Temperature, K	Mass density, kg/m3	uncertainty
293.15	809.52	0.43
298.15	805.58	0.43
303.15	801.92	0.44
313.15	794.26	0.45

System: butan-2-ol; phases: Liquid
Fixed: Pressure, kPa = 101.325
Property: Refractive index (Na D-line) (Liquid); method: ABBE::UFactor:4
Temperature, K	Refractive index (Na D-line)	uncertainty
293.15	1.3992	0.0012
298.15	1.3954	0.0012
303.15	1.3948	0.0012
313.15	1.391	0.0012

System: butan-2-ol; phases: Liquid
Fixed: Pressure, kPa = 101
Property: Relative permittivity at zero frequency (Liquid); method: Dekameter
Temperature, K	Relative permittivity at zero frequency	uncertainty
293.15	17.51	0.06
298.15	16.58	0.06
303.15	15.75	0.06
313.15	14.44	0.06

System: butan-2-ol; phases: Liquid
Fixed: Pressure, kPa = 101
Property: Mass density, kg/m3 (Liquid); method: VIBTUB:UFactor:4
Temperature, K	Mass density, kg/m3	uncertainty
293.15	805.54	0.46
298.15	802.06	0.47
303.15	798.45	0.47
313.15	790.07	0.48

System: .gamma.-butyrolactone; phases: Liquid
Fixed: Pressure, kPa = 101.325
Property: Refractive index (Na D-line) (Liquid); method: ABBE:UFactor:4
Temperature, K	Refractive index (Na D-line)	uncertainty
293.15	1.437	0.0013
298.15	1.4356	0.0013
303.15	1.4334	0.0013
313.15	1.429	0.0013

System: .gamma.-butyrolactone; phases: Liquid
Fixed: Pressure, kPa = 101
Property: Relative permittivity at zero frequency (Liquid); method: Dekameter
Temperature, K	Relative permittivity at zero frequency	uncertainty
293.15	42.34	0.06
293.15	42.81	0.06
298.15	41.64	0.06
303.15	41.1	0.06
313.15	39.92	0.06

System: .gamma.-butyrolactone; phases: Liquid
Fixed: Pressure, kPa = 101
Property: Mass density, kg/m3 (Liquid); method: VIBTUB:UFactor:4
Temperature, K	Mass density, kg/m3	uncertainty
293.15	1128.79	0.58
298.15	1123.75	0.57
303.15	1118.79	0.56
313.15	1121.76	0.56
313.15	1108.88	0.54

System: butan-1-ol + .gamma.-butyrolactone; phases: Liquid
Fixed: Pressure, kPa = 101
Property: Refractive index (Na D-line) (Liquid); method: ABBE:UFactor:4
Temperature, K	Mole fraction of .gamma.-butyrolactone	Refractive index (Na D-line)	uncertainty
293.15	0.1098	1.4026	0.0012
293.15	0.2154	1.4063	0.0012
293.15	0.3009	1.4096	0.0012
293.15	0.4127	1.4136	0.0012
293.15	0.5088	1.4172	0.0012
293.15	0.6124	1.4213	0.0012
293.15	0.7001	1.4247	0.0012
293.15	0.8133	1.4294	0.0013
293.15	0.9078	1.4332	0.0013
298.15	0.1098	1.4014	0.0012
298.15	0.2154	1.4051	0.0012
298.15	0.3009	1.4083	0.0012
298.15	0.4127	1.4124	0.0012
298.15	0.5088	1.416	0.0012
298.15	0.6124	1.42	0.0012
298.15	0.7001	1.4234	0.0012
298.15	0.8133	1.4279	0.0013
298.15	0.9078	1.4316	0.0013
303.15	0.1098	1.4	0.0012
303.15	0.2154	1.4038	0.0012
303.15	0.3009	1.407	0.0012
303.15	0.4127	1.4111	0.0012
303.15	0.5088	1.4147	0.0012
303.15	0.6124	1.4186	0.0012
303.15	0.7001	1.4219	0.0012
303.15	0.8133	1.4263	0.0013
303.15	0.9078	1.43	0.0013
313.15	0.1098	1.3973	0.0012
313.15	0.2154	1.4013	0.0012
313.15	0.3009	1.4044	0.0012
313.15	0.4127	1.4085	0.0012
313.15	0.5088	1.4121	0.0012
313.15	0.6124	1.4158	0.0012
313.15	0.7001	1.4192	0.0012
313.15	0.8133	1.4232	0.0013
313.15	0.9078	1.4267	0.0013

System: butan-1-ol + .gamma.-butyrolactone; phases: Liquid
Fixed: Pressure, kPa = 101
Property: Relative permittivity at zero frequency (Liquid); method: Dekameter
Temperature, K	Mole fraction of .gamma.-butyrolactone	Relative permittivity at zero frequency	uncertainty
293.15	0.1098	20.68	0.06
293.15	0.2154	22.37	0.06
293.15	0.3009	23.98	0.06
293.15	0.4127	26.17	0.06
293.15	0.5088	28.44	0.06
293.15	0.6124	31.29	0.06
293.15	0.7001	33.79	0.06
293.15	0.8133	37.12	0.06
293.15	0.9078	40.02	0.06
298.15	0.1098	19.61	0.06
298.15	0.2154	21.23	0.06
298.15	0.3009	22.55	0.06
298.15	0.4127	24.92	0.06
298.15	0.5088	27.23	0.06
298.15	0.6124	29.79	0.06
298.15	0.7001	32.21	0.06
298.15	0.8133	36.01	0.06
298.15	0.9078	39.13	0.06
303.15	0.1098	18.57	0.06
303.15	0.2154	19.99	0.06
303.15	0.3009	21.61	0.06
303.15	0.4127	23.88	0.06
303.15	0.5088	26.16	0.06
303.15	0.6124	28.82	0.06
303.15	0.7001	31.34	0.06
303.15	0.8133	35.03	0.06
303.15	0.9078	38.46	0.06
313.15	0.1098	16.65	0.06
313.15	0.2154	18.16	0.06
313.15	0.3009	19.99	0.06
313.15	0.4127	22.01	0.06
313.15	0.5088	24.43	0.06
313.15	0.6124	26.76	0.06
313.15	0.7001	29.25	0.06
313.15	0.8133	33.05	0.06
313.15	0.9078	36.56	0.06

System: butan-1-ol + .gamma.-butyrolactone; phases: Liquid
Fixed: Pressure, kPa = 101
Property: Mass density, kg/m3 (Liquid); method: VIBTUB:UFactor:4
Temperature, K	Mole fraction of .gamma.-butyrolactone	Mass density, kg/m3	uncertainty
293.15	0.0786	831.12	0.41
293.15	0.1555	852.82	0.39
293.15	0.2466	879.28	0.36
293.15	0.2901	892.18	0.34
293.15	0.3664	915.23	0.32
293.15	0.4332	935.89	0.3
293.15	0.4988	956.54	0.29
293.15	0.5616	976.71	0.27
293.15	0.6336	1000.34	0.26
293.15	0.7033	1023.73	0.31
293.15	0.7956	1055.39	0.39
293.15	0.8654	1080.09	0.46
293.15	0.9334	1104.36	0.52
293.15	0.9888	1124.69	0.58
298.15	0.0786	827.22	0.42
298.15	0.1555	848.94	0.39
298.15	0.2466	875.32	0.36
298.15	0.2901	888.19	0.35
298.15	0.3664	911.2	0.33
298.15	0.4332	931.77	0.31
298.15	0.4988	952.35	0.29
298.15	0.5616	972.46	0.28
298.15	0.6336	996.03	0.26
298.15	0.7033	1019.35	0.31
298.15	0.7956	1050.92	0.38
298.15	0.8654	1075.34	0.45
298.15	0.9334	1099.62	0.51
298.15	0.9888	1119.77	0.57
303.15	0.0786	823.57	0.42
303.15	0.1555	845.28	0.4
303.15	0.2466	871.63	0.37
303.15	0.2901	884.43	0.35
303.15	0.3664	907.36	0.33
303.15	0.4332	927.87	0.31
303.15	0.4988	948.38	0.3
303.15	0.5616	968.43	0.28
303.15	0.6336	991.92	0.27
303.15	0.7033	1015.09	0.3
303.15	0.7956	1046.55	0.37
303.15	0.8654	1070.81	0.44
303.15	0.9334	1094.88	0.51
303.15	0.9888	1114.92	0.55
313.15	0.0786	816.82	0.44
313.15	0.1555	839.3	0.41
313.15	0.2466	866.62	0.38
313.15	0.2901	879.94	0.36
313.15	0.3664	903.64	0.34
313.15	0.4332	924.87	0.32
313.15	0.4988	946.17	0.3
313.15	0.5616	966.89	0.29
313.15	0.6336	991.1	0.27
313.15	0.7033	1015.08	0.3
313.15	0.7956	1047.44	0.38
313.15	0.8654	1072.54	0.44
313.15	0.9334	1097.32	0.51
313.15	0.9888	1118.1	0.57

System: butan-2-ol + .gamma.-butyrolactone; phases: Liquid
Fixed: Pressure, kPa = 101
Property: Refractive index (Na D-line) (Liquid); method: ABBE:UFactor:4
Temperature, K	Mole fraction of .gamma.-butyrolactone	Refractive index (Na D-line)	uncertainty
293.15	0.1009	1.4004	0.0012
293.15	0.2112	1.4009	0.0012
293.15	0.3009	1.4021	0.0012
293.15	0.4008	1.4043	0.0012
293.15	0.5088	1.4076	0.0012
293.15	0.6003	1.4112	0.0013
293.15	0.7001	1.4162	0.0013
293.15	0.8055	1.4221	0.0013
293.15	0.9011	1.4285	0.0013
298.15	0.1009	1.3976	0.0012
298.15	0.2112	1.3978	0.0012
298.15	0.3009	1.3986	0.0012
298.15	0.4008	1.4005	0.0012
298.15	0.5088	1.4036	0.0012
298.15	0.6003	1.4071	0.0013
298.15	0.7001	1.4119	0.0013
298.15	0.8055	1.4175	0.0013
298.15	0.9011	1.4236	0.0013
303.15	0.1009	1.394	0.0012
303.15	0.2112	1.3943	0.0012
303.15	0.3009	1.3952	0.0012
303.15	0.4008	1.3974	0.0012
303.15	0.5088	1.4004	0.0012
303.15	0.6003	1.4036	0.0013
303.15	0.7001	1.4082	0.0013
303.15	0.8055	1.4135	0.0013
303.15	0.9011	1.4195	0.0013
313.15	0.1009	1.3909	0.0012
313.15	0.2112	1.3906	0.0012
313.15	0.3009	1.3912	0.0012
313.15	0.4008	1.3925	0.0012
313.15	0.5088	1.3952	0.0012
313.15	0.6003	1.3984	0.0013
313.15	0.7001	1.4023	0.0013
313.15	0.8055	1.4078	0.0013
313.15	0.9011	1.4133	0.0013

System: butan-2-ol + .gamma.-butyrolactone; phases: Liquid
Fixed: Pressure, kPa = 101
Property: Relative permittivity at zero frequency (Liquid); method: Dekameter
Temperature, K	Mole fraction of .gamma.-butyrolactone	Relative permittivity at zero frequency	uncertainty
293.15	0.1009	17.91	0.06
293.15	0.2112	19.08	0.06
293.15	0.3009	20.56	0.06
293.15	0.4008	22.53	0.06
293.15	0.5088	25.16	0.06
293.15	0.6003	27.69	0.06
293.15	0.7001	30.91	0.06
293.15	0.8055	34.66	0.06
293.15	0.9011	38.29	0.06
298.15	0.1009	16.66	0.06
298.15	0.2112	17.89	0.06
298.15	0.3009	19.48	0.06
298.15	0.4008	21.48	0.06
298.15	0.5088	24.01	0.06
298.15	0.6003	26.59	0.06
298.15	0.7001	29.67	0.06
298.15	0.8055	33.02	0.06
298.15	0.9011	37.47	0.06
303.15	0.1009	16.75	0.06
303.15	0.2112	18.21	0.06
303.15	0.3009	19.37	0.06
303.15	0.4008	21.28	0.06
303.15	0.5088	23.71	0.06
303.15	0.6003	26.26	0.06
303.15	0.7001	29.48	0.06
303.15	0.8055	33.39	0.06
303.15	0.9011	36.73	0.06
313.15	0.1009	16.09	0.06
313.15	0.2112	17.48	0.06
313.15	0.3009	18.55	0.06
313.15	0.4008	20.43	0.06
313.15	0.5088	22.86	0.06
313.15	0.6003	25.55	0.06
313.15	0.7001	28.79	0.06
313.15	0.8055	32.73	0.06
313.15	0.9011	36.05	0.06

System: butan-2-ol + .gamma.-butyrolactone; phases: Liquid
Fixed: Pressure, kPa = 101
Property: Mass density, kg/m3 (Liquid); method: VIBTUB:UFactor:4
Temperature, K	Mole fraction of .gamma.-butyrolactone	Mass density, kg/m3	uncertainty
293.15	0.0564	820.99	0.45
293.15	0.1213	839.11	0.43
293.15	0.2541	877.55	0.39
293.15	0.3003	891.34	0.38
293.15	0.3895	918.62	0.35
293.15	0.4574	939.95	0.34
293.15	0.5005	953.71	0.32
293.15	0.5876	982.13	0.3
293.15	0.6442	1001.11	0.29
293.15	0.7127	1024.55	0.34
293.15	0.8006	1055.41	0.41
293.15	0.8554	1075.08	0.46
293.15	0.9262	1101.09	0.53
293.15	0.9785	1120.58	0.58
298.15	0.0564	817.52	0.46
298.15	0.1213	835.59	0.44
298.15	0.2541	873.9	0.4
298.15	0.3003	887.63	0.39
298.15	0.3895	914.8	0.36
298.15	0.4574	936.03	0.34
298.15	0.5005	949.73	0.33
298.15	0.5876	978.07	0.31
298.15	0.6442	996.91	0.29
298.15	0.7127	1020.25	0.34
298.15	0.8006	1050.96	0.41
298.15	0.8554	1070.55	0.45
298.15	0.9262	1096.44	0.52
298.15	0.9785	1115.89	0.57
303.15	0.0564	814	0.46
303.15	0.1213	831.99	0.44
303.15	0.2541	870.15	0.4
303.15	0.3003	883.83	0.39
303.15	0.3895	910.88	0.36
303.15	0.4574	932.02	0.34
303.15	0.5005	945.67	0.33
303.15	0.5876	973.9	0.31
303.15	0.6442	992.68	0.3
303.15	0.7127	1015.92	0.33
303.15	0.8006	1046.52	0.4
303.15	0.8554	1066.03	0.44
303.15	0.9262	1091.83	0.51
303.15	0.9785	1111.21	0.56
313.15	0.0564	805.57	0.48
313.15	0.1213	823.45	0.46
313.15	0.2541	861.53	0.41
313.15	0.3003	875.2	0.4
313.15	0.3895	902.14	0.38
313.15	0.4574	923.19	0.36
313.15	0.5005	936.83	0.35
313.15	0.5876	964.91	0.32
313.15	0.6442	983.59	0.31
313.15	0.7127	1006.75	0.31
313.15	0.8006	1037.12	0.38
313.15	0.8554	1056.44	0.43
313.15	0.9262	1081.97	0.49
313.15	0.9785	1101.4	0.54
