Measured thermophysical data. Densities, Viscosities, and Refractive Indices of Binary Mixtures of Methyl Ethyl Ketone + Pentanol Isomers at Different Temperatures
Source: J. Chem. Eng. Data, 2010, 10.1021/je901067c
Compound 1: butanone, C4H8O, InChI=1S/C4H8O/c1-3-4(2)5/h3H2,1-2H3
Compound 2: pentan-1-ol, C5H12O, InChI=1S/C5H12O/c1-2-3-4-5-6/h6H,2-5H2,1H3
Compound 3: pentan-2-ol, C5H12O, InChI=1S/C5H12O/c1-3-4-5(2)6/h5-6H,3-4H2,1-2H3
Compound 4: 3-pentanol, C5H12O, InChI=1S/C5H12O/c1-3-5(6)4-2/h5-6H,3-4H2,1-2H3

System: butanone; phases: Liquid
Fixed: Pressure, kPa = 101.325
Property: Refractive index (Na D-line) (Liquid); method: Standard Abbe refractometry
Temperature, K	Refractive index (Na D-line)	uncertainty
298.15	1.375	0.0009
308.15	1.37	0.0009
318.15	1.3657	0.0009

System: butanone; phases: Liquid
Fixed: Pressure, kPa = 101
Property: Viscosity, Pa*s (Liquid); method: Capillary tube (Ostwald; Ubbelohde) method
Temperature, K	Viscosity, Pa*s	uncertainty
298.15	0.000391	5e-06
308.15	0.000361	5e-06
318.15	0.000334	5e-06

System: butanone; phases: Liquid
Fixed: Pressure, kPa = 101
Property: Mass density, kg/m3 (Liquid); method: VIBTUB:UFactor:4
Temperature, K	Mass density, kg/m3	uncertainty
298.15	799.76	0.56
308.15	789.21	0.58
318.15	778.52	0.59

System: pentan-1-ol; phases: Liquid
Fixed: Pressure, kPa = 101.325
Property: Refractive index (Na D-line) (Liquid); method: Standard Abbe refractometry
Temperature, K	Refractive index (Na D-line)	uncertainty
298.15	1.4068	0.0009
308.15	1.4031	0.0009
318.15	1.3996	0.0009

System: pentan-1-ol; phases: Liquid
Fixed: Pressure, kPa = 101
Property: Viscosity, Pa*s (Liquid); method: Capillary tube (Ostwald; Ubbelohde) method
Temperature, K	Viscosity, Pa*s	uncertainty
298.15	0.00354	2.6e-05
308.15	0.002658	2e-05
318.15	0.002288	1.7e-05

System: pentan-1-ol; phases: Liquid
Fixed: Pressure, kPa = 101
Property: Mass density, kg/m3 (Liquid); method: VIBTUB::UFactor:4
Temperature, K	Mass density, kg/m3	uncertainty
298.15	810.85	0.55
308.15	803.45	0.56
318.15	795.9	0.57

System: pentan-2-ol; phases: Liquid
Fixed: Pressure, kPa = 101.325
Property: Refractive index (Na D-line) (Liquid); method: Standard Abbe refractometry
Temperature, K	Refractive index (Na D-line)	uncertainty
298.15	1.4032	0.0009
308.15	1.399	0.0009
318.15	1.395	0.0009

System: pentan-2-ol; phases: Liquid
Fixed: Pressure, kPa = 101
Property: Viscosity, Pa*s (Liquid); method: Capillary tube (Ostwald; Ubbelohde) method
Temperature, K	Viscosity, Pa*s	uncertainty
298.15	0.003478	2.6e-05
308.15	0.002361	1.8e-05
318.15	0.001772	1.4e-05

System: pentan-2-ol; phases: Liquid
Fixed: Pressure, kPa = 101
Property: Mass density, kg/m3 (Liquid); method: VIBTUB::UFactor:4
Temperature, K	Mass density, kg/m3	uncertainty
298.15	805.3	0.56
308.15	797	0.57
318.15	788.37	0.58

System: 3-pentanol; phases: Liquid
Fixed: Pressure, kPa = 101.325
Property: Refractive index (Na D-line) (Liquid); method: Standard Abbe refractometry
Temperature, K	Refractive index (Na D-line)	uncertainty
298.15	1.4047	0.0009
308.15	1.4029	0.0009
318.15	1.3981	0.0009

System: 3-pentanol; phases: Liquid
Fixed: Pressure, kPa = 101
Property: Viscosity, Pa*s (Liquid); method: Capillary tube (Ostwald; Ubbelohde) method
Temperature, K	Viscosity, Pa*s	uncertainty
298.15	0.004625	3.4e-05
308.15	0.002864	2.2e-05
318.15	0.0019025	1.47e-05

System: 3-pentanol; phases: Liquid
Fixed: Pressure, kPa = 101
Property: Mass density, kg/m3 (Liquid); method: VIBTUB::UFactor:4
Temperature, K	Mass density, kg/m3	uncertainty
298.15	815.79	0.54
308.15	806.91	0.56
318.15	797.66	0.57

System: butanone + pentan-2-ol; phases: Liquid
Fixed: Pressure, kPa = 101
Property: Viscosity, Pa*s (Liquid); method: Capillary tube (Ostwald; Ubbelohde) method
Temperature, K	Mole fraction of butanone	Viscosity, Pa*s	uncertainty
298.15	0	0.003478	2.6e-05
298.15	0.0824	0.002664	2e-05
298.15	0.1612	0.002066	1.6e-05
298.15	0.2401	0.00169	1.3e-05
298.15	0.3519	0.001347	1.1e-05
298.15	0.4396	0.001131	9e-06
298.15	0.5608	0.000886	8e-06
298.15	0.6494	0.000743	7e-06
298.15	0.7403	0.000623	6e-06
298.15	0.8491	0.000505	6e-06
298.15	0.9384	0.000436	5e-06
298.15	1	0.000391	5e-06
308.15	0	0.002361	1.8e-05
308.15	0.0824	0.001778	1.4e-05
308.15	0.1612	0.001381	1.1e-05
308.15	0.2401	0.001105	9e-06
308.15	0.3519	0.000865	8e-06
308.15	0.4396	0.000731	7e-06
308.15	0.5608	0.000587	6e-06
308.15	0.6494	0.000518	6e-06
308.15	0.7403	0.000462	6e-06
308.15	0.8491	0.000406	5e-06
308.15	0.9384	0.000371	5e-06
308.15	1	0.000361	5e-06
318.15	0	0.001772	1.4e-05
318.15	0.0824	0.001344	1.1e-05
318.15	0.1612	0.001094	9e-06
318.15	0.2401	0.000897	8e-06
318.15	0.3519	0.000721	7e-06
318.15	0.4396	0.000642	6e-06
318.15	0.5608	0.000514	6e-06
318.15	0.6494	0.000457	6e-06
318.15	0.7403	0.000407	5e-06
318.15	0.8491	0.000366	5e-06
318.15	0.9384	0.000338	5e-06
318.15	1	0.000334	4.9e-06

System: butanone + pentan-2-ol; phases: Liquid
Fixed: Pressure, kPa = 101
Property: Refractive index (Na D-line) (Liquid); method: Standard Abbe refractometry
Temperature, K	Mole fraction of butanone	Refractive index (Na D-line)	uncertainty
298.15	0	1.4032	0.0009
298.15	0.0824	1.4014	0.0009
298.15	0.1612	1.3998	0.0009
298.15	0.2401	1.398	0.0009
298.15	0.3519	1.3952	0.0009
298.15	0.4396	1.3929	0.0009
298.15	0.5608	1.3895	0.0009
298.15	0.6494	1.3868	0.0009
298.15	0.7403	1.384	0.0009
298.15	0.8491	1.3803	0.0009
298.15	0.9384	1.3772	0.0009
298.15	1	1.375	0.0009
308.15	0	1.399	0.0009
308.15	0.0824	1.3974	0.0009
308.15	0.1612	1.3959	0.0009
308.15	0.2401	1.3941	0.0009
308.15	0.3519	1.3914	0.0009
308.15	0.4396	1.389	0.0009
308.15	0.5608	1.3854	0.0009
308.15	0.6494	1.3826	0.0009
308.15	0.7403	1.3796	0.0009
308.15	0.8491	1.3757	0.0009
308.15	0.9384	1.3724	0.0009
308.15	1	1.37	0.0009
318.15	0	1.395	0.0009
318.15	0.0824	1.3937	0.0009
318.15	0.1612	1.3923	0.0009
318.15	0.2401	1.3906	0.0009
318.15	0.3519	1.3877	0.0009
318.15	0.4396	1.3852	0.0009
318.15	0.5608	1.3813	0.0009
318.15	0.6494	1.3782	0.0009
318.15	0.7403	1.375	0.0009
318.15	0.8491	1.3711	0.0009
318.15	0.9384	1.3679	0.0009
318.15	1	1.3657	0.0009

System: butanone + pentan-2-ol; phases: Liquid
Fixed: Pressure, kPa = 101
Property: Mass density, kg/m3 (Liquid); method: VIBTUB:UFactor:4
Temperature, K	Mole fraction of butanone	Mass density, kg/m3	uncertainty
298.15	0	805.3	0.56
298.15	0.0824	804	0.56
298.15	0.1612	802.99	0.56
298.15	0.2401	802.04	0.56
298.15	0.3519	800.97	0.56
298.15	0.4396	800.31	0.56
298.15	0.5608	799.65	0.56
298.15	0.6494	799.34	0.56
298.15	0.7403	799.2	0.56
298.15	0.8491	799.26	0.56
298.15	0.9384	799.49	0.56
298.15	1	799.76	0.56
308.15	0	797	0.57
308.15	0.0824	795.54	0.57
308.15	0.1612	794.34	0.57
308.15	0.2401	793.29	0.57
308.15	0.3519	791.97	0.57
308.15	0.4396	791.07	0.57
308.15	0.5608	790.15	0.58
308.15	0.6494	789.63	0.58
308.15	0.7403	789.23	0.58
308.15	0.8491	789.02	0.58
308.15	0.9384	789.09	0.58
308.15	1	789.21	0.58
318.15	0	788.37	0.58
318.15	0.0824	786.83	0.58
318.15	0.1612	785.5	0.58
318.15	0.2401	784.32	0.58
318.15	0.3519	782.76	0.59
318.15	0.4396	781.66	0.59
318.15	0.5608	780.47	0.59
318.15	0.6494	779.91	0.59
318.15	0.7403	779.15	0.59
318.15	0.8491	778.67	0.59
318.15	0.9384	778.55	0.59
318.15	1	778.52	0.59

System: butanone + 3-pentanol; phases: Liquid
Fixed: Pressure, kPa = 101
Property: Viscosity, Pa*s (Liquid); method: Capillary tube (Ostwald; Ubbelohde) method
Temperature, K	Mole fraction of butanone	Viscosity, Pa*s	uncertainty
298.15	0	0.004625	3.4e-05
298.15	0.0843	0.002842	2.2e-05
298.15	0.1622	0.002007	1.5e-05
298.15	0.2428	0.001494	1.2e-05
298.15	0.3505	0.001084	9e-06
298.15	0.4415	0.00086	8e-06
298.15	0.5584	0.000677	7e-06
298.15	0.6526	0.000591	6e-06
298.15	0.7399	0.000508	6e-06
298.15	0.854	0.000445	5e-06
298.15	0.9383	0.000407	5e-06
298.15	1	0.000391	5e-06
308.15	0	0.002864	2.2e-05
308.15	0.0843	0.001965	1.5e-05
308.15	0.1622	0.001476	1.2e-05
308.15	0.2428	0.001151	1e-05
308.15	0.3505	0.000869	8e-06
308.15	0.4415	0.000717	7e-06
308.15	0.5584	0.000578	6e-06
308.15	0.6526	0.000506	6e-06
308.15	0.7399	0.000448	5e-06
308.15	0.854	0.000396	5e-06
308.15	0.9383	0.000365	5e-06
308.15	1	0.000361	5e-06
318.15	0	0.0019025	1.47e-05
318.15	0.0843	0.00138221	1.106e-05
318.15	0.1622	0.000991087	8.556e-06
318.15	0.2428	0.000724611	6.948e-06
318.15	0.3505	0.000519692	5.829e-06
318.15	0.4415	0.000416958	5.325e-06
318.15	0.5584	0.000330623	4.944e-06
318.15	0.6526	0.000293817	4.794e-06
318.15	0.7399	0.000291862	4.78e-06
318.15	0.854	0.000296988	4.793e-06
318.15	0.9383	0.000310626	4.843e-06
318.15	1	0.000334	4.9e-06

System: butanone + 3-pentanol; phases: Liquid
Fixed: Pressure, kPa = 101
Property: Refractive index (Na D-line) (Liquid); method: Standard Abbe refractometry
Temperature, K	Mole fraction of butanone	Refractive index (Na D-line)	uncertainty
298.15	0	1.4047	0.0009
298.15	0.0843	1.4032	0.0009
298.15	0.1622	1.4016	0.0009
298.15	0.2428	1.3999	0.0009
298.15	0.3505	1.3971	0.0009
298.15	0.4415	1.3945	0.0009
298.15	0.5584	1.3908	0.0009
298.15	0.6526	1.3876	0.0009
298.15	0.7399	1.3846	0.0009
298.15	0.854	1.3803	0.0009
298.15	0.9383	1.3773	0.0009
298.15	1	1.375	0.0009
308.15	0	1.4029	0.0009
308.15	0.0843	1.4012	0.0009
308.15	0.1622	1.3995	0.0009
308.15	0.2428	1.3975	0.0009
308.15	0.3505	1.3944	0.0009
308.15	0.4415	1.3916	0.0009
308.15	0.5584	1.3876	0.0009
308.15	0.6526	1.3841	0.0009
308.15	0.7399	1.3806	0.0009
308.15	0.854	1.376	0.0009
308.15	0.9383	1.3725	0.0009
308.15	1	1.37	0.0009
318.15	0	1.3981	0.0009
318.15	0.0843	1.3965	0.0009
318.15	0.1622	1.3949	0.0009
318.15	0.2428	1.3929	0.0009
318.15	0.3505	1.3901	0.0009
318.15	0.4415	1.3873	0.0009
318.15	0.5584	1.3835	0.0009
318.15	0.6526	1.38	0.0009
318.15	0.7399	1.3767	0.0009
318.15	0.854	1.372	0.0009
318.15	0.9383	1.3684	0.0009
318.15	1	1.3657	0.0009

System: butanone + 3-pentanol; phases: Liquid
Fixed: Pressure, kPa = 101
Property: Mass density, kg/m3 (Liquid); method: VIBTUB:UFactor:4
Temperature, K	Mole fraction of butanone	Mass density, kg/m3	uncertainty
298.15	0	815.79	0.54
298.15	0.0843	813.43	0.55
298.15	0.1622	811.5	0.55
298.15	0.2428	809.72	0.55
298.15	0.3505	807.45	0.55
298.15	0.4415	805.82	0.56
298.15	0.5584	803.92	0.56
298.15	0.6526	802.64	0.56
298.15	0.7399	801.72	0.56
298.15	0.854	800.8	0.56
298.15	0.9383	800.16	0.56
298.15	1	799.76	0.56
308.15	0	806.91	0.56
308.15	0.0843	804.58	0.56
308.15	0.1622	802.6	0.56
308.15	0.2428	800.57	0.56
308.15	0.3505	798.07	0.57
308.15	0.4415	796.23	0.57
308.15	0.5584	794.1	0.57
308.15	0.6526	792.64	0.57
308.15	0.7399	791.55	0.57
308.15	0.854	790.31	0.58
308.15	0.9383	789.7	0.58
308.15	1	789.21	0.58
318.15	0	797.66	0.57
318.15	0.0843	795.034	0.57
318.15	0.1622	792.888	0.573
318.15	0.2428	790.723	0.575
318.15	0.3505	788.175	0.579
318.15	0.4415	786.285	0.581
318.15	0.5584	784.161	0.584
318.15	0.6526	782.699	0.585
318.15	0.7399	781.619	0.587
318.15	0.854	780.165	0.589
318.15	0.9383	779.212	0.59
318.15	1	778.52	0.59

System: pentan-1-ol + butanone; phases: Liquid
Fixed: Pressure, kPa = 101
Property: Viscosity, Pa*s (Liquid); method: Capillary tube (Ostwald; Ubbelohde) method
Temperature, K	Mole fraction of butanone	Viscosity, Pa*s	uncertainty
298.15	0	0.00354	2.6e-05
298.15	0.088	0.002557	1.9e-05
298.15	0.1632	0.001997	1.5e-05
298.15	0.2427	0.001592	1.2e-05
298.15	0.3549	0.001202	1e-05
298.15	0.4434	0.000983	8e-06
298.15	0.5597	0.000773	7e-06
298.15	0.6518	0.000648	6e-06
298.15	0.7401	0.000554	6e-06
298.15	0.8477	0.000485	6e-06
298.15	0.9355	0.00042	5e-06
298.15	1	0.000391	5e-06
308.15	0	0.002658	2e-05
308.15	0.088	0.002011	1.5e-05
308.15	0.1632	0.001616	1.3e-05
308.15	0.2427	0.001304	1e-05
308.15	0.3549	0.001009	9e-06
308.15	0.4434	0.000835	8e-06
308.15	0.5597	0.000667	7e-06
308.15	0.6518	0.00057	6e-06
308.15	0.7401	0.000492	6e-06
308.15	0.8477	0.000427	5e-06
308.15	0.9355	0.00038	5e-06
308.15	1	0.000361	5e-06
318.15	0	0.002288	1.7e-05
318.15	0.088	0.001608	1.3e-05
318.15	0.1632	0.001321	1.1e-05
318.15	0.2427	0.001097	9e-06
318.15	0.3549	0.000852	8e-06
318.15	0.4434	0.000721	7e-06
318.15	0.5597	0.000585	6e-06
318.15	0.6518	0.0005	6e-06
318.15	0.7401	0.000443	5e-06
318.15	0.8477	0.000381	5e-06
318.15	0.9355	0.000345	5e-06
318.15	1	0.000334	5e-06

System: pentan-1-ol + butanone; phases: Liquid
Fixed: Pressure, kPa = 101
Property: Refractive index (Na D-line) (Liquid); method: Standard Abbe refractometry
Temperature, K	Mole fraction of butanone	Refractive index (Na D-line)	uncertainty
298.15	0	1.4068	0.0009
298.15	0.088	1.4049	0.0009
298.15	0.1632	1.4031	0.0009
298.15	0.2427	1.401	0.0009
298.15	0.3549	1.3979	0.0009
298.15	0.4434	1.3953	0.0009
298.15	0.5597	1.3915	0.0009
298.15	0.6518	1.3883	0.0009
298.15	0.7401	1.3851	0.0009
298.15	0.8477	1.381	0.0009
298.15	0.9355	1.3776	0.0009
298.15	1	1.375	0.0009
308.15	0	1.4031	0.0009
308.15	0.088	1.4014	0.0009
308.15	0.1632	1.3997	0.0009
308.15	0.2427	1.3976	0.0009
308.15	0.3549	1.3943	0.0009
308.15	0.4434	1.3914	0.0009
308.15	0.5597	1.3873	0.0009
308.15	0.6518	1.3838	0.0009
308.15	0.7401	1.3804	0.0009
308.15	0.8477	1.376	0.0009
308.15	0.9355	1.3725	0.0009
308.15	1	1.37	0.0009
318.15	0	1.3996	0.0009
318.15	0.088	1.3976	0.0009
318.15	0.1632	1.3957	0.0009
318.15	0.2427	1.3937	0.0009
318.15	0.3549	1.3905	0.0009
318.15	0.4434	1.3878	0.0009
318.15	0.5597	1.3838	0.0009
318.15	0.6518	1.3804	0.0009
318.15	0.7401	1.377	0.0009
318.15	0.8477	1.3724	0.0009
318.15	0.9355	1.3686	0.0009
318.15	1	1.3657	0.0009

System: pentan-1-ol + butanone; phases: Liquid
Fixed: Pressure, kPa = 101
Property: Mass density, kg/m3 (Liquid); method: VIBTUB:UFactor:4
Temperature, K	Mole fraction of butanone	Mass density, kg/m3	uncertainty
298.15	0	810.85	0.55
298.15	0.088	809.94	0.55
298.15	0.1632	809.15	0.55
298.15	0.2427	808.31	0.55
298.15	0.3549	807.11	0.55
298.15	0.4434	806.15	0.56
298.15	0.5597	804.87	0.56
298.15	0.6518	803.85	0.56
298.15	0.7401	802.85	0.56
298.15	0.8477	801.59	0.56
298.15	0.9355	800.55	0.56
298.15	1	799.76	0.56
308.15	0	803.45	0.56
308.15	0.088	802.26	0.56
308.15	0.1632	801.25	0.56
308.15	0.2427	800.16	0.56
308.15	0.3549	798.62	0.57
308.15	0.4434	797.39	0.57
308.15	0.5597	795.76	0.57
308.15	0.6518	794.44	0.57
308.15	0.7401	793.14	0.57
308.15	0.8477	791.54	0.57
308.15	0.9355	790.21	0.58
308.15	1	789.21	0.58
318.15	0	795.9	0.57
318.15	0.088	794.44	0.57
318.15	0.1632	793.21	0.57
318.15	0.2427	791.89	0.57
318.15	0.3549	789.99	0.58
318.15	0.4434	788.5	0.58
318.15	0.5597	786.5	0.58
318.15	0.6518	784.88	0.58
318.15	0.7401	783.31	0.58
318.15	0.8477	781.36	0.59
318.15	0.9355	779.73	0.59
318.15	1	778.52	0.59
