Measured thermophysical data. Volumetric Properties of Binary Mixtures of 1-Butyl-3-methylimidazolium Chloride + Water or Hydrophilic Solvents at Different Temperatures
Source: J. Chem. Eng. Data, 2010, 10.1021/je900733j
Compound 1: 1-butyl-3-methylimidazolium chloride, C8H15ClN2, InChI=1S/C8H15N2.ClH/c1-3-4-5-10-7-6-9(2)8-10;/h6-8H,3-5H2,1-2H3;1H/q+1;/p-1
Compound 2: methanol, CH4O, InChI=1S/CH4O/c1-2/h2H,1H3
Compound 3: acetonitrile, C2H3N, InChI=1S/C2H3N/c1-2-3/h1H3
Compound 4: dimethylformamide, C3H7NO, InChI=1S/C3H7NO/c1-4(2)3-5/h3H,1-2H3
Compound 5: water, H2O, InChI=1S/H2O/h1H2

System: methanol; phases: Liquid
Fixed: Pressure, kPa = 101
Property: Mass density, kg/m3 (Liquid); method: VIBTUB:UFactor:4
Temperature, K	Mass density, kg/m3	uncertainty
293.15	791.3	0.48
298.15	786.58	0.49
303.15	781.86	0.5
308.15	777.11	0.5
313.15	772.33	0.51
318.15	767.52	0.52

System: acetonitrile; phases: Liquid
Fixed: Pressure, kPa = 101
Property: Mass density, kg/m3 (Liquid); method: VIBTUB::UFactor:4
Temperature, K	Mass density, kg/m3	uncertainty
293.15	782.04	0.5
298.15	776.64	0.51
303.15	771.21	0.51
308.15	765.75	0.52
313.15	760.25	0.53
318.15	754.73	0.54

System: dimethylformamide; phases: Liquid
Fixed: Pressure, kPa = 101
Property: Mass density, kg/m3 (Liquid); method: VIBTUB::UFactor:4
Temperature, K	Mass density, kg/m3	uncertainty
293.15	948.63	0.25
298.15	943.86	0.26
303.15	939.08	0.27
308.15	934.29	0.27
313.15	929.48	0.28
318.15	924.68	0.29

System: water; phases: Liquid
Fixed: Pressure, kPa = 101
Property: Mass density, kg/m3 (Liquid); method: VIBTUB::UFactor:4
Temperature, K	Mass density, kg/m3	uncertainty
293.15	998.23	0.18
298.15	997.06	0.18
303.15	995.66	0.18
308.15	994.04	0.18
313.15	992.22	0.19
318.15	990.22	0.19

System: water + 1-butyl-3-methylimidazolium chloride; phases: Liquid
Fixed: Pressure, kPa = 101
Property: Mass density, kg/m3 (Liquid); method: VIBTUB:UFactor:4
Temperature, K	Mole fraction of 1-butyl-3-methylimidazolium chloride	Mass density, kg/m3	uncertainty
293.15	0	998.23	0.18
293.15	0.0121	1007.06	0.2
293.15	0.0381	1024.73	0.26
293.15	0.0819	1046.21	0.36
293.15	0.1109	1055.73	0.43
293.15	0.1399	1062.54	0.51
293.15	0.2489	1076.98	0.85
293.15	0.2977	1080.14	1.04
293.15	0.4083	1084.32	1.56
298.15	0	997.06	0.18
298.15	0.0121	1005.53	0.19
298.15	0.0381	1022.46	0.25
298.15	0.0819	1043.25	0.36
298.15	0.1109	1052.62	0.43
298.15	0.1399	1059.39	0.5
298.15	0.2489	1073.95	0.85
298.15	0.2977	1077.15	1.03
298.15	0.4083	1081.43	1.55
303.15	0	995.66	0.18
303.15	0.0121	1003.8	0.19
303.15	0.0381	1020.07	0.25
303.15	0.0819	1040.24	0.35
303.15	0.1109	1049.46	0.42
303.15	0.1399	1056.2	0.5
303.15	0.2489	1070.89	0.84
303.15	0.2977	1074.16	1.03
303.15	0.4083	1078.53	1.54
308.15	0	994.04	0.18
308.15	0.0121	1001.89	0.19
308.15	0.0381	1017.57	0.24
308.15	0.0819	1037.17	0.34
308.15	0.1109	1046.28	0.41
308.15	0.1399	1052.99	0.49
308.15	0.2489	1067.82	0.83
308.15	0.2977	1071.15	1.02
308.15	0.4083	1075.63	1.53
313.15	0	992.22	0.19
313.15	0.0121	999.81	0.19
313.15	0.0381	1014.95	0.24
313.15	0.0819	1034.06	0.34
313.15	0.1109	1043.06	0.41
313.15	0.1399	1049.76	0.48
313.15	0.2489	1064.72	0.82
313.15	0.2977	1068.14	1.01
313.15	0.4083	1072.73	1.51
318.15	0	990.22	0.19
318.15	0.0121	997.57	0.19
318.15	0.0381	1012.24	0.24
318.15	0.0819	1030.89	0.33
318.15	0.1109	1039.81	0.4
318.15	0.1399	1046.48	0.48
318.15	0.2489	1061.63	0.81
318.15	0.2977	1065.09	1
318.15	0.4083	1069.82	1.5

System: methanol + 1-butyl-3-methylimidazolium chloride; phases: Liquid
Fixed: Pressure, kPa = 101
Property: Mass density, kg/m3 (Liquid); method: VIBTUB:UFactor:4
Temperature, K	Mole fraction of 1-butyl-3-methylimidazolium chloride	Mass density, kg/m3	uncertainty
293.15	0	791.3	0.48
293.15	0.0101	805.87	0.47
293.15	0.0506	852.64	0.43
293.15	0.1	894.1	0.44
293.15	0.1665	935.48	0.51
293.15	0.1951	949.82	0.55
293.15	0.2398	968.61	0.65
293.15	0.2991	989.02	0.82
293.15	0.3771	1010.45	1.14
293.15	0.482	1031.45	1.73
298.15	0	786.58	0.49
298.15	0.0101	801.3	0.47
298.15	0.0506	848.46	0.44
298.15	0.1	890.18	0.44
298.15	0.1665	931.83	0.51
298.15	0.1951	946.25	0.55
298.15	0.2398	965.16	0.65
298.15	0.2991	985.68	0.82
298.15	0.3771	1007.23	1.13
298.15	0.482	1028.33	1.71
303.15	0	781.86	0.5
303.15	0.0101	796.71	0.48
303.15	0.0506	844.24	0.45
303.15	0.1	886.26	0.45
303.15	0.1665	928.17	0.51
303.15	0.1951	942.69	0.56
303.15	0.2398	961.71	0.65
303.15	0.2991	982.33	0.82
303.15	0.3771	1004.01	1.12
303.15	0.482	1025.22	1.7
308.15	0	777.11	0.5
308.15	0.0101	792.11	0.49
308.15	0.0506	840.01	0.45
308.15	0.1	882.35	0.45
308.15	0.1665	924.53	0.52
308.15	0.1951	939.14	0.56
308.15	0.2398	958.26	0.65
308.15	0.2991	979.01	0.82
308.15	0.3771	1000.8	1.11
308.15	0.482	1022.12	1.68
313.15	0	772.33	0.51
313.15	0.0101	787.49	0.49
313.15	0.0506	835.76	0.46
313.15	0.1	878.44	0.46
313.15	0.1665	920.9	0.52
313.15	0.1951	935.6	0.56
313.15	0.2398	954.83	0.66
313.15	0.2991	975.69	0.82
313.15	0.3771	997.6	1.1
313.15	0.482	1019.03	1.67
318.15	0	767.52	0.52
318.15	0.0101	782.83	0.5
318.15	0.0506	831.56	0.47
318.15	0.1	874.52	0.47
318.15	0.1665	917.27	0.53
318.15	0.1951	932.06	0.57
318.15	0.2398	951.4	0.66
318.15	0.2991	972.38	0.82
318.15	0.3771	994.41	1.1
318.15	0.482	1015.96	1.66

System: acetonitrile + 1-butyl-3-methylimidazolium chloride; phases: Liquid
Fixed: Pressure, kPa = 101
Property: Mass density, kg/m3 (Liquid); method: VIBTUB:UFactor:4
Temperature, K	Mole fraction of 1-butyl-3-methylimidazolium chloride	Mass density, kg/m3	uncertainty
293.15	0	782.04	0.5
293.15	0.0303	815.47	0.47
293.15	0.0797	859.07	0.46
293.15	0.1308	894.46	0.48
293.15	0.1806	922.76	0.55
293.15	0.235	948.31	0.65
293.15	0.2914	970.09	0.8
293.15	0.3717	995.09	1.08
293.15	0.439	1012.49	1.43
298.15	0	776.64	0.51
298.15	0.0303	810.4	0.48
298.15	0.0797	854.38	0.46
298.15	0.1308	890.07	0.49
298.15	0.1806	918.62	0.55
298.15	0.235	944.36	0.65
298.15	0.2914	966.32	0.8
298.15	0.3717	991.52	1.08
298.15	0.439	1009.08	1.41
303.15	0	771.21	0.51
303.15	0.0303	805.29	0.48
303.15	0.0797	849.67	0.47
303.15	0.1308	885.68	0.5
303.15	0.1806	914.46	0.55
303.15	0.235	940.39	0.65
303.15	0.2914	962.55	0.8
303.15	0.3717	987.95	1.08
303.15	0.439	1005.66	1.4
308.15	0	765.75	0.52
308.15	0.0303	800.18	0.49
308.15	0.0797	844.95	0.48
308.15	0.1308	881.27	0.5
308.15	0.1806	910.3	0.56
308.15	0.235	936.47	0.66
308.15	0.2914	958.78	0.8
308.15	0.3717	984.38	1.08
308.15	0.439	1002.25	1.39
313.15	0	760.25	0.53
313.15	0.0303	795.05	0.5
313.15	0.0797	840.21	0.48
313.15	0.1308	876.86	0.51
313.15	0.1806	906.14	0.56
313.15	0.235	932.51	0.66
313.15	0.2914	955.02	0.8
313.15	0.3717	980.83	1.08
313.15	0.439	998.86	1.38
318.15	0	754.73	0.54
318.15	0.0303	789.88	0.51
318.15	0.0797	835.48	0.49
318.15	0.1308	872.45	0.51
318.15	0.1806	901.98	0.57
318.15	0.235	928.57	0.66
318.15	0.2914	951.26	0.8
318.15	0.3717	977.28	1.08
318.15	0.439	995.46	1.37

System: dimethylformamide + 1-butyl-3-methylimidazolium chloride; phases: Liquid
Fixed: Pressure, kPa = 101
Property: Mass density, kg/m3 (Liquid); method: VIBTUB:UFactor:4
Temperature, K	Mole fraction of 1-butyl-3-methylimidazolium chloride	Mass density, kg/m3	uncertainty
293.15	0	948.63	0.25
293.15	0.0332	961.92	0.26
293.15	0.0835	978	0.31
293.15	0.1303	990.54	0.37
293.15	0.1822	1002.71	0.48
293.15	0.2289	1012.04	0.62
293.15	0.3069	1025.51	0.91
293.15	0.3879	1037.1	1.28
293.15	0.4488	1044.53	1.61
298.15	0	943.86	0.26
298.15	0.0332	957.33	0.27
298.15	0.0835	973.63	0.31
298.15	0.1303	986.33	0.38
298.15	0.1822	998.67	0.47
298.15	0.2289	1008.12	0.61
298.15	0.3069	1021.78	0.9
298.15	0.3879	1033.54	1.27
298.15	0.4488	1041.06	1.59
303.15	0	939.08	0.27
303.15	0.0332	952.73	0.28
303.15	0.0835	969.25	0.32
303.15	0.1303	982.13	0.38
303.15	0.1822	994.62	0.48
303.15	0.2289	1004.21	0.6
303.15	0.3069	1018.05	0.89
303.15	0.3879	1029.98	1.26
303.15	0.4488	1037.61	1.58
308.15	0	934.29	0.27
308.15	0.0332	948.12	0.28
308.15	0.0835	964.87	0.32
308.15	0.1303	977.91	0.39
308.15	0.1822	990.58	0.48
308.15	0.2289	1000.3	0.59
308.15	0.3069	1014.34	0.88
308.15	0.3879	1026.42	1.24
308.15	0.4488	1034.18	1.56
313.15	0	929.48	0.28
313.15	0.0332	943.52	0.29
313.15	0.0835	960.48	0.33
313.15	0.1303	973.71	0.39
313.15	0.1822	986.54	0.49
313.15	0.2289	996.4	0.6
313.15	0.3069	1010.63	0.87
313.15	0.3879	1022.89	1.23
313.15	0.4488	1030.77	1.55
318.15	0	924.68	0.29
318.15	0.0332	938.89	0.3
318.15	0.0835	956.09	0.34
318.15	0.1303	969.5	0.4
318.15	0.1822	982.51	0.49
318.15	0.2289	992.5	0.6
318.15	0.3069	1006.94	0.86
318.15	0.3879	1019.36	1.22
318.15	0.4488	1027.36	1.53
