Measured thermophysical data. Dissociation Constant of Quinic Acid and Association Constants of Some Quinates in Aqueous and in Alcoholic-Aqueous Mixed Solvents
Source: J. Chem. Eng. Data, 2010, 10.1021/je900750c
Compound 1: (1S,3R,4S,5R)-1,3,4,5-tetrahydroxycyclohexane-1-carboxylic acid, C7H12O6, InChI=1S/C7H12O6/c8-3-1-7(13,6(11)12)2-4(9)5(3)10/h3-5,8-10,13H,1-2H2,(H,11,12)/t3-,4-,5-,7+/m1/s1
Compound 2: water, H2O, InChI=1S/H2O/h1H2
Compound 3: ethanol, C2H6O, InChI=1S/C2H6O/c1-2-3/h3H,2H2,1H3
Compound 4: methanol, CH4O, InChI=1S/CH4O/c1-2/h2H,1H3
Compound 5: lithium (1S,3R,4S,5R)-1,3,4,5-tetrahydroxycyclohexane-1-carboxylate, C7H11LiO6, InChI=1S/C7H12O6.Li/c8-3-1-7(13,6(11)12)2-4(9)5(3)10;/h3-5,8-10,13H,1-2H2,(H,11,12);/q;+1/p-1/t3-,4-,5-,7+;/m1./s1
Compound 6: sodium (1S,3R,4S,5R)-1,3,4,5-tetrahydroxycyclohexane-1-carboxylate, C7H11NaO6, InChI=1S/C7H12O6.Na/c8-3-1-7(13,6(11)12)2-4(9)5(3)10;/h3-5,8-10,13H,1-2H2,(H,11,12);/q;+1/p-1/t3-,4-,5-,7+;/m1./s1
Compound 7: potassium (1S,3R,4S,5R)-1,3,4,5-tetrahydroxycyclohexane-1-carboxylate, C7H11KO6, InChI=1S/C7H12O6.K/c8-3-1-7(13,6(11)12)2-4(9)5(3)10;/h3-5,8-10,13H,1-2H2,(H,11,12);/q;+1/p-1/t3-,4-,5-,7+;/m1./s1

System: (1S,3R,4S,5R)-1,3,4,5-tetrahydroxycyclohexane-1-carboxylic acid + water; phases: Liquid
Fixed: Pressure, kPa = 101
Property: Molar conductivity, S*m2/mol (Liquid); method: Alternating current cell with electrodes
Temperature, K	Amount concentration (molarity), mol/dm3 of (1S,3R,4S,5R)-1,3,4,5-tetrahydroxycyclohexane-1-carboxylic acid	Molar conductivity, S*m2/mol	uncertainty
293.15	0.0002	0.02103	0.00084
293.15	0.0004	0.01801	0.00072
293.15	0.0006	0.01601	0.00064
293.15	0.0008	0.01522	0.00061
293.15	0.001	0.01431	0.00057
293.15	0.0015	0.01202	0.00048
293.15	0.002	0.01093	0.00044
293.15	0.003	0.008714	0.000349
293.15	0.005	0.007083	0.000283
293.15	0.008	0.005638	0.000226
293.15	0.012	0.004831	0.000193
293.15	0.017	0.004101	0.000164
293.15	0.022	0.003618	0.000145
293.15	0.026	0.003365	0.000135
293.15	0.03	0.003163	0.000127
293.15	0.035	0.003102	0.000124
293.15	0.04	0.002818	0.000113
293.15	0.045	0.002653	0.000106
293.15	0.05	0.002501	0.0001
298.15	0.0002	0.02277	0.00091
298.15	0.0004	0.02006	0.0008
298.15	0.0006	0.01804	0.00072
298.15	0.0008	0.01689	0.00068
298.15	0.001	0.01562	0.00063
298.15	0.0015	0.01303	0.00052
298.15	0.002	0.01186	0.00047
298.15	0.003	0.009462	0.000379
298.15	0.005	0.007693	0.000308
298.15	0.008	0.006143	0.000246
298.15	0.012	0.005242	0.00021
298.15	0.017	0.004714	0.000189
298.15	0.022	0.003936	0.000158
298.15	0.026	0.003806	0.000152
298.15	0.03	0.003501	0.00014
298.15	0.035	0.003391	0.000136
298.15	0.04	0.003089	0.000124
298.15	0.045	0.002899	0.000116
298.15	0.05	0.002755	0.00011
303.15	0.0002	0.02445	0.00098
303.15	0.0004	0.02205	0.00088
303.15	0.0006	0.02001	0.0008
303.15	0.0008	0.01847	0.00074
303.15	0.001	0.01678	0.00067
303.15	0.0015	0.01395	0.00056
303.15	0.002	0.01281	0.00051
303.15	0.003	0.01014	0.00041
303.15	0.005	0.008461	0.000339
303.15	0.008	0.006807	0.000273
303.15	0.012	0.005934	0.000238
303.15	0.017	0.005022	0.000201
303.15	0.022	0.004282	0.000171
303.15	0.026	0.004102	0.000164
303.15	0.03	0.003803	0.000152
303.15	0.035	0.003681	0.000147
303.15	0.04	0.003373	0.000135
303.15	0.045	0.003102	0.000124
303.15	0.05	0.002912	0.000117
308.15	0.0002	0.02621	0.00105
308.15	0.0004	0.02401	0.00096
308.15	0.0006	0.02206	0.00088
308.15	0.0008	0.02003	0.0008
308.15	0.001	0.01805	0.00072
308.15	0.0015	0.01501	0.0006
308.15	0.002	0.01361	0.00054
308.15	0.003	0.01092	0.00044
308.15	0.005	0.009009	0.000361
308.15	0.008	0.007337	0.000294
308.15	0.012	0.006225	0.000249
308.15	0.017	0.005353	0.000214
308.15	0.022	0.004601	0.000184
308.15	0.026	0.004405	0.000176
308.15	0.03	0.004076	0.000163
308.15	0.035	0.003871	0.000155
308.15	0.04	0.003521	0.000141
308.15	0.045	0.003311	0.000132
308.15	0.05	0.003056	0.000122

System: methanol + (1S,3R,4S,5R)-1,3,4,5-tetrahydroxycyclohexane-1-carboxylic acid + water; phases: Liquid
Fixed: Pressure, kPa = 101
Fixed: Solvent: Volume fraction of methanol = 0.5
Property: Molar conductivity, S*m2/mol (Liquid); method: Alternating current cell with electrodes
Temperature, K	Amount concentration (molarity), mol/dm3 of (1S,3R,4S,5R)-1,3,4,5-tetrahydroxycyclohexane-1-carboxylic acid	Molar conductivity, S*m2/mol	uncertainty
293.15	0.0002	0.01523	0.00061
293.15	0.0004	0.01305	0.00052
293.15	0.0006	0.01176	0.00047
293.15	0.0008	0.01102	0.00044
293.15	0.001	0.01037	0.00042
293.15	0.0015	0.008701	0.000348
293.15	0.002	0.007903	0.000316
293.15	0.003	0.006308	0.000252
293.15	0.005	0.005133	0.000205
293.15	0.008	0.004061	0.000162
293.15	0.012	0.003482	0.000139
293.15	0.017	0.002973	0.000119
293.15	0.022	0.002611	0.000105
293.15	0.026	0.002435	9.8e-05
293.15	0.03	0.002291	9.2e-05
293.15	0.035	0.002251	9e-05
293.15	0.04	0.002033	8.1e-05
293.15	0.045	0.001921	7.7e-05
293.15	0.05	0.001813	7.3e-05
298.15	0.0002	0.01646	0.00066
298.15	0.0004	0.01447	0.00058
298.15	0.0006	0.01312	0.00053
298.15	0.0008	0.01217	0.00049
298.15	0.001	0.01127	0.00045
298.15	0.0015	0.009425	0.000377
298.15	0.002	0.008554	0.000342
298.15	0.003	0.006829	0.000273
298.15	0.005	0.005575	0.000223
298.15	0.008	0.004489	0.00018
298.15	0.012	0.003819	0.000153
298.15	0.017	0.003269	0.000131
298.15	0.022	0.002845	0.000114
298.15	0.026	0.002683	0.000107
298.15	0.03	0.002511	0.000101
298.15	0.035	0.002434	9.7e-05
298.15	0.04	0.002209	8.8e-05
298.15	0.045	0.002058	8.2e-05
298.15	0.05	0.001941	7.8e-05
303.15	0.0002	0.01773	0.00071
303.15	0.0004	0.01592	0.00064
303.15	0.0006	0.01452	0.00058
303.15	0.0008	0.01333	0.00053
303.15	0.001	0.01217	0.00049
303.15	0.0015	0.01012	0.00041
303.15	0.002	0.009211	0.000369
303.15	0.003	0.007358	0.000295
303.15	0.005	0.006171	0.000247
303.15	0.008	0.004921	0.000197
303.15	0.012	0.004161	0.000167
303.15	0.017	0.003571	0.000143
303.15	0.022	0.003091	0.000124
303.15	0.026	0.002933	0.000117
303.15	0.03	0.002731	0.000109
303.15	0.035	0.002616	0.000105
303.15	0.04	0.002381	9.5e-05
303.15	0.045	0.002221	8.9e-05
303.15	0.05	0.002079	8.3e-05
308.15	0.0002	0.01899	0.00076
308.15	0.0004	0.01741	0.0007
308.15	0.0006	0.01595	0.00064
308.15	0.0008	0.01451	0.00058
308.15	0.001	0.01309	0.00052
308.15	0.0015	0.01087	0.00044
308.15	0.002	0.009861	0.000395
308.15	0.003	0.007903	0.000317
308.15	0.005	0.006525	0.000261
308.15	0.008	0.005293	0.000212
308.15	0.012	0.004501	0.00018
308.15	0.017	0.003879	0.000155
308.15	0.022	0.003335	0.000134
308.15	0.026	0.003195	0.000128
308.15	0.03	0.002951	0.000118
308.15	0.035	0.002806	0.000112
308.15	0.04	0.002552	0.000102
308.15	0.045	0.002398	9.6e-05
308.15	0.05	0.002217	8.9e-05

System: ethanol + (1S,3R,4S,5R)-1,3,4,5-tetrahydroxycyclohexane-1-carboxylic acid + water; phases: Liquid
Fixed: Pressure, kPa = 101
Fixed: Solvent: Volume fraction of ethanol = 0.5
Property: Molar conductivity, S*m2/mol (Liquid); method: Alternating current cell with electrodes
Temperature, K	Amount concentration (molarity), mol/dm3 of (1S,3R,4S,5R)-1,3,4,5-tetrahydroxycyclohexane-1-carboxylic acid	Molar conductivity, S*m2/mol	uncertainty
293.15	0.0002	0.01417	0.00057
293.15	0.0004	0.01215	0.00049
293.15	0.0006	0.01081	0.00043
293.15	0.0008	0.01027	0.00041
293.15	0.001	0.009652	0.000386
293.15	0.0015	0.008101	0.000324
293.15	0.002	0.007358	0.000295
293.15	0.003	0.005879	0.000235
293.15	0.005	0.004781	0.000191
293.15	0.008	0.003801	0.000152
293.15	0.012	0.003263	0.000131
293.15	0.017	0.002769	0.000111
293.15	0.022	0.002437	9.8e-05
293.15	0.026	0.002265	9.1e-05
293.15	0.03	0.002131	8.5e-05
293.15	0.035	0.002091	8.4e-05
293.15	0.04	0.001891	7.6e-05
293.15	0.045	0.001781	7.1e-05
293.15	0.05	0.001683	6.7e-05
298.15	0.0002	0.01534	0.00061
298.15	0.0004	0.01351	0.00054
298.15	0.0006	0.01217	0.00049
298.15	0.0008	0.01135	0.00045
298.15	0.001	0.01048	0.00042
298.15	0.0015	0.008775	0.000351
298.15	0.002	0.007958	0.000319
298.15	0.003	0.006372	0.000255
298.15	0.005	0.005213	0.000209
298.15	0.008	0.004183	0.000167
298.15	0.012	0.003568	0.000143
298.15	0.017	0.003051	0.000122
298.15	0.022	0.002655	0.000106
298.15	0.026	0.002496	0.0001
298.15	0.03	0.002335	9.3e-05
298.15	0.035	0.002271	9.1e-05
298.15	0.04	0.002047	8.2e-05
298.15	0.045	0.001929	7.7e-05
298.15	0.05	0.001806	7.2e-05
303.15	0.0002	0.01651	0.00066
303.15	0.0004	0.01485	0.00059
303.15	0.0006	0.01352	0.00054
303.15	0.0008	0.01241	0.0005
303.15	0.001	0.01131	0.00045
303.15	0.0015	0.009453	0.000378
303.15	0.002	0.008551	0.000342
303.15	0.003	0.006869	0.000275
303.15	0.005	0.005631	0.000225
303.15	0.008	0.004563	0.000183
303.15	0.012	0.003861	0.000155
303.15	0.017	0.003331	0.000133
303.15	0.022	0.002875	0.000115
303.15	0.026	0.002727	0.000109
303.15	0.03	0.002537	0.000102
303.15	0.035	0.002441	9.8e-05
303.15	0.04	0.002196	8.8e-05
303.15	0.045	0.002079	8.3e-05
303.15	0.05	0.001958	7.8e-05
308.15	0.0002	0.01768	0.00071
308.15	0.0004	0.01621	0.00065
308.15	0.0006	0.01488	0.0006
308.15	0.0008	0.01351	0.00054
308.15	0.001	0.01215	0.00049
308.15	0.0015	0.01013	0.00041
308.15	0.002	0.009182	0.000368
308.15	0.003	0.007358	0.000295
308.15	0.005	0.006075	0.000243
308.15	0.008	0.004946	0.000198
308.15	0.012	0.004185	0.000168
308.15	0.017	0.003611	0.000145
308.15	0.022	0.003101	0.000124
308.15	0.026	0.002971	0.000119
308.15	0.03	0.002747	0.00011
308.15	0.035	0.002612	0.000105
308.15	0.04	0.002364	9.5e-05
308.15	0.045	0.002227	8.9e-05
308.15	0.05	0.002058	8.2e-05

System: water + lithium (1S,3R,4S,5R)-1,3,4,5-tetrahydroxycyclohexane-1-carboxylate; phases: Liquid
Fixed: Pressure, kPa = 101
Property: Molar conductivity, S*m2/mol (Liquid); method: Alternating current cell with electrodes
Temperature, K	Amount concentration (molarity), mol/dm3 of lithium (1S,3R,4S,5R)-1,3,4,5-tetrahydroxycyclohexane-1-carboxylate	Molar conductivity, S*m2/mol	uncertainty
293.15	0.0005	0.005551	0.000222
293.15	0.001	0.005453	0.000219
293.15	0.0015	0.005438	0.000218
293.15	0.002	0.0054	0.000216
293.15	0.004	0.005279	0.000212
293.15	0.008	0.005029	0.000202
293.15	0.012	0.004863	0.000195
293.15	0.015	0.004817	0.000193
293.15	0.02	0.004709	0.000189
293.15	0.025	0.004622	0.000185
293.15	0.03	0.004511	0.000181
293.15	0.035	0.004411	0.000177
293.15	0.04	0.004278	0.000172
298.15	0.0005	0.00618	0.000247
298.15	0.001	0.00616	0.000247
298.15	0.0015	0.00614	0.000246
298.15	0.002	0.00611	0.000245
298.15	0.004	0.00596	0.000239
298.15	0.008	0.005832	0.000234
298.15	0.012	0.005661	0.000227
298.15	0.015	0.00561	0.000225
298.15	0.02	0.005478	0.00022
298.15	0.025	0.005353	0.000215
298.15	0.03	0.005209	0.000209
298.15	0.035	0.005115	0.000205
298.15	0.04	0.00499	0.0002
303.15	0.0005	0.00668	0.000268
303.15	0.001	0.00666	0.000267
303.15	0.0015	0.00664	0.000266
303.15	0.002	0.00662	0.000265
303.15	0.004	0.00658	0.000264
303.15	0.008	0.00656	0.000263
303.15	0.012	0.006459	0.000259
303.15	0.015	0.006373	0.000255
303.15	0.02	0.006258	0.000251
303.15	0.025	0.006125	0.000245
303.15	0.03	0.005951	0.000239
303.15	0.035	0.005839	0.000234
303.15	0.04	0.005681	0.000228
308.15	0.0005	0.00748	0.0003
308.15	0.001	0.00746	0.000299
308.15	0.0015	0.00744	0.000298
308.15	0.002	0.00742	0.000297
308.15	0.004	0.0074	0.000296
308.15	0.008	0.00731	0.000293
308.15	0.012	0.00715	0.000286
308.15	0.015	0.00712	0.000285
308.15	0.02	0.00696	0.000279
308.15	0.025	0.006849	0.000274
308.15	0.03	0.006719	0.000269
308.15	0.035	0.006581	0.000264
308.15	0.04	0.00641	0.000257

System: water + sodium (1S,3R,4S,5R)-1,3,4,5-tetrahydroxycyclohexane-1-carboxylate; phases: Liquid
Fixed: Pressure, kPa = 101
Property: Molar conductivity, S*m2/mol (Liquid); method: Alternating current cell with electrodes
Temperature, K	Amount concentration (molarity), mol/dm3 of sodium (1S,3R,4S,5R)-1,3,4,5-tetrahydroxycyclohexane-1-carboxylate	Molar conductivity, S*m2/mol	uncertainty
293.15	0.0005	0.00648	0.00026
293.15	0.001	0.00646	0.000259
293.15	0.0015	0.00644	0.000258
293.15	0.002	0.00641	0.000257
293.15	0.004	0.006381	0.000256
293.15	0.008	0.006135	0.000246
293.15	0.012	0.005981	0.00024
293.15	0.015	0.00592	0.000237
293.15	0.02	0.005821	0.000233
293.15	0.025	0.005718	0.000229
293.15	0.03	0.005615	0.000225
293.15	0.035	0.005509	0.000221
293.15	0.04	0.005383	0.000216
298.15	0.0005	0.00734	0.000294
298.15	0.001	0.00728	0.000292
298.15	0.0015	0.00724	0.00029
298.15	0.002	0.00722	0.000289
298.15	0.004	0.00694	0.000278
298.15	0.008	0.00692	0.000277
298.15	0.012	0.006775	0.000271
298.15	0.015	0.006704	0.000269
298.15	0.02	0.00659	0.000264
298.15	0.025	0.006463	0.000259
298.15	0.03	0.006303	0.000253
298.15	0.035	0.006204	0.000249
298.15	0.04	0.006085	0.000244
303.15	0.0005	0.00812	0.000325
303.15	0.001	0.00812	0.000325
303.15	0.0015	0.00808	0.000324
303.15	0.002	0.00806	0.000323
303.15	0.004	0.00792	0.000317
303.15	0.008	0.00775	0.00031
303.15	0.012	0.007564	0.000303
303.15	0.015	0.007481	0.0003
303.15	0.02	0.007364	0.000295
303.15	0.025	0.007217	0.000289
303.15	0.03	0.007063	0.000283
303.15	0.035	0.006945	0.000278
303.15	0.04	0.00679	0.00027
308.15	0.0005	0.00902	0.000361
308.15	0.001	0.00901	0.000361
308.15	0.0015	0.00898	0.00036
308.15	0.002	0.00896	0.000359
308.15	0.004	0.00886	0.000355
308.15	0.008	0.00855	0.000342
308.15	0.012	0.008361	0.000335
308.15	0.015	0.00827	0.000331
308.15	0.02	0.008136	0.000326
308.15	0.025	0.007963	0.000319
308.15	0.03	0.007822	0.000313
308.15	0.035	0.007678	0.000307
308.15	0.04	0.007509	0.000301

System: water + potassium (1S,3R,4S,5R)-1,3,4,5-tetrahydroxycyclohexane-1-carboxylate; phases: Liquid
Fixed: Pressure, kPa = 101
Property: Molar conductivity, S*m2/mol (Liquid); method: Alternating current cell with electrodes
Temperature, K	Amount concentration (molarity), mol/dm3 of potassium (1S,3R,4S,5R)-1,3,4,5-tetrahydroxycyclohexane-1-carboxylate	Molar conductivity, S*m2/mol	uncertainty
293.15	0.0005	0.00916	0.000367
293.15	0.001	0.00905	0.000362
293.15	0.0015	0.00892	0.000357
293.15	0.002	0.00886	0.000355
293.15	0.004	0.00875	0.00035
293.15	0.008	0.008536	0.000342
293.15	0.012	0.008384	0.000336
293.15	0.015	0.008309	0.000333
293.15	0.02	0.008219	0.000329
293.15	0.025	0.008121	0.000325
293.15	0.03	0.008011	0.000321
293.15	0.035	0.00791	0.000317
293.15	0.04	0.007775	0.000311
298.15	0.0005	0.00964	0.000386
298.15	0.001	0.00961	0.000385
298.15	0.0015	0.00956	0.000383
298.15	0.002	0.00954	0.000382
298.15	0.004	0.00952	0.000381
298.15	0.008	0.009339	0.000374
298.15	0.012	0.009172	0.000367
298.15	0.015	0.00911	0.000365
298.15	0.02	0.008982	0.00036
298.15	0.025	0.008858	0.000355
298.15	0.03	0.00871	0.000349
298.15	0.035	0.00861	0.000345
298.15	0.04	0.008479	0.000339
303.15	0.0005	0.01028	0.00041
303.15	0.001	0.01024	0.00041
303.15	0.0015	0.01022	0.00041
303.15	0.002	0.01021	0.00041
303.15	0.004	0.01018	0.00041
303.15	0.008	0.01015	0.00041
303.15	0.012	0.009959	0.000399
303.15	0.015	0.009875	0.000395
303.15	0.02	0.009759	0.000391
303.15	0.025	0.009623	0.000385
303.15	0.03	0.009457	0.000379
303.15	0.035	0.009339	0.000374
303.15	0.04	0.009173	0.000367
308.15	0.0005	0.01096	0.00044
308.15	0.001	0.01094	0.00044
308.15	0.0015	0.01092	0.00044
308.15	0.002	0.01091	0.00044
308.15	0.004	0.01086	0.00043
308.15	0.008	0.01082	0.00043
308.15	0.012	0.01077	0.00043
308.15	0.015	0.01066	0.00043
308.15	0.02	0.01054	0.00042
308.15	0.025	0.01035	0.00041
308.15	0.03	0.01023	0.00041
308.15	0.035	0.01008	0.0004
308.15	0.04	0.009919	0.000397

System: methanol + water + lithium (1S,3R,4S,5R)-1,3,4,5-tetrahydroxycyclohexane-1-carboxylate; phases: Liquid
Fixed: Pressure, kPa = 101
Fixed: Solvent: Volume fraction of methanol = 0.5
Property: Molar conductivity, S*m2/mol (Liquid); method: Alternating current cell with electrodes
Temperature, K	Amount concentration (molarity), mol/dm3 of lithium (1S,3R,4S,5R)-1,3,4,5-tetrahydroxycyclohexane-1-carboxylate	Molar conductivity, S*m2/mol	uncertainty
293.15	0.0005	0.003625	0.000146
293.15	0.001	0.003559	0.000143
293.15	0.0015	0.003521	0.000141
293.15	0.002	0.003501	0.000141
293.15	0.004	0.003402	0.000137
293.15	0.008	0.003149	0.000127
293.15	0.012	0.003011	0.000121
293.15	0.015	0.002939	0.000118
293.15	0.02	0.002841	0.000114
293.15	0.025	0.002719	0.000109
293.15	0.03	0.002621	0.000105
293.15	0.035	0.00251	0.000101
293.15	0.04	0.002379	9.6e-05
298.15	0.0005	0.004278	0.000172
298.15	0.001	0.00422	0.000169
298.15	0.0015	0.004179	0.000168
298.15	0.002	0.004138	0.000166
298.15	0.004	0.004071	0.000163
298.15	0.008	0.003791	0.000152
298.15	0.012	0.003619	0.000145
298.15	0.015	0.003539	0.000142
298.15	0.02	0.003431	0.000138
298.15	0.025	0.003278	0.000132
298.15	0.03	0.00316	0.000127
298.15	0.035	0.003051	0.000123
298.15	0.04	0.002915	0.000117
303.15	0.0005	0.004938	0.000198
303.15	0.001	0.004865	0.000195
303.15	0.0015	0.004821	0.000193
303.15	0.002	0.004779	0.000192
303.15	0.004	0.004731	0.00019
303.15	0.008	0.004419	0.000177
303.15	0.012	0.004241	0.00017
303.15	0.015	0.004138	0.000166
303.15	0.02	0.004031	0.000162
303.15	0.025	0.00384	0.000154
303.15	0.03	0.003721	0.000149
303.15	0.035	0.003571	0.000143
303.15	0.04	0.003439	0.000138
308.15	0.0005	0.005621	0.000225
308.15	0.001	0.00553	0.000222
308.15	0.0015	0.005459	0.000219
308.15	0.002	0.005441	0.000218
308.15	0.004	0.005401	0.000216
308.15	0.008	0.005055	0.000203
308.15	0.012	0.004843	0.000194
308.15	0.015	0.004751	0.00019
308.15	0.02	0.004611	0.000185
308.15	0.025	0.00442	0.000177
308.15	0.03	0.004259	0.000171
308.15	0.035	0.004131	0.000166
308.15	0.04	0.003983	0.00016

System: methanol + water + sodium (1S,3R,4S,5R)-1,3,4,5-tetrahydroxycyclohexane-1-carboxylate; phases: Liquid
Fixed: Pressure, kPa = 101
Fixed: Solvent: Volume fraction of methanol = 0.5
Property: Molar conductivity, S*m2/mol (Liquid); method: Alternating current cell with electrodes
Temperature, K	Amount concentration (molarity), mol/dm3 of sodium (1S,3R,4S,5R)-1,3,4,5-tetrahydroxycyclohexane-1-carboxylate	Molar conductivity, S*m2/mol	uncertainty
293.15	0.0005	0.00472	0.000189
293.15	0.001	0.004661	0.000187
293.15	0.0015	0.004639	0.000186
293.15	0.002	0.00461	0.000185
293.15	0.004	0.004501	0.000181
293.15	0.008	0.004254	0.000171
293.15	0.012	0.004101	0.000164
293.15	0.015	0.004041	0.000162
293.15	0.02	0.003938	0.000158
293.15	0.025	0.003822	0.000153
293.15	0.03	0.003719	0.000149
293.15	0.035	0.003609	0.000145
293.15	0.04	0.003488	0.00014
298.15	0.0005	0.005381	0.000216
298.15	0.001	0.005316	0.000213
298.15	0.0015	0.005283	0.000212
298.15	0.002	0.005242	0.00021
298.15	0.004	0.005161	0.000207
298.15	0.008	0.004884	0.000196
298.15	0.012	0.004717	0.000189
298.15	0.015	0.004641	0.000186
298.15	0.02	0.004527	0.000181
298.15	0.025	0.004385	0.000176
298.15	0.03	0.004265	0.000171
298.15	0.035	0.004149	0.000166
298.15	0.04	0.004015	0.000161
303.15	0.0005	0.006043	0.000242
303.15	0.001	0.005973	0.000239
303.15	0.0015	0.005923	0.000237
303.15	0.002	0.005881	0.000236
303.15	0.004	0.005827	0.000233
303.15	0.008	0.005513	0.000221
303.15	0.012	0.005337	0.000214
303.15	0.015	0.005241	0.00021
303.15	0.02	0.005128	0.000205
303.15	0.025	0.004944	0.000198
303.15	0.03	0.004816	0.000193
303.15	0.035	0.004689	0.000188
303.15	0.04	0.004545	0.000182
308.15	0.0005	0.006701	0.000268
308.15	0.001	0.006629	0.000265
308.15	0.0015	0.006561	0.000263
308.15	0.002	0.006539	0.000262
308.15	0.004	0.006503	0.00026
308.15	0.008	0.006151	0.000246
308.15	0.012	0.005952	0.000238
308.15	0.015	0.005849	0.000234
308.15	0.02	0.005708	0.000229
308.15	0.025	0.005511	0.000221
308.15	0.03	0.00536	0.00021
308.15	0.035	0.005229	0.000209
308.15	0.04	0.005071	0.000203

System: methanol + water + potassium (1S,3R,4S,5R)-1,3,4,5-tetrahydroxycyclohexane-1-carboxylate; phases: Liquid
Fixed: Pressure, kPa = 101
Fixed: Solvent: Volume fraction of methanol = 0.5
Property: Molar conductivity, S*m2/mol (Liquid); method: Alternating current cell with electrodes
Temperature, K	Amount concentration (molarity), mol/dm3 of potassium (1S,3R,4S,5R)-1,3,4,5-tetrahydroxycyclohexane-1-carboxylate	Molar conductivity, S*m2/mol	uncertainty
293.15	0.0005	0.007118	0.000285
293.15	0.001	0.007059	0.000283
293.15	0.0015	0.007031	0.000282
293.15	0.002	0.007001	0.00028
293.15	0.004	0.006903	0.000276
293.15	0.008	0.006661	0.000267
293.15	0.012	0.006352	0.000254
293.15	0.015	0.006439	0.000258
293.15	0.02	0.006345	0.000254
293.15	0.025	0.006231	0.000249
293.15	0.03	0.006129	0.000245
293.15	0.035	0.006001	0.00024
293.15	0.04	0.005861	0.000235
298.15	0.0005	0.007773	0.000311
298.15	0.001	0.007721	0.000309
298.15	0.0015	0.007685	0.000308
298.15	0.002	0.007651	0.000306
298.15	0.004	0.007575	0.000303
298.15	0.008	0.007272	0.000291
298.15	0.012	0.007122	0.000285
298.15	0.015	0.007039	0.000282
298.15	0.02	0.006935	0.000278
298.15	0.025	0.006793	0.000272
298.15	0.03	0.006659	0.000267
298.15	0.035	0.006556	0.000262
298.15	0.04	0.006421	0.000257
303.15	0.0005	0.008452	0.000338
303.15	0.001	0.00836	0.000335
303.15	0.0015	0.00832	0.000333
303.15	0.002	0.008275	0.000331
303.15	0.004	0.008219	0.000329
303.15	0.008	0.007919	0.000317
303.15	0.012	0.007741	0.00031
303.15	0.015	0.00765	0.000306
303.15	0.02	0.007533	0.000302
303.15	0.025	0.007351	0.000294
303.15	0.03	0.007221	0.000289
303.15	0.035	0.007091	0.000284
303.15	0.04	0.006943	0.000278
308.15	0.0005	0.009119	0.000365
308.15	0.001	0.009031	0.000361
308.15	0.0015	0.008959	0.000359
308.15	0.002	0.008941	0.000358
308.15	0.004	0.008911	0.000357
308.15	0.008	0.008549	0.000342
308.15	0.012	0.00835	0.00033
308.15	0.015	0.008245	0.00033
308.15	0.02	0.008111	0.000325
308.15	0.025	0.00792	0.000317
308.15	0.03	0.007751	0.00031
308.15	0.035	0.007635	0.000306
308.15	0.04	0.007492	0.0003

System: ethanol + water + lithium (1S,3R,4S,5R)-1,3,4,5-tetrahydroxycyclohexane-1-carboxylate; phases: Liquid
Fixed: Pressure, kPa = 101
Fixed: Solvent: Volume fraction of ethanol = 0.5
Property: Molar conductivity, S*m2/mol (Liquid); method: Alternating current cell with electrodes
Temperature, K	Amount concentration (molarity), mol/dm3 of lithium (1S,3R,4S,5R)-1,3,4,5-tetrahydroxycyclohexane-1-carboxylate	Molar conductivity, S*m2/mol	uncertainty
293.15	0.0005	0.003278	0.000132
293.15	0.001	0.003155	0.000127
293.15	0.0015	0.003131	0.000126
293.15	0.002	0.003075	0.000124
293.15	0.004	0.002982	0.00012
293.15	0.008	0.002739	0.00011
293.15	0.012	0.002613	0.000105
293.15	0.015	0.002536	0.000102
293.15	0.02	0.002419	9.7e-05
293.15	0.025	0.002341	9.4e-05
293.15	0.03	0.002242	9e-05
293.15	0.035	0.002131	8.6e-05
293.15	0.04	0.002001	8e-05
298.15	0.0005	0.003882	0.000156
298.15	0.001	0.00379	0.00015
298.15	0.0015	0.003745	0.00015
298.15	0.002	0.003719	0.000149
298.15	0.004	0.003579	0.000144
298.15	0.008	0.003281	0.000132
298.15	0.012	0.003138	0.000126
298.15	0.015	0.003059	0.000123
298.15	0.02	0.002948	0.000118
298.15	0.025	0.002818	0.000113
298.15	0.03	0.002701	0.000108
298.15	0.035	0.002579	0.000104
298.15	0.04	0.002429	9.8e-05
303.15	0.0005	0.004481	0.00018
303.15	0.001	0.0044	0.000176
303.15	0.0015	0.004348	0.000174
303.15	0.002	0.004315	0.000173
303.15	0.004	0.004171	0.000167
303.15	0.008	0.003862	0.000155
303.15	0.012	0.003675	0.000147
303.15	0.015	0.003581	0.000144
303.15	0.02	0.003458	0.000139
303.15	0.025	0.003311	0.000133
303.15	0.03	0.003165	0.000127
303.15	0.035	0.003043	0.000122
303.15	0.04	0.002885	0.000116
308.15	0.0005	0.005115	0.000205
308.15	0.001	0.005018	0.000201
308.15	0.0015	0.004955	0.000199
308.15	0.002	0.004932	0.000198
308.15	0.004	0.004759	0.000191
308.15	0.008	0.00442	0.00018
308.15	0.012	0.004221	0.000169
308.15	0.015	0.004109	0.000165
308.15	0.02	0.003969	0.000159
308.15	0.025	0.003781	0.000152
308.15	0.03	0.003648	0.000146
308.15	0.035	0.003515	0.000141
308.15	0.04	0.003329	0.000133

System: ethanol + water + sodium (1S,3R,4S,5R)-1,3,4,5-tetrahydroxycyclohexane-1-carboxylate; phases: Liquid
Fixed: Pressure, kPa = 101
Fixed: Solvent: Volume fraction of ethanol = 0.5
Property: Molar conductivity, S*m2/mol (Liquid); method: Alternating current cell with electrodes
Temperature, K	Amount concentration (molarity), mol/dm3 of sodium (1S,3R,4S,5R)-1,3,4,5-tetrahydroxycyclohexane-1-carboxylate	Molar conductivity, S*m2/mol	uncertainty
293.15	0.0005	0.004388	0.000176
293.15	0.001	0.004279	0.000172
293.15	0.0015	0.004255	0.000171
293.15	0.002	0.004211	0.000169
293.15	0.004	0.004092	0.000164
293.15	0.008	0.003841	0.000154
293.15	0.012	0.003703	0.000148
293.15	0.015	0.003645	0.000146
293.15	0.02	0.003539	0.000142
293.15	0.025	0.00344	0.000138
293.15	0.03	0.003337	0.000134
293.15	0.035	0.003234	0.00013
293.15	0.04	0.003081	0.000124
298.15	0.0005	0.004991	0.0002
298.15	0.001	0.004893	0.000196
298.15	0.0015	0.004856	0.000195
298.15	0.002	0.004821	0.000193
298.15	0.004	0.004681	0.000188
298.15	0.008	0.004388	0.000176
298.15	0.012	0.004241	0.00017
298.15	0.015	0.004168	0.000167
298.15	0.02	0.004051	0.000162
298.15	0.025	0.003923	0.000157
298.15	0.03	0.003801	0.000152
298.15	0.035	0.003689	0.000148
298.15	0.04	0.003533	0.000142
303.15	0.0005	0.005592	0.000224
303.15	0.001	0.005505	0.000221
303.15	0.0015	0.005457	0.000219
303.15	0.002	0.005419	0.000217
303.15	0.004	0.005269	0.000211
303.15	0.008	0.004959	0.000199
303.15	0.012	0.004781	0.000192
303.15	0.015	0.004691	0.000188
303.15	0.02	0.004562	0.000183
303.15	0.025	0.004402	0.000176
303.15	0.03	0.004271	0.000171
303.15	0.035	0.004153	0.000166
303.15	0.04	0.003979	0.000159
308.15	0.0005	0.006201	0.000248
308.15	0.001	0.006121	0.000245
308.15	0.0015	0.006061	0.000243
308.15	0.002	0.006043	0.000242
308.15	0.004	0.005862	0.000235
308.15	0.008	0.005515	0.000221
308.15	0.012	0.005323	0.000213
308.15	0.015	0.005215	0.000209
308.15	0.02	0.005073	0.000203
308.15	0.025	0.004898	0.000196
308.15	0.03	0.004751	0.00019
308.15	0.035	0.004612	0.000185
308.15	0.04	0.004432	0.000178

System: ethanol + water + potassium (1S,3R,4S,5R)-1,3,4,5-tetrahydroxycyclohexane-1-carboxylate; phases: Liquid
Fixed: Pressure, kPa = 101
Fixed: Solvent: Volume fraction of ethanol = 0.5
Property: Molar conductivity, S*m2/mol (Liquid); method: Alternating current cell with electrodes
Temperature, K	Amount concentration (molarity), mol/dm3 of potassium (1S,3R,4S,5R)-1,3,4,5-tetrahydroxycyclohexane-1-carboxylate	Molar conductivity, S*m2/mol	uncertainty
293.15	0.0005	0.006781	0.000272
293.15	0.001	0.006679	0.000267
293.15	0.0015	0.006645	0.000266
293.15	0.002	0.006609	0.000265
293.15	0.004	0.006483	0.00026
293.15	0.008	0.006239	0.00025
293.15	0.012	0.006201	0.000248
293.15	0.015	0.006036	0.000242
293.15	0.02	0.005941	0.000238
293.15	0.025	0.005838	0.000234
293.15	0.03	0.005741	0.00023
293.15	0.035	0.005629	0.000225
293.15	0.04	0.005481	0.000219
298.15	0.0005	0.007382	0.000296
298.15	0.001	0.007281	0.000292
298.15	0.0015	0.007264	0.000291
298.15	0.002	0.007219	0.000289
298.15	0.004	0.007079	0.000283
298.15	0.008	0.006781	0.000271
298.15	0.012	0.006636	0.000266
298.15	0.015	0.006551	0.000262
298.15	0.02	0.006448	0.000258
298.15	0.025	0.006321	0.000253
298.15	0.03	0.006201	0.000248
298.15	0.035	0.006075	0.000243
298.15	0.04	0.005929	0.000237
303.15	0.0005	0.007995	0.00032
303.15	0.001	0.007915	0.000317
303.15	0.0015	0.007845	0.000314
303.15	0.002	0.007811	0.000313
303.15	0.004	0.007658	0.000307
303.15	0.008	0.007351	0.000294
303.15	0.012	0.007169	0.000287
303.15	0.015	0.007053	0.000282
303.15	0.02	0.006965	0.000279
303.15	0.025	0.006815	0.000273
303.15	0.03	0.006675	0.000267
303.15	0.035	0.006562	0.000263
303.15	0.04	0.006381	0.000255
308.15	0.0005	0.008603	0.000344
308.15	0.001	0.008525	0.000341
308.15	0.0015	0.008458	0.000339
308.15	0.002	0.008445	0.000338
308.15	0.004	0.008259	0.000331
308.15	0.008	0.007929	0.000317
308.15	0.012	0.007731	0.000309
308.15	0.015	0.007623	0.000305
308.15	0.02	0.007481	0.000299
308.15	0.025	0.007289	0.000292
308.15	0.03	0.007148	0.000286
308.15	0.035	0.007019	0.000281
308.15	0.04	0.006839	0.000274
