Measured thermophysical data. Solubilities of CO and H2 in Neat and CO2-Expanded Hydroformylation Reaction Mixtures Containing 1-Octene and Nonanal up to 353.15 K and 9 MPa
Source: J. Chem. Eng. Data, 2009, 10.1021/je900148e
Compound 1: oct-1-ene, C8H16, InChI=1S/C8H16/c1-3-5-7-8-6-4-2/h3H,1,4-8H2,2H3, purity 99%
Compound 2: carbon dioxide, CO2, InChI=1S/CO2/c2-1-3, purity 99.5%
Compound 3: carbon monoxide, CO, InChI=1S/CO/c1-2, purity 99%
Compound 4: hydrogen, H2, InChI=1S/H2/h1H, purity 99.99%
Compound 5: nonanal, C9H18O, InChI=1S/C9H18O/c1-2-3-4-5-6-7-8-9-10/h9H,2-8H2,1H3, purity 99%

System: oct-1-ene + carbon monoxide; phases: Gas, Liquid
Property: Vapor or sublimation pressure, kPa (Gas); method: Closed cell (Static) method
Mole fraction of carbon monoxide	Temperature, K	Vapor or sublimation pressure, kPa	uncertainty
0.015	313.15	930	100
0.017	333.15	1000	110
0.021	353.15	1340	120
0.036	313.15	2200	220
0.036	333.15	2200	260
0.036	353.15	2200	230
0.058	333.15	3600	390
0.068	313.15	4100	430
0.074	353.15	4620	490
0.087	313.15	5400	570
0.095	333.15	6170	600
0.095	353.15	6160	690
0.116	313.15	7230	680
0.127	353.15	8450	910
0.141	313.15	8550	750
0.141	333.15	8880	830

System: oct-1-ene + carbon monoxide; phases: Gas, Liquid
Property: Mole fraction of carbon monoxide (Gas); method: Chromatography
Mole fraction of carbon monoxide	Temperature, K	Mole fraction of carbon monoxide	uncertainty
0.015	313.15	0.992	0.008
0.017	333.15	0.987	0.013
0.021	353.15	0.967	0.033
0.036	313.15	0.995	0.005
0.036	333.15	0.99	0.01
0.036	353.15	0.982	0.018
0.058	333.15	0.992	0.008
0.068	313.15	0.996	0.004
0.074	353.15	0.988	0.012
0.087	313.15	0.997	0.003
0.095	333.15	0.994	0.006
0.095	353.15	0.989	0.011
0.116	313.15	0.997	0.003
0.127	353.15	0.983	0.017
0.141	313.15	0.996	0.004
0.141	333.15	0.993	0.007

System: oct-1-ene + carbon dioxide; phases: Gas, Liquid
Property: Vapor or sublimation pressure, kPa (Gas); method: Closed cell (Static) method
Mole fraction of carbon dioxide	Temperature, K	Vapor or sublimation pressure, kPa	uncertainty
0.107	353.15	1170	160
0.134	333.15	1280	160
0.147	313.15	1350	120
0.201	353.15	2550	280
0.307	333.15	3370	360
0.32	353.15	4130	460
0.408	313.15	3480	340
0.446	333.15	4940	490
0.452	353.15	6170	740
0.544	313.15	4650	460
0.551	353.15	7910	970
0.576	333.15	6310	730
0.694	333.15	8090	1050
0.717	313.15	6060	550
0.858	313.15	7010	590

System: oct-1-ene + carbon dioxide; phases: Gas, Liquid
Property: Mole fraction of carbon dioxide (Gas); method: Chromatography
Mole fraction of carbon dioxide	Temperature, K	Mole fraction of carbon dioxide	uncertainty
0.107	353.15	0.985	0.015
0.134	333.15	0.985	0.015
0.147	313.15	0.993	0.007
0.201	353.15	0.98	0.02
0.307	333.15	0.991	0.009
0.32	353.15	0.98	0.02
0.408	313.15	0.995	0.005
0.446	333.15	0.991	0.009
0.452	353.15	0.98	0.02
0.544	313.15	0.996	0.004
0.551	353.15	0.994	0.006
0.576	333.15	0.99	0.01
0.694	333.15	0.994	0.006
0.717	313.15	0.994	0.006
0.858	313.15	0.995	0.005

System: nonanal + carbon monoxide; phases: Gas, Liquid
Property: Vapor or sublimation pressure, kPa (Gas); method: Closed cell (Static) method
Mole fraction of carbon monoxide	Temperature, K	Vapor or sublimation pressure, kPa	uncertainty
0.012	313.15	990	110
0.014	333.15	1030	140
0.029	333.15	2480	270
0.03	313.15	2630	260
0.044	333.15	3830	410
0.049	313.15	4130	420
0.059	333.15	5250	580
0.063	313.15	5430	600
0.076	333.15	6970	770
0.083	313.15	7370	810

System: nonanal + carbon monoxide; phases: Gas, Liquid
Property: Mole fraction of carbon monoxide (Gas); method: Chromatography
Mole fraction of carbon monoxide	Temperature, K	Mole fraction of carbon monoxide	uncertainty
0.012	313.15	0.998	0.002
0.014	333.15	0.996	0.004
0.029	333.15	0.997	0.003
0.03	313.15	0.996	0.004
0.044	333.15	0.996	0.004
0.049	313.15	0.997	0.003
0.059	333.15	0.996	0.004
0.063	313.15	0.996	0.004
0.076	333.15	0.995	0.005
0.083	313.15	0.996	0.004

System: nonanal + carbon dioxide; phases: Gas, Liquid
Property: Vapor or sublimation pressure, kPa (Gas); method: Closed cell (Static) method
Mole fraction of carbon dioxide	Temperature, K	Vapor or sublimation pressure, kPa	uncertainty
0.161	333.15	1200	190
0.163	313.15	950	150
0.226	333.15	1950	270
0.337	333.15	3250	420
0.354	313.15	2620	310
0.475	333.15	5000	650
0.535	313.15	4210	510
0.598	333.15	6770	790
0.735	313.15	6220	730
0.743	333.15	8540	910
0.92	313.15	7980	770

System: nonanal + carbon dioxide; phases: Gas, Liquid
Property: Mole fraction of carbon dioxide (Gas); method: Chromatography
Mole fraction of carbon dioxide	Temperature, K	Mole fraction of carbon dioxide	uncertainty
0.161	333.15	0.995	0.005
0.163	313.15	0.995	0.005
0.226	333.15	0.994	0.006
0.337	333.15	0.994	0.006
0.354	313.15	0.997	0.003
0.475	333.15	0.996	0.004
0.535	313.15	0.996	0.004
0.598	333.15	0.995	0.005
0.735	313.15	0.994	0.006
0.743	333.15	0.995	0.005
0.92	313.15	0.995	0.005

System: oct-1-ene + hydrogen; phases: Gas, Liquid
Property: Vapor or sublimation pressure, kPa (Gas); method: Closed cell (Static) method
Mole fraction of hydrogen	Temperature, K	Vapor or sublimation pressure, kPa	uncertainty
0.008	313.15	930	100
0.008	333.15	940	100
0.019	313.15	2270	220
0.024	333.15	2810	280
0.031	313.15	3630	400
0.038	333.15	4480	450
0.043	313.15	5350	550
0.05	333.15	5860	600
0.059	333.15	7000	750
0.06	313.15	7360	710

System: oct-1-ene + hydrogen; phases: Gas, Liquid
Property: Mole fraction of hydrogen (Gas); method: Chromatography
Mole fraction of hydrogen	Temperature, K	Mole fraction of hydrogen	uncertainty
0.008	313.15	0.995	0.005
0.008	333.15	0.989	0.011
0.019	313.15	0.995	0.005
0.024	333.15	0.993	0.007
0.031	313.15	0.996	0.004
0.038	333.15	0.994	0.006
0.043	313.15	0.995	0.005
0.05	333.15	0.993	0.007
0.059	333.15	0.993	0.007
0.06	313.15	0.995	0.005

System: nonanal + hydrogen; phases: Gas, Liquid
Property: Vapor or sublimation pressure, kPa (Gas); method: Closed cell (Static) method
Mole fraction of hydrogen	Temperature, K	Vapor or sublimation pressure, kPa	uncertainty
0.006	313.15	1010	90
0.006	333.15	940	90
0.015	333.15	2180	220
0.018	313.15	2690	260
0.023	333.15	3370	350
0.027	313.15	4060	420
0.034	333.15	5070	520
0.037	313.15	5630	540
0.046	333.15	6910	710
0.052	313.15	7710	720

System: nonanal + hydrogen; phases: Gas, Liquid
Property: Mole fraction of hydrogen (Gas); method: Chromatography
Mole fraction of hydrogen	Temperature, K	Mole fraction of hydrogen	uncertainty
0.006	313.15	0.999	0.001
0.006	333.15	0.993	0.007
0.015	333.15	0.993	0.007
0.018	313.15	0.997	0.003
0.023	333.15	0.994	0.006
0.027	313.15	0.998	0.002
0.034	333.15	0.993	0.007
0.037	313.15	0.995	0.005
0.046	333.15	0.992	0.008
0.052	313.15	0.995	0.005

System: oct-1-ene + carbon dioxide + carbon monoxide; phases: Liquid, Gas
Fixed: Pressure, kPa = 8000
Property: Mole fraction of carbon monoxide (Liquid); method: Chromatography
Property: Mole fraction of carbon monoxide (Gas); method: Chromatography
Property: Mole fraction of carbon dioxide (Gas); method: Chromatography
Temperature, K	Mole fraction of carbon dioxide	Mole fraction of carbon monoxide	uncertainty	Mole fraction of carbon monoxide	uncertainty	Mole fraction of carbon dioxide	uncertainty
313.15	0.571	0.042	0.004	0.273	0.027	0.723	
313.15	0.485	0.056	0.006	0.382	0.038	0.614	
313.15	0.399	0.068	0.007	0.491	0.049	0.505	
313.15	0.347	0.074	0.007	0.556	0.056	0.44	
333.15	0.458	0.036	0.004	0.261	0.026	0.732	
333.15	0.403	0.047	0.005	0.348	0.035	0.645	
333.15	0.328	0.062	0.006	0.469	0.047	0.524	
333.15	0.262	0.074	0.007	0.573	0.057	0.42	
353.15	0.396	0.038	0.004	0.267	0.027	0.721	
353.15	0.345	0.05	0.005	0.36	0.036	0.628	
353.15	0.295	0.06	0.006	0.451	0.045	0.537	
353.15	0.239	0.073	0.007	0.554	0.056	0.434	

System: nonanal + carbon dioxide + carbon monoxide; phases: Liquid, Gas
Fixed: Pressure, kPa = 8000
Property: Mole fraction of carbon monoxide (Liquid); method: Chromatography
Property: Mole fraction of carbon monoxide (Gas); method: Chromatography
Property: Mole fraction of carbon dioxide (Gas); method: Chromatography
Temperature, K	Mole fraction of carbon dioxide	Mole fraction of carbon monoxide	uncertainty	Mole fraction of carbon monoxide	uncertainty	Mole fraction of carbon dioxide	uncertainty
313.15	0.374	0.054	0.005	0.529	0.053	0.464	
313.15	0.613	0.037	0.004	0.319	0.032	0.675	
313.15	0.684	0.027	0.003	0.206	0.021	0.791	
313.15	0.762	0.021	0.002	0.135	0.014	0.861	
313.15	0.517	0.043	0.004	0.396	0.04	0.589	
333.15	0.251	0.062	0.006	0.615	0.062	0.379	
333.15	0.379	0.053	0.005	0.512	0.051	0.481	
333.15	0.44	0.042	0.004	0.384	0.039	0.61	
333.15	0.536	0.033	0.003	0.281	0.028	0.713	
333.15	0.609	0.022	0.002	0.162	0.016	0.83	

System: oct-1-ene + carbon dioxide + hydrogen; phases: Liquid, Gas
Fixed: Pressure, kPa = 8000
Property: Mole fraction of hydrogen (Liquid); method: Chromatography
Property: Mole fraction of hydrogen (Gas); method: Chromatography
Property: Mole fraction of carbon dioxide (Gas); method: Chromatography
Temperature, K	Mole fraction of carbon dioxide	Mole fraction of hydrogen	uncertainty	Mole fraction of hydrogen	uncertainty	Mole fraction of carbon dioxide	uncertainty
313.15	0.209	0.051	0.005	0.762	0.076	0.231	
313.15	0.373	0.04	0.004	0.557	0.056	0.437	
313.15	0.519	0.03	0.003	0.374	0.038	0.621	
313.15	0.607	0.023	0.002	0.253	0.025	0.743	
313.15	0.728	0.017	0.002	0.157	0.016	0.838	
333.15	0.363	0.035	0.004	0.463	0.046	0.531	
333.15	0.424	0.03	0.003	0.365	0.037	0.629	
333.15	0.497	0.022	0.002	0.241	0.024	0.754	
333.15	0.553	0.018	0.002	0.184	0.018	0.812	
333.15	0.202	0.049	0.005	0.71	0.071	0.281	

System: nonanal + carbon dioxide + hydrogen; phases: Liquid, Gas
Fixed: Pressure, kPa = 8000
Property: Mole fraction of hydrogen (Liquid); method: Chromatography
Property: Mole fraction of hydrogen (Gas); method: Chromatography
Property: Mole fraction of carbon dioxide (Gas); method: Chromatography
Temperature, K	Mole fraction of carbon dioxide	Mole fraction of hydrogen	uncertainty	Mole fraction of hydrogen	uncertainty	Mole fraction of carbon dioxide	uncertainty
313.15	0.163	0.046	0.005	0.837	0.084	0.153	
313.15	0.419	0.035	0.004	0.562	0.056	0.431	
313.15	0.51	0.029	0.003	0.438	0.044	0.556	
313.15	0.592	0.024	0.002	0.312	0.031	0.682	
313.15	0.715	0.018	0.002	0.183	0.018	0.811	
333.15	0.19	0.044	0.004	0.775	0.078	0.22	
333.15	0.297	0.037	0.004	0.615	0.062	0.379	
333.15	0.439	0.028	0.003	0.442	0.044	0.551	
333.15	0.553	0.02	0.002	0.262	0.026	0.732	
333.15	0.617	0.013	0.001	0.13	0.013	0.863	
