Measured thermophysical data. Densities and Viscosities of Pure 1-Methyl-3-octylimidazolium Nitrate and Its Binary Mixtures with Alcohols at Several Temperatures
Source: J. Chem. Eng. Data, 2010, 10.1021/je901058s
Compound 1: 1-methyl-3-octylimidazolium nitrate, C12H23N3O3, InChI=1S/C12H23N2.NO3/c1-3-4-5-6-7-8-9-14-11-10-13(2)12-14;2-1(3)4/h10-12H,3-9H2,1-2H3;/q+1;-1
Compound 2: ethanol, C2H6O, InChI=1S/C2H6O/c1-2-3/h3H,2H2,1H3
Compound 3: propan-1-ol, C3H8O, InChI=1S/C3H8O/c1-2-3-4/h4H,2-3H2,1H3
Compound 4: butan-1-ol, C4H10O, InChI=1S/C4H10O/c1-2-3-4-5/h5H,2-4H2,1H3

System: 1-methyl-3-octylimidazolium nitrate; phases: Liquid
Fixed: Pressure, kPa = 101.325
Property: Viscosity, Pa*s (Liquid); method: SPHERE:UFactor:3
Temperature, K	Viscosity, Pa*s	uncertainty
283.15	2.23136	0.8566
288.15	1.43596	0.48772
293.15	0.95463	0.28492
298.15	0.6641	0.17391
303.15	0.466	0.10541
308.15	0.33745	0.06537
313.15	0.24972	0.04081
318.15	0.18935	0.02569
323.15	0.14712	0.01624
328.15	0.11514	0.00992
333.15	0.08843	0.00534
338.15	0.06966	0.00263
343.15	0.05688	0.0013

System: 1-methyl-3-octylimidazolium nitrate; phases: Liquid
Fixed: Pressure, kPa = 101.3
Property: Mass density, kg/m3 (Liquid); method: Vibrating tube method
Temperature, K	Mass density, kg/m3	uncertainty
283.15	1074	2.2
288.15	1070.5	2.2
293.15	1067.3	2.2
298.15	1064.2	2.2
303.15	1061.1	2.1
308.15	1058	2.1
313.15	1054.9	2.1
318.15	1051.9	2.1
323.15	1048.9	2.1
328.15	1045.9	2.1
333.15	1042.9	2.1
338.15	1041.8	2.1
343.15	1038.8	2

System: ethanol + 1-methyl-3-octylimidazolium nitrate; phases: Liquid
Fixed: Pressure, kPa = 101
Property: Viscosity, Pa*s (Liquid); method: SPHERE:UFactor:4
Temperature, K	Mole fraction of ethanol	Viscosity, Pa*s	uncertainty
283.15	0.128	0.96967	0.38739
283.15	0.266	0.37545	0.1024
283.15	0.357	0.2156	0.04269
283.15	0.455	0.1018	0.01012
283.15	0.554	0.04817	0.00198
283.15	0.662	0.02481	0.00106
283.15	0.767	0.01164	0.00067
283.15	0.868	0.00509	0.00053
288.15	0.128	0.65912	0.2292
288.15	0.266	0.26588	0.06008
288.15	0.357	0.16206	0.02589
288.15	0.455	0.07617	0.00465
288.15	0.554	0.03863	0.00148
288.15	0.662	0.02062	0.0009
288.15	0.767	0.00986	0.00062
288.15	0.868	0.00446	0.00053
293.15	0.128	0.46431	0.13959
293.15	0.266	0.1983	0.03701
293.15	0.357	0.12445	0.0155
293.15	0.455	0.05974	0.00195
293.15	0.554	0.03152	0.00124
293.15	0.662	0.01719	0.0008
293.15	0.767	0.00859	0.00059
293.15	0.868	0.00397	0.00052
298.15	0.128	0.33325	0.08535
298.15	0.266	0.15029	0.02248
298.15	0.357	0.09705	0.00891
298.15	0.455	0.04747	0.0018
298.15	0.554	0.02606	0.00106
298.15	0.662	0.01452	0.00073
298.15	0.767	0.00754	0.00057
298.15	0.868	0.00349	0.00052
303.15	0.128	0.24643	0.05313
303.15	0.266	0.11639	0.01345
303.15	0.357	0.07337	0.0041
303.15	0.455	0.03828	0.00145
303.15	0.554	0.02179	0.00093
303.15	0.662	0.01244	0.00067
303.15	0.767	0.00647	0.00055
303.15	0.868	0.00313	0.00051
308.15	0.128	0.18507	0.0328
308.15	0.266	0.08905	0.00716
308.15	0.357	0.05841	0.00171
308.15	0.455	0.03115	0.00121
308.15	0.554	0.0184	0.00083
308.15	0.662	0.01083	0.00063
308.15	0.767	0.00572	0.00054
308.15	0.868	0.0028	0.00051
313.15	0.128	0.14299	0.0204
313.15	0.266	0.06895	0.00329
313.15	0.357	0.0483	0.00179
313.15	0.455	0.02582	0.00104
313.15	0.554	0.01571	0.00075
313.15	0.662	0.00955	0.00061
313.15	0.767	0.00499	0.00053
313.15	0.868	0.00253	0.00051
318.15	0.128	0.11216	0.01239
318.15	0.266	0.05586	0.00142
318.15	0.357	0.0398	0.00147
318.15	0.455	0.02177	0.00091
318.15	0.554	0.01353	0.00069
318.15	0.662	0.00869	0.00059
318.15	0.767	0.00446	0.00053
318.15	0.868	0.0023	0.00051
323.15	0.128	0.0814	0.00562
323.15	0.266	0.04585	0.0017
323.15	0.357	0.03325	0.00127
323.15	0.455	0.01859	0.00083
323.15	0.554	0.01178	0.00065
323.15	0.662	0.00783	0.00057
323.15	0.767	0.00399	0.00052
323.15	0.868	0.0021	0.00051
328.15	0.128	0.05356	0.00157
328.15	0.266	0.03202	0.00127
328.15	0.357	0.02389	0.00103
328.15	0.455	0.01408	0.00071
328.15	0.554	0.00929	0.0006
328.15	0.662	0.0062	0.00055
328.15	0.767	0.00327	0.00051
328.15	0.868	0.00177	0.0005

System: ethanol + 1-methyl-3-octylimidazolium nitrate; phases: Liquid
Fixed: Pressure, kPa = 101
Property: Mass density, kg/m3 (Liquid); method: Vibrating tube method
Temperature, K	Mole fraction of ethanol	Mass density, kg/m3	uncertainty
283.15	0.128	1065.1	2.5
283.15	0.266	1053	2.9
283.15	0.357	1043	3.2
283.15	0.455	1030	3.4
283.15	0.554	1014	3.7
283.15	0.662	991.6	3.9
283.15	0.767	961.3	4.1
283.15	0.868	915.7	4.1
288.15	0.128	1061.6	2.5
288.15	0.266	1049.6	2.9
288.15	0.357	1039.6	3.2
288.15	0.455	1026.7	3.4
288.15	0.554	1010.7	3.7
288.15	0.662	988.3	3.9
288.15	0.767	957.9	4.1
288.15	0.868	912	4
293.15	0.128	1058.4	2.5
293.15	0.266	1046.4	2.9
293.15	0.357	1036.5	3.1
293.15	0.455	1023.5	3.4
293.15	0.554	1007.5	3.6
293.15	0.662	985	3.9
293.15	0.767	954.4	4
293.15	0.868	908.1	4
298.15	0.128	1055.3	2.5
298.15	0.266	1043.3	2.9
298.15	0.357	1033.4	3.1
298.15	0.455	1020.4	3.4
298.15	0.554	1004.3	3.6
298.15	0.662	981.8	3.9
298.15	0.767	951.2	4
298.15	0.868	904.8	4
303.15	0.128	1052.1	2.5
303.15	0.266	1040.1	2.9
303.15	0.357	1030	3.1
303.15	0.455	1016.9	3.4
303.15	0.554	1000.6	3.6
303.15	0.662	977.9	3.8
303.15	0.767	946.9	4
303.15	0.868	900.3	4
308.15	0.128	1048.9	2.5
308.15	0.266	1036.8	2.8
308.15	0.357	1026.7	3.1
308.15	0.455	1013.6	3.3
308.15	0.554	997.2	3.6
308.15	0.662	974.3	3.8
308.15	0.767	943.1	3.9
308.15	0.868	896.3	3.9
313.15	0.128	1045.8	2.4
313.15	0.266	1033.7	2.8
313.15	0.357	1023.6	3.1
313.15	0.455	1010.5	3.3
313.15	0.554	994	3.5
313.15	0.662	970.8	3.8
313.15	0.767	939.3	3.9
313.15	0.868	892	3.9
318.15	0.128	1042.7	2.4
318.15	0.266	1030.6	2.8
318.15	0.357	1020.3	3
318.15	0.455	1007.1	3.3
318.15	0.554	990.4	3.5
318.15	0.662	967.1	3.7
318.15	0.767	935.4	3.9
318.15	0.868	888	3.8
323.15	0.128	1039.7	2.4
323.15	0.266	1027.4	2.8
323.15	0.357	1017.2	3
323.15	0.455	1003.8	3.3
323.15	0.554	987.1	3.5
323.15	0.662	963.7	3.7
323.15	0.767	931.8	3.9
323.15	0.868	883.9	3.8
328.15	0.128	1033.6	2.4
328.15	0.266	1021.3	2.7
328.15	0.357	1011	3
328.15	0.455	997.4	3.2
328.15	0.554	980.4	3.5
328.15	0.662	956.8	3.7
328.15	0.767	924.4	3.8
328.15	0.868	876.1	3.8

System: propan-1-ol + 1-methyl-3-octylimidazolium nitrate; phases: Liquid
Fixed: Pressure, kPa = 101
Property: Viscosity, Pa*s (Liquid); method: SPHERE:UFactor:4
Temperature, K	Mole fraction of propan-1-ol	Viscosity, Pa*s	uncertainty
283.15	0.107	1.09082	0.45305
283.15	0.258	0.48737	0.14978
283.15	0.364	0.21764	0.04349
283.15	0.47	0.11389	0.01293
283.15	0.556	0.06535	0.00285
283.15	0.671	0.02877	0.00122
283.15	0.756	0.01616	0.00079
283.15	0.866	0.00784	0.00058
288.15	0.107	0.73323	0.26548
288.15	0.258	0.35559	0.09419
288.15	0.364	0.16424	0.02653
288.15	0.47	0.08579	0.00651
288.15	0.556	0.05201	0.0013
288.15	0.671	0.02376	0.001
288.15	0.756	0.01366	0.00071
288.15	0.866	0.0068	0.00056
293.15	0.107	0.51089	0.16016
293.15	0.258	0.25768	0.05713
293.15	0.364	0.12689	0.01613
293.15	0.47	0.07537	0.00445
293.15	0.556	0.04206	0.00161
293.15	0.671	0.01989	0.00088
293.15	0.756	0.01167	0.00066
293.15	0.866	0.00585	0.00055
298.15	0.107	0.36457	0.09776
298.15	0.258	0.19145	0.03482
298.15	0.364	0.09972	0.0095
298.15	0.47	0.05995	0.00196
298.15	0.556	0.03443	0.00133
298.15	0.671	0.01684	0.00079
298.15	0.756	0.01007	0.00062
298.15	0.866	0.00508	0.00053
303.15	0.107	0.26722	0.06051
303.15	0.258	0.14663	0.02144
303.15	0.364	0.07867	0.00507
303.15	0.47	0.04852	0.00183
303.15	0.556	0.02861	0.00114
303.15	0.671	0.01441	0.00072
303.15	0.756	0.00877	0.00059
303.15	0.866	0.00448	0.00053
308.15	0.107	0.20123	0.03791
308.15	0.258	0.11338	0.01271
308.15	0.364	0.06299	0.00235
308.15	0.47	0.03966	0.00149
308.15	0.556	0.02401	0.00099
308.15	0.671	0.01245	0.00067
308.15	0.756	0.00763	0.00057
308.15	0.866	0.00394	0.00052
313.15	0.107	0.15298	0.02321
313.15	0.258	0.08694	0.00672
313.15	0.364	0.05114	0.00117
313.15	0.47	0.03289	0.00126
313.15	0.556	0.02038	0.00088
313.15	0.671	0.01083	0.00064
313.15	0.756	0.00675	0.00056
313.15	0.866	0.00352	0.00052
318.15	0.107	0.12002	0.01432
318.15	0.258	0.06591	0.00279
318.15	0.364	0.04211	0.00156
318.15	0.47	0.02761	0.00109
318.15	0.556	0.01744	0.0008
318.15	0.671	0.0095	0.00061
318.15	0.756	0.00593	0.00055
318.15	0.866	0.00314	0.00051
323.15	0.107	0.09535	0.00851
323.15	0.258	0.05341	0.00129
323.15	0.364	0.03496	0.00133
323.15	0.47	0.02344	0.00097
323.15	0.556	0.01508	0.00074
323.15	0.671	0.00841	0.00059
323.15	0.756	0.00521	0.00054
323.15	0.866	0.00282	0.00051
328.15	0.107	0.05842	0.00214
328.15	0.258	0.03653	0.00145
328.15	0.364	0.02502	0.00104
328.15	0.47	0.01734	0.00082
328.15	0.556	0.01156	0.00065
328.15	0.671	0.00655	0.00055
328.15	0.756	0.0042	0.00052
328.15	0.866	0.00231	0.00051

System: propan-1-ol + 1-methyl-3-octylimidazolium nitrate; phases: Liquid
Fixed: Pressure, kPa = 101
Property: Mass density, kg/m3 (Liquid); method: Vibrating tube method
Temperature, K	Mole fraction of propan-1-ol	Mass density, kg/m3	uncertainty
283.15	0.107	1064.8	2.5
283.15	0.258	1048.9	2.9
283.15	0.364	1035.1	3.2
283.15	0.47	1018.5	3.4
283.15	0.556	1002.2	3.6
283.15	0.671	975	3.8
283.15	0.756	949	3.9
283.15	0.866	902.9	4
288.15	0.107	1061.4	2.5
288.15	0.258	1045.4	2.9
288.15	0.364	1031.6	3.1
288.15	0.47	1015.1	3.4
288.15	0.556	998.9	3.6
288.15	0.671	971.6	3.8
288.15	0.756	945.5	3.9
288.15	0.866	899	3.9
293.15	0.107	1058.3	2.4
293.15	0.258	1042.3	2.8
293.15	0.364	1028.5	3.1
293.15	0.47	1011.9	3.4
293.15	0.556	995.6	3.6
293.15	0.671	968.3	3.8
293.15	0.756	942	3.9
293.15	0.866	895.3	3.9
298.15	0.107	1055.1	2.4
298.15	0.258	1039.1	2.8
298.15	0.364	1025.3	3.1
298.15	0.47	1008.6	3.3
298.15	0.556	992.3	3.5
298.15	0.671	964.8	3.8
298.15	0.756	938.4	3.9
298.15	0.866	891.6	3.9
303.15	0.107	1052	2.4
303.15	0.258	1036	2.8
303.15	0.364	1022.1	3.1
303.15	0.47	1005.4	3.3
303.15	0.556	988.9	3.5
303.15	0.671	961.3	3.7
303.15	0.756	935	3.8
303.15	0.866	887.9	3.8
308.15	0.107	1048.8	2.4
308.15	0.258	1032.9	2.8
308.15	0.364	1019	3.1
308.15	0.47	1002.2	3.3
308.15	0.556	985.6	3.5
308.15	0.671	957.9	3.7
308.15	0.756	931.4	3.8
308.15	0.866	884.3	3.8
313.15	0.107	1045.8	2.4
313.15	0.258	1029.7	2.8
313.15	0.364	1015.8	3
313.15	0.47	998.9	3.3
313.15	0.556	982.3	3.5
313.15	0.671	954.5	3.7
313.15	0.756	927.9	3.8
313.15	0.866	880.6	3.8
318.15	0.107	1042.7	2.4
318.15	0.258	1026.5	2.8
318.15	0.364	1012.4	3
318.15	0.47	995.6	3.3
318.15	0.556	978.9	3.5
318.15	0.671	951.2	3.7
318.15	0.756	924.4	3.8
318.15	0.866	876.8	3.8
323.15	0.107	1039.7	2.4
323.15	0.258	1023.5	2.7
323.15	0.364	1009.3	3
323.15	0.47	992.3	3.2
323.15	0.556	975.6	3.4
323.15	0.671	947.7	3.6
323.15	0.756	920.9	3.7
323.15	0.866	873.1	3.7
328.15	0.107	1033.6	2.3
328.15	0.258	1017.3	2.7
328.15	0.364	1003	3
328.15	0.47	985.8	3.2
328.15	0.556	969	3.4
328.15	0.671	940.9	3.6
328.15	0.756	913.8	3.7
328.15	0.866	865.6	3.7

System: butan-1-ol + 1-methyl-3-octylimidazolium nitrate; phases: Liquid
Fixed: Pressure, kPa = 101
Property: Viscosity, Pa*s (Liquid); method: SPHERE:UFactor:4
Temperature, K	Mole fraction of butan-1-ol	Viscosity, Pa*s	uncertainty
283.15	0.168	0.77096	0.28425
283.15	0.261	0.43509	0.1271
283.15	0.358	0.2412	0.0514
283.15	0.458	0.12639	0.01608
283.15	0.57	0.05938	0.00208
283.15	0.676	0.02991	0.00124
283.15	0.754	0.01867	0.00086
283.15	0.848	0.01045	0.00063
288.15	0.168	0.53235	0.16985
288.15	0.261	0.31082	0.07673
288.15	0.358	0.17927	0.03106
288.15	0.458	0.09882	0.00933
288.15	0.57	0.04745	0.00182
288.15	0.676	0.02466	0.00103
288.15	0.754	0.01569	0.00076
288.15	0.848	0.00903	0.0006
293.15	0.168	0.37868	0.10349
293.15	0.261	0.22939	0.04728
293.15	0.358	0.13704	0.01883
293.15	0.458	0.07423	0.00429
293.15	0.57	0.03854	0.00148
293.15	0.676	0.02063	0.0009
293.15	0.754	0.01336	0.0007
293.15	0.848	0.0078	0.00058
298.15	0.168	0.27652	0.0639
298.15	0.261	0.17154	0.02868
298.15	0.358	0.10505	0.01074
298.15	0.458	0.05929	0.00187
298.15	0.57	0.03177	0.00125
298.15	0.676	0.01743	0.00081
298.15	0.754	0.01144	0.00065
298.15	0.848	0.00679	0.00056
303.15	0.168	0.20665	0.03968
303.15	0.261	0.13218	0.0175
303.15	0.358	0.08064	0.00546
303.15	0.458	0.04794	0.00181
303.15	0.57	0.0264	0.00107
303.15	0.676	0.01491	0.00074
303.15	0.754	0.00992	0.00062
303.15	0.848	0.00592	0.00055
308.15	0.168	0.15767	0.02457
308.15	0.261	0.10347	0.01035
308.15	0.358	0.06447	0.00258
308.15	0.458	0.03926	0.00148
308.15	0.57	0.02229	0.00094
308.15	0.676	0.01281	0.00068
308.15	0.754	0.00874	0.00059
308.15	0.848	0.00515	0.00054
313.15	0.168	0.12281	0.01504
313.15	0.261	0.07848	0.00502
313.15	0.358	0.0522	0.00121
313.15	0.458	0.03261	0.00125
313.15	0.57	0.01898	0.00084
313.15	0.676	0.01115	0.00064
313.15	0.754	0.00763	0.00057
313.15	0.848	0.00456	0.00053
318.15	0.168	0.09737	0.00894
318.15	0.261	0.06335	0.00237
318.15	0.358	0.04285	0.00158
318.15	0.458	0.02735	0.00108
318.15	0.57	0.0163	0.00077
318.15	0.676	0.00975	0.00061
318.15	0.754	0.00676	0.00056
318.15	0.848	0.00403	0.00052
323.15	0.168	0.07321	0.00407
323.15	0.261	0.05164	0.0012
323.15	0.358	0.03568	0.00135
323.15	0.458	0.02319	0.00096
323.15	0.57	0.01415	0.00071
323.15	0.676	0.00867	0.00059
323.15	0.754	0.00598	0.00055
323.15	0.848	0.00361	0.00052
328.15	0.168	0.04889	0.00198
328.15	0.261	0.03554	0.00142
328.15	0.358	0.02552	0.00107
328.15	0.458	0.01718	0.0008
328.15	0.57	0.01088	0.00064
328.15	0.676	0.00684	0.00056
328.15	0.754	0.00476	0.00053
328.15	0.848	0.00293	0.00051

System: butan-1-ol + 1-methyl-3-octylimidazolium nitrate; phases: Liquid
Fixed: Pressure, kPa = 101
Property: Mass density, kg/m3 (Liquid); method: VIBTUB:UFactor:2
Temperature, K	Mole fraction of butan-1-ol	Mass density, kg/m3	uncertainty
283.15	0.168	1055.8	2.7
283.15	0.261	1043.9	2.9
283.15	0.358	1029.8	3.1
283.15	0.458	1012.7	3.4
283.15	0.57	989.6	3.6
283.15	0.676	962.6	3.8
283.15	0.754	938.4	3.9
283.15	0.848	902.2	4
288.15	0.168	1052.5	2.7
288.15	0.261	1040.6	2.9
288.15	0.358	1026.4	3.1
288.15	0.458	1009.2	3.3
288.15	0.57	986.1	3.6
288.15	0.676	959.1	3.8
288.15	0.754	935	3.9
288.15	0.848	898.7	3.9
293.15	0.168	1049.3	2.6
293.15	0.261	1037.4	2.9
293.15	0.358	1023.1	3.1
293.15	0.458	1005.9	3.3
293.15	0.57	982.8	3.6
293.15	0.676	955.8	3.8
293.15	0.754	931.5	3.9
293.15	0.848	895.1	3.9
298.15	0.168	1046.2	2.6
298.15	0.261	1034.2	2.8
298.15	0.358	1019.9	3.1
298.15	0.458	1002.7	3.3
298.15	0.57	979.5	3.5
298.15	0.676	952.4	3.7
298.15	0.754	928	3.8
298.15	0.848	891.6	3.9
303.15	0.168	1043	2.6
303.15	0.261	1031.1	2.8
303.15	0.358	1016.8	3.1
303.15	0.458	999.4	3.3
303.15	0.57	976.1	3.5
303.15	0.676	949	3.7
303.15	0.754	924.5	3.8
303.15	0.848	888	3.9
308.15	0.168	1039.9	2.6
308.15	0.261	1028	2.8
308.15	0.358	1013.6	3
308.15	0.458	996.2	3.3
308.15	0.57	972.8	3.5
308.15	0.676	945.6	3.7
308.15	0.754	921.1	3.8
308.15	0.848	884.4	3.8
313.15	0.168	1036.9	2.6
313.15	0.261	1024.9	2.8
313.15	0.358	1010.4	3
313.15	0.458	993	3.2
313.15	0.57	969.4	3.5
313.15	0.676	942.1	3.7
313.15	0.754	917.6	3.8
313.15	0.848	880.8	3.8
318.15	0.168	1033.8	2.6
318.15	0.261	1021.8	2.8
318.15	0.358	1007.3	3
318.15	0.458	989.8	3.2
318.15	0.57	966.2	3.5
318.15	0.676	938.7	3.6
318.15	0.754	914.2	3.7
318.15	0.848	877.2	3.8
323.15	0.168	1030.8	2.5
323.15	0.261	1018.7	2.8
323.15	0.358	1004.1	3
323.15	0.458	986.5	3.2
323.15	0.57	962.9	3.4
323.15	0.676	935.3	3.6
323.15	0.754	910.6	3.7
323.15	0.848	873.6	3.8
328.15	0.168	1024.7	2.5
328.15	0.261	1012.6	2.7
328.15	0.358	997.9	2.9
328.15	0.458	980.1	3.2
328.15	0.57	956.1	3.4
328.15	0.676	928.4	3.6
328.15	0.754	903.5	3.7
328.15	0.848	866.4	3.7
