Measured thermophysical data. Isothermal Vapor-Liquid Equilibrium at 333.15 K and Excess Volumes and Molar Refractivity Deviation at 298.15 K for Binary System Dibutyl Ether (DBE) + 2,2,4-Trimethylpentane and for Ternary System DBE + Ethanol + 2,2,4-Trimethylpentane
Source: J. Chem. Eng. Data, 2010, 10.1021/je900496t
Compound 1: dibutyl ether, C8H18O, InChI=1S/C8H18O/c1-3-5-7-9-8-6-4-2/h3-8H2,1-2H3
Compound 2: 2,2,4-trimethylpentane, C8H18, InChI=1S/C8H18/c1-7(2)6-8(3,4)5/h7H,6H2,1-5H3
Compound 3: ethanol, C2H6O, InChI=1S/C2H6O/c1-2-3/h3H,2H2,1H3

System: dibutyl ether + 2,2,4-trimethylpentane; phases: Liquid
Fixed: Temperature, K = 298.15
Fixed: Pressure, kPa = 101
Property: Refractive index (Na D-line) (Liquid); method: Standard Abbe refractometry
Mole fraction of dibutyl ether	Refractive index (Na D-line)	uncertainty
0.0497	1.38937	0.00072
0.1	1.38978	0.00072
0.1996	1.39059	0.00072
0.3	1.39139	0.00072
0.4001	1.39217	0.00072
0.5005	1.39296	0.00072
0.6003	1.39376	0.00072
0.7	1.39449	0.00072
0.8	1.39521	0.00072
0.9	1.39589	0.00072
0.95	1.39621	0.00072

System: dibutyl ether + 2,2,4-trimethylpentane; phases: Liquid
Fixed: Temperature, K = 298.15
Fixed: Pressure, kPa = 101
Property: Mass density, kg/m3 (Liquid); method: VIBTUB:UFactor:2
Mole fraction of dibutyl ether	Mass density, kg/m3	uncertainty
0.0497	692.1	0.39
0.1	696.09	0.39
0.1996	703.9	0.38
0.3	711.73	0.37
0.4001	719.45	0.37
0.5005	727.17	0.36
0.6003	734.81	0.35
0.7	742.31	0.34
0.8	749.75	0.34
0.9	757.11	0.33
0.95	760.7	0.32

System: dibutyl ether + 2,2,4-trimethylpentane; phases: Gas, Liquid
Fixed: Temperature, K = 333.15
Property: Mole fraction of dibutyl ether (Gas); method: Chromatography
Mole fraction of dibutyl ether	Mole fraction of dibutyl ether	uncertainty
0.02	0	0.01
0.04	0.01	0.01
0.06	0.02	0.01
0.08	0.02	0.01
0.12	0.03	0.01
0.17	0.04	0.01
0.23	0.06	0.01
0.29	0.08	0.01
0.35	0.1	0.01
0.41	0.12	0.01
0.47	0.15	0.01
0.53	0.18	0.01
0.59	0.21	0.01
0.65	0.25	0.01
0.71	0.31	0.01
0.77	0.37	0.01
0.83	0.46	0.01
0.88	0.56	0.01
0.92	0.66	0.01
0.94	0.73	0.01
0.96	0.8	0.01
0.98	0.89	0.01

System: ethanol + dibutyl ether + 2,2,4-trimethylpentane; phases: Liquid
Fixed: Temperature, K = 298.15
Fixed: Pressure, kPa = 101
Property: Refractive index (Na D-line) (Liquid); method: Standard Abbe refractometry
Mole fraction of dibutyl ether	Mole fraction of ethanol	Refractive index (Na D-line)	uncertainty
0.0198	0.8006	1.36917	0.00072
0.02	0.1797	1.38692	0.00072
0.0299	0.6996	1.37389	0.00072
0.0299	0.9003	1.36524	0.00072
0.0302	0.074	1.38873	0.00072
0.0308	0.2708	1.38536	0.00072
0.0398	0.6	1.378	0.00072
0.0405	0.3612	1.38387	0.00072
0.0504	0.4509	1.38238	0.00072
0.0601	0.54	1.38021	0.00072
0.0702	0.0315	1.38931	0.00072
0.0702	0.8996	1.36646	0.00072
0.0898	0.7007	1.37419	0.00072
0.0904	0.2123	1.38696	0.00072
0.0997	0.0993	1.38869	0.00072
0.1001	0.7999	1.37002	0.00072
0.1202	0.2811	1.38634	0.00072
0.1203	0.6004	1.37913	0.00072
0.1497	0.7001	1.37521	0.00072
0.1498	0.4996	1.38294	0.00072
0.1505	0.1505	1.38836	0.00072
0.1509	0.3496	1.38599	0.00072
0.1798	0.8	1.37366	0.00072
0.1799	0.42	1.38539	0.00072
0.181	0.0187	1.39021	0.00072
0.2006	0.1991	1.38832	0.00072
0.2006	0.5992	1.38043	0.00072
0.2099	0.7001	1.37696	0.00072
0.2108	0.0889	1.38947	0.00072
0.2499	0.4999	1.38469	0.00072
0.2501	0.2506	1.38857	0.00072
0.2691	0.0322	1.39078	0.00072
0.2703	0.6996	1.37907	0.00072
0.2791	0.1205	1.38969	0.00072
0.2799	0.6001	1.38185	0.00072
0.3001	0.4009	1.38776	0.00072
0.3006	0.2992	1.38889	0.00072
0.3493	0.1512	1.39015	0.00072
0.3501	0.4996	1.38625	0.00072
0.3604	0.5997	1.38362	0.00072
0.3608	0.0388	1.39136	0.00072
0.3987	0.1821	1.39027	0.00072
0.4	0.2993	1.38981	0.00072
0.4001	0.0588	1.39156	0.00072
0.4201	0.4006	1.38935	0.00072
0.449	0.5007	1.38744	0.00072
0.4996	0.051	1.39242	0.00072
0.5	0.3503	1.38992	0.00072
0.5004	0.2503	1.39104	0.00072
0.5008	0.1495	1.39174	0.00072
0.5395	0.3999	1.38991	0.00072
0.5985	0.2811	1.39196	0.00072
0.5996	0.3601	1.39112	0.00072
0.5997	0.0399	1.39321	0.00072
0.6974	0.0933	1.39373	0.00072
0.7004	0.269	1.3926	0.00072
0.7007	0.1495	1.39357	0.00072
0.7009	0.0293	1.39421	0.00072
0.7063	0.203	1.39292	0.00072
0.7974	0.1028	1.39465	0.00072
0.8004	0.0197	1.39508	0.00072
0.8018	0.1786	1.39418	0.00072
0.8976	0.0707	1.39556	0.00072
0.8978	0.0303	1.39572	0.00072

System: ethanol + dibutyl ether + 2,2,4-trimethylpentane; phases: Liquid
Fixed: Temperature, K = 298.15
Fixed: Pressure, kPa = 101
Property: Mass density, kg/m3 (Liquid); method: VIBTUB:UFactor:2
Mole fraction of dibutyl ether	Mole fraction of ethanol	Mass density, kg/m3	uncertainty
0.0198	0.8006	746.2	0.3
0.02	0.1797	695.5	0.4
0.0299	0.6996	733.9	0.4
0.0299	0.9003	766.7	0.3
0.0302	0.074	692.6	0.4
0.0308	0.2708	700.6	0.4
0.0398	0.6	724.6	0.4
0.0405	0.3612	706.5	0.4
0.0504	0.4509	713.5	0.4
0.0601	0.54	721.8	0.4
0.0702	0.0315	694.6	0.4
0.0702	0.8996	774.4	0.3
0.0898	0.7007	743.3	0.3
0.0904	0.2123	703.5	0.4
0.0997	0.0993	699.4	0.4
0.1001	0.7999	760.1	0.3
0.1202	0.2811	710	0.4
0.1203	0.6004	735.6	0.4
0.1497	0.7001	752.2	0.3
0.1498	0.4996	729.3	0.4
0.1505	0.1505	706	0.4
0.1509	0.3496	717.5	0.4
0.1798	0.8	773.5	0.3
0.1799	0.42	725.8	0.4
0.181	0.0187	703	0.4
0.2006	0.1991	713	0.4
0.2006	0.5992	746.1	0.3
0.2099	0.7001	761	0.3
0.2108	0.0889	708.3	0.4
0.2499	0.4999	741.2	0.4
0.2501	0.2506	720.7	0.4
0.2691	0.0322	710.6	0.4
0.2703	0.6996	769.8	0.3
0.2791	0.1205	715.6	0.4
0.2799	0.6001	756.6	0.3
0.3001	0.4009	737.3	0.4
0.3006	0.2992	729	0.4
0.3493	0.1512	723.4	0.4
0.3501	0.4996	752.9	0.3
0.3604	0.5997	766.9	0.3
0.3608	0.0388	718.2	0.4
0.3987	0.1821	729.8	0.4
0.4	0.2993	738.6	0.4
0.4001	0.0588	722.4	0.4
0.4201	0.4006	750	0.3
0.449	0.5007	764.5	0.3
0.4996	0.051	729.9	0.4
0.5	0.3503	753.1	0.3
0.5004	0.2503	744	0.3
0.5008	0.1495	736.4	0.4
0.5395	0.3999	762.5	0.3
0.5985	0.2811	756	0.3
0.5996	0.3601	764.1	0.3
0.5997	0.0399	737.1	0.4
0.6974	0.0933	748.5	0.3
0.7004	0.269	764.2	0.3
0.7007	0.1495	753.3	0.3
0.7009	0.0293	744.3	0.3
0.7063	0.203	758.4	0.3
0.7974	0.1028	757.3	0.3
0.8004	0.0197	751.2	0.3
0.8018	0.1786	764.4	0.3
0.8976	0.0707	762.5	0.3
0.8978	0.0303	759.2	0.3

System: ethanol + dibutyl ether + 2,2,4-trimethylpentane; phases: Gas, Liquid
Fixed: Temperature, K = 333.15
Property: Mole fraction of ethanol (Gas); method: Chromatography
Mole fraction of dibutyl ether	Mole fraction of ethanol	Mole fraction of ethanol	uncertainty
0.02	0.8	0.687	0.0038
0.0297	0.7001	0.6518	0.0042
0.0303	0.2707	0.5583	0.0053
0.0303	0.8999	0.8017	0.0024
0.0307	0.0722	0.4559	0.0055
0.04	0.6	0.6383	0.0044
0.0403	0.3601	0.5918	0.0049
0.0507	0.45	0.615	0.0046
0.0605	0.5395	0.6373	0.0044
0.0699	0.0271	0.3199	0.0038
0.0902	0.7	0.6991	0.0036
0.0905	0.2121	0.5533	0.0054
0.0997	0.0999	0.4907	0.0059
0.1196	0.5991	0.6768	0.0039
0.1198	0.2803	0.5823	0.005
0.1495	0.4999	0.6558	0.0042
0.15	0.7003	0.7472	0.0031
0.1506	0.3497	0.6116	0.0047
0.1508	0.1477	0.5298	0.0057
0.1703	0.151	0.522	0.0058
0.1805	0.4195	0.6416	0.0043
0.1806	0.0185	0.2586	0.0031
0.1997	0.1998	0.5666	0.0052
0.2002	0.5993	0.7223	0.0034
0.2109	0.089	0.4895	0.0059
0.2498	0.25	0.6023	0.0048
0.2506	0.4991	0.6995	0.0036
0.2712	0.0285	0.3192	0.0038
0.2796	0.1211	0.5342	0.0056
0.3005	0.3993	0.685	0.0038
0.3231	0.29	0.6391	0.0044
0.3516	0.1483	0.5727	0.0052
0.3592	0.0411	0.4037	0.0049

System: ethanol + dibutyl ether + 2,2,4-trimethylpentane; phases: Gas, Liquid
Fixed: Temperature, K = 333.15
Property: Mole fraction of dibutyl ether (Gas); method: Chromatography
Mole fraction of dibutyl ether	Mole fraction of ethanol	Mole fraction of dibutyl ether	uncertainty
0.02	0.8	0.0057	0.0001
0.0297	0.7001	0.0065	0.0001
0.0303	0.2707	0.005	0.0001
0.0303	0.8999	0.014	0.0002
0.0307	0.0722	0.005	0.0001
0.04	0.6	0.0084	0.0001
0.0403	0.3601	0.0065	0.0001
0.0507	0.45	0.0075	0.0001
0.0605	0.5395	0.0098	0.0001
0.0699	0.0271	0.0144	0.0002
0.0902	0.7	0.0222	0.0003
0.0905	0.2121	0.0153	0.0002
0.0997	0.0999	0.0169	0.0002
0.1196	0.5991	0.0257	0.0003
0.1198	0.2803	0.021	0.0003
0.1495	0.4999	0.0276	0.0003
0.15	0.7003	0.0407	0.0005
0.1506	0.3497	0.0274	0.0003
0.1508	0.1477	0.0258	0.0003
0.1703	0.151	0.0034	0.0001
0.1805	0.4195	0.0342	0.0004
0.1806	0.0185	0.0404	0.0005
0.1997	0.1998	0.0346	0.0004
0.2002	0.5993	0.0459	0.0006
0.2109	0.089	0.0368	0.0004
0.2498	0.25	0.0428	0.0005
0.2506	0.4991	0.0492	0.0006
0.2712	0.0285	0.0594	0.0007
0.2796	0.1211	0.0478	0.0006
0.3005	0.3993	0.0532	0.0006
0.3231	0.29	0.0521	0.0006
0.3516	0.1483	0.0598	0.0007
0.3592	0.0411	0.0669	0.0008
