Measured thermophysical data. Solubilities of Methyldiphenylphosphine Oxide in Selected Solvents
Source: J. Chem. Eng. Data, 2010, 10.1021/je900277m
Compound 1: methyldiphenylphosphine oxide, C13H13OP, InChI=1S/C13H13OP/c1-15(14,12-8-4-2-5-9-12)13-10-6-3-7-11-13/h2-11H,1H3, purity 98%
Compound 2: benzene, C6H6, InChI=1S/C6H6/c1-2-4-6-5-3-1/h1-6H, purity 99.5%
Compound 3: toluene, C7H8, InChI=1S/C7H8/c1-7-5-3-2-4-6-7/h2-6H,1H3, purity 99.5%
Compound 4: ethylbenzene, C8H10, InChI=1S/C8H10/c1-2-8-6-4-3-5-7-8/h3-7H,2H2,1H3, purity 99%
Compound 5: 1,2-dimethylbenzene, C8H10, InChI=1S/C8H10/c1-7-5-3-4-6-8(7)2/h3-6H,1-2H3, purity 98.5%
Compound 6: 1,3-dimethylbenzene, C8H10, InChI=1S/C8H10/c1-7-4-3-5-8(2)6-7/h3-6H,1-2H3, purity 95%
Compound 7: 1,4-dimethylbenzene, C8H10, InChI=1S/C8H10/c1-7-3-5-8(2)6-4-7/h3-6H,1-2H3, purity 95%
Compound 8: ethyl acetate, C4H8O2, InChI=1S/C4H8O2/c1-3-6-4(2)5/h3H2,1-2H3, purity 99.5%
Compound 9: acetone, C3H6O, InChI=1S/C3H6O/c1-3(2)4/h1-2H3, purity 99.5%
Compound 10: hexane, C6H14, InChI=1S/C6H14/c1-3-5-6-4-2/h3-6H2,1-2H3, purity 99.5%

System: methyldiphenylphosphine oxide; phases: Crystal, Liquid, Air at 1 atmosphere
Property: Molar enthalpy of transition or fusion, kJ/mol (Crystal); method: DSC
Molar enthalpy of transition or fusion, kJ/mol	uncertainty
20.3697037081062	0.61837627566

System: methyldiphenylphosphine oxide; phases: Crystal, Liquid, Air at 1 atmosphere
Property: Normal melting temperature, K (Crystal); method: DTA
Normal melting temperature, K	uncertainty
385.42	0.5

System: benzene; phases: Liquid
Property: Refractive index (Na D-line) (Liquid); method: Standard Abbe refractometry
Temperature, K	Pressure, kPa	Refractive index (Na D-line)	uncertainty
293.15	101.325	1.5011	0.0007

System: benzene; phases: Liquid
Property: Mass density, kg/m3 (Liquid); method: Vibrating tube method
Temperature, K	Pressure, kPa	Mass density, kg/m3	uncertainty
293.15	101.325	879	1

System: toluene; phases: Liquid
Property: Refractive index (Na D-line) (Liquid); method: Standard Abbe refractometry
Temperature, K	Pressure, kPa	Refractive index (Na D-line)	uncertainty
293.15	101.325	1.4967	0.0007

System: toluene; phases: Liquid
Property: Mass density, kg/m3 (Liquid); method: Vibrating tube method
Temperature, K	Pressure, kPa	Mass density, kg/m3	uncertainty
293.15	101.325	866	1

System: ethylbenzene; phases: Liquid
Property: Refractive index (Na D-line) (Liquid); method: Standard Abbe refractometry
Temperature, K	Pressure, kPa	Refractive index (Na D-line)	uncertainty
293.15	101.325	1.5009	0.0008

System: ethylbenzene; phases: Liquid
Property: Mass density, kg/m3 (Liquid); method: Vibrating tube method
Temperature, K	Pressure, kPa	Mass density, kg/m3	uncertainty
293.15	101.325	870	1

System: 1,2-dimethylbenzene; phases: Liquid
Property: Refractive index (Na D-line) (Liquid); method: Standard Abbe refractometry
Temperature, K	Pressure, kPa	Refractive index (Na D-line)	uncertainty
293.15	101.325	1.5055	0.0008

System: 1,2-dimethylbenzene; phases: Liquid
Property: Mass density, kg/m3 (Liquid); method: Vibrating tube method
Temperature, K	Pressure, kPa	Mass density, kg/m3	uncertainty
293.15	101.325	880.2	0.6

System: 1,3-dimethylbenzene; phases: Liquid
Property: Refractive index (Na D-line) (Liquid); method: Standard Abbe refractometry
Temperature, K	Pressure, kPa	Refractive index (Na D-line)	uncertainty
293.15	101.325	1.4972	0.0012

System: 1,3-dimethylbenzene; phases: Liquid
Property: Mass density, kg/m3 (Liquid); method: Vibrating tube method
Temperature, K	Pressure, kPa	Mass density, kg/m3	uncertainty
293.15	101.325	868.4	5.3

System: 1,4-dimethylbenzene; phases: Liquid
Property: Refractive index (Na D-line) (Liquid); method: Standard Abbe refractometry
Temperature, K	Pressure, kPa	Refractive index (Na D-line)	uncertainty
293.15	101.325	1.5004	0.0012

System: 1,4-dimethylbenzene; phases: Liquid
Property: Mass density, kg/m3 (Liquid); method: Vibrating tube method
Temperature, K	Pressure, kPa	Mass density, kg/m3	uncertainty
293.15	101.325	861.1	5.2

System: ethyl acetate; phases: Liquid
Property: Refractive index (Na D-line) (Liquid); method: Standard Abbe refractometry
Temperature, K	Pressure, kPa	Refractive index (Na D-line)	uncertainty
293.15	101.325	1.3588	0.0007

System: ethyl acetate; phases: Liquid
Property: Mass density, kg/m3 (Liquid); method: Vibrating tube method
Temperature, K	Pressure, kPa	Mass density, kg/m3	uncertainty
293.15	101.325	900	1

System: acetone; phases: Liquid
Property: Refractive index (Na D-line) (Liquid); method: Standard Abbe refractometry
Temperature, K	Pressure, kPa	Refractive index (Na D-line)	uncertainty
293.15	101.325	1.3588	0.0007

System: acetone; phases: Liquid
Property: Mass density, kg/m3 (Liquid); method: Vibrating tube method
Temperature, K	Pressure, kPa	Mass density, kg/m3	uncertainty
293.15	101.325	788	1

System: hexane; phases: Liquid
Property: Refractive index (Na D-line) (Liquid); method: Standard Abbe refractometry
Temperature, K	Pressure, kPa	Refractive index (Na D-line)	uncertainty
293.15	101.325	1.3751	0.0007

System: hexane; phases: Liquid
Property: Mass density, kg/m3 (Liquid); method: Vibrating tube method
Temperature, K	Pressure, kPa	Mass density, kg/m3	uncertainty
293.15	101.325	659.4	0.3

System: benzene + methyldiphenylphosphine oxide; phases: Liquid, Crystal
Fixed: Pressure, kPa = 101
Property: Mole fraction of methyldiphenylphosphine oxide (Liquid); method: gravimetric method
Temperature, K	Mole fraction of methyldiphenylphosphine oxide	uncertainty
288.52	0.04386	0.00177
293.56	0.05731	0.00232
298.13	0.06975	0.00282
303.21	0.08747	0.00354
308.12	0.10233	0.00415
312.55	0.12307	0.00499
318.04	0.15627	0.00634
323.17	0.18304	0.00744

System: toluene + methyldiphenylphosphine oxide; phases: Liquid, Crystal
Fixed: Pressure, kPa = 101
Property: Mole fraction of methyldiphenylphosphine oxide (Liquid); method: gravimetric method
Temperature, K	Mole fraction of methyldiphenylphosphine oxide	uncertainty
293.35	0.02275	0.00092
298.16	0.0287	0.00116
303.08	0.03863	0.00156
307.11	0.04975	0.00201
312.12	0.065	0.00262
316.4	0.07975	0.00322
320.95	0.09786	0.00395
326.54	0.13478	0.00545

System: ethylbenzene + methyldiphenylphosphine oxide; phases: Liquid, Crystal
Fixed: Pressure, kPa = 101
Property: Mole fraction of methyldiphenylphosphine oxide (Liquid); method: gravimetric method
Temperature, K	Mole fraction of methyldiphenylphosphine oxide	uncertainty
293.35	0.01831	0.00074
298.04	0.02244	0.0009
303.12	0.0304	0.00122
308.33	0.03929	0.00158
312.8	0.04645	0.00187
317.51	0.06102	0.00246
321.25	0.0719	0.0029
326.39	0.0876	0.00353

System: 1,3-dimethylbenzene + methyldiphenylphosphine oxide; phases: Liquid, Crystal
Fixed: Pressure, kPa = 101
Property: Mole fraction of methyldiphenylphosphine oxide (Liquid); method: gravimetric method
Temperature, K	Mole fraction of methyldiphenylphosphine oxide	uncertainty
293.75	0.01292	0.00052
298.16	0.01665	0.00067
303.32	0.0216	0.00087
307.41	0.02582	0.00104
313	0.0332	0.00134
317.53	0.03975	0.0016
320.55	0.04529	0.00182
326.39	0.06136	0.00247

System: 1,4-dimethylbenzene + methyldiphenylphosphine oxide; phases: Liquid, Crystal
Fixed: Pressure, kPa = 101
Property: Mole fraction of methyldiphenylphosphine oxide (Liquid); method: gravimetric method
Temperature, K	Mole fraction of methyldiphenylphosphine oxide	uncertainty
293.65	0.01308	0.00053
298.19	0.01751	0.0007
303.31	0.02188	0.00088
308.42	0.02996	0.00121
313.11	0.03599	0.00145
317.38	0.04418	0.00178
320.55	0.05385	0.00217
326.44	0.06792	0.00273

System: 1,2-dimethylbenzene + methyldiphenylphosphine oxide; phases: Liquid, Crystal
Fixed: Pressure, kPa = 101
Property: Mole fraction of methyldiphenylphosphine oxide (Liquid); method: gravimetric method
Temperature, K	Mole fraction of methyldiphenylphosphine oxide	uncertainty
293.35	0.02812	0.00113
298.08	0.03435	0.00138
303.11	0.04065	0.00164
308.23	0.04543	0.00183
313.09	0.05247	0.00211
317.05	0.06028	0.00243
321.94	0.07102	0.00286
328.07	0.08214	0.00331

System: ethyl acetate + methyldiphenylphosphine oxide; phases: Liquid, Crystal
Fixed: Pressure, kPa = 101
Property: Mole fraction of methyldiphenylphosphine oxide (Liquid); method: gravimetric method
Temperature, K	Mole fraction of methyldiphenylphosphine oxide	uncertainty
293.25	0.04151	0.00168
298.46	0.04969	0.00201
302.88	0.06177	0.00249
307.97	0.07438	0.003
313.22	0.08851	0.00358
317.25	0.10358	0.00419
322.14	0.12836	0.00519
326.93	0.1498	0.00606

System: acetone + hexane + methyldiphenylphosphine oxide; phases: Liquid, Crystal
Fixed: Solvent: Mole fraction of acetone = 0.3
Fixed: Pressure, kPa = 101
Property: Mole fraction of methyldiphenylphosphine oxide (Liquid); method: gravimetric method
Temperature, K	Mole fraction of methyldiphenylphosphine oxide	uncertainty
284.36	0.0095	0.00038
289.11	0.01132	0.00046
293.91	0.0126	0.00051
298.02	0.01414	0.00057
302.85	0.01691	0.00068
308.13	0.01864	0.00075
313.24	0.02193	0.00089

System: benzene + ethyl acetate + methyldiphenylphosphine oxide; phases: Liquid, Crystal
Fixed: Solvent: Mole fraction of benzene = 0.5
Fixed: Pressure, kPa = 101
Property: Mole fraction of methyldiphenylphosphine oxide (Liquid); method: gravimetric method
Temperature, K	Mole fraction of methyldiphenylphosphine oxide	uncertainty
283.52	0.03441	0.00139
288.36	0.04271	0.00173
293.43	0.05049	0.00204
298.08	0.0567	0.00229
302.95	0.06567	0.00266
309.07	0.08403	0.0034
313.26	0.09087	0.00368
318.4	0.10732	0.00434
