Measured thermophysical data. Isobaric Vapor-Liquid Equilibria for Binary and Ternary Mixtures with Cyclohexane, Cyclohexene, and 2-Methoxyethanol at 100 kPa
Source: J. Chem. Eng. Data, 2010, 10.1021/je900259b
Compound 1: cyclohexane, C6H12, InChI=1S/C6H12/c1-2-4-6-5-3-1/h1-6H2
Compound 2: cyclohexene, C6H10, InChI=1S/C6H10/c1-2-4-6-5-3-1/h1-2H,3-6H2
Compound 3: 2-methoxyethan-1-ol, C3H8O2, InChI=1S/C3H8O2/c1-5-3-2-4/h4H,2-3H2,1H3

System: cyclohexane; phases: Liquid, Gas
Property: Normal boiling temperature, K (Liquid); method: Ebulliometric method (Recirculating still)
Normal boiling temperature, K	uncertainty
353.73	0.2

System: cyclohexane; phases: Liquid
Property: Refractive index (Na D-line) (Liquid); method: Standard Abbe refractometry
Temperature, K	Pressure, kPa	Refractive index (Na D-line)	uncertainty
298.15	101.325	1.4238	0.0005

System: cyclohexane; phases: Liquid
Property: Mass density, kg/m3 (Liquid); method: Vibrating tube method
Temperature, K	Pressure, kPa	Mass density, kg/m3	uncertainty
298.15	101.325	773.82	0.13

System: cyclohexene; phases: Liquid, Gas
Property: Normal boiling temperature, K (Liquid); method: Ebulliometric method (Recirculating still)
Normal boiling temperature, K	uncertainty
355.97	0.2

System: cyclohexene; phases: Liquid
Property: Refractive index (Na D-line) (Liquid); method: Standard Abbe refractometry
Temperature, K	Pressure, kPa	Refractive index (Na D-line)	uncertainty
298.15	101.325	1.4444	0.0005

System: cyclohexene; phases: Liquid
Property: Mass density, kg/m3 (Liquid); method: Vibrating tube method
Temperature, K	Pressure, kPa	Mass density, kg/m3	uncertainty
298.15	101.325	805.69	0.14

System: 2-methoxyethan-1-ol; phases: Liquid
Property: Refractive index (Na D-line) (Liquid); method: Standard Abbe refractometry
Temperature, K	Pressure, kPa	Refractive index (Na D-line)	uncertainty
298.15	101.325	1.4006	0.0005

System: 2-methoxyethan-1-ol; phases: Liquid
Property: Mass density, kg/m3 (Liquid); method: Vibrating tube method
Temperature, K	Pressure, kPa	Mass density, kg/m3	uncertainty
298.15	101.325	960.02	0.06

System: 2-methoxyethan-1-ol; phases: Liquid, Gas
Property: Vapor or sublimation pressure, kPa (Liquid); method: Closed cell (Static) method
Temperature, K	Vapor or sublimation pressure, kPa	uncertainty
345.94	14.98	0.2
349.54	17.51	0.2
352.72	20.02	0.2
355.49	22.45	0.2
358.12	25.02	0.2
360.51	27.53	0.21
362.72	29.98	0.21
364.76	32.52	0.21
366.62	34.91	0.21
368.51	37.49	0.21
370.14	39.92	0.21
371.85	42.51	0.21
373.35	44.91	0.21
374.89	47.49	0.21
376.28	49.96	0.21
377.65	52.42	0.22
378.98	54.96	0.22
380.23	57.48	0.22
381.44	59.94	0.22
382.64	62.46	0.22
383.74	64.87	0.22
384.89	67.49	0.23
385.95	69.92	0.23
387.02	72.45	0.23
388.02	74.99	0.23
388.98	77.41	0.23
389.94	79.86	0.23
390.92	82.45	0.24
391.85	84.96	0.24
392.74	87.49	0.24
393.61	89.96	0.24
394.47	92.48	0.24
395.32	94.94	0.25
396.12	97.48	0.25
396.96	100.03	0.25
397.37	101.3	0.3

System: 2-methoxyethan-1-ol + cyclohexene; phases: Liquid, Gas
Fixed: Pressure, kPa = 100
Property: Boiling temperature at pressure P, K (Liquid); method: EBULLIO:UFactor:2
Mole fraction of cyclohexene	Boiling temperature at pressure P, K	uncertainty
0.016	392.57	0.54
0.05	383.81	0.47
0.101	373.63	0.39
0.129	370.16	0.29
0.161	366.56	0.24
0.201	363.96	0.21
0.227	362.46	0.19
0.285	360.14	0.19
0.33	358.78	0.18
0.373	357.8	0.18
0.427	356.89	0.17
0.455	356.57	0.17
0.503	356.03	0.17
0.546	355.59	0.17
0.591	355.24	0.17
0.633	354.94	0.17
0.679	354.66	0.17
0.73	354.38	0.17
0.788	354.19	0.17
0.836	354.05	0.17
0.893	353.99	0.17
0.945	354.3	0.17
0.975	354.86	0.18

System: 2-methoxyethan-1-ol + cyclohexene; phases: Gas, Liquid
Fixed: Pressure, kPa = 100
Property: Mole fraction of cyclohexene (Gas); method: CHROM:UFactor:4
Mole fraction of cyclohexene	Mole fraction of cyclohexene	uncertainty
0.016	0.154	0.015
0.05	0.385	0.018
0.101	0.588	0.017
0.129	0.649	0.014
0.161	0.699	0.012
0.201	0.734	0.01
0.227	0.748	0.01
0.285	0.78	0.008
0.33	0.797	0.008
0.373	0.807	0.007
0.427	0.815	0.007
0.455	0.82	0.007
0.503	0.828	0.007
0.546	0.835	0.006
0.591	0.849	0.006
0.633	0.847	0.006
0.679	0.857	0.005
0.73	0.861	0.005
0.788	0.868	0.005
0.836	0.876	0.005
0.893	0.893	0.004
0.945	0.924	0.004
0.975	0.956	0.003

System: 2-methoxyethan-1-ol + cyclohexane; phases: Liquid, Gas
Fixed: Pressure, kPa = 100
Property: Boiling temperature at pressure P, K (Liquid); method: EBULLIO:UFactor:2
Mole fraction of cyclohexane	Boiling temperature at pressure P, K	uncertainty
0.012	391.8	0.78
0.035	382.99	0.64
0.064	375.57	0.49
0.119	363.75	0.38
0.152	361.04	0.21
0.252	355.47	0.2
0.284	354.52	0.18
0.331	353.54	0.17
0.387	352.8	0.17
0.466	352.21	0.17
0.526	351.85	0.17
0.584	351.55	0.17
0.63	351.48	0.17
0.675	351.36	0.17
0.734	351.17	0.17
0.779	351.1	0.17
0.85	351.03	0.17
0.879	350.99	0.17
0.934	351.18	0.17
0.981	352.34	0.18

System: 2-methoxyethan-1-ol + cyclohexane; phases: Gas, Liquid
Fixed: Pressure, kPa = 100
Property: Mole fraction of cyclohexane (Gas); method: CHROM:UFactor:4
Mole fraction of cyclohexane	Mole fraction of cyclohexane	uncertainty
0.012	0.16	0.021
0.035	0.387	0.021
0.064	0.556	0.018
0.119	0.717	0.012
0.152	0.766	0.009
0.252	0.816	0.007
0.284	0.825	0.007
0.331	0.83	0.006
0.387	0.832	0.006
0.466	0.843	0.006
0.526	0.847	0.006
0.584	0.852	0.006
0.63	0.854	0.005
0.675	0.86	0.005
0.734	0.863	0.005
0.779	0.865	0.005
0.85	0.868	0.005
0.879	0.881	0.005
0.934	0.903	0.004
0.981	0.954	0.003

System: 2-methoxyethan-1-ol + cyclohexane + cyclohexene; phases: Gas, Liquid
Fixed: Pressure, kPa = 100
Property: Mole fraction of cyclohexane (Gas); method: CHROM:UFactor:4
Property: Mole fraction of cyclohexane (Liquid); method: CHROM:UFactor:4
Property: Mole fraction of cyclohexene (Liquid); method: CHROM:UFactor:4
Temperature, K	Mole fraction of cyclohexene	Mole fraction of cyclohexane	uncertainty	Mole fraction of cyclohexane	uncertainty	Mole fraction of cyclohexene	uncertainty
359	0.643	0.159	0.006	0.048	0.002	0.244	
355.43	0.74	0.104	0.004	0.049	0.002	0.431	
354.19	0.793	0.074	0.003	0.052	0.003	0.664	
354	0.877	0.054	0.003	0.05	0.003	0.904	
353.62	0.79	0.111	0.004	0.1	0.004	0.806	
353.7	0.753	0.123	0.005	0.102	0.004	0.711	
353.99	0.72	0.141	0.005	0.102	0.004	0.605	
354.56	0.686	0.165	0.006	0.098	0.003	0.486	
355.1	0.642	0.201	0.007	0.101	0.004	0.388	
356.06	0.588	0.238	0.009	0.095	0.003	0.284	
357.22	0.502	0.305	0.011	0.098	0.003	0.204	
360.37	0.357	0.415	0.015	0.104	0.004	0.123	
355.98	0.255	0.559	0.016	0.177	0.006	0.107	
354.56	0.368	0.459	0.017	0.197	0.006	0.196	
353.88	0.46	0.385	0.014	0.21	0.007	0.302	
353.68	0.528	0.323	0.012	0.209	0.006	0.403	
353.42	0.584	0.276	0.01	0.206	0.006	0.504	
353.16	0.652	0.229	0.009	0.201	0.006	0.651	
353.39	0.711	0.21	0.008	0.197	0.006	0.748	
352.66	0.572	0.319	0.012	0.301	0.009	0.598	
352.77	0.521	0.348	0.013	0.299	0.009	0.504	
352.92	0.455	0.401	0.015	0.299	0.009	0.393	
353.12	0.383	0.453	0.017	0.299	0.009	0.294	
353.35	0.304	0.54	0.017	0.303	0.009	0.199	
353.73	0.111	0.727	0.01	0.289	0.009	0.056	
352.55	0.153	0.697	0.011	0.405	0.013	0.109	
