Measured thermophysical data. Densities and Viscosities of Sugar Alcohol Aqueous Solutions
Source: J. Chem. Eng. Data, 2010, 10.1021/je9010486
Compound 1: meso-1,2,3,4-butanetetrol, C4H10O4, InChI=1S/C4H10O4/c5-1-3(7)4(8)2-6/h3-8H,1-2H2/t3-,4+, purity 98%
Compound 2: water, H2O, InChI=1S/H2O/h1H2, purity 99.9%
Compound 3: mannitol, C6H14O6, InChI=1S/C6H14O6/c7-1-3(9)5(11)6(12)4(10)2-8/h3-12H,1-2H2/t3-,4-,5-,6-/m1/s1, purity 98%
Compound 4: D-sorbitol, C6H14O6, InChI=1S/C6H14O6/c7-1-3(9)5(11)6(12)4(10)2-8/h3-12H,1-2H2/t3-,4+,5-,6-/m1/s1, purity 98%
Compound 5: xylitol, C5H12O5, InChI=1S/C5H12O5/c6-1-3(8)5(10)4(9)2-7/h3-10H,1-2H2/t3-,4+,5+, purity 98%
Compound 6: 4-O-.alpha.-D-glucopyranosyl-D-glucitol, C12H24O11, InChI=1S/C12H24O11/c13-1-4(16)7(18)11(5(17)2-14)23-12-10(21)9(20)8(19)6(3-15)22-12/h4-21H,1-3H2/t4-,5+,6+,7+,8+,9-,10+,11+,12+/m0/s1, purity 98%

System: meso-1,2,3,4-butanetetrol + water; phases: Liquid
Fixed: Pressure, kPa = 101
Property: Viscosity, Pa*s (Liquid); method: CAPTUB:UFactor:4
Temperature, K	Amount concentration (molarity), mol/dm3 of meso-1,2,3,4-butanetetrol	Viscosity, Pa*s	uncertainty
293.15	0.1	0.0010468	2.57e-05
293.15	0.2	0.0010651	2.61e-05
293.15	0.3	0.0010881	2.66e-05
293.15	0.4	0.0011104	2.71e-05
293.15	0.5	0.0011385	2.77e-05
293.15	0.6	0.0011691	2.83e-05
293.15	0.7	0.0012126	2.93e-05
293.15	0.8	0.0012575	3.02e-05
293.15	0.9	0.0013057	3.13e-05
293.15	1	0.0013381	3.2e-05
303.15	0.1	0.0008541	2.15e-05
303.15	0.2	0.0008706	2.19e-05
303.15	0.3	0.0008913	2.23e-05
303.15	0.4	0.000911	2.3e-05
303.15	0.5	0.0009366	2.33e-05
303.15	0.6	0.0009634	2.39e-05
303.15	0.7	0.0010018	2.47e-05
303.15	0.8	0.0010446	2.57e-05
303.15	0.9	0.0010869	2.66e-05
303.15	1	0.0011372	2.77e-05
313.15	0.1	0.0006807	1.78e-05
313.15	0.2	0.0007005	1.82e-05
313.15	0.3	0.000721	1.87e-05
313.15	0.4	0.000743	1.92e-05
313.15	0.5	0.0007611	1.96e-05
313.15	0.6	0.0007827	2e-05
313.15	0.7	0.0008067	2.05e-05
313.15	0.8	0.0008339	2.11e-05
313.15	0.9	0.000861	2.17e-05
313.15	1	0.0008965	2.25e-05
323.15	0.1	0.0005663	1.53e-05
323.15	0.2	0.0005849	1.57e-05
323.15	0.3	0.0005986	1.6e-05
323.15	0.4	0.0006171	1.64e-05
323.15	0.5	0.0006351	1.68e-05
323.15	0.6	0.000652	1.7e-05
323.15	0.7	0.0006734	1.77e-05
323.15	0.8	0.0006909	1.81e-05
323.15	0.9	0.0007057	1.84e-05
323.15	1	0.0007251	1.88e-05

System: meso-1,2,3,4-butanetetrol + water; phases: Liquid
Fixed: Pressure, kPa = 101
Property: Mass density, kg/m3 (Liquid); method: VIBTUB:UFactor:32
Temperature, K	Amount concentration (molarity), mol/dm3 of meso-1,2,3,4-butanetetrol	Mass density, kg/m3	uncertainty
293.15	0.1	1002.06	1.32
293.15	0.2	1005.36	1.37
293.15	0.3	1009.37	1.44
293.15	0.4	1012.65	1.49
293.15	0.5	1016.16	1.55
293.15	0.6	1019.38	1.61
293.15	0.7	1023.78	1.68
293.15	0.8	1026.82	1.73
293.15	0.9	1031.9	1.82
293.15	1	1034.32	1.86
303.15	0.1	999.34	1.3
303.15	0.2	1002.74	1.33
303.15	0.3	1006.74	1.4
303.15	0.4	1009.58	1.44
303.15	0.5	1013.33	1.51
303.15	0.6	1016.67	1.56
303.15	0.7	1020.8	1.63
303.15	0.8	1024.2	1.69
303.15	0.9	1027.8	1.75
303.15	1	1031.18	1.81
313.15	0.1	995.83	1.35
313.15	0.2	999.19	1.3
313.15	0.3	1003.09	1.34
313.15	0.4	1006.3	1.39
313.15	0.5	1009.63	1.45
313.15	0.6	1012.43	1.49
313.15	0.7	1015.82	1.55
313.15	0.8	1019.15	1.61
313.15	0.9	1023.23	1.68
313.15	1	1027.24	1.75
323.15	0.1	991.64	1.42
323.15	0.2	994.96	1.37
323.15	0.3	998.81	1.31
323.15	0.4	1001.94	1.32
323.15	0.5	1005.23	1.38
323.15	0.6	1008.41	1.43
323.15	0.7	1012.27	1.5
323.15	0.8	1015.63	1.55
323.15	0.9	1019.38	1.62
323.15	1	1022.64	1.67

System: mannitol + water; phases: Liquid
Fixed: Pressure, kPa = 101
Property: Viscosity, Pa*s (Liquid); method: CAPTUB:UFactor:4
Temperature, K	Amount concentration (molarity), mol/dm3 of mannitol	Viscosity, Pa*s	uncertainty
293.15	0.1	0.0010964	2.67e-05
293.15	0.2	0.0011432	2.78e-05
293.15	0.3	0.0012031	2.9e-05
293.15	0.4	0.0012854	3.08e-05
293.15	0.5	0.001336	3.2e-05
293.15	0.6	0.0013997	3.33e-05
293.15	0.7	0.0014719	3.48e-05
293.15	0.8	0.0015532	3.66e-05
303.15	0.1	0.0008694	2.19e-05
303.15	0.2	0.0009398	2.34e-05
303.15	0.3	0.000986	2.4e-05
303.15	0.4	0.0010361	2.55e-05
303.15	0.5	0.0010845	2.65e-05
303.15	0.6	0.001142	2.8e-05
303.15	0.7	0.0011972	2.9e-05
303.15	0.8	0.0012534	3.02e-05
313.15	0.1	0.0006961	1.81e-05
313.15	0.2	0.0007468	1.92e-05
313.15	0.3	0.0007918	2.02e-05
313.15	0.4	0.0008201	2.08e-05
313.15	0.5	0.0008642	2.18e-05
313.15	0.6	0.0008954	2.25e-05
313.15	0.7	0.0009383	2.34e-05
313.15	0.8	0.0009934	2.46e-05
323.15	0.1	0.0005782	1.56e-05
323.15	0.2	0.0006062	1.62e-05
323.15	0.3	0.0006356	1.68e-05
323.15	0.4	0.0006706	1.76e-05
323.15	0.5	0.0007104	1.85e-05
323.15	0.6	0.0007458	1.92e-05
323.15	0.7	0.0007849	2.01e-05
323.15	0.8	0.0008456	2.14e-05

System: mannitol + water; phases: Liquid
Fixed: Pressure, kPa = 101
Property: Mass density, kg/m3 (Liquid); method: VIBTUB:UFactor:32
Temperature, K	Amount concentration (molarity), mol/dm3 of mannitol	Mass density, kg/m3	uncertainty
293.15	0.1	1004.82	1.36
293.15	0.2	1010.89	1.46
293.15	0.3	1016.96	1.57
293.15	0.4	1023.03	1.67
293.15	0.5	1029.1	1.8
293.15	0.6	1035.17	1.87
293.15	0.7	1041.24	1.97
293.15	0.8	1047.31	2.08
303.15	0.1	1002.13	1.32
303.15	0.2	1008.14	1.42
303.15	0.3	1014.15	1.52
303.15	0.4	1020.16	1.62
303.15	0.5	1026.17	1.72
303.15	0.6	1032.18	1.82
303.15	0.7	1038.19	1.93
303.15	0.8	1044.2	2
313.15	0.1	998.28	1.31
313.15	0.2	1004.5	1.4
313.15	0.3	1010.72	1.46
313.15	0.4	1016.94	1.57
313.15	0.5	1023.16	1.67
313.15	0.6	1029.38	1.78
313.15	0.7	1035.6	1.9
313.15	0.8	1041.82	1.99
323.15	0.1	994.21	1.38
323.15	0.2	999.82	1.29
323.15	0.3	1005.23	1.38
323.15	0.4	1011.02	1.47
323.15	0.5	1017.33	1.58
323.15	0.6	1024.45	1.7
323.15	0.7	1030.32	1.8
323.15	0.8	1036.78	1.91

System: D-sorbitol + water; phases: Liquid
Fixed: Pressure, kPa = 101
Property: Viscosity, Pa*s (Liquid); method: CAPTUB:UFactor:4
Temperature, K	Amount concentration (molarity), mol/dm3 of D-sorbitol	Viscosity, Pa*s	uncertainty
293.15	0.1	0.0010881	2.66e-05
293.15	0.2	0.0011135	2.71e-05
293.15	0.3	0.0011677	2.83e-05
293.15	0.4	0.0012195	2.94e-05
293.15	0.5	0.0012748	3.06e-05
293.15	0.6	0.0013299	3.18e-05
293.15	0.7	0.001394	3.3e-05
293.15	0.8	0.0014663	3.47e-05
293.15	0.9	0.0015312	3.61e-05
293.15	1	0.0016081	3.78e-05
303.15	0.1	0.0008619	2.17e-05
303.15	0.2	0.0008842	2.22e-05
303.15	0.3	0.0009329	2.32e-05
303.15	0.4	0.0009794	2.43e-05
303.15	0.5	0.0010291	2.53e-05
303.15	0.6	0.0010785	2.64e-05
303.15	0.7	0.0011363	2.76e-05
303.15	0.8	0.0012015	2.91e-05
303.15	0.9	0.0012599	3.03e-05
303.15	1	0.0013294	3.18e-05
313.15	0.1	0.0006892	1.8e-05
313.15	0.2	0.0007109	1.85e-05
313.15	0.3	0.0007399	1.91e-05
313.15	0.4	0.0007849	2.01e-05
313.15	0.5	0.0008127	2.07e-05
313.15	0.6	0.0008573	2.16e-05
313.15	0.7	0.0008885	2.23e-05
313.15	0.8	0.000931	2.3e-05
313.15	0.9	0.0009849	2.44e-05
313.15	1	0.0010298	2.54e-05
323.15	0.1	0.0005711	1.55e-05
323.15	0.2	0.0005983	1.6e-05
323.15	0.3	0.0006199	1.65e-05
323.15	0.4	0.0006596	1.74e-05
323.15	0.5	0.0006841	1.79e-05
323.15	0.6	0.0007037	1.83e-05
323.15	0.7	0.0007392	1.91e-05
323.15	0.8	0.0007779	1.99e-05
323.15	0.9	0.0008178	2.08e-05
323.15	1	0.0008541	2.16e-05

System: D-sorbitol + water; phases: Liquid
Fixed: Pressure, kPa = 101
Property: Mass density, kg/m3 (Liquid); method: VIBTUB:UFactor:32
Temperature, K	Amount concentration (molarity), mol/dm3 of D-sorbitol	Mass density, kg/m3	uncertainty
293.15	0.1	1004.76	1.36
293.15	0.2	1011.23	1.47
293.15	0.3	1017.64	1.58
293.15	0.4	1024.07	1.68
293.15	0.5	1029.89	1.78
293.15	0.6	1036.94	1.9
293.15	0.7	1043.32	2.01
293.15	0.8	1049.36	2.11
293.15	0.9	1056.16	2.23
293.15	1	1062.52	2.34
303.15	0.1	1002.12	1.32
303.15	0.2	1008.52	1.43
303.15	0.3	1014.83	1.53
303.15	0.4	1021.15	1.64
303.15	0.5	1026.88	1.73
303.15	0.6	1033.82	1.85
303.15	0.7	1040.11	1.96
303.15	0.8	1046.04	2.06
303.15	0.9	1052.72	2.17
303.15	1	1058.99	2.28
313.15	0.1	998.58	1.31
313.15	0.2	1004.89	1.37
313.15	0.3	1011.14	1.47
313.15	0.4	1017.37	1.58
313.15	0.5	1023.01	1.67
313.15	0.6	1029.9	1.8
313.15	0.7	1036.08	1.89
313.15	0.8	1041.95	1.99
313.15	0.9	1048.48	2.1
313.15	1	1054.72	2.21
323.15	0.1	994.32	1.38
323.15	0.2	1000.54	1.3
323.15	0.3	1006.75	1.4
323.15	0.4	1012.93	1.5
323.15	0.5	1018.5	1.6
323.15	0.6	1025.33	1.71
323.15	0.7	1031.44	1.82
323.15	0.8	1037.25	1.92
323.15	0.9	1043.79	2.03
323.15	1	1049.92	2.13

System: xylitol + water; phases: Liquid
Fixed: Pressure, kPa = 101
Property: Viscosity, Pa*s (Liquid); method: CAPTUB:UFactor:4
Temperature, K	Amount concentration (molarity), mol/dm3 of xylitol	Viscosity, Pa*s	uncertainty
293.15	0.1	0.0010675	2.61e-05
293.15	0.2	0.0010893	2.66e-05
293.15	0.3	0.0011279	2.74e-05
293.15	0.4	0.001165	2.8e-05
293.15	0.5	0.0012067	2.91e-05
293.15	0.6	0.0012495	3.01e-05
293.15	0.7	0.0013133	3.14e-05
293.15	0.8	0.0013619	3.25e-05
293.15	0.9	0.0014235	3.38e-05
293.15	1	0.0014731	3.49e-05
303.15	0.1	0.000858	2.2e-05
303.15	0.2	0.0008774	2.2e-05
303.15	0.3	0.0009121	2.28e-05
303.15	0.4	0.0009452	2.35e-05
303.15	0.5	0.0009829	2.43e-05
303.15	0.6	0.001021	2.5e-05
303.15	0.7	0.0010791	2.64e-05
303.15	0.8	0.0011231	2.74e-05
303.15	0.9	0.0011784	2.86e-05
303.15	1	0.0012233	2.95e-05
313.15	0.1	0.000685	1.8e-05
313.15	0.2	0.0007057	1.84e-05
313.15	0.3	0.0007305	1.89e-05
313.15	0.4	0.000764	2e-05
313.15	0.5	0.0007869	2.01e-05
313.15	0.6	0.000825	2.1e-05
313.15	0.7	0.0008476	2.14e-05
313.15	0.8	0.0008825	2.22e-05
313.15	0.9	0.000923	2.3e-05
313.15	1	0.0009632	2.39e-05
323.15	0.1	0.0005687	1.54e-05
323.15	0.2	0.0005916	1.59e-05
323.15	0.3	0.0006093	1.63e-05
323.15	0.4	0.0006384	1.69e-05
323.15	0.5	0.0006596	1.74e-05
323.15	0.6	0.0006779	1.78e-05
323.15	0.7	0.0007063	1.84e-05
323.15	0.8	0.0007344	1.9e-05
323.15	0.9	0.0007618	1.96e-05
323.15	1	0.0007896	2.02e-05

System: xylitol + water; phases: Liquid
Fixed: Pressure, kPa = 101
Property: Mass density, kg/m3 (Liquid); method: VIBTUB:UFactor:32
Temperature, K	Amount concentration (molarity), mol/dm3 of xylitol	Mass density, kg/m3	uncertainty
293.15	0.1	1003.31	1.34
293.15	0.2	1008.5	1.4
293.15	0.3	1013.42	1.51
293.15	0.4	1018.54	1.59
293.15	0.5	1023.595	1.677
293.15	0.6	1028.656	1.762
293.15	0.7	1033.717	1.847
293.15	0.8	1038.778	1.933
293.15	0.9	1043.839	2.019
293.15	1	1048.9	2.1
303.15	0.1	1000.96	1.3
303.15	0.2	1005.78	1.38
303.15	0.3	1010.64	1.46
303.15	0.4	1015.65	1.55
303.15	0.5	1020.49	1.63
303.15	0.6	1025.383	1.709
303.15	0.7	1030.276	1.791
303.15	0.8	1035.169	1.874
303.15	0.9	1040.062	1.958
303.15	1	1044.955	2.041
313.15	0.1	997.16	1.33
313.15	0.2	1002.18	1.32
313.15	0.3	1006.99	1.4
313.15	0.4	1011.95	1.49
313.15	0.5	1016.865	1.568
313.15	0.6	1021.783	1.651
313.15	0.7	1026.701	1.734
313.15	0.8	1031.619	1.817
313.15	0.9	1036.537	1.901
313.15	1	1041.455	1.984
323.15	0.1	992.72	1.4
323.15	0.2	997.77	1.32
323.15	0.3	1002.55	1.33
323.15	0.4	1007.51	1.41
323.15	0.5	1012.425	1.496
323.15	0.6	1017.34	1.58
323.15	0.7	1022.255	1.662
323.15	0.8	1027.17	1.75
323.15	0.9	1032.085	1.829
323.15	1	1037	2

System: 4-O-.alpha.-D-glucopyranosyl-D-glucitol + water; phases: Liquid
Fixed: Pressure, kPa = 101
Property: Viscosity, Pa*s (Liquid); method: CAPTUB:UFactor:4
Temperature, K	Amount concentration (molarity), mol/dm3 of 4-O-.alpha.-D-glucopyranosyl-D-glucitol	Viscosity, Pa*s	uncertainty
293.15	0.1	0.0012744	3.06e-05
293.15	0.2	0.0013811	3.29e-05
293.15	0.3	0.0015134	3.57e-05
293.15	0.4	0.0016603	3.89e-05
293.15	0.5	0.0018478	4.29e-05
293.15	0.6	0.002009	4.6e-05
293.15	0.7	0.0021728	4.99e-05
293.15	0.8	0.0023045	5.28e-05
293.15	0.9	0.0024897	5.68e-05
293.15	1	0.0026799	6.09e-05
303.15	0.1	0.0008869	2.23e-05
303.15	0.2	0.0009747	2.42e-05
303.15	0.3	0.0011039	2.69e-05
303.15	0.4	0.0012254	2.96e-05
303.15	0.5	0.0013609	3.25e-05
303.15	0.6	0.0015362	3.63e-05
303.15	0.7	0.0016843	3.95e-05
303.15	0.8	0.0018254	4.25e-05
303.15	0.9	0.0019468	4.52e-05
303.15	1	0.0021322	4.92e-05
313.15	0.1	0.0006982	1.82e-05
313.15	0.2	0.0007706	1.98e-05
313.15	0.3	0.0008464	2.14e-05
313.15	0.4	0.0009455	2.36e-05
313.15	0.5	0.00106	3e-05
313.15	0.6	0.0011765	2.86e-05
313.15	0.7	0.0013011	3.13e-05
313.15	0.8	0.0014381	3.42e-05
313.15	0.9	0.0015912	3.76e-05
313.15	1	0.0017411	4.08e-05
323.15	0.1	0.0006083	1.63e-05
323.15	0.2	0.000652	1.7e-05
323.15	0.3	0.0007175	1.86e-05
323.15	0.4	0.0007827	2e-05
323.15	0.5	0.0008723	2.2e-05
323.15	0.6	0.0009616	2.39e-05
323.15	0.7	0.0010612	2.61e-05
323.15	0.8	0.0011502	2.8e-05
323.15	0.9	0.0012423	3.01e-05
323.15	1	0.0013849	3.32e-05

System: 4-O-.alpha.-D-glucopyranosyl-D-glucitol + water; phases: Liquid
Fixed: Pressure, kPa = 101
Property: Mass density, kg/m3 (Liquid); method: VIBTUB:UFactor:32
Temperature, K	Amount concentration (molarity), mol/dm3 of 4-O-.alpha.-D-glucopyranosyl-D-glucitol	Mass density, kg/m3	uncertainty
293.15	0.1	1009.45	1.44
293.15	0.2	1018.37	1.59
293.15	0.3	1027.29	1.74
293.15	0.4	1036.21	1.9
293.15	0.5	1045.13	2.05
293.15	0.6	1054.05	2.21
293.15	0.7	1062.97	2.36
293.15	0.8	1071.89	2.52
293.15	0.9	1080.81	2.68
293.15	1	1089.73	2.83
303.15	0.1	1007.32	1.41
303.15	0.2	1016.24	1.56
303.15	0.3	1025.16	1.71
303.15	0.4	1034.08	1.86
303.15	0.5	1043	2
303.15	0.6	1051.92	2.17
303.15	0.7	1060.84	2.33
303.15	0.8	1069.76	2.48
303.15	0.9	1078.68	2.64
303.15	1	1087.6	2.8
313.15	0.1	1003.78	1.35
313.15	0.2	1012.7	1.5
313.15	0.3	1021.62	1.65
313.15	0.4	1030.54	1.81
313.15	0.5	1039.46	1.96
313.15	0.6	1048.38	2.11
313.15	0.7	1057.3	2.3
313.15	0.8	1066.22	2.43
313.15	0.9	1075.14	2.58
313.15	1	1084.06	2.74
323.15	0.1	999.68	1.3
323.15	0.2	1008.6	1.4
323.15	0.3	1017.52	1.59
323.15	0.4	1026.44	1.74
323.15	0.5	1035.36	1.89
323.15	0.6	1044.28	2.05
323.15	0.7	1053.2	2.2
323.15	0.8	1062.12	2.36
323.15	0.9	1071.04	2.52
323.15	1	1079.96	2.68
