Measured thermophysical data. Density and Viscosity of the Binary Mixture of Triethylene Glycol Monobutyl Ether + Water from (293.15 to 333.15) K at Atmospheric Pressure
Source: J. Chem. Eng. Data, 2010, 10.1021/je900510x
Compound 1: triethylene glycol monobutyl ether, C10H22O4, InChI=1S/C10H22O4/c1-2-3-5-12-7-9-14-10-8-13-6-4-11/h11H,2-10H2,1H3, purity 99.9%
Compound 2: water, H2O, InChI=1S/H2O/h1H2

System: triethylene glycol monobutyl ether; phases: Liquid
Fixed: Pressure, kPa = 101
Property: Viscosity, Pa*s (Liquid); method: Capillary tube (Ostwald; Ubbelohde) method
Temperature, K	Viscosity, Pa*s	uncertainty
293.15	0.009282	5.5e-05
303.15	0.006528	4e-05
313.15	0.004979	3.2e-05
323.15	0.003769	2.4e-05
333.15	0.002978	1.9e-05

System: triethylene glycol monobutyl ether; phases: Liquid
Fixed: Pressure, kPa = 101
Property: Mass density, kg/m3 (Liquid); method: Pycnometric method
Temperature, K	Mass density, kg/m3	uncertainty
293.15	984.8	2
303.15	976.7	2
313.15	967.8	2
323.15	959.3	1.9
333.15	951.2	1.9

System: triethylene glycol monobutyl ether + water; phases: Liquid
Fixed: Pressure, kPa = 101
Property: Viscosity, Pa*s (Liquid); method: Capillary tube (Ostwald; Ubbelohde) method
Temperature, K	Mole fraction of triethylene glycol monobutyl ether	Viscosity, Pa*s	uncertainty
293.15	0	0.001005	7e-06
293.15	0.009612	0.001536	1.6e-05
293.15	0.02136	0.002342	2.1e-05
293.15	0.03602	0.003496	2.8e-05
293.15	0.05509	0.005103	3.6e-05
293.15	0.08023	0.007018	4.5e-05
293.15	0.1156	0.009156	5.5e-05
293.15	0.1685	0.01121	7e-05
293.15	0.2571	0.01263	7e-05
293.15	0.3308	0.01268	7e-05
293.15	0.4398	0.01235	7e-05
293.15	0.5322	0.01178	7e-05
293.15	0.5991	0.01136	7e-05
293.15	0.7291	0.01051	6e-05
293.15	0.8068	0.01013	6e-05
293.15	0.8905	0.009778	5.8e-05
293.15	1	0.009282	5.5e-05
303.15	0	0.0008007	5.7e-06
303.15	0.009612	0.001175	1.2e-05
303.15	0.02136	0.001741	1.5e-05
303.15	0.03602	0.002526	2e-05
303.15	0.05509	0.003614	2.6e-05
303.15	0.08023	0.004832	3.2e-05
303.15	0.1156	0.006189	3.9e-05
303.15	0.1685	0.007424	4.5e-05
303.15	0.2571	0.008311	5e-05
303.15	0.3308	0.008439	5.1e-05
303.15	0.4398	0.008238	5e-05
303.15	0.5322	0.007929	4.8e-05
303.15	0.5991	0.007685	4.7e-05
303.15	0.7291	0.007271	4.4e-05
303.15	0.8068	0.007083	4.3e-05
303.15	0.8905	0.006856	4.2e-05
303.15	1	0.006528	4e-05
313.15	0	0.000656	4.8e-06
313.15	0.009612	0.0009391	9.3e-06
313.15	0.02136	0.001356	1.2e-05
313.15	0.03602	0.001935	1.5e-05
313.15	0.05509	0.002685	1.9e-05
313.15	0.08023	0.003562	2.4e-05
313.15	0.1156	0.004476	2.9e-05
313.15	0.1685	0.005289	3.4e-05
313.15	0.2571	0.005912	3.7e-05
313.15	0.3308	0.006038	3.8e-05
313.15	0.4398	0.005926	3.7e-05
313.15	0.5322	0.005747	3.6e-05
313.15	0.5991	0.005612	3.5e-05
313.15	0.7291	0.005407	3.4e-05
313.15	0.8068	0.005264	3.3e-05
313.15	0.8905	0.005143	3.3e-05
313.15	1	0.004979	3.2e-05
323.15	0	0.0005494	4.1e-06
323.15	0.009612	0.0007657	7.5e-06
323.15	0.02136	0.001094	9e-06
323.15	0.03602	0.001519	1.2e-05
323.15	0.05509	0.002137	1.5e-05
323.15	0.08023	0.002692	1.8e-05
323.15	0.1156	0.003293	2.2e-05
323.15	0.1685	0.003913	2.5e-05
323.15	0.2571	0.004406	2.8e-05
323.15	0.3308	0.004477	2.9e-05
323.15	0.4398	0.004406	2.8e-05
323.15	0.5322	0.004329	2.8e-05
323.15	0.5991	0.004257	2.7e-05
323.15	0.7291	0.004147	2.7e-05
323.15	0.8068	0.004088	2.6e-05
323.15	0.8905	0.003936	2.5e-05
323.15	1	0.003769	2.4e-05
333.15	0	0.0004688	3.6e-06
333.15	0.009612	0.0006398	6.2e-06
333.15	0.02136	0.0009018	7.7e-06
333.15	0.03602	0.001226	9e-06
333.15	0.05509	0.001629	1.2e-05
333.15	0.08023	0.002116	1.4e-05
333.15	0.1156	0.002525	1.7e-05
333.15	0.1685	0.002972	1.9e-05
333.15	0.2571	0.003346	2.2e-05
333.15	0.3308	0.003399	2.2e-05
333.15	0.4398	0.003371	2.2e-05
333.15	0.5322	0.003319	2.2e-05
333.15	0.5991	0.003266	2.1e-05
333.15	0.7291	0.003188	2.1e-05
333.15	0.8068	0.003119	2e-05
333.15	0.8905	0.003051	2e-05
333.15	1	0.002978	1.9e-05

System: triethylene glycol monobutyl ether + water; phases: Liquid
Fixed: Pressure, kPa = 101
Property: Mass density, kg/m3 (Liquid); method: Pycnometric method
Temperature, K	Mole fraction of triethylene glycol monobutyl ether	Mass density, kg/m3	uncertainty
293.15	0	998.2	2
293.15	0.009612	1004.1	2
293.15	0.02136	1009.4	2
293.15	0.03602	1011.9	2
293.15	0.05509	1013.5	2
293.15	0.08023	1013.6	2
293.15	0.1156	1011.9	2
293.15	0.1685	1008.9	2
293.15	0.2571	1004.1	2
293.15	0.3308	1000.4	2
293.15	0.4398	995.9	2
293.15	0.5322	993	2
293.15	0.5991	991.2	2
293.15	0.7291	988.6	2
293.15	0.8068	987.4	2
293.15	0.8905	986.2	2
293.15	1	984.8	2
303.15	0	995.7	2
303.15	0.009612	1000.9	2
303.15	0.02136	1004.7	2
303.15	0.03602	1006.5	2
303.15	0.05509	1007.1	2
303.15	0.08023	1006.6	2
303.15	0.1156	1004.9	2
303.15	0.1685	1001.3	2
303.15	0.2571	996.3	2
303.15	0.3308	992.5	2
303.15	0.4398	987.9	2
303.15	0.5322	985.1	2
303.15	0.5991	983.2	2
303.15	0.7291	980.6	2
303.15	0.8068	979.3	2
303.15	0.8905	978.1	2
303.15	1	976.7	2
313.15	0	992.2	2
313.15	0.009612	996.5	2
313.15	0.02136	998.9	2
313.15	0.03602	999.7	2
313.15	0.05509	999.8	2
313.15	0.08023	998.6	2
313.15	0.1156	996.9	2
313.15	0.1685	993.3	2
313.15	0.2571	987.5	2
313.15	0.3308	983.6	2
313.15	0.4398	979.1	2
313.15	0.5322	976.2	2
313.15	0.5991	974.5	2
313.15	0.7291	971.8	2
313.15	0.8068	970.4	2
313.15	0.8905	969.2	2
313.15	1	967.8	2
323.15	0	988.1	2
323.15	0.009612	991.4	2
323.15	0.02136	992.5	2
323.15	0.03602	993.2	2
323.15	0.05509	992.5	2
323.15	0.08023	990.9	2
323.15	0.1156	988.5	2
323.15	0.1685	984.9	2
323.15	0.2571	978.9	2
323.15	0.3308	974.9	2
323.15	0.4398	970.6	2
323.15	0.5322	967.8	2
323.15	0.5991	966	2
323.15	0.7291	963.2	1.9
323.15	0.8068	961.9	1.9
323.15	0.8905	960.6	1.9
323.15	1	959.3	1.9
333.15	0	983.2	2
333.15	0.009612	985.9	2
333.15	0.02136	986.7	2
333.15	0.03602	986.3	2
333.15	0.05509	985	2
333.15	0.08023	983.3	2
333.15	0.1156	980.5	2
333.15	0.1685	976.8	2
333.15	0.2571	970.4	2
333.15	0.3308	966.5	2
333.15	0.4398	962.4	1.9
333.15	0.5322	959.6	1.9
333.15	0.5991	957.8	1.9
333.15	0.7291	955.2	1.9
333.15	0.8068	953.9	1.9
333.15	0.8905	952.5	1.9
333.15	1	951.2	1.9
