Measured thermophysical data. Density, Viscosity, and Speed of Sound of (Methyl Benzoate + Cyclohexane), (Methyl Benzoate + n-Hexane), (Methyl Benzoate + Heptane), and (Methyl Benzoate + Octane) at Temperatures of (303.15, 308.15, and 313.15) K
Source: J. Chem. Eng. Data, 2010, 10.1021/je9006597
Compound 1: methyl benzoate, C8H8O2, InChI=1S/C8H8O2/c1-10-8(9)7-5-3-2-4-6-7/h2-6H,1H3, purity 99%
Compound 2: cyclohexane, C6H12, InChI=1S/C6H12/c1-2-4-6-5-3-1/h1-6H2, purity 99%
Compound 3: hexane, C6H14, InChI=1S/C6H14/c1-3-5-6-4-2/h3-6H2,1-2H3, purity 99%
Compound 4: heptane, C7H16, InChI=1S/C7H16/c1-3-5-7-6-4-2/h3-7H2,1-2H3, purity 99%
Compound 5: octane, C8H18, InChI=1S/C8H18/c1-3-5-7-8-6-4-2/h3-8H2,1-2H3, purity 99%

System: methyl benzoate; phases: Liquid
Fixed: Pressure, kPa = 101
Property: Viscosity, Pa*s (Liquid); method: CAPTUB:UFactor:4
Temperature, K	Viscosity, Pa*s	uncertainty
303.15	0.001667	5.1e-05
308.15	0.001514	4.7e-05
313.15	0.001376	4.3e-05

System: methyl benzoate; phases: Liquid
Fixed: Pressure, kPa = 101
Property: Speed of sound, m/s (Liquid); method: Pulse-echo method
Temperature, K	Speed of sound, m/s	uncertainty
303.15	1380	6
308.15	1364	6
313.15	1348	6

System: methyl benzoate; phases: Liquid
Fixed: Pressure, kPa = 101
Property: Mass density, kg/m3 (Liquid); method: VIBTUB:UFactor:6
Temperature, K	Mass density, kg/m3	uncertainty
303.15	1078.3	0.7
308.15	1074.4	0.7
313.15	1070.3	0.7

System: cyclohexane; phases: Liquid
Fixed: Pressure, kPa = 101
Property: Viscosity, Pa*s (Liquid); method: CAPTUB::UFactor:4
Temperature, K	Viscosity, Pa*s	uncertainty
303.15	0.000823	2.7e-05
308.15	0.000772	2.6e-05
313.15	0.000685	2.3e-05

System: cyclohexane; phases: Liquid
Fixed: Pressure, kPa = 101
Property: Speed of sound, m/s (Liquid); method: Pulse-echo method
Temperature, K	Speed of sound, m/s	uncertainty
303.15	1228	5
308.15	1208	5
313.15	1188	5

System: cyclohexane; phases: Liquid
Fixed: Pressure, kPa = 101
Property: Mass density, kg/m3 (Liquid); method: VIBTUB::UFactor:6
Temperature, K	Mass density, kg/m3	uncertainty
303.15	768.3	0.9
308.15	764.4	0.9
313.15	760.5	0.9

System: hexane; phases: Liquid
Fixed: Pressure, kPa = 101
Property: Viscosity, Pa*s (Liquid); method: CAPTUB::UFactor:4
Temperature, K	Viscosity, Pa*s	uncertainty
303.15	0.000283	1.2e-05
308.15	0.000269	1.2e-05
313.15	0.000252	1.1e-05

System: hexane; phases: Liquid
Fixed: Pressure, kPa = 101
Property: Speed of sound, m/s (Liquid); method: Pulse-echo method
Temperature, K	Speed of sound, m/s	uncertainty
303.15	1048	4
308.15	1028	4
313.15	1008	4

System: hexane; phases: Liquid
Fixed: Pressure, kPa = 101
Property: Mass density, kg/m3 (Liquid); method: VIBTUB::UFactor:6
Temperature, K	Mass density, kg/m3	uncertainty
303.15	649.8	1.1
308.15	645.9	1.1
313.15	642.2	1.1

System: heptane; phases: Liquid
Fixed: Pressure, kPa = 101
Property: Viscosity, Pa*s (Liquid); method: CAPTUB::UFactor:4
Temperature, K	Viscosity, Pa*s	uncertainty
303.15	0.000375	1.5e-05
308.15	0.00035	1.4e-05
313.15	0.000325	1.3e-05

System: heptane; phases: Liquid
Fixed: Pressure, kPa = 101
Property: Speed of sound, m/s (Liquid); method: Pulse-echo method
Temperature, K	Speed of sound, m/s	uncertainty
303.15	1116	5
308.15	1092	5
313.15	1072	4

System: heptane; phases: Liquid
Fixed: Pressure, kPa = 101
Property: Mass density, kg/m3 (Liquid); method: VIBTUB::UFactor:6
Temperature, K	Mass density, kg/m3	uncertainty
303.15	674.5	1
308.15	670.3	1.1
313.15	667.2	1.1

System: octane; phases: Liquid
Fixed: Pressure, kPa = 101
Property: Viscosity, Pa*s (Liquid); method: CAPTUB::UFactor:4
Temperature, K	Viscosity, Pa*s	uncertainty
303.15	0.000491	1.8e-05
308.15	0.00045	1.7e-05
313.15	0.000415	1.6e-05

System: octane; phases: Liquid
Fixed: Pressure, kPa = 101
Property: Speed of sound, m/s (Liquid); method: Pulse-echo method
Temperature, K	Speed of sound, m/s	uncertainty
303.15	1148	5
308.15	1132	5
313.15	1112	5

System: octane; phases: Liquid
Fixed: Pressure, kPa = 101
Property: Mass density, kg/m3 (Liquid); method: VIBTUB::UFactor:6
Temperature, K	Mass density, kg/m3	uncertainty
303.15	693.9	1
308.15	690.4	1
313.15	687	1

System: methyl benzoate + cyclohexane; phases: Liquid
Fixed: Pressure, kPa = 101
Property: Viscosity, Pa*s (Liquid); method: CAPTUB:UFactor:4
Temperature, K	Mole fraction of methyl benzoate	Viscosity, Pa*s	uncertainty
303.15	0	0.000823	2.7e-05
303.15	0.088	0.000802	2.7e-05
303.15	0.1777	0.00082	2.7e-05
303.15	0.2692	0.000854	2.8e-05
303.15	0.3668	0.000905	3e-05
303.15	0.4667	0.000977	3.2e-05
303.15	0.5639	0.001076	3.4e-05
303.15	0.6675	0.001181	3.7e-05
303.15	0.7727	0.001308	4.1e-05
303.15	0.8859	0.001478	4.6e-05
303.15	1	0.001667	5.1e-05
308.15	0	0.000772	2.6e-05
308.15	0.088	0.00074	2.5e-05
308.15	0.1777	0.000757	2.5e-05
308.15	0.2692	0.000792	2.6e-05
308.15	0.3668	0.00084	2.8e-05
308.15	0.4667	0.000904	3e-05
308.15	0.5639	0.000999	3.2e-05
308.15	0.6675	0.00109	3.5e-05
308.15	0.7727	0.001197	3.8e-05
308.15	0.8859	0.001363	4.2e-05
308.15	1	0.001514	4.7e-05
313.15	0	0.000685	2.3e-05
313.15	0.088	0.000675	2.3e-05
313.15	0.1777	0.000704	2.4e-05
313.15	0.2692	0.000736	2.5e-05
313.15	0.3668	0.000781	2.6e-05
313.15	0.4667	0.000835	2.8e-05
313.15	0.5639	0.000932	3e-05
313.15	0.6675	0.001004	3.2e-05
313.15	0.7727	0.001097	3.5e-05
313.15	0.8859	0.001234	3.9e-05
313.15	1	0.001376	4.3e-05

System: methyl benzoate + cyclohexane; phases: Liquid
Fixed: Pressure, kPa = 101
Property: Speed of sound, m/s (Liquid); method: Pulse-echo method
Temperature, K	Mole fraction of methyl benzoate	Speed of sound, m/s	uncertainty
303.15	0	1228	5
303.15	0.088	1240	5
303.15	0.1777	1252	5
303.15	0.2692	1264	5
303.15	0.3668	1276	5
303.15	0.4667	1292	5
303.15	0.5639	1308	5
303.15	0.6675	1324	5
303.15	0.7727	1340	6
303.15	0.8859	1360	6
303.15	1	1380	6
308.15	0	1208	5
308.15	0.088	1220	5
308.15	0.1777	1232	5
308.15	0.2692	1244	5
308.15	0.3668	1260	5
308.15	0.4667	1276	5
308.15	0.5639	1292	5
308.15	0.6675	1308	5
308.15	0.7727	1324	5
308.15	0.8859	1344	6
308.15	1	1364	6
313.15	0	1188	5
313.15	0.088	1200	5
313.15	0.1777	1212	5
313.15	0.2692	1224	5
313.15	0.3668	1240	5
313.15	0.4667	1256	5
313.15	0.5639	1276	5
313.15	0.6675	1292	5
313.15	0.7727	1312	5
313.15	0.8859	1332	5
313.15	1	1348	6

System: methyl benzoate + cyclohexane; phases: Liquid
Fixed: Pressure, kPa = 101
Property: Mass density, kg/m3 (Liquid); method: VIBTUB:UFactor:6
Temperature, K	Mole fraction of methyl benzoate	Mass density, kg/m3	uncertainty
303.15	0	768.3	0.9
303.15	0.088	796.9	0.8
303.15	0.1777	825.9	0.8
303.15	0.2692	855.8	0.7
303.15	0.3668	887.5	0.7
303.15	0.4667	918.8	0.6
303.15	0.5639	950	0.6
303.15	0.6675	981.7	0.6
303.15	0.7727	1013.3	0.6
303.15	0.8859	1046.1	0.6
303.15	1	1078.3	0.7
308.15	0	764.4	0.9
308.15	0.088	793	0.8
308.15	0.1777	822.1	0.8
308.15	0.2692	851.9	0.7
308.15	0.3668	883.6	0.7
308.15	0.4667	915	0.6
308.15	0.5639	946.1	0.6
308.15	0.6675	978	0.6
308.15	0.7727	1009.5	0.6
308.15	0.8859	1042.2	0.6
308.15	1	1074.4	0.7
313.15	0	760.5	0.9
313.15	0.088	789.1	0.8
313.15	0.1777	818.2	0.8
313.15	0.2692	848.1	0.7
313.15	0.3668	879.7	0.7
313.15	0.4667	911.1	0.7
313.15	0.5639	942.2	0.6
313.15	0.6675	974.1	0.6
313.15	0.7727	1005.5	0.5
313.15	0.8859	1038.3	0.6
313.15	1	1070.3	0.7

System: methyl benzoate + hexane; phases: Liquid
Fixed: Pressure, kPa = 101
Property: Viscosity, Pa*s (Liquid); method: CAPTUB:UFactor:4
Temperature, K	Mole fraction of methyl benzoate	Viscosity, Pa*s	uncertainty
303.15	0	0.000283	1.2e-05
303.15	0.1027	0.000324	1.3e-05
303.15	0.2076	0.000384	1.5e-05
303.15	0.3084	0.000441	1.6e-05
303.15	0.4087	0.000527	1.9e-05
303.15	0.5114	0.000624	2.2e-05
303.15	0.6115	0.000751	2.5e-05
303.15	0.7092	0.000915	3e-05
303.15	0.8069	0.001104	3.5e-05
303.15	0.9024	0.00137	4.3e-05
303.15	1	0.001667	5.1e-05
308.15	0	0.000269	1.2e-05
308.15	0.1027	0.000301	1.3e-05
308.15	0.2076	0.000358	1.4e-05
308.15	0.3084	0.000409	1.6e-05
308.15	0.4087	0.000487	1.8e-05
308.15	0.5114	0.000579	2e-05
308.15	0.6115	0.000688	2.3e-05
308.15	0.7092	0.000844	2.8e-05
308.15	0.8069	0.001016	3.3e-05
308.15	0.9024	0.001238	3.9e-05
308.15	1	0.001514	4.7e-05
313.15	0	0.000252	1.1e-05
313.15	0.1027	0.000283	1.2e-05
313.15	0.2076	0.000335	1.3e-05
313.15	0.3084	0.000383	1.5e-05
313.15	0.4087	0.000454	1.7e-05
313.15	0.5114	0.000542	1.9e-05
313.15	0.6115	0.000635	2.2e-05
313.15	0.7092	0.00078	2.6e-05
313.15	0.8069	0.000935	3e-05
313.15	0.9024	0.001135	3.6e-05
313.15	1	0.001376	4.3e-05

System: methyl benzoate + hexane; phases: Liquid
Fixed: Pressure, kPa = 101
Property: Speed of sound, m/s (Liquid); method: Pulse-echo method
Temperature, K	Mole fraction of methyl benzoate	Speed of sound, m/s	uncertainty
303.15	0	1048	4
303.15	0.1027	1072	4
303.15	0.2076	1100	5
303.15	0.3084	1128	5
303.15	0.4087	1160	5
303.15	0.5114	1196	5
303.15	0.6115	1232	5
303.15	0.7092	1272	5
303.15	0.8069	1312	5
303.15	0.9024	1344	6
303.15	1	1380	6
308.15	0	1028	4
308.15	0.1027	1052	4
308.15	0.2076	1080	4
308.15	0.3084	1108	5
308.15	0.4087	1140	5
308.15	0.5114	1180	5
308.15	0.6115	1220	5
308.15	0.7092	1256	5
308.15	0.8069	1292	5
308.15	0.9024	1328	5
308.15	1	1364	6
313.15	0	1008	4
313.15	0.1027	1036	4
313.15	0.2076	1064	4
313.15	0.3084	1096	5
313.15	0.4087	1128	5
313.15	0.5114	1164	5
313.15	0.6115	1200	5
313.15	0.7092	1240	5
313.15	0.8069	1280	5
313.15	0.9024	1316	5
313.15	1	1348	6

System: methyl benzoate + hexane; phases: Liquid
Fixed: Pressure, kPa = 101
Property: Mass density, kg/m3 (Liquid); method: VIBTUB:UFactor:6
Temperature, K	Mole fraction of methyl benzoate	Mass density, kg/m3	uncertainty
303.15	0	649.8	1.1
303.15	0.1027	692.7	1
303.15	0.2076	738	0.9
303.15	0.3084	781.4	0.9
303.15	0.4087	825.2	0.8
303.15	0.5114	869.6	0.7
303.15	0.6115	913.1	0.7
303.15	0.7092	955.5	0.6
303.15	0.8069	997.7	0.5
303.15	0.9024	1036.9	0.6
303.15	1	1078.3	0.7
308.15	0	645.9	1.1
308.15	0.1027	689	1
308.15	0.2076	734.2	0.9
308.15	0.3084	777.6	0.9
308.15	0.4087	821.3	0.8
308.15	0.5114	865.6	0.7
308.15	0.6115	909.2	0.7
308.15	0.7092	951.5	0.6
308.15	0.8069	993.7	0.5
308.15	0.9024	1033	0.6
308.15	1	1074.4	0.7
313.15	0	642.2	1.1
313.15	0.1027	685.1	1
313.15	0.2076	730.3	0.9
313.15	0.3084	773.7	0.9
313.15	0.4087	817.3	0.8
313.15	0.5114	861.7	0.7
313.15	0.6115	905.3	0.7
313.15	0.7092	947.3	0.6
313.15	0.8069	989.7	0.6
313.15	0.9024	1029.1	0.6
313.15	1	1070.3	0.7

System: methyl benzoate + heptane; phases: Liquid
Fixed: Pressure, kPa = 101
Property: Viscosity, Pa*s (Liquid); method: CAPTUB:UFactor:4
Temperature, K	Mole fraction of methyl benzoate	Viscosity, Pa*s	uncertainty
303.15	0	0.000375	1.5e-05
303.15	0.1154	0.000413	1.6e-05
303.15	0.2273	0.000467	1.7e-05
303.15	0.335	0.000533	1.9e-05
303.15	0.439	0.000627	2.2e-05
303.15	0.5404	0.000723	2.4e-05
303.15	0.6365	0.00084	2.8e-05
303.15	0.7324	0.00099	3.2e-05
303.15	0.8252	0.001172	3.7e-05
303.15	0.9133	0.001404	4.4e-05
303.15	1	0.001667	5.1e-05
308.15	0	0.00035	1.4e-05
308.15	0.1154	0.00038	1.5e-05
308.15	0.2273	0.00043	1.6e-05
308.15	0.335	0.000494	1.8e-05
308.15	0.439	0.000575	2e-05
308.15	0.5404	0.000666	2.3e-05
308.15	0.6365	0.000781	2.6e-05
308.15	0.7324	0.000904	3e-05
308.15	0.8252	0.001068	3.4e-05
308.15	0.9133	0.001284	4e-05
308.15	1	0.001514	4.7e-05
313.15	0	0.000325	1.3e-05
313.15	0.1154	0.00035	1.4e-05
313.15	0.2273	0.000401	1.5e-05
313.15	0.335	0.000458	1.7e-05
313.15	0.439	0.000529	1.9e-05
313.15	0.5404	0.000615	2.1e-05
313.15	0.6365	0.000728	2.5e-05
313.15	0.7324	0.000849	2.8e-05
313.15	0.8252	0.000982	3.2e-05
313.15	0.9133	0.00115	3.6e-05
313.15	1	0.001376	4.3e-05

System: methyl benzoate + heptane; phases: Liquid
Fixed: Pressure, kPa = 101
Property: Speed of sound, m/s (Liquid); method: Pulse-echo method
Temperature, K	Mole fraction of methyl benzoate	Speed of sound, m/s	uncertainty
303.15	0	1116	5
303.15	0.1154	1128	5
303.15	0.2273	1148	5
303.15	0.335	1168	5
303.15	0.439	1192	5
303.15	0.5404	1220	5
303.15	0.6365	1248	5
303.15	0.7324	1276	5
303.15	0.8252	1308	5
303.15	0.9133	1348	6
303.15	1	1380	6
308.15	0	1092	5
308.15	0.1154	1108	5
308.15	0.2273	1128	5
308.15	0.335	1148	5
308.15	0.439	1172	5
308.15	0.5404	1196	5
308.15	0.6365	1228	5
308.15	0.7324	1260	5
308.15	0.8252	1296	5
308.15	0.9133	1336	5
308.15	1	1364	6
313.15	0	1072	4
313.15	0.1154	1088	5
313.15	0.2273	1108	5
313.15	0.335	1128	5
313.15	0.439	1152	5
313.15	0.5404	1180	5
313.15	0.6365	1212	5
313.15	0.7324	1248	5
313.15	0.8252	1284	5
313.15	0.9133	1324	5
313.15	1	1348	6

System: methyl benzoate + heptane; phases: Liquid
Fixed: Pressure, kPa = 101
Property: Mass density, kg/m3 (Liquid); method: VIBTUB:UFactor:6
Temperature, K	Mole fraction of methyl benzoate	Mass density, kg/m3	uncertainty
303.15	0	674.5	1
303.15	0.1154	715.5	1
303.15	0.2273	756.4	0.9
303.15	0.335	797.1	0.8
303.15	0.439	837.7	0.8
303.15	0.5404	878.6	0.7
303.15	0.6365	918.3	0.6
303.15	0.7324	959	0.6
303.15	0.8252	999.4	0.5
303.15	0.9133	1038.7	0.6
303.15	1	1078.3	0.7
308.15	0	670.3	1.1
308.15	0.1154	711.3	1
308.15	0.2273	752.4	0.9
308.15	0.335	793.1	0.8
308.15	0.439	833.9	0.8
308.15	0.5404	874.8	0.7
308.15	0.6365	914.7	0.7
308.15	0.7324	955.3	0.6
308.15	0.8252	995.7	0.5
308.15	0.9133	1034.8	0.6
308.15	1	1074.4	0.7
313.15	0	667.2	1.1
313.15	0.1154	708.1	1
313.15	0.2273	749.1	0.9
313.15	0.335	789.8	0.8
313.15	0.439	830.5	0.8
313.15	0.5404	871.3	0.7
313.15	0.6365	911.1	0.7
313.15	0.7324	951.7	0.6
313.15	0.8252	992.1	0.6
313.15	0.9133	1030.9	0.6
313.15	1	1070.3	0.7

System: methyl benzoate + octane; phases: Liquid
Fixed: Pressure, kPa = 101
Property: Viscosity, Pa*s (Liquid); method: CAPTUB:UFactor:4
Temperature, K	Mole fraction of methyl benzoate	Viscosity, Pa*s	uncertainty
303.15	0	0.000491	1.8e-05
303.15	0.129	0.000522	1.9e-05
303.15	0.2456	0.000576	2e-05
303.15	0.3586	0.000644	2.2e-05
303.15	0.4655	0.000727	2.5e-05
303.15	0.5672	0.000832	2.8e-05
303.15	0.662	0.000936	3e-05
303.15	0.7528	0.001084	3.5e-05
303.15	0.8382	0.001245	3.9e-05
303.15	0.9213	0.001434	4.4e-05
303.15	1	0.001667	5.1e-05
308.15	0	0.00045	1.7e-05
308.15	0.129	0.000484	1.8e-05
308.15	0.2456	0.000529	1.9e-05
308.15	0.3586	0.000596	2.1e-05
308.15	0.4655	0.000668	2.3e-05
308.15	0.5672	0.000762	2.6e-05
308.15	0.662	0.000857	2.8e-05
308.15	0.7528	0.00099	3.2e-05
308.15	0.8382	0.001125	3.6e-05
308.15	0.9213	0.001303	4.1e-05
308.15	1	0.001514	4.7e-05
313.15	0	0.000415	1.6e-05
313.15	0.129	0.000447	1.7e-05
313.15	0.2456	0.000492	1.8e-05
313.15	0.3586	0.000556	2e-05
313.15	0.4655	0.000621	2.2e-05
313.15	0.5672	0.000705	2.4e-05
313.15	0.662	0.000788	2.6e-05
313.15	0.7528	0.000913	3e-05
313.15	0.8382	0.001033	3.3e-05
313.15	0.9213	0.001193	3.8e-05
313.15	1	0.001376	4.3e-05

System: methyl benzoate + octane; phases: Liquid
Fixed: Pressure, kPa = 101
Property: Speed of sound, m/s (Liquid); method: Pulse-echo method
Temperature, K	Mole fraction of methyl benzoate	Speed of sound, m/s	uncertainty
303.15	0	1148	5
303.15	0.129	1160	5
303.15	0.2456	1180	5
303.15	0.3586	1200	5
303.15	0.4655	1220	5
303.15	0.5672	1240	5
303.15	0.662	1260	5
303.15	0.7528	1284	5
303.15	0.8382	1308	5
303.15	0.9213	1340	6
303.15	1	1380	6
308.15	0	1132	5
308.15	0.129	1140	5
308.15	0.2456	1160	5
308.15	0.3586	1180	5
308.15	0.4655	1200	5
308.15	0.5672	1224	5
308.15	0.662	1248	5
308.15	0.7528	1272	5
308.15	0.8382	1300	5
308.15	0.9213	1328	5
308.15	1	1364	6
313.15	0	1112	5
313.15	0.129	1124	5
313.15	0.2456	1144	5
313.15	0.3586	1164	5
313.15	0.4655	1184	5
313.15	0.5672	1204	5
313.15	0.662	1228	5
313.15	0.7528	1252	5
313.15	0.8382	1280	5
313.15	0.9213	1308	5
313.15	1	1348	6

System: methyl benzoate + octane; phases: Liquid
Fixed: Pressure, kPa = 101
Property: Mass density, kg/m3 (Liquid); method: VIBTUB:UFactor:6
Temperature, K	Mole fraction of methyl benzoate	Mass density, kg/m3	uncertainty
303.15	0	693.9	1
303.15	0.129	732.2	0.9
303.15	0.2456	770	0.9
303.15	0.3586	809.2	0.8
303.15	0.4655	848.4	0.7
303.15	0.5672	887.5	0.7
303.15	0.662	925.8	0.6
303.15	0.7528	964.3	0.6
303.15	0.8382	1002.3	0.5
303.15	0.9213	1040.6	0.6
303.15	1	1078.3	0.7
308.15	0	690.4	1
308.15	0.129	728.8	0.9
308.15	0.2456	766.4	0.9
308.15	0.3586	805.5	0.8
308.15	0.4655	844.5	0.8
308.15	0.5672	883.6	0.7
308.15	0.662	921.9	0.6
308.15	0.7528	960.3	0.6
308.15	0.8382	998.1	0.5
308.15	0.9213	1036.4	0.6
308.15	1	1074.4	0.7
313.15	0	687	1
313.15	0.129	725.3	0.9
313.15	0.2456	762.9	0.9
313.15	0.3586	801.8	0.8
313.15	0.4655	840.7	0.8
313.15	0.5672	879.7	0.7
313.15	0.662	918	0.6
313.15	0.7528	956.5	0.6
313.15	0.8382	994.3	0.5
313.15	0.9213	1032.4	0.6
313.15	1	1070.3	0.7
