Measured thermophysical data. High-Pressure Viscosity Measurements for the Binary System Cyclohexane + n-Hexadecane in the Temperature Range of (318.15 to 413.15) K
Source: J. Chem. Eng. Data, 2009, 10.1021/je9000262
Compound 1: cyclohexane, C6H12, InChI=1S/C6H12/c1-2-4-6-5-3-1/h1-6H2
Compound 2: hexadecane, C16H34, InChI=1S/C16H34/c1-3-5-7-9-11-13-15-16-14-12-10-8-6-4-2/h3-16H2,1-2H3

System: cyclohexane; phases: Liquid
Property: Viscosity, Pa*s (Liquid); method: Moving piston method
Temperature, K	Pressure, kPa	Viscosity, Pa*s	uncertainty
298.15	100	0.000888	5.4e-05
298.15	4000	0.000903	5.4e-05
298.15	7600	0.000962	5.8e-05
298.15	13700	0.001037	6.2e-05
298.15	20900	0.001129	6.8e-05
298.15	27700	0.001222	7.4e-05
298.15	34700	0.001309	7.9e-05
318.15	6895	0.000671	4e-05
318.15	13790	0.000726	4.4e-05
318.15	20680	0.000785	4.7e-05
318.15	27580	0.000839	5.1e-05
318.15	34470	0.000906	5.5e-05
318.15	41370	0.000974	5.9e-05
318.15	48260	0.001049	6.3e-05
318.15	55160	0.001149	6.9e-05
318.15	62050	0.001216	7.3e-05
323.15	100	0.000606	3.7e-05
323.15	7200	0.000667	4e-05
323.15	14200	0.000721	4.3e-05
323.15	21100	0.000776	4.7e-05
323.15	27700	0.000835	5e-05
323.15	40000	0.000952	5.7e-05
323.15	48200	0.001035	6.2e-05
323.15	50900	0.001061	6.4e-05
323.15	52300	0.001072	6.5e-05
323.15	54300	0.001091	6.6e-05
323.15	55000	0.000915	5.7e-05
333.15	100	0.000512	3.1e-05
333.15	3800	0.000538	3.2e-05
333.15	6895	0.000546	3.3e-05
333.15	7300	0.000563	3.4e-05
333.15	13790	0.000595	3.6e-05
333.15	14100	0.000609	3.7e-05
333.15	20600	0.000657	4e-05
333.15	20680	0.000642	3.9e-05
333.15	27580	0.000698	4.2e-05
333.15	27800	0.000709	4.3e-05
333.15	34470	0.00075	4.5e-05
333.15	34700	0.000757	4.6e-05
333.15	41370	0.000808	4.9e-05
333.15	42000	0.000815	4.9e-05
333.15	48260	0.000855	5.2e-05
333.15	49000	0.000876	5.3e-05
333.15	53500	0.000904	5.5e-05
333.15	55160	0.000916	5.5e-05
333.15	62050	0.000951	5.7e-05
348.15	6895	0.000458	2.8e-05
348.15	13790	0.000495	3e-05
348.15	20680	0.000536	3.2e-05
348.15	27580	0.000579	3.5e-05
348.15	34470	0.000624	3.8e-05
348.15	41370	0.00067	4e-05
348.15	48260	0.000717	4.3e-05
348.15	55160	0.000769	4.6e-05
348.15	62050	0.000814	4.9e-05
363.15	6895	0.000386	2.3e-05
363.15	13790	0.00042	2.5e-05
363.15	20680	0.000455	2.7e-05
363.15	27580	0.000493	3e-05
363.15	34470	0.00053	3.2e-05
363.15	41370	0.000568	3.4e-05
363.15	48260	0.000618	3.7e-05
363.15	55160	0.000658	4e-05
363.15	62050	0.000699	4.2e-05
388.15	6895	0.000301	1.8e-05
388.15	13790	0.000328	2e-05
388.15	20680	0.000356	2.1e-05
388.15	27580	0.000384	2.3e-05
388.15	34470	0.000412	2.5e-05
388.15	41370	0.000441	2.7e-05
388.15	48260	0.000469	2.8e-05
388.15	55160	0.000498	3e-05
388.15	62050	0.000528	3.2e-05
413.15	6895	0.000245	1.5e-05
413.15	13790	0.000273	1.6e-05
413.15	20680	0.000293	1.8e-05
413.15	27580	0.000316	1.9e-05
413.15	34470	0.000342	2.1e-05
413.15	41370	0.000367	2.2e-05
413.15	48260	0.000396	2.4e-05
413.15	55160	0.000415	2.5e-05
413.15	62050	0.000438	2.6e-05

System: hexadecane; phases: Liquid
Property: Viscosity, Pa*s (Liquid); method: Moving piston method
Temperature, K	Pressure, kPa	Viscosity, Pa*s	uncertainty
318.15	6895	0.002151	0.00013
318.15	13790	0.002331	0.000141
318.15	20680	0.002538	0.000153
318.15	27580	0.002728	0.000164
318.15	34470	0.00292	0.000176
318.15	41370	0.003169	0.000191
318.15	48260	0.003413	0.000206
318.15	55160	0.003641	0.00022
318.15	62050	0.003901	0.000235
333.15	6895	0.001705	0.000103
333.15	13790	0.001827	0.00011
333.15	20680	0.001951	0.000118
333.15	27580	0.002101	0.000127
333.15	34470	0.002246	0.000135
333.15	41370	0.002406	0.000145
333.15	48260	0.002582	0.000156
333.15	55160	0.002761	0.000167
333.15	62050	0.00299	0.00018
348.15	6895	0.001329	8e-05
348.15	13790	0.00145	8.7e-05
348.15	20680	0.001571	9.5e-05
348.15	27580	0.00167	0.000101
348.15	34470	0.001788	0.000108
348.15	41370	0.001938	0.000117
348.15	48260	0.002084	0.000126
348.15	55160	0.002234	0.000135
348.15	62050	0.002364	0.000143
363.15	6895	0.001145	6.9e-05
363.15	13790	0.001236	7.4e-05
363.15	20680	0.001338	8.1e-05
363.15	27580	0.001428	8.6e-05
363.15	34470	0.001528	9.2e-05
363.15	41370	0.001621	9.8e-05
363.15	48260	0.001714	0.000103
363.15	55160	0.001833	0.00011
363.15	62050	0.001929	0.000116
388.15	6895	0.000831	5e-05
388.15	13790	0.000899	5.4e-05
388.15	20680	0.000968	5.8e-05
388.15	27580	0.001042	6.3e-05
388.15	34470	0.00116	7e-05
388.15	41370	0.001177	7.1e-05
388.15	48260	0.001264	7.6e-05
388.15	55160	0.001331	8e-05
388.15	62050	0.001396	8.4e-05
413.15	6895	0.000621	3.7e-05
413.15	13790	0.000673	4.1e-05
413.15	20680	0.000733	4.4e-05
413.15	27580	0.00079	4.8e-05
413.15	34470	0.000813	4.9e-05
413.15	41370	0.000879	5.3e-05
413.15	48260	0.000935	5.6e-05
413.15	55160	0.000972	5.9e-05
413.15	62050	0.001014	6.1e-05

System: cyclohexane + hexadecane; phases: Liquid
Property: Viscosity, Pa*s (Liquid); method: Moving piston method
Temperature, K	Mole fraction of cyclohexane	Pressure, kPa	Viscosity, Pa*s	uncertainty
318.15	0	6895	0.002151	0.00013
318.15	0	13790	0.002331	0.000141
318.15	0	20680	0.002538	0.000153
318.15	0	27580	0.002728	0.000164
318.15	0	34470	0.00292	0.000176
318.15	0	41370	0.003169	0.000191
318.15	0	48260	0.003413	0.000206
318.15	0	55160	0.003641	0.00022
318.15	0	62050	0.003901	0.000235
318.15	0.1	6895	0.001986	0.00012
318.15	0.1	13790	0.00216	0.00013
318.15	0.1	20680	0.002332	0.000141
318.15	0.1	27580	0.002521	0.000152
318.15	0.1	34470	0.002717	0.000164
318.15	0.1	41370	0.002917	0.000176
318.15	0.1	48260	0.003136	0.000189
318.15	0.1	55160	0.003364	0.000203
318.15	0.1	62050	0.003595	0.000217
318.15	0.3	6895	0.001638	9.9e-05
318.15	0.3	13790	0.001772	0.000107
318.15	0.3	20680	0.001928	0.000116
318.15	0.3	27580	0.00208	0.000125
318.15	0.3	34470	0.002247	0.000135
318.15	0.3	41370	0.00241	0.000145
318.15	0.3	48260	0.002602	0.000157
318.15	0.3	55160	0.002789	0.000168
318.15	0.3	62050	0.00298	0.00018
318.15	0.7	6895	0.001213	7.3e-05
318.15	0.7	13790	0.001315	7.9e-05
318.15	0.7	20680	0.001424	8.6e-05
318.15	0.7	27580	0.001525	9.2e-05
318.15	0.7	34470	0.001645	9.9e-05
318.15	0.7	41370	0.001748	0.000105
318.15	0.7	48260	0.00188	0.000113
318.15	0.7	55160	0.002	0.000121
318.15	0.7	62050	0.002128	0.000128
318.15	0.9	6895	0.000864	5.2e-05
318.15	0.9	13790	0.000941	5.7e-05
318.15	0.9	20680	0.001016	6.1e-05
318.15	0.9	27580	0.001095	6.6e-05
318.15	0.9	34470	0.001225	7.4e-05
318.15	0.9	41370	0.001319	8e-05
318.15	0.9	48260	0.001408	8.5e-05
318.15	0.9	55160	0.001508	9.1e-05
318.15	0.9	62050	0.001635	9.9e-05
318.15	1	6895	0.000671	4e-05
318.15	1	13790	0.000726	4.4e-05
318.15	1	20680	0.000785	4.7e-05
318.15	1	27580	0.000839	5.1e-05
318.15	1	34470	0.000906	5.5e-05
318.15	1	41370	0.000974	5.9e-05
318.15	1	48260	0.001049	6.3e-05
318.15	1	55160	0.001149	6.9e-05
318.15	1	62050	0.001216	7.3e-05
333.15	0	6895	0.001705	0.000103
333.15	0	13790	0.001827	0.00011
333.15	0	20680	0.001951	0.000118
333.15	0	27580	0.002101	0.000127
333.15	0	34470	0.002246	0.000135
333.15	0	41370	0.002406	0.000145
333.15	0	48260	0.002582	0.000156
333.15	0	55160	0.002761	0.000167
333.15	0	62050	0.00299	0.00018
333.15	0.1	6895	0.001588	9.6e-05
333.15	0.1	13790	0.001706	0.000103
333.15	0.1	20680	0.001839	0.000111
333.15	0.1	27580	0.001984	0.00012
333.15	0.1	34470	0.002124	0.000128
333.15	0.1	41370	0.002266	0.000137
333.15	0.1	48260	0.002426	0.000146
333.15	0.1	55160	0.002579	0.000156
333.15	0.1	62050	0.002737	0.000165
333.15	0.3	6895	0.001291	7.8e-05
333.15	0.3	13790	0.001408	8.5e-05
333.15	0.3	20680	0.001525	9.2e-05
333.15	0.3	27580	0.001642	9.9e-05
333.15	0.3	34470	0.001766	0.000106
333.15	0.3	41370	0.001893	0.000114
333.15	0.3	48260	0.002015	0.000122
333.15	0.3	55160	0.002148	0.00013
333.15	0.3	62050	0.002272	0.000137
333.15	0.7	6895	0.000927	5.6e-05
333.15	0.7	13790	0.001005	6.1e-05
333.15	0.7	20680	0.001096	6.6e-05
333.15	0.7	27580	0.001182	7.1e-05
333.15	0.7	34470	0.00128	7.7e-05
333.15	0.7	41370	0.001364	8.2e-05
333.15	0.7	48260	0.001462	8.8e-05
333.15	0.7	55160	0.001548	9.3e-05
333.15	0.7	62050	0.001659	0.0001
333.15	0.9	6895	0.000665	4e-05
333.15	0.9	13790	0.00072	4.3e-05
333.15	0.9	20680	0.000778	4.7e-05
333.15	0.9	27580	0.000833	5e-05
333.15	0.9	34470	0.000899	5.4e-05
333.15	0.9	41370	0.000969	5.8e-05
333.15	0.9	48260	0.001035	6.2e-05
333.15	0.9	55160	0.001096	6.6e-05
333.15	0.9	62050	0.001189	7.2e-05
333.15	1	6895	0.000546	3.3e-05
333.15	1	13790	0.000595	3.6e-05
333.15	1	20680	0.000642	3.9e-05
333.15	1	27580	0.000698	4.2e-05
333.15	1	34470	0.00075	4.5e-05
333.15	1	41370	0.000808	4.9e-05
333.15	1	48260	0.000855	5.2e-05
333.15	1	55160	0.000916	5.5e-05
333.15	1	62050	0.000951	5.7e-05
348.15	0	6895	0.001329	8e-05
348.15	0	13790	0.00145	8.7e-05
348.15	0	20680	0.001571	9.5e-05
348.15	0	27580	0.00167	0.000101
348.15	0	34470	0.001788	0.000108
348.15	0	41370	0.001938	0.000117
348.15	0	48260	0.002084	0.000126
348.15	0	55160	0.002234	0.000135
348.15	0	62050	0.002364	0.000143
348.15	0.1	6895	0.001251	7.5e-05
348.15	0.1	13790	0.001352	8.2e-05
348.15	0.1	20680	0.001462	8.8e-05
348.15	0.1	27580	0.001572	9.5e-05
348.15	0.1	34470	0.00167	0.000101
348.15	0.1	41370	0.001788	0.000108
348.15	0.1	48260	0.001895	0.000114
348.15	0.1	55160	0.002039	0.000123
348.15	0.1	62050	0.002155	0.00013
348.15	0.3	6895	0.001056	6.4e-05
348.15	0.3	13790	0.001145	6.9e-05
348.15	0.3	20680	0.001234	7.4e-05
348.15	0.3	27580	0.001325	8e-05
348.15	0.3	34470	0.001425	8.6e-05
348.15	0.3	41370	0.001506	9.1e-05
348.15	0.3	48260	0.00161	9.7e-05
348.15	0.3	55160	0.001709	0.000103
348.15	0.3	62050	0.001814	0.000109
348.15	0.7	6895	0.000763	4.6e-05
348.15	0.7	13790	0.000823	5e-05
348.15	0.7	20680	0.000905	5.5e-05
348.15	0.7	27580	0.00098	5.9e-05
348.15	0.7	34470	0.001051	6.3e-05
348.15	0.7	41370	0.001116	6.7e-05
348.15	0.7	48260	0.001194	7.2e-05
348.15	0.7	55160	0.001249	7.5e-05
348.15	0.7	62050	0.001329	8e-05
348.15	0.9	6895	0.000556	3.4e-05
348.15	0.9	13790	0.000606	3.7e-05
348.15	0.9	20680	0.000645	3.9e-05
348.15	0.9	27580	0.000698	4.2e-05
348.15	0.9	34470	0.000747	4.5e-05
348.15	0.9	41370	0.000789	4.8e-05
348.15	0.9	48260	0.000849	5.1e-05
348.15	0.9	55160	0.000887	5.3e-05
348.15	0.9	62050	0.000945	5.7e-05
348.15	1	6895	0.000458	2.8e-05
348.15	1	13790	0.000495	3e-05
348.15	1	20680	0.000536	3.2e-05
348.15	1	27580	0.000579	3.5e-05
348.15	1	34470	0.000624	3.8e-05
348.15	1	41370	0.00067	4e-05
348.15	1	48260	0.000717	4.3e-05
348.15	1	55160	0.000769	4.6e-05
348.15	1	62050	0.000814	4.9e-05
363.15	0	6895	0.001145	6.9e-05
363.15	0	13790	0.001236	7.4e-05
363.15	0	20680	0.001338	8.1e-05
363.15	0	27580	0.001428	8.6e-05
363.15	0	34470	0.001528	9.2e-05
363.15	0	41370	0.001621	9.8e-05
363.15	0	48260	0.001714	0.000103
363.15	0	55160	0.001833	0.00011
363.15	0	62050	0.001929	0.000116
363.15	0.1	6895	0.001026	6.2e-05
363.15	0.1	13790	0.001109	6.7e-05
363.15	0.1	20680	0.001197	7.2e-05
363.15	0.1	27580	0.001294	7.8e-05
363.15	0.1	34470	0.001382	8.3e-05
363.15	0.1	41370	0.001481	8.9e-05
363.15	0.1	48260	0.001577	9.5e-05
363.15	0.1	55160	0.001682	0.000101
363.15	0.1	62050	0.001779	0.000107
363.15	0.3	6895	0.000897	5.4e-05
363.15	0.3	13790	0.000973	5.9e-05
363.15	0.3	20680	0.001048	6.3e-05
363.15	0.3	27580	0.001129	6.8e-05
363.15	0.3	34470	0.001206	7.3e-05
363.15	0.3	41370	0.001289	7.8e-05
363.15	0.3	48260	0.001369	8.2e-05
363.15	0.3	55160	0.001453	8.8e-05
363.15	0.3	62050	0.001537	9.3e-05
363.15	0.7	6895	0.000631	3.8e-05
363.15	0.7	13790	0.000679	4.1e-05
363.15	0.7	20680	0.000736	4.4e-05
363.15	0.7	27580	0.000787	4.7e-05
363.15	0.7	34470	0.00084	5.1e-05
363.15	0.7	41370	0.000896	5.4e-05
363.15	0.7	48260	0.00095	5.7e-05
363.15	0.7	55160	0.001011	6.1e-05
363.15	0.7	62050	0.001073	6.5e-05
363.15	0.9	6895	0.000471	2.8e-05
363.15	0.9	13790	0.000508	3.1e-05
363.15	0.9	20680	0.00055	3.3e-05
363.15	0.9	27580	0.000587	3.5e-05
363.15	0.9	34470	0.000628	3.8e-05
363.15	0.9	41370	0.000667	4e-05
363.15	0.9	48260	0.000713	4.3e-05
363.15	0.9	55160	0.00075	4.5e-05
363.15	0.9	62050	0.000797	4.8e-05
363.15	1	6895	0.000386	2.3e-05
363.15	1	13790	0.00042	2.5e-05
363.15	1	20680	0.000455	2.7e-05
363.15	1	27580	0.000493	3e-05
363.15	1	34470	0.00053	3.2e-05
363.15	1	41370	0.000568	3.4e-05
363.15	1	48260	0.000618	3.7e-05
363.15	1	55160	0.000658	4e-05
363.15	1	62050	0.000699	4.2e-05
388.15	0	6895	0.000831	5e-05
388.15	0	13790	0.000899	5.4e-05
388.15	0	20680	0.000968	5.8e-05
388.15	0	27580	0.001042	6.3e-05
388.15	0	34470	0.00116	7e-05
388.15	0	41370	0.001177	7.1e-05
388.15	0	48260	0.001264	7.6e-05
388.15	0	55160	0.001331	8e-05
388.15	0	62050	0.001396	8.4e-05
388.15	0.1	6895	0.00079	4.8e-05
388.15	0.1	13790	0.000844	5.1e-05
388.15	0.1	20680	0.000902	5.4e-05
388.15	0.1	27580	0.000965	5.8e-05
388.15	0.1	34470	0.001031	6.2e-05
388.15	0.1	41370	0.001086	6.5e-05
388.15	0.1	48260	0.001179	7.1e-05
388.15	0.1	55160	0.001242	7.5e-05
388.15	0.1	62050	0.001311	7.9e-05
388.15	0.3	6895	0.000668	4e-05
388.15	0.3	13790	0.000724	4.4e-05
388.15	0.3	20680	0.000778	4.7e-05
388.15	0.3	27580	0.000835	5e-05
388.15	0.3	34470	0.00089	5.4e-05
388.15	0.3	41370	0.000949	5.7e-05
388.15	0.3	48260	0.001006	6.1e-05
388.15	0.3	55160	0.001067	6.4e-05
388.15	0.3	62050	0.001127	6.8e-05
388.15	0.7	6895	0.000497	3e-05
388.15	0.7	13790	0.000534	3.2e-05
388.15	0.7	20680	0.000565	3.4e-05
388.15	0.7	27580	0.000609	3.7e-05
388.15	0.7	34470	0.000656	4e-05
388.15	0.7	41370	0.0007	4.2e-05
388.15	0.7	48260	0.000738	4.4e-05
388.15	0.7	55160	0.000779	4.7e-05
388.15	0.7	62050	0.00083	5e-05
388.15	0.9	6895	0.000386	2.3e-05
388.15	0.9	13790	0.000406	2.4e-05
388.15	0.9	20680	0.000431	2.6e-05
388.15	0.9	27580	0.000463	2.8e-05
388.15	0.9	34470	0.000494	3e-05
388.15	0.9	41370	0.000527	3.2e-05
388.15	0.9	48260	0.000565	3.4e-05
388.15	0.9	55160	0.000597	3.6e-05
388.15	0.9	62050	0.000625	3.8e-05
388.15	1	6895	0.000301	1.8e-05
388.15	1	13790	0.000328	2e-05
388.15	1	20680	0.000356	2.1e-05
388.15	1	27580	0.000384	2.3e-05
388.15	1	34470	0.000412	2.5e-05
388.15	1	41370	0.000441	2.7e-05
388.15	1	48260	0.000469	2.8e-05
388.15	1	55160	0.000498	3e-05
388.15	1	62050	0.000528	3.2e-05
413.15	0	6895	0.000621	3.7e-05
413.15	0	13790	0.000673	4.1e-05
413.15	0	20680	0.000733	4.4e-05
413.15	0	27580	0.00079	4.8e-05
413.15	0	34470	0.000813	4.9e-05
413.15	0	41370	0.000879	5.3e-05
413.15	0	48260	0.000935	5.6e-05
413.15	0	55160	0.000972	5.9e-05
413.15	0	62050	0.001014	6.1e-05
413.15	0.1	6895	0.000567	3.4e-05
413.15	0.1	13790	0.000625	3.8e-05
413.15	0.1	20680	0.000679	4.1e-05
413.15	0.1	27580	0.000723	4.4e-05
413.15	0.1	34470	0.000774	4.7e-05
413.15	0.1	41370	0.000824	5e-05
413.15	0.1	48260	0.000888	5.4e-05
413.15	0.1	55160	0.000926	5.6e-05
413.15	0.1	62050	0.000974	5.9e-05
413.15	0.3	6895	0.00053	3.2e-05
413.15	0.3	13790	0.000578	3.5e-05
413.15	0.3	20680	0.000622	3.7e-05
413.15	0.3	27580	0.000664	4e-05
413.15	0.3	34470	0.000715	4.3e-05
413.15	0.3	41370	0.000752	4.5e-05
413.15	0.3	48260	0.000796	4.8e-05
413.15	0.3	55160	0.000847	5.1e-05
413.15	0.3	62050	0.000888	5.4e-05
413.15	0.7	6895	0.000402	2.4e-05
413.15	0.7	13790	0.00044	2.7e-05
413.15	0.7	20680	0.000477	2.9e-05
413.15	0.7	27580	0.000515	3.1e-05
413.15	0.7	34470	0.000542	3.3e-05
413.15	0.7	41370	0.000582	3.5e-05
413.15	0.7	48260	0.000608	3.7e-05
413.15	0.7	55160	0.000639	3.8e-05
413.15	0.7	62050	0.000678	4.1e-05
413.15	0.9	6895	0.000308	1.9e-05
413.15	0.9	13790	0.000332	2e-05
413.15	0.9	20680	0.000362	2.2e-05
413.15	0.9	27580	0.000387	2.3e-05
413.15	0.9	34470	0.000423	2.5e-05
413.15	0.9	41370	0.000433	2.6e-05
413.15	0.9	48260	0.000459	2.8e-05
413.15	0.9	55160	0.000486	2.9e-05
413.15	0.9	62050	0.000513	3.1e-05
413.15	1	6895	0.000245	1.5e-05
413.15	1	13790	0.000273	1.6e-05
413.15	1	20680	0.000293	1.8e-05
413.15	1	27580	0.000316	1.9e-05
413.15	1	34470	0.000342	2.1e-05
413.15	1	41370	0.000367	2.2e-05
413.15	1	48260	0.000396	2.4e-05
413.15	1	55160	0.000415	2.5e-05
413.15	1	62050	0.000438	2.6e-05
