Measured thermophysical data. Solubility of Cytidine 5'-Diphosphocholine Sodium in Water and Different Binary Mixtures from (278.15 to 298.15) K
Source: J. Chem. Eng. Data, 2010, 10.1021/je900465r
Compound 1: sodium 5'-O-[({[2-(trimethylammonio)ethoxy]phosphinato}oxy)phosphinato]cytidine, C14H25N4NaO11P2, InChI=1S/C14H26N4O11P2.Na/c1-18(2,3)6-7-26-30(22,23)29-31(24,25)27-8-9-11(19)12(20)13(28-9)17-5-4-10(15)16-14(17)21;/h4-5,9,11-13,19-20H,6-8H2,1-3H3,(H3-,15,16,21,22,23,24,25);/q;+1/p-1/t9-,11-,12-,13-;/m1./s1, purity 99%
Compound 2: methanol, CH4O, InChI=1S/CH4O/c1-2/h2H,1H3, purity 99.5%
Compound 3: ethanol, C2H6O, InChI=1S/C2H6O/c1-2-3/h3H,2H2,1H3, purity 99.7%
Compound 4: acetone, C3H6O, InChI=1S/C3H6O/c1-3(2)4/h1-2H3, purity 99.5%
Compound 5: water, H2O, InChI=1S/H2O/h1H2

System: water + sodium 5'-O-[({[2-(trimethylammonio)ethoxy]phosphinato}oxy)phosphinato]cytidine; phases: Liquid, Crystal
Fixed: Pressure, kPa = 101
Property: Mole fraction of sodium 5'-O-[({[2-(trimethylammonio)ethoxy]phosphinato}oxy)phosphinato]cytidine (Liquid); method: Chromatography
Temperature, K	Mole fraction of sodium 5'-O-[({[2-(trimethylammonio)ethoxy]phosphinato}oxy)phosphinato]cytidine	uncertainty
278.15	0.9556	0.0039
281.15	0.9569	0.0038
285.15	0.9583	0.0037
289.15	0.96	0.0035
293.15	0.9621	0.0033
298.15	0.9645	0.0031

System: ethanol + water + sodium 5'-O-[({[2-(trimethylammonio)ethoxy]phosphinato}oxy)phosphinato]cytidine; phases: Liquid, Crystal
Fixed: Pressure, kPa = 101
Property: Mole fraction of sodium 5'-O-[({[2-(trimethylammonio)ethoxy]phosphinato}oxy)phosphinato]cytidine (Liquid); method: Chromatography
Temperature, K	Solvent: Volume ratio of component to other component of binary solvent of ethanol	Mole fraction of sodium 5'-O-[({[2-(trimethylammonio)ethoxy]phosphinato}oxy)phosphinato]cytidine	uncertainty
278.15	0.3	0.0173189	0.0007232
278.15	0.5	0.0132888	0.0005538
278.15	0.8	0.0085307	0.0003548
278.15	1	0.0064756	0.000269
278.15	1.2	0.0039855	0.0001654
281.15	0.3	0.0186019	0.0007773
281.15	0.5	0.0146647	0.0006116
281.15	0.8	0.0091474	0.0003805
281.15	1	0.0069976	0.0002908
281.15	1.2	0.004532	0.0001881
285.15	0.3	0.0203075	0.0008494
285.15	0.5	0.0162585	0.0006786
285.15	0.8	0.0105487	0.0004391
285.15	1	0.0076387	0.0003175
285.15	1.2	0.005114	0.0002124
289.15	0.3	0.0212234	0.0008882
289.15	0.5	0.0173749	0.0007256
289.15	0.8	0.0113988	0.0004746
289.15	1	0.0082686	0.0003438
289.15	1.2	0.0057108	0.0002372
293.15	0.3	0.0214195	0.0008965
293.15	0.5	0.0174828	0.0007302
293.15	0.8	0.0118031	0.0004916
293.15	1	0.0085451	0.0003554
293.15	1.2	0.0062155	0.0002582
298.15	0.3	0.0221928	0.0009292
298.15	0.5	0.0185964	0.0007771
298.15	0.8	0.0126106	0.0005254
298.15	1	0.0091081	0.0003789
298.15	1.2	0.0065954	0.000274

System: methanol + water + sodium 5'-O-[({[2-(trimethylammonio)ethoxy]phosphinato}oxy)phosphinato]cytidine; phases: Liquid, Crystal
Fixed: Pressure, kPa = 101
Property: Mole fraction of sodium 5'-O-[({[2-(trimethylammonio)ethoxy]phosphinato}oxy)phosphinato]cytidine (Liquid); method: Chromatography
Temperature, K	Solvent: Volume ratio of component to other component of binary solvent of methanol	Mole fraction of sodium 5'-O-[({[2-(trimethylammonio)ethoxy]phosphinato}oxy)phosphinato]cytidine	uncertainty
278.15	0.3	0.0193067	0.0008073
278.15	0.5	0.016187	0.000676
278.15	0.8	0.012073	0.0005029
278.15	1	0.0091256	0.0003796
278.15	1.2	0.0056565	0.0002349
283.15	0.3	0.0197061	0.0008242
283.15	0.5	0.016959	0.000708
283.15	0.8	0.0125037	0.000521
283.15	1	0.0093616	0.0003895
283.15	1.2	0.0064986	0.00027
288.15	0.3	0.0215984	0.0009043
288.15	0.5	0.018725	0.000783
288.15	0.8	0.0134384	0.0005602
288.15	1	0.010234	0.000426
288.15	1.2	0.007564	0.000314
293.15	0.3	0.0241731	0.001014
293.15	0.5	0.020772	0.000869
293.15	0.8	0.0147251	0.0006142
293.15	1	0.0110142	0.0004586
293.15	1.2	0.008773	0.000365
298.15	0.3	0.0273367	0.001149
298.15	0.5	0.023425	0.000982
298.15	0.8	0.0161161	0.0006727
298.15	1	0.0125845	0.0005244
298.15	1.2	0.010276	0.000428

System: acetone + water + sodium 5'-O-[({[2-(trimethylammonio)ethoxy]phosphinato}oxy)phosphinato]cytidine; phases: Liquid, Crystal
Fixed: Pressure, kPa = 101
Property: Mole fraction of sodium 5'-O-[({[2-(trimethylammonio)ethoxy]phosphinato}oxy)phosphinato]cytidine (Liquid); method: Chromatography
Temperature, K	Solvent: Volume ratio of component to other component of binary solvent of acetone	Mole fraction of sodium 5'-O-[({[2-(trimethylammonio)ethoxy]phosphinato}oxy)phosphinato]cytidine	uncertainty
278.15	0.3	0.0180589	0.0007543
278.15	0.5	0.0158248	0.0006602
278.15	0.8	0.0033057	0.0001372
278.15	1	0.0013366	5.54e-05
278.15	1.2	0.0012829	5.32e-05
283.15	0.3	0.0202513	0.0008468
283.15	0.5	0.0180396	0.0007535
283.15	0.8	0.0045741	0.0001899
283.15	1	0.002056	8.5e-05
283.15	1.2	0.0018381	7.62e-05
288.15	0.3	0.0214565	0.0008978
288.15	0.5	0.0200804	0.0008396
288.15	0.8	0.0062783	0.0002608
288.15	1	0.0031077	0.0001289
288.15	1.2	0.0026126	0.0001084
293.15	0.3	0.0227117	0.000951
293.15	0.5	0.0208889	0.0008738
293.15	0.8	0.0081033	0.0003369
293.15	1	0.0048691	0.0002022
293.15	1.2	0.0038525	0.0001599
298.15	0.3	0.0234547	0.0009825
298.15	0.5	0.0218365	0.0009139
298.15	0.8	0.0102661	0.0004272
298.15	1	0.0077268	0.0003212
298.15	1.2	0.0056882	0.0002362
