Measured thermophysical data. Vapor-Liquid Equilibria of Binary Mixtures Formed by Hexan-1-ol with Chloroethanes and Chloroethenes at 95.6 kPa
Source: J. Chem. Eng. Data, 2010, 10.1021/je9000608
Compound 1: hexan-1-ol, C6H14O, InChI=1S/C6H14O/c1-2-3-4-5-6-7/h7H,2-6H2,1H3
Compound 2: 1,2-dichloroethane, C2H4Cl2, InChI=1S/C2H4Cl2/c3-1-2-4/h1-2H2
Compound 3: 1,1,2,2-tetrachloroethane, C2H2Cl4, InChI=1S/C2H2Cl4/c3-1(4)2(5)6/h1-2H
Compound 4: trichloroethene, C2HCl3, InChI=1S/C2HCl3/c3-1-2(4)5/h1H
Compound 5: tetrachloroethene, C2Cl4, InChI=1S/C2Cl4/c3-1(4)2(5)6

System: hexan-1-ol; phases: Liquid
Property: Refractive index (Na D-line) (Liquid); method: Standard Abbe refractometry
Temperature, K	Pressure, kPa	Refractive index (Na D-line)	uncertainty
298.15	101.325	1.4157	0.0008

System: hexan-1-ol; phases: Liquid
Property: Mass density, kg/m3 (Liquid); method: Pycnometric method
Temperature, K	Pressure, kPa	Mass density, kg/m3	uncertainty
298.15	101.325	815.3	0.8

System: hexan-1-ol; phases: Liquid, Gas
Property: Vapor or sublimation pressure, kPa (Liquid); method: Ebulliometric method (Recirculating still)
Temperature, K	Vapor or sublimation pressure, kPa	uncertainty
428.45	95.6	1

System: 1,2-dichloroethane; phases: Liquid
Property: Refractive index (Na D-line) (Liquid); method: Standard Abbe refractometry
Temperature, K	Pressure, kPa	Refractive index (Na D-line)	uncertainty
293.15	101.325	1.4196	0.0008

System: 1,2-dichloroethane; phases: Liquid
Property: Mass density, kg/m3 (Liquid); method: Pycnometric method
Temperature, K	Pressure, kPa	Mass density, kg/m3	uncertainty
293.15	101.325	1252.9	1.3

System: 1,2-dichloroethane; phases: Liquid, Gas
Property: Vapor or sublimation pressure, kPa (Liquid); method: Ebulliometric method (Recirculating still)
Temperature, K	Vapor or sublimation pressure, kPa	uncertainty
355.15	95.6	1

System: 1,1,2,2-tetrachloroethane; phases: Liquid
Property: Refractive index (Na D-line) (Liquid); method: Standard Abbe refractometry
Temperature, K	Pressure, kPa	Refractive index (Na D-line)	uncertainty
293.15	101.325	1.494	0.0008

System: 1,1,2,2-tetrachloroethane; phases: Liquid
Property: Mass density, kg/m3 (Liquid); method: Pycnometric method
Temperature, K	Pressure, kPa	Mass density, kg/m3	uncertainty
293.15	101.325	1593	1.8

System: 1,1,2,2-tetrachloroethane; phases: Liquid, Gas
Property: Vapor or sublimation pressure, kPa (Liquid); method: Ebulliometric method (Recirculating still)
Temperature, K	Vapor or sublimation pressure, kPa	uncertainty
417.25	95.6	1

System: trichloroethene; phases: Liquid
Property: Refractive index (Na D-line) (Liquid); method: Standard Abbe refractometry
Temperature, K	Pressure, kPa	Refractive index (Na D-line)	uncertainty
303.15	101.325	1.475	0.0008

System: trichloroethene; phases: Liquid
Property: Mass density, kg/m3 (Liquid); method: Pycnometric method
Temperature, K	Pressure, kPa	Mass density, kg/m3	uncertainty
303.15	101.325	1451.3	1.6

System: trichloroethene; phases: Liquid, Gas
Property: Vapor or sublimation pressure, kPa (Liquid); method: Ebulliometric method (Recirculating still)
Temperature, K	Vapor or sublimation pressure, kPa	uncertainty
358.45	95.6	1

System: tetrachloroethene; phases: Liquid
Property: Refractive index (Na D-line) (Liquid); method: Standard Abbe refractometry
Temperature, K	Pressure, kPa	Refractive index (Na D-line)	uncertainty
293.15	101.325	1.5058	0.0008

System: tetrachloroethene; phases: Liquid
Property: Mass density, kg/m3 (Liquid); method: Pycnometric method
Temperature, K	Pressure, kPa	Mass density, kg/m3	uncertainty
293.15	101.325	1623	1.8

System: tetrachloroethene; phases: Liquid, Gas
Property: Vapor or sublimation pressure, kPa (Liquid); method: Ebulliometric method (Recirculating still)
Temperature, K	Vapor or sublimation pressure, kPa	uncertainty
392.15	95.6	1

System: 1,2-dichloroethane + hexan-1-ol; phases: Liquid, Gas
Fixed: Pressure, kPa = 95.6
Property: Boiling temperature at pressure P, K (Liquid); method: Ebulliometric method (Recirculating still)
Mole fraction of 1,2-dichloroethane	Boiling temperature at pressure P, K	uncertainty
0	428.45	0.12
0.0625	414.55	0.12
0.1497	400.25	0.12
0.2122	392.75	0.12
0.2604	388.05	0.12
0.3229	383.05	0.12
0.4132	377.15	0.12
0.4757	373.85	0.12
0.5137	371.95	0.12
0.5762	369.25	0.12
0.6138	367.75	0.12
0.6763	365.45	0.12
0.7406	363.15	0.12
0.8031	361.15	0.12
0.8656	359.25	0.12
0.9345	357.15	0.12
1	355.15	0.12

System: 1,1,2,2-tetrachloroethane + hexan-1-ol; phases: Liquid, Gas
Fixed: Pressure, kPa = 95.6
Property: Boiling temperature at pressure P, K (Liquid); method: Ebulliometric method (Recirculating still)
Mole fraction of 1,1,2,2-tetrachloroethane	Boiling temperature at pressure P, K	uncertainty
0	428.45	0.12
0.0625	425.15	0.12
0.1164	423.95	0.12
0.1792	422.65	0.12
0.2832	421.35	0.12
0.3457	420.75	0.12
0.4082	420.25	0.12
0.5131	419.65	0.12
0.5756	419.15	0.12
0.6381	418.85	0.12
0.7006	418.55	0.12
0.7631	418.25	0.12
0.8256	417.95	0.12
0.8881	417.65	0.12
0.9131	417.55	0.12
1	417.25	0.12

System: trichloroethene + hexan-1-ol; phases: Liquid, Gas
Fixed: Pressure, kPa = 95.6
Property: Boiling temperature at pressure P, K (Liquid); method: Ebulliometric method (Recirculating still)
Mole fraction of trichloroethene	Boiling temperature at pressure P, K	uncertainty
0	428.45	0.12
0.0625	419.35	0.12
0.1343	410.25	0.12
0.1968	403.55	0.12
0.2368	399.95	0.12
0.2993	393.95	0.12
0.3829	387.45	0.12
0.4454	383.25	0.12
0.5206	378.65	0.12
0.5831	375.25	0.12
0.6768	370.65	0.12
0.7393	367.85	0.12
0.8072	365.15	0.12
0.8697	362.75	0.12
0.9262	360.85	0.12
1	358.45	0.12

System: hexan-1-ol + tetrachloroethene; phases: Liquid, Gas
Fixed: Pressure, kPa = 95.6
Property: Boiling temperature at pressure P, K (Liquid); method: Ebulliometric method (Recirculating still)
Mole fraction of tetrachloroethene	Boiling temperature at pressure P, K	uncertainty
0	428.45	0.12
0.0625	422.05	0.12
0.1198	417.75	0.12
0.1823	414.25	0.12
0.29	409.65	0.12
0.3525	407.45	0.12
0.4051	405.85	0.12
0.4676	404.85	0.12
0.5214	402.75	0.12
0.5839	401.15	0.12
0.6476	399.65	0.12
0.7101	398.25	0.12
0.7861	396.65	0.12
0.8351	395.55	0.12
0.9168	393.85	0.12
1	392.15	0.12
