Measured thermophysical data. Thermal Properties of Alkali Bis(fluorosulfonyl)amides and Their Binary Mixtures
Source: J. Chem. Eng. Data, 2010, 10.1021/je9010932
Compound 1: lithium bis(fluorosulfonyl)imide, F2LiNO4S2, InChI=1S/F2NO4S2.Li/c1-8(4,5)3-9(2,6)7;/q-1;+1
Compound 2: sodium bis(fluorosulfonyl)amide, F2NNaO4S2, InChI=1S/F2NO4S2.Na/c1-8(4,5)3-9(2,6)7;/q-1;+1
Compound 3: potassium bis(fluorosulfonyl)amide, F2KNO4S2, InChI=1S/F2NO4S2.K/c1-8(4,5)3-9(2,6)7;/q-1;+1
Compound 4: rubidium bis(fluorosulfonyl)amide, F2NO4RbS2, InChI=1S/F2NO4S2.Rb/c1-8(4,5)3-9(2,6)7;/q-1;+1
Compound 5: cesium bis(fluorosulfonyl)amide, CsF2NO4S2, InChI=1S/Cs.F2NO4S2/c;1-8(4,5)3-9(2,6)7/q+1;-1

System: lithium bis(fluorosulfonyl)imide; phases: Crystal, Liquid, Air at 1 atmosphere
Property: Normal melting temperature, K (Crystal); method: DTA
Normal melting temperature, K	uncertainty
403	4

System: sodium bis(fluorosulfonyl)amide; phases: Crystal, Liquid, Air at 1 atmosphere
Property: Normal melting temperature, K (Crystal); method: DTA
Normal melting temperature, K	uncertainty
379	4

System: potassium bis(fluorosulfonyl)amide; phases: Crystal, Liquid, Air at 1 atmosphere
Property: Normal melting temperature, K (Crystal); method: DTA
Normal melting temperature, K	uncertainty
375	4

System: rubidium bis(fluorosulfonyl)amide; phases: Crystal, Liquid, Air at 1 atmosphere
Property: Normal melting temperature, K (Crystal); method: DTA
Normal melting temperature, K	uncertainty
368	4

System: cesium bis(fluorosulfonyl)amide; phases: Crystal, Liquid, Air at 1 atmosphere
Property: Normal melting temperature, K (Crystal); method: DTA
Normal melting temperature, K	uncertainty
386	4

System: sodium bis(fluorosulfonyl)amide + lithium bis(fluorosulfonyl)imide; phases: Liquid, Crystal, Crystal, Air at 1 atmosphere
Property: Eutectic temperature, K (Liquid); method: DTA:
Eutectic temperature, K	uncertainty
349	4

System: sodium bis(fluorosulfonyl)amide + lithium bis(fluorosulfonyl)imide; phases: Liquid, Crystal, Crystal, Air at 1 atmosphere
Property: Eutectic composition: mole fraction of sodium bis(fluorosulfonyl)amide (Liquid); method: Derived from phase diagram analysis
Eutectic composition: mole fraction of sodium bis(fluorosulfonyl)amide	uncertainty
0.598	0.02

System: sodium bis(fluorosulfonyl)amide + lithium bis(fluorosulfonyl)imide; phases: Liquid, Crystal
Fixed: Pressure, kPa = 101
Property: Solid-liquid equilibrium temperature, K (Liquid); method: DTA
Mole fraction of sodium bis(fluorosulfonyl)amide	Solid-liquid equilibrium temperature, K	uncertainty
0	403	4
0.1	397	4
0.2	389	4
0.3	380	4
0.4	370	5
0.5	359	5

System: sodium bis(fluorosulfonyl)amide + lithium bis(fluorosulfonyl)imide; phases: Liquid, Crystal
Fixed: Pressure, kPa = 101
Property: Solid-liquid equilibrium temperature, K (Liquid); method: DTA
Mole fraction of sodium bis(fluorosulfonyl)amide	Solid-liquid equilibrium temperature, K	uncertainty
0.6	353	4
0.7	362	4
0.8	366	4
0.9	375	4
1	379	4

System: potassium bis(fluorosulfonyl)amide + lithium bis(fluorosulfonyl)imide; phases: Liquid, Crystal, Crystal, Air at 1 atmosphere
Property: Eutectic temperature, K (Liquid); method: DTA:
Eutectic temperature, K	uncertainty
341	4

System: potassium bis(fluorosulfonyl)amide + lithium bis(fluorosulfonyl)imide; phases: Liquid, Crystal, Crystal, Air at 1 atmosphere
Property: Eutectic composition: mole fraction of potassium bis(fluorosulfonyl)amide (Liquid); method: Derived from phase diagram analysis
Eutectic composition: mole fraction of potassium bis(fluorosulfonyl)amide	uncertainty
0.589	0.02

System: potassium bis(fluorosulfonyl)amide + lithium bis(fluorosulfonyl)imide; phases: Liquid, Crystal
Fixed: Pressure, kPa = 101
Property: Solid-liquid equilibrium temperature, K (Liquid); method: DTA
Mole fraction of potassium bis(fluorosulfonyl)amide	Solid-liquid equilibrium temperature, K	uncertainty
0	403	4
0.1	398	4
0.2	388	5
0.3	372	5
0.4	366	4
0.5	354	5

System: potassium bis(fluorosulfonyl)amide + lithium bis(fluorosulfonyl)imide; phases: Liquid, Crystal
Fixed: Pressure, kPa = 101
Property: Solid-liquid equilibrium temperature, K (Liquid); method: DTA
Mole fraction of potassium bis(fluorosulfonyl)amide	Solid-liquid equilibrium temperature, K	uncertainty
0.6	347	4
0.7	349	4
0.8	358	4
0.9	363	4
1	375	4

System: rubidium bis(fluorosulfonyl)amide + lithium bis(fluorosulfonyl)imide; phases: Liquid, Crystal, Crystal, Air at 1 atmosphere
Property: Eutectic temperature, K (Liquid); method: DTA:
Eutectic temperature, K	uncertainty
337	4

System: rubidium bis(fluorosulfonyl)amide + lithium bis(fluorosulfonyl)imide; phases: Liquid, Crystal, Crystal, Air at 1 atmosphere
Property: Eutectic composition: mole fraction of rubidium bis(fluorosulfonyl)amide (Liquid); method: Derived from phase diagram analysis
Eutectic composition: mole fraction of rubidium bis(fluorosulfonyl)amide	uncertainty
0.619	0.02

System: rubidium bis(fluorosulfonyl)amide + lithium bis(fluorosulfonyl)imide; phases: Liquid, Crystal
Fixed: Pressure, kPa = 101
Property: Solid-liquid equilibrium temperature, K (Liquid); method: DTA
Mole fraction of rubidium bis(fluorosulfonyl)amide	Solid-liquid equilibrium temperature, K	uncertainty
0	403	4
0.1	395	4
0.2	390	4
0.3	378	5
0.4	365	5
0.5	352	5
0.6	342	5

System: rubidium bis(fluorosulfonyl)amide + lithium bis(fluorosulfonyl)imide; phases: Liquid, Crystal
Fixed: Pressure, kPa = 101
Property: Solid-liquid equilibrium temperature, K (Liquid); method: DTA
Mole fraction of rubidium bis(fluorosulfonyl)amide	Solid-liquid equilibrium temperature, K	uncertainty
0.7	342	5
0.8	352	4
0.9	358	4
1	368	4

System: cesium bis(fluorosulfonyl)amide + lithium bis(fluorosulfonyl)imide; phases: Liquid, Crystal, Crystal, Air at 1 atmosphere
Property: Eutectic temperature, K (Liquid); method: DTA:
Eutectic temperature, K	uncertainty
335	4

System: cesium bis(fluorosulfonyl)amide + lithium bis(fluorosulfonyl)imide; phases: Liquid, Crystal, Crystal, Air at 1 atmosphere
Property: Eutectic composition: mole fraction of cesium bis(fluorosulfonyl)amide (Liquid); method: Derived from phase diagram analysis
Eutectic composition: mole fraction of cesium bis(fluorosulfonyl)amide	uncertainty
0.534	0.02

System: cesium bis(fluorosulfonyl)amide + lithium bis(fluorosulfonyl)imide; phases: Liquid, Crystal
Fixed: Pressure, kPa = 101
Property: Solid-liquid equilibrium temperature, K (Liquid); method: DTA
Mole fraction of cesium bis(fluorosulfonyl)amide	Solid-liquid equilibrium temperature, K	uncertainty
0	403	4
0.1	396	4
0.2	387	5
0.3	374	5
0.4	363	5
0.5	347	5

System: cesium bis(fluorosulfonyl)amide + lithium bis(fluorosulfonyl)imide; phases: Liquid, Crystal
Fixed: Pressure, kPa = 101
Property: Solid-liquid equilibrium temperature, K (Liquid); method: DTA
Mole fraction of cesium bis(fluorosulfonyl)amide	Solid-liquid equilibrium temperature, K	uncertainty
0.6	345	5
0.7	362	5
0.8	372	4
0.9	374	4
1	386	4

System: potassium bis(fluorosulfonyl)amide + sodium bis(fluorosulfonyl)amide; phases: Liquid, Crystal, Crystal, Air at 1 atmosphere
Property: Eutectic temperature, K (Liquid); method: DTA
Eutectic temperature, K	uncertainty
334	4

System: potassium bis(fluorosulfonyl)amide + sodium bis(fluorosulfonyl)amide; phases: Liquid, Crystal, Crystal, Air at 1 atmosphere
Property: Eutectic composition: mole fraction of potassium bis(fluorosulfonyl)amide (Liquid); method: Derived from phase diagram analysis
Eutectic composition: mole fraction of potassium bis(fluorosulfonyl)amide	uncertainty
0.438	0.02

System: potassium bis(fluorosulfonyl)amide + sodium bis(fluorosulfonyl)amide; phases: Liquid, Crystal
Fixed: Pressure, kPa = 101
Property: Solid-liquid equilibrium temperature, K (Liquid); method: DTA
Mole fraction of potassium bis(fluorosulfonyl)amide	Solid-liquid equilibrium temperature, K	uncertainty
0	379	4
0.1	376	4
0.2	372	4
0.3	363	5
0.4	336	7

System: potassium bis(fluorosulfonyl)amide + sodium bis(fluorosulfonyl)amide; phases: Liquid, Crystal
Fixed: Pressure, kPa = 101
Property: Solid-liquid equilibrium temperature, K (Liquid); method: DTA
Mole fraction of potassium bis(fluorosulfonyl)amide	Solid-liquid equilibrium temperature, K	uncertainty
0.5	340	5
0.6	351	4
0.7	359	4
0.8	365	4
0.9	371	4
1	375	4

System: rubidium bis(fluorosulfonyl)amide + sodium bis(fluorosulfonyl)amide; phases: Liquid, Crystal, Crystal, Air at 1 atmosphere
Property: Eutectic temperature, K (Liquid); method: DTA
Eutectic temperature, K	uncertainty
328	4

System: rubidium bis(fluorosulfonyl)amide + sodium bis(fluorosulfonyl)amide; phases: Liquid, Crystal, Crystal, Air at 1 atmosphere
Property: Eutectic composition: mole fraction of rubidium bis(fluorosulfonyl)amide (Liquid); method: Derived from phase diagram analysis
Eutectic composition: mole fraction of rubidium bis(fluorosulfonyl)amide	uncertainty
0.497	0.02

System: rubidium bis(fluorosulfonyl)amide + sodium bis(fluorosulfonyl)amide; phases: Liquid, Crystal
Fixed: Pressure, kPa = 101
Property: Solid-liquid equilibrium temperature, K (Liquid); method: DTA
Mole fraction of rubidium bis(fluorosulfonyl)amide	Solid-liquid equilibrium temperature, K	uncertainty
0	379	4
0.1	372	4
0.2	361	4
0.3	353	5
0.4	338	5

System: rubidium bis(fluorosulfonyl)amide + sodium bis(fluorosulfonyl)amide; phases: Liquid, Crystal
Fixed: Pressure, kPa = 101
Property: Solid-liquid equilibrium temperature, K (Liquid); method: DTA
Mole fraction of rubidium bis(fluorosulfonyl)amide	Solid-liquid equilibrium temperature, K	uncertainty
0.5	330	5
0.6	347	5
0.7	353	4
0.8	359	4
0.9	365	4
1	368	4

System: cesium bis(fluorosulfonyl)amide + sodium bis(fluorosulfonyl)amide; phases: Liquid, Crystal, Crystal, Air at 1 atmosphere
Property: Eutectic temperature, K (Liquid); method: DTA
Eutectic temperature, K	uncertainty
325	4

System: cesium bis(fluorosulfonyl)amide + sodium bis(fluorosulfonyl)amide; phases: Liquid, Crystal, Crystal, Air at 1 atmosphere
Property: Eutectic composition: mole fraction of cesium bis(fluorosulfonyl)amide (Liquid); method: Derived from phase diagram analysis
Eutectic composition: mole fraction of cesium bis(fluorosulfonyl)amide	uncertainty
0.53	0.02

System: cesium bis(fluorosulfonyl)amide + sodium bis(fluorosulfonyl)amide; phases: Liquid, Crystal
Fixed: Pressure, kPa = 101
Property: Solid-liquid equilibrium temperature, K (Liquid); method: DTA
Mole fraction of cesium bis(fluorosulfonyl)amide	Solid-liquid equilibrium temperature, K	uncertainty
0	379	4
0.1	374	4
0.2	363	4
0.3	359	4
0.4	346	5
0.5	327	6

System: cesium bis(fluorosulfonyl)amide + sodium bis(fluorosulfonyl)amide; phases: Liquid, Crystal
Fixed: Pressure, kPa = 101
Property: Solid-liquid equilibrium temperature, K (Liquid); method: DTA
Mole fraction of cesium bis(fluorosulfonyl)amide	Solid-liquid equilibrium temperature, K	uncertainty
0.6	359	4
0.7	368	4
0.8	374	4
0.9	381	4
1	386	4

System: potassium bis(fluorosulfonyl)amide + rubidium bis(fluorosulfonyl)amide; phases: Liquid, Crystal, Crystal, Air at 1 atmosphere
Property: Eutectic temperature, K (Liquid); method: DTA
Eutectic temperature, K	uncertainty
354	4

System: potassium bis(fluorosulfonyl)amide + rubidium bis(fluorosulfonyl)amide; phases: Liquid, Crystal, Crystal, Air at 1 atmosphere
Property: Eutectic composition: mole fraction of rubidium bis(fluorosulfonyl)amide (Liquid); method: Derived from phase diagram analysis
Eutectic composition: mole fraction of rubidium bis(fluorosulfonyl)amide	uncertainty
0.693	0.02

System: potassium bis(fluorosulfonyl)amide + rubidium bis(fluorosulfonyl)amide; phases: Liquid, Crystal
Fixed: Pressure, kPa = 101
Property: Solid-liquid equilibrium temperature, K (Liquid); method: DTA
Mole fraction of rubidium bis(fluorosulfonyl)amide	Solid-liquid equilibrium temperature, K	uncertainty
0	375	4
0.1	373	4
0.2	371	4
0.3	365	4
0.4	363	4
0.5	360	4
0.6	356	4

System: potassium bis(fluorosulfonyl)amide + rubidium bis(fluorosulfonyl)amide; phases: Liquid, Crystal
Fixed: Pressure, kPa = 101
Property: Solid-liquid equilibrium temperature, K (Liquid); method: DTA
Mole fraction of rubidium bis(fluorosulfonyl)amide	Solid-liquid equilibrium temperature, K	uncertainty
0.7	356	4
0.8	360	4
0.9	365	4
1	368	4

System: potassium bis(fluorosulfonyl)amide + cesium bis(fluorosulfonyl)amide; phases: Liquid, Crystal, Crystal, Air at 1 atmosphere
Property: Eutectic temperature, K (Liquid); method: DTA
Eutectic temperature, K	uncertainty
336	4

System: potassium bis(fluorosulfonyl)amide + cesium bis(fluorosulfonyl)amide; phases: Liquid, Crystal, Crystal, Air at 1 atmosphere
Property: Eutectic composition: mole fraction of cesium bis(fluorosulfonyl)amide (Liquid); method: Derived from phase diagram analysis
Eutectic composition: mole fraction of cesium bis(fluorosulfonyl)amide	uncertainty
0.458	0.02

System: potassium bis(fluorosulfonyl)amide + cesium bis(fluorosulfonyl)amide; phases: Liquid, Crystal
Fixed: Pressure, kPa = 101
Property: Solid-liquid equilibrium temperature, K (Liquid); method: DTA
Mole fraction of cesium bis(fluorosulfonyl)amide	Solid-liquid equilibrium temperature, K	uncertainty
0	375	4
0.1	370	4
0.2	361	4
0.3	356	4
0.4	348	4

System: potassium bis(fluorosulfonyl)amide + cesium bis(fluorosulfonyl)amide; phases: Liquid, Crystal
Fixed: Pressure, kPa = 101
Property: Solid-liquid equilibrium temperature, K (Liquid); method: DTA
Mole fraction of cesium bis(fluorosulfonyl)amide	Solid-liquid equilibrium temperature, K	uncertainty
0.5	340	6
0.6	359	5
0.7	369	4
0.8	378	4
0.9	382	4
1	386	4

System: rubidium bis(fluorosulfonyl)amide + cesium bis(fluorosulfonyl)amide; phases: Liquid, Crystal, Crystal, Air at 1 atmosphere
Property: Eutectic temperature, K (Liquid); method: DTA
Eutectic temperature, K	uncertainty
360	4

System: rubidium bis(fluorosulfonyl)amide + cesium bis(fluorosulfonyl)amide; phases: Liquid, Crystal, Crystal, Air at 1 atmosphere
Property: Eutectic composition: mole fraction of cesium bis(fluorosulfonyl)amide (Liquid); method: Derived from phase diagram analysis
Eutectic composition: mole fraction of cesium bis(fluorosulfonyl)amide	uncertainty
0.345	0.02

System: rubidium bis(fluorosulfonyl)amide + cesium bis(fluorosulfonyl)amide; phases: Liquid, Crystal
Fixed: Pressure, kPa = 101
Property: Solid-liquid equilibrium temperature, K (Liquid); method: DTA
Mole fraction of cesium bis(fluorosulfonyl)amide	Solid-liquid equilibrium temperature, K	uncertainty
0	368	4
0.1	366	4
0.2	363	4
0.3	361	4

System: rubidium bis(fluorosulfonyl)amide + cesium bis(fluorosulfonyl)amide; phases: Liquid, Crystal
Fixed: Pressure, kPa = 101
Property: Solid-liquid equilibrium temperature, K (Liquid); method: DTA
Mole fraction of cesium bis(fluorosulfonyl)amide	Solid-liquid equilibrium temperature, K	uncertainty
0.4	361	4
0.5	363	4
0.6	365	4
0.7	371	4
0.8	378	4
0.9	382	4
1	386	4
