Measured thermophysical data. Refractive Indices of Sodium, Potassium, and Ammonium Sulfates in Ethanol-Water Solutions
Source: J. Chem. Eng. Data, 2010, 10.1021/je9010129
Compound 1: water, H2O, InChI=1S/H2O/h1H2
Compound 2: ethanol, C2H6O, InChI=1S/C2H6O/c1-2-3/h3H,2H2,1H3
Compound 3: sodium sulfate, Na2O4S, InChI=1S/2Na.H2O4S/c;;1-5(2,3)4/h;;(H2,1,2,3,4)/q2*+1;/p-2, purity 99%
Compound 4: ammonium sulfate, H8N2O4S, InChI=1S/2H3N.H2O4S/c;;1-5(2,3)4/h2*1H3;(H2,1,2,3,4), purity 99%
Compound 5: potassium sulfate, K2O4S, InChI=1S/2K.H2O4S/c;;1-5(2,3)4/h;;(H2,1,2,3,4)/q2*+1;/p-2, purity 99%

System: water + potassium sulfate; phases: Liquid
Fixed: Pressure, kPa = 101
Property: Refractive index (Na D-line) (Liquid); method: Standard Abbe refractometry
Temperature, K	Molality, mol/kg of potassium sulfate	Refractive index (Na D-line)	uncertainty
288.15	0	1.33339	0.00031
288.15	0.0456	1.33447	0.00031
288.15	0.1387	1.33636	0.00031
288.15	0.2502	1.33866	0.00031
288.15	0.3409	1.34035	0.00031
288.15	0.4174	1.34183	0.00031
288.15	0.503	1.3433	0.00031
288.15	0.5093	1.34341	0.00031
288.15	0.5703	1.34451	0.00031
298.15	0	1.33248	0.00031
298.15	0.0456	1.33359	0.00031
298.15	0.1387	1.33552	0.00031
298.15	0.2502	1.33771	0.00031
298.15	0.3409	1.33945	0.00031
298.15	0.4174	1.34071	0.00031
298.15	0.503	1.34227	0.00031
298.15	0.5093	1.3423	0.00031
298.15	0.5703	1.34337	0.00031
298.15	0.6509	1.34476	0.00031
308.15	0	1.33128	0.00031
308.15	0.0456	1.33228	0.00031
308.15	0.1387	1.33411	0.00031
308.15	0.2502	1.33625	0.00031
308.15	0.3409	1.33786	0.00031
308.15	0.4174	1.33927	0.00031
308.15	0.503	1.34077	0.00031
308.15	0.5093	1.34084	0.00031
308.15	0.5703	1.34186	0.00031
308.15	0.6509	1.34324	0.00031
308.15	0.7435	1.34478	0.00031
318.15	0	1.32979	0.00031
318.15	0.0456	1.33072	0.00031
318.15	0.1387	1.33251	0.00031
318.15	0.2502	1.33466	0.00031
318.15	0.3409	1.33626	0.00031
318.15	0.4174	1.33763	0.00031
318.15	0.503	1.33906	0.00031
318.15	0.5093	1.3392	0.00031
318.15	0.5703	1.34022	0.00031
318.15	0.6509	1.34151	0.00031
318.15	0.7435	1.34301	0.00031
318.15	0.8106	1.34404	0.00031
318.15	0.8605	1.34488	0.00031
318.15	0.9049	1.34557	0.00031

System: water + sodium sulfate; phases: Liquid
Fixed: Pressure, kPa = 101
Property: Refractive index (Na D-line) (Liquid); method: Standard Abbe refractometry
Temperature, K	Molality, mol/kg of sodium sulfate	Refractive index (Na D-line)	uncertainty
288.15	0	1.33339	0.00031
288.15	0.1002	1.33566	0.00031
288.15	0.1938	1.33757	0.00031
288.15	0.477	1.34311	0.00031
288.15	0.7055	1.34719	0.00031
288.15	0.8578	1.34983	0.00031
298.15	0	1.33248	0.00031
298.15	0.1002	1.33473	0.00031
298.15	0.1938	1.33653	0.00031
298.15	0.477	1.34187	0.00031
298.15	0.7055	1.34585	0.00031
298.15	0.8578	1.34855	0.00031
298.15	0.9866	1.35058	0.00031
298.15	1.2058	1.35377	0.00031
298.15	1.5898	1.35915	0.00031
298.15	1.7271	1.36096	0.00031
308.15	0	1.33128	0.00031
308.15	0.1002	1.33342	0.00031
308.15	0.1938	1.33518	0.00031
308.15	0.477	1.34052	0.00031
308.15	0.7055	1.34434	0.00031
308.15	0.8578	1.34695	0.00031
308.15	0.9866	1.34904	0.00031
308.15	1.2058	1.3522	0.00031
308.15	1.5898	1.35746	0.00031
308.15	1.7271	1.35931	0.00031
308.15	1.992	1.36271	0.00031
308.15	2.2368	1.36573	0.00031
308.15	2.5324	1.36884	0.00031
308.15	2.6806	1.37046	0.00032
308.15	2.8046	1.37172	0.00032
308.15	3.0534	1.37411	0.00032
308.15	3.2188	1.37569	0.00032
308.15	3.3051	1.37649	0.00032
308.15	3.423	1.37756	0.00032
318.15	0	1.32979	0.00031
318.15	0.1002	1.33185	0.00031
318.15	0.1938	1.33378	0.00031
318.15	0.477	1.33896	0.00031
318.15	0.7055	1.34278	0.00031
318.15	0.8578	1.34531	0.00031
318.15	0.9866	1.34742	0.00031
318.15	1.2058	1.35057	0.00031
318.15	1.5898	1.35598	0.00031
318.15	1.7271	1.35778	0.00031
318.15	1.992	1.36102	0.00031
318.15	2.2368	1.36396	0.00031
318.15	2.5324	1.36711	0.00031
318.15	2.6806	1.36857	0.00032
318.15	2.8046	1.36992	0.00032
318.15	3.0534	1.37246	0.00032
318.15	3.2188	1.37386	0.00032
318.15	3.3051	1.3747	0.00032

System: water + ammonium sulfate; phases: Liquid
Fixed: Pressure, kPa = 101
Property: Refractive index (Na D-line) (Liquid); method: Standard Abbe refractometry
Temperature, K	Molality, mol/kg of ammonium sulfate	Refractive index (Na D-line)	uncertainty
288.15	0	1.33339	0.00031
288.15	0.2725	1.33934	0.00031
288.15	0.3995	1.34174	0.00031
288.15	0.4876	1.34348	0.00031
288.15	0.8025	1.34905	0.00031
288.15	1.1984	1.35554	0.00031
288.15	1.6036	1.3614	0.00031
288.15	1.9924	1.36659	0.00031
288.15	2.3812	1.37134	0.00031
288.15	2.8008	1.37588	0.00032
288.15	3.1997	1.38006	0.00032
288.15	3.6186	1.38383	0.00032
288.15	3.9973	1.38708	0.00032
288.15	4.3955	1.39018	0.00032
288.15	4.7625	1.39286	0.00032
288.15	5.1808	1.3957	0.00032
288.15	5.6	1.39836	0.00032
298.15	0	1.33248	0.00031
298.15	0.2725	1.33813	0.00031
298.15	0.3995	1.3408	0.00031
298.15	0.4876	1.34227	0.00031
298.15	0.8025	1.34798	0.00031
298.15	1.1984	1.35434	0.00031
298.15	1.6036	1.36025	0.00031
298.15	1.9924	1.36535	0.00031
298.15	2.3812	1.37008	0.00031
298.15	2.8008	1.37472	0.00032
298.15	3.1997	1.37873	0.00032
298.15	3.6186	1.38259	0.00032
298.15	3.9973	1.38596	0.00032
298.15	4.3955	1.38897	0.00032
298.15	4.7625	1.3917	0.00032
298.15	5.1808	1.39451	0.00032
298.15	5.6	1.39715	0.00032
308.15	0	1.33128	0.00031
308.15	0.2725	1.33696	0.00031
308.15	0.3995	1.33941	0.00031
308.15	0.4876	1.34098	0.00031
308.15	0.8025	1.3467	0.00031
308.15	1.1984	1.353	0.00031
308.15	1.6036	1.35888	0.00031
308.15	1.9924	1.36402	0.00031
308.15	2.3812	1.36878	0.00031
308.15	2.8008	1.37338	0.00032
308.15	3.1997	1.37738	0.00032
308.15	3.6186	1.38126	0.00032
308.15	3.9973	1.38446	0.00032
308.15	4.3955	1.3876	0.00032
308.15	4.7625	1.39031	0.00032
308.15	5.1808	1.3932	0.00032
308.15	5.6	1.39584	0.00032
308.15	5.876	1.3975	0.00032
318.15	0	1.32979	0.00031
318.15	0.2725	1.33544	0.00031
318.15	0.3995	1.33806	0.00031
318.15	0.4876	1.33956	0.00031
318.15	0.8025	1.34521	0.00031
318.15	1.1984	1.35156	0.00031
318.15	1.6036	1.3574	0.00031
318.15	1.9924	1.36252	0.00031
318.15	2.3812	1.36733	0.00031
318.15	2.8008	1.37211	0.00032
318.15	3.1997	1.37611	0.00032
318.15	3.6186	1.38009	0.00032
318.15	3.9973	1.38325	0.00032
318.15	4.3955	1.38647	0.00032
318.15	4.7625	1.38922	0.00032
318.15	5.1808	1.39197	0.00032
318.15	5.6	1.39461	0.00032
318.15	5.876	1.39618	0.00032
318.15	6.3279	1.3983	0.00032

System: ethanol + water + sodium sulfate; phases: Liquid
Fixed: Pressure, kPa = 101
Property: Refractive index (Na D-line) (Liquid); method: Standard Abbe refractometry
Temperature, K	Solvent: Mass fraction of ethanol	Molality, mol/kg of sodium sulfate	Refractive index (Na D-line)	uncertainty
288.15	0.02361	0.6928	1.3484	0.00033
288.15	0.02432	0.35	1.3422	0.00033
288.15	0.03065	0.1618	1.33871	0.00033
288.15	0.04871	0.7237	1.3503	0.00033
288.15	0.05212	0.3574	1.34409	0.00033
288.15	0.05577	0.1369	1.33998	0.00033
288.15	0.07492	0.203	1.34266	0.00033
288.15	0.07748	0.4978	1.34835	0.00033
288.15	0.08155	0.0472	1.33993	0.00033
288.15	0.09978	0.4975	1.34981	0.00033
288.15	0.10118	0.2508	1.34545	0.00033
288.15	0.10516	0.0966	1.34262	0.00033
288.15	0.12406	0.5187	1.35179	0.00033
288.15	0.12518	0.2618	1.34736	0.00033
288.15	0.12677	0.0897	1.34416	0.00033
288.15	0.13925	0.3851	1.3506	0.00033
288.15	0.14559	0.1912	1.34755	0.00033
288.15	0.15368	0.0726	1.34586	0.00033
288.15	0.16805	0.3137	1.35138	0.00033
288.15	0.17421	0.071	1.34744	0.00033
288.15	0.19889	0.2111	1.35178	0.00033
288.15	0.20093	0.0594	1.34921	0.00033
288.15	0.22414	0.0805	1.35136	0.00033
288.15	0.24373	0.1792	1.3542	0.00033
288.15	0.24878	0.0692	1.35276	0.00033
288.15	0.27012	0.1494	1.35557	0.00033
288.15	0.27624	0.0589	1.35445	0.00033
288.15	0.30056	0.0996	1.35656	0.00033
288.15	0.30233	0.0489	1.35591	0.00033
298.15	0.02361	0.6928	1.347	0.00033
298.15	0.02432	0.35	1.34097	0.00033
298.15	0.02524	1.1157	1.35376	0.00033
298.15	0.02525	1.7907	1.36302	0.00033
298.15	0.02897	1.5051	1.35948	0.00033
298.15	0.03065	0.1618	1.33778	0.00033
298.15	0.04871	0.7237	1.34895	0.00033
298.15	0.05086	1.0873	1.35469	0.00033
298.15	0.05139	1.4371	1.35969	0.00033
298.15	0.05212	0.3574	1.34277	0.00033
298.15	0.05577	0.1369	1.33888	0.00033
298.15	0.07077	0.8124	1.35154	0.00033
298.15	0.07462	1.4602	1.3612	0.00033
298.15	0.07492	0.203	1.3414	0.00033
298.15	0.07543	1.1	1.35622	0.00033
298.15	0.07748	0.4978	1.3469	0.00033
298.15	0.08155	0.0472	1.33892	0.00033
298.15	0.09978	0.4975	1.34835	0.00033
298.15	0.10036	1.0972	1.35756	0.00033
298.15	0.10118	0.2508	1.34409	0.00033
298.15	0.10146	0.7454	1.35241	0.00033
298.15	0.10516	0.0966	1.3414	0.00034
298.15	0.12406	0.5187	1.35019	0.00033
298.15	0.12459	0.7762	1.35426	0.00033
298.15	0.12518	0.2618	1.34586	0.00033
298.15	0.12677	0.0897	1.34292	0.00033
298.15	0.13925	0.3851	1.34904	0.00033
298.15	0.14559	0.1912	1.34603	0.00033
298.15	0.14587	0.5693	1.35238	0.00033
298.15	0.1466	0.7677	1.35547	0.00033
298.15	0.15368	0.0726	1.34451	0.00033
298.15	0.16805	0.3137	1.34959	0.00033
298.15	0.1708	0.6154	1.35463	0.00033
298.15	0.17421	0.071	1.34575	0.00033
298.15	0.19844	0.4213	1.35328	0.00033
298.15	0.19889	0.2111	1.34991	0.00033
298.15	0.20093	0.0594	1.34732	0.00033
298.15	0.22414	0.0805	1.34935	0.00033
298.15	0.22507	0.4476	1.3553	0.00033
298.15	0.2263	0.2475	1.35226	0.00033
298.15	0.24151	0.3549	1.35473	0.00033
298.15	0.24373	0.1792	1.3522	0.00033
298.15	0.24878	0.0692	1.35068	0.00033
298.15	0.27012	0.1494	1.35322	0.00033
298.15	0.27505	0.3238	1.35601	0.00033
298.15	0.27624	0.0589	1.35203	0.00033
298.15	0.29836	0.2012	1.35553	0.00033
298.15	0.30056	0.0996	1.35409	0.00033
298.15	0.30233	0.0489	1.35336	0.00033
308.15	0.02361	0.6928	1.34536	0.00033
308.15	0.02432	0.35	1.3396	0.00033
308.15	0.02492	2.0836	1.36479	0.00033
308.15	0.02524	1.1157	1.35201	0.00033
308.15	0.02525	1.7907	1.36134	0.00033
308.15	0.02539	2.4329	1.36881	0.00033
308.15	0.02544	2.7821	1.37256	0.00033
308.15	0.02897	1.5051	1.35781	0.00033
308.15	0.03065	0.1618	1.3364	0.00033
308.15	0.04815	2.0978	1.36602	0.00033
308.15	0.04871	0.7237	1.34733	0.00033
308.15	0.04912	1.8016	1.3625	0.00033
308.15	0.05058	2.4033	1.36956	0.00033
308.15	0.05086	1.0873	1.35298	0.00033
308.15	0.05139	1.4371	1.35792	0.00033
308.15	0.05212	0.3574	1.34132	0.00033
308.15	0.05577	0.1369	1.33753	0.00033
308.15	0.07077	0.8124	1.34989	0.00033
308.15	0.07342	1.7824	1.3633	0.00033
308.15	0.07462	1.4602	1.35924	0.00033
308.15	0.07492	0.203	1.33992	0.00033
308.15	0.07543	1.1	1.35442	0.00033
308.15	0.07553	2.0915	1.36703	0.00033
308.15	0.07748	0.4978	1.34525	0.00033
308.15	0.08155	0.0472	1.33741	0.00033
308.15	0.09786	1.6397	1.36277	0.00033
308.15	0.09978	0.4975	1.34666	0.00033
308.15	0.09994	1.3884	1.35969	0.00033
308.15	0.10036	1.0972	1.35578	0.00033
308.15	0.10118	0.2508	1.34243	0.00033
308.15	0.10146	0.7454	1.35066	0.00033
308.15	0.10516	0.0966	1.33993	0.00033
308.15	0.11842	1.4761	1.3617	0.00033
308.15	0.11916	1.3052	1.35942	0.00033
308.15	0.12406	0.5187	1.34852	0.00033
308.15	0.12429	1.0396	1.3561	0.00033
308.15	0.12459	0.7762	1.35246	0.00033
308.15	0.12518	0.2618	1.34424	0.00033
308.15	0.12677	0.0897	1.34117	0.00033
308.15	0.13925	0.3851	1.3472	0.00033
308.15	0.14559	0.1912	1.34423	0.00033
308.15	0.14577	0.9532	1.3561	0.00033
308.15	0.14587	0.5693	1.35045	0.00033
308.15	0.14602	1.2485	1.35992	0.00033
308.15	0.1466	0.7677	1.35348	0.00033
308.15	0.15368	0.0726	1.34262	0.00033
308.15	0.16805	0.3137	1.34765	0.00033
308.15	0.1705	0.9295	1.35698	0.00033
308.15	0.1708	0.6154	1.35245	0.00033
308.15	0.17421	0.071	1.34386	0.00033
308.15	0.19696	0.6288	1.35398	0.00033
308.15	0.19844	0.4213	1.35103	0.00033
308.15	0.19889	0.2111	1.34782	0.00033
308.15	0.2006	0.7965	1.35645	0.00033
308.15	0.20093	0.0594	1.34532	0.00033
308.15	0.22414	0.0805	1.34691	0.00033
308.15	0.22507	0.4476	1.35282	0.00033
308.15	0.2263	0.2475	1.34985	0.00033
308.15	0.24151	0.3549	1.35232	0.00033
308.15	0.24373	0.1792	1.34968	0.00033
308.15	0.24841	0.449	1.35375	0.00033
308.15	0.24878	0.0692	1.34803	0.00033
308.15	0.27012	0.1494	1.35047	0.00033
308.15	0.27505	0.3238	1.3532	0.00033
308.15	0.27624	0.0589	1.34938	0.00033
308.15	0.29836	0.2012	1.35247	0.00033
308.15	0.30056	0.0996	1.35102	0.00033
308.15	0.30068	0.2759	1.35369	0.00033
308.15	0.30233	0.0489	1.3505	0.00033
318.15	0.02361	0.6928	1.34395	0.00033
318.15	0.02432	0.35	1.33799	0.00033
318.15	0.02492	2.0836	1.36321	0.00033
318.15	0.02524	1.1157	1.35047	0.00033
318.15	0.02525	1.7907	1.35976	0.00033
318.15	0.02539	2.4329	1.36717	0.00033
318.15	0.02544	2.7821	1.37084	0.00033
318.15	0.02897	1.5051	1.35623	0.00033
318.15	0.03065	0.1618	1.33481	0.00033
318.15	0.04815	2.0978	1.36441	0.00033
318.15	0.04871	0.7237	1.3457	0.00033
318.15	0.04912	1.8016	1.36078	0.00033
318.15	0.05058	2.4033	1.36785	0.00033
318.15	0.05086	1.0873	1.35139	0.00033
318.15	0.05139	1.4371	1.35624	0.00033
318.15	0.05212	0.3574	1.33978	0.00033
318.15	0.05577	0.1369	1.3359	0.00033
318.15	0.07077	0.8124	1.34834	0.00033
318.15	0.07342	1.7824	1.36158	0.00033
318.15	0.07462	1.4602	1.35772	0.00033
318.15	0.07492	0.203	1.33822	0.00033
318.15	0.07543	1.1	1.35281	0.00033
318.15	0.07553	2.0915	1.36531	0.00033
318.15	0.07748	0.4978	1.34363	0.00033
318.15	0.08155	0.0472	1.3357	0.00033
318.15	0.09786	1.6397	1.36085	0.00033
318.15	0.09978	0.4975	1.34483	0.00033
318.15	0.09994	1.3884	1.3577	0.00033
318.15	0.10036	1.0972	1.3539	0.00033
318.15	0.10118	0.2508	1.34069	0.00033
318.15	0.10146	0.7454	1.34885	0.00033
318.15	0.10516	0.0966	1.33795	0.00033
318.15	0.11842	1.4761	1.35942	0.00033
318.15	0.11916	1.3052	1.35752	0.00033
318.15	0.12406	0.5187	1.34656	0.00033
318.15	0.12429	1.0396	1.35406	0.00033
318.15	0.12459	0.7762	1.35036	0.00033
318.15	0.12518	0.2618	1.34223	0.00033
318.15	0.12677	0.0897	1.33917	0.00033
318.15	0.13925	0.3851	1.34511	0.00033
318.15	0.14559	0.1912	1.34216	0.00033
318.15	0.14577	0.9532	1.3539	0.00033
318.15	0.14587	0.5693	1.34836	0.00033
318.15	0.14602	1.2485	1.3575	0.00033
318.15	0.1466	0.7677	1.35134	0.00033
318.15	0.15368	0.0726	1.34035	0.00033
318.15	0.16805	0.3137	1.34541	0.00033
318.15	0.1705	0.9295	1.35438	0.00033
318.15	0.1708	0.6154	1.35015	0.00033
318.15	0.17421	0.071	1.34159	0.00033
318.15	0.19696	0.6288	1.35125	0.00033
318.15	0.19844	0.4213	1.34827	0.00033
318.15	0.19889	0.2111	1.34511	0.00033
318.15	0.2006	0.7965	1.35343	0.00033
318.15	0.20093	0.0594	1.34271	0.00033
318.15	0.22414	0.0805	1.34434	0.00033
318.15	0.22507	0.4476	1.34983	0.00033
318.15	0.2263	0.2475	1.34699	0.00033
318.15	0.24151	0.3549	1.34919	0.00033
318.15	0.24373	0.1792	1.34682	0.00033
318.15	0.24841	0.449	1.35084	0.00033
318.15	0.24878	0.0692	1.34547	0.00033
318.15	0.27012	0.1494	1.34767	0.00033
318.15	0.27505	0.3238	1.35036	0.00033
318.15	0.27624	0.0589	1.34653	0.00033
318.15	0.29836	0.2012	1.34951	0.00033
318.15	0.30056	0.0996	1.34832	0.00033
318.15	0.30068	0.2759	1.35082	0.00033
318.15	0.30233	0.0489	1.34749	0.00033

System: ethanol + water + potassium sulfate; phases: Liquid
Fixed: Pressure, kPa = 101
Property: Refractive index (Na D-line) (Liquid); method: Standard Abbe refractometry
Temperature, K	Solvent: Mass fraction of ethanol	Molality, mol/kg of potassium sulfate	Refractive index (Na D-line)	uncertainty
288.15	0.02305	0.3044	1.34105	0.00033
288.15	0.02414	0.1024	1.33712	0.00033
288.15	0.02491	0.2032	1.33913	0.00033
288.15	0.02786	0.4	1.3431	0.00033
288.15	0.04965	0.2001	1.34074	0.00033
288.15	0.05009	0.2996	1.34265	0.00033
288.15	0.05155	0.1005	1.33891	0.00033
288.15	0.07252	0.1827	1.34197	0.00033
288.15	0.07558	0.0878	1.34036	0.00033
288.15	0.0999	0.0815	1.34201	0.00033
288.15	0.10053	0.1611	1.34354	0.00033
288.15	0.12067	0.0675	1.34321	0.00033
288.15	0.12307	0.1411	1.34477	0.00033
288.15	0.15174	0.0655	1.34551	0.00033
288.15	0.15228	0.1253	1.34669	0.00033
288.15	0.15358	0.0541	1.34544	0.00033
288.15	0.1746	0.0511	1.34696	0.00033
288.15	0.17523	0.1024	1.34803	0.00033
288.15	0.19972	0.0456	1.34874	0.00033
288.15	0.20477	0.0851	1.34989	0.00033
288.15	0.2277	0.0433	1.35085	0.00034
288.15	0.24256	0.0499	1.35196	0.00033
288.15	0.25005	0.0259	1.35205	0.00033
298.15	0.02022	0.502	1.34325	0.00033
298.15	0.02301	0.598	1.34505	0.00073
298.15	0.02305	0.3044	1.33993	0.00033
298.15	0.02414	0.1024	1.33607	0.00033
298.15	0.02491	0.2032	1.3381	0.00033
298.15	0.02786	0.4	1.3419	0.00033
298.15	0.04965	0.2001	1.33961	0.00033
298.15	0.05009	0.2996	1.34156	0.00033
298.15	0.05155	0.1005	1.33789	0.00033
298.15	0.05412	0.4038	1.34358	0.00033
298.15	0.07252	0.1827	1.34084	0.00033
298.15	0.07419	0.3706	1.34428	0.00033
298.15	0.07558	0.0878	1.33915	0.00033
298.15	0.07841	0.3023	1.34334	0.00033
298.15	0.0999	0.0815	1.34078	0.00033
298.15	0.10018	0.237	1.34364	0.00033
298.15	0.10053	0.1611	1.34222	0.00033
298.15	0.12067	0.0675	1.34188	0.00033
298.15	0.12307	0.1411	1.34347	0.00033
298.15	0.12729	0.2129	1.34497	0.00033
298.15	0.14714	0.176	1.34568	0.00033
298.15	0.15174	0.0655	1.34403	0.00033
298.15	0.15228	0.1253	1.34527	0.00033
298.15	0.15358	0.0541	1.34395	0.00033
298.15	0.1746	0.0511	1.34532	0.00033
298.15	0.17523	0.1024	1.34633	0.00033
298.15	0.19972	0.0456	1.34696	0.00033
298.15	0.20477	0.0851	1.34808	0.00033
298.15	0.22283	0.0914	1.34928	0.00033
298.15	0.2277	0.0433	1.34879	0.00033
298.15	0.24256	0.0499	1.34989	0.00033
298.15	0.25005	0.0259	1.34994	0.00033
308.15	0.02022	0.502	1.3419	0.00033
308.15	0.02301	0.598	1.34368	0.00033
308.15	0.02305	0.3044	1.33867	0.00033
308.15	0.02414	0.1024	1.3349	0.00033
308.15	0.02491	0.2032	1.3369	0.00033
308.15	0.02786	0.4	1.3406	0.00033
308.15	0.04965	0.2001	1.3382	0.00033
308.15	0.05009	0.2996	1.34019	0.00033
308.15	0.05155	0.1005	1.33658	0.00033
308.15	0.05191	0.5064	1.34383	0.00033
308.15	0.05412	0.4038	1.34218	0.00033
308.15	0.07252	0.1827	1.33945	0.00033
308.15	0.07419	0.3706	1.34279	0.00033
308.15	0.07558	0.0878	1.33778	0.00033
308.15	0.07841	0.3023	1.34187	0.00033
308.15	0.0999	0.0815	1.3393	0.00033
308.15	0.10018	0.237	1.34215	0.00033
308.15	0.10053	0.1611	1.3408	0.00033
308.15	0.10184	0.3022	1.34342	0.00033
308.15	0.12067	0.0675	1.3403	0.00033
308.15	0.12307	0.1411	1.34185	0.00033
308.15	0.12729	0.2129	1.34332	0.00033
308.15	0.14714	0.176	1.34395	0.00033
308.15	0.15174	0.0655	1.34225	0.00033
308.15	0.15228	0.1253	1.3435	0.00033
308.15	0.15358	0.0541	1.34216	0.00033
308.15	0.17052	0.1672	1.3453	0.00033
308.15	0.1746	0.0511	1.34332	0.00033
308.15	0.17523	0.1024	1.34445	0.00033
308.15	0.19972	0.0456	1.34479	0.00033
308.15	0.20112	0.131	1.34644	0.00033
308.15	0.20477	0.0851	1.34584	0.00033
308.15	0.22283	0.0914	1.34694	0.00033
308.15	0.2277	0.0433	1.34647	0.00033
308.15	0.24256	0.0499	1.3475	0.00033
308.15	0.24354	0.0825	1.34802	0.00033
308.15	0.25005	0.0259	1.34752	0.00033
318.15	0.02022	0.502	1.34042	0.00033
318.15	0.02301	0.598	1.34219	0.00033
318.15	0.02305	0.3044	1.33706	0.00033
318.15	0.02414	0.1024	1.33328	0.00033
318.15	0.02491	0.2032	1.33533	0.00033
318.15	0.0271	0.6981	1.34401	0.00033
318.15	0.02786	0.4	1.33895	0.00033
318.15	0.04965	0.2001	1.33665	0.00033
318.15	0.05009	0.2996	1.33849	0.00033
318.15	0.05106	0.5736	1.34326	0.00033
318.15	0.05155	0.1005	1.33488	0.00033
318.15	0.05191	0.5064	1.34216	0.00033
318.15	0.05412	0.4038	1.34061	0.00033
318.15	0.07252	0.1827	1.33768	0.00033
318.15	0.07419	0.3706	1.34112	0.00033
318.15	0.07449	0.4525	1.3427	0.00033
318.15	0.07558	0.0878	1.33616	0.00033
318.15	0.07841	0.3023	1.3402	0.00033
318.15	0.0997	0.3692	1.34267	0.00033
318.15	0.0999	0.0815	1.33737	0.00033
318.15	0.10018	0.237	1.34033	0.00033
318.15	0.10053	0.1611	1.33898	0.00033
318.15	0.10184	0.3022	1.34159	0.00033
318.15	0.12067	0.0675	1.33844	0.00033
318.15	0.12307	0.1411	1.33997	0.00033
318.15	0.12729	0.2129	1.34138	0.00033
318.15	0.12749	0.2837	1.34263	0.00033
318.15	0.14714	0.176	1.34189	0.00033
318.15	0.14744	0.233	1.34299	0.00033
318.15	0.15174	0.0655	1.34012	0.00033
318.15	0.15228	0.1253	1.34135	0.00033
318.15	0.15358	0.0541	1.34001	0.00033
318.15	0.17052	0.1672	1.34312	0.00033
318.15	0.1746	0.0511	1.34109	0.00033
318.15	0.17523	0.1024	1.34228	0.00033
318.15	0.19972	0.0456	1.34237	0.00033
318.15	0.20112	0.131	1.34398	0.00033
318.15	0.20477	0.0851	1.3434	0.00033
318.15	0.22283	0.0914	1.3444	0.00033
318.15	0.2277	0.0433	1.34381	0.00033
318.15	0.24256	0.0499	1.3448	0.00033
318.15	0.24354	0.0825	1.34538	0.00033
318.15	0.25005	0.0259	1.34472	0.00033

System: ethanol + water + ammonium sulfate; phases: Liquid
Fixed: Pressure, kPa = 101
Property: Refractive index (Na D-line) (Liquid); method: Standard Abbe refractometry
Temperature, K	Solvent: Mass fraction of ethanol	Molality, mol/kg of ammonium sulfate	Refractive index (Na D-line)	uncertainty
288.15	0.02496	3.7234	1.38582	0.00033
288.15	0.02508	4.3907	1.39115	0.00033
288.15	0.02585	2.5725	1.37462	0.00033
288.15	0.02626	4.9843	1.39545	0.00033
288.15	0.02722	1.243	1.35761	0.00033
288.15	0.02736	1.8721	1.36638	0.00033
288.15	0.0278	3.1418	1.38059	0.00033
288.15	0.02882	0.6167	1.34741	0.00033
288.15	0.04646	3.1996	1.38187	0.00033
288.15	0.04936	1.2931	1.3595	0.00033
288.15	0.05008	0.6329	1.34882	0.00033
288.15	0.05035	3.8628	1.38795	0.00033
288.15	0.05082	2.5676	1.37565	0.00033
288.15	0.05106	4.4718	1.39274	0.00033
288.15	0.05134	1.9112	1.36798	0.00033
288.15	0.07524	3.7593	1.3878	0.00033
288.15	0.07643	3.1306	1.38227	0.00033
288.15	0.07684	1.2393	1.36007	0.00034
288.15	0.07684	1.8782	1.36875	0.00033
288.15	0.07757	2.5131	1.37612	0.00033
288.15	0.07763	0.6257	1.35038	0.00033
288.15	0.07811	4.1972	1.39162	0.00033
288.15	0.10031	3.4791	1.38639	0.00033
288.15	0.10236	2.379	1.37595	0.00033
288.15	0.10271	1.2055	1.36124	0.00033
288.15	0.10282	0.5864	1.35156	0.00033
288.15	0.10284	1.7793	1.36899	0.00033
288.15	0.1044	2.988	1.38222	0.00033
288.15	0.12741	0.6987	1.355	0.00033
288.15	0.12762	2.0832	1.37365	0.00033
288.15	0.12978	1.3849	1.36522	0.00034
288.15	0.12994	2.7569	1.38094	0.00033
288.15	0.14895	0.4877	1.35303	0.00033
288.15	0.1497	0.953	1.36045	0.00033
288.15	0.15143	2.6993	1.38127	0.00033
288.15	0.15182	1.913	1.37299	0.00033
288.15	0.15244	1.4329	1.36719	0.00033
288.15	0.15271	2.4008	1.37836	0.00033
288.15	0.17723	2.0954	1.37599	0.00033
288.15	0.17842	0.6966	1.35834	0.00033
288.15	0.17905	1.3978	1.36807	0.00033
288.15	0.1984	1.1294	1.36575	0.00033
288.15	0.20057	1.8809	1.37484	0.00033
288.15	0.20071	0.3702	1.35477	0.00033
288.15	0.20093	2.2098	1.37827	0.00033
288.15	0.20172	0.7625	1.36087	0.00033
288.15	0.20248	1.5196	1.37078	0.00033
288.15	0.20898	1.1012	1.36577	0.00033
288.15	0.22526	1.1909	1.36785	0.00033
288.15	0.22582	1.8012	1.37477	0.00033
288.15	0.22927	0.5921	1.35997	0.00033
288.15	0.2442	0.3523	1.35722	0.00033
288.15	0.24707	1.0641	1.36743	0.00033
288.15	0.24782	1.3887	1.37134	0.00033
288.15	0.24831	0.7031	1.36279	0.00033
288.15	0.25166	1.7244	1.37503	0.00033
288.15	0.27541	0.4548	1.36055	0.00033
288.15	0.27586	1.3349	1.37166	0.00033
288.15	0.2777	0.8913	1.36655	0.00033
288.15	0.2962	0.2496	1.35862	0.00033
288.15	0.29672	0.5011	1.36252	0.00033
288.15	0.29766	1.0006	1.36866	0.00033
288.15	0.29772	0.7467	1.36575	0.00033
288.15	0.29996	1.3139	1.37227	0.00033
288.15	0.32172	0.3908	1.36221	0.00033
288.15	0.32285	0.7895	1.36725	0.00033
288.15	0.34768	0.3032	1.36201	0.00033
288.15	0.34876	0.6082	1.36592	0.00033
288.15	0.34931	0.1494	1.35987	0.00033
288.15	0.3498	0.4598	1.36419	0.00033
288.15	0.35101	0.8096	1.36836	0.00033
288.15	0.3734	0.5945	1.36671	0.00033
288.15	0.37568	0.2961	1.36296	0.00033
288.15	0.39628	0.201	1.36266	0.00033
288.15	0.39699	0.4512	1.36575	0.00033
288.15	0.3974	0.1044	1.36134	0.00033
288.15	0.39983	0.357	1.36466	0.00033
288.15	0.42416	0.1785	1.36334	0.00033
288.15	0.42539	0.3611	1.36538	0.00033
288.15	0.4473	0.0992	1.36295	0.00033
288.15	0.44733	0.3049	1.36561	0.00033
288.15	0.45019	0.2043	1.3645	0.00033
298.15	0.02496	3.7234	1.38447	0.00033
298.15	0.02508	4.3907	1.38991	0.00033
298.15	0.02585	2.5725	1.37332	0.00033
298.15	0.02626	4.9843	1.39414	0.00033
298.15	0.02722	1.243	1.35641	0.00033
298.15	0.02736	1.8721	1.36512	0.00033
298.15	0.0278	3.1418	1.37928	0.00033
298.15	0.02882	0.6167	1.34631	0.00033
298.15	0.04646	3.1996	1.38062	0.00033
298.15	0.04936	1.2931	1.35814	0.00033
298.15	0.05008	0.6329	1.34766	0.00033
298.15	0.05035	3.8628	1.38666	0.00033
298.15	0.05082	2.5676	1.37427	0.00033
298.15	0.05106	4.4718	1.39136	0.00033
298.15	0.05134	1.9112	1.36676	0.00033
298.15	0.07524	3.7593	1.38643	0.00033
298.15	0.07643	3.1306	1.3809	0.00033
298.15	0.07684	1.2393	1.35885	0.00033
298.15	0.07684	1.8782	1.36744	0.00033
298.15	0.07757	2.5131	1.37486	0.00033
298.15	0.07763	0.6257	1.34928	0.00033
298.15	0.07811	4.1972	1.39022	0.00033
298.15	0.10031	3.4791	1.38504	0.00033
298.15	0.10236	2.379	1.37437	0.00033
298.15	0.10271	1.2055	1.35999	0.00033
298.15	0.10282	0.5864	1.35034	0.00033
298.15	0.10284	1.7793	1.36752	0.00033
298.15	0.1044	2.988	1.38084	0.00033
298.15	0.12741	0.6987	1.35362	0.00033
298.15	0.12762	2.0832	1.37231	0.00033
298.15	0.12978	1.3849	1.36382	0.00033
298.15	0.12994	2.7569	1.37944	0.00033
298.15	0.14895	0.4877	1.35149	0.00033
298.15	0.1497	0.953	1.35889	0.00033
298.15	0.15143	2.6993	1.37967	0.00033
298.15	0.15182	1.913	1.37153	0.00033
298.15	0.15244	1.4329	1.36562	0.00033
298.15	0.15271	2.4008	1.37677	0.00033
298.15	0.17723	2.0954	1.37448	0.00033
298.15	0.17842	0.6966	1.35669	0.00033
298.15	0.17905	1.3978	1.36654	0.00033
298.15	0.1984	1.1294	1.36398	0.00033
298.15	0.20057	1.8809	1.37306	0.00033
298.15	0.20071	0.3702	1.3529	0.00033
298.15	0.20093	2.2098	1.3765	0.00033
298.15	0.20172	0.7625	1.35897	0.00033
298.15	0.20248	1.5196	1.36909	0.00033
298.15	0.20898	1.1012	1.36401	0.00033
298.15	0.22526	1.1909	1.36574	0.00033
298.15	0.22582	1.8012	1.37291	0.00033
298.15	0.22927	0.5921	1.35799	0.00033
298.15	0.2442	0.3523	1.3549	0.00033
298.15	0.24707	1.0641	1.3652	0.00033
298.15	0.24782	1.3887	1.36912	0.00033
298.15	0.24831	0.7031	1.3606	0.00033
298.15	0.25166	1.7244	1.37291	0.00033
298.15	0.27541	0.4548	1.35819	0.00033
298.15	0.27586	1.3349	1.36937	0.00033
298.15	0.2777	0.8913	1.36417	0.00033
298.15	0.2962	0.2496	1.35626	0.00033
298.15	0.29672	0.5011	1.35979	0.00033
298.15	0.29766	1.0006	1.36639	0.00033
298.15	0.29772	0.7467	1.36313	0.00033
298.15	0.29996	1.3139	1.36986	0.00033
298.15	0.32172	0.3908	1.35936	0.00033
298.15	0.32285	0.7895	1.36456	0.00033
298.15	0.34768	0.3032	1.35924	0.00033
298.15	0.34876	0.6082	1.36311	0.00033
298.15	0.34931	0.1494	1.35705	0.00033
298.15	0.3498	0.4598	1.3615	0.00033
298.15	0.35101	0.8096	1.36575	0.00033
298.15	0.3734	0.5945	1.36377	0.00033
298.15	0.37568	0.2961	1.36009	0.00033
298.15	0.39628	0.201	1.35972	0.00033
298.15	0.39699	0.4512	1.36288	0.00033
298.15	0.3974	0.1044	1.35827	0.00033
298.15	0.39983	0.357	1.36171	0.00033
298.15	0.42416	0.1785	1.36014	0.00033
298.15	0.42539	0.3611	1.36257	0.00033
298.15	0.4473	0.0992	1.35987	0.00033
298.15	0.44733	0.3049	1.36259	0.00033
298.15	0.45019	0.2043	1.3613	0.00033
308.15	0.02496	3.7234	1.38311	0.00033
308.15	0.02508	4.3907	1.38845	0.00033
308.15	0.02585	2.5725	1.37185	0.00033
308.15	0.02626	4.9843	1.39283	0.00033
308.15	0.02722	1.243	1.35488	0.00033
308.15	0.02736	1.8721	1.3636	0.00033
308.15	0.0278	3.1418	1.37781	0.00033
308.15	0.02882	0.6167	1.34494	0.00033
308.15	0.04646	3.1996	1.37906	0.00033
308.15	0.04936	1.2931	1.35675	0.00033
308.15	0.05008	0.6329	1.34638	0.00033
308.15	0.05035	3.8628	1.38523	0.00033
308.15	0.05082	2.5676	1.37281	0.00033
308.15	0.05106	4.4718	1.3901	0.00033
308.15	0.05134	1.9112	1.36519	0.00033
308.15	0.07524	3.7593	1.38527	0.00033
308.15	0.07643	3.1306	1.37976	0.00033
308.15	0.07684	1.2393	1.35749	0.00033
308.15	0.07684	1.8782	1.36612	0.00033
308.15	0.07757	2.5131	1.37353	0.00033
308.15	0.07763	0.6257	1.34791	0.00033
308.15	0.07811	4.1972	1.3888	0.00033
308.15	0.10031	3.4791	1.38366	0.00033
308.15	0.10236	2.379	1.37305	0.00033
308.15	0.10271	1.2055	1.3583	0.00033
308.15	0.10282	0.5864	1.34873	0.00033
308.15	0.10284	1.7793	1.36605	0.00033
308.15	0.1044	2.988	1.37939	0.00033
308.15	0.12741	0.6987	1.35193	0.00033
308.15	0.12762	2.0832	1.37071	0.00033
308.15	0.12978	1.3849	1.36224	0.00033
308.15	0.12994	2.7569	1.37815	0.00033
308.15	0.14895	0.4877	1.34972	0.00033
308.15	0.1497	0.953	1.35715	0.00033
308.15	0.15143	2.6993	1.37812	0.00033
308.15	0.15182	1.913	1.36981	0.00033
308.15	0.15244	1.4329	1.36396	0.00033
308.15	0.15271	2.4008	1.37525	0.00033
308.15	0.17723	2.0954	1.37273	0.00033
308.15	0.17842	0.6966	1.35478	0.00033
308.15	0.17905	1.3978	1.3647	0.00033
308.15	0.1984	1.1294	1.36177	0.00033
308.15	0.20057	1.8809	1.3711	0.00033
308.15	0.20071	0.3702	1.35059	0.00033
308.15	0.20093	2.2098	1.37479	0.00033
308.15	0.20172	0.7625	1.35704	0.00033
308.15	0.20248	1.5196	1.36687	0.00033
308.15	0.20898	1.1012	1.36201	0.00033
308.15	0.22526	1.1909	1.36368	0.00033
308.15	0.22582	1.8012	1.37096	0.00033
308.15	0.22927	0.5921	1.35581	0.00033
308.15	0.2442	0.3523	1.35256	0.00033
308.15	0.24707	1.0641	1.36282	0.00033
308.15	0.24782	1.3887	1.36686	0.00033
308.15	0.24831	0.7031	1.3583	0.00033
308.15	0.25166	1.7244	1.37071	0.00033
308.15	0.27541	0.4548	1.35579	0.00033
308.15	0.27586	1.3349	1.36721	0.00033
308.15	0.2777	0.8913	1.36187	0.00033
308.15	0.2962	0.2496	1.3535	0.00033
308.15	0.29672	0.5011	1.35735	0.00033
308.15	0.29766	1.0006	1.36368	0.00033
308.15	0.29772	0.7467	1.36059	0.00033
308.15	0.29996	1.3139	1.36753	0.00033
308.15	0.32172	0.3908	1.35663	0.00033
308.15	0.32285	0.7895	1.36191	0.00033
308.15	0.34768	0.3032	1.35622	0.00033
308.15	0.34876	0.6082	1.36049	0.00033
308.15	0.34931	0.1494	1.3541	0.00033
308.15	0.3498	0.4598	1.35866	0.00033
308.15	0.35101	0.8096	1.36295	0.00033
308.15	0.3734	0.5945	1.36082	0.00033
308.15	0.37568	0.2961	1.35703	0.00033
308.15	0.39628	0.201	1.35636	0.00033
308.15	0.39699	0.4512	1.35975	0.00033
308.15	0.3974	0.1044	1.35523	0.00033
308.15	0.39983	0.357	1.35863	0.00033
308.15	0.42416	0.1785	1.35694	0.00033
308.15	0.42539	0.3611	1.35925	0.00033
308.15	0.4473	0.0992	1.35653	0.00033
308.15	0.44733	0.3049	1.35908	0.00033
308.15	0.45019	0.2043	1.35805	0.00033
318.15	0.02496	3.7234	1.38169	0.00033
318.15	0.02508	4.3907	1.38729	0.00033
318.15	0.02585	2.5725	1.37048	0.00033
318.15	0.02626	4.9843	1.3916	0.00033
318.15	0.02722	1.243	1.35341	0.00033
318.15	0.02736	1.8721	1.36216	0.00033
318.15	0.0278	3.1418	1.37648	0.00033
318.15	0.02882	0.6167	1.34348	0.00033
318.15	0.04646	3.1996	1.37781	0.00033
318.15	0.04936	1.2931	1.3553	0.00033
318.15	0.05008	0.6329	1.34487	0.00033
318.15	0.05035	3.8628	1.38387	0.00033
318.15	0.05082	2.5676	1.37151	0.00033
318.15	0.05106	4.4718	1.38869	0.00033
318.15	0.05134	1.9112	1.36369	0.00033
318.15	0.07524	3.7593	1.38376	0.00033
318.15	0.07643	3.1306	1.37808	0.00033
318.15	0.07684	1.2393	1.35606	0.00033
318.15	0.07684	1.8782	1.36464	0.00033
318.15	0.07757	2.5131	1.37209	0.00033
318.15	0.07763	0.6257	1.34624	0.00033
318.15	0.07811	4.1972	1.38739	0.00033
318.15	0.10031	3.4791	1.38216	0.00033
318.15	0.10236	2.379	1.37163	0.00033
318.15	0.10271	1.2055	1.35679	0.00033
318.15	0.10282	0.5864	1.34714	0.00033
318.15	0.10284	1.7793	1.36459	0.00033
318.15	0.1044	2.988	1.37768	0.00033
318.15	0.12741	0.6987	1.35034	0.00033
318.15	0.12762	2.0832	1.36919	0.00033
318.15	0.12978	1.3849	1.36059	0.00033
318.15	0.12994	2.7569	1.37616	0.00033
318.15	0.14895	0.4877	1.34782	0.00033
318.15	0.1497	0.953	1.35541	0.00033
318.15	0.15143	2.6993	1.37619	0.00033
318.15	0.15182	1.913	1.36818	0.00033
318.15	0.15244	1.4329	1.36231	0.00033
318.15	0.15271	2.4008	1.37341	0.00033
318.15	0.17723	2.0954	1.37074	0.00033
318.15	0.17842	0.6966	1.35291	0.00033
318.15	0.17905	1.3978	1.3629	0.00033
318.15	0.1984	1.1294	1.36015	0.00033
318.15	0.20057	1.8809	1.3691	0.00033
318.15	0.20071	0.3702	1.34858	0.00033
318.15	0.20093	2.2098	1.37239	0.00033
318.15	0.20172	0.7625	1.35486	0.00033
318.15	0.20248	1.5196	1.36501	0.00033
318.15	0.20898	1.1012	1.3601	0.00033
318.15	0.22526	1.1909	1.36182	0.00033
318.15	0.22582	1.8012	1.36879	0.00033
318.15	0.22927	0.5921	1.35348	0.00033
318.15	0.2442	0.3523	1.35007	0.00033
318.15	0.24707	1.0641	1.3607	0.00033
318.15	0.24782	1.3887	1.36469	0.00033
318.15	0.24831	0.7031	1.35591	0.00033
318.15	0.25166	1.7244	1.36832	0.00033
318.15	0.27541	0.4548	1.35306	0.00033
318.15	0.27586	1.3349	1.36456	0.00033
318.15	0.2777	0.8913	1.35948	0.00033
318.15	0.2962	0.2496	1.35063	0.00033
318.15	0.29672	0.5011	1.35468	0.00033
318.15	0.29766	1.0006	1.36117	0.00033
318.15	0.29772	0.7467	1.35789	0.00033
318.15	0.29996	1.3139	1.36444	0.00033
318.15	0.32172	0.3908	1.35363	0.00033
318.15	0.32285	0.7895	1.35902	0.00033
318.15	0.34768	0.3032	1.35336	0.00033
318.15	0.34876	0.6082	1.35744	0.00033
318.15	0.34931	0.1494	1.35082	0.00033
318.15	0.3498	0.4598	1.35549	0.00033
318.15	0.35101	0.8096	1.35982	0.00033
318.15	0.3734	0.5945	1.35767	0.00033
318.15	0.37568	0.2961	1.35406	0.00033
318.15	0.39628	0.201	1.35322	0.00033
318.15	0.39699	0.4512	1.35639	0.00033
318.15	0.3974	0.1044	1.35158	0.00033
318.15	0.39983	0.357	1.35543	0.00033
318.15	0.42416	0.1785	1.35345	0.00033
318.15	0.42539	0.3611	1.35578	0.00033
318.15	0.4473	0.0992	1.35288	0.00033
318.15	0.44733	0.3049	1.35577	0.00033
318.15	0.45019	0.2043	1.35456	0.00033
