Measured thermophysical data. Isobaric Vapor-Liquid Equilibria of Heptane + 1-Butanol and Heptane + 1-Pentanol Systems at (53.3 and 91.3) kPa
Source: J. Chem. Eng. Data, 2010, 10.1021/je9006629
Compound 1: heptane, C7H16, InChI=1S/C7H16/c1-3-5-7-6-4-2/h3-7H2,1-2H3
Compound 2: butan-1-ol, C4H10O, InChI=1S/C4H10O/c1-2-3-4-5/h5H,2-4H2,1H3
Compound 3: pentan-1-ol, C5H12O, InChI=1S/C5H12O/c1-2-3-4-5-6/h6H,2-5H2,1H3

System: heptane; phases: Liquid, Gas
Property: Normal boiling temperature, K (Liquid); method: Distillation
Normal boiling temperature, K	uncertainty
371.65	0.14

System: heptane; phases: Liquid, Gas
Property: Vapor or sublimation pressure, kPa (Liquid); method: EBULLIO:UFactor:64
Temperature, K	Vapor or sublimation pressure, kPa	uncertainty
332.9	27.1	0.6
335.2	29.9	0.7
336.85	32.3	0.7
340.55	36.9	0.7
343.75	41.3	0.7
348.55	48.9	0.8
351.45	53.3	0.8
351.5	53.3	0.8
352.35	55.3	0.8
357.25	65.3	0.8
363.15	78.7	0.9
368.45	91.3	1
368.55	92.7	1
371.35	100.8	1
374	108.8	1.1

System: butan-1-ol; phases: Liquid, Gas
Property: Normal boiling temperature, K (Liquid); method: Distillation
Normal boiling temperature, K	uncertainty
390.95	0.14

System: butan-1-ol; phases: Liquid, Gas
Property: Vapor or sublimation pressure, kPa (Liquid); method: EBULLIO:UFactor:64
Temperature, K	Vapor or sublimation pressure, kPa	uncertainty
356.35	25.3	0.6
359.45	29.3	0.6
362.95	33.5	0.7
368.6	42.8	0.7
373.45	52.5	0.8
373.85	53.3	0.8
377.3	61.2	0.8
381.9	72.8	0.9
386.05	84.9	1
387.75	91.3	1
391.95	105.3	1.1
395.8	120.1	1.2

System: pentan-1-ol; phases: Liquid, Gas
Property: Normal boiling temperature, K (Liquid); method: Distillation
Normal boiling temperature, K	uncertainty
411.1	0.14

System: pentan-1-ol; phases: Liquid, Gas
Property: Vapor or sublimation pressure, kPa (Liquid); method: EBULLIO:UFactor:64
Temperature, K	Vapor or sublimation pressure, kPa	uncertainty
379.35	31.2	0.7
382.4	35.3	0.7
385.65	40	0.7
390.75	49.2	0.8
393.2	53.3	0.8
394.7	56.9	0.8
400.05	69.3	0.9
404.6	81.3	0.9
408.15	91.3	1
409	94.5	1
411.35	101.9	1.1
414.65	113.3	1.1

System: butan-1-ol + heptane; phases: Liquid
Fixed: Temperature, K = 293.15
Fixed: Pressure, kPa = 101
Property: Refractive index (Na D-line) (Liquid); method: Standard Abbe refractometry
Mole fraction of butan-1-ol	Refractive index (Na D-line)	uncertainty
0	1.3876	0.0007
0.1121	1.3889	0.0007
0.1897	1.3898	0.0007
0.2845	1.3909	0.0007
0.3707	1.3919	0.0007
0.4655	1.393	0.0007
0.5	1.3934	0.0007
0.5862	1.3944	0.0007
0.681	1.3955	0.0007
0.7586	1.3964	0.0007
0.8276	1.3972	0.0007
0.9224	1.3983	0.0007
1	1.3992	0.0007

System: butan-1-ol + heptane; phases: Liquid, Gas
Property: Azeotropic composition: mole fraction of heptane (Liquid); method: By X=Y
Temperature, K	Azeotropic composition: mole fraction of heptane	uncertainty
349	0.8121	0.05
363.05	0.775	0.05

System: butan-1-ol + heptane; phases: Liquid, Gas
Property: Azeotropic composition: mole fraction of heptane (Liquid); method: By X=Y
Pressure, kPa	Azeotropic composition: mole fraction of heptane	uncertainty
53.3	0.8121	0.05
91.3	0.775	0.05

System: butan-1-ol + heptane; phases: Liquid, Gas
Property: Boiling temperature at pressure P, K (Liquid); method: EBULLIO:UFactor:2
Mole fraction of heptane	Pressure, kPa	Boiling temperature at pressure P, K	uncertainty
0	53.3	373.85	0.25
0	91.3	387.75	0.36
0.0048	53.3	373.25	0.79
0.0054	91.3	386.85	0.94
0.0121	53.3	371.9	1.83
0.0159	91.3	385.55	1.96
0.0264	53.3	369.85	1.58
0.0284	91.3	383.15	1.64
0.0589	91.3	379.65	1.38
0.0622	53.3	365.35	1.43
0.0809	53.3	363.5	1.17
0.092	91.3	376.1	1.1
0.1083	53.3	360.95	1.05
0.131	91.3	373.4	0.87
0.1359	53.3	358.8	0.71
0.1664	91.3	371.2	0.67
0.1933	53.3	356.1	0.61
0.2234	91.3	369	0.57
0.2464	53.3	353.65	0.46
0.3099	53.3	352.35	0.33
0.3218	91.3	365.7	0.47
0.3773	53.3	351.15	0.29
0.4197	91.3	364.15	0.38
0.4412	53.3	350.5	0.27
0.4873	91.3	364.05	0.36
0.5033	53.3	349.95	0.26
0.5423	91.3	363.65	0.37
0.5704	53.3	349.55	0.25
0.6043	91.3	363.3	0.36
0.6379	53.3	349.35	0.25
0.67	91.3	363.25	0.36
0.7013	91.3	363.15	0.36
0.7093	53.3	349.15	0.25
0.7444	91.3	363.05	0.36
0.7454	53.3	349.05	0.25
0.7587	53.3	349	0.25
0.7753	91.3	363.05	0.36
0.7841	91.3	363.05	0.36
0.792	53.3	349	0.25
0.8053	53.3	349	0.25
0.8189	91.3	363.15	0.37
0.832	91.3	363.25	0.38
0.8519	53.3	349.1	0.26
0.8678	91.3	363.5	0.38
0.8905	53.3	349.25	0.26
0.9093	91.3	363.9	0.41
0.9151	53.3	349.35	0.29
0.9447	53.3	349.85	0.33
0.947	91.3	364.55	0.52
0.969	53.3	350.3	0.39
0.969	91.3	365.75	0.8
0.983	53.3	350.75	0.53
0.983	91.3	366.65	1.13
0.992	91.3	367.75	0.82
1	53.3	351.45	0.29
1	91.3	368.45	0.44

System: butan-1-ol + heptane; phases: Gas, Liquid
Property: Mole fraction of heptane (Gas); method: Index of refraction calibration data
Mole fraction of heptane	Pressure, kPa	Mole fraction of heptane	uncertainty
0	53.3	0	0.0001
0	91.3	0	0.0001
0.0048	53.3	0.0357	0.0334
0.0054	91.3	0.0403	0.0361
0.0121	53.3	0.0895	0.0806
0.0159	91.3	0.1018	0.0791
0.0264	53.3	0.1758	0.0591
0.0284	91.3	0.1853	0.0612
0.0589	91.3	0.3219	0.0444
0.0622	53.3	0.3354	0.0516
0.0809	53.3	0.4003	0.0372
0.092	91.3	0.4116	0.0314
0.1083	53.3	0.4694	0.0306
0.131	91.3	0.4912	0.0273
0.1359	53.3	0.5219	0.0248
0.1664	91.3	0.5493	0.0224
0.1933	53.3	0.6053	0.0215
0.2234	91.3	0.6143	0.0185
0.2464	53.3	0.6574	0.0176
0.3099	53.3	0.6901	0.0162
0.3218	91.3	0.679	0.0162
0.3773	53.3	0.7215	0.0154
0.4197	91.3	0.7101	0.0152
0.4412	53.3	0.7409	0.0149
0.4873	91.3	0.7254	0.0149
0.5033	53.3	0.7587	0.0146
0.5423	91.3	0.7379	0.0146
0.5704	53.3	0.7713	0.0143
0.6043	91.3	0.7412	0.0145
0.6379	53.3	0.7802	0.0141
0.67	91.3	0.7419	0.0145
0.7013	91.3	0.7517	0.0149
0.7093	53.3	0.7901	0.014
0.7444	91.3	0.7652	0.0148
0.7454	53.3	0.7958	0.0141
0.7587	53.3	0.8009	0.014
0.7753	91.3	0.776	0.015
0.7841	91.3	0.7819	0.0149
0.792	53.3	0.8064	0.0139
0.8053	53.3	0.8102	0.0143
0.8189	91.3	0.7969	0.015
0.832	91.3	0.8054	0.0143
0.8519	53.3	0.8273	0.0144
0.8678	91.3	0.8149	0.0143
0.8905	53.3	0.8473	0.015
0.9093	91.3	0.8344	0.0151
0.9151	53.3	0.8657	0.0169
0.9447	53.3	0.8959	0.019
0.947	91.3	0.8613	0.017
0.969	53.3	0.93	0.0225
0.969	91.3	0.89	0.0269
0.983	53.3	0.957	0.0298
0.983	91.3	0.9349	0.0444
0.992	91.3	0.969	0.03
1	53.3	1	0.0001
1	91.3	1	0.0001

System: pentan-1-ol + heptane; phases: Liquid
Fixed: Temperature, K = 293.15
Fixed: Pressure, kPa = 101
Property: Refractive index (Na D-line) (Liquid); method: Standard Abbe refractometry
Mole fraction of pentan-1-ol	Refractive index (Na D-line)	uncertainty
0	1.3876	0.0007
0.0755	1.3893	0.0007
0.1601	1.3912	0.0007
0.2844	1.394	0.0007
0.3511	1.3955	0.0007
0.4622	1.398	0.0007
0.5821	1.4007	0.0007
0.6845	1.403	0.0007
0.7732	1.4051	0.0007
0.8978	1.4078	0.0007
1	1.4101	0.0007

System: pentan-1-ol + heptane; phases: Liquid, Gas
Property: Azeotropic composition: mole fraction of heptane (Liquid); method: By X=Y
Temperature, K	Azeotropic composition: mole fraction of heptane	uncertainty
351.15	0.9473	0.05
367.95	0.919	0.05

System: pentan-1-ol + heptane; phases: Liquid, Gas
Property: Azeotropic composition: mole fraction of heptane (Liquid); method: By X=Y
Pressure, kPa	Azeotropic composition: mole fraction of heptane	uncertainty
53.3	0.9473	0.05
91.3	0.919	0.05

System: pentan-1-ol + heptane; phases: Liquid, Gas
Property: Boiling temperature at pressure P, K (Liquid); method: EBULLIO:UFactor:2
Mole fraction of heptane	Pressure, kPa	Boiling temperature at pressure P, K	uncertainty
0	53.3	393.2	0.26
0	91.3	408.15	0.39
0.0061	53.3	391.65	1.48
0.0079	91.3	406.85	1.56
0.0122	53.3	390.35	2.45
0.0199	91.3	405.4	2.34
0.0204	53.3	388.25	2.35
0.0257	91.3	403.45	2.36
0.0442	53.3	384.15	2.12
0.0524	91.3	398.25	1.83
0.0731	53.3	379	2.04
0.0898	91.3	393.8	1.37
0.1054	53.3	373.85	1.45
0.1363	91.3	389.25	1.35
0.1628	53.3	368.2	1.02
0.1882	91.3	383.4	1
0.2521	53.3	361.8	0.77
0.2819	91.3	378.25	0.76
0.3461	53.3	357.35	0.58
0.3754	91.3	374.15	0.68
0.4328	53.3	354.3	0.41
0.4501	91.3	371.45	0.54
0.519	53.3	353.15	0.32
0.5448	91.3	370.25	0.48
0.5784	53.3	352.75	0.3
0.5994	91.3	369.45	0.46
0.6244	53.3	352.5	0.3
0.6497	91.3	368.9	0.44
0.6743	53.3	352.15	0.29
0.6944	91.3	368.55	0.43
0.7258	53.3	351.95	0.29
0.7395	91.3	368.3	0.43
0.7869	53.3	351.7	0.29
0.8021	91.3	368.2	0.43
0.8547	53.3	351.5	0.29
0.8613	91.3	368.1	0.43
0.912	53.3	351.25	0.29
0.9195	91.3	367.95	0.43
0.9473	53.3	351.15	0.29
0.9498	91.3	367.75	0.43
0.9555	53.3	351.15	0.29
0.9603	91.3	367.85	0.43
0.9799	91.3	367.95	0.47
0.9801	53.3	351.25	0.3
0.9894	53.3	351.35	0.3
0.9896	91.3	368.1	0.44
1	53.3	351.5	0.29
1	91.3	368.45	0.44

System: pentan-1-ol + heptane; phases: Gas, Liquid
Property: Mole fraction of heptane (Gas); method: Index of refraction calibration data
Mole fraction of heptane	Pressure, kPa	Mole fraction of heptane	uncertainty
0	53.3	0	0.0001
0	91.3	0	0.0001
0.0061	53.3	0.0567	0.0553
0.0079	91.3	0.0572	0.0559
0.0122	53.3	0.1118	0.0868
0.0199	91.3	0.1069	0.0734
0.0204	53.3	0.1833	0.0834
0.0257	91.3	0.1802	0.0697
0.0442	53.3	0.3229	0.064
0.0524	91.3	0.3144	0.0536
0.0731	53.3	0.4598	0.0534
0.0898	91.3	0.4603	0.0392
0.1054	53.3	0.5847	0.034
0.1363	91.3	0.5702	0.0304
0.1628	53.3	0.6924	0.0225
0.1882	91.3	0.6728	0.0213
0.2521	53.3	0.7938	0.0169
0.2819	91.3	0.7581	0.0166
0.3461	53.3	0.8415	0.0142
0.3754	91.3	0.8039	0.0149
0.4328	53.3	0.8701	0.0133
0.4501	91.3	0.8402	0.0137
0.519	53.3	0.8871	0.0129
0.5448	91.3	0.8513	0.0133
0.5784	53.3	0.8954	0.0127
0.5994	91.3	0.87	0.0132
0.6244	53.3	0.8998	0.0126
0.6497	91.3	0.8753	0.0129
0.6743	53.3	0.9019	0.0126
0.6944	91.3	0.8802	0.0129
0.7258	53.3	0.9061	0.0126
0.7395	91.3	0.8882	0.0129
0.7869	53.3	0.9089	0.0125
0.8021	91.3	0.8978	0.0128
0.8547	53.3	0.9172	0.0126
0.8613	91.3	0.91	0.0127
0.912	53.3	0.9298	0.0129
0.9195	91.3	0.9201	0.0133
0.9473	53.3	0.947	0.0142
0.9498	91.3	0.949	0.0156
0.9555	53.3	0.9522	0.0141
0.9603	91.3	0.9542	0.0156
0.9799	91.3	0.9689	0.0184
0.9801	53.3	0.9714	0.0176
0.9894	53.3	0.9829	0.0154
0.9896	91.3	0.9832	0.0158
1	53.3	1	0.0001
1	91.3	1	0.0001
