Measured thermophysical data. Density and Viscosity of Monoethanolamine + Water + Carbon Dioxide from (25 to 80) deg C
Source: J. Chem. Eng. Data, 2009, 10.1021/je900188m
Compound 1: 2-aminoethan-1-ol, C2H7NO, InChI=1S/C2H7NO/c3-1-2-4/h4H,1-3H2
Compound 2: water, H2O, InChI=1S/H2O/h1H2
Compound 3: carbon dioxide, CO2, InChI=1S/CO2/c2-1-3

System: 2-aminoethan-1-ol; phases: Liquid
Fixed: Pressure, kPa = 101
Property: Viscosity, Pa*s (Liquid); method: Capillary tube (Ostwald; Ubbelohde) method
Temperature, K	Viscosity, Pa*s	uncertainty
298.15	0.0199	0.00028
313.15	0.00961	0.00023
323.15	0.00672	0.00021
343.15	0.00369	0.0002
353.15	0.00285	0.0002

System: 2-aminoethan-1-ol; phases: Liquid
Fixed: Pressure, kPa = 101
Property: Mass density, kg/m3 (Liquid); method: Vibrating tube method
Temperature, K	Mass density, kg/m3	uncertainty
298.15	1012	1
313.15	1000	1
323.15	992	1
343.15	976	1
353.15	968	1

System: 2-aminoethan-1-ol + water; phases: Liquid
Fixed: Pressure, kPa = 101
Property: Viscosity, Pa*s (Liquid); method: Capillary tube (Ostwald; Ubbelohde) method
Temperature, K	Mole fraction of 2-aminoethan-1-ol	Viscosity, Pa*s	uncertainty
298.15	0.06867	0.0017	0.0002
298.15	0.11221	0.00248	0.00021
298.15	0.16431	0.00358	0.00022
298.15	0.22776	0.00551	0.00023
298.15	0.40764	0.01246	0.00029
298.15	0.72636	0.0194	0.0003
313.15	0.06867	0.00118	0.0002
313.15	0.11221	0.00167	0.0002
313.15	0.16431	0.00228	0.00021
313.15	0.22776	0.00339	0.00021
313.15	0.40764	0.00696	0.00024
313.15	0.72636	0.0102	0.00024
323.15	0.06867	0.00095	0.0002
323.15	0.11221	0.00133	0.0002
323.15	0.16431	0.00175	0.0002
323.15	0.22776	0.00254	0.00021
323.15	0.40764	0.00494	0.00022
323.15	0.72636	0.00706	0.00022
343.15	0.06867	0.00067	0.0002
343.15	0.11221	0.00092	0.0002
343.15	0.16431	0.00114	0.0002
343.15	0.22776	0.00157	0.0002
343.15	0.40764	0.00279	0.00021
343.15	0.72636	0.00381	0.00021
353.15	0.06867	0.00058	0.0002
353.15	0.11221	0.00077	0.0002
353.15	0.16431	0.00095	0.0002
353.15	0.22776	0.00128	0.0002
353.15	0.40764	0.00218	0.0002
353.15	0.72636	0.00293	0.0002

System: 2-aminoethan-1-ol + water; phases: Liquid
Fixed: Pressure, kPa = 101
Property: Mass density, kg/m3 (Liquid); method: Vibrating tube method
Temperature, K	Mole fraction of 2-aminoethan-1-ol	Mass density, kg/m3	uncertainty
298.15	0.06867	1005	5
298.15	0.11221	1011	4
298.15	0.16431	1016	4
298.15	0.22776	1021	4
298.15	0.40764	1026	2
298.15	0.72636	1020	1
313.15	0.06867	999	5
313.15	0.11221	1003	4
313.15	0.16431	1008	4
313.15	0.22776	1012	3
313.15	0.40764	1016	2
313.15	0.72636	1008	1
323.15	0.06867	994	5
323.15	0.11221	998	4
323.15	0.16431	1002	4
323.15	0.22776	1005	3
323.15	0.40764	1008	2
323.15	0.72636	1001	1
343.15	0.06867	983	5
343.15	0.11221	986	4
343.15	0.16431	989	4
343.15	0.22776	992	3
343.15	0.40764	993	2
343.15	0.72636	985	1
353.15	0.06867	977	5
353.15	0.11221	979	4
353.15	0.16431	982	4
353.15	0.22776	984	3
353.15	0.40764	985	2
353.15	0.72636	976	1

System: carbon dioxide + 2-aminoethan-1-ol + water; phases: Liquid
Fixed: Pressure, kPa = 101
Property: Viscosity, Pa*s (Liquid); method: Capillary tube (Ostwald; Ubbelohde) method
Temperature, K	Mole fraction of carbon dioxide	Mole fraction of 2-aminoethan-1-ol	Viscosity, Pa*s	uncertainty
298.15	0	0.06867	0.0017	0.0002
298.15	0	0.11221	0.00248	0.00021
298.15	0	0.16431	0.00358	0.00022
298.15	0	0.22776	0.00551	0.00023
298.15	0	0.40764	0.01246	0.00029
298.15	0	0.72636	0.0194	0.00029
298.15	0	1	0.0199	0.00028
298.15	0.00682	0.0682	0.0018	0.0002
298.15	0.0111	0.11523	0.0026	0.0002
298.15	0.01355	0.06774	0.0019	0.0002
298.15	0.01617	0.17587	0.004	0.0002
298.15	0.02019	0.06728	0.0019	0.0002
298.15	0.02195	0.11392	0.0029	0.0002
298.15	0.02673	0.06683	0.0021	0.0002
298.15	0.03182	0.17283	0.0046	0.0002
298.15	0.03257	0.11264	0.0031	0.0002
298.15	0.03319	0.06639	0.0022	0.0002
298.15	0.04296	0.11138	0.0035	0.0002
298.15	0.04698	0.1699	0.0051	0.0002
298.15	0.05313	0.11015	0.0039	0.0002
298.15	0.06167	0.16706	0.006	0.0002
298.15	0.07592	0.16431	0.007	0.0003
313.15	0	0.06867	0.00118	0.0002
313.15	0	0.11221	0.00167	0.0002
313.15	0	0.16431	0.00228	0.00021
313.15	0	0.22776	0.00339	0.00021
313.15	0	0.40764	0.00696	0.00024
313.15	0	0.72636	0.0102	0.00024
313.15	0	1	0.00961	0.00023
313.15	0.00682	0.0682	0.0013	0.0002
313.15	0.0111	0.11523	0.0017	0.0002
313.15	0.01355	0.06774	0.0013	0.0002
313.15	0.01617	0.17587	0.0025	0.0002
313.15	0.02019	0.06728	0.0013	0.0002
313.15	0.02195	0.11392	0.002	0.0002
313.15	0.02673	0.06683	0.0014	0.0002
313.15	0.03182	0.17283	0.003	0.0002
313.15	0.03257	0.11264	0.002	0.0002
313.15	0.03319	0.06639	0.0016	0.0002
313.15	0.04296	0.11138	0.0024	0.0002
313.15	0.04698	0.1699	0.0033	0.0002
313.15	0.05313	0.11015	0.0027	0.0002
313.15	0.06167	0.16706	0.004	0.0002
313.15	0.07592	0.16431	0.0046	0.0002
323.15	0	0.06867	0.00095	0.0002
323.15	0	0.11221	0.00133	0.0002
323.15	0	0.16431	0.00175	0.0002
323.15	0	0.22776	0.00254	0.00021
323.15	0	0.40764	0.00494	0.00022
323.15	0	0.72636	0.00706	0.00021
323.15	0	1	0.00672	0.00021
323.15	0.00682	0.0682	0.001	0.0002
323.15	0.0111	0.11523	0.0014	0.0002
323.15	0.01355	0.06774	0.001	0.0002
323.15	0.01617	0.17587	0.002	0.0002
323.15	0.02019	0.06728	0.0011	0.0002
323.15	0.02195	0.11392	0.0016	0.0002
323.15	0.02673	0.06683	0.0012	0.0002
323.15	0.03182	0.17283	0.0023	0.0002
323.15	0.03257	0.11264	0.0016	0.0002
323.15	0.03319	0.06639	0.0013	0.0002
323.15	0.04296	0.11138	0.0019	0.0002
323.15	0.04698	0.1699	0.0026	0.0002
323.15	0.05313	0.11015	0.0021	0.0002
323.15	0.06167	0.16706	0.0031	0.0002
323.15	0.07592	0.16431	0.0038	0.0002
343.15	0	0.06867	0.00067	0.0002
343.15	0	0.11221	0.00092	0.0002
343.15	0	0.16431	0.00114	0.0002
343.15	0	0.22776	0.00157	0.0002
343.15	0	0.40764	0.00279	0.00021
343.15	0	0.72636	0.00381	0.0002
343.15	0	1	0.00369	0.0002
343.15	0.00682	0.0682	0.0007	0.0002
343.15	0.0111	0.11523	0.0009	0.0002
343.15	0.01355	0.06774	0.0007	0.0002
343.15	0.01617	0.17587	0.0013	0.0002
343.15	0.02019	0.06728	0.0008	0.0002
343.15	0.02195	0.11392	0.0011	0.0002
343.15	0.02673	0.06683	0.0008	0.0002
343.15	0.03182	0.17283	0.0015	0.0002
343.15	0.03257	0.11264	0.0011	0.0002
343.15	0.03319	0.06639	0.0009	0.0002
343.15	0.04296	0.11138	0.0013	0.0002
343.15	0.04698	0.1699	0.0017	0.0002
343.15	0.05313	0.11015	0.0015	0.0002
343.15	0.06167	0.16706	0.002	0.0002
343.15	0.07592	0.16431	0.0023	0.0002
353.15	0	0.06867	0.00058	0.0002
353.15	0	0.11221	0.00077	0.0002
353.15	0	0.16431	0.00095	0.0002
353.15	0	0.22776	0.00128	0.0002
353.15	0	0.40764	0.00218	0.0002
353.15	0	0.72636	0.00293	0.0002
353.15	0	1	0.00285	0.0002
353.15	0.00682	0.0682	0.0006	0.0002
353.15	0.0111	0.11523	0.0008	0.0002
353.15	0.01355	0.06774	0.0006	0.0002
353.15	0.01617	0.17587	0.0011	0.0002
353.15	0.02019	0.06728	0.0007	0.0002
353.15	0.02195	0.11392	0.0009	0.0002
353.15	0.02673	0.06683	0.0007	0.0002
353.15	0.03182	0.17283	0.0013	0.0002
353.15	0.03257	0.11264	0.0009	0.0002
353.15	0.03319	0.06639	0.0008	0.0002
353.15	0.04296	0.11138	0.0011	0.0002
353.15	0.04698	0.1699	0.0014	0.0002
353.15	0.05313	0.11015	0.0013	0.0002
353.15	0.06167	0.16706	0.0017	0.0002
353.15	0.07592	0.16431	0.0019	0.0002

System: carbon dioxide + 2-aminoethan-1-ol + water; phases: Liquid
Fixed: Pressure, kPa = 101
Property: Mass density, kg/m3 (Liquid); method: Vibrating tube method
Temperature, K	Mole fraction of carbon dioxide	Mole fraction of 2-aminoethan-1-ol	Mass density, kg/m3	uncertainty
298.15	0	0.06867	1005	5
298.15	0	0.11221	1011	4
298.15	0	0.16431	1016	4
298.15	0	0.22776	1021	4
298.15	0	0.40764	1026	2
298.15	0	0.72636	1020	1
298.15	0	1	1012	1
298.15	0.00682	0.0682	1019	5
298.15	0.0111	0.11523	1028	5
298.15	0.01355	0.06774	1033	5
298.15	0.01617	0.17587	1038	4
298.15	0.02019	0.06728	1048	5
298.15	0.02195	0.11392	1048	5
298.15	0.02673	0.06683	1064	5
298.15	0.03182	0.17283	1063	4
298.15	0.03257	0.11264	1070	5
298.15	0.03319	0.06639	1080	6
298.15	0.04296	0.11138	1096	5
298.15	0.04698	0.1699	1093	5
298.15	0.05313	0.11015	1121	6
298.15	0.06167	0.16706	1129	5
298.15	0.07592	0.16431	1160	5
313.15	0	0.06867	999	5
313.15	0	0.11221	1003	4
313.15	0	0.16431	1008	4
313.15	0	0.22776	1012	3
313.15	0	0.40764	1016	2
313.15	0	0.72636	1008	1
313.15	0	1	1000	1
313.15	0.00682	0.0682	1013	5
313.15	0.0111	0.11523	1021	5
313.15	0.01355	0.06774	1026	5
313.15	0.01617	0.17587	1030	4
313.15	0.02019	0.06728	1041	5
313.15	0.02195	0.11392	1041	5
313.15	0.02673	0.06683	1058	5
313.15	0.03182	0.17283	1055	4
313.15	0.03257	0.11264	1063	5
313.15	0.03319	0.06639	1074	6
313.15	0.04296	0.11138	1088	5
313.15	0.04698	0.1699	1085	5
313.15	0.05313	0.11015	1114	5
313.15	0.06167	0.16706	1121	5
323.15	0	0.06867	994	5
323.15	0	0.11221	998	4
323.15	0	0.16431	1002	4
323.15	0	0.22776	1005	3
323.15	0	0.40764	1008	2
323.15	0	0.72636	1001	1
323.15	0	1	992	1
323.15	0.00682	0.0682	1008	5
323.15	0.0111	0.11523	1016	4
323.15	0.01355	0.06774	1022	5
323.15	0.01617	0.17587	1024	4
323.15	0.02019	0.06728	1036	5
323.15	0.02195	0.11392	1036	5
323.15	0.02673	0.06683	1053	5
323.15	0.03182	0.17283	1049	4
323.15	0.03257	0.11264	1058	5
323.15	0.03319	0.06639	1068	5
323.15	0.04296	0.11138	1083	5
323.15	0.04698	0.1699	1080	5
323.15	0.05313	0.11015	1108	5
323.15	0.06167	0.16706	1115	5
343.15	0	0.06867	983	5
343.15	0	0.11221	986	4
343.15	0	0.16431	989	4
343.15	0	0.22776	992	3
343.15	0	0.40764	993	2
343.15	0	0.72636	985	1
343.15	0	1	976	1
343.15	0.00682	0.0682	997	5
343.15	0.0111	0.11523	1004	4
343.15	0.01355	0.06774	1011	5
343.15	0.01617	0.17587	1012	4
343.15	0.02019	0.06728	1025	5
343.15	0.02195	0.11392	1024	5
343.15	0.02673	0.06683	1042	5
343.15	0.03182	0.17283	1037	4
343.15	0.03257	0.11264	1046	5
343.15	0.03319	0.06639	1057	5
343.15	0.04296	0.11138	1072	5
343.15	0.04698	0.1699	1068	4
343.15	0.06167	0.16706	1104	5
353.15	0	0.06867	977	5
353.15	0	0.11221	979	4
353.15	0	0.16431	982	4
353.15	0	0.22776	984	3
353.15	0	0.40764	985	2
353.15	0	0.72636	976	1
353.15	0	1	968	1
353.15	0.00682	0.0682	990	5
353.15	0.0111	0.11523	997	4
353.15	0.01355	0.06774	1004	5
353.15	0.01617	0.17587	1005	4
353.15	0.02019	0.06728	1019	5
353.15	0.02195	0.11392	1018	5
353.15	0.02673	0.06683	1036	5
353.15	0.03182	0.17283	1031	4
353.15	0.03257	0.11264	1040	5
353.15	0.04296	0.11138	1066	5
353.15	0.04698	0.1699	1062	4
353.15	0.06167	0.16706	1098	5
