Measured thermophysical data. Salting-Out Effect, Preferential Exclusion, and Phase Separation in Aqueous Solutions of Chaotropic Water-Miscible Ionic Liquids and Kosmotropic Salts: Effects of Temperature, Anions, and Cations
Source: J. Chem. Eng. Data, 2010, 10.1021/je900681b
Compound 1: 1-butyl-3-methylimidazolium chloride, C8H15ClN2, InChI=1S/C8H15N2.ClH/c1-3-4-5-10-7-6-9(2)8-10;/h6-8H,3-5H2,1-2H3;1H/q+1;/p-1, purity 98%
Compound 2: 1-butyl-3-methylimidazolium bromide, C8H15BrN2, InChI=1S/C8H15N2.BrH/c1-3-4-5-10-7-6-9(2)8-10;/h6-8H,3-5H2,1-2H3;1H/q+1;/p-1, purity 98%
Compound 3: potassium citrate, C6H5K3O7, InChI=1S/C6H8O7.3K/c7-3(8)1-6(13,5(11)12)2-4(9)10;;;/h13H,1-2H2,(H,7,8)(H,9,10)(H,11,12);;;/q;3*+1/p-3, purity 99%
Compound 4: trisodium citrate, C6H5Na3O7, InChI=1S/C6H8O7.3Na/c7-3(8)1-6(13,5(11)12)2-4(9)10;;;/h13H,1-2H2,(H,7,8)(H,9,10)(H,11,12);;;/q;3*+1/p-3, purity 99%
Compound 5: water, H2O, InChI=1S/H2O/h1H2, purity 99.9%
Compound 6: tripotassium phosphate, K3O4P, InChI=1S/3K.H3O4P/c;;;1-5(2,3)4/h;;;(H3,1,2,3,4)/q3*+1;/p-3
Compound 7: dipotassium hydrogen phosphate, HK2O4P, InChI=1S/2K.H3O4P/c;;1-5(2,3)4/h;;(H3,1,2,3,4)/q2*+1;/p-2
Compound 8: potassium carbonate, CK2O3, InChI=1S/CH2O3.2K/c2-1(3)4;;/h(H2,2,3,4);;/q;2*+1/p-2

System: potassium citrate + water + 1-butyl-3-methylimidazolium chloride; phases: Liquid mixture 1, Liquid mixture 2
Fixed: Pressure, kPa = 101
Property: Mass fraction of potassium citrate (Liquid mixture 1); method: Titration method
Temperature, K	Mass fraction of 1-butyl-3-methylimidazolium chloride	Mass fraction of potassium citrate	uncertainty
278.15	0.2409	0.2814	0.0087
278.15	0.2669	0.2545	0.0079
278.15	0.2873	0.2335	0.0072
278.15	0.3078	0.2125	0.0066
278.15	0.3275	0.1941	0.006
278.15	0.3459	0.1774	0.0055
278.15	0.3671	0.1581	0.0049
278.15	0.3894	0.1413	0.0044
278.15	0.4014	0.133	0.0041
278.15	0.428	0.1102	0.0034
278.15	0.4786	0.0771	0.0024
278.15	0.5356	0.0476	0.0015
278.15	0.5949	0.024	0.0007
278.15	0.6312	0.0156	0.0005
298.15	0.2535	0.2839	0.0088
298.15	0.283	0.2579	0.008
298.15	0.3093	0.2311	0.0072
298.15	0.3231	0.2182	0.0068
298.15	0.3374	0.2048	0.0063
298.15	0.3492	0.1937	0.006
298.15	0.359	0.1849	0.0057
298.15	0.3744	0.1704	0.0053
298.15	0.3898	0.1584	0.0049
298.15	0.4008	0.1484	0.0046
298.15	0.4092	0.1415	0.0044
298.15	0.4291	0.1265	0.0039
298.15	0.4381	0.1219	0.0038
298.15	0.4454	0.1153	0.0036
298.15	0.4529	0.1091	0.0034
298.15	0.4639	0.1022	0.0032
298.15	0.4723	0.0964	0.003
298.15	0.485	0.0882	0.0027
318.15	0.3173	0.2391	0.0074
318.15	0.3401	0.2179	0.0068
318.15	0.3571	0.2018	0.0063
318.15	0.3778	0.1831	0.0057
318.15	0.3945	0.1687	0.0052
318.15	0.4161	0.1515	0.0047
318.15	0.4404	0.1322	0.0041
318.15	0.466	0.1137	0.0035
318.15	0.4852	0.1019	0.0032
318.15	0.5132	0.085	0.0026
318.15	0.5667	0.0589	0.0018
318.15	0.5935	0.0447	0.0014

System: potassium citrate + water + 1-butyl-3-methylimidazolium chloride; phases: Liquid mixture 1, Liquid mixture 2
Fixed: Pressure, kPa = 101.3
Property: Mass fraction of potassium citrate (Liquid mixture 1); method: Titration method
Property: Mass fraction of 1-butyl-3-methylimidazolium chloride (Liquid mixture 2); method: Titration method
Property: Mass fraction of potassium citrate (Liquid mixture 2); method: Titration method
Temperature, K	Mass fraction of 1-butyl-3-methylimidazolium chloride	Mass fraction of potassium citrate	uncertainty	Mass fraction of 1-butyl-3-methylimidazolium chloride	uncertainty	Mass fraction of potassium citrate	uncertainty
278.15	0.5913	0.0323	0.0029	0.0213	0.0067	0.614	
278.15	0.5654	0.0434	0.0031	0.0333	0.0067	0.5716	
278.15	0.5374	0.0566	0.0033	0.043	0.0067	0.5441	
278.15	0.4841	0.082	0.0037	0.0558	0.0068	0.4949	
298.15	0.6114	0.0363	0.0029	0.0398	0.0074	0.6233	
298.15	0.5888	0.0457	0.0031	0.0547	0.0067	0.5821	
298.15	0.5373	0.0684	0.0034	0.0599	0.0068	0.5567	
298.15	0.4986	0.0876	0.0039	0.0687	0.007	0.525	
298.15	0.4502	0.1152	0.0045	0.0824	0.0072	0.4886	
318.15	0.6005	0.044	0.0031	0.0297	0.0065	0.6176	
318.15	0.5726	0.0568	0.0032	0.0346	0.0065	0.5912	
318.15	0.5259	0.0776	0.0036	0.0396	0.0067	0.5536	
318.15	0.4991	0.0912	0.0039	0.0534	0.0071	0.5224	

System: trisodium citrate + water + 1-butyl-3-methylimidazolium bromide; phases: Liquid mixture 1, Liquid mixture 2
Fixed: Pressure, kPa = 101
Property: Mass fraction of trisodium citrate (Liquid mixture 1); method: Titration method
Temperature, K	Mass fraction of 1-butyl-3-methylimidazolium bromide	Mass fraction of trisodium citrate	uncertainty
278.15	0.3486	0.1018	0.0032
278.15	0.3563	0.0969	0.003
278.15	0.3635	0.0933	0.0029
278.15	0.3766	0.0853	0.0026
278.15	0.3976	0.0718	0.0022
278.15	0.4333	0.0595	0.0018
278.15	0.4632	0.0482	0.0015
278.15	0.5194	0.0312	0.001
298.15	0.2281	0.1969	0.0061
298.15	0.2783	0.1616	0.005
298.15	0.3148	0.1377	0.0043
298.15	0.3364	0.124	0.0038
298.15	0.3485	0.1162	0.0036
298.15	0.3595	0.1093	0.0034
298.15	0.3955	0.0911	0.0028
298.15	0.4356	0.0711	0.0022
298.15	0.4434	0.0672	0.0021
318.15	0.3569	0.1214	0.0038
318.15	0.3771	0.1095	0.0034
318.15	0.39	0.1021	0.0032
318.15	0.4	0.0966	0.003
318.15	0.4109	0.0907	0.0028
318.15	0.4234	0.0847	0.0026
318.15	0.4366	0.0783	0.0024
318.15	0.4494	0.0714	0.0022
318.15	0.4655	0.0644	0.002
318.15	0.484	0.057	0.0018
318.15	0.5057	0.0494	0.0015
318.15	0.5381	0.0393	0.0012

System: trisodium citrate + water + 1-butyl-3-methylimidazolium bromide; phases: Liquid mixture 1, Liquid mixture 2
Fixed: Pressure, kPa = 101.3
Property: Mass fraction of trisodium citrate (Liquid mixture 1); method: Titration method
Property: Mass fraction of trisodium citrate (Liquid mixture 2); method: Titration method
Property: Mass fraction of 1-butyl-3-methylimidazolium bromide (Liquid mixture 2); method: Titration method
Temperature, K	Mass fraction of 1-butyl-3-methylimidazolium bromide	Mass fraction of trisodium citrate	uncertainty	Mass fraction of trisodium citrate	uncertainty	Mass fraction of 1-butyl-3-methylimidazolium bromide	uncertainty
278.15	0.5431	0.0246	0.0017	0.3855	0.033	0.0343	
278.15	0.5183	0.0303	0.0018	0.3672	0.033	0.0416	
278.15	0.5013	0.0348	0.0019	0.3569	0.0237	0.0456	
278.15	0.4865	0.0397	0.0021	0.3371	0.0212	0.0593	
278.15	0.4388	0.0577	0.0024	0.3037	0.0204	0.0837	
278.15	0.4033	0.0707	0.0027	0.2835	0.0197	0.0992	
298.15	0.5079	0.0419	0.0022	0.3583	0.0223	0.0576	
298.15	0.4902	0.0483	0.0024	0.3409	0.0207	0.0696	
298.15	0.4626	0.0611	0.0026	0.319	0.0193	0.0869	
298.15	0.4215	0.0786	0.0029	0.2927	0.0188	0.109	
318.15	0.5216	0.042	0.002	0.3728	0.0218	0.0618	
318.15	0.4995	0.0479	0.0022	0.3529	0.0236	0.076	
318.15	0.4721	0.0585	0.0025	0.3313	0.0209	0.0871	
318.15	0.4242	0.0804	0.003	0.3095	0.0197	0.1069	
318.15	0.3879	0.0998	0.0035	0.2826	0.0211	0.1254	

System: water + tripotassium phosphate + 1-butyl-3-methylimidazolium chloride; phases: Liquid mixture 1, Liquid mixture 2
Fixed: Pressure, kPa = 101
Fixed: Temperature, K = 298.15
Property: Mass fraction of tripotassium phosphate (Liquid mixture 1); method: Titration method
Mass fraction of 1-butyl-3-methylimidazolium chloride	Mass fraction of tripotassium phosphate	uncertainty
0.037	0.3011	0.0093
0.0437	0.2943	0.0091
0.0483	0.2879	0.0089
0.0575	0.2725	0.0084
0.064	0.2646	0.0082
0.071	0.256	0.0079
0.0785	0.2469	0.0077
0.0882	0.2367	0.0073
0.0975	0.2274	0.007
0.1059	0.2189	0.0068
0.1138	0.2113	0.0065
0.1222	0.2035	0.0063
0.131	0.1951	0.006
0.1411	0.186	0.0058
0.153	0.1754	0.0054
0.1679	0.1634	0.0051
0.1816	0.152	0.0047
0.1949	0.1414	0.0044
0.2169	0.1246	0.0039
0.2383	0.1099	0.0034
0.2712	0.0891	0.0028
0.2998	0.0739	0.0023
0.3577	0.0484	0.0015
0.4126	0.0296	0.0009
0.4608	0.0195	0.0006
0.5172	0.0146	0.0005

System: water + dipotassium hydrogen phosphate + 1-butyl-3-methylimidazolium chloride; phases: Liquid mixture 1, Liquid mixture 2
Fixed: Pressure, kPa = 101
Fixed: Temperature, K = 298.15
Property: Mass fraction of dipotassium hydrogen phosphate (Liquid mixture 1); method: Titration method
Mass fraction of 1-butyl-3-methylimidazolium chloride	Mass fraction of dipotassium hydrogen phosphate	uncertainty
0.0341	0.3491	0.0108
0.0512	0.3187	0.0099
0.0617	0.3014	0.0093
0.0757	0.2822	0.0087
0.0866	0.268	0.0083
0.0982	0.2537	0.0079
0.1132	0.2364	0.0073
0.1319	0.2158	0.0067
0.1508	0.1965	0.0061
0.1702	0.1764	0.0055
0.1943	0.1539	0.0048
0.2218	0.1303	0.004
0.2494	0.1101	0.0034
0.2818	0.0879	0.0027
0.3158	0.07	0.0022
0.3572	0.0513	0.0016
0.3895	0.0397	0.0012
0.4198	0.0315	0.001
0.4638	0.0217	0.0007
0.4901	0.0167	0.0005

System: potassium carbonate + water + 1-butyl-3-methylimidazolium chloride; phases: Liquid mixture 1, Liquid mixture 2
Fixed: Temperature, K = 298.15
Fixed: Pressure, kPa = 101
Property: Mass fraction of potassium carbonate (Liquid mixture 1); method: Titration method
Mass fraction of 1-butyl-3-methylimidazolium chloride	Mass fraction of potassium carbonate	uncertainty
0.046	0.313	0.0097
0.0498	0.3077	0.0095
0.0571	0.2982	0.0092
0.072	0.2798	0.0087
0.0861	0.2644	0.0082
0.1022	0.2489	0.0077
0.1194	0.2338	0.0072
0.1374	0.218	0.0068
0.139	0.2164	0.0067
0.1569	0.2016	0.0062
0.1744	0.1879	0.0058
0.1925	0.1737	0.0054
0.2118	0.1595	0.0049
0.2313	0.1454	0.0045
0.2513	0.132	0.0041
0.2719	0.1189	0.0037
0.2912	0.1074	0.0033
0.3116	0.0965	0.003
0.3377	0.0831	0.0026
0.3636	0.0716	0.0022
0.3881	0.0613	0.0019
0.4061	0.0544	0.0017
0.4207	0.0502	0.0016
0.434	0.0455	0.0014
0.4443	0.0424	0.0013
0.4586	0.0395	0.0012
0.4741	0.0343	0.0011
0.4904	0.0308	0.001
0.5082	0.0271	0.0008
0.5715	0.0168	0.0005
