Measured thermophysical data. Measurements of the Isobaric Specific Heat Capacity and Density for Dimethyl Ether in the Liquid State
Source: J. Chem. Eng. Data, 2010, 10.1021/je900922x
Compound 1: dimethyl ether, C2H6O, InChI=1S/C2H6O/c1-3-2/h1-2H3

System: dimethyl ether; phases: Liquid
Property: Molar heat capacity at constant pressure, J/K/mol (Liquid); method: metal-bellows calorimeter
Temperature, K	Pressure, kPa	Molar heat capacity at constant pressure, J/K/mol	uncertainty
310	2000	123.9241036	5.9888972
310	3000	122.081366	5.9888972
310	4000	121.6206816	5.9888972
310	5000	121.1599972	5.9888972
320	2000	127.6095788	6.4495816
320	3000	125.7668412	6.4495816
320	4000	124.8454724	6.4495816
320	5000	124.8454724	6.4495816
330	2000	131.295054	6.4495816
330	3000	128.5309476	6.4495816
330	4000	128.0702632	6.4495816
330	5000	127.1488944	6.4495816
340	2000	137.7446356	6.910266
340	3000	134.9805292	6.910266
340	4000	132.2164228	6.4495816
340	5000	129.4523164	6.4495816
350	3000	140.508742	6.910266
350	4000	137.2839512	6.910266
350	5000	132.6771072	6.4495816
360	3000	153.8685896	7.8316348
360	4000	145.115586	7.3709504
360	5000	136.3625824	6.910266

System: dimethyl ether; phases: Liquid
Property: Mass density, kg/m3 (Liquid); method: Pycnometric method
Temperature, K	Pressure, kPa	Mass density, kg/m3	uncertainty
310	2000	643.5	1.8
310	3000	646	1.8
310	4000	648	1.8
310	5000	650.2	1.7
320	2000	626	1.8
320	3000	628.7	1.8
320	4000	631.1	1.8
320	5000	634.3	1.7
330	2000	606.5	1.9
330	3000	609.8	1.9
330	4000	613.4	1.8
330	5000	616.5	1.8
340	2000	585.3	1.9
340	3000	589.6	1.9
340	4000	593.6	1.9
340	5000	597.4	1.9
350	3000	566.8	2.1
350	4000	572	2
350	5000	576.7	1.9
360	3000	540.2	2.2
360	4000	547.4	2.1
360	5000	553.5	2
