Measured thermophysical data. Comparison of the Efficiencies of Amine Extractants on Lactic Acid with Different Organic Solvents
Source: J. Chem. Eng. Data, 2011, 10.1021/je900446d
Compound 1: tridodecylamine, C36H75N, InChI=1S/C36H75N/c1-4-7-10-13-16-19-22-25-28-31-34-37(35-32-29-26-23-20-17-14-11-8-5-2)36-33-30-27-24-21-18-15-12-9-6-3/h4-36H2,1-3H3
Compound 2: 2-hydroxypropanoic acid, C3H6O3, InChI=1S/C3H6O3/c1-2(4)3(5)6/h2,4H,1H3,(H,5,6)
Compound 3: toluene, C7H8, InChI=1S/C7H8/c1-7-5-3-2-4-6-7/h2-6H,1H3
Compound 4: octan-1-ol, C8H18O, InChI=1S/C8H18O/c1-2-3-4-5-6-7-8-9/h9H,2-8H2,1H3
Compound 5: 2,2,4-trimethylpentane, C8H18, InChI=1S/C8H18/c1-7(2)6-8(3,4)5/h7H,6H2,1-5H3
Compound 6: cyclohexane, C6H12, InChI=1S/C6H12/c1-2-4-6-5-3-1/h1-6H2
Compound 7: 4-methylpentan-2-one, C6H12O, InChI=1S/C6H12O/c1-5(2)4-6(3)7/h5H,4H2,1-3H3

System: 2-hydroxypropanoic acid + tridodecylamine + toluene; phases: Liquid mixture 1, Liquid mixture 2
Fixed: Temperature, K = 298
Fixed: Pressure, kPa = 101
Property: Amount concentration (molarity), mol/dm3 of 2-hydroxypropanoic acid (Liquid mixture 1); method: titration
Amount concentration (molarity), mol/dm3 of tridodecylamine	Amount concentration (molarity), mol/dm3 of 2-hydroxypropanoic acid	uncertainty
0.22	1.05	0.06
0.52	0.71	0.04
0.94	0.54	0.03
1.57	0.44	0.03
2.62	0.35	0.02

System: 2-hydroxypropanoic acid + tridodecylamine + toluene; phases: Liquid mixture 2, Liquid mixture 1
Fixed: Temperature, K = 298
Fixed: Pressure, kPa = 101
Property: Amount concentration (molarity), mol/dm3 of 2-hydroxypropanoic acid (Liquid mixture 2); method: titration
Amount concentration (molarity), mol/dm3 of tridodecylamine	Amount concentration (molarity), mol/dm3 of 2-hydroxypropanoic acid	uncertainty
0.22	0.06	0.01
0.52	0.39	0.02
0.94	0.57	0.03
1.57	0.67	0.04
2.62	0.76	0.05

System: 2-hydroxypropanoic acid + tridodecylamine + octan-1-ol; phases: Liquid mixture 2, Liquid mixture 1
Fixed: Temperature, K = 298
Fixed: Pressure, kPa = 101
Property: Amount concentration (molarity), mol/dm3 of 2-hydroxypropanoic acid (Liquid mixture 2); method: titration
Amount concentration (molarity), mol/dm3 of tridodecylamine	Amount concentration (molarity), mol/dm3 of 2-hydroxypropanoic acid	uncertainty
0.22	0.3	0.02
0.52	0.5	0.03
0.94	0.66	0.04
1.57	0.79	0.05
2.62	0.9	0.05

System: 2-hydroxypropanoic acid + tridodecylamine + octan-1-ol; phases: Liquid mixture 1, Liquid mixture 2
Fixed: Temperature, K = 298
Fixed: Pressure, kPa = 101
Property: Amount concentration (molarity), mol/dm3 of 2-hydroxypropanoic acid (Liquid mixture 1); method: titration
Amount concentration (molarity), mol/dm3 of tridodecylamine	Amount concentration (molarity), mol/dm3 of 2-hydroxypropanoic acid	uncertainty
0.22	0.81	0.05
0.52	0.61	0.04
0.94	0.45	0.03
1.57	0.32	0.02
2.62	0.21	0.01

System: 2-hydroxypropanoic acid + tridodecylamine + 4-methylpentan-2-one; phases: Liquid mixture 1, Liquid mixture 2
Fixed: Temperature, K = 298
Fixed: Pressure, kPa = 101
Property: Amount concentration (molarity), mol/dm3 of 2-hydroxypropanoic acid (Liquid mixture 1); method: titration
Amount concentration (molarity), mol/dm3 of tridodecylamine	Amount concentration (molarity), mol/dm3 of 2-hydroxypropanoic acid	uncertainty
0.22	0.83	0.05
0.52	0.6	0.04
0.94	0.45	0.03
1.57	0.32	0.02
2.62	0.28	0.02

System: 2-hydroxypropanoic acid + tridodecylamine + 4-methylpentan-2-one; phases: Liquid mixture 2, Liquid mixture 1
Fixed: Temperature, K = 298
Fixed: Pressure, kPa = 101
Property: Amount concentration (molarity), mol/dm3 of 2-hydroxypropanoic acid (Liquid mixture 2); method: titration
Amount concentration (molarity), mol/dm3 of tridodecylamine	Amount concentration (molarity), mol/dm3 of 2-hydroxypropanoic acid	uncertainty
0.22	0.28	0.02
0.52	0.51	0.03
0.94	0.66	0.04
1.57	0.79	0.05
2.62	0.83	0.05

System: 2-hydroxypropanoic acid + tridodecylamine + 2,2,4-trimethylpentane; phases: Liquid mixture 2, Liquid mixture 1
Fixed: Temperature, K = 298
Fixed: Pressure, kPa = 101
Property: Amount concentration (molarity), mol/dm3 of 2-hydroxypropanoic acid (Liquid mixture 2); method: titration
Amount concentration (molarity), mol/dm3 of tridodecylamine	Amount concentration (molarity), mol/dm3 of 2-hydroxypropanoic acid	uncertainty
0.22	0.15	0.01
0.52	0.21	0.01
0.94	0.4	0.02
1.57	0.41	0.03
2.62	0.6	0.04

System: 2-hydroxypropanoic acid + tridodecylamine + 2,2,4-trimethylpentane; phases: Liquid mixture 1, Liquid mixture 2
Fixed: Temperature, K = 298
Fixed: Pressure, kPa = 101
Property: Amount concentration (molarity), mol/dm3 of 2-hydroxypropanoic acid (Liquid mixture 1); method: titration
Amount concentration (molarity), mol/dm3 of tridodecylamine	Amount concentration (molarity), mol/dm3 of 2-hydroxypropanoic acid	uncertainty
0.22	0.96	0.06
0.52	0.9	0.05
0.94	0.71	0.04
1.57	0.7	0.04
2.62	0.51	0.03

System: 2-hydroxypropanoic acid + tridodecylamine + cyclohexane; phases: Liquid mixture 1, Liquid mixture 2
Fixed: Temperature, K = 298
Fixed: Pressure, kPa = 101
Property: Amount concentration (molarity), mol/dm3 of 2-hydroxypropanoic acid (Liquid mixture 1); method: titration
Amount concentration (molarity), mol/dm3 of tridodecylamine	Amount concentration (molarity), mol/dm3 of 2-hydroxypropanoic acid	uncertainty
0.22	1.08	0.07
0.52	1.05	0.06
0.94	0.97	0.06
1.57	0.83	0.05
2.62	0.66	0.04

System: 2-hydroxypropanoic acid + tridodecylamine + cyclohexane; phases: Liquid mixture 2, Liquid mixture 1
Fixed: Temperature, K = 298
Fixed: Pressure, kPa = 101
Property: Amount concentration (molarity), mol/dm3 of 2-hydroxypropanoic acid (Liquid mixture 2); method: titration
Amount concentration (molarity), mol/dm3 of tridodecylamine	Amount concentration (molarity), mol/dm3 of 2-hydroxypropanoic acid	uncertainty
0.22	0.03	0.01
0.52	0.06	0.01
0.94	0.14	0.01
1.57	0.28	0.02
2.62	0.45	0.03
