Measured thermophysical data. Solubility of N-(Phosphonomethyl) Iminodiacetic Acid in Aqueous Sodium Chloride Solutions from (292 to 353) K
Source: J. Chem. Eng. Data, 2010, 10.1021/je9005745
Compound 1: N-(carboxymethyl)-N-(phosphonomethyl)glycine, C5H10NO7P, InChI=1S/C5H10NO7P/c7-4(8)1-6(2-5(9)10)3-14(11,12)13/h1-3H2,(H,7,8)(H,9,10)(H2,11,12,13), purity 99.2%
Compound 2: sodium chloride, ClNa, InChI=1S/ClH.Na/h1H;/q;+1/p-1, purity 99.5%
Compound 3: water, H2O, InChI=1S/H2O/h1H2, purity 99.5%

System: N-(carboxymethyl)-N-(phosphonomethyl)glycine + sodium chloride + water; phases: Liquid, Crystal
Fixed: Pressure, kPa = 101
Property: Mole fraction of N-(carboxymethyl)-N-(phosphonomethyl)glycine (Liquid); method: Laser Beam Observation
Solvent: Molality, mol/kg of sodium chloride	Temperature, K	Mole fraction of N-(carboxymethyl)-N-(phosphonomethyl)glycine	uncertainty
0	294.25	0.0006063	2.44e-05
0	303.75	0.0007348	2.96e-05
0	313.05	0.0008632	3.48e-05
0	323.15	0.001103	4.4e-05
0	333.55	0.001408	5.7e-05
0	338.45	0.00156	6.3e-05
0	343.77	0.001852	7.5e-05
0	353.57	0.002443	9.8e-05
0.8558	292.5	0.0006034	2.43e-05
0.8558	305.1	0.0008067	3.25e-05
0.8558	313.25	0.0009815	3.95e-05
0.8558	323.55	0.00121	4.9e-05
0.8558	333.35	0.001502	6.1e-05
0.8558	338.25	0.001678	6.8e-05
0.8558	343.55	0.001929	7.8e-05
0.8558	353.67	0.002535	0.000102
1.711	292.75	0.000554	2.2e-05
1.711	304.15	0.0007153	2.88e-05
1.711	313.1	0.0008573	3.45e-05
1.711	323.2	0.001054	4.2e-05
1.711	333.2	0.001302	5.2e-05
1.711	337.97	0.001453	5.9e-05
1.711	342.75	0.001687	6.8e-05
1.711	353.07	0.002264	9.1e-05
2.567	292.87	0.0004983	2.01e-05
2.567	304.25	0.000664	2.68e-05
2.567	312.95	0.0007942	3.2e-05
2.567	322.85	0.000959	3.86e-05
2.567	333.05	0.001178	4.7e-05
2.567	337.7	0.001313	5.3e-05
2.567	342.55	0.001521	6.1e-05
2.567	352.6	0.002036	8.2e-05
3.422	292.57	0.0004592	1.85e-05
3.422	303.25	0.0005501	2.22e-05
3.422	313.8	0.0007033	2.83e-05
3.422	323.25	0.0008559	3.45e-05
3.422	333.5	0.00111	4.5e-05
3.422	339.05	0.001276	5.1e-05
3.422	343.65	0.001428	5.8e-05
3.422	353.45	0.001835	7.4e-05
4.277	292.8	0.0004206	1.69e-05
4.277	303.15	0.0005019	2.02e-05
4.277	313.25	0.0006217	2.5e-05
4.277	322.7	0.0007727	3.11e-05
4.277	332.55	0.000996	4.01e-05
4.277	337.65	0.001126	4.5e-05
4.277	342.85	0.001286	5.2e-05
4.277	353.18	0.001655	6.7e-05
5.134	292.95	0.0003899	1.57e-05
5.134	302.84	0.000456	1.84e-05
5.134	313.05	0.0005555	2.24e-05
5.134	322.27	0.0006929	2.79e-05
5.134	332.35	0.0009136	3.68e-05
5.134	337.3	0.001017	4.1e-05
5.134	342.35	0.001168	4.7e-05
5.134	353	0.00154	6.2e-05
