Measured thermophysical data. Mixing Properties for Binary Liquid Mixtures of Methyl tert-Butyl Ether with Propylamine and Dipropylamine at Temperatures from (288.15 to 308.15) K
Source: J. Chem. Eng. Data, 2010, 10.1021/je900597n
Compound 1: 2-methoxy-2-methylpropane, C5H12O, InChI=1S/C5H12O/c1-5(2,3)6-4/h1-4H3
Compound 2: propan-1-amine, C3H9N, InChI=1S/C3H9N/c1-2-3-4/h2-4H2,1H3
Compound 3: dipropylamine, C6H15N, InChI=1S/C6H15N/c1-3-5-7-6-4-2/h7H,3-6H2,1-2H3

System: 2-methoxy-2-methylpropane; phases: Liquid
Fixed: Pressure, kPa = 101
Property: Speed of sound, m/s (Liquid); method: Pulse-echo method
Temperature, K	Speed of sound, m/s	uncertainty
288.15	1086.62	1.15
288.15	1086.92	1.15
293.15	1063.43	1.15
298.15	1040.35	1.15
303.15	1017.42	1.14
308.15	994.68	1.14

System: 2-methoxy-2-methylpropane; phases: Liquid
Fixed: Pressure, kPa = 101
Property: Mass density, kg/m3 (Liquid); method: VIBTUB:UFactor:4
Temperature, K	Mass density, kg/m3	uncertainty
288.15	747.273	0.814
293.15	742.072	0.823
298.15	736.826	0.831
303.15	731.532	0.84
308.15	726.185	0.849

System: propan-1-amine; phases: Liquid
Fixed: Pressure, kPa = 101
Property: Speed of sound, m/s (Liquid); method: Pulse-echo method
Temperature, K	Speed of sound, m/s	uncertainty
288.15	1266.07	1.19
293.15	1242.02	1.19
298.15	1217.97	1.18
303.15	1193.96	1.18
308.15	1169.93	1.17

System: propan-1-amine; phases: Liquid
Fixed: Pressure, kPa = 101
Property: Mass density, kg/m3 (Liquid); method: VIBTUB::UFactor:4
Temperature, K	Mass density, kg/m3	uncertainty
288.15	725.08	0.851
293.15	719.859	0.859
298.15	714.586	0.868
303.15	709.269	0.877
308.15	703.911	0.886

System: dipropylamine; phases: Liquid
Fixed: Pressure, kPa = 101
Property: Speed of sound, m/s (Liquid); method: Pulse-echo method
Temperature, K	Speed of sound, m/s	uncertainty
288.15	1235.06	1.18
293.15	1213.41	1.18
298.15	1191.86	1.17
303.15	1170.43	1.17
308.15	1149.03	1.17

System: dipropylamine; phases: Liquid
Fixed: Pressure, kPa = 101
Property: Mass density, kg/m3 (Liquid); method: VIBTUB::UFactor:4
Temperature, K	Mass density, kg/m3	uncertainty
288.15	745.064	0.818
293.15	740.501	0.825
298.15	735.924	0.833
303.15	731.333	0.84
308.15	726.732	0.848

System: propan-1-amine + 2-methoxy-2-methylpropane; phases: Liquid
Fixed: Pressure, kPa = 101
Property: Speed of sound, m/s (Liquid); method: PULSEH:UFactor:4
Temperature, K	Mole fraction of 2-methoxy-2-methylpropane	Speed of sound, m/s	uncertainty
288.15	0	1266.07	2.77
288.15	0.0709	1251.37	2.75
288.15	0.0971	1244.03	2.74
288.15	0.2112	1214.39	2.69
288.15	0.2915	1204.18	20
288.15	0.3956	1174.4	2.64
288.15	0.5551	1146.05	2.6
288.15	0.7171	1120.6	2.56
288.15	0.7747	1111.57	2.55
288.15	0.8604	1101.25	2.53
288.15	0.9268	1094.24	2.52
288.15	1	1086.62	2.51
293.15	0	1242.02	2.73
293.15	0.0709	1227.16	2.71
293.15	0.0971	1220	2.7
293.15	0.2112	1190.5	2.66
293.15	0.2915	1180.33	20
293.15	0.3956	1150.67	2.6
293.15	0.5551	1122.47	2.56
293.15	0.7171	1097.13	2.53
293.15	0.7747	1087.97	2.51
293.15	0.8604	1077.75	2.5
293.15	0.9268	1070.72	2.49
293.15	1	1063.43	2.48
298.15	0	1217.97	2.7
298.15	0.0709	1203.08	2.68
298.15	0.0971	1196.04	2.67
298.15	0.2112	1166.55	2.63
298.15	0.2915	1156.19	20
298.15	0.3956	1126.99	2.57
298.15	0.5551	1098.92	2.53
298.15	0.7171	1073.7	2.49
298.15	0.7747	1064.45	2.48
298.15	0.8604	1054.21	2.46
298.15	0.9268	1047.53	2.46
298.15	1	1040.35	2.45
303.15	0	1193.96	2.66
303.15	0.0709	1179.1	2.6
303.15	0.0971	1172.15	2.63
303.15	0.2112	1142.94	2.59
303.15	0.2915	1132.57	20
303.15	0.3956	1103.41	2.54
303.15	0.5551	1075.42	2.5
303.15	0.7171	1050.5	2.5
303.15	0.7747	1040.96	2.45
303.15	0.8604	1030.91	2.43
303.15	0.9268	1024.23	2.42
303.15	1	1017.42	2.41
308.15	0	1169.93	2.63
308.15	0.0709	1155.28	2.61
308.15	0.0971	1148.18	2.6
308.15	0.2112	1119.08	2.56
308.15	0.2915	1109.04	20
308.15	0.3956	1079.77	2.5
308.15	0.5551	1052.21	2.46
308.15	0.7171	1027.32	2.43
308.15	0.7747	1017.79	2.41
308.15	0.8604	1007.55	2.4
308.15	0.9268	1001.07	2.39
308.15	1	994.68	2.38

System: propan-1-amine + 2-methoxy-2-methylpropane; phases: Liquid
Fixed: Pressure, kPa = 101
Property: Mass density, kg/m3 (Liquid); method: VIBTUB:UFactor:4
Temperature, K	Mole fraction of 2-methoxy-2-methylpropane	Mass density, kg/m3	uncertainty
288.15	0	725.08	0.851
288.15	0.0709	727.856	0.846
288.15	0.0971	729.03	0.844
288.15	0.2112	733	0.838
288.15	0.2915	734.914	0.835
288.15	0.3956	737.188	0.831
288.15	0.5551	740.109	0.826
288.15	0.7171	742.564	0.822
288.15	0.7747	743.456	0.82
288.15	0.8604	744.503	0.819
288.15	0.9268	745.6	0.817
288.15	1	747.273	0.814
293.15	0	719.859	0.859
293.15	0.0709	722.621	0.855
293.15	0.0971	723.784	0.853
293.15	0.2112	727.745	0.846
293.15	0.2915	729.567	0.843
293.15	0.3956	731.938	0.839
293.15	0.5551	734.863	0.835
293.15	0.7171	737.327	0.831
293.15	0.7747	738.22	0.829
293.15	0.8604	739.27	0.827
293.15	0.9268	740.382	0.826
293.15	1	742.072	0.823
298.15	0	714.586	0.868
298.15	0.0709	717.583	0.863
298.15	0.0971	718.729	0.861
298.15	0.2112	722.617	0.855
298.15	0.2915	724.408	0.852
298.15	0.3956	726.763	0.848
298.15	0.5551	729.642	0.843
298.15	0.7171	732.071	0.839
298.15	0.7747	732.941	0.838
298.15	0.8604	733.994	0.836
298.15	0.9268	735.117	0.834
298.15	1	736.826	0.831
303.15	0	709.269	0.877
303.15	0.0709	712.014	0.872
303.15	0.0971	713.152	0.871
303.15	0.2112	717.065	0.864
303.15	0.2915	718.869	0.861
303.15	0.3956	721.277	0.857
303.15	0.5551	724.214	0.852
303.15	0.7171	726.691	0.848
303.15	0.7747	727.578	0.847
303.15	0.8604	728.673	0.845
303.15	0.9268	729.806	0.843
303.15	1	731.532	0.84
308.15	0	703.911	0.886
308.15	0.0709	706.643	0.881
308.15	0.0971	707.762	0.88
308.15	0.2112	711.678	0.873
308.15	0.2915	713.452	0.87
308.15	0.3956	715.895	0.866
308.15	0.5551	718.801	0.861
308.15	0.7171	721.338	0.857
308.15	0.7747	722.269	0.856
308.15	0.8604	723.302	0.854
308.15	0.9268	724.452	0.852
308.15	1	726.185	0.849

System: dipropylamine + 2-methoxy-2-methylpropane; phases: Liquid
Fixed: Pressure, kPa = 101
Property: Speed of sound, m/s (Liquid); method: Pulse-echo method
Temperature, K	Mole fraction of 2-methoxy-2-methylpropane	Speed of sound, m/s	uncertainty
288.15	0	1235.06	1.18
288.15	0.0455	1226.46	1.18
288.15	0.0993	1218.47	1.18
288.15	0.1886	1206.79	1.18
288.15	0.304	1191.22	1.17
288.15	0.3981	1179	1.17
288.15	0.4954	1164.88	1.17
288.15	0.5839	1152.3	1.17
288.15	0.7057	1131.88	1.16
288.15	0.7685	1121.71	1.16
288.15	0.8876	1103.92	1.16
288.15	0.9337	1096.96	1.16
288.15	1	1086.92	1.15
293.15	0	1213.41	1.18
293.15	0.0455	1204.63	1.18
293.15	0.0993	1196.61	1.18
293.15	0.1886	1184.86	1.17
293.15	0.304	1169.11	1.17
293.15	0.3981	1156.83	1.17
293.15	0.4954	1142.77	1.17
293.15	0.5839	1130.01	1.16
293.15	0.7057	1109.4	1.2
293.15	0.7685	1099.07	1.16
293.15	0.8876	1080.77	1.15
293.15	0.9337	1073.64	1.15
293.15	1	1063.43	1.15
298.15	0	1191.86	1.17
298.15	0.0455	1182.93	1.17
298.15	0.0993	1174.89	1.17
298.15	0.1886	1163.04	1.17
298.15	0.304	1147.18	1.17
298.15	0.3981	1134.78	1.16
298.15	0.4954	1120.84	1.16
298.15	0.5839	1107.85	1.16
298.15	0.7057	1087.04	1.15
298.15	0.7685	1076.59	1.15
298.15	0.8876	1057.92	1.15
298.15	0.9337	1050.7	1.15
298.15	1	1040.35	1.15
303.15	0	1170.43	1.17
303.15	0.0455	1161.45	1.17
303.15	0.0993	1153.39	1.17
303.15	0.1886	1141.42	1.17
303.15	0.304	1125.49	1.16
303.15	0.3981	1112.9	1.16
303.15	0.4954	1099.06	1.16
303.15	0.5839	1085.9	1.15
303.15	0.7057	1064.86	1.15
303.15	0.7685	1054.37	1.15
303.15	0.8876	1035.26	1.14
303.15	0.9337	1028	1.14
303.15	1	1017.42	1.14
308.15	0	1149.03	1.17
308.15	0.0455	1140.1	1.16
308.15	0.0993	1132	1.16
308.15	0.1886	1119.98	1.16
308.15	0.304	1103.88	1.16
308.15	0.3981	1091.16	1.16
308.15	0.4954	1076.76	1.15
308.15	0.5839	1063.76	1.15
308.15	0.7057	1042.54	1.15
308.15	0.7685	1031.98	1.14
308.15	0.8876	1012.91	1.14
308.15	0.9337	1005.42	1.14
308.15	1	994.68	1.14

System: dipropylamine + 2-methoxy-2-methylpropane; phases: Liquid
Fixed: Pressure, kPa = 101
Property: Mass density, kg/m3 (Liquid); method: VIBTUB:UFactor:4
Temperature, K	Mole fraction of 2-methoxy-2-methylpropane	Mass density, kg/m3	uncertainty
288.15	0	745.064	0.818
288.15	0.0455	744.529	0.818
288.15	0.0993	743.741	0.82
288.15	0.1886	743.725	0.82
288.15	0.304	744.015	0.819
288.15	0.3981	744.373	0.819
288.15	0.4954	744.92	0.818
288.15	0.5839	745.36	0.817
288.15	0.7057	745.893	0.816
288.15	0.7685	746.206	0.816
288.15	0.8876	746.684	0.815
288.15	0.9337	746.947	0.815
288.15	1	747.273	0.814
293.15	0	740.501	0.825
293.15	0.0455	739.961	0.826
293.15	0.0993	739.141	0.827
293.15	0.1886	739.088	0.827
293.15	0.304	739.319	0.827
293.15	0.3981	739.628	0.827
293.15	0.4954	740.107	0.826
293.15	0.5839	740.49	0.825
293.15	0.7057	740.912	0.825
293.15	0.7685	741.193	0.824
293.15	0.8876	741.588	0.824
293.15	0.9337	741.806	0.823
293.15	1	742.072	0.823
298.15	0	735.924	0.833
298.15	0.0455	735.381	0.834
298.15	0.0993	734.529	0.835
298.15	0.1886	734.436	0.835
298.15	0.304	734.607	0.835
298.15	0.3981	734.96	0.83
298.15	0.4954	735.272	0.834
298.15	0.5839	735.593	0.833
298.15	0.7057	735.904	0.833
298.15	0.7685	736.153	0.832
298.15	0.8876	736.455	0.832
298.15	0.9337	736.641	0.832
298.15	1	736.826	0.831
303.15	0	731.333	0.84
303.15	0.0455	730.779	0.841
303.15	0.0993	729.903	0.843
303.15	0.1886	729.765	0.843
303.15	0.304	729.854	0.843
303.15	0.3981	730.165	0.842
303.15	0.4954	730.41	0.84
303.15	0.5839	730.664	0.841
303.15	0.7057	730.891	0.841
303.15	0.7685	731.058	0.841
303.15	0.8876	731.289	0.841
303.15	0.9337	731.421	0.84
303.15	1	731.532	0.84
308.15	0	726.732	0.848
308.15	0.0455	726.199	0.849
308.15	0.0993	725.268	0.85
308.15	0.1886	725.081	0.851
308.15	0.304	725.082	0.851
308.15	0.3981	725.325	0.85
308.15	0.4954	725.531	0.85
308.15	0.5839	725.713	0.85
308.15	0.7057	725.831	0.85
308.15	0.7685	725.925	0.849
308.15	0.8876	726.066	0.849
308.15	0.9337	726.159	0.849
308.15	1	726.185	0.849
