Measured thermophysical data. ss-Sitosterol Solubility in Selected Organic Solvents
Source: J. Chem. Eng. Data, 2010, 10.1021/je9009909
Compound 1: .beta.-sitosterol, C29H50O, InChI=1S/C29H50O/c1-7-21(19(2)3)9-8-20(4)25-12-13-26-24-11-10-22-18-23(30)14-16-28(22,5)27(24)15-17-29(25,26)6/h10,19-21,23-27,30H,7-9,11-18H2,1-6H3/t20-,21-,23+,24+,25-,26+,27+,28+,29-/m1/s1, purity 98%
Compound 2: methanol, CH4O, InChI=1S/CH4O/c1-2/h2H,1H3
Compound 3: ethanol, C2H6O, InChI=1S/C2H6O/c1-2-3/h3H,2H2,1H3
Compound 4: acetone, C3H6O, InChI=1S/C3H6O/c1-3(2)4/h1-2H3
Compound 5: ethyl acetate, C4H8O2, InChI=1S/C4H8O2/c1-3-6-4(2)5/h3H2,1-2H3
Compound 6: hexane, C6H14, InChI=1S/C6H14/c1-3-5-6-4-2/h3-6H2,1-2H3

System: methanol + .beta.-sitosterol; phases: Liquid, Crystal
Fixed: Pressure, kPa = 101
Property: Mole fraction of .beta.-sitosterol (Liquid); method: UV spectrometer
Temperature, K	Mole fraction of .beta.-sitosterol	uncertainty
278.15	0.0001359	5.1e-06
283.15	0.0001674	6.2e-06
288.15	0.0002047	7.6e-06
293.15	0.0002481	9.2e-06
298.15	0.0002986	1.1e-05
303.15	0.0003572	1.32e-05
308.15	0.0004269	1.57e-05
313.15	0.0005092	1.88e-05
318.15	0.0006058	2.23e-05
323.15	0.0007204	2.65e-05
328.15	0.0008548	3.14e-05

System: ethanol + .beta.-sitosterol; phases: Liquid, Crystal
Fixed: Pressure, kPa = 101
Property: Mole fraction of .beta.-sitosterol (Liquid); method: UV spectrometer
Temperature, K	Mole fraction of .beta.-sitosterol	uncertainty
278.15	0.001302	4.1e-05
283.15	0.001579	4.9e-05
288.15	0.001902	5.9e-05
293.15	0.002289	7.1e-05
298.15	0.002744	8.6e-05
303.15	0.003281	0.000102
308.15	0.003886	0.000121
313.15	0.004601	0.000143
318.15	0.005397	0.000168
323.15	0.006325	0.000196
328.15	0.007377	0.000229
333.15	0.008565	0.000265

System: acetone + .beta.-sitosterol; phases: Liquid, Crystal
Fixed: Pressure, kPa = 101
Property: Mole fraction of .beta.-sitosterol (Liquid); method: UV spectrometer
Temperature, K	Mole fraction of .beta.-sitosterol	uncertainty
278.15	0.002735	7.9e-05
283.15	0.003218	9.3e-05
288.15	0.003786	0.000109
293.15	0.00446	0.000128
298.15	0.005247	0.000151
303.15	0.006163	0.000177
308.15	0.007245	0.000209
313.15	0.008519	0.000245
318.15	0.01001	0.00029
323.15	0.01176	0.00034
328.15	0.01386	0.0004

System: .beta.-sitosterol + ethyl acetate; phases: Liquid, Crystal
Fixed: Pressure, kPa = 101
Property: Mole fraction of .beta.-sitosterol (Liquid); method: UV spectrometer
Temperature, K	Mole fraction of .beta.-sitosterol	uncertainty
278.15	0.004475	0.000119
283.15	0.005302	0.00014
288.15	0.006268	0.000166
293.15	0.007379	0.000195
298.15	0.008719	0.00023
303.15	0.01025	0.00027
308.15	0.01202	0.00032
313.15	0.01401	0.00037
318.15	0.01632	0.00043
323.15	0.019	0.0005

System: .beta.-sitosterol + hexane; phases: Liquid, Crystal
Fixed: Pressure, kPa = 101
Property: Mole fraction of .beta.-sitosterol (Liquid); method: UV spectrometer
Temperature, K	Mole fraction of .beta.-sitosterol	uncertainty
278.15	0.0008616	2.31e-05
283.15	0.001032	2.8e-05
288.15	0.001233	3.3e-05
293.15	0.001466	3.9e-05
298.15	0.001735	4.6e-05
303.15	0.002046	5.4e-05
308.15	0.0024	6.3e-05
313.15	0.002803	7.4e-05
318.15	0.003257	8.6e-05
323.15	0.003774	9.9e-05
328.15	0.004359	0.000115
333.15	0.005005	0.000131
