Measured thermophysical data. Phase Diagrams of Ammonium Sulfate + Ethanol/1-Propanol/2-Propanol + Water Aqueous Two-Phase Systems at 298.15 K and Correlation
Source: J. Chem. Eng. Data, 2010, 10.1021/je900504e
Compound 1: ethanol, C2H6O, InChI=1S/C2H6O/c1-2-3/h3H,2H2,1H3
Compound 2: water, H2O, InChI=1S/H2O/h1H2
Compound 3: ammonium sulfate, H8N2O4S, InChI=1S/2H3N.H2O4S/c;;1-5(2,3)4/h2*1H3;(H2,1,2,3,4)
Compound 4: propan-1-ol, C3H8O, InChI=1S/C3H8O/c1-2-3-4/h4H,2-3H2,1H3
Compound 5: propan-2-ol, C3H8O, InChI=1S/C3H8O/c1-3(2)4/h3-4H,1-2H3

System: ethanol + water + ammonium sulfate; phases: Liquid mixture 1, Liquid mixture 2
Fixed: Temperature, K = 298.15
Fixed: Pressure, kPa = 101
Property: Mass fraction of ammonium sulfate (Liquid mixture 1); method: Titration method
Mass fraction of ethanol	Mass fraction of ammonium sulfate	uncertainty
0.0609	0.3577	0.0143
0.0726	0.3412	0.0136
0.0732	0.339	0.0136
0.0762	0.335	0.0134
0.0818	0.323	0.0129
0.0935	0.3101	0.0124
0.1027	0.2959	0.0118
0.1187	0.2724	0.0109
0.1219	0.2675	0.0107
0.1279	0.2626	0.0105
0.1394	0.2506	0.01
0.1475	0.2449	0.0098
0.1509	0.2438	0.0098
0.152	0.2404	0.0096
0.1719	0.2214	0.0089
0.1753	0.2207	0.0088
0.2051	0.1969	0.0079
0.2062	0.1943	0.0078
0.2198	0.1838	0.0074
0.2279	0.1774	0.0071
0.248	0.1623	0.0065
0.2628	0.1516	0.0061
0.2664	0.149	0.006
0.2748	0.1434	0.0057
0.2814	0.1384	0.0055
0.2926	0.1307	0.0052
0.317	0.1142	0.0046
0.3247	0.1088	0.0044
0.3382	0.1025	0.0041
0.3578	0.0915	0.0037
0.3721	0.0832	0.0033
0.3728	0.0835	0.0033
0.3907	0.0749	0.003
0.3972	0.0713	0.0029
0.4135	0.0618	0.0025
0.4521	0.0477	0.0019
0.4661	0.0448	0.0018
0.4802	0.0401	0.0016
0.4931	0.0354	0.0014
0.4982	0.0344	0.0014
0.5135	0.0315	0.0013
0.5173	0.03	0.0012
0.5389	0.0266	0.0011
0.5428	0.0258	0.001
0.5806	0.018	0.0007
0.5828	0.0175	0.0007
0.6384	0.0089	0.0004
0.6895	0.0048	0.0002

System: ethanol + water + ammonium sulfate; phases: Liquid, Crystal
Fixed: Temperature, K = 298.15
Fixed: Pressure, kPa = 101
Property: Mass fraction of ammonium sulfate (Liquid); method: Titration method
Mass fraction of ethanol	Mass fraction of ammonium sulfate	uncertainty
0.0278	0.4065	0.0163
0.0374	0.393	0.0157
0.0457	0.3827	0.0153
0.0471	0.3826	0.0153

System: ethanol + water + ammonium sulfate; phases: Liquid mixture 2, Liquid mixture 1
Fixed: Temperature, K = 298.15
Fixed: Pressure, kPa = 101
Property: Mass fraction of ammonium sulfate (Liquid mixture 2); method: OTHER
Property: Mass fraction of ammonium sulfate (Liquid mixture 1); method: OTHER
Property: Mass fraction of ethanol (Liquid mixture 1); method: OTHER
Mass fraction of ethanol	Mass fraction of ammonium sulfate	uncertainty	Mass fraction of ammonium sulfate	uncertainty	Mass fraction of ethanol	uncertainty
0.0828	0.3228	0.0097	0.0474	0.0014	0.4569	
0.0689	0.3424	0.0103	0.0288	0.0009	0.5234	
0.054	0.3655	0.011	0.0182	0.0005	0.5787	
0.0554	0.3632	0.0109	0.0184	0.0006	0.5775	
0.0549	0.3641	0.0109	0.0192	0.0006	0.5727	
0.0536	0.3662	0.011	0.0203	0.0006	0.5662	

System: propan-1-ol + water + ammonium sulfate; phases: Liquid mixture 1, Liquid mixture 2
Fixed: Temperature, K = 298.15
Fixed: Pressure, kPa = 101
Property: Mass fraction of ammonium sulfate (Liquid mixture 1); method: Titration method
Mass fraction of propan-1-ol	Mass fraction of ammonium sulfate	uncertainty
0.0209	0.3679	0.0147
0.0215	0.3643	0.0146
0.0236	0.3258	0.013
0.0246	0.3398	0.0136
0.0325	0.3028	0.0121
0.0333	0.2975	0.0119
0.0341	0.2599	0.0104
0.0415	0.2351	0.0094
0.0421	0.2386	0.0095
0.0512	0.214	0.0086
0.0517	0.2082	0.0083
0.0556	0.202	0.0081
0.0639	0.1849	0.0074
0.0641	0.185	0.0074
0.0647	0.1884	0.0075
0.0684	0.1749	0.007
0.0693	0.1757	0.007
0.0806	0.1522	0.0061
0.0825	0.1527	0.0061
0.0908	0.1426	0.0057
0.0919	0.1395	0.0056
0.092	0.1398	0.0056
0.1094	0.1211	0.0048
0.135	0.1016	0.0041
0.1367	0.1	0.004
0.1435	0.0972	0.0039
0.1479	0.0947	0.0038
0.1744	0.0821	0.0033
0.219	0.0668	0.0027
0.251	0.0591	0.0024
0.277	0.0534	0.0021
0.3149	0.0463	0.0019
0.3731	0.0358	0.0014
0.3857	0.034	0.0014
0.4115	0.0296	0.0012
0.4319	0.0274	0.0011
0.4355	0.0263	0.0011
0.4789	0.021	0.0008
0.5224	0.0161	0.0006
0.5465	0.0137	0.0006
0.583	0.0108	0.0004
0.6307	0.0074	0.0003
0.6527	0.0062	0.0003
0.7027	0.0039	0.0002

System: propan-2-ol + water + ammonium sulfate; phases: Liquid mixture 1, Liquid mixture 2
Fixed: Temperature, K = 298.15
Fixed: Pressure, kPa = 101
Property: Mass fraction of ammonium sulfate (Liquid mixture 1); method: Titration method
Mass fraction of propan-2-ol	Mass fraction of ammonium sulfate	uncertainty
0.0115	0.4138	0.0166
0.0155	0.4036	0.0161
0.0235	0.3593	0.0144
0.0292	0.3373	0.0135
0.0311	0.3263	0.0131
0.0355	0.3108	0.0124
0.0402	0.2995	0.012
0.0618	0.2498	0.01
0.0699	0.2374	0.0095
0.0875	0.2134	0.0085
0.0929	0.208	0.0083
0.1105	0.1895	0.0076
0.126	0.1766	0.0071
0.1575	0.1596	0.0064
0.2348	0.1192	0.0048
0.2573	0.1096	0.0044
0.2577	0.1106	0.0044
0.2689	0.106	0.0042
0.2807	0.1006	0.004
0.2908	0.0968	0.0039
0.3415	0.0756	0.003
0.3783	0.0616	0.0025
0.3874	0.0578	0.0023
0.3892	0.0576	0.0023
0.3898	0.057	0.0023
0.3902	0.056	0.0022
0.4044	0.0512	0.002
0.4181	0.0465	0.0019
0.4234	0.0448	0.0018
0.4254	0.044	0.0018
0.4331	0.0425	0.0017
0.452	0.0355	0.0014
0.4623	0.0332	0.0013
0.4722	0.0323	0.0013
0.4938	0.0265	0.0011
0.4981	0.0252	0.001
0.5108	0.0226	0.0009
0.5303	0.0199	0.0008
0.5443	0.0178	0.0007
0.5759	0.013	0.0005
0.5827	0.0124	0.0005
0.5848	0.0121	0.0005
0.6192	0.009	0.0004
0.6363	0.0076	0.0003
0.6402	0.0075	0.0003
0.7088	0.0036	0.0002
0.7113	0.0034	0.0001
0.7423	0.0023	0.0001
0.7579	0.0021	0.0001
