Measured thermophysical data. Heat Capacities of Some Liquid a,?-Alkanediamines in the Temperature Range between (293.15 and 353.15) K
Source: J. Chem. Eng. Data, 2010, 10.1021/je900537y
Compound 1: ethane-1,2-diamine, C2H8N2, InChI=1S/C2H8N2/c3-1-2-4/h1-4H2
Compound 2: 1,3-propanediamine, C3H10N2, InChI=1S/C3H10N2/c4-2-1-3-5/h1-5H2
Compound 3: 1,4-butanediamine, C4H12N2, InChI=1S/C4H12N2/c5-3-1-2-4-6/h1-6H2
Compound 4: 1,6-hexanediamine, C6H16N2, InChI=1S/C6H16N2/c7-5-3-1-2-4-6-8/h1-8H2
Compound 5: 1,7-diaminoheptane, C7H18N2, InChI=1S/C7H18N2/c8-6-4-2-1-3-5-7-9/h1-9H2
Compound 6: 1,9-diaminononane, C9H22N2, InChI=1S/C9H22N2/c10-8-6-4-2-1-3-5-7-9-11/h1-11H2

System: ethane-1,2-diamine; phases: Liquid
Fixed: Pressure, kPa = 101.325
Property: Molar heat capacity at constant pressure, J/K/mol (Liquid); method: Small sample (50 mg) DSC
Temperature, K	Molar heat capacity at constant pressure, J/K/mol	uncertainty
293.15	172.34	2.67
294.65	172.43	2.67
296.15	172.53	2.67
297.65	172.63	2.67
298.15	172.66	2.67
299.15	172.73	2.68
300.65	172.84	2.68
302.15	172.95	2.68
303.65	173.06	2.68
305.15	173.17	2.68
306.65	173.29	2.68
308.15	173.41	2.69
309.65	173.53	2.69
311.15	173.66	2.69
312.65	173.79	2.69
314.15	173.92	2.69
315.65	174.05	2.7
317.15	174.18	2.7
318.65	174.31	2.7
320.15	174.45	2.7
321.65	174.59	2.7
323.15	174.72	2.71
324.65	174.86	2.71
326.15	175	2.71
327.65	175.15	2.71
329.15	175.29	2.72
330.65	175.43	2.72
332.15	175.58	2.72
333.65	175.72	2.72
335.15	175.86	2.72
336.65	176.01	2.73
338.15	176.15	2.73
339.65	176.3	2.73
341.15	176.44	2.73
342.65	176.59	2.74
344.15	176.73	2.74
345.65	176.87	2.74
347.15	177.02	2.74
348.65	177.16	2.74
350.15	177.3	2.75
351.65	177.44	2.75
353.15	177.58	2.75

System: 1,3-propanediamine; phases: Liquid
Fixed: Pressure, kPa = 101.325
Property: Molar heat capacity at constant pressure, J/K/mol (Liquid); method: Small sample (50 mg) DSC
Temperature, K	Molar heat capacity at constant pressure, J/K/mol	uncertainty
293.15	203.05	3.15
294.65	203.21	3.15
296.15	203.37	3.15
297.65	203.53	3.15
298.15	203.59	3.15
299.15	203.7	3.16
300.65	203.86	3.16
302.15	204.03	3.16
303.65	204.19	3.16
305.15	204.36	3.17
306.65	204.53	3.17
308.15	204.7	3.17
309.65	204.87	3.17
311.15	205.04	3.18
312.65	205.21	3.18
314.15	205.38	3.18
315.65	205.56	3.18
317.15	205.73	3.19
318.65	205.91	3.19
320.15	206.08	3.19
321.65	206.26	3.2
323.15	206.43	3.2
324.65	206.61	3.2
326.15	206.79	3.2
327.65	206.96	3.21
329.15	207.14	3.21
330.65	207.32	3.21
332.15	207.5	3.21
333.65	207.67	3.22
335.15	207.85	3.22
336.65	208.03	3.22
338.15	208.2	3.23
339.65	208.38	3.23
341.15	208.56	3.23
342.65	208.73	3.23
344.15	208.91	3.24
345.65	209.08	3.24
347.15	209.26	3.24
348.65	209.43	3.24
350.15	209.6	3.25
351.65	209.78	3.25
353.15	209.95	3.25

System: 1,4-butanediamine; phases: Liquid
Fixed: Pressure, kPa = 101.325
Property: Molar heat capacity at constant pressure, J/K/mol (Liquid); method: Small sample (50 mg) DSC
Temperature, K	Molar heat capacity at constant pressure, J/K/mol	uncertainty
298.15	236.33	3.66
299.15	236.45	3.66
300.65	236.61	3.67
302.15	236.77	3.67
303.65	236.94	3.67
305.15	237.09	3.67
306.65	237.25	3.68
308.15	237.41	3.68
309.65	237.56	3.68
311.15	237.72	3.68
312.65	237.87	3.69
314.15	238.03	3.69
315.65	238.18	3.69
317.15	238.34	3.69
318.65	238.49	3.69
320.15	238.65	3.7
321.65	238.81	3.7
323.15	238.97	3.7
324.65	239.13	3.7
326.15	239.29	3.71
327.65	239.46	3.71
329.15	239.63	3.71
330.65	239.8	3.71
332.15	239.98	3.72
333.65	240.15	3.72
335.15	240.34	3.72
336.65	240.52	3.73
338.15	240.71	3.73
339.65	240.91	3.73
341.15	241.11	3.74
342.65	241.32	3.74
344.15	241.53	3.74
345.65	241.74	3.75
347.15	241.97	3.75
348.65	242.2	3.75
350.15	242.43	3.76
351.65	242.68	3.76
353.15	242.93	3.76

System: 1,6-hexanediamine; phases: Liquid
Fixed: Pressure, kPa = 101.325
Property: Molar heat capacity at constant pressure, J/K/mol (Liquid); method: Small sample (50 mg) DSC
Temperature, K	Molar heat capacity at constant pressure, J/K/mol	uncertainty
314.15	301.08	4.66
315.65	301.25	4.67
317.15	301.42	4.67
318.65	301.59	4.67
320.15	301.77	4.68
321.65	301.95	4.68
323.15	302.14	4.68
324.65	302.33	4.68
326.15	302.53	4.69
327.65	302.74	4.69
329.15	302.95	4.69
330.65	303.17	4.7
332.15	303.4	4.7
333.65	303.64	4.7
335.15	303.88	4.71
336.65	304.13	4.71
338.15	304.4	4.72
339.65	304.67	4.72
341.15	304.95	4.72
342.65	305.25	4.73
344.15	305.55	4.73
345.65	305.87	4.74
347.15	306.2	4.74
348.65	306.54	4.75
350.15	306.89	4.75
351.65	307.26	4.76
353.15	307.64	4.77

System: 1,7-diaminoheptane; phases: Liquid
Fixed: Pressure, kPa = 101.325
Property: Molar heat capacity at constant pressure, J/K/mol (Liquid); method: Small sample (50 mg) DSC
Temperature, K	Molar heat capacity at constant pressure, J/K/mol	uncertainty
302.15	332.76	5.16
303.65	332.93	5.16
305.15	333.11	5.16
306.65	333.29	5.16
308.15	333.48	5.17
309.65	333.67	5.17
311.15	333.86	5.17
312.65	334.06	5.18
314.15	334.27	5.18
315.65	334.48	5.18
317.15	334.7	5.19
318.65	334.92	5.19
320.15	335.15	5.19
321.65	335.38	5.2
323.15	335.62	5.2
324.65	335.87	5.2
326.15	336.12	5.21
327.65	336.38	5.21
329.15	336.64	5.22
330.65	336.91	5.22
332.15	337.18	5.22
333.65	337.47	5.23
335.15	337.76	5.23
336.65	338.05	5.24
338.15	338.35	5.24
339.65	338.66	5.25
341.15	338.98	5.25
342.65	339.3	5.26
344.15	339.63	5.26
345.65	339.97	5.27
347.15	340.31	5.27
348.65	340.66	5.28
350.15	341.02	5.28
351.65	341.39	5.29
353.15	341.76	5.29

System: 1,9-diaminononane; phases: Liquid
Fixed: Pressure, kPa = 101.325
Property: Molar heat capacity at constant pressure, J/K/mol (Liquid); method: Small sample (50 mg) DSC
Temperature, K	Molar heat capacity at constant pressure, J/K/mol	uncertainty
311.15	398.93	6.18
312.65	399.04	6.18
314.15	399.17	6.18
315.65	399.32	6.19
317.15	399.47	6.19
318.65	399.64	6.19
320.15	399.82	6.19
321.65	400.02	6.2
323.15	400.22	6.2
324.65	400.44	6.2
326.15	400.67	6.21
327.65	400.92	6.21
329.15	401.17	6.21
330.65	401.44	6.22
332.15	401.72	6.22
333.65	402.02	6.23
335.15	402.32	6.23
336.65	402.64	6.24
338.15	402.97	6.24
339.65	403.32	6.25
341.15	403.67	6.25
342.65	404.04	6.26
344.15	404.43	6.27
345.65	404.82	6.27
347.15	405.23	6.28
348.65	405.65	6.28
350.15	406.08	6.29
351.65	406.52	6.3
353.15	406.98	6.3
