Measured thermophysical data. Vapor-Liquid Equilibrium Measurements and Modeling of the Propyl Mercaptan + Methane + Water System
Source: J. Chem. Eng. Data, 2010, 10.1021/je900441f
Compound 1: 1-propanethiol, C3H8S, InChI=1S/C3H8S/c1-2-3-4/h4H,2-3H2,1H3
Compound 2: methane, CH4, InChI=1S/CH4/h1H4
Compound 3: water, H2O, InChI=1S/H2O/h1H2

System: methane + water; phases: Liquid, Gas
Property: Mole fraction of methane (Liquid); method: Chromatography
Pressure, kPa	Temperature, K	Mole fraction of methane	uncertainty
993	298.78	0.00023	1e-05
1142	314.25	0.00021	1e-05
2514	314.28	0.00043	2e-05
2795	298.77	0.00064	3e-05
5991	298.78	0.0012	0.0001
7892	314.27	0.0013	0.0001
7893	298.78	0.0015	0.0001
9981	314.24	0.0016	0.0001

System: methane + 1-propanethiol + water; phases: Liquid, Gas
Property: Mole fraction of 1-propanethiol (Liquid); method: Chromatography
Property: Mole fraction of 1-propanethiol (Gas); method: Chromatography
Property: Mole fraction of methane (Gas); method: Chromatography
Temperature, K	Pressure, kPa	Mole fraction of methane	Mole fraction of 1-propanethiol	uncertainty	Mole fraction of 1-propanethiol	uncertainty	Mole fraction of methane	uncertainty
302.68	1026	0.00025	0.000138	6e-06	0.00812	0.00033	0.99188	
302.77	2078	0.00052	0.00012	5e-06	0.00499	0.0002	0.99501	
302.63	3936	0.00098	0.000101	4e-06	0.00224	9e-05	0.99776	
302.66	6765	0.00153	9.5e-05	4e-06	0.00119	5e-05	0.9988	
302.66	8018	0.00181	8.1e-05	3e-06	0.00119	5e-05	0.99881	
322.73	1243	0.00021	0.000131	5e-06	0.00584	0.00024	0.99416	
322.72	2315	0.00044	7.1e-05	3e-06	0.00253	0.0001	0.99747	
322.71	4021	0.00081	5.9e-05	2e-06	0.00135	6e-05	0.99865	
322.74	6727	0.00142	5e-05	2e-06	0.00075	3e-05	0.99925	
322.72	8073	0.00176	3.5e-05	2e-06	0.00061	3e-05	0.99939	
365.73	1341	0.00013	3.7e-05	2e-06	0.00624	0.00026	0.99376	
365.74	3059	0.00056	3.2e-05	1e-06	0.00192	8e-05	0.99806	
365.72	4969	0.00096	2.4e-05	1e-06	0.00032	1e-05	0.99968	
365.72	6947	0.00132	7e-06	1e-06	4e-05	1e-05	0.99996	
365.87	9516	0.00191	1.5e-05	1e-06	0.00088	4e-05	0.99912	
