Measured thermophysical data. Volumetric Properties of Carbon Dioxide + Ethanol at 313.15 K
Source: J. Chem. Eng. Data, 2009, 10.1021/je900127m
Compound 1: carbon dioxide, CO2, InChI=1S/CO2/c2-1-3, purity 99.999%
Compound 2: ethanol, C2H6O, InChI=1S/C2H6O/c1-2-3/h3H,2H2,1H3

System: ethanol + carbon dioxide; phases: Liquid, Gas
Fixed: Temperature, K = 313.15
Property: Vapor or sublimation pressure, kPa (Liquid); method: Closed cell (Static) method
Mole fraction of carbon dioxide	Vapor or sublimation pressure, kPa	uncertainty
0.1	1970	31
0.2	3491	31
0.3	4802	29
0.4	5913	28
0.5	6763	26
0.6	7291	25
0.7	7595	25
0.8	7769	26
0.899	7960	26
0.95	8175	28

System: ethanol + carbon dioxide; phases: Fluid (supercritical or subcritical phases)
Fixed: Temperature, K = 313.15
Property: Mass density, kg/m3 (Fluid (supercritical or subcritical phases)); method: Bellows volumetry
Pressure, kPa	Mole fraction of carbon dioxide	Mass density, kg/m3	uncertainty
1000	0	773.1	0.2
1000	1	17.9	0.2
2000	0	773.9	0.2
2000	0.1	787.2	0.3
2000	1	37.1	0.2
3000	0	774.8	0.2
3000	0.1	788.2	0.3
3000	1	58.7	0.2
4000	0	775.5	0.2
4000	0.1	789.2	0.3
4000	0.2	799.4	0.3
4000	1	83.5	0.2
5000	0	776.4	0.2
5000	0.1	790.2	0.3
5000	0.2	800.6	0.3
5000	1	112.7	0.2
6000	0	777.2	0.2
6000	0.1	791.1	0.3
6000	0.2	801.9	0.3
6000	0.3	811.2	0.3
6000	0.4	816.6	0.2
6000	1	148.8	0.2
7000	0	778	0.2
7000	0.1	792.1	0.3
7000	0.2	803.1	0.3
7000	0.3	812.7	0.3
7000	0.4	818.7	0.2
7000	0.5	821.1	0.2
7000	1	197.3	0.2
8000	0	778.8	0.2
8000	0.1	793.1	0.3
8000	0.2	804.2	0.3
8000	0.3	814.3	0.3
8000	0.4	820.8	0.2
8000	0.5	824	0.2
8000	0.6	818.8	0.3
8000	0.7	804.5	0.5
8000	0.8	771.1	3.7
8000	1	276.7	0.4
9000	0	779.6	0.2
9000	0.1	794	0.3
9000	0.2	805.3	0.3
9000	0.3	815.7	0.3
9000	0.4	822.8	0.2
9000	0.5	826.8	0.2
9000	0.6	823	0.3
9000	0.7	811.5	0.4
9000	0.8	784.8	0.9
9000	0.899	729.1	1.5
9000	0.95	667	4.9
9000	1	483.4	0.4
10000	0	780.4	0.2
10000	0.1	795	0.3
10000	0.2	806.6	0.3
10000	0.3	817.2	0.3
10000	0.4	824.7	0.2
10000	0.5	829.4	0.2
10000	0.6	827	0.2
10000	0.7	817.8	0.4
10000	0.8	795.8	0.7
10000	0.899	752.3	1.1
10000	0.95	709.8	2.5
10000	1	627.4	0.4
