Measured thermophysical data. Article Solubility of the Single Gases Carbon Dioxide and Hydrogen in the Ionic Liquid [bmpy][Tf2N]
Source: J. Chem. Eng. Data, 2010, 10.1021/je900298e
Compound 1: carbon dioxide, CO2, InChI=1S/CO2/c2-1-3, purity 99.995%
Compound 2: 1-butyl-1-methylpyrrolidinium bis[(trifluoromethyl)sulfonyl]imide, C11H20F6N2O4S2, InChI=1S/C9H20N.C2F6NO4S2/c1-3-4-7-10(2)8-5-6-9-10;3-1(4,5)14(10,11)9-15(12,13)2(6,7)8/h3-9H2,1-2H3;/q+1;-1, purity 99%
Compound 3: hydrogen, H2, InChI=1S/H2/h1H, purity 99.999%

System: 1-butyl-1-methylpyrrolidinium bis[(trifluoromethyl)sulfonyl]imide; phases: Liquid
Fixed: Pressure, kPa = 101.325
Property: Mass density, kg/m3 (Liquid); method: VIBTUB:UFactor:6
Temperature, K	Mass density, kg/m3	uncertainty
289	1404.3	1.6
291	1402.6	1.5
293	1401	1.5
295	1399.4	1.5
297.05	1397.8	1.5
299.05	1396.2	1.5
301.05	1394.6	1.5
303.1	1393.1	1.5
305.1	1391.5	1.5
307.1	1390	1.5
309.1	1388.5	1.5

System: carbon dioxide + 1-butyl-1-methylpyrrolidinium bis[(trifluoromethyl)sulfonyl]imide; phases: Liquid, Gas
Property: Vapor or sublimation pressure, kPa (Liquid); method: Closed cell (Static) method
Temperature, K	Molality, mol/kg of carbon dioxide	Vapor or sublimation pressure, kPa	uncertainty
293.1	0.2209	280	27
293.1	0.9469	1147	43
293.1	1.1944	1429	43
293.1	1.4784	1741	44
293.1	1.7994	2081	45
293.1	2.5122	2807	47
293.1	3.759	3899	58
333.1	0.4691	1163	28
333.1	0.7121	1758	30
333.1	1.1408	2788	46
333.1	1.6609	4010	52
333.1	2.263	5398	59
333.1	3.1107	7258	74
333.1	4.4339	10813	110
373.2	0.3917	1594	30
373.2	0.5722	2359	32
373.2	0.9573	3924	52
373.2	1.3415	5505	59
373.2	1.782	7322	69
373.2	2.367	9718	99
413.2	0.327	1934	31
413.2	0.6184	3665	49
413.2	0.8489	5047	58
413.2	1.0991	6553	66
413.2	1.3635	8160	76
413.2	1.646	9916	88

System: hydrogen + 1-butyl-1-methylpyrrolidinium bis[(trifluoromethyl)sulfonyl]imide; phases: Liquid, Gas
Property: Vapor or sublimation pressure, kPa (Liquid); method: Closed cell (Static) method
Temperature, K	Molality, mol/kg of hydrogen	Vapor or sublimation pressure, kPa	uncertainty
293.1	0.01622	1472	55
293.1	0.03101	2859	76
293.1	0.05189	4772	90
293.1	0.07175	6639	107
293.1	0.0845	7834	127
293.1	0.09612	8945	136
333.1	0.01866	1443	50
333.1	0.03649	2826	74
333.1	0.05189	4032	84
333.1	0.06762	5240	93
333.1	0.08768	6889	113
333.1	0.10679	8408	127
373.2	0.02086	1384	48
373.2	0.04051	2707	71
373.2	0.06041	4038	82
373.2	0.0815	5465	101
373.2	0.10251	6913	110
373.2	0.12337	8325	122
413.2	0.02312	1365	47
413.2	0.04581	2708	71
413.2	0.06721	3955	86
413.2	0.09399	5517	98
413.2	0.11773	6972	110
413.2	0.13939	8272	121
