Measured thermophysical data. Solubility of n-(4-Ethoxyphenyl)ethanamide in Supercritical Carbon Dioxide
Source: J. Chem. Eng. Data, 2010, 10.1021/je900614f
Compound 1: carbon dioxide, CO2, InChI=1S/CO2/c2-1-3
Compound 2: N-(4-ethoxyphenyl)ethanamide, C10H13NO2, InChI=1S/C10H13NO2/c1-3-13-10-6-4-9(5-7-10)11-8(2)12/h4-7H,3H2,1-2H3,(H,11,12)

System: N-(4-ethoxyphenyl)ethanamide; phases: Crystal, Liquid, Air at 1 atmosphere
Property: Triple point temperature, K (Crystal); method: VISOBS
Triple point temperature, K	uncertainty
407	1

System: N-(4-ethoxyphenyl)ethanamide + carbon dioxide; phases: Fluid (supercritical or subcritical phases), Crystal
Property: Mole fraction of N-(4-ethoxyphenyl)ethanamide (Fluid (supercritical or subcritical phases)); method: UV Spec determination
Temperature, K	Pressure, kPa	Mole fraction of N-(4-ethoxyphenyl)ethanamide	uncertainty
308	9000	1.29e-05	1.3e-06
308	11000	1.78e-05	1.8e-06
308	13000	2.31e-05	2.3e-06
308	15000	2.62e-05	2.6e-06
308	17000	2.88e-05	2.9e-06
308	19000	2.89e-05	2.9e-06
318	11000	1.13e-05	1.1e-06
318	13000	1.98e-05	2e-06
318	15000	2.68e-05	2.7e-06
318	17000	3.44e-05	3.5e-06
318	19000	3.65e-05	3.7e-06
328	11000	9.1e-06	9e-07
328	13000	1.72e-05	1.7e-06
328	15000	2.73e-05	2.7e-06
328	17000	3.63e-05	3.6e-06
328	19000	4.28e-05	4.3e-06
