Measured thermophysical data. Surface Tension of Propane (R-290) + 1,1-Difluoroethane (R-152a) from (248 to 328) K
Source: J. Chem. Eng. Data, 2010, 10.1021/je901085t
Compound 1: propane, C3H8, InChI=1S/C3H8/c1-3-2/h3H2,1-2H3, purity 99.9%
Compound 2: 1,1-difluoroethane, C2H4F2, InChI=1S/C2H4F2/c1-2(3)4/h2H,1H3, purity 99.9%

System: propane; phases: Liquid, Gas
Property: Surface tension liquid-gas, N/m (Liquid); method: Capillary rise
Temperature, K	Surface tension liquid-gas, N/m	uncertainty
283.16	0.008811	0.000205
288.174	0.008134	0.000205
293.127	0.007568	0.000205
298.1	0.006915	0.000205
303.12	0.006349	0.000204

System: propane + 1,1-difluoroethane; phases: Liquid, Gas
Property: Surface tension liquid-gas, N/m (Liquid); method: Capillary rise
Temperature, K	Mass fraction of propane	Surface tension liquid-gas, N/m	uncertainty
248.15	0.3497	0.014647	0.000207
248.239	0.2008	0.015346	0.000207
248.369	0.4922	0.013875	0.000206
253.14	0.3497	0.013956	0.000206
253.15	0.4922	0.013251	0.000206
253.191	0.2008	0.0147	0.000207
258.1	0.3497	0.013223	0.000206
258.1	0.4922	0.012552	0.000206
258.154	0.2008	0.014023	0.000206
263.1	0.3497	0.012431	0.000206
263.176	0.4922	0.011934	0.000206
263.186	0.2008	0.013316	0.000206
268.132	0.3497	0.011846	0.000206
268.16	0.4922	0.011191	0.000206
268.185	0.2008	0.012725	0.000206
273.08	0.4922	0.01049	0.000205
273.15	0.3497	0.011203	0.000206
273.188	0.2008	0.012035	0.000206
278.16	0.3497	0.010314	0.000205
278.177	0.2008	0.011354	0.000206
278.18	0.4922	0.009895	0.000205
283.16	0.2008	0.010479	0.000205
283.16	0.3497	0.009754	0.000205
283.18	0.4922	0.009111	0.000205
288.15	0.3497	0.009186	0.000205
288.17	0.4922	0.00851	0.000205
288.18	0.2008	0.009752	0.000205
293.13	0.3497	0.008519	0.000205
293.16	0.2008	0.009136	0.000205
293.16	0.4922	0.007919	0.000205
298.1	0.2008	0.008465	0.000205
298.1	0.3497	0.00779	0.0002
298.15	0.4922	0.007255	0.000205
303.15	0.3497	0.006986	0.000205
303.18	0.2008	0.007708	0.000205
303.2	0.4922	0.006616	0.000204
308.11	0.2008	0.007125	0.000205
308.11	0.3497	0.006317	0.000204
308.46	0.4922	0.005985	0.000204
313.16	0.4922	0.005421	0.000204
313.18	0.3497	0.005675	0.000204
313.19	0.2008	0.006518	0.000204
318.135	0.3497	0.005133	0.000204
318.14	0.2008	0.005897	0.000204
318.14	0.4922	0.004913	0.000204
323.16	0.3497	0.004602	0.000204
323.17	0.4922	0.004269	0.000204
323.18	0.2008	0.005202	0.000204
328.119	0.2008	0.004614	0.000204
328.12	0.3497	0.003958	0.000204
328.15	0.4922	0.003789	0.000204
