Measured thermophysical data. Densities and Excess Molar Volumes of 2-Butanol + Cyclohexanamine + Heptane and 2-Butanol + n-Heptane at Temperatures between (288.15 and 323.15) K
Source: J. Chem. Eng. Data, 2010, 10.1021/je900715y
Compound 1: butan-2-ol, C4H10O, InChI=1S/C4H10O/c1-3-4(2)5/h4-5H,3H2,1-2H3
Compound 2: cyclohexylamine, C6H13N, InChI=1S/C6H13N/c7-6-4-2-1-3-5-6/h6H,1-5,7H2
Compound 3: heptane, C7H16, InChI=1S/C7H16/c1-3-5-7-6-4-2/h3-7H2,1-2H3

System: butan-2-ol; phases: Liquid
Fixed: Pressure, kPa = 101.3
Property: Mass density, kg/m3 (Liquid); method: VIBTUB:UFactor:4
Temperature, K	Mass density, kg/m3	uncertainty
288.15	810.689	0.551
293.15	806.646	0.556
298.15	802.528	0.561
303.15	798.326	0.567
308.15	794.03	0.572
313.15	789.632	0.578
318.15	785.117	0.584
323.15	780.515	0.589

System: heptane; phases: Liquid
Fixed: Pressure, kPa = 101.3
Property: Mass density, kg/m3 (Liquid); method: VIBTUB:UFactor:4
Temperature, K	Mass density, kg/m3	uncertainty
288.15	687.954	0.636
293.15	683.733	0.643
298.15	679.494	0.649
303.15	675.229	0.656
308.15	670.941	0.662
313.15	666.621	0.669
318.15	662.273	0.675
323.15	657.896	0.682

System: butan-2-ol + heptane; phases: Liquid
Fixed: Pressure, kPa = 101.3
Property: Mass density, kg/m3 (Liquid); method: VIBTUB:UFactor:4
Temperature, K	Mole fraction of butan-2-ol	Mass density, kg/m3	uncertainty
288.15	0	687.954	0.636
288.15	0.05	691.106	0.634
288.15	0.1	694.641	0.632
288.15	0.15	698.486	0.629
288.15	0.2003	702.573	0.626
288.15	0.3016	711.547	0.619
288.15	0.4004	721.346	0.612
288.15	0.5002	732.429	0.604
288.15	0.5999	744.751	0.595
288.15	0.65	751.547	0.59
288.15	0.72	761.59	0.584
288.15	0.8	774.103	0.575
288.15	0.8499	782.463	0.57
288.15	0.8995	791.187	0.565
288.15	0.9501	800.691	0.559
288.15	1	810.689	0.551
293.15	0	683.733	0.643
293.15	0.05	686.813	0.641
293.15	0.1	690.325	0.638
293.15	0.15	694.158	0.635
293.15	0.2003	698.236	0.632
293.15	0.3016	707.194	0.625
293.15	0.4004	716.97	0.618
293.15	0.5002	728.035	0.61
293.15	0.5999	740.362	0.601
293.15	0.65	747.174	0.596
293.15	0.72	757.255	0.589
293.15	0.8	769.827	0.581
293.15	0.8499	778.238	0.575
293.15	0.8995	787.015	0.57
293.15	0.9501	796.583	0.564
293.15	1	806.646	0.556
298.15	0	679.494	0.649
298.15	0.05	682.487	0.647
298.15	0.1	685.97	0.645
298.15	0.15	689.789	0.642
298.15	0.2003	693.854	0.638
298.15	0.3016	702.791	0.632
298.15	0.4004	712.546	0.624
298.15	0.5002	723.591	0.616
298.15	0.5999	735.917	0.607
298.15	0.65	742.739	0.602
298.15	0.72	752.851	0.595
298.15	0.8	765.479	0.587
298.15	0.8499	773.935	0.581
298.15	0.8995	782.767	0.575
298.15	0.9501	792.396	0.569
298.15	1	802.528	0.561
303.15	0	675.229	0.656
303.15	0.05	678.127	0.654
303.15	0.1	681.576	0.651
303.15	0.15	685.376	0.648
303.15	0.2003	689.427	0.645
303.15	0.3016	698.341	0.638
303.15	0.4004	708.073	0.631
303.15	0.5002	719.095	0.622
303.15	0.5999	731.411	0.613
303.15	0.65	738.239	0.609
303.15	0.72	748.373	0.601
303.15	0.8	761.053	0.593
303.15	0.8499	769.552	0.587
303.15	0.8995	778.434	0.581
303.15	0.9501	788.125	0.575
303.15	1	798.326	0.567
308.15	0	670.941	0.662
308.15	0.05	673.731	0.66
308.15	0.1	677.138	0.658
308.15	0.15	680.913	0.655
308.15	0.2003	684.946	0.652
308.15	0.3016	693.835	0.645
308.15	0.4004	703.542	0.637
308.15	0.5002	714.54	0.629
308.15	0.5999	726.839	0.62
308.15	0.65	733.67	0.615
308.15	0.72	743.821	0.608
308.15	0.8	756.541	0.599
308.15	0.8499	765.08	0.593
308.15	0.8995	774.01	0.587
308.15	0.9501	783.761	0.58
308.15	1	794.03	0.572
313.15	0	666.621	0.669
313.15	0.05	669.301	0.667
313.15	0.1	672.659	0.664
313.15	0.15	676.402	0.661
313.15	0.2003	680.415	0.658
313.15	0.3016	689.275	0.651
313.15	0.4004	698.952	0.644
313.15	0.5002	709.925	0.636
313.15	0.5999	722.202	0.626
313.15	0.65	729.03	0.621
313.15	0.72	739.19	0.614
313.15	0.8	751.943	0.605
313.15	0.8499	760.519	0.599
313.15	0.8995	769.495	0.593
313.15	0.9501	779.299	0.586
313.15	1	789.632	0.578
318.15	0	662.273	0.675
318.15	0.05	664.835	0.674
318.15	0.1	668.131	0.671
318.15	0.15	671.84	0.668
318.15	0.2003	675.83	0.665
318.15	0.3016	684.65	0.658
318.15	0.4004	694.299	0.651
318.15	0.5002	705.243	0.642
318.15	0.5999	717.496	0.633
318.15	0.65	724.317	0.628
318.15	0.72	734.479	0.62
318.15	0.8	747.257	0.611
318.15	0.8499	755.863	0.605
318.15	0.8995	764.879	0.599
318.15	0.9501	774.738	0.592
318.15	1	785.117	0.584
323.15	0	657.896	0.682
323.15	0.05	660.336	0.68
323.15	0.1	663.562	0.678
323.15	0.15	667.23	0.675
323.15	0.2003	671.188	0.672
323.15	0.3016	679.969	0.665
323.15	0.4004	689.584	0.657
323.15	0.5002	700.502	0.649
323.15	0.5999	712.72	0.639
323.15	0.65	719.533	0.634
323.15	0.72	729.69	0.627
323.15	0.8	742.488	0.617
323.15	0.8499	751.116	0.611
323.15	0.8995	760.166	0.605
323.15	0.9501	770.073	0.598
323.15	1	780.515	0.589

System: butan-2-ol + cyclohexylamine + heptane; phases: Liquid
Fixed: Pressure, kPa = 101.3
Property: Mass density, kg/m3 (Liquid); method: VIBTUB:UFactor:4
Temperature, K	Mole fraction of butan-2-ol	Mole fraction of cyclohexylamine	Mass density, kg/m3	uncertainty
288.15	0.02	0.8998	851.862	0.493
288.15	0.0203	0.7997	829.267	0.508
288.15	0.0305	0.6991	809.738	0.523
288.15	0.04	0.7999	833.199	0.506
288.15	0.0401	0.8998	855.671	0.491
288.15	0.0403	0.5996	791.274	0.537
288.15	0.05	0.5	773.636	0.552
288.15	0.0602	0.8997	860.076	0.489
288.15	0.0604	0.6995	815.2	0.519
288.15	0.0606	0.3998	756.821	0.568
288.15	0.0678	0.3006	740.535	0.583
288.15	0.0801	0.2002	725.086	0.599
288.15	0.0801	0.8	840.865	0.501
288.15	0.0802	0.8997	864.148	0.487
288.15	0.0804	0.5995	797.8	0.533
288.15	0.0905	0.8991	866.147	0.486
288.15	0.0911	0.1001	710.007	0.615
288.15	0.1003	0.4998	781.023	0.547
288.15	0.1201	0.7	825.946	0.513
288.15	0.1203	0.7994	848.653	0.497
288.15	0.1204	0.3998	764.832	0.562
288.15	0.1402	0.3	749.159	0.577
288.15	0.1599	0.6002	811.433	0.524
288.15	0.1599	0.8	856.858	0.493
288.15	0.1603	0.2002	733.819	0.593
288.15	0.1798	0.6999	837.312	0.506
288.15	0.18	0.7997	860.769	0.491
288.15	0.1801	0.1004	718.547	0.609
288.15	0.2002	0.4999	796.479	0.537
288.15	0.2399	0.4001	781.962	0.55
288.15	0.2399	0.7	848.947	0.5
288.15	0.24	0.5999	825.384	0.516
288.15	0.27	0.6998	854.972	0.496
288.15	0.2802	0.3001	767.446	0.564
288.15	0.3001	0.4997	813.19	0.527
288.15	0.32	0.5999	840.535	0.507
288.15	0.3201	0.2	752.682	0.579
288.15	0.3596	0.4005	800.845	0.538
288.15	0.3601	0.1001	737.428	0.595
288.15	0.3602	0.5995	848.563	0.503
288.15	0.4001	0.4999	831.599	0.516
288.15	0.4201	0.2998	787.777	0.551
288.15	0.4499	0.5001	841.381	0.51
288.15	0.4799	0.3998	821.67	0.526
288.15	0.48	0.1999	774.154	0.565
288.15	0.5399	0.4002	833.263	0.519
288.15	0.5401	0.0999	759.947	0.581
288.15	0.5602	0.2998	811.179	0.537
288.15	0.6297	0.3002	824.183	0.529
288.15	0.6399	0.2001	799.581	0.549
288.15	0.7196	0.1003	787.305	0.563
288.15	0.7199	0.2	814.075	0.541
288.15	0.8096	0.1003	803.189	0.553
293.15	0.02	0.8998	847.385	0.498
293.15	0.0203	0.7997	824.856	0.514
293.15	0.0305	0.6991	805.361	0.528
293.15	0.04	0.7999	828.766	0.511
293.15	0.0401	0.8998	851.187	0.497
293.15	0.0403	0.5996	786.935	0.543
293.15	0.05	0.5	769.319	0.558
293.15	0.0602	0.8997	855.61	0.494
293.15	0.0604	0.6995	810.715	0.525
293.15	0.0606	0.3998	752.519	0.573
293.15	0.0678	0.3006	736.242	0.589
293.15	0.0801	0.2002	720.797	0.605
293.15	0.0801	0.8	836.416	0.507
293.15	0.0802	0.8997	859.677	0.492
293.15	0.0804	0.5995	793.338	0.539
293.15	0.0905	0.8991	861.673	0.491
293.15	0.0911	0.1001	705.693	0.621
293.15	0.1003	0.4998	776.693	0.553
293.15	0.1201	0.7	821.597	0.518
293.15	0.1203	0.7994	844.234	0.503
293.15	0.1204	0.3998	760.513	0.568
293.15	0.1402	0.3	744.843	0.583
293.15	0.1599	0.6002	807.074	0.53
293.15	0.1599	0.8	852.43	0.498
293.15	0.1603	0.2002	729.502	0.598
293.15	0.1798	0.6999	832.9	0.511
293.15	0.18	0.7997	856.337	0.496
293.15	0.1801	0.1004	714.222	0.615
293.15	0.2002	0.4999	792.132	0.543
293.15	0.2399	0.4001	777.624	0.556
293.15	0.2399	0.7	844.549	0.505
293.15	0.24	0.5999	820.979	0.521
293.15	0.27	0.6998	850.642	0.502
293.15	0.2802	0.3001	763.111	0.57
293.15	0.3001	0.4997	808.835	0.532
293.15	0.32	0.5999	836.16	0.513
293.15	0.3201	0.2	748.347	0.584
293.15	0.3596	0.4005	796.501	0.544
293.15	0.3601	0.1001	733.088	0.601
293.15	0.3602	0.5995	844.183	0.508
293.15	0.4001	0.4999	827.243	0.521
293.15	0.4201	0.2998	783.451	0.556
293.15	0.4499	0.5001	837.029	0.516
293.15	0.4799	0.3998	817.34	0.531
293.15	0.48	0.1999	769.837	0.57
293.15	0.5399	0.4002	828.949	0.525
293.15	0.5401	0.0999	755.625	0.586
293.15	0.5602	0.2998	806.885	0.542
293.15	0.6297	0.3002	819.915	0.535
293.15	0.6399	0.2001	795.317	0.555
293.15	0.7196	0.1003	783.057	0.568
293.15	0.7199	0.2	809.852	0.546
293.15	0.8096	0.1003	799.012	0.558
298.15	0.02	0.8998	842.879	0.504
298.15	0.0203	0.7997	820.439	0.52
298.15	0.0305	0.6991	800.982	0.534
298.15	0.04	0.7999	824.29	0.517
298.15	0.0401	0.8998	846.733	0.502
298.15	0.0403	0.5996	782.582	0.549
298.15	0.05	0.5	764.986	0.564
298.15	0.0602	0.8997	851.138	0.499
298.15	0.0604	0.6995	806.26	0.531
298.15	0.0606	0.3998	748.197	0.58
298.15	0.0678	0.3006	731.924	0.595
298.15	0.0801	0.2002	716.478	0.611
298.15	0.0801	0.8	832.029	0.513
298.15	0.0802	0.8997	855.201	0.497
298.15	0.0804	0.5995	788.977	0.545
298.15	0.0905	0.8991	857.19	0.499
298.15	0.0911	0.1001	701.423	0.628
298.15	0.1003	0.4998	772.346	0.559
298.15	0.1201	0.7	817.186	0.524
298.15	0.1203	0.7994	839.801	0.507
298.15	0.1204	0.3998	756.172	0.574
298.15	0.1402	0.3	740.499	0.589
298.15	0.1599	0.6002	802.696	0.536
298.15	0.1599	0.8	847.992	0.503
298.15	0.1603	0.2002	725.153	0.605
298.15	0.1798	0.6999	828.431	0.516
298.15	0.18	0.7997	851.89	0.502
298.15	0.1801	0.1004	709.86	0.621
298.15	0.2002	0.4999	787.765	0.549
298.15	0.2399	0.4001	773.262	0.562
298.15	0.2399	0.7	840.137	0.51
298.15	0.24	0.5999	816.653	0.526
298.15	0.27	0.6998	846.213	0.507
298.15	0.2802	0.3001	758.745	0.576
298.15	0.3001	0.4997	804.458	0.537
298.15	0.32	0.5999	831.766	0.517
298.15	0.3201	0.2	743.977	0.591
298.15	0.3596	0.4005	792.13	0.548
298.15	0.3601	0.1001	728.706	0.607
298.15	0.3602	0.5995	839.785	0.514
298.15	0.4001	0.4999	822.864	0.526
298.15	0.4201	0.2998	779.092	0.561
298.15	0.4499	0.5001	832.652	0.521
298.15	0.4799	0.3998	812.984	0.536
298.15	0.48	0.1999	765.482	0.575
298.15	0.5399	0.4002	824.604	0.53
298.15	0.5401	0.0999	751.251	0.591
298.15	0.5602	0.2998	802.557	0.546
298.15	0.6297	0.3002	815.611	0.54
298.15	0.6399	0.2001	791.009	0.559
298.15	0.7196	0.1003	778.754	0.573
298.15	0.7199	0.2	805.592	0.551
298.15	0.8096	0.1003	794.772	0.563
303.15	0.0401	0.8998	842.441	0.516
303.15	0.0602	0.8997	851.138	0.503
303.15	0.0801	0.8	827.609	0.521
303.15	0.0802	0.8997	855.201	0.498
303.15	0.0905	0.8991	857.19	0.496
303.15	0.1201	0.7	812.804	0.532
303.15	0.1203	0.7994	839.801	0.509
303.15	0.1599	0.6002	798.098	0.543
303.15	0.1599	0.8	847.992	0.503
303.15	0.1798	0.6999	828.431	0.518
303.15	0.18	0.7997	851.89	0.5
303.15	0.2399	0.7	840.137	0.51
303.15	0.24	0.5999	816.653	0.528
303.15	0.27	0.6998	846.213	0.506
303.15	0.3001	0.4997	804.458	0.539
303.15	0.32	0.5999	831.766	0.518
303.15	0.3596	0.4005	792.13	0.55
303.15	0.3602	0.5995	839.785	0.512
303.15	0.4001	0.4999	822.864	0.527
303.15	0.4201	0.2998	779.092	0.563
303.15	0.4499	0.5001	832.652	0.52
303.15	0.4799	0.3998	812.984	0.536
303.15	0.48	0.1999	765.482	0.577
303.15	0.5399	0.4002	824.604	0.529
303.15	0.5401	0.0999	751.251	0.592
303.15	0.5602	0.2998	802.557	0.547
303.15	0.6297	0.3002	815.611	0.539
303.15	0.6399	0.2001	791.009	0.56
303.15	0.7196	0.1003	778.754	0.574
303.15	0.7199	0.2	805.592	0.55
303.15	0.8096	0.1003	794.772	0.563
303.15	0.0602	0.8997	846.659	0.508
303.15	0.0802	0.8997	850.717	0.503
303.15	0.0905	0.8991	852.707	0.503
303.15	0.1203	0.7994	835.362	0.515
303.15	0.1599	0.8	843.542	0.508
303.15	0.1798	0.6999	823.969	0.524
303.15	0.18	0.7997	847.441	0.505
303.15	0.2399	0.7	835.706	0.515
303.15	0.24	0.5999	812.215	0.534
303.15	0.27	0.6998	841.797	0.511
303.15	0.3001	0.4997	800.055	0.545
303.15	0.32	0.5999	827.352	0.523
303.15	0.3596	0.4005	787.734	0.556
303.15	0.3602	0.5995	835.368	0.517
303.15	0.4001	0.4999	818.462	0.533
303.15	0.4201	0.2998	774.696	0.569
303.15	0.4499	0.5001	828.255	0.525
303.15	0.4799	0.3998	808.598	0.542
303.15	0.48	0.1999	761.083	0.583
303.15	0.5399	0.4002	820.23	0.534
303.15	0.5401	0.0999	746.823	0.599
303.15	0.5602	0.2998	798.187	0.553
303.15	0.6297	0.3002	811.267	0.544
303.15	0.6399	0.2001	786.651	0.566
303.15	0.7196	0.1003	774.386	0.58
303.15	0.7199	0.2	801.274	0.556
303.15	0.8096	0.1003	790.465	0.569
303.15	0.0602	0.8997	846.659	0.508
303.15	0.0802	0.8997	850.717	0.503
303.15	0.1203	0.7994	835.362	0.515
303.15	0.1599	0.8	843.542	0.508
303.15	0.1798	0.6999	823.969	0.524
303.15	0.2399	0.7	835.706	0.515
303.15	0.24	0.5999	812.215	0.534
303.15	0.3001	0.4997	800.055	0.545
303.15	0.32	0.5999	827.352	0.523
303.15	0.3596	0.4005	787.734	0.556
303.15	0.4001	0.4999	818.462	0.533
303.15	0.4201	0.2998	774.696	0.569
303.15	0.4799	0.3998	808.598	0.542
303.15	0.48	0.1999	761.083	0.583
303.15	0.5399	0.4002	820.23	0.534
303.15	0.5401	0.0999	746.823	0.599
303.15	0.5602	0.2998	798.187	0.553
303.15	0.6297	0.3002	811.267	0.544
303.15	0.6399	0.2001	786.651	0.566
303.15	0.7196	0.1003	774.386	0.58
303.15	0.7199	0.2	801.274	0.556
303.15	0.8096	0.1003	790.465	0.569
308.15	0.02	0.8998	834.008	0.515
308.15	0.0203	0.7997	811.585	0.531
308.15	0.0305	0.6991	792.188	0.546
308.15	0.04	0.7999	815.428	0.529
308.15	0.0401	0.8998	837.779	0.513
308.15	0.0403	0.5996	773.833	0.561
308.15	0.05	0.5	756.268	0.576
308.15	0.0602	0.8997	842.175	0.513
308.15	0.0604	0.6995	797.455	0.542
308.15	0.0606	0.3998	739.492	0.592
308.15	0.0678	0.3006	723.217	0.608
308.15	0.0801	0.2002	707.754	0.624
308.15	0.0801	0.8	823.104	0.524
308.15	0.0802	0.8997	846.23	0.511
308.15	0.0804	0.5995	780.207	0.556
308.15	0.0905	0.8991	848.215	0.513
308.15	0.0911	0.1001	692.602	0.641
308.15	0.1003	0.4998	763.592	0.571
308.15	0.1201	0.7	808.329	0.535
308.15	0.1203	0.7994	830.908	0.521
308.15	0.1204	0.3998	747.419	0.586
308.15	0.1402	0.3	731.729	0.601
308.15	0.1599	0.6002	793.889	0.547
308.15	0.1599	0.8	839.08	0.517
308.15	0.1603	0.2002	716.349	0.617
308.15	0.1798	0.6999	819.526	0.53
308.15	0.18	0.7997	842.973	0.516
308.15	0.1801	0.1004	701.012	0.634
308.15	0.2002	0.4999	778.958	0.56
308.15	0.2399	0.4001	764.45	0.573
308.15	0.2399	0.7	831.26	0.524
308.15	0.24	0.5999	807.806	0.54
308.15	0.27	0.6998	837.356	0.521
308.15	0.2802	0.3001	749.913	0.588
308.15	0.3001	0.4997	795.626	0.551
308.15	0.32	0.5999	822.912	0.531
308.15	0.3201	0.2	735.115	0.603
308.15	0.3596	0.4005	783.301	0.563
308.15	0.3601	0.1001	719.794	0.62
308.15	0.3602	0.5995	830.923	0.528
308.15	0.4001	0.4999	814.03	0.54
308.15	0.4201	0.2998	770.26	0.576
308.15	0.4499	0.5001	823.823	0.535
308.15	0.4799	0.3998	804.176	0.55
308.15	0.48	0.1999	756.633	0.59
308.15	0.5399	0.4002	815.817	0.544
308.15	0.5401	0.0999	742.337	0.606
308.15	0.5602	0.2998	793.775	0.561
308.15	0.6297	0.3002	806.877	0.554
308.15	0.6399	0.2001	782.241	0.573
308.15	0.7196	0.1003	769.95	0.587
308.15	0.7199	0.2	796.899	0.565
308.15	0.8096	0.1003	786.086	0.577
313.15	0.02	0.8998	829.612	0.521
313.15	0.0203	0.7997	807.146	0.537
313.15	0.0305	0.6991	787.773	0.552
313.15	0.04	0.7999	811.094	0.534
313.15	0.0401	0.8998	833.301	0.519
313.15	0.0403	0.5996	769.434	0.567
313.15	0.05	0.5	751.878	0.582
313.15	0.0602	0.8997	837.682	0.517
313.15	0.0604	0.6995	793.028	0.548
313.15	0.0606	0.3998	735.103	0.598
313.15	0.0678	0.3006	718.822	0.614
313.15	0.0801	0.2002	703.341	0.63
313.15	0.0801	0.8	818.689	0.53
313.15	0.0802	0.8997	841.731	0.514
313.15	0.0804	0.5995	775.792	0.563
313.15	0.0905	0.8991	843.715	0.513
313.15	0.0911	0.1001	688.169	0.647
313.15	0.1003	0.4998	759.18	0.577
313.15	0.1201	0.7	803.906	0.541
313.15	0.1203	0.7994	826.44	0.525
313.15	0.1204	0.3998	743.001	0.592
313.15	0.1402	0.3	727.296	0.608
313.15	0.1599	0.6002	789.45	0.553
313.15	0.1599	0.8	834.601	0.52
313.15	0.1603	0.2002	711.888	0.624
313.15	0.1798	0.6999	815.146	0.534
313.15	0.18	0.7997	838.49	0.518
313.15	0.1801	0.1004	696.518	0.64
313.15	0.2002	0.4999	774.517	0.566
313.15	0.2399	0.4001	759.997	0.58
313.15	0.2399	0.7	826.791	0.527
313.15	0.24	0.5999	803.387	0.544
313.15	0.27	0.6998	832.912	0.524
313.15	0.2802	0.3001	745.441	0.594
313.15	0.3001	0.4997	791.168	0.555
313.15	0.32	0.5999	818.445	0.535
313.15	0.3201	0.2	730.615	0.609
313.15	0.3596	0.4005	778.832	0.567
313.15	0.3601	0.1001	715.256	0.626
313.15	0.3602	0.5995	826.456	0.531
313.15	0.4001	0.4999	809.568	0.544
313.15	0.4201	0.2998	765.778	0.58
313.15	0.4499	0.5001	819.36	0.538
313.15	0.4799	0.3998	799.714	0.554
313.15	0.48	0.1999	752.131	0.594
313.15	0.5399	0.4002	811.365	0.547
313.15	0.5401	0.0999	737.789	0.61
313.15	0.5602	0.2998	789.315	0.565
313.15	0.6297	0.3002	802.439	0.557
313.15	0.6399	0.2001	777.769	0.577
313.15	0.7196	0.1003	765.44	0.591
313.15	0.7199	0.2	792.462	0.568
313.15	0.8096	0.1003	781.631	0.581
318.15	0.02	0.8998	825.197	0.526
318.15	0.0203	0.7997	802.692	0.543
318.15	0.0305	0.6991	783.345	0.558
318.15	0.04	0.7999	806.541	0.54
318.15	0.0401	0.8998	828.812	0.525
318.15	0.0403	0.5996	765.015	0.573
318.15	0.05	0.5	747.464	0.588
318.15	0.0602	0.8997	833.18	0.522
318.15	0.0604	0.6995	788.585	0.554
318.15	0.0606	0.3998	730.686	0.604
318.15	0.0678	0.3006	714.391	0.621
318.15	0.0801	0.2002	698.893	0.637
318.15	0.0801	0.8	814.213	0.535
318.15	0.0802	0.8997	837.221	0.52
318.15	0.0804	0.5995	771.357	0.569
318.15	0.0905	0.8991	839.203	0.519
318.15	0.0911	0.1001	683.702	0.654
318.15	0.1003	0.4998	754.742	0.583
318.15	0.1201	0.7	799.432	0.547
318.15	0.1203	0.7994	821.957	0.531
318.15	0.1204	0.3998	738.55	0.599
318.15	0.1402	0.3	722.825	0.614
318.15	0.1599	0.6002	784.986	0.559
318.15	0.1599	0.8	830.105	0.526
318.15	0.1603	0.2002	707.374	0.63
318.15	0.1798	0.6999	810.612	0.54
318.15	0.18	0.7997	833.99	0.524
318.15	0.1801	0.1004	691.977	0.647
318.15	0.1998	0.4999	770.041	0.572
318.15	0.2399	0.7	822.299	0.533
318.15	0.24	0.5999	798.834	0.55
318.15	0.2402	0.4001	755.507	0.586
318.15	0.27	0.6998	828.413	0.529
318.15	0.2802	0.3001	740.924	0.6
318.15	0.3001	0.4997	786.676	0.561
318.15	0.3198	0.2	726.064	0.616
318.15	0.32	0.5999	813.951	0.541
318.15	0.3596	0.4005	774.326	0.573
318.15	0.3602	0.5995	821.955	0.536
318.15	0.3603	0.1001	710.658	0.633
318.15	0.4001	0.4999	805.065	0.55
318.15	0.4201	0.2998	761.251	0.586
318.15	0.4499	0.5001	814.861	0.544
318.15	0.4799	0.3998	795.205	0.56
318.15	0.48	0.1999	747.571	0.601
318.15	0.5399	0.4002	806.869	0.553
318.15	0.5401	0.0999	733.174	0.617
318.15	0.5602	0.2998	784.802	0.571
318.15	0.6297	0.3002	797.945	0.563
318.15	0.6399	0.2001	773.236	0.583
318.15	0.7196	0.1003	760.857	0.598
318.15	0.7199	0.2	787.96	0.574
318.15	0.8096	0.1003	777.094	0.587
323.15	0.02	0.8998	820.789	0.532
323.15	0.0203	0.7997	798.233	0.548
323.15	0.0305	0.6991	778.902	0.563
323.15	0.04	0.7999	802.455	0.545
323.15	0.0401	0.8998	824.307	0.53
323.15	0.0403	0.5996	760.582	0.579
323.15	0.05	0.5	743.031	0.594
323.15	0.0602	0.8997	828.669	0.528
323.15	0.0604	0.6995	784.126	0.56
323.15	0.0606	0.3998	726.247	0.61
323.15	0.0678	0.3006	709.936	0.627
323.15	0.0801	0.2002	694.407	0.643
323.15	0.0801	0.8	809.741	0.541
323.15	0.0802	0.8997	832.705	0.525
323.15	0.0804	0.5995	766.9	0.574
323.15	0.0905	0.8991	834.684	0.524
323.15	0.0911	0.1001	679.102	0.661
323.15	0.1003	0.4998	750.272	0.589
323.15	0.1201	0.7	794.989	0.553
323.15	0.1203	0.7994	817.459	0.536
323.15	0.1204	0.3998	734.065	0.604
323.15	0.1402	0.3	718.316	0.62
323.15	0.1599	0.6002	780.498	0.565
323.15	0.1599	0.8	825.592	0.532
323.15	0.1603	0.2002	702.828	0.636
323.15	0.1798	0.6999	806.033	0.546
323.15	0.18	0.7997	829.471	0.529
323.15	0.1801	0.1004	687.376	0.654
323.15	0.2002	0.4999	765.536	0.578
323.15	0.2399	0.4001	750.976	0.592
323.15	0.2399	0.7	817.784	0.539
323.15	0.24	0.5999	794.314	0.556
323.15	0.27	0.6998	823.865	0.535
323.15	0.2802	0.3001	736.37	0.606
323.15	0.3001	0.4997	782.152	0.566
323.15	0.32	0.5999	809.425	0.546
323.15	0.3201	0.2	721.478	0.622
323.15	0.3596	0.4005	769.78	0.579
323.15	0.3601	0.1001	706.002	0.639
323.15	0.3602	0.5995	817.427	0.542
323.15	0.4001	0.4999	800.529	0.555
323.15	0.4201	0.2998	756.672	0.592
323.15	0.4499	0.5001	810.329	0.55
323.15	0.4799	0.3998	790.657	0.565
323.15	0.48	0.1999	742.957	0.606
323.15	0.5399	0.4002	802.33	0.558
323.15	0.5401	0.0999	728.494	0.622
323.15	0.5602	0.2998	780.237	0.576
323.15	0.6297	0.3002	793.396	0.568
323.15	0.6399	0.2001	768.639	0.589
323.15	0.7196	0.1003	756.194	0.603
323.15	0.7199	0.2	783.389	0.58
323.15	0.8096	0.1003	772.475	0.593
