Measured thermophysical data. Excess Molar Enthalpies of Binary Systems of 2-Octanone or 3-Octanone with Dodecane, Tetradecane, or Hexadecane at 298.15 K
Source: J. Chem. Eng. Data, 2010, 10.1021/je900311v
Compound 1: 2-octanone, C8H16O, InChI=1S/C8H16O/c1-3-4-5-6-7-8(2)9/h3-7H2,1-2H3, purity 99%
Compound 2: 3-octanone, C8H16O, InChI=1S/C8H16O/c1-3-5-6-7-8(9)4-2/h3-7H2,1-2H3, purity 99%
Compound 3: dodecane, C12H26, InChI=1S/C12H26/c1-3-5-7-9-11-12-10-8-6-4-2/h3-12H2,1-2H3, purity 99%
Compound 4: tetradecane, C14H30, InChI=1S/C14H30/c1-3-5-7-9-11-13-14-12-10-8-6-4-2/h3-14H2,1-2H3, purity 99%
Compound 5: hexadecane, C16H34, InChI=1S/C16H34/c1-3-5-7-9-11-13-15-16-14-12-10-8-6-4-2/h3-16H2,1-2H3, purity 99%

System: 2-octanone; phases: Liquid
Property: Mass density, kg/m3 (Liquid); method: VIBTUB:UFactor:4
Temperature, K	Pressure, kPa	Mass density, kg/m3	uncertainty
298.15	101.325	814.28	0.55

System: 3-octanone; phases: Liquid
Property: Mass density, kg/m3 (Liquid); method: VIBTUB:UFactor:4
Temperature, K	Pressure, kPa	Mass density, kg/m3	uncertainty
298.15	101.325	817.77	0.55

System: dodecane; phases: Liquid
Property: Mass density, kg/m3 (Liquid); method: VIBTUB:UFactor:4
Temperature, K	Pressure, kPa	Mass density, kg/m3	uncertainty
298.15	101.325	745.28	0.64

System: tetradecane; phases: Liquid
Property: Mass density, kg/m3 (Liquid); method: VIBTUB:UFactor:4
Temperature, K	Pressure, kPa	Mass density, kg/m3	uncertainty
298.15	101.325	760.2	0.62

System: hexadecane; phases: Liquid
Property: Mass density, kg/m3 (Liquid); method: VIBTUB:UFactor:4
Temperature, K	Pressure, kPa	Mass density, kg/m3	uncertainty
298.15	101.325	770.31	0.61

System: 2-octanone + dodecane; phases: Liquid
Fixed: Pressure, kPa = 101
Fixed: Temperature, K = 298.15
Property: Excess molar enthalpy (molar enthalpy of mixing), kJ/mol (Liquid); method: Calvet calorimetry
Mole fraction of 2-octanone	Excess molar enthalpy (molar enthalpy of mixing), kJ/mol	uncertainty
0.035	0.1906	0.003
0.0677	0.3436	0.0047
0.0982	0.4656	0.0062
0.1267	0.5694	0.0074
0.1564	0.6644	0.0086
0.1841	0.7422	0.0095
0.2101	0.8059	0.0103
0.2345	0.8581	0.0109
0.2613	0.9082	0.0116
0.2862	0.9476	0.012
0.3096	0.9791	0.0124
0.3314	1.0053	0.0127
0.3519	1.0248	0.013
0.3712	1.0395	0.0132
0.3931	1.0525	0.0133
0.4135	1.0617	0.0134
0.4325	1.0686	0.0135
0.4499	1.0681	0.0135
0.4504	1.0705	0.0135
0.4596	1.0705	0.0135
0.4698	1.0713	0.0135
0.4804	1.0714	0.0135
0.4915	1.071	0.0135
0.5031	1.0688	0.0135
0.5138	1.0656	0.0135
0.525	1.0606	0.0134
0.5366	1.0555	0.0133
0.5488	1.0491	0.0133
0.5615	1.0404	0.0132
0.5749	1.0307	0.013
0.5866	1.0209	0.0129
0.5986	1.0098	0.0128
0.6133	0.9976	0.0126
0.6244	0.9838	0.0125
0.6381	0.9669	0.0123
0.6525	0.9483	0.012
0.6658	0.9294	0.0118
0.6795	0.9089	0.0116
0.6938	0.8858	0.0113
0.7072	0.8627	0.011
0.721	0.8364	0.0107
0.7355	0.8085	0.0103
0.7505	0.7765	0.0099
0.7661	0.7426	0.0095
0.7808	0.7099	0.0091
0.7961	0.6729	0.0087
0.812	0.6334	0.0082
0.8265	0.5962	0.0078
0.8414	0.5548	0.0072
0.857	0.5097	0.0067
0.873	0.4619	0.0061
0.8877	0.4158	0.0056
0.9032	0.3664	0.005
0.9191	0.3119	0.0043
0.9356	0.2543	0.0036
0.9509	0.1967	0.003
0.9667	0.1365	0.0023
0.9831	0.0699	0.0016

System: 2-octanone + tetradecane; phases: Liquid
Fixed: Pressure, kPa = 101
Fixed: Temperature, K = 298.15
Property: Excess molar enthalpy (molar enthalpy of mixing), kJ/mol (Liquid); method: Calvet calorimetry
Mole fraction of 2-octanone	Excess molar enthalpy (molar enthalpy of mixing), kJ/mol	uncertainty
0.0383	0.2116	0.0032
0.0737	0.3799	0.0052
0.1066	0.5162	0.0068
0.1373	0.6272	0.0081
0.1659	0.722	0.0093
0.1927	0.7986	0.0102
0.2226	0.8745	0.0111
0.2504	0.9349	0.0119
0.2763	0.9835	0.0125
0.3005	1.0222	0.0129
0.3231	1.053	0.0133
0.3443	1.0774	0.0136
0.3678	1.1002	0.0139
0.3898	1.1169	0.0141
0.4102	1.1289	0.0143
0.4151	1.142	0.0144
0.4243	1.1461	0.0145
0.4339	1.1496	0.0145
0.444	1.1525	0.0145
0.4546	1.1544	0.0146
0.4657	1.1556	0.0146
0.4756	1.1552	0.0146
0.486	1.1541	0.0146
0.4968	1.1518	0.0145
0.5082	1.1488	0.0145
0.52	1.1446	0.0144
0.5304	1.14	0.0144
0.5412	1.1346	0.0143
0.5525	1.1282	0.0142
0.5643	1.1201	0.0141
0.5765	1.1107	0.014
0.5893	1.0997	0.0139
0.6004	1.0891	0.0138
0.612	1.0769	0.0136
0.624	1.0631	0.0134
0.6364	1.0475	0.0133
0.6494	1.0297	0.013
0.6629	1.0104	0.0128
0.6753	0.9908	0.0126
0.6882	0.9692	0.0123
0.7016	0.9451	0.012
0.7155	0.9184	0.0117
0.73	0.8907	0.0113
0.7451	0.8585	0.0109
0.7709	0.8007	0.0102
0.7844	0.7676	0.0098
0.7985	0.7316	0.0094
0.8131	0.6917	0.0089
0.8282	0.6497	0.0084
0.8413	0.6106	0.0079
0.8549	0.5684	0.0074
0.8689	0.5232	0.0069
0.8834	0.4747	0.0063
0.8983	0.4221	0.0057
0.9138	0.3654	0.005
0.9271	0.3146	0.0044
0.9409	0.2602	0.0037
0.955	0.2017	0.0031
0.9695	0.1387	0.0024
0.9845	0.0711	0.0017

System: 2-octanone + hexadecane; phases: Liquid
Fixed: Pressure, kPa = 101
Fixed: Temperature, K = 298.15
Property: Excess molar enthalpy (molar enthalpy of mixing), kJ/mol (Liquid); method: Calvet calorimetry
Mole fraction of 2-octanone	Excess molar enthalpy (molar enthalpy of mixing), kJ/mol	uncertainty
0.0446	0.2501	0.0037
0.0854	0.4468	0.006
0.1228	0.6044	0.0079
0.1573	0.7311	0.0094
0.1926	0.8448	0.0108
0.2251	0.9341	0.0119
0.255	1.0081	0.0128
0.2827	1.0652	0.0135
0.3084	1.1109	0.014
0.3324	1.1473	0.0145
0.3585	1.1807	0.0149
0.3826	1.2053	0.0152
0.405	1.2233	0.0154
0.4258	1.2359	0.0156
0.448	1.2452	0.0157
0.4685	1.2493	0.0157
0.4876	1.25	0.0157
0.4933	1.2544	0.0158
0.5044	1.2546	0.0158
0.5161	1.2528	0.0158
0.5282	1.2504	0.0157
0.541	1.2461	0.0157
0.5519	1.2421	0.0156
0.5633	1.236	0.0156
0.5751	1.2291	0.0155
0.5874	1.2194	0.0154
0.6003	1.2087	0.0152
0.6138	1.1958	0.0151
0.6257	1.1825	0.0149
0.6508	1.1502	0.0145
0.6642	1.1308	0.0143
0.6781	1.1085	0.014
0.6926	1.0835	0.0137
0.7048	1.061	0.0134
0.7174	1.0368	0.0131
0.737	1.0087	0.0128
0.7443	0.9789	0.0124
0.7583	0.9449	0.012
0.7732	0.9079	0.0116
0.7861	0.8732	0.0111
0.7993	0.8369	0.0107
0.8131	0.7962	0.0102
0.8273	0.75275	0.00967
0.84	0.7108	0.0092
0.8531	0.6667	0.0086
0.8666	0.6178	0.008
0.8805	0.5661	0.0074
0.8949	0.5095	0.0067
0.9075	0.457	0.0061
0.9204	0.4019	0.0054
0.9337	0.3427	0.0047
0.9473	0.2789	0.004
0.9614	0.2089	0.0032
0.9739	0.1448	0.0025
0.9868	0.0742	0.0018

System: 3-octanone + dodecane; phases: Liquid
Fixed: Pressure, kPa = 101
Fixed: Temperature, K = 298.15
Property: Excess molar enthalpy (molar enthalpy of mixing), kJ/mol (Liquid); method: Calvet calorimetry
Mole fraction of 3-octanone	Excess molar enthalpy (molar enthalpy of mixing), kJ/mol	uncertainty
0.0352	0.1707	0.0027
0.0679	0.3135	0.0044
0.0985	0.4276	0.0057
0.1272	0.5265	0.0069
0.1541	0.6066	0.0079
0.1794	0.6766	0.0087
0.2078	0.7449	0.0096
0.2344	0.8033	0.0103
0.2592	0.8486	0.0108
0.2824	0.8882	0.0113
0.3042	0.9202	0.0117
0.3248	0.9463	0.012
0.3477	0.9693	0.0123
0.3691	0.9883	0.0125
0.3892	1.0007	0.0127
0.408	1.0112	0.0128
0.4257	1.0181	0.0129
0.445	1.0228	0.0129
0.4631	1.0257	0.013
0.48	1.0261	0.013
0.4959	1.025	0.013
0.5109	1.0219	0.0129
0.525	1.0172	0.0129
0.5383	1.0108	0.0128
0.5524	1.0022	0.0127
0.5657	0.9932	0.0126
0.5782	0.9837	0.0125
0.5798	0.9769	0.0124
0.59	0.9737	0.0124
0.5925	0.9676	0.0123
0.6057	0.9566	0.0121
0.6194	0.9436	0.012
0.632	0.9301	0.0118
0.6451	0.9148	0.0116
0.6588	0.8975	0.0114
0.673	0.8788	0.0112
0.6855	0.8643	0.011
0.6985	0.8413	0.0107
0.712	0.8189	0.0105
0.726	0.7943	0.0102
0.7405	0.767	0.0098
0.7557	0.7377	0.0095
0.7693	0.7098	0.0091
0.7833	0.6799	0.0088
0.798	0.6462	0.0084
0.8133	0.6094	0.0079
0.8289	0.5688	0.0074
0.8453	0.5256	0.0069
0.8592	0.487	0.0064
0.8735	0.4455	0.0059
0.8883	0.4007	0.0054
0.9036	0.3523	0.0048
0.9194	0.3001	0.0042
0.9358	0.2448	0.0035
0.9511	0.1898	0.0029
0.9668	0.1308	0.0022
0.9831	0.0672	0.0016

System: 3-octanone + tetradecane; phases: Liquid
Fixed: Pressure, kPa = 101
Fixed: Temperature, K = 298.15
Property: Excess molar enthalpy (molar enthalpy of mixing), kJ/mol (Liquid); method: Calvet calorimetry
Mole fraction of 3-octanone	Excess molar enthalpy (molar enthalpy of mixing), kJ/mol	uncertainty
0.0384	0.195	0.003
0.074	0.3534	0.0048
0.107	0.4866	0.0064
0.1377	0.5913	0.0077
0.1664	0.6817	0.0088
0.1933	0.757	0.0097
0.2233	0.8289	0.0106
0.2512	0.8898	0.0113
0.2771	0.9367	0.0119
0.3013	0.9765	0.0124
0.324	1.0069	0.0128
0.3452	1.0335	0.0131
0.3687	1.0539	0.0133
0.3907	1.074	0.0136
0.4111	1.0881	0.0137
0.4303	1.0961	0.0138
0.4482	1.1023	0.0139
0.465	1.1048	0.014
0.4833	1.1046	0.0139
0.5005	1.103	0.0139
0.5166	1.0988	0.0139
0.5316	1.0929	0.0138
0.5458	1.0851	0.0137
0.5618	1.0743	0.0136
0.5762	1.063	0.0134
0.5904	1.0505	0.0133
0.6033	1.0376	0.0131
0.6131	1.0247	0.013
0.6255	1.0123	0.0128
0.6385	0.9981	0.0126
0.6519	0.9814	0.0124
0.666	0.9623	0.0122
0.6781	0.9444	0.012
0.6906	0.9249	0.0118
0.7037	0.9035	0.0115
0.7172	0.8793	0.0112
0.7313	0.8523	0.0109
0.7459	0.8232	0.0105
0.7586	0.7966	0.0102
0.7716	0.767	0.0098
0.7852	0.735	0.0094
0.7992	0.7002	0.009
0.8138	0.6623	0.0086
0.8288	0.6221	0.0081
0.8419	0.5854	0.0076
0.8555	0.5454	0.0071
0.8694	0.5021	0.0066
0.8838	0.4553	0.006
0.8988	0.4045	0.0054
0.9142	0.3495	0.0048
0.9552	0.1915	0.0029
0.9696	0.131	0.0023
0.9846	0.07	0.0016

System: 3-octanone + hexadecane; phases: Liquid
Fixed: Pressure, kPa = 101
Fixed: Temperature, K = 298.15
Property: Excess molar enthalpy (molar enthalpy of mixing), kJ/mol (Liquid); method: Calvet calorimetry
Mole fraction of 3-octanone	Excess molar enthalpy (molar enthalpy of mixing), kJ/mol	uncertainty
0.0448	0.2293	0.0034
0.0857	0.4129	0.0056
0.1233	0.5615	0.0073
0.1578	0.6834	0.0088
0.1899	0.7834	0.01
0.2195	0.8656	0.011
0.2522	0.9493	0.0121
0.2824	1.016	0.0129
0.3102	1.0683	0.0135
0.336	1.1095	0.014
0.3599	1.1424	0.0144
0.3822	1.1686	0.0147
0.4079	1.188	0.015
0.4316	1.2044	0.0152
0.4534	1.2145	0.0153
0.4737	1.2198	0.0154
0.4956	1.2198	0.0154
0.5158	1.2189	0.0153
0.5345	1.2128	0.0153
0.5517	1.2038	0.0152
0.5677	1.1948	0.0151
0.5827	1.184	0.0149
0.5995	1.1687	0.0147
0.615	1.1531	0.0145
0.6293	1.1369	0.0143
0.6426	1.1198	0.0141
0.655	1.1026	0.0139
0.6775	1.0592	0.0134
0.69	1.0392	0.0132
0.7029	1.0178	0.0129
0.7163	0.9928	0.0126
0.7302	0.9649	0.0122
0.7423	0.9404	0.0119
0.7547	0.9137	0.0116
0.7676	0.8837	0.0113
0.7809	0.8519	0.0109
0.7947	0.8167	0.0104
0.809	0.7775	0.01
0.8216	0.7405	0.0095
0.8347	0.7014	0.009
0.8482	0.6572	0.0085
0.8621	0.6102	0.0079
0.8741	0.5682	0.0074
0.8865	0.5218	0.0069
0.8993	0.4731	0.0063
0.9124	0.4192	0.0056
0.9259	0.3625	0.005
0.9375	0.3121	0.0044
0.9494	0.2586	0.0037
0.9615	0.1998	0.0031
0.974	0.1382	0.0024
0.9868	0.0709	0.0018
