Measured thermophysical data. Low-Temperature Heat Capacities and Standard Molar Enthalpy of Formation of Ethylenediammonium Tetrachlorocobaltate(II) Chloride (H3NCH2CH2NH3)2[CoCl4]Cl2(s)
Source: J. Chem. Eng. Data, 2010, 10.1021/je901051z
Compound 1: cobalt, Co, InChI=1S/Co
Compound 2: chlorine, Cl2, InChI=1S/Cl2/c1-2
Compound 3: hydrogen, H2, InChI=1S/H2/h1H
Compound 4: nitrogen, N2, InChI=1S/N2/c1-2
Compound 5: graphite, C
Compound 6: bis(ethanediammonium) tetrachlorocobaltate(2-) dichloride, C4H20Cl6CoN4, InChI=1S/2C2H8N2.6ClH.Co/c2*3-1-2-4;;;;;;;/h2*1-4H2;6*1H;/q;;;;;;;;+2/p-2

System: bis(ethanediammonium) tetrachlorocobaltate(2-) dichloride; phases: Crystal
Fixed: Pressure, kPa = 101.325
Property: Molar heat capacity at constant pressure, J/K/mol (Crystal); method: Vacuum adiabatic calorimetry
Temperature, K	Molar heat capacity at constant pressure, J/K/mol	uncertainty
78.617	84.017	0.526
81.792	88.341	0.553
84.664	93.144	0.582
87.839	98.188	0.613
91.165	102.75	0.65
94.189	107.79	0.68
97.212	111.88	0.71
101.6	118.6	0.75
105.83	125.33	0.79
108.85	129.65	0.81
112.03	133.73	0.84
115.2	139.02	0.87
118.38	144.3	0.9
121.55	148.14	0.92
124.88	153.43	0.95
128.05	158.47	0.98
131.38	163.03	1.01
134.55	167.84	1.04
137.88	171.92	1.06
141.2	176.48	1.09
144.53	182.49	1.13
148.92	188.49	1.16
152.85	193.54	1.19
156.17	198.58	1.22
159.5	203.38	1.25
162.82	207.95	1.28
166.15	212.75	1.31
169.48	217.55	1.34
172.95	222.6	1.37
176.58	227.88	1.4
180.51	232.69	1.43
184.29	237.97	1.46
188.22	243.25	1.49
192.3	249.26	1.53
196.23	254.54	1.56
202.13	262.23	1.61
205.46	266.31	1.63
209.24	271.59	1.66
213.17	278.08	1.7
216.95	282.4	1.73
220.72	286.97	1.76
224.5	293.21	1.79
228.59	298.01	1.82
232.37	302.82	1.85
236.9	308.34	1.88
241.29	315.55	1.93
245.22	319.87	1.95
249	326.11	1.99
252.93	331.16	2.02
256.86	335.48	2.05
260.64	340.04	2.08
264.42	346.05	2.11
268.19	350.85	2.14
272.13	355.66	2.17
275.9	360.7	2.2
279.99	365.74	2.23
283.77	370.31	2.26
287.7	376.55	2.3
290.87	379.67	2.31
293.14	382.65	2.33
295.86	386.09	2.35
298.58	389.99	2.38
301.3	393.89	2.4
304.02	397.05	2.42
307.35	401.53	2.45
310.98	406.81	2.48
314.3	410.41	2.5
316.42	413.3	2.52
318.99	417.14	2.54
321.56	420.5	2.56
324.28	422.82	2.57
326.85	426.31	2.6
329.57	429.71	2.62
332.14	433.19	2.64
334.71	436.57	2.66
337.43	440.39	2.68
340.16	444	2.7
342.88	447.38	2.72
345.6	451.42	2.75
348.32	454.8	2.77
351.04	458.52	2.79
353.76	462.34	2.81
356.48	466.05	2.84
359.05	469.47	2.86
361.77	472.93	2.88
364.5	476.75	2.9
367.07	480.25	2.92
369.79	483.07	2.94

Reaction: -1 cobalt + -3 chlorine + 1 bis(ethanediammonium) tetrachlorocobaltate(2-) dichloride + -10 hydrogen + -2 nitrogen + -4 graphite
Property: Molar enthalpy of reaction, kJ/mol
-1499.81
