Measured thermophysical data. Gas Saturation Vapor Pressure Measurements of Mononitrotoluene Isomers from (283.15 to 313.15) K
Source: J. Chem. Eng. Data, 2010, 10.1021/je900293j
Compound 1: 2-nitrotoluene, C7H7NO2, InChI=1S/C7H7NO2/c1-6-4-2-3-5-7(6)8(9)10/h2-5H,1H3
Compound 2: 3-nitrotoluene, C7H7NO2, InChI=1S/C7H7NO2/c1-6-3-2-4-7(5-6)8(9)10/h2-5H,1H3
Compound 3: 1-methyl-4-nitrobenzene, C7H7NO2, InChI=1S/C7H7NO2/c1-6-2-4-7(5-3-6)8(9)10/h2-5H,1H3
Compound 4: tetradecane, C14H30, InChI=1S/C14H30/c1-3-5-7-9-11-13-14-12-10-8-6-4-2/h3-14H2,1-2H3

System: 2-nitrotoluene; phases: Liquid, Gas
Property: Vapor or sublimation pressure, kPa (Liquid); method: Transpiration method
Temperature, K	Vapor or sublimation pressure, kPa	uncertainty
283.15	0.00553	0.0008
293.15	0.0127	0.0018
303.15	0.0297	0.0043
313.15	0.0611	0.0088

System: 3-nitrotoluene; phases: Crystal, Gas
Property: Vapor or sublimation pressure, kPa (Crystal); method: Transpiration method
Temperature, K	Vapor or sublimation pressure, kPa	uncertainty
283.15	0.00339	0.00049

System: 3-nitrotoluene; phases: Liquid, Gas
Property: Vapor or sublimation pressure, kPa (Liquid); method: Transpiration method
Temperature, K	Vapor or sublimation pressure, kPa	uncertainty
293.15	0.00855	0.00123
303.15	0.0195	0.0028
313.15	0.0378	0.0055

System: 1-methyl-4-nitrobenzene; phases: Crystal, Gas
Property: Vapor or sublimation pressure, kPa (Crystal); method: Transpiration method
Temperature, K	Vapor or sublimation pressure, kPa	uncertainty
283.15	0.00125	0.00018
293.15	0.00379	0.00055
303.15	0.0102	0.0015
313.15	0.0264	0.0038

System: tetradecane; phases: Liquid, Gas
Property: Vapor or sublimation pressure, kPa (Liquid); method: Transpiration method
Temperature, K	Vapor or sublimation pressure, kPa	uncertainty
283.15	0.000427	1.7e-05
293.15	0.00121	5e-05
303.15	0.00322	0.00013
313.15	0.0081	0.00031
