Measured thermophysical data. Partial Molar Volumes of Butyltriethylammonium Iodide in Single Nonaqueous Solvents at 298.15 K
Source: J. Chem. Eng. Data, 2010, 10.1021/je900542y
Compound 1: tetraethylammonium iodide, C8H20IN, InChI=1S/C8H20N.HI/c1-5-9(6-2,7-3)8-4;/h5-8H2,1-4H3;1H/q+1;/p-1
Compound 2: methanol, CH4O, InChI=1S/CH4O/c1-2/h2H,1H3
Compound 3: acetone, C3H6O, InChI=1S/C3H6O/c1-3(2)4/h1-2H3
Compound 4: nitrobenzene, C6H5NO2, InChI=1S/C6H5NO2/c8-7(9)6-4-2-1-3-5-6/h1-5H
Compound 5: acetonitrile, C2H3N, InChI=1S/C2H3N/c1-2-3/h1H3

System: methanol; phases: Liquid
Property: Mass density, kg/m3 (Liquid); method: VIBTUB:UFactor:4
Temperature, K	Pressure, kPa	Mass density, kg/m3	uncertainty
298.15	101	786.38	0.49

System: acetone; phases: Liquid
Property: Mass density, kg/m3 (Liquid); method: VIBTUB:UFactor:4
Temperature, K	Pressure, kPa	Mass density, kg/m3	uncertainty
298.15	101	783.81	0.5

System: nitrobenzene; phases: Liquid
Property: Mass density, kg/m3 (Liquid); method: VIBTUB:UFactor:4
Temperature, K	Pressure, kPa	Mass density, kg/m3	uncertainty
298.15	101	1198.91	0.72

System: acetonitrile; phases: Liquid
Fixed: Temperature, K = 298.15
Fixed: Pressure, kPa = 101
Property: Mass density, kg/m3 (Liquid); method: VIBTUB:UFactor:4
Mass density, kg/m3	uncertainty
776.01	0.6
776.02	0.59

System: methanol + tetraethylammonium iodide; phases: Liquid
Fixed: Temperature, K = 298.15
Fixed: Pressure, kPa = 101
Property: Mass density, kg/m3 (Liquid); method: VIBTUB:UFactor:4
Molality, mol/kg of tetraethylammonium iodide	Mass density, kg/m3	uncertainty
0	786.38	0.49
0.0001	786.38	0.49
0.0002	786.38	0.49
0.00354	786.54	0.49
0.003541	786.54	0.49
0.003542	786.54	0.49
0.007079	786.69	0.49
0.00708	786.69	0.49
0.007081	786.69	0.49
0.010617	786.85	0.49
0.01062	786.85	0.49
0.010631	786.85	0.49
0.014161	787	0.49
0.014167	787	0.49
0.014168	787	0.49
0.017601	787.17	0.49
0.017601	787.18	0.49
0.017602	787.17	0.49
0.02124	787.31	0.49
0.02124	787.31	0.49
0.0212439	787.31	0.49
0.028321	787.62	0.49
0.028322	787.63	0.49
0.028322	787.62	0.49

System: acetone + tetraethylammonium iodide; phases: Liquid
Fixed: Temperature, K = 298.15
Fixed: Pressure, kPa = 101
Property: Mass density, kg/m3 (Liquid); method: VIBTUB:UFactor:4
Molality, mol/kg of tetraethylammonium iodide	Mass density, kg/m3	uncertainty
0	783.81	0.5
0.0001	783.81	0.5
0.0002	783.81	0.5
0.00536	784.1	0.5
0.00536	784.1	0.5
0.005361	784.11	0.5
0.007105	784.2	0.49
0.007106	784.21	0.49
0.007107	784.2	0.49
0.008909	784.3	0.5
0.00891	784.3	0.5
0.00891	784.3	0.5
0.012421	784.5	0.49
0.012421	784.5	0.49
0.012422	784.5	0.49
0.014203	784.6	0.49
0.014204	784.6	0.49
0.014204	784.6	0.49
0.017703	784.81	0.49
0.017703	784.81	0.49
0.01771	784.81	0.49
0.021142	784.99	0.49
0.021148	785	0.49
0.021149	785	0.49

System: tetraethylammonium iodide + acetonitrile; phases: Liquid
Fixed: Temperature, K = 298.15
Fixed: Pressure, kPa = 101
Property: Mass density, kg/m3 (Liquid); method: VIBTUB:UFactor:4
Molality, mol/kg of tetraethylammonium iodide	Mass density, kg/m3	uncertainty
0	776.01	0.6
0.0001	776.01	0.6
0.0002	776.02	0.59
0.00354	776.16	0.59
0.00354	776.16	0.59
0.003541	776.16	0.59
0.007081	776.32	0.59
0.007081	776.32	0.59
0.007082	776.32	0.59
0.01062	776.47	0.59
0.010621	776.47	0.59
0.010641	776.46	0.59
0.014161	776.63	0.59
0.014162	776.63	0.59
0.014168	776.61	0.59
0.017601	776.77	0.59
0.017603	776.78	0.59
0.017604	776.77	0.59
0.021241	776.93	0.59
0.021242	776.93	0.59
0.021242	776.93	0.59
0.028322	777.24	0.59
0.028323	777.24	0.59
0.028323	777.24	0.59

System: tetraethylammonium iodide + nitrobenzene; phases: Liquid
Fixed: Temperature, K = 298.15
Fixed: Pressure, kPa = 101
Property: Mass density, kg/m3 (Liquid); method: VIBTUB:UFactor:4
Molality, mol/kg of tetraethylammonium iodide	Mass density, kg/m3	uncertainty
0	1198.91	0.72
0.0001	1198.91	0.72
0.0002	1198.91	0.72
0.003538	1198.97	0.72
0.003538	1198.97	0.72
0.003538	1198.97	0.72
0.007075	1199.04	0.72
0.007075	1199.04	0.72
0.007075	1199.04	0.72
0.010597	1199.1	0.72
0.010597	1199.1	0.72
0.010597	1199.1	0.72
0.01415	1199.17	0.72
0.01415	1199.17	0.72
0.014157	1199.17	0.72
0.017703	1199.23	0.72
0.017703	1199.23	0.72
0.017703	1199.23	0.72
0.021195	1199.29	0.72
0.021195	1199.29	0.72
0.021195	1199.29	0.72
0.024687	1199.35	0.72
0.02469	1199.36	0.72
0.024694	1199.36	0.72
