Measured thermophysical data. Solubility of Phenanthrene in Binary Mixtures of C1-C4 Alcohols at 298.2 K
Source: J. Chem. Eng. Data, 2010, 10.1021/je900599q
Compound 1: phenanthrene, C14H10, InChI=1S/C14H10/c1-3-7-13-11(5-1)9-10-12-6-2-4-8-14(12)13/h1-10H
Compound 2: propan-1-ol, C3H8O, InChI=1S/C3H8O/c1-2-3-4/h4H,2-3H2,1H3
Compound 3: butan-1-ol, C4H10O, InChI=1S/C4H10O/c1-2-3-4-5/h5H,2-4H2,1H3
Compound 4: ethanol, C2H6O, InChI=1S/C2H6O/c1-2-3/h3H,2H2,1H3
Compound 5: methanol, CH4O, InChI=1S/CH4O/c1-2/h2H,1H3

System: methanol; phases: Liquid
Property: Mass density, kg/m3 (Liquid); method: Pycnometric method
Temperature, K	Pressure, kPa	Mass density, kg/m3	uncertainty
298.2	101.325	796	1

System: methanol + phenanthrene; phases: Liquid, Crystal 2
Property: Mass density, kg/m3 (Liquid); method: Pycnometric method
Temperature, K	Pressure, kPa	Mass density, kg/m3	uncertainty
298.2	101	796	1

System: methanol + phenanthrene; phases: Liquid, Crystal 2
Property: Amount concentration (molarity), mol/dm3 of phenanthrene (Liquid); method: UV-Vis spectrometer
Temperature, K	Pressure, kPa	Amount concentration (molarity), mol/dm3 of phenanthrene	uncertainty
298.2	101	0.133	0.001

System: propan-1-ol + phenanthrene; phases: Liquid, Crystal 2
Property: Mass density, kg/m3 (Liquid); method: Pycnometric method
Temperature, K	Pressure, kPa	Mass density, kg/m3	uncertainty
298.2	101	811	1

System: propan-1-ol + phenanthrene; phases: Liquid, Crystal 2
Property: Amount concentration (molarity), mol/dm3 of phenanthrene (Liquid); method: UV-Vis spectrometer
Temperature, K	Pressure, kPa	Amount concentration (molarity), mol/dm3 of phenanthrene	uncertainty
298.2	101	0.174	0.001

System: butan-1-ol + phenanthrene; phases: Liquid, Crystal 2
Property: Mass density, kg/m3 (Liquid); method: Pycnometric method
Temperature, K	Pressure, kPa	Mass density, kg/m3	uncertainty
298.2	101	826	1

System: butan-1-ol + phenanthrene; phases: Liquid, Crystal 2
Property: Amount concentration (molarity), mol/dm3 of phenanthrene (Liquid); method: UV-Vis spectrometer
Temperature, K	Pressure, kPa	Amount concentration (molarity), mol/dm3 of phenanthrene	uncertainty
298.2	101	0.194	0.001

System: ethanol + phenanthrene; phases: Liquid, Crystal 2
Property: Mass density, kg/m3 (Liquid); method: Pycnometric method
Temperature, K	Pressure, kPa	Mass density, kg/m3	uncertainty
298.2	101	801	1

System: ethanol + phenanthrene; phases: Liquid, Crystal 2
Property: Amount concentration (molarity), mol/dm3 of phenanthrene (Liquid); method: UV-Vis spectrometer
Temperature, K	Pressure, kPa	Amount concentration (molarity), mol/dm3 of phenanthrene	uncertainty
298.2	101	0.182	0.001

System: methanol + propan-1-ol + phenanthrene; phases: Liquid, Crystal 2
Fixed: Temperature, K = 298.2
Fixed: Pressure, kPa = 101
Property: Mass density, kg/m3 (Liquid); method: Pycnometric method
Solvent: Mole fraction of methanol	Mass density, kg/m3	uncertainty
0	811	1
0.17	811	1
0.316	810	1
0.442	809	1
0.552	808	1
0.649	807	1
0.735	805	1
0.812	803	1
0.881	801	1
0.943	798	1
1	796	1

System: methanol + propan-1-ol + phenanthrene; phases: Liquid, Crystal 2
Fixed: Temperature, K = 298.2
Fixed: Pressure, kPa = 101
Property: Amount concentration (molarity), mol/dm3 of phenanthrene (Liquid); method: UV-Vis spectrometer
Solvent: Mole fraction of methanol	Amount concentration (molarity), mol/dm3 of phenanthrene	uncertainty
0	0.174	0.001
0.17	0.187	0.001
0.316	0.196	0.001
0.442	0.202	0.001
0.552	0.208	0.001
0.649	0.2	0.001
0.735	0.193	0.001
0.812	0.183	0.001
0.881	0.173	0.001
0.943	0.156	0.001
1	0.133	0.001

System: methanol + butan-1-ol + phenanthrene; phases: Liquid, Crystal 2
Fixed: Temperature, K = 298.2
Fixed: Pressure, kPa = 101
Property: Mass density, kg/m3 (Liquid); method: Pycnometric method
Mole fraction of methanol	Mass density, kg/m3	uncertainty
0	826	1
0.201	819	1
0.361	818	1
0.492	815	1
0.601	815	1
0.693	811	1
0.772	808	1
0.841	806	1
0.9	803	1
0.953	800	1
1	796	1

System: methanol + butan-1-ol + phenanthrene; phases: Liquid, Crystal 2
Fixed: Temperature, K = 298.2
Fixed: Pressure, kPa = 101
Property: Amount concentration (molarity), mol/dm3 of phenanthrene (Liquid); method: UV-Vis spectrometer
Solvent: Mole fraction of methanol	Amount concentration (molarity), mol/dm3 of phenanthrene	uncertainty
0	0.194	0.001
0.201	0.213	0.001
0.361	0.216	0.001
0.492	0.219	0.001
0.601	0.217	0.001
0.693	0.207	0.001
0.772	0.198	0.001
0.841	0.181	0.001
0.9	0.163	0.001
0.953	0.149	0.001
1	0.133	0.001

System: ethanol + propan-1-ol + phenanthrene; phases: Liquid, Crystal 2
Fixed: Temperature, K = 298.2
Fixed: Pressure, kPa = 101
Property: Mass density, kg/m3 (Liquid); method: Pycnometric method
Solvent: Mole fraction of ethanol	Mass density, kg/m3	uncertainty
0	811	1
0.125	814	1
0.243	812	1
0.354	810	1
0.461	809	1
0.562	807	1
0.658	806	1
0.749	805	1
0.837	803	1
0.92	802	1
1	801	1

System: ethanol + propan-1-ol + phenanthrene; phases: Liquid, Crystal 2
Fixed: Temperature, K = 298.2
Fixed: Pressure, kPa = 101
Property: Amount concentration (molarity), mol/dm3 of phenanthrene (Liquid); method: UV-Vis spectrometer
Solvent: Mole fraction of ethanol	Amount concentration (molarity), mol/dm3 of phenanthrene	uncertainty
0	0.174	0.001
0.125	0.184	0.001
0.243	0.187	0.001
0.354	0.188	0.001
0.461	0.19	0.001
0.562	0.19	0.001
0.658	0.189	0.001
0.749	0.187	0.001
0.837	0.186	0.001
0.92	0.183	0.001
1	0.182	0.001

System: ethanol + butan-1-ol + phenanthrene; phases: Liquid, Crystal 2
Fixed: Temperature, K = 298.2
Fixed: Pressure, kPa = 101
Property: Mass density, kg/m3 (Liquid); method: Pycnometric method
Solvent: Mole fraction of ethanol	Mass density, kg/m3	uncertainty
0	826	1
0.148	811	1
0.282	812	1
0.402	811	1
0.511	811	1
0.61	811	1
0.702	809	1
0.785	810	1
0.862	809	1
0.934	808	1
1	801	1

System: ethanol + butan-1-ol + phenanthrene; phases: Liquid, Crystal 2
Fixed: Temperature, K = 298.2
Fixed: Pressure, kPa = 101
Property: Amount concentration (molarity), mol/dm3 of phenanthrene (Liquid); method: UV-Vis spectrometer
Solvent: Mole fraction of ethanol	Amount concentration (molarity), mol/dm3 of phenanthrene	uncertainty
0	0.194	0.001
0.148	0.193	0.001
0.282	0.195	0.001
0.402	0.198	0.001
0.511	0.203	0.001
0.61	0.204	0.001
0.702	0.205	0.001
0.785	0.203	0.001
0.862	0.197	0.001
0.934	0.186	0.001
1	0.182	0.001

System: propan-1-ol + butan-1-ol + phenanthrene; phases: Liquid, Crystal 2
Fixed: Temperature, K = 298.2
Fixed: Pressure, kPa = 101
Property: Mass density, kg/m3 (Liquid); method: Pycnometric method
Solvent: Mole fraction of propan-1-ol	Mass density, kg/m3	uncertainty
0	826	1
0.12	822	1
0.234	818	1
0.344	817	1
0.449	814	1
0.55	814	1
0.647	813	1
0.741	811	1
0.83	810	1
0.917	808	1
1	811	1

System: propan-1-ol + butan-1-ol + phenanthrene; phases: Liquid, Crystal 2
Fixed: Temperature, K = 298.2
Fixed: Pressure, kPa = 101
Property: Amount concentration (molarity), mol/dm3 of phenanthrene (Liquid); method: UV-Vis spectrometer
Solvent: Mole fraction of propan-1-ol	Amount concentration (molarity), mol/dm3 of phenanthrene	uncertainty
0	0.194	0.001
0.12	0.194	0.001
0.234	0.193	0.001
0.344	0.19	0.001
0.449	0.188	0.001
0.55	0.182	0.001
0.647	0.177	0.001
0.741	0.172	0.001
0.83	0.171	0.001
0.917	0.175	0.001
1	0.174	0.001
