Measured thermophysical data. Vapor Pressure Measurement for the Water + 1,3-Dimethylimidazolium Chloride System and 2,2,2-Trifluoroethanol + 1-Ethyl-3-methylimidazolium Tetrafluoroborate System
Source: J. Chem. Eng. Data, 2010, 10.1021/je900738e
Compound 1: 2,2,2-trifluoroethanol, C2H3F3O, InChI=1S/C2H3F3O/c3-2(4,5)1-6/h6H,1H2, purity 99.8%
Compound 2: 1-ethyl-3-methylimidazolium tetrafluoroborate, C6H11BF4N2, InChI=1S/C6H11N2.BF4/c1-3-8-5-4-7(2)6-8;2-1(3,4)5/h4-6H,3H2,1-2H3;/q+1;-1, purity 99%
Compound 3: 1,3-dimethylimidazolium chloride, C5H9ClN2, InChI=1S/C5H9N2.ClH/c1-6-3-4-7(2)5-6;/h3-5H,1-2H3;1H/q+1;/p-1, purity 99.4%
Compound 4: water, H2O, InChI=1S/H2O/h1H2

System: 2,2,2-trifluoroethanol; phases: Liquid, Gas
Property: Vapor or sublimation pressure, kPa (Liquid); method: Manometric method
Temperature, K	Vapor or sublimation pressure, kPa	uncertainty
283.15	3.96	0.22
293.15	7.25	0.22
303.15	12.82	0.23
313.15	21.83	0.26
323.15	36.1	0.3
333.15	57.08	0.38
343.15	87.31	0.46
346.65	100.8	0.52

System: water; phases: Liquid, Gas
Property: Vapor or sublimation pressure, kPa (Liquid); method: Manometric method
Temperature, K	Vapor or sublimation pressure, kPa	uncertainty
287.15	1.64	0.21
296.35	2.81	0.22
305.35	4.74	0.22
313.45	7.51	0.23
323.05	12.26	0.26
332.95	19.69	0.32
343.05	30.94	0.42
352.85	46.73	0.57
363.05	69.75	0.8
372.85	100.32	1.11

System: water + 1,3-dimethylimidazolium chloride; phases: Liquid, Gas
Property: Vapor or sublimation pressure, kPa (Liquid); method: Manometric method
Mass fraction of 1,3-dimethylimidazolium chloride	Temperature, K	Vapor or sublimation pressure, kPa	uncertainty
0	287.15	1.64	0.21
0	296.35	2.81	0.22
0	305.35	4.74	0.22
0	313.45	7.51	0.23
0	323.05	12.26	0.26
0	332.95	19.69	0.32
0	343.05	30.94	0.42
0	352.85	46.73	0.57
0	363.05	69.75	0.8
0	372.85	100.32	1.11
0.4	290.95	1.66	0.21
0.4	298.95	2.7	0.22
0.4	303.15	3.39	0.22
0.4	313.15	6.02	0.22
0.4	323.15	10.22	0.24
0.4	333.15	16.29	0.26
0.4	343.15	25.46	0.31
0.4	353.15	38.71	0.39
0.4	363.15	57.13	0.51
0.4	373.15	82.8	0.68
0.4	378.65	100.41	0.84
0.55	298.15	1.98	0.21
0.55	303.15	2.64	0.22
0.55	313.15	4.62	0.22
0.55	323.15	8.04	0.23
0.55	333.15	13.06	0.24
0.55	343.15	20.39	0.27
0.55	353.15	31.19	0.32
0.55	363.15	46.23	0.4
0.55	373.15	67.18	0.52
0.55	384.85	100.37	0.68
0.65	298.15	1.43	0.21
0.65	303.15	1.91	0.21
0.65	313.15	3.45	0.22
0.65	323.15	5.86	0.22
0.65	333.15	9.66	0.23
0.65	343.15	15.03	0.24
0.65	353.15	23.15	0.27
0.65	363.15	34.32	0.32
0.65	373.15	49.85	0.39
0.65	383.15	70.89	0.49
0.65	393.95	101.25	0.62
0.75	303.85	1.1	0.21
0.75	313.15	1.88	0.21
0.75	323.15	3.21	0.22
0.75	333.15	5.4	0.22
0.75	343.15	8.79	0.22
0.75	353.15	13.46	0.24
0.75	363.15	20.28	0.25
0.75	373.15	29.88	0.29
0.75	383.15	42.99	0.33
0.75	393.15	60.23	0.4
0.75	403.15	83.03	0.49
0.75	409.65	101.32	0.57
0.8	313.15	1.17	0.21
0.8	323.15	2.09	0.21
0.8	333.15	3.45	0.22
0.8	343.15	5.67	0.22
0.8	353.15	8.93	0.22
0.8	363.15	13.66	0.23
0.8	373.15	19.97	0.25
0.8	383.15	28.98	0.28
0.8	393.15	41.01	0.31
0.8	403.15	56.88	0.37
0.8	413.15	77.77	0.45
0.8	421.85	100.98	0.53
0.85	321.85	1.13	0.21
0.85	333.15	1.97	0.21
0.85	343.15	3.2	0.22
0.85	353.15	5.29	0.22
0.85	363.15	8.14	0.22
0.85	373.15	12.31	0.23
0.85	383.15	17.78	0.24
0.85	393.15	25.41	0.26
0.85	403.15	35.28	0.29
0.85	413.15	49.26	0.33
0.85	423.15	67.36	0.39
0.85	433.15	89.95	0.46
0.85	437.45	100.25	0.49

System: 2,2,2-trifluoroethanol + 1-ethyl-3-methylimidazolium tetrafluoroborate; phases: Liquid, Gas
Property: Vapor or sublimation pressure, kPa (Liquid); method: Manometric method
Mass fraction of 1-ethyl-3-methylimidazolium tetrafluoroborate	Temperature, K	Vapor or sublimation pressure, kPa	uncertainty
0	283.15	3.96	0.22
0	293.15	7.25	0.22
0	303.15	12.82	0.23
0	313.15	21.83	0.26
0	323.15	36.1	0.3
0	333.15	57.08	0.38
0	343.15	87.31	0.46
0	346.65	100.8	0.52
0.35	293.15	3.97	0.22
0.35	303.15	6.91	0.22
0.35	313.15	11.65	0.23
0.35	323.15	18.84	0.25
0.35	333.15	29.49	0.28
0.35	343.15	45.01	0.32
0.35	353.15	66.48	0.4
0.35	364.55	100.7	0.47
0.55	303.15	3.5	0.22
0.55	313.15	5.93	0.22
0.55	323.15	9.6	0.22
0.55	333.15	15.1	0.24
0.55	343.15	22.9	0.25
0.55	353.15	33.99	0.28
0.55	363.15	48.79	0.32
0.55	373.15	68.94	0.39
0.55	384.95	100.82	0.46
0.7	313.15	3.06	0.22
0.7	323.15	4.88	0.22
0.7	333.15	7.78	0.22
0.7	343.15	11.91	0.23
0.7	353.15	17.61	0.24
0.7	363.15	25.52	0.26
0.7	373.15	36.26	0.28
0.7	383.15	50.42	0.32
0.7	393.15	68.84	0.38
0.7	403.15	92.36	0.44
0.7	406.15	100.9	0.48
0.8	333.15	4.2	0.22
0.8	343.15	6.4	0.22
0.8	353.15	9.55	0.22
0.8	363.15	14	0.23
0.8	373.15	20.1	0.24
0.8	383.15	28	0.26
0.8	393.15	38.47	0.29
0.8	403.15	51.99	0.32
0.8	413.15	69.91	0.38
0.8	423.15	91.41	0.43
0.8	426.85	100.98	0.47
0.9	363.15	5.48	0.22
0.9	373.15	8.06	0.22
0.9	383.15	11.44	0.23
0.9	393.15	15.97	0.23
0.9	403.15	21.74	0.24
0.9	413.15	29.19	0.26
0.9	423.15	39.19	0.29
0.9	433.15	51.71	0.29
0.9	443.15	67.22	0.32
0.9	453.15	84.45	0.4
0.9	460.85	101.02	0.45
