Measured thermophysical data. Densities, Viscosities, and Volumetric Properties of Binary Mixtures of 1,2-Propanediol + 1-Heptanol or 1-Hexanol and 1,2-Ethanediol + 2-Butanol or 2-Propanol at T = (298.15, 303.15, and 308.15) K
Source: J. Chem. Eng. Data, 2010, 10.1021/je900954y
Compound 1: 1,2-propanediol, C3H8O2, InChI=1S/C3H8O2/c1-3(5)2-4/h3-5H,2H2,1H3, purity 99%
Compound 2: 1,2-ethanediol, C2H6O2, InChI=1S/C2H6O2/c3-1-2-4/h3-4H,1-2H2, purity 99%
Compound 3: heptan-1-ol, C7H16O, InChI=1S/C7H16O/c1-2-3-4-5-6-7-8/h8H,2-7H2,1H3, purity 99%
Compound 4: hexan-1-ol, C6H14O, InChI=1S/C6H14O/c1-2-3-4-5-6-7/h7H,2-6H2,1H3, purity 99%
Compound 5: butan-2-ol, C4H10O, InChI=1S/C4H10O/c1-3-4(2)5/h4-5H,3H2,1-2H3, purity 99%

System: 1,2-propanediol; phases: Liquid
Fixed: Pressure, kPa = 101
Property: Viscosity, Pa*s (Liquid); method: CAPTUB:UFactor:2
Temperature, K	Viscosity, Pa*s	uncertainty
298.15	0.0454403	0.000528
303.15	0.0339949	0.0003999
308.15	0.0263377	0.000314

System: 1,2-propanediol; phases: Liquid
Fixed: Pressure, kPa = 101
Property: Mass density, kg/m3 (Liquid); method: VIBTUB:UFactor:6
Temperature, K	Mass density, kg/m3	uncertainty
298.15	1033.1	0.5
303.15	1029.9	0.5
308.15	1025.4	0.5

System: 1,2-ethanediol; phases: Liquid
Fixed: Pressure, kPa = 101
Property: Viscosity, Pa*s (Liquid); method: CAPTUB::UFactor:2
Temperature, K	Viscosity, Pa*s	uncertainty
298.15	0.0154081	0.0001907
303.15	0.0127314	0.0001608
308.15	0.0106614	0.0001376

System: 1,2-ethanediol; phases: Liquid
Fixed: Pressure, kPa = 101
Property: Mass density, kg/m3 (Liquid); method: VIBTUB:UFactor:6
Temperature, K	Mass density, kg/m3	uncertainty
298.15	1109.2	0.7
303.15	1104.2	0.7
308.15	1100.6	0.7

System: heptan-1-ol; phases: Liquid
Fixed: Pressure, kPa = 101
Property: Viscosity, Pa*s (Liquid); method: CAPTUB::UFactor:2
Temperature, K	Viscosity, Pa*s	uncertainty
298.15	0.005914	8.46e-05
303.15	0.0050451	7.49e-05
308.15	0.0043403	6.5e-05

System: heptan-1-ol; phases: Liquid
Fixed: Pressure, kPa = 101
Property: Mass density, kg/m3 (Liquid); method: VIBTUB::UFactor:6
Temperature, K	Mass density, kg/m3	uncertainty
298.15	818.9	0.7
303.15	815.4	0.8
308.15	811.9	0.8

System: hexan-1-ol; phases: Liquid
Fixed: Pressure, kPa = 101
Property: Viscosity, Pa*s (Liquid); method: CAPTUB::UFactor:2
Temperature, K	Viscosity, Pa*s	uncertainty
298.15	0.0046426	6.93e-05
303.15	0.0039985	6.02e-05
308.15	0.0034713	5.26e-05

System: hexan-1-ol; phases: Liquid
Fixed: Pressure, kPa = 101
Property: Mass density, kg/m3 (Liquid); method: VIBTUB:UFactor:6
Temperature, K	Mass density, kg/m3	uncertainty
298.15	815.4	0.8
303.15	811.5	0.8
308.15	808.3	0.8

System: butan-2-ol; phases: Liquid
Fixed: Pressure, kPa = 101
Property: Viscosity, Pa*s (Liquid); method: CAPTUB::UFactor:2
Temperature, K	Viscosity, Pa*s	uncertainty
298.15	0.002999	4.58e-05
303.15	0.002499	3.86e-05
308.15	0.002475	3.82e-05

System: butan-2-ol; phases: Liquid
Fixed: Pressure, kPa = 101
Property: Mass density, kg/m3 (Liquid); method: VIBTUB::UFactor:6
Temperature, K	Mass density, kg/m3	uncertainty
298.15	802.4	0.8
303.15	798.7	0.8
308.15	793.8	0.8

System: 1,2-propanediol + heptan-1-ol; phases: Liquid
Fixed: Pressure, kPa = 101
Property: Viscosity, Pa*s (Liquid); method: CAPTUB:UFactor:2
Mole fraction of heptan-1-ol	Temperature, K	Viscosity, Pa*s	uncertainty
0	298.15	0.0454403	0.000528
0	303.15	0.0339949	0.0003999
0	308.15	0.0263377	0.000314
0.1383	298.15	0.0273413	0.0003267
0.1383	303.15	0.0206869	0.0002507
0.1383	308.15	0.0160497	0.0001981
0.3163	298.15	0.0159025	0.0001969
0.3163	303.15	0.0127958	0.0001618
0.3163	308.15	0.0099774	0.0001302
0.386	298.15	0.0136407	0.0001711
0.386	303.15	0.0108781	0.0001402
0.386	308.15	0.0089251	0.0001183
0.4049	298.15	0.0131924	0.000166
0.4049	303.15	0.0107488	0.0001387
0.4049	308.15	0.008567	0.0001144
0.4673	298.15	0.011941	0.0001521
0.4673	303.15	0.0094308	0.000124
0.4673	308.15	0.0076634	0.0001042
0.6097	298.15	0.0098817	0.000129
0.6097	303.15	0.0076549	0.0001041
0.6097	308.15	0.0063733	8.97e-05
0.7341	298.15	0.0081586	0.0001098
0.7341	303.15	0.006401	9.01e-05
0.7341	308.15	0.005414	7.9e-05
0.8294	298.15	0.0071324	9.82e-05
0.8294	303.15	0.0058147	8.35e-05
0.8294	308.15	0.0049634	7.39e-05
1	298.15	0.005914	8.46e-05
1	303.15	0.0050451	7.49e-05
1	308.15	0.0043403	6.5e-05

System: 1,2-propanediol + heptan-1-ol; phases: Liquid
Fixed: Pressure, kPa = 101
Property: Mass density, kg/m3 (Liquid); method: VIBTUB:UFactor:6
Mole fraction of heptan-1-ol	Temperature, K	Mass density, kg/m3	uncertainty
0	298.15	1033.1	0.5
0	303.15	1029.9	0.5
0	308.15	1025.4	0.5
0.1383	298.15	980.3	0.4
0.1383	303.15	976.4	0.4
0.1383	308.15	972	0.5
0.3163	298.15	928.8	0.5
0.3163	303.15	925	0.5
0.3163	308.15	920.8	0.5
0.386	298.15	912.5	0.6
0.386	303.15	908.6	0.6
0.386	308.15	904.6	0.6
0.4049	298.15	908.3	0.6
0.4049	303.15	904.4	0.6
0.4049	308.15	900.4	0.6
0.4673	298.15	895.4	0.6
0.4673	303.15	891.6	0.6
0.4673	308.15	887.6	0.6
0.6097	298.15	869.7	0.6
0.6097	303.15	866	0.7
0.6097	308.15	862.2	0.7
0.7341	298.15	851	0.7
0.7341	303.15	847.3	0.7
0.7341	308.15	843.7	0.7
0.8294	298.15	838.5	0.7
0.8294	303.15	834.9	0.7
0.8294	308.15	831.3	0.7
1	298.15	818.9	0.7
1	303.15	815.4	0.8
1	308.15	811.9	0.8

System: 1,2-propanediol + hexan-1-ol; phases: Liquid
Fixed: Pressure, kPa = 101
Property: Viscosity, Pa*s (Liquid); method: CAPTUB:UFactor:2
Mole fraction of hexan-1-ol	Temperature, K	Viscosity, Pa*s	uncertainty
0	298.15	0.0454403	0.000528
0	303.15	0.0339949	0.0003999
0	308.15	0.0263377	0.000314
0.0771	298.15	0.0332705	0.000393
0.0771	303.15	0.0242809	0.0002915
0.0771	308.15	0.0200516	0.0002432
0.1213	298.15	0.0284432	0.0003381
0.1213	303.15	0.0208221	0.0002522
0.1213	308.15	0.0172744	0.0002118
0.2425	298.15	0.018556	0.0002271
0.2425	303.15	0.013934	0.000175
0.2425	308.15	0.011972	0.0001523
0.3311	298.15	0.0143784	0.0001797
0.3311	303.15	0.0112768	0.0001446
0.3311	308.15	0.0096271	0.000126
0.5225	298.15	0.0094864	0.0001245
0.5225	303.15	0.0080632	0.0001086
0.5225	308.15	0.0064284	9.05e-05
0.5377	298.15	0.0090571	0.0001197
0.5377	303.15	0.0078368	0.0001061
0.5377	308.15	0.0063077	8.91e-05
0.6309	298.15	0.0076247	0.0001036
0.6309	303.15	0.0067246	9.36e-05
0.6309	308.15	0.005322	7.81e-05
0.7444	298.15	0.0063134	8.91e-05
0.7444	303.15	0.0052056	7.67e-05
0.7444	308.15	0.004494	6.72e-05
0.8611	298.15	0.0053237	7.8e-05
0.8611	303.15	0.00461	6.9e-05
0.8611	308.15	0.0039351	5.93e-05
1	298.15	0.0046426	6.93e-05
1	303.15	0.0039985	6.02e-05
1	308.15	0.0034713	5.26e-05

System: 1,2-propanediol + hexan-1-ol; phases: Liquid
Fixed: Pressure, kPa = 101
Property: Mass density, kg/m3 (Liquid); method: VIBTUB:UFactor:6
Mole fraction of hexan-1-ol	Temperature, K	Mass density, kg/m3	uncertainty
0	298.15	1033.1	0.5
0	303.15	1029.9	0.5
0	308.15	1025.4	0.5
0.0771	298.15	1004.5	0.4
0.0771	303.15	1000.9	0.4
0.0771	308.15	996.1	0.4
0.1213	298.15	989.9	0.4
0.1213	303.15	986.2	0.4
0.1213	308.15	981.6	0.4
0.2425	298.15	953.6	0.5
0.2425	303.15	949.9	0.5
0.2425	308.15	945.8	0.5
0.3311	298.15	930.7	0.5
0.3311	303.15	927	0.5
0.3311	308.15	923.1	0.5
0.5225	298.15	888.7	0.6
0.5225	303.15	884.9	0.6
0.5225	308.15	881.3	0.6
0.5377	298.15	885.7	0.6
0.5377	303.15	881.9	0.6
0.5377	308.15	878.2	0.6
0.6309	298.15	868.9	0.6
0.6309	303.15	865.1	0.7
0.6309	308.15	861.5	0.7
0.7444	298.15	850.3	0.7
0.7444	303.15	846.4	0.7
0.7444	308.15	842.9	0.7
0.8611	298.15	833.3	0.7
0.8611	303.15	829.4	0.7
0.8611	308.15	826	0.7
1	298.15	815.4	0.8
1	303.15	811.5	0.8
1	308.15	808.3	0.8

System: butan-2-ol + 1,2-ethanediol; phases: Liquid
Fixed: Pressure, kPa = 101
Property: Viscosity, Pa*s (Liquid); method: CAPTUB:UFactor:2
Mole fraction of butan-2-ol	Temperature, K	Viscosity, Pa*s	uncertainty
0	298.15	0.0154081	0.0001907
0	303.15	0.0127314	0.0001608
0	308.15	0.0106614	0.0001376
0.0514	298.15	0.0146704	0.0001824
0.0514	303.15	0.0121959	0.0001548
0.0514	308.15	0.0102406	0.0001329
0.1049	298.15	0.0137806	0.0001724
0.1049	303.15	0.0115791	0.0001479
0.1049	308.15	0.009795	0.0001279
0.1847	298.15	0.0122948	0.0001558
0.1847	303.15	0.010428	0.000135
0.1847	308.15	0.0088976	0.0001179
0.261	298.15	0.010824	0.0001394
0.261	303.15	0.0091844	0.0001211
0.261	308.15	0.0078968	0.0001067
0.3516	298.15	0.0090888	0.00012
0.3516	303.15	0.0077595	0.0001052
0.3516	308.15	0.0066808	9.31e-05
0.4562	298.15	0.0073516	0.0001006
0.4562	303.15	0.0062111	8.79e-05
0.4562	308.15	0.0054415	7.93e-05
0.5039	298.15	0.0066694	9.3e-05
0.5039	303.15	0.0056407	8.15e-05
0.5039	308.15	0.0049595	7.38e-05
0.6639	298.15	0.0049706	7.4e-05
0.6639	303.15	0.0041818	6.28e-05
0.6639	308.15	0.0038033	5.74e-05
0.7723	298.15	0.0043015	6.45e-05
0.7723	303.15	0.0036182	5.47e-05
0.7723	308.15	0.0033469	5.08e-05
0.8751	298.15	0.0037905	5.72e-05
0.8751	303.15	0.0031804	4.84e-05
0.8751	308.15	0.0030343	4.63e-05
1	298.15	0.002999	4.58e-05
1	303.15	0.002499	3.86e-05
1	308.15	0.002475	3.82e-05

System: butan-2-ol + 1,2-ethanediol; phases: Liquid
Fixed: Pressure, kPa = 101
Property: Mass density, kg/m3 (Liquid); method: VIBTUB:UFactor:6
Mole fraction of butan-2-ol	Temperature, K	Mass density, kg/m3	uncertainty
0	298.15	1109.2	0.7
0	303.15	1104.2	0.7
0	308.15	1100.6	0.7
0.0514	298.15	1085.8	0.6
0.0514	303.15	1081.8	0.6
0.0514	308.15	1078.5	0.6
0.1049	298.15	1062.7	0.6
0.1049	303.15	1059.1	0.6
0.1049	308.15	1055.6	0.5
0.1847	298.15	1029.6	0.5
0.1847	303.15	1025.9	0.5
0.1847	308.15	1022.8	0.5
0.261	298.15	1000.3	0.4
0.261	303.15	996.7	0.4
0.261	308.15	993.4	0.4
0.3516	298.15	968.3	0.5
0.3516	303.15	964.6	0.5
0.3516	308.15	960.9	0.5
0.4562	298.15	934.5	0.5
0.4562	303.15	930.7	0.5
0.4562	308.15	926.9	0.5
0.5039	298.15	920.3	0.5
0.5039	303.15	916.4	0.6
0.5039	308.15	912.5	0.6
0.6639	298.15	876.9	0.6
0.6639	303.15	873.1	0.6
0.6639	308.15	868.9	0.6
0.7723	298.15	850.9	0.7
0.7723	303.15	847.3	0.7
0.7723	308.15	842.9	0.7
0.8751	298.15	828.2	0.7
0.8751	303.15	824.7	0.7
0.8751	308.15	820.1	0.7
1	298.15	802.4	0.8
1	303.15	798.7	0.8
1	308.15	793.8	0.8
