Measured thermophysical data. Phase Behavior, Densities, and Isothermal Compressibility of (Carbon Dioxide + Dimethyl Carbonate)
Source: J. Chem. Eng. Data, 2010, 10.1021/je900691n
Compound 1: carbon dioxide, CO2, InChI=1S/CO2/c2-1-3
Compound 2: dimethyl carbonate, C3H6O3, InChI=1S/C3H6O3/c1-5-3(4)6-2/h1-2H3

System: carbon dioxide + dimethyl carbonate; phases: Liquid, Gas
Property: Critical pressure, kPa (Liquid); method: Direct measurement
Mole fraction of dimethyl carbonate	Critical pressure, kPa	uncertainty
0.0242	8660	50
0.0481	9640	50

System: carbon dioxide + dimethyl carbonate; phases: Liquid, Gas
Property: Critical temperature, K (Liquid); method: Visual observation in an unstirred cell
Mole fraction of dimethyl carbonate	Critical temperature, K	uncertainty
0.0242	317.85	0.27
0.0481	327.95	0.32

System: carbon dioxide + dimethyl carbonate; phases: Liquid, Gas
Property: Vapor or sublimation pressure, kPa (Liquid); method: Closed cell (Static) method
Temperature, K	Mole fraction of dimethyl carbonate	Vapor or sublimation pressure, kPa	uncertainty
308.15	0.0242	7520	60
308.15	0.0481	7160	60
308.15	0.086	6750	60
308.15	0.118	6420	60
308.15	0.1484	6160	60
313.15	0.0242	8220	60
313.15	0.0481	7850	60
313.15	0.086	7340	60
313.15	0.118	7020	60
313.15	0.1484	6780	60
318.15	0.0481	8550	60
318.15	0.086	8020	60
318.15	0.118	7630	60
318.15	0.1484	7340	60
323.15	0.0481	9180	60
323.15	0.086	8690	60
323.15	0.118	8290	60
323.15	0.1484	7960	60
327.95	0.086	9320	60
327.95	0.118	8920	60
327.95	0.1484	8540	60
332.85	0.086	9960	60
332.85	0.118	9620	60
332.85	0.1484	9180	70
337.45	0.086	10450	60
337.45	0.118	10180	60
337.45	0.1484	9760	70

System: carbon dioxide + dimethyl carbonate; phases: Gas, Liquid
Property: Vapor or sublimation pressure, kPa (Gas); method: Closed cell (Static) method
Temperature, K	Mole fraction of dimethyl carbonate	Vapor or sublimation pressure, kPa	uncertainty
323.15	0.0242	9020	60
327.95	0.0242	9150	60
332.85	0.0242	9040	60
332.85	0.0481	10090	60
337.45	0.0242	8220	70
337.45	0.0481	10450	80

System: carbon dioxide + dimethyl carbonate; phases: Liquid
Property: Mass density, kg/m3 (Liquid); method: Pycnometric method
Temperature, K	Mole fraction of dimethyl carbonate	Pressure, kPa	Mass density, kg/m3	uncertainty
308.15	0.0242	7520	697	4
308.15	0.0242	7630	705	4
308.15	0.0242	7780	718	4
308.15	0.0242	7990	731	4
308.15	0.0242	8230	744	4
308.15	0.0242	8480	755	4
308.15	0.0242	8870	770	4
308.15	0.0242	9180	780	4
308.15	0.0242	9640	792	4
308.15	0.0242	9920	799	4
308.15	0.0242	10180	806	4
308.15	0.0242	10600	814	4
308.15	0.0242	11010	822	4
308.15	0.0242	11290	828	4
308.15	0.0242	11750	836	4
308.15	0.0242	12020	839	4
308.15	0.0242	12420	846	4
308.15	0.0242	12780	852	4
308.15	0.0481	7160	787	4
308.15	0.0481	7620	800	4
308.15	0.0481	8230	816	4
308.15	0.0481	8740	827	4
308.15	0.0481	9250	837	4
308.15	0.0481	9690	844	4
308.15	0.0481	10120	852	4
308.15	0.0481	10530	858	4
308.15	0.0481	11080	865	4
308.15	0.0481	11500	871	4
308.15	0.0481	12040	878	4
308.15	0.0481	12530	883	4
308.15	0.0481	12970	888	4
308.15	0.0481	13660	895	4
308.15	0.0481	14460	903	4
308.15	0.0481	15240	911	4
308.15	0.068	15060	946	4
308.15	0.068	15490	949	4
308.15	0.068	16010	953	4
308.15	0.086	6750	864	4
308.15	0.086	7940	881	4
308.15	0.086	8730	890	4
308.15	0.086	9630	900	4
308.15	0.086	10130	905	4
308.15	0.086	10930	913	4
308.15	0.086	11340	917	4
308.15	0.086	11800	921	4
308.15	0.086	12210	924	4
308.15	0.086	12850	929	4
308.15	0.086	13350	934	4
308.15	0.086	13850	937	4
308.15	0.086	14140	939	4
308.15	0.086	14760	944	4
308.15	0.118	6420	904	4
308.15	0.118	6900	909	4
308.15	0.118	7680	917	4
308.15	0.118	8200	922	4
308.15	0.118	9030	929	4
308.15	0.118	9670	935	4
308.15	0.118	10600	942	4
308.15	0.118	11180	946	4
308.15	0.118	12300	954	4
308.15	0.1484	6160	926	4
308.15	0.1484	6760	931	4
308.15	0.1484	7260	936	4
308.15	0.1484	7730	939	4
308.15	0.1484	8250	943	4
308.15	0.1484	8780	947	4
308.15	0.1484	9260	950	4
308.15	0.1484	9740	953	4
308.15	0.1484	10230	956	4
308.15	0.1484	10770	960	4
308.15	0.1484	11230	962	4
308.15	0.1484	11740	966	4
308.15	0.1484	12230	969	4
308.15	0.1484	12740	971	4
308.15	0.1484	13270	975	4
308.15	0.1484	13820	978	4
308.15	0.1484	14270	980	4
308.15	0.1484	15030	984	4
308.15	0.1484	15690	987	4
308.15	0.1484	16350	990	4
313.15	0.0242	8220	606	4
313.15	0.0242	8250	613	4
313.15	0.0242	8290	622	4
313.15	0.0242	8380	636	4
313.15	0.0242	8490	650	4
313.15	0.0242	8590	665	4
313.15	0.0242	8760	681	4
313.15	0.0242	8920	692	4
313.15	0.0242	9110	705	4
313.15	0.0242	9420	721	4
313.15	0.0242	9630	731	4
313.15	0.0242	9960	744	4
313.15	0.0242	10280	755	4
313.15	0.0242	10580	765	4
313.15	0.0242	10980	775	4
313.15	0.0242	11400	785	4
313.15	0.0242	11740	793	4
313.15	0.0242	12080	801	4
313.15	0.0242	12520	809	4
313.15	0.0242	12900	816	4
313.15	0.0242	13270	823	4
313.15	0.0242	13640	828	4
313.15	0.0242	13960	833	4
313.15	0.0242	14140	836	4
313.15	0.0242	14560	842	4
313.15	0.0242	14950	847	4
313.15	0.0242	15230	851	4
313.15	0.0481	7850	740	4
313.15	0.0481	8050	748	4
313.15	0.0481	8260	757	4
313.15	0.0481	8510	767	4
313.15	0.0481	8930	780	4
313.15	0.0481	9480	795	4
313.15	0.0481	9960	807	4
313.15	0.0481	10420	816	4
313.15	0.0481	11010	827	4
313.15	0.0481	11430	834	4
313.15	0.0481	11950	842	4
313.15	0.0481	12450	849	4
313.15	0.0481	12950	856	4
313.15	0.0481	13450	863	4
313.15	0.0481	13980	869	4
313.15	0.0481	14620	877	4
313.15	0.0481	15210	882	4
313.15	0.0481	15900	890	4
313.15	0.068	15220	924	4
313.15	0.068	15930	930	4
313.15	0.068	16400	933	4
313.15	0.086	7340	834	4
313.15	0.086	8350	852	4
313.15	0.086	8790	859	4
313.15	0.086	9250	865	4
313.15	0.086	9720	871	4
313.15	0.086	10130	876	4
313.15	0.086	10870	885	4
313.15	0.086	11120	888	4
313.15	0.086	11710	893	4
313.15	0.086	12130	898	4
313.15	0.086	12700	903	4
313.15	0.086	13580	911	4
313.15	0.086	14120	915	4
313.15	0.086	14750	920	4
313.15	0.118	7020	880	4
313.15	0.118	7500	886	4
313.15	0.118	8050	893	4
313.15	0.118	9000	903	4
313.15	0.118	9650	910	4
313.15	0.118	10300	916	4
313.15	0.118	11010	922	4
313.15	0.118	11550	927	4
313.15	0.118	12030	930	4
313.15	0.118	12700	935	4
313.15	0.118	13250	940	4
313.15	0.118	13730	943	4
313.15	0.118	14270	947	4
313.15	0.1484	6780	905	4
313.15	0.1484	7280	909	4
313.15	0.1484	7780	914	4
313.15	0.1484	8290	918	4
313.15	0.1484	8760	922	4
313.15	0.1484	9250	926	4
313.15	0.1484	9770	930	4
313.15	0.1484	10240	934	4
313.15	0.1484	10740	937	4
313.15	0.1484	11280	941	4
313.15	0.1484	11770	944	4
313.15	0.1484	12330	948	4
313.15	0.1484	12790	951	4
313.15	0.1484	13310	955	4
313.15	0.1484	13790	957	4
313.15	0.1484	14430	961	4
313.15	0.1484	15100	965	4
313.15	0.1484	15650	968	4
313.15	0.1484	16470	972	4
317.85	0.0242	8660	476	4
317.85	0.0242	8710	485	4
317.85	0.0242	8720	490	4
317.85	0.0242	8750	498	4
317.85	0.0242	8780	506	4
317.85	0.0242	8820	517	4
317.85	0.0242	8880	529	4
317.85	0.0242	8930	542	4
317.85	0.0242	9000	555	4
317.85	0.0242	9070	569	4
317.85	0.0242	9150	583	4
317.85	0.0242	9250	599	4
317.85	0.0242	9350	611	4
317.85	0.0242	9500	628	4
317.85	0.0242	9710	646	4
317.85	0.0242	9910	663	4
318.15	0.0481	8550	683	4
318.15	0.0481	8700	693	4
318.15	0.0481	8880	706	4
318.15	0.0481	9140	721	4
318.15	0.0481	9450	735	4
318.15	0.0481	9760	748	4
318.15	0.0481	10200	758	4
318.15	0.0481	10740	777	4
318.15	0.0481	11250	789	4
318.15	0.0481	11770	800	4
318.15	0.0481	12240	809	4
318.15	0.0481	12720	818	4
318.15	0.0481	13280	826	4
318.15	0.0481	13730	833	4
318.15	0.0481	14240	841	4
318.15	0.0481	14710	847	4
318.15	0.0481	15300	854	4
318.15	0.0481	16250	865	4
318.15	0.086	8020	802	4
318.15	0.086	8410	812	4
318.15	0.086	8830	820	4
318.15	0.086	9160	827	4
318.15	0.086	9810	838	4
318.15	0.086	10260	845	4
318.15	0.086	10820	853	4
318.15	0.086	11190	858	4
318.15	0.086	11740	865	4
318.15	0.086	12230	871	4
318.15	0.086	12690	876	4
318.15	0.086	13270	882	4
318.15	0.086	13840	888	4
318.15	0.086	14290	893	4
318.15	0.086	14830	898	4
318.15	0.086	15280	902	4
318.15	0.086	15760	906	4
318.15	0.086	16300	910	4
318.15	0.118	7630	856	4
318.15	0.118	7850	859	4
318.15	0.118	8190	864	4
318.15	0.118	8610	870	4
318.15	0.118	9130	876	4
318.15	0.118	9580	882	4
318.15	0.118	10180	889	4
318.15	0.118	10750	895	4
318.15	0.118	11280	900	4
318.15	0.118	11800	905	4
318.15	0.118	12280	909	4
318.15	0.118	12770	913	4
318.15	0.118	13290	918	4
318.15	0.118	13750	922	4
318.15	0.118	14240	925	4
318.15	0.118	14720	929	4
318.15	0.118	15250	933	4
318.15	0.118	15820	937	4
318.15	0.118	16260	940	4
318.15	0.1484	7340	884	4
318.15	0.1484	7820	889	4
318.15	0.1484	8270	894	4
318.15	0.1484	8780	899	4
318.15	0.1484	9300	904	4
318.15	0.1484	9800	908	4
318.15	0.1484	10270	912	4
318.15	0.1484	10720	916	4
318.15	0.1484	11230	920	4
318.15	0.1484	11720	924	4
318.15	0.1484	12260	928	4
318.15	0.1484	12820	932	4
318.15	0.1484	13410	936	4
318.15	0.1484	13900	939	4
318.15	0.1484	14390	942	4
318.15	0.1484	15140	947	4
318.15	0.1484	15770	950	4
318.15	0.1484	16420	955	4
323.15	0.0242	9020	394	4
323.15	0.0242	9080	401	4
323.15	0.0242	9120	408	4
323.15	0.0242	9170	417	4
323.15	0.0242	9230	427	4
323.15	0.0242	9280	436	4
323.15	0.0242	9350	447	4
323.15	0.0242	9410	458	4
323.15	0.0242	9480	470	4
323.15	0.0242	9550	482	4
323.15	0.0242	9620	495	4
323.15	0.0242	9710	509	4
323.15	0.0242	9800	523	4
323.15	0.0242	9900	536	4
323.15	0.0242	9930	541	4
323.15	0.0481	9180	607	4
323.15	0.0481	9260	617	4
323.15	0.0481	9410	638	4
323.15	0.0481	9570	650	4
323.15	0.0481	9750	666	4
323.15	0.0481	10010	683	4
323.15	0.0481	10350	700	4
323.15	0.0481	10780	719	4
323.15	0.0481	11360	739	4
323.15	0.0481	11870	754	4
323.15	0.0481	12390	768	4
323.15	0.0481	12920	780	4
323.15	0.0481	13550	792	4
323.15	0.086	8690	762	4
323.15	0.086	8880	769	4
323.15	0.086	9220	779	4
323.15	0.086	9760	792	4
323.15	0.086	10280	803	4
323.15	0.086	10740	813	4
323.15	0.086	11230	822	4
323.15	0.086	11670	829	4
323.15	0.086	12310	839	4
323.15	0.086	12740	844	4
323.15	0.086	13190	851	4
323.15	0.086	13740	857	4
323.15	0.086	14230	863	4
323.15	0.086	14730	868	4
323.15	0.086	15220	873	4
323.15	0.086	15660	878	4
323.15	0.086	16130	883	4
323.15	0.118	8290	829	4
323.15	0.118	8540	833	4
323.15	0.118	8960	840	4
323.15	0.118	9310	845	4
323.15	0.118	9740	852	4
323.15	0.118	10220	859	4
323.15	0.118	10740	866	4
323.15	0.118	11230	872	4
323.15	0.118	11750	878	4
323.15	0.118	12270	883	4
323.15	0.118	12750	888	4
323.15	0.118	13310	894	4
323.15	0.118	13830	898	4
323.15	0.118	14270	902	4
323.15	0.118	14750	907	4
323.15	0.118	15250	911	4
323.15	0.118	15740	914	4
323.15	0.118	16430	920	4
323.15	0.1484	7960	862	4
323.15	0.1484	8310	866	4
323.15	0.1484	8770	872	4
323.15	0.1484	9250	877	4
323.15	0.1484	9760	883	4
323.15	0.1484	10280	888	4
323.15	0.1484	10740	893	4
323.15	0.1484	11230	897	4
323.15	0.1484	11760	901	4
323.15	0.1484	12240	905	4
323.15	0.1484	12770	910	4
323.15	0.1484	13260	913	4
323.15	0.1484	13760	918	4
323.15	0.1484	14330	922	4
323.15	0.1484	14820	925	4
323.15	0.1484	15510	930	4
323.15	0.1484	16420	936	4
327.95	0.0242	9150	333	4
327.95	0.0242	9180	337	4
327.95	0.0242	9250	344	4
327.95	0.0242	9320	352	4
327.95	0.0242	9400	359	4
327.95	0.0242	9470	369	4
327.95	0.0242	9540	378	4
327.95	0.0242	9620	387	4
327.95	0.0242	9690	397	4
327.95	0.0242	9770	407	4
327.95	0.0242	9860	418	4
327.95	0.0242	9950	430	4
327.95	0.0242	10040	442	4
327.95	0.0242	10120	453	4
327.95	0.086	9320	724	4
327.95	0.086	9720	740	4
327.95	0.086	9990	750	4
327.95	0.086	10400	762	4
327.95	0.086	10740	772	4
327.95	0.086	11180	782	4
327.95	0.086	11650	792	4
327.95	0.086	12210	802	4
327.95	0.086	12750	812	4
327.95	0.086	13200	819	4
327.95	0.086	13680	826	4
327.95	0.086	14170	833	4
327.95	0.086	14710	840	4
327.95	0.086	15160	846	4
327.95	0.086	15660	852	4
327.95	0.086	16180	858	4
327.95	0.118	8920	801	4
327.95	0.118	9160	806	4
327.95	0.118	9470	812	4
327.95	0.118	9760	818	4
327.95	0.118	10240	827	4
327.95	0.118	10740	835	4
327.95	0.118	11220	842	4
327.95	0.118	11720	849	4
327.95	0.118	12200	855	4
327.95	0.118	12680	861	4
327.95	0.118	13320	868	4
327.95	0.118	13780	873	4
327.95	0.118	14310	879	4
327.95	0.118	14800	884	4
327.95	0.118	15260	888	4
327.95	0.118	15740	892	4
327.95	0.118	16330	897	4
327.95	0.1484	8540	839	4
327.95	0.1484	8840	844	4
327.95	0.1484	9290	850	4
327.95	0.1484	9750	856	4
327.95	0.1484	10240	862	4
327.95	0.1484	10770	868	4
327.95	0.1484	11260	873	4
327.95	0.1484	11760	878	4
327.95	0.1484	12260	883	4
327.95	0.1484	12800	888	4
327.95	0.1484	13310	893	4
327.95	0.1484	13800	897	4
327.95	0.1484	14240	901	4
327.95	0.1484	14780	905	4
327.95	0.1484	15300	909	4
327.95	0.1484	15860	913	4
327.95	0.1484	16560	918	4
328.15	0.0481	9640	532	4
328.15	0.0481	9710	543	4
328.15	0.0481	9800	556	4
328.15	0.0481	9910	570	4
328.15	0.0481	10030	585	4
328.15	0.0481	10180	600	4
328.15	0.0481	10340	615	4
328.15	0.0481	10540	632	4
328.15	0.0481	10720	645	4
328.15	0.0481	10940	659	4
328.15	0.0481	11190	673	4
328.15	0.0481	11350	681	4
332.85	0.0242	9040	282	4
332.85	0.0242	9110	287	4
332.85	0.0242	9200	292	4
332.85	0.0242	9270	298	4
332.85	0.0242	9350	305	4
332.85	0.0242	9430	311	4
332.85	0.0242	9520	318	4
332.85	0.0242	9640	329	4
332.85	0.0242	9720	336	4
332.85	0.0242	9810	344	4
332.85	0.0242	9910	353	4
332.85	0.0242	10010	362	4
332.85	0.0242	10110	371	4
332.85	0.0242	10200	381	4
332.85	0.0242	10300	391	4
332.85	0.0242	10380	399	4
332.85	0.0242	10490	410	4
332.85	0.0242	10580	417	4
332.85	0.0481	10090	484	4
332.85	0.0481	10250	506	4
332.85	0.0481	10350	517	4
332.85	0.0481	10420	525	4
332.85	0.0481	10520	538	4
332.85	0.0481	10640	550	4
332.85	0.0481	10740	560	4
332.85	0.0481	10890	574	4
332.85	0.0481	11060	588	4
332.85	0.0481	11260	603	4
332.85	0.0481	11500	619	4
332.85	0.0481	11760	636	4
332.85	0.0481	11990	650	4
332.85	0.0481	12280	663	4
332.85	0.0481	12630	678	4
332.85	0.086	9960	682	4
332.85	0.086	10030	686	4
332.85	0.086	10200	695	4
332.85	0.086	10380	704	4
332.85	0.086	10530	711	4
332.85	0.086	10860	724	4
332.85	0.086	11270	738	4
332.85	0.086	11750	751	4
332.85	0.086	12270	765	4
332.85	0.086	12750	775	4
332.85	0.086	13230	784	4
332.85	0.086	13760	794	4
332.85	0.086	14290	803	4
332.85	0.086	14720	810	4
332.85	0.086	15330	819	4
332.85	0.086	15760	825	4
332.85	0.086	16200	831	4
332.85	0.118	9620	768	4
332.85	0.118	9820	773	4
332.85	0.118	10040	780	4
332.85	0.118	10350	788	4
332.85	0.118	10740	796	4
332.85	0.118	11200	805	4
332.85	0.118	11740	815	4
332.85	0.118	12160	822	4
332.85	0.118	12700	830	4
332.85	0.118	13190	837	4
332.85	0.118	13700	843	4
332.85	0.118	14230	850	4
332.85	0.118	14760	856	4
332.85	0.118	15290	861	4
332.85	0.118	15740	866	4
332.85	0.118	16370	872	4
332.85	0.1484	9180	814	4
332.85	0.1484	9620	821	4
332.85	0.1484	9920	826	4
332.85	0.1484	10290	832	4
332.85	0.1484	10720	839	4
332.85	0.1484	11250	846	4
332.85	0.1484	11730	851	4
332.85	0.1484	12260	858	4
332.85	0.1484	12750	863	4
332.85	0.1484	13270	869	4
332.85	0.1484	13800	874	4
332.85	0.1484	14520	881	4
332.85	0.1484	15020	885	4
332.85	0.1484	15460	889	4
332.85	0.1484	15940	893	4
332.85	0.1484	16670	899	4
337.45	0.0242	8220	212	4
337.45	0.0242	8340	217	4
337.45	0.0242	8440	222	4
337.45	0.0242	8530	226	4
337.45	0.0242	8640	231	4
337.45	0.0242	8730	236	4
337.45	0.0242	8820	242	4
337.45	0.0242	8920	247	4
337.45	0.0242	9030	253	4
337.45	0.0242	9130	259	4
337.45	0.0242	9240	266	4
337.45	0.0242	9350	272	4
337.45	0.0242	9460	279	4
337.45	0.0242	9570	287	4
337.45	0.0242	9690	295	4
337.45	0.0242	9810	304	4
337.45	0.0242	9930	311	4
337.45	0.0481	10450	450	4
337.45	0.0481	10670	470	4
337.45	0.0481	10780	481	4
337.45	0.0481	10890	492	4
337.45	0.0481	11010	504	4
337.45	0.0481	11160	517	4
337.45	0.0481	11310	530	4
337.45	0.0481	11480	543	4
337.45	0.0481	11650	558	4
337.45	0.0481	11850	573	4
337.45	0.0481	12100	589	4
337.45	0.0481	12360	607	4
337.45	0.086	10450	631	4
337.45	0.086	10480	634	4
337.45	0.086	10550	640	4
337.45	0.086	10630	644	4
337.45	0.086	10800	654	4
337.45	0.086	11080	669	4
337.45	0.086	11380	684	4
337.45	0.086	11780	700	4
337.45	0.086	12270	716	4
337.45	0.086	12800	732	4
337.45	0.086	13170	742	4
337.45	0.086	13730	755	4
337.45	0.086	14220	766	4
337.45	0.086	14710	775	4
337.45	0.086	15150	783	4
337.45	0.086	15740	792	4
337.45	0.086	16250	801	4
337.45	0.118	10180	737	4
337.45	0.118	10350	743	4
337.45	0.118	10620	751	4
337.45	0.118	10940	760	4
337.45	0.118	11290	769	4
337.45	0.118	11700	779	4
337.45	0.118	12190	789	4
337.45	0.118	12660	798	4
337.45	0.118	13220	807	4
337.45	0.118	13640	814	4
337.45	0.118	14170	821	4
337.45	0.118	14730	829	4
337.45	0.118	15280	836	4
337.45	0.118	15770	842	4
337.45	0.118	16400	849	4
337.45	0.1484	9760	790	4
337.45	0.1484	10060	795	4
337.45	0.1484	10530	804	4
337.45	0.1484	10820	809	4
337.45	0.1484	11230	816	4
337.45	0.1484	11720	823	4
337.45	0.1484	12240	830	4
337.45	0.1484	12740	838	4
337.45	0.1484	13240	843	4
337.45	0.1484	13730	849	4
337.45	0.1484	14270	855	4
337.45	0.1484	14780	861	4
337.45	0.1484	15350	866	4
337.45	0.1484	15800	870	4
337.45	0.1484	16600	881	4
