Measured thermophysical data. Excess Enthalpies of Dibromomethane with Acetone, 1,4-Dioxane, Pyridine, Diethyl Ether, Ethyl Methyl Ketone, and Tetrahydrofuran at 303.15 K
Source: J. Chem. Eng. Data, 2010, 10.1021/je900547w
Compound 1: dibromomethane, CH2Br2, InChI=1S/CH2Br2/c2-1-3/h1H2
Compound 2: 1,4-dioxane, C4H8O2, InChI=1S/C4H8O2/c1-2-6-4-3-5-1/h1-4H2
Compound 3: butanone, C4H8O, InChI=1S/C4H8O/c1-3-4(2)5/h3H2,1-2H3
Compound 4: diethyl ether, C4H10O, InChI=1S/C4H10O/c1-3-5-4-2/h3-4H2,1-2H3
Compound 5: acetone, C3H6O, InChI=1S/C3H6O/c1-3(2)4/h1-2H3
Compound 6: tetrahydrofuran, C4H8O, InChI=1S/C4H8O/c1-2-4-5-3-1/h1-4H2
Compound 7: pyridine, C5H5N, InChI=1S/C5H5N/c1-2-4-6-5-3-1/h1-5H

System: acetone + dibromomethane; phases: Liquid
Fixed: Temperature, K = 303.15
Fixed: Pressure, kPa = 101
Property: Excess molar enthalpy (molar enthalpy of mixing), kJ/mol (Liquid); method: Calvet calorimetry
Mole fraction of dibromomethane	Excess molar enthalpy (molar enthalpy of mixing), kJ/mol	uncertainty
0.0983	-0.174	0.004
0.1828	-0.268	0.006
0.2785	-0.348	0.008
0.3454	-0.372	0.008
0.441	-0.386	0.008
0.5516	-0.367	0.008
0.629	-0.345	0.008
0.7501	-0.281	0.006
0.809	-0.236	0.005
0.9013	-0.14	0.003

System: dibromomethane + 1,4-dioxane; phases: Liquid
Fixed: Temperature, K = 303.15
Fixed: Pressure, kPa = 101
Property: Excess molar enthalpy (molar enthalpy of mixing), kJ/mol (Liquid); method: Calvet calorimetry
Mole fraction of dibromomethane	Excess molar enthalpy (molar enthalpy of mixing), kJ/mol	uncertainty
0.0953	-0.199	0.005
0.1526	-0.311	0.007
0.1857	-0.371	0.008
0.3446	-0.578	0.013
0.4358	-0.628	0.014
0.5614	-0.595	0.013
0.6401	-0.539	0.012
0.7512	-0.384	0.008
0.844	-0.221	0.005

System: diethyl ether + dibromomethane; phases: Liquid
Fixed: Temperature, K = 303.15
Fixed: Pressure, kPa = 101
Property: Excess molar enthalpy (molar enthalpy of mixing), kJ/mol (Liquid); method: Calvet calorimetry
Mole fraction of dibromomethane	Excess molar enthalpy (molar enthalpy of mixing), kJ/mol	uncertainty
0.1013	-0.191	0.004
0.2043	-0.353	0.008
0.3685	-0.5	0.011
0.4218	-0.514	0.011
0.557	-0.477	0.01
0.6434	-0.402	0.009
0.6508	-0.4	0.009
0.7096	-0.322	0.007
0.8429	-0.16	0.004

System: dibromomethane + butanone; phases: Liquid
Fixed: Temperature, K = 303.15
Fixed: Pressure, kPa = 101
Property: Excess molar enthalpy (molar enthalpy of mixing), kJ/mol (Liquid); method: Calvet calorimetry
Mole fraction of dibromomethane	Excess molar enthalpy (molar enthalpy of mixing), kJ/mol	uncertainty
0.1298	-0.197	0.005
0.2278	-0.3	0.007
0.3652	-0.361	0.008
0.4662	-0.364	0.008
0.5622	-0.332	0.007
0.6035	-0.312	0.007
0.7248	-0.226	0.005
0.8265	-0.131	0.003
0.9132	-0.063	0.002

System: dibromomethane + tetrahydrofuran; phases: Liquid
Fixed: Temperature, K = 303.15
Fixed: Pressure, kPa = 101
Property: Excess molar enthalpy (molar enthalpy of mixing), kJ/mol (Liquid); method: Calvet calorimetry
Mole fraction of dibromomethane	Excess molar enthalpy (molar enthalpy of mixing), kJ/mol	uncertainty
0.1215	-0.559	0.012
0.2079	-0.806	0.017
0.248	-0.9	0.019
0.3173	-1.01	0.022
0.4033	-1.078	0.023
0.4942	-1.084	0.023
0.6375	-0.974	0.021
0.771	-0.709	0.015
0.8053	-0.632	0.014
0.8739	-0.434	0.009

System: dibromomethane + pyridine; phases: Liquid
Fixed: Temperature, K = 303.15
Fixed: Pressure, kPa = 101
Property: Excess molar enthalpy (molar enthalpy of mixing), kJ/mol (Liquid); method: Calvet calorimetry
Mole fraction of dibromomethane	Excess molar enthalpy (molar enthalpy of mixing), kJ/mol	uncertainty
0.0846	-0.123	0.003
0.2331	-0.314	0.007
0.3712	-0.415	0.009
0.4825	-0.442	0.01
0.5788	-0.436	0.01
0.5817	-0.428	0.009
0.6577	-0.39	0.009
0.7271	-0.326	0.007
0.8121	-0.231	0.005
0.8416	-0.2	0.005
0.8823	-0.149	0.004
