Measured thermophysical data. Surface Tension of Diethyl Ether, Diisopropyl Ether, and Dibutyl Ether
Source: J. Chem. Eng. Data, 2010, 10.1021/je900665a
Compound 1: diethyl ether, C4H10O, InChI=1S/C4H10O/c1-3-5-4-2/h3-4H2,1-2H3, purity 99.5%
Compound 2: diisopropyl ether, C6H14O, InChI=1S/C6H14O/c1-5(2)7-6(3)4/h5-6H,1-4H3
Compound 3: dibutyl ether, C8H18O, InChI=1S/C8H18O/c1-3-5-7-9-8-6-4-2/h3-8H2,1-2H3
Compound 4: heptane, C7H16, InChI=1S/C7H16/c1-3-5-7-6-4-2/h3-7H2,1-2H3, purity 99%

System: diethyl ether; phases: Liquid, Gas
Property: Surface tension liquid-gas, N/m (Liquid); method: Capillary rise
Temperature, K	Surface tension liquid-gas, N/m	uncertainty
258.167	0.021487	0.000408
263.167	0.020759	0.000407
268.178	0.020127	0.000407
273.181	0.019619	0.000407
278.182	0.018966	0.000407
283.181	0.018464	0.000406
288.175	0.01782	0.000406
293.16	0.017153	0.000406
298.1	0.016578	0.000406
303.17	0.016003	0.000405
308.111	0.015435	0.000405
313.192	0.014868	0.000405
318.16	0.014143	0.000405
323.163	0.013614	0.000405
328.125	0.012957	0.000404
333.175	0.012462	0.000404
338.174	0.011919	0.000404
343.17	0.011278	0.000404
348.172	0.010746	0.000404
353.19	0.010194	0.000403
358.184	0.009575	0.000403
363.16	0.009014	0.000403
368.18	0.008459	0.000403
373.167	0.007914	0.000403

System: diisopropyl ether; phases: Liquid, Gas
Property: Surface tension liquid-gas, N/m (Liquid); method: Capillary rise
Temperature, K	Surface tension liquid-gas, N/m	uncertainty
248.07	0.022697	0.000464
253.231	0.022058	0.000461
258.1	0.021555	0.000458
263.175	0.02102	0.000456
268.331	0.020517	0.000453
273.462	0.019929	0.00045
278.5	0.01926	0.000447
283.175	0.018813	0.000445
288.175	0.018301	0.000443
293.16	0.017823	0.000441
298.1	0.017263	0.000439
303.17	0.016762	0.000437
308.08	0.016183	0.000435
313.27	0.015658	0.000433
318.167	0.015089	0.000431
323.188	0.014577	0.000429
328.124	0.014099	0.000427
333.118	0.013678	0.000426
338.109	0.013151	0.000424
343.1	0.012575	0.000422
348.103	0.012111	0.000421
353.099	0.011573	0.000419
358.155	0.011012	0.000418
363.173	0.010561	0.000416
368.17	0.010039	0.000415
373.17	0.009698	0.000414

System: dibutyl ether; phases: Liquid, Gas
Property: Surface tension liquid-gas, N/m (Liquid); method: Capillary rise
Temperature, K	Surface tension liquid-gas, N/m	uncertainty
263.171	0.025789	0.000425
268.176	0.025352	0.000424
273.183	0.02484	0.000423
278.191	0.024394	0.000423
283.196	0.02389	0.000422
288.189	0.023577	0.000421
293.181	0.023049	0.000421
298.106	0.022588	0.00042
303.17	0.022219	0.000419
308.046	0.021735	0.000419
313.18	0.021249	0.000418
318.129	0.02068	0.000417
323.2	0.020262	0.000417
328.199	0.01976	0.000416
333.18	0.019408	0.000415
338.179	0.018824	0.000415
343.174	0.018331	0.000414
348.181	0.017871	0.000413
353.165	0.017472	0.000413
358.18	0.016959	0.000412
363.185	0.016536	0.000412
368.185	0.016087	0.000411
373.17	0.015501	0.000411

System: heptane; phases: Liquid, Gas
Property: Surface tension liquid-gas, N/m (Liquid); method: Capillary rise
Temperature, K	Surface tension liquid-gas, N/m	uncertainty
298.135	0.020003	0.000416
303.179	0.019577	0.000416
308.123	0.018967	0.000415
313.18	0.018414	0.000414
318.169	0.017973	0.000414
323.198	0.017481	0.000413
328.15	0.016916	0.000412
