Measured thermophysical data. Solubility of Biologically Active Chalcones in 1,4-Dioxane and N,N-Dimethyl Formamide from (298.15 to 318.15) K
Source: J. Chem. Eng. Data, 2010, 10.1021/je900370q
Compound 1: (E)-1-(4-methoxyphenyl)-3-(5-(3-nitrophenyl)furan-2-yl)prop-2-en-1-one, C20H15NO5, InChI=1S/C20H15NO5/c1-25-17-7-5-14(6-8-17)19(22)11-9-18-10-12-20(26-18)15-3-2-4-16(13-15)21(23)24/h2-13H,1H3/b11-9+
Compound 2: (E)-1-(4-nitrophenyl)-3-(5-(3-nitrophenyl)furan-2-yl)prop-2-en-1-one, C19H12N2O6, InChI=1S/C19H12N2O6/c22-18(13-4-6-15(7-5-13)20(23)24)10-8-17-9-11-19(27-17)14-2-1-3-16(12-14)21(25)26/h1-12H/b10-8+
Compound 3: (E)-1-(3-nitrophenyl)-3-(5-(3-nitrophenyl)furan-2-yl)prop-2-en-1-one, C19H12N2O6, InChI=1S/C19H12N2O6/c22-18(13-3-1-5-15(11-13)20(23)24)9-7-17-8-10-19(27-17)14-4-2-6-16(12-14)21(25)26/h1-12H/b9-7+
Compound 4: (E)-1-(4-aminophenyl)-3-(5-(3-nitrophenyl)furan-2-yl)prop-2-en-1-one, C19H14N2O4, InChI=1S/C19H14N2O4/c20-15-6-4-13(5-7-15)18(22)10-8-17-9-11-19(25-17)14-2-1-3-16(12-14)21(23)24/h1-12H,20H2/b10-8+
Compound 5: (E)-1-(4-chlorophenyl)-3-(5-(3-nitrophenyl)furan-2-yl)prop-2-en-1-one, C19H12ClNO4, InChI=1S/C19H12ClNO4/c20-15-6-4-13(5-7-15)18(22)10-8-17-9-11-19(25-17)14-2-1-3-16(12-14)21(23)24/h1-12H/b10-8+
Compound 6: (E)-1-(4-bromophenyl)-3-(5-(3-nitrophenyl)furan-2-yl)prop-2-en-1-one, C19H12BrNO4, InChI=1S/C19H12BrNO4/c20-15-6-4-13(5-7-15)18(22)10-8-17-9-11-19(25-17)14-2-1-3-16(12-14)21(23)24/h1-12H/b10-8+
Compound 7: (E)-3-(5-(3-nitrophenyl)furan-2-yl)-1-phenylprop-2-en-1-one, C19H13NO4, InChI=1S/C19H13NO4/c21-18(14-5-2-1-3-6-14)11-9-17-10-12-19(24-17)15-7-4-8-16(13-15)20(22)23/h1-13H/b11-9+
Compound 8: (E)-1-(4-hydroxyphenyl)-3-(5-(3-nitrophenyl)furan-2-yl)prop-2-en-1-one, C19H13NO5, InChI=1S/C19H13NO5/c21-16-6-4-13(5-7-16)18(22)10-8-17-9-11-19(25-17)14-2-1-3-15(12-14)20(23)24/h1-12,21H/b10-8+
Compound 9: (E)-1-(furan-2-yl)-3-(5-(3-nitrophenyl)furan-2-yl)prop-2-en-1-one, C17H11NO5, InChI=1S/C17H11NO5/c19-15(17-5-2-10-22-17)8-6-14-7-9-16(23-14)12-3-1-4-13(11-12)18(20)21/h1-11H/b8-6+
Compound 10: (E)-3-(3-(5-(3-nitrophenyl)furan-2-yl)acryloyl)-2H-chromen-2-one, C22H13NO6, InChI=1S/C22H13NO6/c24-19(18-13-15-4-1-2-7-20(15)29-22(18)25)10-8-17-9-11-21(28-17)14-5-3-6-16(12-14)23(26)27/h1-13H/b10-8+
Compound 11: 1,4-dioxane, C4H8O2, InChI=1S/C4H8O2/c1-2-6-4-3-5-1/h1-4H2
Compound 12: dimethylformamide, C3H7NO, InChI=1S/C3H7NO/c1-4(2)3-5/h3H,1-2H3

System: (E)-1-(4-methoxyphenyl)-3-(5-(3-nitrophenyl)furan-2-yl)prop-2-en-1-one; phases: Crystal, Liquid, Air at 1 atmosphere
Property: Normal melting temperature, K (Crystal); method: DTA
Normal melting temperature, K	uncertainty
414.15	1

System: (E)-1-(4-nitrophenyl)-3-(5-(3-nitrophenyl)furan-2-yl)prop-2-en-1-one; phases: Crystal, Liquid, Air at 1 atmosphere
Property: Normal melting temperature, K (Crystal); method: DTA
Normal melting temperature, K	uncertainty
491.15	1

System: (E)-1-(3-nitrophenyl)-3-(5-(3-nitrophenyl)furan-2-yl)prop-2-en-1-one; phases: Crystal, Liquid, Air at 1 atmosphere
Property: Normal melting temperature, K (Crystal); method: DTA
Normal melting temperature, K	uncertainty
453.15	1

System: (E)-1-(4-aminophenyl)-3-(5-(3-nitrophenyl)furan-2-yl)prop-2-en-1-one; phases: Crystal, Liquid, Air at 1 atmosphere
Property: Normal melting temperature, K (Crystal); method: DTA
Normal melting temperature, K	uncertainty
444.15	1

System: (E)-1-(4-chlorophenyl)-3-(5-(3-nitrophenyl)furan-2-yl)prop-2-en-1-one; phases: Crystal, Liquid, Air at 1 atmosphere
Property: Normal melting temperature, K (Crystal); method: DTA
Normal melting temperature, K	uncertainty
443.15	1

System: (E)-1-(4-bromophenyl)-3-(5-(3-nitrophenyl)furan-2-yl)prop-2-en-1-one; phases: Crystal, Liquid, Air at 1 atmosphere
Property: Normal melting temperature, K (Crystal); method: DTA
Normal melting temperature, K	uncertainty
433.15	1

System: (E)-3-(5-(3-nitrophenyl)furan-2-yl)-1-phenylprop-2-en-1-one; phases: Crystal, Liquid, Air at 1 atmosphere
Property: Normal melting temperature, K (Crystal); method: DTA
Normal melting temperature, K	uncertainty
415.15	1

System: (E)-1-(4-hydroxyphenyl)-3-(5-(3-nitrophenyl)furan-2-yl)prop-2-en-1-one; phases: Crystal, Liquid, Air at 1 atmosphere
Property: Normal melting temperature, K (Crystal); method: DTA
Normal melting temperature, K	uncertainty
425.15	1

System: (E)-1-(furan-2-yl)-3-(5-(3-nitrophenyl)furan-2-yl)prop-2-en-1-one; phases: Crystal, Liquid, Air at 1 atmosphere
Property: Normal melting temperature, K (Crystal); method: DTA
Normal melting temperature, K	uncertainty
451.15	1

System: (E)-3-(3-(5-(3-nitrophenyl)furan-2-yl)acryloyl)-2H-chromen-2-one; phases: Crystal, Liquid, Air at 1 atmosphere
Property: Normal melting temperature, K (Crystal); method: DTA
Normal melting temperature, K	uncertainty
445.15	1

System: 1,4-dioxane + (E)-1-(4-methoxyphenyl)-3-(5-(3-nitrophenyl)furan-2-yl)prop-2-en-1-one; phases: Liquid, Crystal
Fixed: Pressure, kPa = 101
Property: Mole fraction of (E)-1-(4-methoxyphenyl)-3-(5-(3-nitrophenyl)furan-2-yl)prop-2-en-1-one (Liquid); method: gravimetric method
Temperature, K	Mole fraction of (E)-1-(4-methoxyphenyl)-3-(5-(3-nitrophenyl)furan-2-yl)prop-2-en-1-one	uncertainty
298.15	0.007316	6.9e-05
303.15	0.007334	6.9e-05
308.15	0.007367	6.9e-05
313.15	0.007416	6.9e-05
318.15	0.007441	7e-05

System: 1,4-dioxane + (E)-1-(4-nitrophenyl)-3-(5-(3-nitrophenyl)furan-2-yl)prop-2-en-1-one; phases: Liquid, Crystal
Fixed: Pressure, kPa = 101
Property: Mole fraction of (E)-1-(4-nitrophenyl)-3-(5-(3-nitrophenyl)furan-2-yl)prop-2-en-1-one (Liquid); method: gravimetric method
Temperature, K	Mole fraction of (E)-1-(4-nitrophenyl)-3-(5-(3-nitrophenyl)furan-2-yl)prop-2-en-1-one	uncertainty
298.15	0.002292	2.2e-05
303.15	0.002324	2.2e-05
308.15	0.002388	2.3e-05
313.15	0.002411	2.3e-05
318.15	0.002454	2.4e-05

System: 1,4-dioxane + (E)-1-(3-nitrophenyl)-3-(5-(3-nitrophenyl)furan-2-yl)prop-2-en-1-one; phases: Liquid, Crystal
Fixed: Pressure, kPa = 101
Property: Mole fraction of (E)-1-(3-nitrophenyl)-3-(5-(3-nitrophenyl)furan-2-yl)prop-2-en-1-one (Liquid); method: gravimetric method
Temperature, K	Mole fraction of (E)-1-(3-nitrophenyl)-3-(5-(3-nitrophenyl)furan-2-yl)prop-2-en-1-one	uncertainty
298.15	0.005958	5.8e-05
303.15	0.006009	5.8e-05
308.15	0.006025	5.8e-05
313.15	0.006052	5.9e-05
318.15	0.006084	5.9e-05

System: 1,4-dioxane + (E)-1-(4-aminophenyl)-3-(5-(3-nitrophenyl)furan-2-yl)prop-2-en-1-one; phases: Liquid, Crystal
Fixed: Pressure, kPa = 101
Property: Mole fraction of (E)-1-(4-aminophenyl)-3-(5-(3-nitrophenyl)furan-2-yl)prop-2-en-1-one (Liquid); method: gravimetric method
Temperature, K	Mole fraction of (E)-1-(4-aminophenyl)-3-(5-(3-nitrophenyl)furan-2-yl)prop-2-en-1-one	uncertainty
298.15	0.00245	2.2e-05
303.15	0.002484	2.2e-05
308.15	0.002502	2.3e-05
313.15	0.002522	2.3e-05
318.15	0.002549	2.3e-05

System: 1,4-dioxane + (E)-1-(4-chlorophenyl)-3-(5-(3-nitrophenyl)furan-2-yl)prop-2-en-1-one; phases: Liquid, Crystal
Fixed: Pressure, kPa = 101
Property: Mole fraction of (E)-1-(4-chlorophenyl)-3-(5-(3-nitrophenyl)furan-2-yl)prop-2-en-1-one (Liquid); method: gravimetric method
Temperature, K	Mole fraction of (E)-1-(4-chlorophenyl)-3-(5-(3-nitrophenyl)furan-2-yl)prop-2-en-1-one	uncertainty
298.15	0.002712	2.6e-05
303.15	0.002721	2.6e-05
308.15	0.002774	2.6e-05
313.15	0.002818	2.7e-05
318.15	0.002836	2.7e-05

System: 1,4-dioxane + (E)-1-(4-bromophenyl)-3-(5-(3-nitrophenyl)furan-2-yl)prop-2-en-1-one; phases: Liquid, Crystal
Fixed: Pressure, kPa = 101
Property: Mole fraction of (E)-1-(4-bromophenyl)-3-(5-(3-nitrophenyl)furan-2-yl)prop-2-en-1-one (Liquid); method: gravimetric method
Temperature, K	Mole fraction of (E)-1-(4-bromophenyl)-3-(5-(3-nitrophenyl)furan-2-yl)prop-2-en-1-one	uncertainty
298.15	0.004887	5.2e-05
303.15	0.004913	5.2e-05
308.15	0.004951	5.2e-05
313.15	0.005007	5.3e-05
318.15	0.005013	5.3e-05

System: 1,4-dioxane + (E)-3-(5-(3-nitrophenyl)furan-2-yl)-1-phenylprop-2-en-1-one; phases: Liquid, Crystal
Fixed: Pressure, kPa = 101
Property: Mole fraction of (E)-3-(5-(3-nitrophenyl)furan-2-yl)-1-phenylprop-2-en-1-one (Liquid); method: gravimetric method
Temperature, K	Mole fraction of (E)-3-(5-(3-nitrophenyl)furan-2-yl)-1-phenylprop-2-en-1-one	uncertainty
298.15	0.005534	4.8e-05
303.15	0.005604	4.9e-05
308.15	0.005654	4.9e-05
313.15	0.005712	5e-05
318.15	0.005733	5e-05

System: 1,4-dioxane + (E)-1-(4-hydroxyphenyl)-3-(5-(3-nitrophenyl)furan-2-yl)prop-2-en-1-one; phases: Liquid, Crystal
Fixed: Pressure, kPa = 101
Property: Mole fraction of (E)-1-(4-hydroxyphenyl)-3-(5-(3-nitrophenyl)furan-2-yl)prop-2-en-1-one (Liquid); method: gravimetric method
Temperature, K	Mole fraction of (E)-1-(4-hydroxyphenyl)-3-(5-(3-nitrophenyl)furan-2-yl)prop-2-en-1-one	uncertainty
298.15	0.005729	5.2e-05
303.15	0.005801	5.3e-05
308.15	0.005815	5.3e-05
313.15	0.005911	5.4e-05
318.15	0.005917	5.4e-05

System: 1,4-dioxane + (E)-1-(furan-2-yl)-3-(5-(3-nitrophenyl)furan-2-yl)prop-2-en-1-one; phases: Liquid, Crystal
Fixed: Pressure, kPa = 101
Property: Mole fraction of (E)-1-(furan-2-yl)-3-(5-(3-nitrophenyl)furan-2-yl)prop-2-en-1-one (Liquid); method: gravimetric method
Temperature, K	Mole fraction of (E)-1-(furan-2-yl)-3-(5-(3-nitrophenyl)furan-2-yl)prop-2-en-1-one	uncertainty
298.15	0.007052	5.5e-05
303.15	0.007072	5.5e-05
308.15	0.007096	5.5e-05
313.15	0.007112	5.5e-05
318.15	0.007138	5.5e-05

System: 1,4-dioxane + (E)-3-(3-(5-(3-nitrophenyl)furan-2-yl)acryloyl)-2H-chromen-2-one; phases: Liquid, Crystal
Fixed: Pressure, kPa = 101
Property: Mole fraction of (E)-3-(3-(5-(3-nitrophenyl)furan-2-yl)acryloyl)-2H-chromen-2-one (Liquid); method: gravimetric method
Temperature, K	Mole fraction of (E)-3-(3-(5-(3-nitrophenyl)furan-2-yl)acryloyl)-2H-chromen-2-one	uncertainty
298.15	0.006171	6.3e-05
303.15	0.006234	6.4e-05
308.15	0.00622	6.4e-05
313.15	0.006242	6.4e-05
318.15	0.006285	6.5e-05

System: dimethylformamide + (E)-1-(4-methoxyphenyl)-3-(5-(3-nitrophenyl)furan-2-yl)prop-2-en-1-one; phases: Liquid, Crystal
Fixed: Pressure, kPa = 101
Property: Mole fraction of (E)-1-(4-methoxyphenyl)-3-(5-(3-nitrophenyl)furan-2-yl)prop-2-en-1-one (Liquid); method: gravimetric method
Temperature, K	Mole fraction of (E)-1-(4-methoxyphenyl)-3-(5-(3-nitrophenyl)furan-2-yl)prop-2-en-1-one	uncertainty
298.15	0.011151	0.000125
303.15	0.0112	0.000126
308.15	0.011276	0.000127
313.15	0.0113	0.000127
318.15	0.011377	0.000128

System: dimethylformamide + (E)-1-(4-nitrophenyl)-3-(5-(3-nitrophenyl)furan-2-yl)prop-2-en-1-one; phases: Liquid, Crystal
Fixed: Pressure, kPa = 101
Property: Mole fraction of (E)-1-(4-nitrophenyl)-3-(5-(3-nitrophenyl)furan-2-yl)prop-2-en-1-one (Liquid); method: gravimetric method
Temperature, K	Mole fraction of (E)-1-(4-nitrophenyl)-3-(5-(3-nitrophenyl)furan-2-yl)prop-2-en-1-one	uncertainty
298.15	0.002374	2.8e-05
303.15	0.0024	2.8e-05
308.15	0.002436	2.8e-05
313.15	0.00245	2.8e-05
318.15	0.002478	2.9e-05

System: dimethylformamide + (E)-1-(3-nitrophenyl)-3-(5-(3-nitrophenyl)furan-2-yl)prop-2-en-1-one; phases: Liquid, Crystal
Fixed: Pressure, kPa = 101
Property: Mole fraction of (E)-1-(3-nitrophenyl)-3-(5-(3-nitrophenyl)furan-2-yl)prop-2-en-1-one (Liquid); method: gravimetric method
Temperature, K	Mole fraction of (E)-1-(3-nitrophenyl)-3-(5-(3-nitrophenyl)furan-2-yl)prop-2-en-1-one	uncertainty
298.15	0.006036	7e-05
303.15	0.0061	7.1e-05
308.15	0.006136	7.2e-05
313.15	0.0062	7.2e-05
318.15	0.006204	7.2e-05

System: dimethylformamide + (E)-1-(4-aminophenyl)-3-(5-(3-nitrophenyl)furan-2-yl)prop-2-en-1-one; phases: Liquid, Crystal
Fixed: Pressure, kPa = 101
Property: Mole fraction of (E)-1-(4-aminophenyl)-3-(5-(3-nitrophenyl)furan-2-yl)prop-2-en-1-one (Liquid); method: gravimetric method
Temperature, K	Mole fraction of (E)-1-(4-aminophenyl)-3-(5-(3-nitrophenyl)furan-2-yl)prop-2-en-1-one	uncertainty
298.15	0.002638	2.8e-05
303.15	0.002639	2.8e-05
308.15	0.002641	2.8e-05
313.15	0.002641	2.8e-05
318.15	0.002643	2.8e-05

System: dimethylformamide + (E)-1-(4-chlorophenyl)-3-(5-(3-nitrophenyl)furan-2-yl)prop-2-en-1-one; phases: Liquid, Crystal
Fixed: Pressure, kPa = 101
Property: Mole fraction of (E)-1-(4-chlorophenyl)-3-(5-(3-nitrophenyl)furan-2-yl)prop-2-en-1-one (Liquid); method: gravimetric method
Temperature, K	Mole fraction of (E)-1-(4-chlorophenyl)-3-(5-(3-nitrophenyl)furan-2-yl)prop-2-en-1-one	uncertainty
298.15	0.004502	5.1e-05
303.15	0.0046	5.2e-05
308.15	0.004683	5.3e-05
313.15	0.0047	5.3e-05
318.15	0.004803	5.4e-05

System: dimethylformamide + (E)-1-(4-bromophenyl)-3-(5-(3-nitrophenyl)furan-2-yl)prop-2-en-1-one; phases: Liquid, Crystal
Fixed: Pressure, kPa = 101
Property: Mole fraction of (E)-1-(4-bromophenyl)-3-(5-(3-nitrophenyl)furan-2-yl)prop-2-en-1-one (Liquid); method: gravimetric method
Temperature, K	Mole fraction of (E)-1-(4-bromophenyl)-3-(5-(3-nitrophenyl)furan-2-yl)prop-2-en-1-one	uncertainty
298.15	0.007045	9e-05
303.15	0.0071	9.1e-05
308.15	0.007136	9.1e-05
313.15	0.007215	9.2e-05
318.15	0.007255	9.3e-05

System: dimethylformamide + (E)-3-(5-(3-nitrophenyl)furan-2-yl)-1-phenylprop-2-en-1-one; phases: Liquid, Crystal
Fixed: Pressure, kPa = 101
Property: Mole fraction of (E)-3-(5-(3-nitrophenyl)furan-2-yl)-1-phenylprop-2-en-1-one (Liquid); method: gravimetric method
Temperature, K	Mole fraction of (E)-3-(5-(3-nitrophenyl)furan-2-yl)-1-phenylprop-2-en-1-one	uncertainty
298.15	0.009833	0.000101
303.15	0.0099	0.000102
308.15	0.009981	0.000102
313.15	0.0101	0.000104
318.15	0.010148	0.000104

System: dimethylformamide + (E)-1-(4-hydroxyphenyl)-3-(5-(3-nitrophenyl)furan-2-yl)prop-2-en-1-one; phases: Liquid, Crystal
Fixed: Pressure, kPa = 101
Property: Mole fraction of (E)-1-(4-hydroxyphenyl)-3-(5-(3-nitrophenyl)furan-2-yl)prop-2-en-1-one (Liquid); method: gravimetric method
Temperature, K	Mole fraction of (E)-1-(4-hydroxyphenyl)-3-(5-(3-nitrophenyl)furan-2-yl)prop-2-en-1-one	uncertainty
298.15	0.006649	7.1e-05
303.15	0.0067	7.2e-05
308.15	0.006754	7.2e-05
313.15	0.0068	7.3e-05
318.15	0.006916	7.4e-05

System: dimethylformamide + (E)-1-(furan-2-yl)-3-(5-(3-nitrophenyl)furan-2-yl)prop-2-en-1-one; phases: Liquid, Crystal
Fixed: Pressure, kPa = 101
Property: Mole fraction of (E)-1-(furan-2-yl)-3-(5-(3-nitrophenyl)furan-2-yl)prop-2-en-1-one (Liquid); method: gravimetric method
Temperature, K	Mole fraction of (E)-1-(furan-2-yl)-3-(5-(3-nitrophenyl)furan-2-yl)prop-2-en-1-one	uncertainty
298.15	0.009403	8.4e-05
303.15	0.009452	8.5e-05
308.15	0.0095	8.5e-05
313.15	0.0095	8.5e-05
318.15	0.009589	8.6e-05

System: dimethylformamide + (E)-3-(3-(5-(3-nitrophenyl)furan-2-yl)acryloyl)-2H-chromen-2-one; phases: Liquid, Crystal
Fixed: Pressure, kPa = 101
Property: Mole fraction of (E)-3-(3-(5-(3-nitrophenyl)furan-2-yl)acryloyl)-2H-chromen-2-one (Liquid); method: gravimetric method
Temperature, K	Mole fraction of (E)-3-(3-(5-(3-nitrophenyl)furan-2-yl)acryloyl)-2H-chromen-2-one	uncertainty
298.15	0.006957	8.6e-05
303.15	0.007	8.7e-05
308.15	0.007101	8.8e-05
313.15	0.0072	8.9e-05
318.15	0.007214	8.9e-05
