Measured thermophysical data. Liquid Density Measurements for the Propylene + 2-Propanol + Water System
Source: J. Chem. Eng. Data, 2009, 10.1021/je900214y
Compound 1: propene, C3H6, InChI=1S/C3H6/c1-3-2/h3H,1H2,2H3
Compound 2: propan-2-ol, C3H8O, InChI=1S/C3H8O/c1-3(2)4/h3-4H,1-2H3
Compound 3: water, H2O, InChI=1S/H2O/h1H2, purity 99.9%

System: propan-2-ol + propene + water; phases: Liquid
Fixed: Mole fraction of propene = 0.0904
Fixed: Mole fraction of propan-2-ol = 0.3697
Property: Mass density, kg/m3 (Liquid); method: Vibrating tube method
Temperature, K	Pressure, kPa	Mass density, kg/m3	uncertainty
305.05	481	805.22	0.81
305.05	799.9	805.53	0.81
305.05	1118.9	805.81	0.81
305.05	1587.3	806.21	0.82
305.05	1973.8	806.57	0.82
305.05	2343.7	806.88	0.82
305.05	2861.6	807.33	0.82
305.05	3088.9	807.54	0.82
305.05	3620.1	807.99	0.82
305.05	3948.4	808.27	0.82
305.05	4345.4	808.61	0.82
305.05	4751	808.95	0.82
305.05	5150.7	809.29	0.82
305.05	5557.6	809.63	0.82
305.05	5964.4	809.96	0.82
305.05	6366.6	810.3	0.82
305.05	6786.6	810.64	0.83
305.05	7207.1	810.99	0.83
305.05	7609.1	811.32	0.83
305.05	8028.6	811.65	0.83
305.05	8459	812.01	0.83
305.05	8872.4	812.34	0.83
305.05	9272.3	812.66	0.83
305.05	9679.1	812.99	0.83
305.05	10068.4	813.35	0.83
325.13	1096.5	787.78	0.8
325.13	1376.5	788.08	0.8
325.13	1788.4	788.5	0.8
325.13	2205.5	788.92	0.8
325.13	2525.6	789.26	0.8
325.13	2916.9	789.68	0.8
325.13	3385.3	790.18	0.8
325.13	3725.2	790.51	0.8
325.13	4135.3	790.9	0.8
325.13	4548.3	791.31	0.81
325.13	4942.8	791.7	0.81
325.13	5352.4	792.1	0.81
325.13	5817.1	792.53	0.81
325.13	6158.8	792.87	0.81
325.13	6571.3	793.27	0.81
325.13	6970.6	793.68	0.81
325.13	7361.1	794.07	0.81
325.13	7752.5	794.47	0.81
325.13	8126.3	794.84	0.81
325.13	8556.3	795.24	0.81
325.13	8951.4	795.67	0.82
325.13	9359.7	796.03	0.82
325.13	9783.2	796.45	0.82
325.13	10193.3	796.86	0.82
350.16	1979.4	760.95	0.77
350.16	2250.6	761.47	0.78
350.16	2653.2	762.19	0.78
350.16	2789.4	762.47	0.78
350.16	3172.5	763	0.78
350.16	3487.7	763.47	0.78
350.16	3819.2	763.99	0.78
350.16	4171.5	764.47	0.78
350.16	4558.7	764.96	0.78
350.16	4903.6	765.44	0.78
350.16	5272.7	765.96	0.78
350.16	5605.2	766.43	0.79
350.16	5992.7	766.93	0.79
350.16	6388.6	767.42	0.79
350.16	6753.5	767.93	0.79
350.16	7175.1	768.45	0.79
350.16	7534	768.95	0.79
350.16	7886.2	769.36	0.79
350.16	8290.3	769.86	0.79
350.16	8702.3	770.37	0.79
350.16	8988.4	770.84	0.79
350.16	9371.9	771.35	0.8
350.16	9692.9	771.8	0.8
350.16	10018.7	772.34	0.8

System: propan-2-ol + propene + water; phases: Liquid
Fixed: Mole fraction of propene = 0.1828
Fixed: Mole fraction of propan-2-ol = 0.3828
Property: Mass density, kg/m3 (Liquid); method: Vibrating tube method
Temperature, K	Pressure, kPa	Mass density, kg/m3	uncertainty
300.1	1019.9	758.54	0.77
300.1	1335.5	758.91	0.77
300.1	1692.5	759.33	0.77
300.1	2068.4	759.75	0.77
300.1	2506.8	760.25	0.77
300.1	2823.3	760.61	0.78
300.1	3266.5	761.1	0.78
300.1	3565	761.44	0.78
300.1	3910	761.82	0.78
300.1	4361.3	762.31	0.78
300.1	4679.8	762.67	0.78
300.1	5064.1	763.09	0.78
300.1	5454.1	763.51	0.78
300.1	5850.3	763.93	0.78
300.1	6327.2	764.42	0.78
300.1	6622.8	764.75	0.78
300.1	6954.3	765.1	0.79
300.1	7456.6	765.62	0.79
300.1	7843.9	766.01	0.79
300.1	8237.9	766.41	0.79
300.1	8640.8	766.82	0.79
300.1	9064.1	767.26	0.79
300.1	9470.5	767.67	0.79
300.1	9858.3	768.09	0.79
325.11	1872.8	738.13	0.75
325.11	2272.3	738.62	0.75
325.11	2564.8	739.03	0.76
325.11	2842.5	739.43	0.76
325.11	3163.6	740	0.76
325.11	3460.3	740.41	0.76
325.11	3802.1	740.8	0.76
325.11	4205.5	741.3	0.76
325.11	4570.5	741.79	0.76
325.11	4912.1	742.16	0.76
325.11	5330.4	742.65	0.76
325.11	5702.3	743.08	0.76
325.11	6069.1	743.56	0.77
325.11	6403	743.98	0.77
325.11	6776.1	744.45	0.77
325.11	7099.2	744.86	0.77
325.11	7495.7	745.33	0.77
325.11	7840.2	745.77	0.77
325.11	8217.3	746.22	0.77
325.11	8572.1	746.68	0.77
325.11	8934.6	747.14	0.78
325.11	9271.1	747.56	0.78
325.11	9620.8	747.98	0.78
325.11	10045.4	748.47	0.78
345.1	2298.4	718.81	0.74
345.1	2347.5	718.97	0.74
345.1	2730.7	719.58	0.74
345.1	2993.9	720.06	0.74
345.1	3284.2	720.53	0.74
345.1	3545.4	720.93	0.74
345.1	3953.7	721.63	0.74
345.1	4112.5	721.93	0.74
345.1	4426	722.46	0.74
345.1	4706.4	722.89	0.75
345.1	5000.9	723.31	0.75
345.1	5282.1	723.84	0.75
345.1	5590.2	724.3	0.75
345.1	5944.6	724.83	0.75
345.1	6183.3	725.19	0.75
345.1	6485.9	725.68	0.75
345.1	6790.4	726.18	0.75
345.1	7088.3	726.63	0.75
345.1	7396.1	727.11	0.76
345.1	7697.5	727.55	0.76
345.1	8010.4	728.03	0.76
345.1	8324.5	728.51	0.76
345.1	8635	728.98	0.76
345.1	8947.2	729.42	0.76
345.1	9276	729.9	0.76

System: propan-2-ol + propene + water; phases: Liquid
Fixed: Mole fraction of propene = 0.3031
Fixed: Mole fraction of propan-2-ol = 0.5024
Property: Mass density, kg/m3 (Liquid); method: Vibrating tube method
Temperature, K	Pressure, kPa	Mass density, kg/m3	uncertainty
300.1	930.9	707.92	0.72
300.1	1197	708.29	0.73
300.1	1556.1	708.78	0.73
300.1	1948.1	709.29	0.73
300.1	2458.8	709.93	0.73
300.1	2780.1	710.37	0.73
300.1	3164.5	710.88	0.73
300.1	3512.8	711.35	0.73
300.1	4009	711.99	0.74
300.1	4360.4	712.44	0.74
300.1	4766.3	712.95	0.74
300.1	5154.6	713.45	0.74
300.1	5580.5	713.98	0.74
300.1	5973.4	714.47	0.74
300.1	6437.4	715.04	0.74
300.1	6813.9	715.51	0.75
300.1	7245.7	716.02	0.75
300.1	7676.2	716.54	0.75
300.1	8095.3	717.04	0.75
300.1	8527.1	717.54	0.75
300.1	9025.9	718.13	0.75
300.1	9429	718.61	0.75
300.1	9785.5	719.09	0.76
300.1	10213.8	719.6	0.76
325.13	1187	678.16	0.7
325.13	1443.2	678.62	0.7
325.13	1727.8	679.11	0.7
325.13	2143.6	679.8	0.7
325.13	2479.7	680.35	0.7
325.13	2891.4	681.1	0.71
325.13	3154.4	681.59	0.71
325.13	3531.8	682.22	0.71
325.13	3834.4	682.74	0.71
325.13	4104.1	683.18	0.71
325.13	4552.9	683.87	0.71
325.13	4913.7	684.44	0.71
325.13	5291.6	685.03	0.72
325.13	5673	685.61	0.72
325.13	6031.1	686.15	0.72
325.13	6401.7	686.72	0.72
325.13	6789.2	687.28	0.72
325.13	7173.6	687.86	0.72
325.13	7569	688.43	0.73
325.13	7965.2	689.02	0.73
325.13	8355	689.57	0.73
325.13	8763.7	690.16	0.73
325.13	9170.7	690.73	0.73
325.13	9574.8	691.28	0.73
325.13	9969.4	691.84	0.74
350.13	2436.8	653.52	0.68
350.13	2604.8	653.96	0.68
350.13	2930.1	654.68	0.68
350.13	3202.5	655.27	0.68
350.13	3734.4	656.44	0.69
350.13	3872.4	656.79	0.69
350.13	4136.9	657.4	0.69
350.13	4488.9	658.17	0.69
350.13	4810.5	658.86	0.69
350.13	5126	659.5	0.69
350.13	5445.2	660.17	0.7
350.13	5766.2	660.85	0.7
350.13	6092.8	661.51	0.7
350.13	6419	662.19	0.7
350.13	6762	662.87	0.7
350.13	7090.7	663.5	0.71
350.13	7423.4	664.19	0.71
350.13	7773.1	664.87	0.71
350.13	8125.8	665.54	0.71
350.13	8476	666.19	0.71
350.13	8829.5	666.84	0.71
350.13	9190.5	667.56	0.72
350.13	9544.7	668.2	0.72
350.13	9902.4	668.83	0.72

System: propan-2-ol + propene + water; phases: Liquid
Fixed: Mole fraction of propene = 0.3906
Fixed: Mole fraction of propan-2-ol = 0.4236
Property: Mass density, kg/m3 (Liquid); method: Vibrating tube method
Temperature, K	Pressure, kPa	Mass density, kg/m3	uncertainty
300.1	1018.7	680.98	0.7
300.1	1199.8	681.27	0.7
300.1	1620.9	681.88	0.7
300.1	1977.3	682.39	0.7
300.1	2327.9	682.91	0.71
300.1	2703.9	683.48	0.71
300.1	3029.6	683.95	0.71
300.1	3363.3	684.43	0.71
300.1	3758.1	685	0.71
300.1	4032.3	685.37	0.71
300.1	4487.2	686.01	0.71
300.1	4841.4	686.51	0.72
300.1	5211.2	687.02	0.72
300.1	5591.9	687.54	0.72
300.1	5957.5	688.05	0.72
300.1	6330.7	688.56	0.72
300.1	6708.4	689.06	0.72
300.1	7081.1	689.56	0.73
300.1	7464.9	690.07	0.73
300.1	7865.5	690.59	0.73
300.1	8251.9	691.1	0.73
300.1	8631.3	691.6	0.73
300.1	9014	692.09	0.73
300.1	9422.9	692.6	0.74
300.1	9832.4	693.12	0.74
325.11	1951.8	650.66	0.68
325.11	2356.1	651.45	0.68
325.11	2596	651.95	0.68
325.11	2934.1	652.61	0.68
325.11	3207.7	653.19	0.68
325.11	3493.8	653.75	0.68
325.11	3878.7	654.46	0.69
325.11	4223.4	655.08	0.69
325.11	4567.9	655.73	0.69
325.11	4892.6	656.32	0.69
325.11	5223.5	656.91	0.69
325.11	5558.6	657.52	0.7
325.11	5927.3	658.17	0.7
325.11	6278	658.79	0.7
325.11	6659.6	659.45	0.7
325.11	7005.1	660.05	0.7
325.11	7364.5	660.65	0.7
325.11	7730.7	661.26	0.71
325.11	8119.2	661.9	0.71
325.11	8474.3	662.48	0.71
325.11	8857.2	663.1	0.71
325.11	9233.6	663.72	0.71
325.11	9619.2	664.33	0.72
325.11	9971.4	664.93	0.72
350.11	2620.5	618.74	0.65
350.11	3007.2	619.87	0.66
350.11	3183	620.39	0.66
350.11	3528.1	621.38	0.66
350.11	3731.2	621.97	0.66
350.11	4088.4	622.82	0.66
350.11	4364.5	623.63	0.66
350.11	4653.6	624.39	0.67
350.11	4951.2	625.19	0.67
350.11	5258.2	625.98	0.67
350.11	5596.8	626.78	0.67
350.11	5945.8	627.64	0.67
350.11	6238.2	628.34	0.68
350.11	6568	629.17	0.68
350.11	6882.8	629.92	0.68
350.11	7201.8	630.66	0.68
350.11	7561.1	631.49	0.68
350.11	7908.7	632.29	0.69
350.11	8235.7	633.07	0.69
350.11	8584.7	633.86	0.69
350.11	8912.6	634.62	0.69
350.11	9291.1	635.35	0.7
350.11	9665.9	636.22	0.7
350.11	9987.4	636.95	0.7

System: propan-2-ol + propene + water; phases: Liquid
Fixed: Mole fraction of propene = 0.6123
Fixed: Mole fraction of propan-2-ol = 0.3039
Property: Mass density, kg/m3 (Liquid); method: Vibrating tube method
Temperature, K	Pressure, kPa	Mass density, kg/m3	uncertainty
300.1	1085.4	614.94	0.64
300.1	1531.4	615.81	0.65
300.1	1870.7	616.53	0.65
300.1	2372.6	617.48	0.65
300.1	2527.2	617.84	0.65
300.1	2922.1	618.61	0.65
300.1	3226.2	619.19	0.66
300.1	3579.4	619.86	0.66
300.1	4068.2	620.74	0.66
300.1	4281.7	621.17	0.66
300.1	4729	622	0.66
300.1	5109.5	622.68	0.67
300.1	5494.5	623.39	0.67
300.1	5875.1	624.07	0.67
300.1	6252.1	624.73	0.67
300.1	6636.5	625.4	0.68
300.1	7032.9	626.07	0.68
300.1	7453.4	626.76	0.68
300.1	7866.2	627.47	0.68
300.1	8255.7	628.11	0.69
300.1	8661.9	628.75	0.69
300.1	9079.6	629.46	0.69
300.1	9474.2	630.08	0.69
300.1	9896.7	630.79	0.7
325.12	1894.1	580.11	0.62
325.12	2207.3	580.96	0.62
325.12	2528.1	581.84	0.62
325.12	2847.4	582.67	0.63
325.12	3200.8	583.61	0.63
325.12	3499.1	584.39	0.63
325.12	3778	585.12	0.63
325.12	3817.5	586.14	0.64
325.12	4214.2	587.19	0.64
325.12	4522.1	587.93	0.64
325.12	4866.3	588.81	0.64
325.12	5210.2	589.63	0.64
325.12	5562.9	590.47	0.65
325.12	5930.3	591.32	0.65
325.12	6321.2	592.2	0.65
325.12	6686.3	593.02	0.65
325.12	7057.5	593.82	0.66
325.12	7468.8	594.69	0.66
325.12	7876.2	595.54	0.66
325.12	8253.6	596.34	0.67
325.12	8653.2	597.15	0.67
325.12	9078.4	597.99	0.67
325.12	9500.1	598.83	0.68
325.12	9915.5	599.65	0.68
350.1	2850.1	540.02	0.59
350.1	3016.8	540.87	0.6
350.1	3231.5	541.94	0.6
350.1	3505.7	543.11	0.6
350.1	3782.7	544.27	0.6
350.1	3996.5	545.27	0.61
350.1	4328.1	546.57	0.61
350.1	4621.1	547.8	0.61
350.1	4866.7	548.79	0.61
350.1	5169.3	550.07	0.62
350.1	5457.3	551.09	0.62
350.1	5759.2	552.24	0.62
350.1	6094.3	553.32	0.63
350.1	6419.1	554.43	0.63
350.1	6732.1	555.54	0.63
350.1	7048	556.69	0.63
350.1	7372.9	557.82	0.64
350.1	7703	558.93	0.64
350.1	8059.8	559.96	0.64
350.1	8438.5	561.12	0.65
350.1	8820.8	562.37	0.65
350.1	9187.7	563.44	0.65
350.1	9575.5	564.54	0.66
350.1	9939.1	565.57	0.66
