Measured thermophysical data. Octanol/Water Partition Coefficients of Sulfonamides: Experimental  Determination and Calculation Using Physicochemical Descriptors
Source: J. Chem. Eng. Data, 2009, 10.1021/je900189v
Compound 1: N-(2-chlorophenyl)benzenesulfonamide, C12H10ClNO2S, InChI=1S/C12H10ClNO2S/c13-11-8-4-5-9-12(11)14-17(15,16)10-6-2-1-3-7-10/h1-9,14H
Compound 2: N-(2,3-dichlorophenyl)benzenesulfonamide, C12H9Cl2NO2S, InChI=1S/C12H9Cl2NO2S/c13-10-7-4-8-11(12(10)14)15-18(16,17)9-5-2-1-3-6-9/h1-8,15H
Compound 3: N-(4-chlorophenyl)benzenesulfonamide, C12H10ClNO2S, InChI=1S/C12H10ClNO2S/c13-10-6-8-11(9-7-10)14-17(15,16)12-4-2-1-3-5-12/h1-9,14H
Compound 4: N-(4-nitrophenyl)benzenesulfonamide, C12H10N2O4S, InChI=1S/C12H10N2O4S/c15-14(16)11-8-6-10(7-9-11)13-19(17,18)12-4-2-1-3-5-12/h1-9,13H
Compound 5: N-(2,4-dibromophenyl)benzenesulfonamide, C12H9Br2NO2S, InChI=1S/C12H9Br2NO2S/c13-9-6-7-12(11(14)8-9)15-18(16,17)10-4-2-1-3-5-10/h1-8,15H
Compound 6: N-(2-nitrophenyl)benzenesulfonamide, C12H10N2O4S, InChI=1S/C12H10N2O4S/c15-14(16)12-9-5-4-8-11(12)13-19(17,18)10-6-2-1-3-7-10/h1-9,13H
Compound 7: N-(3-chloro-2-pyridinyl)benzenesulfonamide, C11H9ClN2O2S, InChI=1S/C11H9ClN2O2S/c12-10-7-4-8-13-11(10)14-17(15,16)9-5-2-1-3-6-9/h1-8H,(H,13,14)
Compound 8: N-(2-chloro-3-pyridinyl)benzenesulfonamide, C11H9ClN2O2S, InChI=1S/C11H9ClN2O2S/c12-11-10(7-4-8-13-11)14-17(15,16)9-5-2-1-3-6-9/h1-8,14H
Compound 9: ethyl 6-(phenylsulfonamido)nicotinate, C14H14N2O4S, InChI=1S/C14H14N2O4S/c1-2-20-14(17)11-8-9-13(15-10-11)16-21(18,19)12-6-4-3-5-7-12/h3-10H,2H2,1H3,(H,15,16)
Compound 10: N-(4-ethoxyphenyl)-4-nitrobenzenesulfonamide, C14H14N2O5S, InChI=1S/C14H14N2O5S/c1-2-21-13-7-3-11(4-8-13)15-22(19,20)14-9-5-12(6-10-14)16(17)18/h3-10,15H,2H2,1H3
Compound 11: 4-nitro-N-2-thiazolylbenzenesulfonamide, C9H7N3O4S2, InChI=1S/C9H7N3O4S2/c13-12(14)7-1-3-8(4-2-7)18(15,16)11-9-10-5-6-17-9/h1-6H,(H,10,11)
Compound 12: N-[3-[[(4-nitrophenyl)sulfonyl]amino]-4-pyridinyl]-acetamide, C13H12N4O5S, InChI=1S/C13H12N4O5S/c1-9(18)15-12-6-7-14-8-13(12)16-23(21,22)11-4-2-10(3-5-11)17(19)20/h2-8,16H,1H3,(H,14,15,18)
Compound 13: N-(5-methylpyridin-2-yl)-4-nitrobenzenesulfonamide, C12H11N3O4S, InChI=1S/C12H11N3O4S/c1-9-2-7-12(13-8-9)14-20(18,19)11-5-3-10(4-6-11)15(16)17/h2-8H,1H3,(H,13,14)
Compound 14: 4-amino-N-(4-nitrophenyl)benzenesulfonamide, C12H11N3O4S, InChI=1S/C12H11N3O4S/c13-9-1-7-12(8-2-9)20(18,19)14-10-3-5-11(6-4-10)15(16)17/h1-8,14H,13H2
Compound 15: 4-amino-N-(4-ethylphenyl)benzenesulfonamide, C14H16N2O2S, InChI=1S/C14H16N2O2S/c1-2-11-3-7-13(8-4-11)16-19(17,18)14-9-5-12(15)6-10-14/h3-10,16H,2,15H2,1H3
Compound 16: 4-amino-N-(4-iodophenyl)benzenesulfonamide, C12H11IN2O2S, InChI=1S/C12H11IN2O2S/c13-9-1-5-11(6-2-9)15-18(16,17)12-7-3-10(14)4-8-12/h1-8,15H,14H2
Compound 17: 4-amino-N-(4-methoxyphenyl)benzenesulfonamide, C13H14N2O3S, InChI=1S/C13H14N2O3S/c1-18-12-6-4-11(5-7-12)15-19(16,17)13-8-2-10(14)3-9-13/h2-9,15H,14H2,1H3
Compound 18: 4-amino-N-(4-cyanophenyl)benzenesulfonamide, C13H11N3O2S, InChI=1S/C13H11N3O2S/c14-9-10-1-5-12(6-2-10)16-19(17,18)13-7-3-11(15)4-8-13/h1-8,16H,15H2
Compound 19: 4-amino-N-(4-chlorophenyl)benzenesulfonamide, C12H11ClN2O2S, InChI=1S/C12H11ClN2O2S/c13-9-1-5-11(6-2-9)15-18(16,17)12-7-3-10(14)4-8-12/h1-8,15H,14H2
Compound 20: 4-amino-N-(2,3-dichlorophenyl)benzenesulfonamide, C12H10Cl2N2O2S, InChI=1S/C12H10Cl2N2O2S/c13-10-2-1-3-11(12(10)14)16-19(17,18)9-6-4-8(15)5-7-9/h1-7,16H,15H2
Compound 21: 4-amino-N-(3,4-dichlorophenyl)benzenesulfonamide, C12H10Cl2N2O2S, InChI=1S/C12H10Cl2N2O2S/c13-11-6-3-9(7-12(11)14)16-19(17,18)10-4-1-8(15)2-5-10/h1-7,16H,15H2
Compound 22: 4-amino-N-(2,5-dichlorophenyl)benzenesulfonamide, C12H10Cl2N2O2S, InChI=1S/C12H10Cl2N2O2S/c13-8-1-6-11(14)12(7-8)16-19(17,18)10-4-2-9(15)3-5-10/h1-7,16H,15H2
Compound 23: 4-amino-N-(2,4,5-trichlorophenyl)benzenesulfonamide, C12H9Cl3N2O2S, InChI=1S/C12H9Cl3N2O2S/c13-9-5-11(15)12(6-10(9)14)17-20(18,19)8-3-1-7(16)2-4-8/h1-6,17H,16H2
Compound 24: 4-amino-N-(5-chloro-2-methylphenyl)benzenesulfonamide, C13H13ClN2O2S, InChI=1S/C13H13ClN2O2S/c1-9-2-3-10(14)8-13(9)16-19(17,18)12-6-4-11(15)5-7-12/h2-8,16H,15H2,1H3
Compound 25: 4-amino-N-(2-chloro-4-methylphenyl)benzenesulfonamide, C13H13ClN2O2S, InChI=1S/C13H13ClN2O2S/c1-9-2-7-13(12(14)8-9)16-19(17,18)11-5-3-10(15)4-6-11/h2-8,16H,15H2,1H3
Compound 26: 4-amino-N-(4-chloro-2-methylphenyl)benzenesulfonamide, C13H13ClN2O2S, InChI=1S/C13H13ClN2O2S/c1-9-8-10(14)2-7-13(9)16-19(17,18)12-5-3-11(15)4-6-12/h2-8,16H,15H2,1H3
Compound 27: 4-amino-N-(3-chloro-4-methylphenyl)benzenesulfonamide, C13H13ClN2O2S, InChI=1S/C13H13ClN2O2S/c1-9-2-5-11(8-13(9)14)16-19(17,18)12-6-3-10(15)4-7-12/h2-8,16H,15H2,1H3
Compound 28: 4-amino-N-(3-chloro-2-methoxyphenyl)benzenesulfonamide, C13H13ClN2O3S, InChI=1S/C13H13ClN2O3S/c1-19-13-11(14)3-2-4-12(13)16-20(17,18)10-7-5-9(15)6-8-10/h2-8,16H,15H2,1H3
Compound 29: 4-amino-N-(2-bromo-4-nitrophenyl)benzenesulfonamide, C12H10BrN3O4S, InChI=1S/C12H10BrN3O4S/c13-11-7-9(16(17)18)3-6-12(11)15-21(19,20)10-4-1-8(14)2-5-10/h1-7,15H,14H2
Compound 30: ethyl ((4-aminophenyl)sulfonyl)glycinate, C10H14N2O4S, InChI=1S/C10H14N2O4S/c1-2-16-10(13)7-12-17(14,15)9-5-3-8(11)4-6-9/h3-6,12H,2,7,11H2,1H3
Compound 31: 4-amino-N,N-diethylbenzenesulfonamide, C10H16N2O2S, InChI=1S/C10H16N2O2S/c1-3-12(4-2)15(13,14)10-7-5-9(11)6-8-10/h5-8H,3-4,11H2,1-2H3
Compound 32: 4-amino-N,N-dimethylbenzenesulfonamide, C8H12N2O2S, InChI=1S/C8H12N2O2S/c1-10(2)13(11,12)8-5-3-7(9)4-6-8/h3-6H,9H2,1-2H3
Compound 33: 4-amino-N-methylbenzenesulfonamide, C7H10N2O2S, InChI=1S/C7H10N2O2S/c1-9-12(10,11)7-4-2-6(8)3-5-7/h2-5,9H,8H2,1H3
Compound 34: 4-amino-N-(4-chlorophenyl)-2-methylbenzenesulfonamide, C13H13ClN2O2S, InChI=1S/C13H13ClN2O2S/c1-9-8-11(15)4-7-13(9)19(17,18)16-12-5-2-10(14)3-6-12/h2-8,16H,15H2,1H3
Compound 35: 4-amino-2-chloro-N-(2-chlorophenyl)benzenesulfonamide, C12H10Cl2N2O2S, InChI=1S/C12H10Cl2N2O2S/c13-9-3-1-2-4-11(9)16-19(17,18)12-6-5-8(15)7-10(12)14/h1-7,16H,15H2
Compound 36: 4-amino-N-(2-chlorophenyl)-2-methylbenzenesulfonamide, C13H13ClN2O2S, InChI=1S/C13H13ClN2O2S/c1-9-8-10(15)6-7-13(9)19(17,18)16-12-5-3-2-4-11(12)14/h2-8,16H,15H2,1H3
Compound 37: 4-amino-2-chloro-N-(4-chlorophenyl)benzenesulfonamide, C12H10Cl2N2O2S, InChI=1S/C12H10Cl2N2O2S/c13-8-1-4-10(5-2-8)16-19(17,18)12-6-3-9(15)7-11(12)14/h1-7,16H,15H2
Compound 38: 4-amino-2-methyl-N-(2-nitrophenyl)benzenesulfonamide, C13H13N3O4S, InChI=1S/C13H13N3O4S/c1-9-8-10(14)6-7-13(9)21(19,20)15-11-4-2-3-5-12(11)16(17)18/h2-8,15H,14H2,1H3
Compound 39: water, H2O, InChI=1S/H2O/h1H2
Compound 40: octan-1-ol, C8H18O, InChI=1S/C8H18O/c1-2-3-4-5-6-7-8-9/h9H,2-8H2,1H3

System: octan-1-ol + water + N-(2-chlorophenyl)benzenesulfonamide; phases: Liquid mixture 1, Liquid
Property: Amount concentration (molarity), mol/dm3 of N-(2-chlorophenyl)benzenesulfonamide (Liquid mixture 1); method: SPECTR
Temperature, K	Pressure, kPa	Mole fraction of N-(2-chlorophenyl)benzenesulfonamide	Amount concentration (molarity), mol/dm3 of N-(2-chlorophenyl)benzenesulfonamide	uncertainty
295.15	101	0	524.8	243.9

System: octan-1-ol + water + N-(2,3-dichlorophenyl)benzenesulfonamide; phases: Liquid mixture 1, Liquid
Property: Amount concentration (molarity), mol/dm3 of N-(2,3-dichlorophenyl)benzenesulfonamide (Liquid mixture 1); method: SPECTR
Temperature, K	Pressure, kPa	Mole fraction of N-(2,3-dichlorophenyl)benzenesulfonamide	Amount concentration (molarity), mol/dm3 of N-(2,3-dichlorophenyl)benzenesulfonamide	uncertainty
295.15	101	0	2818	1310

System: octan-1-ol + N-(4-chlorophenyl)benzenesulfonamide + water; phases: Liquid mixture 1, Liquid
Property: Amount concentration (molarity), mol/dm3 of water (Liquid mixture 1); method: SPECTR
Temperature, K	Pressure, kPa	Mole fraction of N-(4-chlorophenyl)benzenesulfonamide	Amount concentration (molarity), mol/dm3 of water	uncertainty
295.15	101	0	2754	1280

System: octan-1-ol + N-(4-nitrophenyl)benzenesulfonamide + water; phases: Liquid mixture 1, Liquid
Property: Amount concentration (molarity), mol/dm3 of water (Liquid mixture 1); method: SPECTR
Temperature, K	Pressure, kPa	Mole fraction of N-(4-nitrophenyl)benzenesulfonamide	Amount concentration (molarity), mol/dm3 of water	uncertainty
295.15	101	0	123	57.2

System: octan-1-ol + water + N-(2,4-dibromophenyl)benzenesulfonamide; phases: Liquid mixture 1, Liquid
Property: Amount concentration (molarity), mol/dm3 of water (Liquid mixture 1); method: SPECTR
Temperature, K	Pressure, kPa	Mole fraction of N-(2,4-dibromophenyl)benzenesulfonamide	Amount concentration (molarity), mol/dm3 of water	uncertainty
295.15	101	0	5623	2613

System: octan-1-ol + N-(2-nitrophenyl)benzenesulfonamide + water; phases: Liquid mixture 1, Liquid
Property: Amount concentration (molarity), mol/dm3 of water (Liquid mixture 1); method: SPECTR
Temperature, K	Pressure, kPa	Mole fraction of N-(2-nitrophenyl)benzenesulfonamide	Amount concentration (molarity), mol/dm3 of water	uncertainty
295.15	101	0	120.2	55.9

System: octan-1-ol + water + N-(3-chloro-2-pyridinyl)benzenesulfonamide; phases: Liquid mixture 1, Liquid
Property: Amount concentration (molarity), mol/dm3 of water (Liquid mixture 1); method: SPECTR
Temperature, K	Pressure, kPa	Mole fraction of N-(3-chloro-2-pyridinyl)benzenesulfonamide	Amount concentration (molarity), mol/dm3 of water	uncertainty
295.15	101	0	34.67	16.12

System: octan-1-ol + water + N-(2-chloro-3-pyridinyl)benzenesulfonamide; phases: Liquid mixture 1, Liquid
Property: Amount concentration (molarity), mol/dm3 of water (Liquid mixture 1); method: SPECTR
Temperature, K	Pressure, kPa	Mole fraction of N-(2-chloro-3-pyridinyl)benzenesulfonamide	Amount concentration (molarity), mol/dm3 of water	uncertainty
295.15	101	0	77.62	36.08

System: octan-1-ol + water + ethyl 6-(phenylsulfonamido)nicotinate; phases: Liquid mixture 1, Liquid
Property: Amount concentration (molarity), mol/dm3 of water (Liquid mixture 1); method: SPECTR
Temperature, K	Pressure, kPa	Mole fraction of ethyl 6-(phenylsulfonamido)nicotinate	Amount concentration (molarity), mol/dm3 of water	uncertainty
295.15	101	0	100	46.5

System: octan-1-ol + water + N-(4-ethoxyphenyl)-4-nitrobenzenesulfonamide; phases: Liquid mixture 1, Liquid
Property: Amount concentration (molarity), mol/dm3 of water (Liquid mixture 1); method: SPECTR
Temperature, K	Pressure, kPa	Mole fraction of N-(4-ethoxyphenyl)-4-nitrobenzenesulfonamide	Amount concentration (molarity), mol/dm3 of water	uncertainty
295.15	101	0	169.8	78.9

System: octan-1-ol + 4-nitro-N-2-thiazolylbenzenesulfonamide + water; phases: Liquid mixture 1, Liquid
Property: Amount concentration (molarity), mol/dm3 of water (Liquid mixture 1); method: SPECTR
Temperature, K	Pressure, kPa	Mole fraction of 4-nitro-N-2-thiazolylbenzenesulfonamide	Amount concentration (molarity), mol/dm3 of water	uncertainty
295.15	101	0	15.49	7.2

System: octan-1-ol + water + N-[3-[[(4-nitrophenyl)sulfonyl]amino]-4-pyridinyl]-acetamide; phases: Liquid mixture 1, Liquid
Property: Amount concentration (molarity), mol/dm3 of water (Liquid mixture 1); method: SPECTR
Temperature, K	Pressure, kPa	Mole fraction of N-[3-[[(4-nitrophenyl)sulfonyl]amino]-4-pyridinyl]-acetamide	Amount concentration (molarity), mol/dm3 of water	uncertainty
295.15	101	0	5.129	2.383

System: octan-1-ol + water + N-(5-methylpyridin-2-yl)-4-nitrobenzenesulfonamide; phases: Liquid mixture 1, Liquid
Property: Amount concentration (molarity), mol/dm3 of water (Liquid mixture 1); method: SPECTR
Temperature, K	Pressure, kPa	Mole fraction of N-(5-methylpyridin-2-yl)-4-nitrobenzenesulfonamide	Amount concentration (molarity), mol/dm3 of water	uncertainty
295.15	101	0	10.23	4.76

System: octan-1-ol + 4-amino-N-(4-nitrophenyl)benzenesulfonamide + water; phases: Liquid mixture 1, Liquid
Property: Amount concentration (molarity), mol/dm3 of water (Liquid mixture 1); method: SPECTR
Temperature, K	Pressure, kPa	Mole fraction of 4-amino-N-(4-nitrophenyl)benzenesulfonamide	Amount concentration (molarity), mol/dm3 of water	uncertainty
295.15	101	0	75.86	35.26

System: octan-1-ol + water + 4-amino-N-(4-ethylphenyl)benzenesulfonamide; phases: Liquid mixture 1, Liquid
Property: Amount concentration (molarity), mol/dm3 of water (Liquid mixture 1); method: SPECTR
Temperature, K	Pressure, kPa	Mole fraction of 4-amino-N-(4-ethylphenyl)benzenesulfonamide	Amount concentration (molarity), mol/dm3 of water	uncertainty
295.15	101	0	416.9	193.8

System: octan-1-ol + 4-amino-N-(4-iodophenyl)benzenesulfonamide + water; phases: Liquid mixture 1, Liquid
Property: Amount concentration (molarity), mol/dm3 of water (Liquid mixture 1); method: SPECTR
Temperature, K	Pressure, kPa	Mole fraction of 4-amino-N-(4-iodophenyl)benzenesulfonamide	Amount concentration (molarity), mol/dm3 of water	uncertainty
295.15	101	0	660.7	307.1

System: octan-1-ol + water + 4-amino-N-(4-methoxyphenyl)benzenesulfonamide; phases: Liquid mixture 1, Liquid
Property: Amount concentration (molarity), mol/dm3 of water (Liquid mixture 1); method: SPECTR
Temperature, K	Pressure, kPa	Mole fraction of 4-amino-N-(4-methoxyphenyl)benzenesulfonamide	Amount concentration (molarity), mol/dm3 of water	uncertainty
295.15	101	0	38.02	17.67

System: octan-1-ol + water + 4-amino-N-(4-cyanophenyl)benzenesulfonamide; phases: Liquid mixture 1, Liquid
Property: Amount concentration (molarity), mol/dm3 of water (Liquid mixture 1); method: SPECTR
Temperature, K	Pressure, kPa	Mole fraction of 4-amino-N-(4-cyanophenyl)benzenesulfonamide	Amount concentration (molarity), mol/dm3 of water	uncertainty
295.15	101	0	37.15	17.27

System: octan-1-ol + water + 4-amino-N-(4-chlorophenyl)benzenesulfonamide; phases: Liquid mixture 1, Liquid
Property: Amount concentration (molarity), mol/dm3 of water (Liquid mixture 1); method: SPECTR
Temperature, K	Pressure, kPa	Mole fraction of 4-amino-N-(4-chlorophenyl)benzenesulfonamide	Amount concentration (molarity), mol/dm3 of water	uncertainty
295.15	101	0	295.1	137.2

System: octan-1-ol + water + 4-amino-N-(2,3-dichlorophenyl)benzenesulfonamide; phases: Liquid mixture 1, Liquid
Property: Amount concentration (molarity), mol/dm3 of water (Liquid mixture 1); method: SPECTR
Temperature, K	Pressure, kPa	Mole fraction of 4-amino-N-(2,3-dichlorophenyl)benzenesulfonamide	Amount concentration (molarity), mol/dm3 of water	uncertainty
295.15	101	0	416.9	193.8

System: octan-1-ol + water + 4-amino-N-(3,4-dichlorophenyl)benzenesulfonamide; phases: Liquid mixture 1, Liquid
Property: Amount concentration (molarity), mol/dm3 of water (Liquid mixture 1); method: SPECTR
Temperature, K	Pressure, kPa	Mole fraction of 4-amino-N-(3,4-dichlorophenyl)benzenesulfonamide	Amount concentration (molarity), mol/dm3 of water	uncertainty
295.15	101	0	436.5	202.9

System: octan-1-ol + water + 4-amino-N-(2,5-dichlorophenyl)benzenesulfonamide; phases: Liquid mixture 1, Liquid
Property: Amount concentration (molarity), mol/dm3 of water (Liquid mixture 1); method: SPECTR
Temperature, K	Pressure, kPa	Mole fraction of 4-amino-N-(2,5-dichlorophenyl)benzenesulfonamide	Amount concentration (molarity), mol/dm3 of water	uncertainty
295.15	101	0	281.8	131

System: octan-1-ol + water + 4-amino-N-(2,4,5-trichlorophenyl)benzenesulfonamide; phases: Liquid mixture 1, Liquid
Property: Amount concentration (molarity), mol/dm3 of water (Liquid mixture 1); method: SPECTR
Temperature, K	Pressure, kPa	Mole fraction of 4-amino-N-(2,4,5-trichlorophenyl)benzenesulfonamide	Amount concentration (molarity), mol/dm3 of water	uncertainty
295.15	101	0	1479	688

System: octan-1-ol + water + 4-amino-N-(5-chloro-2-methylphenyl)benzenesulfonamide; phases: Liquid mixture 1, Liquid
Property: Amount concentration (molarity), mol/dm3 of water (Liquid mixture 1); method: SPECTR
Temperature, K	Pressure, kPa	Mole fraction of 4-amino-N-(5-chloro-2-methylphenyl)benzenesulfonamide	Amount concentration (molarity), mol/dm3 of water	uncertainty
295.15	101	0	537	249.7

System: octan-1-ol + water + 4-amino-N-(2-chloro-4-methylphenyl)benzenesulfonamide; phases: Liquid mixture 1, Liquid
Property: Amount concentration (molarity), mol/dm3 of water (Liquid mixture 1); method: SPECTR
Temperature, K	Pressure, kPa	Mole fraction of 4-amino-N-(2-chloro-4-methylphenyl)benzenesulfonamide	Amount concentration (molarity), mol/dm3 of water	uncertainty
295.15	101	0	234.4	109

System: octan-1-ol + water + 4-amino-N-(4-chloro-2-methylphenyl)benzenesulfonamide; phases: Liquid mixture 1, Liquid
Property: Amount concentration (molarity), mol/dm3 of water (Liquid mixture 1); method: SPECTR
Temperature, K	Pressure, kPa	Mole fraction of 4-amino-N-(4-chloro-2-methylphenyl)benzenesulfonamide	Amount concentration (molarity), mol/dm3 of water	uncertainty
295.15	101	0	446.7	207.7

System: octan-1-ol + water + 4-amino-N-(3-chloro-4-methylphenyl)benzenesulfonamide; phases: Liquid mixture 1, Liquid
Property: Amount concentration (molarity), mol/dm3 of water (Liquid mixture 1); method: SPECTR
Temperature, K	Pressure, kPa	Mole fraction of 4-amino-N-(3-chloro-4-methylphenyl)benzenesulfonamide	Amount concentration (molarity), mol/dm3 of water	uncertainty
295.15	101	0	831.8	386.6

System: octan-1-ol + water + 4-amino-N-(3-chloro-2-methoxyphenyl)benzenesulfonamide; phases: Liquid mixture 1, Liquid
Property: Amount concentration (molarity), mol/dm3 of water (Liquid mixture 1); method: SPECTR
Temperature, K	Pressure, kPa	Mole fraction of 4-amino-N-(3-chloro-2-methoxyphenyl)benzenesulfonamide	Amount concentration (molarity), mol/dm3 of water	uncertainty
295.15	101	0	269.2	125.1

System: octan-1-ol + water + 4-amino-N-(2-bromo-4-nitrophenyl)benzenesulfonamide; phases: Liquid mixture 1, Liquid
Property: Amount concentration (molarity), mol/dm3 of water (Liquid mixture 1); method: SPECTR
Temperature, K	Pressure, kPa	Mole fraction of 4-amino-N-(2-bromo-4-nitrophenyl)benzenesulfonamide	Amount concentration (molarity), mol/dm3 of water	uncertainty
295.15	101	0	74.13	34.46

System: octan-1-ol + water + ethyl ((4-aminophenyl)sulfonyl)glycinate; phases: Liquid mixture 1, Liquid
Property: Amount concentration (molarity), mol/dm3 of water (Liquid mixture 1); method: SPECTR
Temperature, K	Pressure, kPa	Mole fraction of ethyl ((4-aminophenyl)sulfonyl)glycinate	Amount concentration (molarity), mol/dm3 of water	uncertainty
295.15	101	0	1.995	0.927

System: octan-1-ol + 4-amino-N,N-diethylbenzenesulfonamide + water; phases: Liquid mixture 1, Liquid
Property: Amount concentration (molarity), mol/dm3 of water (Liquid mixture 1); method: SPECTR
Temperature, K	Pressure, kPa	Mole fraction of 4-amino-N,N-diethylbenzenesulfonamide	Amount concentration (molarity), mol/dm3 of water	uncertainty
295.15	101	0	33.11	15.39

System: octan-1-ol + 4-amino-N,N-dimethylbenzenesulfonamide + water; phases: Liquid mixture 1, Liquid
Property: Amount concentration (molarity), mol/dm3 of water (Liquid mixture 1); method: SPECTR
Temperature, K	Pressure, kPa	Mole fraction of 4-amino-N,N-dimethylbenzenesulfonamide	Amount concentration (molarity), mol/dm3 of water	uncertainty
295.15	101	0	5.248	2.439

System: octan-1-ol + 4-amino-N-methylbenzenesulfonamide + water; phases: Liquid mixture 1, Liquid
Property: Amount concentration (molarity), mol/dm3 of water (Liquid mixture 1); method: SPECTR
Temperature, K	Pressure, kPa	Mole fraction of 4-amino-N-methylbenzenesulfonamide	Amount concentration (molarity), mol/dm3 of water	uncertainty
295.15	101	0	1.175	0.546

System: octan-1-ol + water + 4-amino-N-(4-chlorophenyl)-2-methylbenzenesulfonamide; phases: Liquid mixture 1, Liquid
Property: Amount concentration (molarity), mol/dm3 of water (Liquid mixture 1); method: SPECTR
Temperature, K	Pressure, kPa	Mole fraction of 4-amino-N-(4-chlorophenyl)-2-methylbenzenesulfonamide	Amount concentration (molarity), mol/dm3 of water	uncertainty
295.15	101	0	537	249.7

System: octan-1-ol + water + 4-amino-2-chloro-N-(2-chlorophenyl)benzenesulfonamide; phases: Liquid mixture 1, Liquid
Property: Amount concentration (molarity), mol/dm3 of water (Liquid mixture 1); method: SPECTR
Temperature, K	Pressure, kPa	Mole fraction of 4-amino-2-chloro-N-(2-chlorophenyl)benzenesulfonamide	Amount concentration (molarity), mol/dm3 of water	uncertainty
295.15	101	0	955	443.8

System: octan-1-ol + water + 4-amino-N-(2-chlorophenyl)-2-methylbenzenesulfonamide; phases: Liquid mixture 1, Liquid
Property: Amount concentration (molarity), mol/dm3 of water (Liquid mixture 1); method: SPECTR
Temperature, K	Pressure, kPa	Mole fraction of 4-amino-N-(2-chlorophenyl)-2-methylbenzenesulfonamide	Amount concentration (molarity), mol/dm3 of water	uncertainty
295.15	101	0	457.1	212.5

System: octan-1-ol + water + 4-amino-2-chloro-N-(4-chlorophenyl)benzenesulfonamide; phases: Liquid mixture 1, Liquid
Property: Amount concentration (molarity), mol/dm3 of water (Liquid mixture 1); method: SPECTR
Temperature, K	Pressure, kPa	Mole fraction of 4-amino-2-chloro-N-(4-chlorophenyl)benzenesulfonamide	Amount concentration (molarity), mol/dm3 of water	uncertainty
295.15	101	0	302	140.4

System: octan-1-ol + water + 4-amino-2-methyl-N-(2-nitrophenyl)benzenesulfonamide; phases: Liquid mixture 1, Liquid
Property: Amount concentration (molarity), mol/dm3 of water (Liquid mixture 1); method: SPECTR
Temperature, K	Pressure, kPa	Mole fraction of 4-amino-2-methyl-N-(2-nitrophenyl)benzenesulfonamide	Amount concentration (molarity), mol/dm3 of water	uncertainty
295.15	101	0	154.9	72
