Measured thermophysical data. Thermal Stability, Vapor Pressures, and Diffusion Coefficients of Some Metal 2,2,6,6-Tetramethyl-3,5-heptandionate [M(tmhd)n] Compounds
Source: J. Chem. Eng. Data, 2010, 10.1021/je9006822
Compound 1: tris(2,2,6,6-tetramethyl-3,5-heptandionato)aluminium, C33H57AlO6, InChI=1S/3C11H19O2.Al/c3*1-10(2,3)8(12)7-9(13)11(4,5)6;/h3*7H,1-6H3;/q3*-1;+3, purity 99%
Compound 2: tris(2,2,6,6-tetramethyl-3,5-heptandionato)chromiumtris(2,2,6,6-tetramethyl-3,5-heptandionato)chromium, C33H57CrO6, InChI=1S/3C11H19O2.Cr/c3*1-10(2,3)8(12)7-9(13)11(4,5)6;/h3*7H,1-6H3;/q3*-1;+3, purity 99%
Compound 3: bis(2,2,6,6-tetramethyl-3,5-heptandionato)copper, C22H38CuO4, InChI=1S/2C11H19O2.Cu/c2*1-10(2,3)8(12)7-9(13)11(4,5)6;/h2*7H,1-6H3;/q2*-1;+2, purity 99%
Compound 4: iron tris-dipivaloylmethanate, C33H57FeO6, InChI=1S/3C11H19O2.Fe/c3*1-10(2,3)8(12)7-9(13)11(4,5)6;/h3*7H,1-6H3;/q3*-1;+3, purity 99%
Compound 5: tris(2,2,6,6-tetramethyl-3,5-heptandionato)manganese, C33H57MnO6, InChI=1S/3C11H19O2.Mn/c3*1-10(2,3)8(12)7-9(13)11(4,5)6;/h3*7H,1-6H3;/q3*-1;+3, purity 99%
Compound 6: bis(2,2,6,6-tetramethyl-3,5-heptandionato)nickel, C22H38NiO4, InChI=1S/2C11H19O2.Ni/c2*1-10(2,3)8(12)7-9(13)11(4,5)6;/h2*7H,1-6H3;/q2*-1;+2, purity 98%
Compound 7: nitrogen, N2, InChI=1S/N2/c1-2, purity 99.98%
Compound 8: helium, He, InChI=1S/He, purity 99.998%

System: tris(2,2,6,6-tetramethyl-3,5-heptandionato)aluminium; phases: Crystal, Gas
Property: Vapor or sublimation pressure, kPa (Crystal); method: KNUDSEN:flow
Temperature, K	Vapor or sublimation pressure, kPa	uncertainty
341.4	1.2e-05	4e-05
346.16	2.5e-05	4e-05
350.92	3.1e-05	4e-05
355.68	5.8e-05	4e-05
365.19	0.000143	4.1e-05
369.95	0.000356	4.8e-05
379.47	0.00095	8e-05
384.23	0.00152	0.00011
388.96	0.00216	0.00016
398.05	0.00483	0.0003
403.26	0.00694	0.00047
408.22	0.01188	0.0006
412.78	0.0146	0.0007

System: tris(2,2,6,6-tetramethyl-3,5-heptandionato)chromiumtris(2,2,6,6-tetramethyl-3,5-heptandionato)chromium; phases: Crystal, Gas
Property: Vapor or sublimation pressure, kPa (Crystal); method: Calculated from knudsen effusion weight loss
Temperature, K	Vapor or sublimation pressure, kPa	uncertainty
346.16	2.16e-05	4e-05
350.92	2.9e-05	4e-05
355.56	5.1e-05	4e-05
360.43	9.3e-05	4e-05
365.19	0.000154	4.2e-05
369.95	0.000385	4.7e-05
374.71	0.00067	6e-05
379.47	0.000827	7.5e-05
384.23	0.00165	0.00016
388.98	0.0018	0.0002
393.74	0.00394	0.00042
398.5	0.005083	0.000541

System: bis(2,2,6,6-tetramethyl-3,5-heptandionato)copper; phases: Crystal, Gas
Property: Vapor or sublimation pressure, kPa (Crystal); method: Calculated from knudsen effusion weight loss
Temperature, K	Vapor or sublimation pressure, kPa	uncertainty
365.19	0.000149	4.3e-05
369.95	0.000329	4.4e-05
374.71	0.000501	4.9e-05
379.47	0.000629	6.2e-05
384.23	0.001266	0.000135
388.98	0.002149	0.00023
393.74	0.0037	0.00039
398.5	0.00441	0.00048
403.64	0.00784	0.00094
408.2	0.01238	0.00154

System: iron tris-dipivaloylmethanate; phases: Crystal, Gas
Property: Vapor or sublimation pressure, kPa (Crystal); method: Calculated from knudsen effusion weight loss
Temperature, K	Vapor or sublimation pressure, kPa	uncertainty
341.45	8e-06	4e-05
351.05	1.6e-05	4e-05
355.68	3e-05	4e-05
360.45	8e-05	4e-05
367.72	0.000131	4.1e-05
369.05	0.00016	4e-05
372.42	0.000241	4.2e-05
376.95	0.000341	4.4e-05
379.55	0.00051	6e-05
381.83	0.00075	7e-05
384.23	0.00092	9e-05
386.53	0.00138	0.00014
389.05	0.00166	0.00017
389.05	0.00167	0.00017
391.23	0.00219	0.00023
395.93	0.0033	0.00035
398.55	0.00435	0.00053
405.34	0.00981	0.00128
408.05	0.01956	0.00288

System: tris(2,2,6,6-tetramethyl-3,5-heptandionato)manganese; phases: Crystal, Gas
Property: Vapor or sublimation pressure, kPa (Crystal); method: Calculated from knudsen effusion weight loss
Temperature, K	Vapor or sublimation pressure, kPa	uncertainty
350.92	1.6e-05	4e-05
355.68	2.6e-05	4e-05
360.44	4.8e-05	4e-05
365.2	7.9e-05	4e-05
367.72	0.000126	4.1e-05
369.95	0.000152	4.1e-05
372.42	0.000198	4.2e-05
377.13	0.00037	4e-05
379.48	0.00045	5e-05
381.23	0.00063	6e-05
386.23	0.001	8e-05
388.98	0.00115	0.00013
391.23	0.00192	0.00021
395.93	0.00295	0.00031
398.55	0.00362	0.0004
400.64	0.00486	0.00052
403.27	0.00502	0.00059
405.34	0.0081	0.00098
408.03	0.00929	0.00108
408.03	0.00963	0.00114

System: bis(2,2,6,6-tetramethyl-3,5-heptandionato)nickel; phases: Crystal, Gas
Property: Vapor or sublimation pressure, kPa (Crystal); method: Calculated from knudsen effusion weight loss
Temperature, K	Vapor or sublimation pressure, kPa	uncertainty
360.43	2.1e-05	4e-05
365.19	4.1e-05	4e-05
369.95	8.4e-05	4e-05
374.72	0.00012	4e-05
374.72	0.00014	4e-05
377.13	0.00015	4e-05
379.47	0.000189	4.2e-05
384.23	0.000358	4.4e-05
386.53	0.00041	4e-05
388.92	0.00048	6e-05
391.23	0.00089	7e-05
393.75	0.000718	8.4e-05
393.75	0.00077	9e-05
393.75	0.00079	9e-05
398.15	0.00185	0.00019
400.64	0.00188	0.00019
403.27	0.00266	0.00029
408.03	0.00415	0.00044

System: nitrogen + bis(2,2,6,6-tetramethyl-3,5-heptandionato)copper; phases: Gas
Fixed: Pressure, kPa = 101.3
Fixed: Mole fraction of bis(2,2,6,6-tetramethyl-3,5-heptandionato)copper = 0
Property: Binary diffusion coefficient, m2/s (Gas); method: TGA
Temperature, K	Binary diffusion coefficient, m2/s	uncertainty
382.65	5.24e-06	3000
401.41	6.09e-06	3000
420.4	6.29e-06	3000

System: helium + bis(2,2,6,6-tetramethyl-3,5-heptandionato)copper; phases: Gas
Fixed: Pressure, kPa = 101.3
Fixed: Mole fraction of bis(2,2,6,6-tetramethyl-3,5-heptandionato)copper = 0
Property: Binary diffusion coefficient, m2/s (Gas); method: TGA
Temperature, K	Binary diffusion coefficient, m2/s	uncertainty
370.24	1.666e-05	3000
389.95	1.817e-05	3000
409.64	1.855e-05	3000

System: nitrogen + tris(2,2,6,6-tetramethyl-3,5-heptandionato)manganese; phases: Gas
Fixed: Pressure, kPa = 101.3
Fixed: Mole fraction of tris(2,2,6,6-tetramethyl-3,5-heptandionato)manganese = 0
Property: Binary diffusion coefficient, m2/s (Gas); method: TGA
Temperature, K	Binary diffusion coefficient, m2/s	uncertainty
387.18	7.06e-06	3000
396.2	7.36e-06	3000
405.26	7.44e-06	3000
414.43	7.47e-06	3000

System: helium + tris(2,2,6,6-tetramethyl-3,5-heptandionato)manganese; phases: Gas
Fixed: Pressure, kPa = 101.3
Fixed: Mole fraction of tris(2,2,6,6-tetramethyl-3,5-heptandionato)manganese = 0
Property: Binary diffusion coefficient, m2/s (Gas); method: TGA
Temperature, K	Binary diffusion coefficient, m2/s	uncertainty
378.81	1.646e-05	3000
388.51	1.7e-05	3000
398.26	1.738e-05	3000
408.21	1.713e-05	3000

System: helium + tris(2,2,6,6-tetramethyl-3,5-heptandionato)chromiumtris(2,2,6,6-tetramethyl-3,5-heptandionato)chromium; phases: Gas
Fixed: Pressure, kPa = 101.3
Fixed: Mole fraction of tris(2,2,6,6-tetramethyl-3,5-heptandionato)chromiumtris(2,2,6,6-tetramethyl-3,5-heptandionato)chromium = 0
Property: Binary diffusion coefficient, m2/s (Gas); method: TGA
Temperature, K	Binary diffusion coefficient, m2/s	uncertainty
368.24	1.12e-05	3000
383.42	1.334e-05	3000
387.88	1.45e-05	3000
393.14	1.527e-05	3000

System: helium + bis(2,2,6,6-tetramethyl-3,5-heptandionato)nickel; phases: Gas
Fixed: Pressure, kPa = 101.3
Fixed: Mole fraction of bis(2,2,6,6-tetramethyl-3,5-heptandionato)nickel = 0
Property: Binary diffusion coefficient, m2/s (Gas); method: TGA
Temperature, K	Binary diffusion coefficient, m2/s	uncertainty
378.69	2.397e-05	3000
388.47	2.522e-05	3000
398.23	2.6e-05	3000
407.96	2.711e-05	3000

System: nitrogen + tris(2,2,6,6-tetramethyl-3,5-heptandionato)aluminium; phases: Gas
Fixed: Pressure, kPa = 101.3
Fixed: Mole fraction of tris(2,2,6,6-tetramethyl-3,5-heptandionato)aluminium = 0
Property: Binary diffusion coefficient, m2/s (Gas); method: TGA
Temperature, K	Binary diffusion coefficient, m2/s	uncertainty
360.69	6.13e-06	3000
378.6	7.79e-06	3000
396.8	8.4e-06	3000

System: helium + tris(2,2,6,6-tetramethyl-3,5-heptandionato)aluminium; phases: Gas
Fixed: Pressure, kPa = 101.3
Fixed: Mole fraction of tris(2,2,6,6-tetramethyl-3,5-heptandionato)aluminium = 0
Property: Binary diffusion coefficient, m2/s (Gas); method: TGA
Temperature, K	Binary diffusion coefficient, m2/s	uncertainty
368.32	1.457e-05	3000
387.67	1.491e-05	3000
407.08	1.656e-05	3000

System: nitrogen + iron tris-dipivaloylmethanate; phases: Gas
Fixed: Pressure, kPa = 101
Fixed: Mole fraction of iron tris-dipivaloylmethanate = 0
Property: Binary diffusion coefficient, m2/s (Gas); method: e
Temperature, K	Binary diffusion coefficient, m2/s	uncertainty
378.42	9.31e-11	0.03
387.39	9.67e-11	0.03
396.43	1.017e-10	0.03
405.5	1.076e-10	0.03
414.66	1.117e-10	0.03

System: helium + iron tris-dipivaloylmethanate; phases: Gas
Fixed: Pressure, kPa = 101
Fixed: Mole fraction of iron tris-dipivaloylmethanate = 0
Property: Binary diffusion coefficient, m2/s (Gas); method: e
Temperature, K	Binary diffusion coefficient, m2/s	uncertainty
378.87	1.948e-10	0.03
388.61	2.107e-10	0.03
398.35	2.207e-10	0.03
408.1	2.313e-10	0.03
