Measured thermophysical data. Solubilities of Cinnamic Acid Esters in Organic Solvents
Source: J. Chem. Eng. Data, 2010, 10.1021/je9004382
Compound 1: 2-methylpropan-2-ol, C4H10O, InChI=1S/C4H10O/c1-4(2,3)5/h5H,1-3H3
Compound 2: 2-methylbutan-2-ol, C5H12O, InChI=1S/C5H12O/c1-4-5(2,3)6/h6H,4H2,1-3H3
Compound 3: ethyl acetate, C4H8O2, InChI=1S/C4H8O2/c1-3-6-4(2)5/h3H2,1-2H3
Compound 4: hexane, C6H14, InChI=1S/C6H14/c1-3-5-6-4-2/h3-6H2,1-2H3
Compound 5: 2-propenoic acid, 3-(4-hydroxyphenyl)-, methyl ester, C10H10O3, InChI=1S/C10H10O3/c1-13-10(12)7-4-8-2-5-9(11)6-3-8/h2-7,11H,1H3
Compound 6: methyl 3-(4-hydroxy-3-methoxyphenyl)-2-propenoate, C11H12O4, InChI=1S/C11H12O4/c1-14-10-7-8(3-5-9(10)12)4-6-11(13)15-2/h3-7,12H,1-2H3
Compound 7: 3,5-dimethoxy-4-hydroxy cinnamic acid methyl ester, C12H14O5, InChI=1S/C12H14O5/c1-15-9-6-8(4-5-11(13)17-3)7-10(16-2)12(9)14/h4-7,14H,1-3H3/b5-4+

System: 2-propenoic acid, 3-(4-hydroxyphenyl)-, methyl ester; phases: Crystal, Liquid, Air at 1 atmosphere
Property: Molar enthalpy of transition or fusion, kJ/mol (Crystal); method: Adiabatic calorimetry
Molar enthalpy of transition or fusion, kJ/mol	uncertainty
30.216	1.767

System: 2-propenoic acid, 3-(4-hydroxyphenyl)-, methyl ester; phases: Crystal, Liquid, Air at 1 atmosphere
Property: Normal melting temperature, K (Crystal); method: DTA
Normal melting temperature, K	uncertainty
410.71	1.1

System: methyl 3-(4-hydroxy-3-methoxyphenyl)-2-propenoate; phases: Crystal, Liquid, Air at 1 atmosphere
Property: Molar enthalpy of transition or fusion, kJ/mol (Crystal); method: Adiabatic calorimetry
Molar enthalpy of transition or fusion, kJ/mol	uncertainty
25.836	1.849

System: methyl 3-(4-hydroxy-3-methoxyphenyl)-2-propenoate; phases: Crystal, Liquid, Air at 1 atmosphere
Property: Normal melting temperature, K (Crystal); method: DTA
Normal melting temperature, K	uncertainty
335.71	0.95

System: 3,5-dimethoxy-4-hydroxy cinnamic acid methyl ester; phases: Crystal, Liquid, Air at 1 atmosphere
Property: Molar enthalpy of transition or fusion, kJ/mol (Crystal); method: Adiabatic calorimetry
Molar enthalpy of transition or fusion, kJ/mol	uncertainty
29.858	2.759

System: 3,5-dimethoxy-4-hydroxy cinnamic acid methyl ester; phases: Crystal, Liquid, Air at 1 atmosphere
Property: Normal melting temperature, K (Crystal); method: DTA
Normal melting temperature, K	uncertainty
361.79	1.16

System: 2-methylpropan-2-ol + 2-propenoic acid, 3-(4-hydroxyphenyl)-, methyl ester; phases: Liquid, Crystal
Fixed: Pressure, kPa = 101
Property: Mole fraction of 2-propenoic acid, 3-(4-hydroxyphenyl)-, methyl ester (Liquid); method: Chromatography
Temperature, K	Mole fraction of 2-propenoic acid, 3-(4-hydroxyphenyl)-, methyl ester	uncertainty
303.15	0.0977	0.0035
307.15	0.1129	0.0044
312.15	0.1278	0.0068
317.15	0.1429	0.0081
321.15	0.1711	0.0108

System: 2-methylpropan-2-ol + methyl 3-(4-hydroxy-3-methoxyphenyl)-2-propenoate; phases: Liquid, Crystal
Fixed: Pressure, kPa = 101
Property: Mole fraction of methyl 3-(4-hydroxy-3-methoxyphenyl)-2-propenoate (Liquid); method: Chromatography
Temperature, K	Mole fraction of methyl 3-(4-hydroxy-3-methoxyphenyl)-2-propenoate	uncertainty
303.15	0.1821	0.0046
307.15	0.2086	0.0067
312.15	0.2474	0.0082
317.15	0.2946	0.0121
321.15	0.3248	0.017

System: 2-methylpropan-2-ol + 3,5-dimethoxy-4-hydroxy cinnamic acid methyl ester; phases: Liquid, Crystal
Fixed: Pressure, kPa = 101
Property: Mole fraction of 3,5-dimethoxy-4-hydroxy cinnamic acid methyl ester (Liquid); method: Chromatography
Temperature, K	Mole fraction of 3,5-dimethoxy-4-hydroxy cinnamic acid methyl ester	uncertainty
303.15	0.0184	0.0015
307.15	0.0234	0.0026
312.15	0.0523	0.0046
317.15	0.0743	0.0071
321.15	0.0973	0.0108

System: 2-methylbutan-2-ol + 2-propenoic acid, 3-(4-hydroxyphenyl)-, methyl ester; phases: Liquid, Crystal
Fixed: Pressure, kPa = 101
Property: Mole fraction of 2-propenoic acid, 3-(4-hydroxyphenyl)-, methyl ester (Liquid); method: Chromatography
Temperature, K	Mole fraction of 2-propenoic acid, 3-(4-hydroxyphenyl)-, methyl ester	uncertainty
303.15	0.1156	0.0013
307.15	0.126	0.0043
312.15	0.1543	0.0052
317.15	0.1744	0.0064
321.15	0.2005	0.0087

System: 2-methylbutan-2-ol + methyl 3-(4-hydroxy-3-methoxyphenyl)-2-propenoate; phases: Liquid, Crystal
Fixed: Pressure, kPa = 101
Property: Mole fraction of methyl 3-(4-hydroxy-3-methoxyphenyl)-2-propenoate (Liquid); method: Chromatography
Temperature, K	Mole fraction of methyl 3-(4-hydroxy-3-methoxyphenyl)-2-propenoate	uncertainty
303.15	0.2153	0.0034
307.15	0.2457	0.0055
312.15	0.287	0.007
317.15	0.312	0.0087
321.15	0.3421	0.0122

System: 2-methylbutan-2-ol + 3,5-dimethoxy-4-hydroxy cinnamic acid methyl ester; phases: Liquid, Crystal
Fixed: Pressure, kPa = 101
Property: Mole fraction of 3,5-dimethoxy-4-hydroxy cinnamic acid methyl ester (Liquid); method: Chromatography
Temperature, K	Mole fraction of 3,5-dimethoxy-4-hydroxy cinnamic acid methyl ester	uncertainty
303.15	0.0264	0.0013
307.15	0.0336	0.0035
312.15	0.0644	0.0076
317.15	0.0926	0.0087
321.15	0.1397	0.0103

System: ethyl acetate + 2-propenoic acid, 3-(4-hydroxyphenyl)-, methyl ester; phases: Liquid, Crystal
Fixed: Pressure, kPa = 101
Property: Mole fraction of 2-propenoic acid, 3-(4-hydroxyphenyl)-, methyl ester (Liquid); method: Chromatography
Temperature, K	Mole fraction of 2-propenoic acid, 3-(4-hydroxyphenyl)-, methyl ester	uncertainty
303.15	0.0856	0.0026
307.15	0.0915	0.0028
312.15	0.0997	0.0052
317.15	0.1082	0.0062
321.15	0.113	0.0083

System: ethyl acetate + methyl 3-(4-hydroxy-3-methoxyphenyl)-2-propenoate; phases: Liquid, Crystal
Fixed: Pressure, kPa = 101
Property: Mole fraction of methyl 3-(4-hydroxy-3-methoxyphenyl)-2-propenoate (Liquid); method: Chromatography
Temperature, K	Mole fraction of methyl 3-(4-hydroxy-3-methoxyphenyl)-2-propenoate	uncertainty
303.15	0.2172	0.0045
307.15	0.2468	0.0106
312.15	0.2792	0.0108
317.15	0.3049	0.0201
321.15	0.3339	0.0078

System: ethyl acetate + 3,5-dimethoxy-4-hydroxy cinnamic acid methyl ester; phases: Liquid, Crystal
Fixed: Pressure, kPa = 101
Property: Mole fraction of 3,5-dimethoxy-4-hydroxy cinnamic acid methyl ester (Liquid); method: Chromatography
Temperature, K	Mole fraction of 3,5-dimethoxy-4-hydroxy cinnamic acid methyl ester	uncertainty
303.15	0.1169	0.0049
307.15	0.1276	0.0046
312.15	0.1466	0.0056
317.15	0.1569	0.0064
321.15	0.1678	0.0084

System: hexane + 2-propenoic acid, 3-(4-hydroxyphenyl)-, methyl ester; phases: Liquid, Crystal
Fixed: Pressure, kPa = 101
Property: Mole fraction of 2-propenoic acid, 3-(4-hydroxyphenyl)-, methyl ester (Liquid); method: Chromatography
Temperature, K	Mole fraction of 2-propenoic acid, 3-(4-hydroxyphenyl)-, methyl ester	uncertainty
303.15	2.81e-05	1.6e-06
307.15	4.38e-05	2.7e-06
312.15	6.18e-05	3.8e-06
317.15	8.13e-05	7e-06
321.15	0.000124	1.1e-05

System: hexane + methyl 3-(4-hydroxy-3-methoxyphenyl)-2-propenoate; phases: Liquid, Crystal
Fixed: Pressure, kPa = 101
Property: Mole fraction of methyl 3-(4-hydroxy-3-methoxyphenyl)-2-propenoate (Liquid); method: Chromatography
Temperature, K	Mole fraction of methyl 3-(4-hydroxy-3-methoxyphenyl)-2-propenoate	uncertainty
303.15	0.00112	0.00013
307.15	0.00211	0.00014
312.15	0.00251	0.00032
317.15	0.00354	0.0003
321.15	0.00416	0.00052

System: hexane + 3,5-dimethoxy-4-hydroxy cinnamic acid methyl ester; phases: Liquid, Crystal
Fixed: Pressure, kPa = 101
Property: Mole fraction of 3,5-dimethoxy-4-hydroxy cinnamic acid methyl ester (Liquid); method: Chromatography
Temperature, K	Mole fraction of 3,5-dimethoxy-4-hydroxy cinnamic acid methyl ester	uncertainty
303.15	0.000292	1.2e-05
307.15	0.000383	2.3e-05
312.15	0.000495	2.9e-05
317.15	0.000743	6.4e-05
321.15	0.000804	0.000112
