Measured thermophysical data. Isothermal Vapor-Liquid Equilibria for 1,1-Difluoroethane (R152a) + Propane (R290) at Temperatures between (254.31 and 287.94) K
Source: J. Chem. Eng. Data, 2010, 10.1021/je900744x
Compound 1: 1,1-difluoroethane, C2H4F2, InChI=1S/C2H4F2/c1-2(3)4/h2H,1H3, purity 99.9%
Compound 2: propane, C3H8, InChI=1S/C3H8/c1-3-2/h3H2,1-2H3, purity 99.9%

System: 1,1-difluoroethane; phases: Liquid, Gas
Property: Vapor or sublimation pressure, kPa (Liquid); method: Closed cell (Static) method
Temperature, K	Vapor or sublimation pressure, kPa	uncertainty
254.31	127	10
259.27	156	10
269.26	231	10
279.47	331	10
287.94	437	10

System: propane; phases: Liquid, Gas
Property: Vapor or sublimation pressure, kPa (Liquid); method: Closed cell (Static) method
Temperature, K	Vapor or sublimation pressure, kPa	uncertainty
254.31	257	10
259.27	303	10
269.26	422	10
279.47	574	10
287.94	727	10

System: propane + 1,1-difluoroethane; phases: Liquid, Gas
Property: Azeotropic composition: mole fraction of 1,1-difluoroethane (Liquid); method: By X=Y
Temperature, K	Azeotropic composition: mole fraction of 1,1-difluoroethane	uncertainty
254.31	0.262	0.007
259.27	0.266	0.007
269.26	0.274	0.007
279.47	0.282	0.007
287.94	0.288	0.007

System: propane + 1,1-difluoroethane; phases: Liquid, Gas
Property: Azeotropic composition: mole fraction of 1,1-difluoroethane (Liquid); method: By X=Y
Pressure, kPa	Azeotropic composition: mole fraction of 1,1-difluoroethane	uncertainty
293	0.262	0.007
348	0.266	0.007
482	0.274	0.007
655	0.282	0.007
831	0.288	0.007

System: propane + 1,1-difluoroethane; phases: Liquid, Gas
Property: Vapor or sublimation pressure, kPa (Liquid); method: Closed cell (Static) method
Mole fraction of 1,1-difluoroethane	Temperature, K	Vapor or sublimation pressure, kPa	uncertainty
0	254.31	257	10
0	259.27	303	10
0	269.26	422	10
0	279.47	574	10
0	287.94	727	10
0.19	254.31	293	10
0.19	259.27	347	10
0.19	269.26	480	10
0.19	279.47	650	10
0.193	287.94	825	10
0.241	287.94	829	10
0.242	269.26	482	10
0.242	279.47	655	10
0.244	254.31	293	10
0.246	259.27	348	10
0.257	254.31	293	10
0.257	259.27	348	10
0.258	269.26	482	11
0.258	279.47	655	10
0.258	287.94	831	10
0.262	259.27	348	10
0.262	269.26	481	10
0.262	279.47	655	10
0.262	287.94	831	10
0.265	254.31	293	10
0.281	279.47	655	10
0.282	287.94	831	10
0.326	269.26	480	10
0.33	259.27	345	10
0.333	254.31	292	10
0.333	279.47	654	10
0.334	287.94	830	10
0.612	287.94	773	11
0.615	254.31	274	10
0.618	279.47	610	10
0.621	259.27	325	10
0.621	269.26	449	10
0.756	254.31	251	10
0.756	259.27	297	10
0.758	269.26	409	11
0.762	279.47	556	11
1	254.31	127	10
1	259.27	156	10
1	269.26	231	10
1	279.47	331	10
1	287.94	437	10

System: propane + 1,1-difluoroethane; phases: Gas, Liquid
Property: Mole fraction of 1,1-difluoroethane (Gas); method: Chromatography
Mole fraction of 1,1-difluoroethane	Temperature, K	Mole fraction of 1,1-difluoroethane	uncertainty
0	254.31	0	0.001
0	259.27	0	0.001
0	269.26	0	0.001
0	279.47	0	0.001
0	287.94	0	0.001
0.19	254.31	0.222	0.009
0.19	259.27	0.223	0.009
0.19	269.26	0.224	0.009
0.19	279.47	0.226	0.009
0.193	287.94	0.227	0.007
0.241	287.94	0.259	0.007
0.242	269.26	0.253	0.007
0.242	279.47	0.257	0.007
0.244	254.31	0.248	0.007
0.246	259.27	0.25	0.007
0.257	254.31	0.252	0.007
0.257	259.27	0.255	0.007
0.258	269.26	0.26	0.007
0.258	279.47	0.264	0.007
0.258	287.94	0.268	0.007
0.262	259.27	0.2531	0.0066
0.262	269.26	0.254	0.007
0.262	279.47	0.265	0.007
0.262	287.94	0.266	0.007
0.265	254.31	0.256	0.007
0.281	279.47	0.277	0.008
0.282	287.94	0.28	0.007
0.326	269.26	0.292	0.008
0.33	259.27	0.284	0.007
0.333	254.31	0.277	0.007
0.333	279.47	0.312	0.007
0.334	287.94	0.308	0.007
0.612	287.94	0.44	0.01
0.615	254.31	0.367	0.007
0.618	279.47	0.42	0.007
0.621	259.27	0.366	0.007
0.621	269.26	0.4	0.007
0.756	254.31	0.433	0.013
0.756	259.27	0.457	0.013
0.758	269.26	0.484	0.013
0.762	279.47	0.508	0.012
1	254.31	1	0.001
1	259.27	1	0.001
1	269.26	1	0.001
1	279.47	1	0.001
1	287.94	1	0.001
