Measured thermophysical data. Excess Molar Enthalpies of Dibromomethane with Benzene, Methanol, Dimethylsulfoxide, and Pyrrolidin-2-one at 303.15 K
Source: J. Chem. Eng. Data, 2010, 10.1021/je9005882
Compound 1: benzene, C6H6, InChI=1S/C6H6/c1-2-4-6-5-3-1/h1-6H, purity 99.7%
Compound 2: methanol, CH4O, InChI=1S/CH4O/c1-2/h2H,1H3, purity 99.7%
Compound 3: dibromomethane, CH2Br2, InChI=1S/CH2Br2/c2-1-3/h1H2, purity 99.7%
Compound 4: dimethyl sulfoxide, C2H6OS, InChI=1S/C2H6OS/c1-4(2)3/h1-2H3, purity 99.7%
Compound 5: 2-pyrrolidinone, C4H7NO, InChI=1S/C4H7NO/c6-4-2-1-3-5-4/h1-3H2,(H,5,6), purity 99.7%

System: methanol + dibromomethane; phases: Liquid
Fixed: Temperature, K = 303.15
Fixed: Pressure, kPa = 101
Property: Excess molar enthalpy (molar enthalpy of mixing), kJ/mol (Liquid); method: FLOW:UFactor:8
Mole fraction of dibromomethane	Excess molar enthalpy (molar enthalpy of mixing), kJ/mol	uncertainty
0.1506	0.181	0.017
0.2779	0.409	0.032
0.3148	0.472	0.035
0.4026	0.577	0.042
0.504	0.639	0.046
0.6195	0.709	0.05
0.7224	0.782	0.055
0.921	0.645	0.046
0.9515	0.466	0.035
0.9781	0.244	0.021

System: benzene + dibromomethane; phases: Liquid
Fixed: Temperature, K = 303.15
Fixed: Pressure, kPa = 101
Property: Excess molar enthalpy (molar enthalpy of mixing), kJ/mol (Liquid); method: FLOW:UFactor:4
Mole fraction of dibromomethane	Excess molar enthalpy (molar enthalpy of mixing), kJ/mol	uncertainty
0.0931	0.04	0.004
0.253	0.082	0.006
0.3416	0.101	0.006
0.4618	0.119	0.007
0.5464	0.133	0.007
0.6705	0.13	0.007
0.7405	0.127	0.007
0.8394	0.099	0.006
0.9506	0.041	0.004

System: dimethyl sulfoxide + dibromomethane; phases: Liquid
Fixed: Temperature, K = 303.15
Fixed: Pressure, kPa = 101
Property: Excess molar enthalpy (molar enthalpy of mixing), kJ/mol (Liquid); method: FLOW:UFactor:4
Mole fraction of dibromomethane	Excess molar enthalpy (molar enthalpy of mixing), kJ/mol	uncertainty
0.062	-0.212	0.01
0.1162	-0.358	0.015
0.2682	-0.733	0.028
0.3407	-0.84	0.031
0.4342	-0.949	0.035
0.503	-1.005	0.037
0.5251	-1.011	0.037
0.6466	-0.952	0.035
0.7285	-0.846	0.032
0.8234	-0.638	0.024
0.8934	-0.433	0.017

System: dibromomethane + 2-pyrrolidinone; phases: Liquid
Fixed: Temperature, K = 303.15
Fixed: Pressure, kPa = 101
Property: Excess molar enthalpy (molar enthalpy of mixing), kJ/mol (Liquid); method: FLOW:UFactor:4
Mole fraction of dibromomethane	Excess molar enthalpy (molar enthalpy of mixing), kJ/mol	uncertainty
0.0955	-0.384	0.016
0.151	-0.56	0.022
0.2158	-0.742	0.028
0.2999	-0.905	0.034
0.4044	-1.03	0.038
0.5247	-1.008	0.037
0.613	-0.922	0.034
0.7203	-0.726	0.028
0.7913	-0.533	0.021
0.8401	-0.405	0.016
0.9084	-0.212	0.01
