Measured thermophysical data. Solubility of 1,1'-(Ethane-1,2-diyl)-bis(3-methylpyridinium) Dihexafluorophosphate in Different Solvents
Source: J. Chem. Eng. Data, 2010, 10.1021/je900627q
Compound 1: acetone, C3H6O, InChI=1S/C3H6O/c1-3(2)4/h1-2H3, purity 99.5%
Compound 2: butanone, C4H8O, InChI=1S/C4H8O/c1-3-4(2)5/h3H2,1-2H3, purity 99.5%
Compound 3: 2,4-pentanedione, C5H8O2, InChI=1S/C5H8O2/c1-4(6)3-5(2)7/h3H2,1-2H3, purity 99.5%
Compound 4: cyclohexanone, C6H10O, InChI=1S/C6H10O/c7-6-4-2-1-3-5-6/h1-5H2, purity 99.5%
Compound 5: water, H2O, InChI=1S/H2O/h1H2, purity 99.9%
Compound 6: 1,1'-(ethane-1,2-diyl)-bis(3-methylpyridinium) dihexafluorophosphate, C14H18F12N2P2, InChI=1S/C14H18N2.2F6P/c1-13-5-3-7-15(11-13)9-10-16-8-4-6-14(2)12-16;2*1-7(2,3,4,5)6/h3-8,11-12H,9-10H2,1-2H3;;/q+2;2*-1, purity 99%

System: 1,1'-(ethane-1,2-diyl)-bis(3-methylpyridinium) dihexafluorophosphate; phases: Crystal, Liquid, Air at 1 atmosphere
Property: Normal melting temperature, K (Crystal); method: VISOBS
Normal melting temperature, K	uncertainty
546.85	1.25

System: acetone + 1,1'-(ethane-1,2-diyl)-bis(3-methylpyridinium) dihexafluorophosphate; phases: Liquid, Crystal
Fixed: Pressure, kPa = 101
Property: Solid-liquid equilibrium temperature, K (Liquid); method: Laser monitoring observation technique
Mole fraction of 1,1'-(ethane-1,2-diyl)-bis(3-methylpyridinium) dihexafluorophosphate	Solid-liquid equilibrium temperature, K	uncertainty
0.002693	288.15	1.24
0.002825	291.15	1.27
0.003008	295.15	1.41
0.003071	296.95	1.69
0.003234	301.35	1.71
0.003458	307.15	1.96
0.003614	312.15	1.72
0.003832	316.15	1.97
0.003927	320.65	2.47
0.004051	323.15	1.65

System: butanone + 1,1'-(ethane-1,2-diyl)-bis(3-methylpyridinium) dihexafluorophosphate; phases: Liquid, Crystal
Fixed: Pressure, kPa = 101
Property: Solid-liquid equilibrium temperature, K (Liquid); method: Laser monitoring observation technique
Mole fraction of 1,1'-(ethane-1,2-diyl)-bis(3-methylpyridinium) dihexafluorophosphate	Solid-liquid equilibrium temperature, K	uncertainty
0.000439	288.15	1.42
0.000464	292.15	1.49
0.000486	295.65	1.67
0.000505	299.15	1.47
0.000544	304.15	1.43
0.000574	308.15	1.78
0.000599	312.65	1.63
0.000643	317.65	1.56
0.000686	323.15	1.67
0.00073	328.15	1.58
0.000779	333.15	1.6

System: 2,4-pentanedione + 1,1'-(ethane-1,2-diyl)-bis(3-methylpyridinium) dihexafluorophosphate; phases: Liquid, Crystal
Fixed: Pressure, kPa = 101
Property: Solid-liquid equilibrium temperature, K (Liquid); method: Laser monitoring observation technique
Mole fraction of 1,1'-(ethane-1,2-diyl)-bis(3-methylpyridinium) dihexafluorophosphate	Solid-liquid equilibrium temperature, K	uncertainty
0.000225	288.15	0.83
0.000253	293.15	0.77
0.000286	297.15	0.72
0.000323	301.65	0.8
0.000336	303.15	0.8
0.000398	308.25	0.63
0.000476	313.65	0.6
0.00058	319.15	0.63
0.000661	323.15	0.56
0.00083	329.15	0.58
0.000966	333.15	0.6

System: cyclohexanone + 1,1'-(ethane-1,2-diyl)-bis(3-methylpyridinium) dihexafluorophosphate; phases: Liquid, Crystal
Fixed: Pressure, kPa = 101
Property: Solid-liquid equilibrium temperature, K (Liquid); method: Laser monitoring observation technique
Mole fraction of 1,1'-(ethane-1,2-diyl)-bis(3-methylpyridinium) dihexafluorophosphate	Solid-liquid equilibrium temperature, K	uncertainty
0.000104	288.15	0.64
0.000121	293.15	0.68
0.000141	298.15	0.75
0.00016	303.15	0.84
0.00018	308.15	0.84
0.000206	313.65	0.95
0.000224	318.15	1.05
0.000247	323.15	1.01
0.000274	328.15	1.09
0.000298	333.15	1.26

System: water + 1,1'-(ethane-1,2-diyl)-bis(3-methylpyridinium) dihexafluorophosphate; phases: Liquid, Crystal
Fixed: Pressure, kPa = 101
Property: Solid-liquid equilibrium temperature, K (Liquid); method: Laser monitoring observation technique
Mole fraction of 1,1'-(ethane-1,2-diyl)-bis(3-methylpyridinium) dihexafluorophosphate	Solid-liquid equilibrium temperature, K	uncertainty
0.0016	288.15	0.29
0.0022	292.15	0.34
0.0029	296.15	0.37
0.0037	300.15	0.38
0.0047	304.15	0.39
0.0061	308.65	0.42
0.0077	313.15	0.44
0.0098	318.15	0.49
0.0121	323.15	0.53
0.0145	327.65	0.56
0.0176	333.15	0.66

System: acetone + water + 1,1'-(ethane-1,2-diyl)-bis(3-methylpyridinium) dihexafluorophosphate; phases: Liquid, Crystal
Fixed: Pressure, kPa = 101
Property: Solid-liquid equilibrium temperature, K (Liquid); method: Laser monitoring observation technique
Mole fraction of 1,1'-(ethane-1,2-diyl)-bis(3-methylpyridinium) dihexafluorophosphate	Solvent: Mass fraction of water	Solid-liquid equilibrium temperature, K	uncertainty
2.5e-05	0.9	293.35	0.28
3.4e-05	0.9	297.65	0.29
4.7e-05	0.8	290.25	0.24
4.8e-05	0.9	302.15	0.37
6.8e-05	0.9	307.45	0.44
9.7e-05	0.8	297.05	0.3
0.000106	0.7	290.85	0.24
0.00014	0.8	301.35	0.28
0.000179	0.7	295.55	0.27
0.000211	0.8	307.35	0.35
0.000316	0.7	301.35	0.32
0.00044	0.7	305.95	0.25
0.000563	0.6	289.95	0.21
0.000603	0.5	289.35	0.26
0.000744	0.6	295.25	0.44
0.000962	0.6	300.45	0.47
0.00111	0.5	296.15	0.33
0.00117	0.6	304.65	0.51
0.00165	0.5	301.55	0.37
0.00211	0.5	305.45	0.41
0.00214	0.4	291.75	0.43
0.00283	0.4	297.95	0.51
0.00366	0.4	304.35	0.6
0.00398	0.3	291.05	0.58
0.00416	0.4	308.15	0.66
0.00487	0.3	297.15	0.71
0.00502	0.2	291.15	0.51
0.00579	0.3	303.75	0.87
0.00632	0.1	290.25	0.93
0.00645	0.3	308.65	0.98
0.00662	0.2	298.55	0.67
0.00732	0.2	302.35	0.84
0.00741	0.1	298.05	1.07
0.00798	0.1	301.95	0.98
0.00819	0.2	307.25	0.94
0.00899	0.1	307.65	1.03
