Measured thermophysical data. Densities and Viscosities of exo-Tetrahydrodicyclopentadiene + n-Butanol and exo-Tetrahydrodicyclopentadiene + n-Pentanol at Temperatures of (293.15 to 313.15) K
Source: J. Chem. Eng. Data, 2010, 10.1021/je9005129
Compound 1: butan-1-ol, C4H10O, InChI=1S/C4H10O/c1-2-3-4-5/h5H,2-4H2,1H3
Compound 2: exo-tetrahydrodicyclopentadiene, C10H16, InChI=1S/C10H16/c1-2-9-7-4-5-8(6-7)10(9)3-1/h7-10H,1-6H2/t7-,8+,9+,10-
Compound 3: pentan-1-ol, C5H12O, InChI=1S/C5H12O/c1-2-3-4-5-6/h6H,2-5H2,1H3

System: butan-1-ol; phases: Liquid
Fixed: Pressure, kPa = 101
Property: Viscosity, Pa*s (Liquid); method: Capillary tube (Ostwald; Ubbelohde) method
Temperature, K	Viscosity, Pa*s	uncertainty
293.15	0.0029401	3.62e-05
298.15	0.0025612	3.16e-05
303.15	0.0022866	2.82e-05
313.15	0.0017673	2.19e-05

System: butan-1-ol; phases: Liquid
Fixed: Pressure, kPa = 101
Property: Mass density, kg/m3 (Liquid); method: VIBTUB:UFactor:6
Temperature, K	Mass density, kg/m3	uncertainty
293.15	809.1	0.8
298.15	805.6	0.8
303.15	802	0.8
313.15	793.4	0.8

System: exo-tetrahydrodicyclopentadiene; phases: Liquid
Fixed: Pressure, kPa = 101
Property: Viscosity, Pa*s (Liquid); method: Capillary tube (Ostwald; Ubbelohde) method
Temperature, K	Viscosity, Pa*s	uncertainty
293.15	0.0030764	4.63e-05
298.15	0.0027696	4.17e-05
303.15	0.0025194	3.79e-05
313.15	0.0020936	3.16e-05

System: exo-tetrahydrodicyclopentadiene; phases: Liquid
Fixed: Pressure, kPa = 101
Property: Mass density, kg/m3 (Liquid); method: VIBTUB:UFactor:6
Temperature, K	Mass density, kg/m3	uncertainty
293.15	935.6	1
298.15	931.2	1
303.15	927.6	1.1
313.15	919.3	1.1

System: pentan-1-ol; phases: Liquid
Fixed: Pressure, kPa = 101
Property: Viscosity, Pa*s (Liquid); method: Capillary tube (Ostwald; Ubbelohde) method
Temperature, K	Viscosity, Pa*s	uncertainty
293.15	0.0040601	4.98e-05
298.15	0.0035344	4.34e-05
303.15	0.0030582	3.76e-05
313.15	0.0022995	2.84e-05

System: pentan-1-ol; phases: Liquid
Fixed: Pressure, kPa = 101
Property: Mass density, kg/m3 (Liquid); method: VIBTUB:UFactor:6
Temperature, K	Mass density, kg/m3	uncertainty
293.15	814.1	0.8
298.15	811.5	0.8
303.15	807.3	0.8
313.15	799.2	0.8

System: butan-1-ol + exo-tetrahydrodicyclopentadiene; phases: Liquid
Fixed: Pressure, kPa = 101
Property: Viscosity, Pa*s (Liquid); method: Capillary tube (Ostwald; Ubbelohde) method
Temperature, K	Mole fraction of butan-1-ol	Viscosity, Pa*s	uncertainty
293.15	0	0.0030764	4.63e-05
293.15	0.1697	0.0027964	4.05e-05
293.15	0.3148	0.0026753	3.76e-05
293.15	0.4378	0.0026463	3.63e-05
293.15	0.5481	0.0026598	3.56e-05
293.15	0.6472	0.0026938	3.54e-05
293.15	0.7336	0.002743	3.54e-05
293.15	0.8102	0.0028072	3.57e-05
293.15	0.8799	0.0028551	3.59e-05
293.15	0.9439	0.0029062	3.61e-05
293.15	1	0.0029401	3.62e-05
298.15	0	0.0027696	4.17e-05
298.15	0.1697	0.002513	3.65e-05
298.15	0.3148	0.0023968	3.37e-05
298.15	0.4378	0.0023545	3.23e-05
298.15	0.5481	0.0023547	3.16e-05
298.15	0.6472	0.0023724	3.12e-05
298.15	0.7336	0.0024161	3.12e-05
298.15	0.8102	0.0024654	3.14e-05
298.15	0.8799	0.002505	3.15e-05
298.15	0.9439	0.0025428	3.16e-05
298.15	1	0.0025612	3.16e-05
303.15	0	0.0025194	3.79e-05
303.15	0.1697	0.0022825	3.31e-05
303.15	0.3148	0.0021773	3.07e-05
303.15	0.4378	0.002128	2.92e-05
303.15	0.5481	0.0021182	2.84e-05
303.15	0.6472	0.0021353	2.81e-05
303.15	0.7336	0.002165	2.8e-05
303.15	0.8102	0.0022108	2.82e-05
303.15	0.8799	0.0022424	2.82e-05
303.15	0.9439	0.0022722	2.83e-05
303.15	1	0.0022866	2.82e-05
313.15	0	0.0020936	3.16e-05
313.15	0.1697	0.001882	2.74e-05
313.15	0.3148	0.0017729	2.5e-05
313.15	0.4378	0.0017076	2.35e-05
313.15	0.5481	0.0016848	2.27e-05
313.15	0.6472	0.0016824	2.22e-05
313.15	0.7336	0.0017003	2.21e-05
313.15	0.8102	0.0017186	2.2e-05
313.15	0.8799	0.0017434	2.2e-05
313.15	0.9439	0.0017661	2.21e-05
313.15	1	0.0017673	2.19e-05

System: butan-1-ol + exo-tetrahydrodicyclopentadiene; phases: Liquid
Fixed: Pressure, kPa = 101
Property: Mass density, kg/m3 (Liquid); method: VIBTUB:UFactor:6
Temperature, K	Mole fraction of butan-1-ol	Mass density, kg/m3	uncertainty
293.15	0	935.6	1
293.15	0.1697	920.1	0.9
293.15	0.3148	905.3	0.9
293.15	0.4378	891.5	0.8
293.15	0.5481	877.9	0.8
293.15	0.6472	864.7	0.8
293.15	0.7336	852.3	0.8
293.15	0.8102	840.7	0.8
293.15	0.8799	829.5	0.8
293.15	0.9439	819.1	0.8
293.15	1	809.1	0.8
298.15	0	931.2	1
298.15	0.1697	916.1	0.9
298.15	0.3148	901.4	0.9
298.15	0.4378	887.7	0.8
298.15	0.5481	874.3	0.8
298.15	0.6472	861.2	0.8
298.15	0.7336	849	0.8
298.15	0.8102	837.4	0.8
298.15	0.8799	826.4	0.8
298.15	0.9439	815.6	0.8
298.15	1	805.6	0.8
303.15	0	927.6	1.1
303.15	0.1697	912.6	1
303.15	0.3148	898.1	0.9
303.15	0.4378	884.5	0.8
303.15	0.5481	871	0.8
303.15	0.6472	857.9	0.8
303.15	0.7336	845.7	0.8
303.15	0.8102	834.1	0.8
303.15	0.8799	823.1	0.8
303.15	0.9439	812.3	0.8
303.15	1	802	0.8
313.15	0	919.3	1.1
313.15	0.1697	904.5	1
313.15	0.3148	890	0.9
313.15	0.4378	876.4	0.9
313.15	0.5481	862.9	0.8
313.15	0.6472	849.8	0.8
313.15	0.7336	837.4	0.8
313.15	0.8102	825.8	0.8
313.15	0.8799	814.7	0.8
313.15	0.9439	803.9	0.8
313.15	1	793.4	0.8

System: pentan-1-ol + exo-tetrahydrodicyclopentadiene; phases: Liquid
Fixed: Pressure, kPa = 101
Property: Viscosity, Pa*s (Liquid); method: Capillary tube (Ostwald; Ubbelohde) method
Temperature, K	Mole fraction of pentan-1-ol	Viscosity, Pa*s	uncertainty
293.15	0	0.0030764	4.63e-05
293.15	0.1465	0.0029191	4.25e-05
293.15	0.2782	0.002901	4.11e-05
293.15	0.3987	0.0029545	4.08e-05
293.15	0.5049	0.0030579	4.13e-05
293.15	0.6067	0.0031899	4.22e-05
293.15	0.6985	0.0033718	4.37e-05
293.15	0.7827	0.0035488	4.53e-05
293.15	0.8623	0.0037184	4.67e-05
293.15	0.9326	0.0039157	4.86e-05
293.15	1	0.0040601	4.98e-05
298.15	0	0.0027696	4.17e-05
298.15	0.1465	0.0026208	3.82e-05
298.15	0.2782	0.002595	3.68e-05
298.15	0.3987	0.0026218	3.62e-05
298.15	0.5049	0.0027004	3.65e-05
298.15	0.6067	0.002807	3.71e-05
298.15	0.6985	0.0029528	3.84e-05
298.15	0.7827	0.0030953	3.95e-05
298.15	0.8623	0.0032696	4.11e-05
298.15	0.9326	0.0034109	4.24e-05
298.15	1	0.0035344	4.34e-05
303.15	0	0.0025194	3.79e-05
303.15	0.1465	0.0023788	3.47e-05
303.15	0.2782	0.0023463	3.33e-05
303.15	0.3987	0.0023544	3.25e-05
303.15	0.5049	0.0024101	3.26e-05
303.15	0.6067	0.0024866	3.29e-05
303.15	0.6985	0.0026073	3.39e-05
303.15	0.7827	0.0027261	3.49e-05
303.15	0.8623	0.0028518	3.59e-05
303.15	0.9326	0.0029712	3.7e-05
303.15	1	0.0030582	3.76e-05
313.15	0	0.0020936	3.16e-05
313.15	0.1465	0.0019719	2.88e-05
313.15	0.2782	0.0019204	2.73e-05
313.15	0.3987	0.0019137	2.65e-05
313.15	0.5049	0.0019218	2.61e-05
313.15	0.6067	0.0019569	2.6e-05
313.15	0.6985	0.0020325	2.65e-05
313.15	0.7827	0.0021073	2.7e-05
313.15	0.8623	0.0021804	2.76e-05
313.15	0.9326	0.0022533	2.81e-05
313.15	1	0.0022995	2.84e-05

System: pentan-1-ol + exo-tetrahydrodicyclopentadiene; phases: Liquid
Fixed: Pressure, kPa = 101
Property: Mass density, kg/m3 (Liquid); method: VIBTUB:UFactor:6
Temperature, K	Mole fraction of pentan-1-ol	Mass density, kg/m3	uncertainty
293.15	0	935.6	1
293.15	0.1465	920.6	1
293.15	0.2782	906.4	0.9
293.15	0.3987	892.7	0.8
293.15	0.5049	879.9	0.8
293.15	0.6067	867.2	0.8
293.15	0.6985	855.3	0.8
293.15	0.7827	844	0.8
293.15	0.8623	833.3	0.8
293.15	0.9326	823.6	0.8
293.15	1	814.1	0.8
298.15	0	931.2	1
298.15	0.1465	916.8	1
298.15	0.2782	902.7	0.9
298.15	0.3987	889.2	0.9
298.15	0.5049	876.7	0.8
298.15	0.6067	864.2	0.8
298.15	0.6985	852.5	0.8
298.15	0.7827	841.3	0.8
298.15	0.8623	830.8	0.8
298.15	0.9326	821.2	0.8
298.15	1	811.5	0.8
303.15	0	927.6	1.1
303.15	0.1465	913.1	1
303.15	0.2782	899.2	0.9
303.15	0.3987	885.6	0.9
303.15	0.5049	873	0.8
303.15	0.6067	860.5	0.8
303.15	0.6985	848.7	0.8
303.15	0.7827	837.6	0.8
303.15	0.8623	827	0.8
303.15	0.9326	817.3	0.8
303.15	1	807.3	0.8
313.15	0	919.3	1.1
313.15	0.1465	905	1
313.15	0.2782	891.1	0.9
313.15	0.3987	877.6	0.9
313.15	0.5049	865.1	0.8
313.15	0.6067	852.5	0.8
313.15	0.6985	840.8	0.8
313.15	0.7827	829.7	0.8
313.15	0.8623	819.1	0.8
313.15	0.9326	809.3	0.8
313.15	1	799.2	0.8
