Measured thermophysical data. Solubility of Isophthalic Acid in Propyl Acetate and Partition Coefficient between Propyl Acetate and Water
Source: J. Chem. Eng. Data, 2010, 10.1021/je900292r
Compound 1: 1,3-benzenedicarboxylic acid, C8H6O4, InChI=1S/C8H6O4/c9-7(10)5-2-1-3-6(4-5)8(11)12/h1-4H,(H,9,10)(H,11,12), purity 98%
Compound 2: propyl ethanoate, C5H10O2, InChI=1S/C5H10O2/c1-3-4-7-5(2)6/h3-4H2,1-2H3, purity 99%
Compound 3: water, H2O, InChI=1S/H2O/h1H2

System: propyl ethanoate + 1,3-benzenedicarboxylic acid; phases: Liquid, Crystal
Fixed: Pressure, kPa = 101
Property: Mole fraction of 1,3-benzenedicarboxylic acid (Liquid); method: Chromatography
Temperature, K	Mole fraction of 1,3-benzenedicarboxylic acid	uncertainty
303.2	0.000791	4.8e-05
313.2	0.000934	5.6e-05
323.2	0.001082	6.4e-05
333.2	0.001321	8e-05
343.2	0.001379	8.2e-05
353.2	0.001797	0.000108
363.2	0.002145	0.000128

System: propyl ethanoate + 1,3-benzenedicarboxylic acid + water; phases: Liquid, Liquid mixture 1
Fixed: Pressure, kPa = 101
Property: Mole fraction of 1,3-benzenedicarboxylic acid (Liquid); method: Chromatography
Temperature, K	Mole fraction of 1,3-benzenedicarboxylic acid	Mole fraction of 1,3-benzenedicarboxylic acid	uncertainty
303.2	5.31e-05	17.904	1.075
303.2	9.83e-05	23.263	1.397
303.2	0.000158	27.759	1.667
303.2	0.0002137	32.958	1.979
303.2	0.0002754	39.042	2.344
313.2	5.69e-05	16.214	0.974
313.2	0.0001006	20.086	1.208
313.2	0.0001575	24.905	1.496
313.2	0.0002076	29.671	1.782
313.2	0.0002687	34.037	2.044
323.2	5.68e-05	13.903	0.835
323.2	0.0001008	17.176	1.032
323.2	0.0001561	21.172	1.272
323.2	0.000202	24.46	1.47
323.2	0.0002621	28.908	1.739
333.2	5.43e-05	11.561	0.696
333.2	0.0001001	14.248	0.856
333.2	0.0001474	16.923	1.018
333.2	0.0002011	20.326	1.223
333.2	0.0002585	22.435	1.349
343.2	5.13e-05	8.968	0.54
343.2	9.47e-05	11.636	0.7
343.2	0.0001377	13.457	0.81
343.2	0.0001923	15.031	0.904
343.2	0.0002525	19.075	1.146
353.2	9.07e-05	8.98	0.54
353.2	0.0001326	10.588	0.638
353.2	0.0001839	12.072	0.727
353.2	0.0002381	14.684	0.885
363.2	8.48e-05	6.435	0.389
363.2	0.0001304	7.766	0.469
363.2	0.0001792	8.893	0.537
363.2	0.0002251	10.365	0.627
