Measured thermophysical data. Measurement and Correlation of Solubility of Pimelic Acid in Ether, Tetrahydrofuran, Ethanol, and Methanol
Source: J. Chem. Eng. Data, 2010, 10.1021/je900629v
Compound 1: 1,7-heptanedioic acid, C7H12O4, InChI=1S/C7H12O4/c8-6(9)4-2-1-3-5-7(10)11/h1-5H2,(H,8,9)(H,10,11), purity 99.5%
Compound 2: diethyl ether, C4H10O, InChI=1S/C4H10O/c1-3-5-4-2/h3-4H2,1-2H3, purity 99.5%
Compound 3: tetrahydrofuran, C4H8O, InChI=1S/C4H8O/c1-2-4-5-3-1/h1-4H2, purity 99.5%
Compound 4: ethanol, C2H6O, InChI=1S/C2H6O/c1-2-3/h3H,2H2,1H3, purity 99.5%
Compound 5: methanol, CH4O, InChI=1S/CH4O/c1-2/h2H,1H3, purity 99.5%
Compound 6: sodium chloride, ClNa, InChI=1S/ClH.Na/h1H;/q;+1/p-1
Compound 7: water, H2O, InChI=1S/H2O/h1H2

System: sodium chloride + water; phases: Liquid, Crystal
Fixed: Pressure, kPa = 101
Property: Mole fraction of sodium chloride (Liquid); method: laser monitoring observation
Temperature, K	Mole fraction of sodium chloride	uncertainty
293.15	0.0999	0.0041
303.15	0.1004	0.0041
313.15	0.1011	0.0041
323.15	0.1021	0.0042

System: 1,7-heptanedioic acid + water; phases: Liquid, Crystal
Fixed: Pressure, kPa = 101
Property: Mole fraction of 1,7-heptanedioic acid (Liquid); method: laser monitoring observation
Temperature, K	Mole fraction of 1,7-heptanedioic acid	uncertainty
307.15	0.01079	0.00048
310.15	0.01263	0.00056
313.15	0.01928	0.00088
323.15	0.08249	0.00372

System: tetrahydrofuran + 1,7-heptanedioic acid; phases: Liquid, Crystal
Fixed: Pressure, kPa = 101
Property: Mole fraction of 1,7-heptanedioic acid (Liquid); method: laser monitoring observation
Temperature, K	Mole fraction of 1,7-heptanedioic acid	uncertainty
298.95	0.1911	0.0077
300.55	0.1978	0.008
302.15	0.2045	0.0083
303.65	0.2109	0.0085
305.15	0.2185	0.0088
307.95	0.2309	0.0093
309.05	0.2347	0.0095
311.75	0.2496	0.0101
313.75	0.2591	0.0105
315.75	0.271	0.011
317.75	0.282	0.0114
320.25	0.2959	0.012
321.65	0.3061	0.0124
323.05	0.3164	0.0128

System: diethyl ether + 1,7-heptanedioic acid; phases: Liquid, Crystal
Fixed: Pressure, kPa = 101
Property: Mole fraction of 1,7-heptanedioic acid (Liquid); method: laser monitoring observation
Temperature, K	Mole fraction of 1,7-heptanedioic acid	uncertainty
278.95	0.0091	0.0004
281.95	0.0102	0.0004
284.65	0.0112	0.0005
287.05	0.0122	0.0005
290.05	0.0137	0.0006
292.95	0.0152	0.0006
294.75	0.0165	0.0007
296.35	0.018	0.0007
299.15	0.0199	0.0008
301.55	0.0222	0.0009

System: methanol + 1,7-heptanedioic acid; phases: Liquid, Crystal
Fixed: Pressure, kPa = 101
Property: Mole fraction of 1,7-heptanedioic acid (Liquid); method: laser monitoring observation
Temperature, K	Mole fraction of 1,7-heptanedioic acid	uncertainty
300.75	0.1425	0.006
302.65	0.1521	0.0064
304.15	0.1588	0.0067
305.95	0.1708	0.0072
307.65	0.1798	0.0076
310.05	0.1873	0.0079
312.65	0.2048	0.0086
314.85	0.2176	0.0092
317.85	0.2457	0.0104
321.35	0.2699	0.0115
323.75	0.2931	0.0125
325.55	0.3088	0.0132
327.15	0.3239	0.0139
328.75	0.3416	0.0147

System: ethanol + 1,7-heptanedioic acid; phases: Liquid, Crystal
Fixed: Pressure, kPa = 101
Property: Mole fraction of 1,7-heptanedioic acid (Liquid); method: laser monitoring observation
Temperature, K	Mole fraction of 1,7-heptanedioic acid	uncertainty
298.45	0.1208	0.0049
301.45	0.1309	0.0054
304.25	0.1444	0.0059
305.75	0.1506	0.0062
307.55	0.1581	0.0065
310.25	0.172	0.0071
312.15	0.1867	0.0077
314.85	0.2022	0.0083
316.25	0.2065	0.0085
317.95	0.2192	0.009
320.95	0.2352	0.0097
323.55	0.2485	0.0102
325.65	0.2673	0.011
327.55	0.2805	0.0116
329.25	0.2938	0.0122
