Measured thermophysical data. Vapor Pressure Measurements of Hydroxyacetaldehyde and Hydroxyacetone in the Temperature Range (273 to 356) K
Source: J. Chem. Eng. Data, 2010, 10.1021/je9004905
Compound 1: 1,2-ethanediol, C2H6O2, InChI=1S/C2H6O2/c3-1-2-4/h3-4H,1-2H2
Compound 2: acetol, C3H6O2, InChI=1S/C3H6O2/c1-3(5)2-4/h4H,2H2,1H3
Compound 3: 2-hydroxyacetaldehyde, C2H4O2, InChI=1S/C2H4O2/c3-1-2-4/h1,4H,2H2

System: 1,2-ethanediol; phases: Liquid, Gas
Property: Vapor or sublimation pressure, kPa (Liquid); method: Closed cell (Static) method
Temperature, K	Vapor or sublimation pressure, kPa	uncertainty
307.7	0.028	0.002
312.6	0.041	0.004
316.5	0.055	0.006
318.8	0.061	0.006
322.1	0.077	0.008
326.1	0.107	0.01
328.2	0.124	0.012
334.5	0.196	0.026
335.2	0.201	0.028
340.2	0.278	0.039
347.9	0.454	0.065
359.2	0.9	0.118
367.9	1.483	0.187
373.4	1.95	0.267
384.5	3.467	0.475

System: acetol; phases: Liquid, Gas
Property: Vapor or sublimation pressure, kPa (Liquid); method: Closed cell (Static) method
Temperature, K	Vapor or sublimation pressure, kPa	uncertainty
273.22	0.127	0.018
275.48	0.136	0.018
277.78	0.162	0.022
278.55	0.167	0.022
278.55	0.172	0.022
280.9	0.201	0.084
281.69	0.205	0.026
281.69	0.21	0.026
289.86	0.356	0.042
290.7	0.36	0.042
290.7	0.363	0.042
290.7	0.36	0.042
293.26	0.431	0.05
295.86	0.516	0.06
295.86	0.495	0.058
296.74	0.531	0.062
300.3	0.617	0.07
301.2	0.642	0.072
302.11	0.717	0.08
303.03	0.746	0.084
303.95	0.817	0.092

System: 2-hydroxyacetaldehyde; phases: Liquid, Gas
Property: Vapor or sublimation pressure, kPa (Liquid); method: Closed cell (Static) method
Temperature, K	Vapor or sublimation pressure, kPa	uncertainty
295.85	0.0037	0.0004
305.1	0.009	0.0011
305.51	0.0096	0.0024
319.5	0.0335	0.0057
319.84	0.0335	0.0057
322.38	0.0368	0.0057
323.64	0.0458	0.0069
327.73	0.062	0.0109
333.04	0.0984	0.0203
339.32	0.153	0.018
340.91	0.17	0.02
341.95	0.182	0.024
342.82	0.198	0.03
346.83	0.253	0.036
355.98	0.486	0.052
