Measured thermophysical data. (Liquid + Liquid) Equilibrium for (N,N-Dimethylformamide (DMF) + Hexadecane) at Temperatures between (293.15 and 313.15) K and Ternary Mixtures of (DMF + Hexadecane) with Either Quinoline, or Pyridine, or Pyrrole, or Aniline, or Indole at T = 298.15 K
Source: J. Chem. Eng. Data, 2010, 10.1021/je9006234
Compound 1: dimethylformamide, C3H7NO, InChI=1S/C3H7NO/c1-4(2)3-5/h3H,1-2H3
Compound 2: hexadecane, C16H34, InChI=1S/C16H34/c1-3-5-7-9-11-13-15-16-14-12-10-8-6-4-2/h3-16H2,1-2H3
Compound 3: quinoline, C9H7N, InChI=1S/C9H7N/c1-2-6-9-8(4-1)5-3-7-10-9/h1-7H
Compound 4: pyridine, C5H5N, InChI=1S/C5H5N/c1-2-4-6-5-3-1/h1-5H
Compound 5: aniline, C6H7N, InChI=1S/C6H7N/c7-6-4-2-1-3-5-6/h1-5H,7H2
Compound 6: pyrrole, C4H5N, InChI=1S/C4H5N/c1-2-4-5-3-1/h1-5H
Compound 7: 1H-indole, C8H7N, InChI=1S/C8H7N/c1-2-4-8-7(3-1)5-6-9-8/h1-6,9H

System: dimethylformamide; phases: Liquid
Property: Mass density, kg/m3 (Liquid); method: VIBTUB:UFactor:3
Temperature, K	Pressure, kPa	Mass density, kg/m3	uncertainty
298.15	101.325	944.21	0.23

System: hexadecane; phases: Liquid
Property: Mass density, kg/m3 (Liquid); method: VIBTUB:UFactor:2
Temperature, K	Pressure, kPa	Mass density, kg/m3	uncertainty
298.15	101.325	773.19	0.32

System: quinoline; phases: Liquid
Property: Mass density, kg/m3 (Liquid); method: VIBTUB:UFactor:3
Temperature, K	Pressure, kPa	Mass density, kg/m3	uncertainty
298.15	101.325	1089.45	0.31

System: pyridine; phases: Liquid
Property: Mass density, kg/m3 (Liquid); method: VIBTUB:UFactor:4
Temperature, K	Pressure, kPa	Mass density, kg/m3	uncertainty
298.15	101.325	978.25	0.27

System: aniline; phases: Liquid
Property: Mass density, kg/m3 (Liquid); method: VIBTUB:UFactor:3
Temperature, K	Pressure, kPa	Mass density, kg/m3	uncertainty
298.15	101.325	1017.42	0.19

System: pyrrole; phases: Liquid
Property: Mass density, kg/m3 (Liquid); method: VIBTUB:UFactor:12
Temperature, K	Pressure, kPa	Mass density, kg/m3	uncertainty
298.15	101.325	965.9	2.92

System: 1H-indole; phases: Liquid
Property: Mass density, kg/m3 (Liquid); method: VIBTUB:UFactor:6
Temperature, K	Pressure, kPa	Mass density, kg/m3	uncertainty
298.15	101.325	1216.68	1.29

System: dimethylformamide + hexadecane; phases: Liquid mixture 1, Liquid mixture 2
Fixed: Pressure, kPa = 101
Property: Mole fraction of dimethylformamide (Liquid mixture 1); method: Chromatography
Temperature, K	Mole fraction of dimethylformamide	uncertainty
293.15	0.9971	0.002
298.15	0.996	0.002
303.15	0.9957	0.002
308.15	0.9935	0.002
313.15	0.9929	0.002

System: dimethylformamide + hexadecane; phases: Liquid mixture 2, Liquid mixture 1
Fixed: Pressure, kPa = 101
Property: Mole fraction of dimethylformamide (Liquid mixture 2); method: Chromatography
Temperature, K	Mole fraction of dimethylformamide	uncertainty
293.15	0.0812	0.0021
298.15	0.0858	0.0021
303.15	0.0861	0.0021
308.15	0.0863	0.0021
313.15	0.0873	0.0021

System: aniline + dimethylformamide + hexadecane; phases: Liquid mixture 1, Liquid mixture 2
Fixed: Temperature, K = 298.15
Fixed: Pressure, kPa = 101
Property: Mole fraction of aniline (Liquid mixture 1); method: CHROM:UFactor:4
Property: Mole fraction of aniline (Liquid mixture 2); method: CHROM:UFactor:4
Property: Mole fraction of dimethylformamide (Liquid mixture 2); method: CHROM:UFactor:4
Mole fraction of dimethylformamide	Mole fraction of aniline	uncertainty	Mole fraction of aniline	uncertainty	Mole fraction of dimethylformamide	uncertainty
0.996	0	0.0001	0	0.0001	0.0858	
0.9485	0.0466	0.0031	0	0.0001	0.0652	
0.8403	0.1556	0.0052	0.0007	0.0007	0.0491	
0.7011	0.2945	0.0093	0.0038	0.0021	0.0366	
0.4887	0.5086	0.0154	0.0139	0.0041	0.0184	
0.3969	0.6	0.0126	0.0245	0.0038	0.0142	
0.6051	0.3918	0.0123	0.0083	0.0024	0.0239	
0.3188	0.6782	0.0102	0.0209	0.0067	0.0099	
0.2477	0.7496	0.008	0.0478	0.0087	0.0079	
0.2116	0.7853	0.0069	0.0496	0.011	0.0058	
0.2189	0.7783	0.0071	0.0477	0.0107	0.0056	
0.1784	0.8183	0.006	0.0535	0.0203	0.0049	
0.1407	0.8568	0.0049	0.0695	0.0117	0.0039	
0.1155	0.8807	0.0044	0.068	0.0141	0.0034	
0.0875	0.9105	0.0038	0.1028	0.04	0.0023	
0.0509	0.9446	0.0032	0.0759	0.0096	0.0007	
0.0176	0.9781	0.0029	0.0803	0.0102	0.0005	

System: dimethylformamide + 1H-indole + hexadecane; phases: Liquid mixture 2, Liquid mixture 1
Fixed: Temperature, K = 298.15
Fixed: Pressure, kPa = 101
Property: Mole fraction of 1H-indole (Liquid mixture 2); method: CHROM:UFactor:8
Property: Mole fraction of 1H-indole (Liquid mixture 1); method: CHROM:UFactor:8
Property: Mole fraction of dimethylformamide (Liquid mixture 1); method: CHROM:UFactor:8
Mole fraction of dimethylformamide	Mole fraction of 1H-indole	uncertainty	Mole fraction of 1H-indole	uncertainty	Mole fraction of dimethylformamide	uncertainty
0.0858	0	0.0001	0	0.0001	0.996	
0.063	0	0.0001	0.1014	0.004	0.8917	
0.0512	0.0085	0.0025	0.2574	0.0082	0.7355	
0.0363	0.0182	0.0027	0.4285	0.0134	0.5631	
0.0222	0.0312	0.0035	0.5861	0.013	0.405	
0.0129	0.0447	0.0047	0.6939	0.0097	0.2974	
0	0.0693	0.0044	0.8022	0.0064	0.187	

System: dimethylformamide + pyridine + hexadecane; phases: Liquid mixture 1, Liquid mixture 2
Fixed: Temperature, K = 298.15
Fixed: Pressure, kPa = 101.3
Property: Mole fraction of dimethylformamide (Liquid mixture 1); method: CHROM:UFactor:4
Property: Mole fraction of dimethylformamide (Liquid mixture 2); method: CHROM:UFactor:4
Property: Mole fraction of pyridine (Liquid mixture 2); method: CHROM:UFactor:4
Mole fraction of pyridine	Mole fraction of dimethylformamide	uncertainty	Mole fraction of dimethylformamide	uncertainty	Mole fraction of pyridine	uncertainty
0	0.996	0.002	0.0858	0.0106	0	
0.1765	0.8146	0.0061	0.0702	0.0087	0.0424	
0.2495	0.74	0.0083	0.0686	0.0085	0.0907	
0.389	0.5985	0.0126	0.0624	0.0077	0.1516	
0.5051	0.4751	0.0149	0.0696	0.0086	0.2381	
0.5958	0.3773	0.0119	0.0708	0.0088	0.3213	
0.6581	0.3028	0.0096	0.0681	0.0084	0.3672	
0.7154	0.2522	0.0081	0.059	0.0073	0.4067	
0.7655	0.1925	0.0064	0.0535	0.0066	0.4635	

System: dimethylformamide + pyrrole + hexadecane; phases: Liquid mixture 2, Liquid mixture 1
Fixed: Temperature, K = 298.15
Fixed: Pressure, kPa = 101.3
Property: Mole fraction of dimethylformamide (Liquid mixture 2); method: CHROM:UFactor:16
Property: Mole fraction of dimethylformamide (Liquid mixture 1); method: CHROM:UFactor:16
Property: Mole fraction of pyrrole (Liquid mixture 1); method: CHROM:UFactor:16
Mole fraction of pyrrole	Mole fraction of dimethylformamide	uncertainty	Mole fraction of dimethylformamide	uncertainty	Mole fraction of pyrrole	uncertainty
0	0.0858	0.0106	0.996	0.002	0	
0.0023	0.0859	0.0106	0.889	0.0042	0.1051	
0.0123	0.0528	0.0073	0.7441	0.0082	0.2518	
0.0288	0.0394	0.0052	0.5938	0.0127	0.3889	
0.0399	0.0292	0.0043	0.5051	0.0154	0.4901	
0.0505	0.0193	0.0031	0.4157	0.013	0.5796	
0.0677	0.0155	0.0027	0.3414	0.0108	0.6537	
0.083	0.0112	0.0024	0.2787	0.0089	0.7168	
0.112	0.0095	0.0023	0.2262	0.0073	0.7689	
0.1259	0.0056	0.0022	0.1536	0.0052	0.8406	
0.1382	0.0022	0.0021	0.1011	0.004	0.8953	
0.1595	0	0.0001	0.0526	0.0032	0.9421	
0.1549	0	0.0001	0.0269	0.0029	0.968	

System: dimethylformamide + quinoline + hexadecane; phases: Liquid mixture 1, Liquid mixture 2
Fixed: Temperature, K = 298.15
Fixed: Pressure, kPa = 101.3
Property: Mole fraction of dimethylformamide (Liquid mixture 1); method: CHROM:UFactor:4
Property: Mole fraction of dimethylformamide (Liquid mixture 2); method: CHROM:UFactor:4
Property: Mole fraction of quinoline (Liquid mixture 2); method: CHROM:UFactor:4
Mole fraction of quinoline	Mole fraction of dimethylformamide	uncertainty	Mole fraction of dimethylformamide	uncertainty	Mole fraction of quinoline	uncertainty
0	0.996	0.002	0.0858	0.0106	0	
0.0874	0.9058	0.0039	0.0851	0.0105	0.0196	
0.2266	0.7641	0.0076	0.0812	0.0101	0.0752	
0.3577	0.6289	0.0117	0.0784	0.0097	0.1279	
0.4689	0.5146	0.0152	0.0725	0.009	0.1789	
0.5633	0.4146	0.013	0.0711	0.0088	0.2405	
0.6383	0.3335	0.0106	0.0636	0.0079	0.2914	
0.6959	0.2707	0.0087	0.0585	0.0073	0.3351	
0.7516	0.2069	0.0068	0.052	0.0064	0.3962	
0.7825	0.1702	0.0063	0.0543	0.0067	0.4481	
0.8551	0.0667	0.004	0.0264	0.0036	0.5312	
0.8539	0.0384	0.0043	0.0296	0.0039	0.6157	
