Measured thermophysical data. Solubility of l-Lysine Hydrochloride in Dimethyl Sulfoxide, Methanol, Ethanol, Water, and Glycol between (283 and 323) K
Source: J. Chem. Eng. Data, 2009, 10.1021/je900022k
Compound 1: L-lysine monohydrochloride, C6H15ClN2O2, InChI=1S/C6H14N2O2.ClH/c7-4-2-1-3-5(8)6(9)10;/h5H,1-4,7-8H2,(H,9,10);1H/t5-;/m0./s1
Compound 2: water, H2O, InChI=1S/H2O/h1H2
Compound 3: dimethyl sulfoxide, C2H6OS, InChI=1S/C2H6OS/c1-4(2)3/h1-2H3
Compound 4: 1,2-ethanediol, C2H6O2, InChI=1S/C2H6O2/c3-1-2-4/h3-4H,1-2H2
Compound 5: ethanol, C2H6O, InChI=1S/C2H6O/c1-2-3/h3H,2H2,1H3
Compound 6: methanol, CH4O, InChI=1S/CH4O/c1-2/h2H,1H3

System: L-lysine monohydrochloride; phases: Crystal, Liquid, Air at 1 atmosphere
Property: Normal melting temperature, K (Crystal); method: VISOBS
Normal melting temperature, K	uncertainty
536.15	1

System: L-lysine monohydrochloride + water; phases: Liquid, Crystal
Fixed: Pressure, kPa = 101
Property: Mole fraction of L-lysine monohydrochloride (Liquid); method: Laser Monitoring Observation
Temperature, K	Mole fraction of L-lysine monohydrochloride	uncertainty
283	0.0523535	0.00336
288.1	0.0573883	0.003685
292.9	0.0623231	0.004004
298.1	0.0659024	0.004236
302.8	0.0670463	0.004311
308	0.0761342	0.004905
313.3	0.0908354	0.005864
317.9	0.1019707	0.006592
323	0.1140436	0.007385
328.2	0.1252966	0.008127

System: dimethyl sulfoxide + L-lysine monohydrochloride; phases: Liquid, Crystal
Fixed: Pressure, kPa = 101
Property: Mole fraction of L-lysine monohydrochloride (Liquid); method: Laser Monitoring Observation
Temperature, K	Mole fraction of L-lysine monohydrochloride	uncertainty
282.8	0.0181888	0.001102
288.2	0.0248832	0.001504
293	0.0310582	0.001874
298.1	0.0370484	0.002233
303.3	0.0407403	0.002455
308.4	0.0451957	0.002723
312.8	0.0492493	0.002968
318.1	0.0544135	0.003278
323.2	0.0558905	0.003367
328.3	0.0593923	0.003578

System: 1,2-ethanediol + L-lysine monohydrochloride; phases: Liquid, Crystal
Fixed: Pressure, kPa = 101
Property: Mole fraction of L-lysine monohydrochloride (Liquid); method: Laser Monitoring Observation
Temperature, K	Mole fraction of L-lysine monohydrochloride	uncertainty
282.9	0.0077546	0.0004718
288	0.0108764	0.0006598
293.1	0.0147949	0.0008959
298.2	0.0186919	0.00113
303.2	0.0225247	0.001362
307.9	0.0266372	0.00161
312.9	0.0307541	0.001857
318	0.0337483	0.002037
322.7	0.0367287	0.002217
328.1	0.0391332	0.002362

System: ethanol + L-lysine monohydrochloride; phases: Liquid, Crystal
Fixed: Pressure, kPa = 101
Property: Mole fraction of L-lysine monohydrochloride (Liquid); method: Laser Monitoring Observation
Temperature, K	Mole fraction of L-lysine monohydrochloride	uncertainty
282.8	4.8e-06	3e-07
288.1	6.7e-06	4e-07
292.8	8.3e-06	5e-07
298.1	9.9e-06	6e-07
303	1.09e-05	7e-07
308.1	1.21e-05	7e-07
312.7	1.41e-05	9e-07
318.2	1.63e-05	1e-06
322.9	1.76e-05	1.1e-06
328.3	1.92e-05	1.2e-06

System: methanol + L-lysine monohydrochloride; phases: Liquid, Crystal
Fixed: Pressure, kPa = 101
Property: Mole fraction of L-lysine monohydrochloride (Liquid); method: Laser Monitoring Observation
Temperature, K	Mole fraction of L-lysine monohydrochloride	uncertainty
297.9	0.0002828	1.74e-05
303	0.0003677	2.26e-05
308.1	0.0004336	2.66e-05
312.8	0.0005007	3.07e-05
318.1	0.0005504	3.37e-05
323	0.0005922	3.63e-05
327.8	0.0006371	3.9e-05
