Measured thermophysical data. Densities and Viscosities of Binary Mixtures of Methyl 4-Chlorobutyrate with Aromatic Hydrocarbons at T ) (298.15 to 318.15) K
Source: J. Chem. Eng. Data, 2009, 10.1021/je900194v
Compound 1: benzene, C6H6, InChI=1S/C6H6/c1-2-4-6-5-3-1/h1-6H
Compound 2: toluene, C7H8, InChI=1S/C7H8/c1-7-5-3-2-4-6-7/h2-6H,1H3
Compound 3: 1,2-dimethylbenzene, C8H10, InChI=1S/C8H10/c1-7-5-3-4-6-8(7)2/h3-6H,1-2H3
Compound 4: 1,3-dimethylbenzene, C8H10, InChI=1S/C8H10/c1-7-4-3-5-8(2)6-7/h3-6H,1-2H3
Compound 5: 1,4-dimethylbenzene, C8H10, InChI=1S/C8H10/c1-7-3-5-8(2)6-4-7/h3-6H,1-2H3
Compound 6: methyl 4-chlorobutanoate, C5H9ClO2, InChI=1S/C5H9ClO2/c1-8-5(7)3-2-4-6/h2-4H2,1H3

System: benzene; phases: Liquid
Fixed: Pressure, kPa = 101
Property: Viscosity, Pa*s (Liquid); method: Capillary tube (Ostwald; Ubbelohde) method
Temperature, K	Viscosity, Pa*s	uncertainty
298.15	0.000603	7e-06
308.15	0.000533	7e-06
318.15	0.000466	7e-06

System: benzene; phases: Liquid
Fixed: Pressure, kPa = 101
Property: Mass density, kg/m3 (Liquid); method: Vibrating tube method
Temperature, K	Mass density, kg/m3	uncertainty
298.15	873.61	0.15
308.15	862.28	0.15
318.15	852.08	0.15

System: toluene; phases: Liquid
Fixed: Pressure, kPa = 101
Property: Viscosity, Pa*s (Liquid); method: Capillary tube (Ostwald; Ubbelohde) method
Temperature, K	Viscosity, Pa*s	uncertainty
308.15	0.000499	7e-06
318.15	0.000446	7e-06

System: toluene; phases: Liquid
Fixed: Pressure, kPa = 101
Property: Mass density, kg/m3 (Liquid); method: Vibrating tube method
Temperature, K	Mass density, kg/m3	uncertainty
298.15	862.18	0.19
308.15	852.81	0.19
318.15	843.4	0.19

System: 1,2-dimethylbenzene; phases: Liquid
Fixed: Pressure, kPa = 101
Property: Viscosity, Pa*s (Liquid); method: Capillary tube (Ostwald; Ubbelohde) method
Temperature, K	Viscosity, Pa*s	uncertainty
298.15	0.000758	8e-06
308.15	0.000665	7e-06
318.15	0.000589	7e-06

System: 1,2-dimethylbenzene; phases: Liquid
Fixed: Pressure, kPa = 101
Property: Mass density, kg/m3 (Liquid); method: Vibrating tube method
Temperature, K	Mass density, kg/m3	uncertainty
298.15	875.08	0.15
308.15	866.62	0.15
318.15	858.12	0.15

System: 1,3-dimethylbenzene; phases: Liquid
Fixed: Pressure, kPa = 101
Property: Viscosity, Pa*s (Liquid); method: Capillary tube (Ostwald; Ubbelohde) method
Temperature, K	Viscosity, Pa*s	uncertainty
298.15	0.000587	7e-06
308.15	0.000524	7e-06
318.15	0.000471	7e-06

System: 1,3-dimethylbenzene; phases: Liquid
Fixed: Pressure, kPa = 101
Property: Mass density, kg/m3 (Liquid); method: Vibrating tube method
Temperature, K	Mass density, kg/m3	uncertainty
298.15	859.83	0.18
308.15	851.19	0.18
318.15	842.49	0.18

System: 1,4-dimethylbenzene; phases: Liquid
Fixed: Pressure, kPa = 101
Property: Viscosity, Pa*s (Liquid); method: Capillary tube (Ostwald; Ubbelohde) method
Temperature, K	Viscosity, Pa*s	uncertainty
298.15	0.000609	7e-06
308.15	0.000541	7e-06
318.15	0.000484	7e-06

System: 1,4-dimethylbenzene; phases: Liquid
Fixed: Pressure, kPa = 101
Property: Mass density, kg/m3 (Liquid); method: Vibrating tube method
Temperature, K	Mass density, kg/m3	uncertainty
298.15	856.68	0.14
308.15	847.96	0.14
318.15	839.2	0.15

System: methyl 4-chlorobutanoate; phases: Liquid
Fixed: Pressure, kPa = 101
Property: Viscosity, Pa*s (Liquid); method: Capillary tube (Ostwald; Ubbelohde) method
Temperature, K	Viscosity, Pa*s	uncertainty
298.15	0.001519	1e-05
308.15	0.001279	9e-06
318.15	0.001089	9e-06

System: methyl 4-chlorobutanoate; phases: Liquid
Fixed: Pressure, kPa = 101
Property: Mass density, kg/m3 (Liquid); method: Vibrating tube method
Temperature, K	Mass density, kg/m3	uncertainty
298.15	1116.24	0.13
308.15	1105.22	0.13
308.15	1105.23	0.13
318.15	1094.13	0.12

System: benzene + methyl 4-chlorobutanoate; phases: Liquid
Fixed: Pressure, kPa = 101
Property: Viscosity, Pa*s (Liquid); method: Capillary tube (Ostwald; Ubbelohde) method
Temperature, K	Mole fraction of methyl 4-chlorobutanoate	Viscosity, Pa*s	uncertainty
298.15	0	0.000603	7e-06
298.15	0.1	0.000669	7e-06
298.15	0.2001	0.000731	8e-06
298.15	0.3	0.000799	8e-06
298.15	0.4001	0.000875	8e-06
298.15	0.5	0.00096	8e-06
298.15	0.5999	0.001054	9e-06
298.15	0.7	0.001157	9e-06
298.15	0.8	0.001271	9e-06
298.15	0.9	0.001391	1e-05
298.15	1	0.001519	1e-05
308.15	0	0.000533	7e-06
308.15	0.1	0.000579	7e-06
308.15	0.2001	0.000634	7e-06
308.15	0.3	0.00069	7e-06
308.15	0.4001	0.000754	8e-06
308.15	0.5	0.000828	8e-06
308.15	0.5999	0.000907	8e-06
308.15	0.7	0.00099	8e-06
308.15	0.8	0.00108	9e-06
308.15	0.9	0.00118	9e-06
308.15	1	0.001279	9e-06
318.15	0	0.000466	7e-06
318.15	0.1	0.000507	7e-06
318.15	0.2001	0.000553	7e-06
318.15	0.3	0.000601	7e-06
318.15	0.4001	0.000661	7e-06
318.15	0.5	0.000719	7e-06
318.15	0.5999	0.000785	8e-06
318.15	0.7	0.000853	8e-06
318.15	0.8	0.000927	8e-06
318.15	0.9	0.001007	8e-06
318.15	1	0.001089	9e-06

System: benzene + methyl 4-chlorobutanoate; phases: Liquid
Fixed: Pressure, kPa = 101
Property: Mass density, kg/m3 (Liquid); method: Vibrating tube method
Temperature, K	Mole fraction of methyl 4-chlorobutanoate	Mass density, kg/m3	uncertainty
298.15	0	873.61	0.15
298.15	0.1	905.57	0.14
298.15	0.2001	935.29	0.14
298.15	0.3	962.99	0.15
298.15	0.4001	989.08	0.16
298.15	0.5	1013.66	0.17
298.15	0.5999	1036.89	0.15
298.15	0.7	1058.82	0.14
298.15	0.8	1079.42	0.13
298.15	0.9	1098.6	0.13
298.15	1	1116.24	0.13
308.15	0	862.28	0.15
308.15	0.1	894.74	0.14
308.15	0.2001	924.42	0.14
308.15	0.3	952.12	0.15
308.15	0.4001	978.2	0.16
308.15	0.5	1002.77	0.17
308.15	0.5999	1026.01	0.15
308.15	0.7	1047.97	0.14
308.15	0.8	1068.49	0.13
308.15	0.9	1087.62	0.13
308.15	1	1105.22	0.13
318.15	0	852.08	0.15
318.15	0.1	883.87	0.15
318.15	0.2001	913.49	0.15
318.15	0.3	941.13	0.15
318.15	0.4001	967.18	0.16
318.15	0.5	991.75	0.17
318.15	0.5999	1014.99	0.15
318.15	0.7	1036.94	0.13
318.15	0.8	1057.55	0.13
318.15	0.9	1076.65	0.12
318.15	1	1094.13	0.12

System: toluene + methyl 4-chlorobutanoate; phases: Liquid
Fixed: Pressure, kPa = 101
Property: Viscosity, Pa*s (Liquid); method: Capillary tube (Ostwald; Ubbelohde) method
Temperature, K	Mole fraction of methyl 4-chlorobutanoate	Viscosity, Pa*s	uncertainty
298.15	0	0.000561	7e-06
298.15	0.1	0.000614	7e-06
298.15	0.2	0.00068	8e-06
298.15	0.3	0.000753	8e-06
298.15	0.4001	0.000829	8e-06
298.15	0.5	0.000919	8e-06
298.15	0.6	0.001021	9e-06
298.15	0.7	0.001123	9e-06
298.15	0.8	0.001246	9e-06
298.15	0.8998	0.00138	1e-05
298.15	1	0.001519	1e-05
308.15	0	0.000499	7e-06
308.15	0.1	0.000551	7e-06
308.15	0.2	0.000599	7e-06
308.15	0.3	0.000662	8e-06
308.15	0.4001	0.000731	8e-06
308.15	0.5	0.000796	8e-06
308.15	0.6	0.000883	8e-06
308.15	0.7	0.000962	8e-06
308.15	0.8	0.001062	9e-06
308.15	0.8998	0.00117	9e-06
308.15	1	0.001279	9e-06
318.15	0	0.000446	7e-06
318.15	0.1	0.000486	7e-06
318.15	0.2	0.00053	7e-06
318.15	0.3	0.000582	7e-06
318.15	0.4001	0.000635	7e-06
318.15	0.5	0.0007	8e-06
318.15	0.6	0.000767	8e-06
318.15	0.7	0.000831	8e-06
318.15	0.8	0.000913	8e-06
318.15	0.8998	0.001001	8e-06
318.15	1	0.001089	9e-06

System: toluene + methyl 4-chlorobutanoate; phases: Liquid
Fixed: Pressure, kPa = 101
Property: Mass density, kg/m3 (Liquid); method: Vibrating tube method
Temperature, K	Mole fraction of methyl 4-chlorobutanoate	Mass density, kg/m3	uncertainty
298.15	0	862.18	0.19
298.15	0.1	891.28	0.18
298.15	0.2	919.47	0.17
298.15	0.3	946.73	0.17
298.15	0.4001	973.21	0.17
298.15	0.5	998.81	0.18
298.15	0.6	1023.69	0.16
298.15	0.7	1047.84	0.14
298.15	0.8	1071.31	0.13
298.15	0.8998	1094.05	0.13
298.15	1	1116.24	0.13
308.15	0	852.81	0.19
308.15	0.1	881.71	0.18
308.15	0.2	909.69	0.17
308.15	0.3	936.79	0.17
308.15	0.4001	963.07	0.17
308.15	0.5	988.49	0.18
308.15	0.6	1013.23	0.16
308.15	0.7	1037.22	0.14
308.15	0.8	1060.54	0.13
308.15	0.8998	1083.16	0.13
308.15	1	1105.22	0.13
318.15	0	843.4	0.19
318.15	0.1	872.09	0.18
318.15	0.2	899.87	0.18
318.15	0.3	926.77	0.17
318.15	0.4001	952.89	0.17
318.15	0.5	978.14	0.18
318.15	0.6	1002.74	0.15
318.15	0.7	1026.57	0.14
318.15	0.8	1049.74	0.13
318.15	0.8998	1072.21	0.13
318.15	1	1094.13	0.12

System: 1,2-dimethylbenzene + methyl 4-chlorobutanoate; phases: Liquid
Fixed: Pressure, kPa = 101
Property: Viscosity, Pa*s (Liquid); method: Capillary tube (Ostwald; Ubbelohde) method
Temperature, K	Mole fraction of methyl 4-chlorobutanoate	Viscosity, Pa*s	uncertainty
298.15	0	0.000758	8e-06
298.15	0.1	0.000814	8e-06
298.15	0.2001	0.000872	8e-06
298.15	0.3	0.000935	8e-06
298.15	0.3998	0.001001	8e-06
298.15	0.4992	0.001074	9e-06
298.15	0.6	0.001153	9e-06
298.15	0.7	0.001235	9e-06
298.15	0.8	0.001322	1e-05
298.15	0.9	0.001415	1e-05
298.15	1	0.001519	1e-05
308.15	0	0.000665	7e-06
308.15	0.1	0.00071	8e-06
308.15	0.2001	0.000757	8e-06
308.15	0.3	0.000808	8e-06
308.15	0.3998	0.000863	8e-06
308.15	0.4992	0.00092	8e-06
308.15	0.6	0.000983	8e-06
308.15	0.7	0.00105	9e-06
308.15	0.8	0.00112	9e-06
308.15	0.9	0.001194	9e-06
308.15	1	0.001279	9e-06
318.15	0	0.000589	7e-06
318.15	0.1	0.000627	7e-06
318.15	0.2001	0.000688	7e-06
318.15	0.3	0.000707	7e-06
318.15	0.3998	0.000752	8e-06
318.15	0.4992	0.0008	8e-06
318.15	0.6	0.000855	8e-06
318.15	0.7	0.000907	8e-06
318.15	0.8	0.000965	8e-06
318.15	0.9	0.001025	8e-06
318.15	1	0.001089	9e-06

System: 1,2-dimethylbenzene + methyl 4-chlorobutanoate; phases: Liquid
Fixed: Pressure, kPa = 101
Property: Mass density, kg/m3 (Liquid); method: Vibrating tube method
Temperature, K	Mole fraction of methyl 4-chlorobutanoate	Mass density, kg/m3	uncertainty
298.15	0	875.08	0.15
298.15	0.1	899.36	0.14
298.15	0.2001	923.55	0.14
298.15	0.3	947.67	0.15
298.15	0.3998	971.75	0.15
298.15	0.4992	995.83	0.17
298.15	0.6	1020.27	0.15
298.15	0.7	1044.53	0.14
298.15	0.8	1068.71	0.13
298.15	0.9	1092.68	0.13
298.15	1	1116.24	0.13
308.15	0	866.62	0.15
308.15	0.1	890.63	0.14
308.15	0.2001	914.54	0.14
308.15	0.3	938.39	0.15
308.15	0.3998	962.19	0.15
308.15	0.4992	985.99	0.17
308.15	0.6	1010.17	0.15
308.15	0.7	1034.19	0.14
308.15	0.8	1058.13	0.13
308.15	0.9	1081.88	0.13
308.15	1	1105.22	0.13
318.15	0	858.12	0.15
318.15	0.1	881.84	0.15
318.15	0.2001	905.46	0.14
318.15	0.3	929.03	0.15
318.15	0.3998	952.59	0.16
318.15	0.4992	976.14	0.17
318.15	0.6	1000.07	0.15
318.15	0.7	1023.83	0.14
318.15	0.8	1047.53	0.13
318.15	0.9	1071.02	0.12
318.15	1	1094.13	0.12

System: 1,3-dimethylbenzene + methyl 4-chlorobutanoate; phases: Liquid
Fixed: Pressure, kPa = 101
Property: Viscosity, Pa*s (Liquid); method: Capillary tube (Ostwald; Ubbelohde) method
Temperature, K	Mole fraction of methyl 4-chlorobutanoate	Viscosity, Pa*s	uncertainty
298.15	0	0.000587	7e-06
298.15	0.0999	0.000639	7e-06
298.15	0.1999	0.0007	8e-06
298.15	0.2999	0.000769	8e-06
298.15	0.399	0.000843	8e-06
298.15	0.4999	0.000928	8e-06
298.15	0.5995	0.001022	9e-06
298.15	0.6996	0.001128	9e-06
298.15	0.7992	0.001238	9e-06
298.15	0.8999	0.001368	1e-05
298.15	1	0.001519	1e-05
308.15	0	0.000524	7e-06
308.15	0.0999	0.000571	7e-06
308.15	0.1999	0.000624	7e-06
308.15	0.2999	0.000674	7e-06
308.15	0.399	0.000737	8e-06
308.15	0.4999	0.000807	8e-06
308.15	0.5995	0.000882	8e-06
308.15	0.6996	0.000966	8e-06
308.15	0.7992	0.001062	9e-06
308.15	0.8999	0.001163	9e-06
308.15	1	0.001279	9e-06
318.15	0	0.000471	7e-06
318.15	0.0999	0.000512	7e-06
318.15	0.1999	0.00055	7e-06
318.15	0.2999	0.000596	7e-06
318.15	0.399	0.000649	7e-06
318.15	0.4999	0.000706	8e-06
318.15	0.5995	0.00077	8e-06
318.15	0.6996	0.000839	8e-06
318.15	0.7992	0.00092	8e-06
318.15	0.8999	0.001004	8e-06
318.15	1	0.001089	9e-06

System: 1,3-dimethylbenzene + methyl 4-chlorobutanoate; phases: Liquid
Fixed: Pressure, kPa = 101
Property: Mass density, kg/m3 (Liquid); method: Vibrating tube method
Temperature, K	Mole fraction of methyl 4-chlorobutanoate	Mass density, kg/m3	uncertainty
298.15	0	859.83	0.18
298.15	0.0999	885.23	0.17
298.15	0.1999	910.66	0.16
298.15	0.2999	936.14	0.16
298.15	0.399	961.41	0.17
298.15	0.4999	987.21	0.18
298.15	0.5995	1012.73	0.16
298.15	0.6996	1038.43	0.14
298.15	0.7992	1064.11	0.13
298.15	0.8999	1090.15	0.13
298.15	1	1116.24	0.13
308.15	0	851.19	0.18
308.15	0.0999	876.33	0.17
308.15	0.1999	901.49	0.16
308.15	0.2999	926.72	0.16
308.15	0.399	951.74	0.17
308.15	0.4999	977.32	0.18
308.15	0.5995	1002.6	0.16
308.15	0.6996	1028.06	0.14
308.15	0.7992	1053.51	0.13
308.15	0.8999	1079.3	0.13
308.15	1	1105.22	0.13
318.15	0	842.49	0.18
318.15	0.0999	867.38	0.17
318.15	0.1999	892.27	0.16
318.15	0.2999	917.26	0.16
318.15	0.399	942.03	0.17
318.15	0.4999	967.37	0.18
318.15	0.5995	992.39	0.16
318.15	0.6996	1017.63	0.14
318.15	0.7992	1042.83	0.13
318.15	0.8999	1068.38	0.12
318.15	1	1094.13	0.12

System: 1,4-dimethylbenzene + methyl 4-chlorobutanoate; phases: Liquid
Fixed: Pressure, kPa = 101
Property: Viscosity, Pa*s (Liquid); method: Capillary tube (Ostwald; Ubbelohde) method
Temperature, K	Mole fraction of methyl 4-chlorobutanoate	Viscosity, Pa*s	uncertainty
298.15	0	0.000609	7e-06
298.15	0.0999	0.000662	7e-06
298.15	0.2001	0.000714	7e-06
298.15	0.3	0.000775	8e-06
298.15	0.4001	0.000847	8e-06
298.15	0.4999	0.000927	8e-06
298.15	0.6	0.001023	8e-06
298.15	0.7	0.001133	9e-06
298.15	0.8	0.001255	9e-06
298.15	0.9	0.001385	1e-05
298.15	1	0.001519	1e-05
308.15	0	0.000541	7e-06
308.15	0.0999	0.000586	7e-06
308.15	0.2001	0.000629	7e-06
308.15	0.3	0.000679	7e-06
308.15	0.4001	0.000738	8e-06
308.15	0.4999	0.000806	8e-06
308.15	0.6	0.000886	8e-06
308.15	0.7	0.000978	8e-06
308.15	0.8	0.001077	9e-06
308.15	0.9	0.001179	9e-06
308.15	1	0.001279	9e-06
318.15	0	0.000484	7e-06
318.15	0.0999	0.000522	7e-06
318.15	0.2001	0.000561	7e-06
318.15	0.3	0.0006	7e-06
318.15	0.4001	0.000651	7e-06
318.15	0.4999	0.000705	7e-06
318.15	0.6	0.000772	8e-06
318.15	0.7	0.000846	8e-06
318.15	0.8	0.000926	8e-06
318.15	0.9	0.001008	8e-06
318.15	1	0.001089	9e-06

System: 1,4-dimethylbenzene + methyl 4-chlorobutanoate; phases: Liquid
Fixed: Pressure, kPa = 101
Property: Mass density, kg/m3 (Liquid); method: Vibrating tube method
Temperature, K	Mole fraction of methyl 4-chlorobutanoate	Mass density, kg/m3	uncertainty
298.15	0	856.68	0.14
298.15	0.0999	882.47	0.14
298.15	0.2001	908.43	0.14
298.15	0.3	934.33	0.15
298.15	0.4001	960.27	0.16
298.15	0.4999	986.16	0.17
298.15	0.6	1012.09	0.15
298.15	0.7	1038.03	0.14
298.15	0.8	1063.99	0.13
298.15	0.9	1090.06	0.13
298.15	1	1116.24	0.13
308.15	0	847.96	0.14
308.15	0.0999	873.48	0.14
308.15	0.2001	899.17	0.14
308.15	0.3	924.84	0.15
308.15	0.4001	950.54	0.16
308.15	0.4999	976.2	0.17
308.15	0.6	1001.91	0.15
308.15	0.7	1027.62	0.14
308.15	0.8	1053.37	0.13
308.15	0.9	1079.25	0.12
308.15	1	1105.23	0.13
318.15	0	839.2	0.15
318.15	0.0999	864.45	0.14
318.15	0.2001	889.87	0.14
318.15	0.3	915.3	0.15
318.15	0.4001	940.77	0.16
318.15	0.4999	966.2	0.17
318.15	0.6	991.69	0.15
318.15	0.7	1017.19	0.14
318.15	0.8	1042.71	0.13
318.15	0.9	1068.37	0.12
318.15	1	1094.13	0.12
