Measured thermophysical data. Measurement and Correlation of the Vapor Pressure of Methylethoxydichlorosilane
Source: J. Chem. Eng. Data, 2010, 10.1021/je900511c
Compound 1: dichloroethoxymethylsilane, C3H8Cl2OSi, InChI=1S/C3H8Cl2OSi/c1-3-6-7(2,4)5/h3H2,1-2H3

System: dichloroethoxymethylsilane; phases: Liquid, Gas
Property: Vapor or sublimation pressure, kPa (Liquid); method: Closed cell (Static) method
Temperature, K	Vapor or sublimation pressure, kPa	uncertainty
312.94	11.325	0.119
318.43	14.325	0.129
323.01	17.325	0.15
326.93	20.325	0.174
330.24	23.325	0.197
333.29	26.325	0.21
336.2	29.325	0.225
338.84	32.325	0.246
341.28	35.325	0.264
343.57	38.325	0.284
345.66	41.325	0.312
347.54	44.325	0.325
349.48	47.325	0.326
351.36	50.325	0.349
353.04	53.325	0.37
354.72	56.325	0.387
356.25	59.325	0.401
357.82	62.325	0.414
359.25	65.325	0.451
360.57	68.325	0.46
361.95	71.325	0.469
363.22	74.325	0.472
364.59	77.325	0.472
365.87	80.325	0.52
366.98	83.325	0.532
368.21	86.325	0.521
369.38	89.325	0.546
370.5	92.325	0.585
371.51	95.325	0.599
372.58	98.325	0.593
373.6	101.266	0.602
