Measured thermophysical data. Ultrasonic Velocities and Densities of l-Histidine or l-Glutamic Acid or l-Tryptophan or Glycylglycine + 2 mol*L-1 Aqueous KCl or KNO3 Solutions from (298.15 to 323.15) K
Source: J. Chem. Eng. Data, 2009, 10.1021/je900199j
Compound 1: potassium chloride, ClK, InChI=1S/ClH.K/h1H;/q;+1/p-1
Compound 2: water, H2O, InChI=1S/H2O/h1H2
Compound 3: potassium nitrate, KNO3, InChI=1S/K.NO3/c;2-1(3)4/q+1;-1
Compound 4: L-histidine, C6H9N3O2, InChI=1S/C6H9N3O2/c7-5(6(10)11)1-4-2-8-3-9-4/h2-3,5H,1,7H2,(H,8,9)(H,10,11)/t5-/m0/s1
Compound 5: L-glutamic acid, C5H9NO4, InChI=1S/C5H9NO4/c6-3(5(9)10)1-2-4(7)8/h3H,1-2,6H2,(H,7,8)(H,9,10)/t3-/m0/s1
Compound 6: L-tryptophan, C11H12N2O2, InChI=1S/C11H12N2O2/c12-9(11(14)15)5-7-6-13-10-4-2-1-3-8(7)10/h1-4,6,9,13H,5,12H2,(H,14,15)/t9-/m0/s1
Compound 7: glycylglycine, C4H8N2O3, InChI=1S/C4H8N2O3/c5-1-3(7)6-2-4(8)9/h1-2,5H2,(H,6,7)(H,8,9)

System: L-histidine + potassium chloride + water; phases: Liquid
Fixed: Pressure, kPa = 101
Fixed: Solvent: Molality, mol/kg of potassium chloride = 2.13
Fixed: Frequency, MHz = 4
Property: Speed of sound, m/s (Liquid); method: LVPAI:UFactor:2
Temperature, K	Molality, mol/kg of L-histidine	Speed of sound, m/s	uncertainty
298.15	0	1592.8	4.2
298.15	0.0277	1595.6	4.3
298.15	0.0555	1597.2	4.3
298.15	0.0836	1599.2	4.3
298.15	0.1117	1600.8	4.3
298.15	0.14	1602.8	4.3
298.15	0.1686	1604.8	4.3
298.15	0.1974	1606.4	4.3
298.15	0.2263	1608.4	4.3
303.15	0	1600.4	4.3
303.15	0.0277	1604	4.3
303.15	0.0555	1605.6	4.3
303.15	0.0836	1607.6	4.3
303.15	0.1117	1609.6	4.3
303.15	0.14	1611.6	4.3
303.15	0.1686	1613.6	4.3
303.15	0.1974	1615.6	4.3
303.15	0.2263	1618	4.3
308.15	0	1608	4.3
308.15	0.0277	1610.4	4.3
308.15	0.0555	1612.8	4.3
308.15	0.0836	1615.2	4.3
308.15	0.1117	1617.2	4.3
308.15	0.14	1618.8	4.3
308.15	0.1686	1620.4	4.3
308.15	0.1974	1622.4	4.3
308.15	0.2263	1624.4	4.3
313.15	0	1614	4.3
313.15	0.0277	1616.8	4.3
313.15	0.0555	1618.4	4.3
313.15	0.0836	1620.8	4.3
313.15	0.1117	1622.4	4.3
313.15	0.14	1623.6	4.3
313.15	0.1686	1625.6	4.3
313.15	0.1974	1626.8	4.3
313.15	0.2263	1629.2	4.3
318.15	0	1617.2	4.3
318.15	0.0277	1621.4	4.3
318.15	0.0555	1623.4	4.3
318.15	0.0836	1624.8	4.3
318.15	0.1117	1626.4	4.3
318.15	0.14	1628	4.3
318.15	0.1686	1630.4	4.3
318.15	0.1974	1632	4.3
318.15	0.2263	1633.6	4.3
323.15	0	1622	4.3
323.15	0.0277	1625.2	4.3
323.15	0.0555	1626.4	4.3
323.15	0.0836	1628.4	4.3
323.15	0.1117	1630.4	4.3
323.15	0.14	1632	4.3
323.15	0.1686	1634	4.3
323.15	0.1974	1636	4.3
323.15	0.2263	1637.6	4.3

System: L-histidine + potassium chloride + water; phases: Liquid
Fixed: Pressure, kPa = 101
Fixed: Solvent: Molality, mol/kg of potassium chloride = 2.13
Property: Mass density, kg/m3 (Liquid); method: PYCNOM:UFactor:2
Temperature, K	Molality, mol/kg of L-histidine	Mass density, kg/m3	uncertainty
298.15	0	1087.7	0.9
298.15	0.0277	1088.3	0.9
298.15	0.0555	1089.6	0.9
298.15	0.0836	1090.9	0.9
298.15	0.1117	1092.6	0.9
298.15	0.14	1094.4	0.9
298.15	0.1686	1095.3	0.9
298.15	0.1974	1096.6	0.9
298.15	0.2263	1097.9	0.9
303.15	0	1085.7	0.9
303.15	0.0277	1086.5	0.9
303.15	0.0555	1087.7	0.9
303.15	0.0836	1089	0.9
303.15	0.1117	1090.6	0.9
303.15	0.14	1092.3	0.9
303.15	0.1686	1093.3	0.9
303.15	0.1974	1094.5	0.9
303.15	0.2263	1095.8	0.9
308.15	0	1083.6	1
308.15	0.0277	1084.4	1
308.15	0.0555	1085.7	1
308.15	0.0836	1087	1
308.15	0.1117	1088.5	1
308.15	0.14	1090.1	1
308.15	0.1686	1091.2	1
308.15	0.1974	1092.2	1
308.15	0.2263	1093.5	1
313.15	0	1081.3	1
313.15	0.0277	1082.1	1
313.15	0.0555	1083.4	1
313.15	0.0836	1084.7	1
313.15	0.1117	1086.1	1
313.15	0.14	1087.8	1
313.15	0.1686	1088.9	1
313.15	0.1974	1089.8	1
313.15	0.2263	1091.1	1
318.15	0	1078.8	1
318.15	0.0277	1079.5	1
318.15	0.0555	1080.9	1
318.15	0.0836	1082.3	1
318.15	0.1117	1083.7	1
318.15	0.14	1085.3	1
318.15	0.1686	1086.4	1
318.15	0.1974	1087.3	1
318.15	0.2263	1088.6	1
323.15	0	1076.1	1.1
323.15	0.0277	1076.8	1
323.15	0.0555	1078.3	1.1
323.15	0.0836	1079.6	1.1
323.15	0.1117	1081	1.1
323.15	0.14	1082.7	1.1
323.15	0.1686	1083.8	1.1
323.15	0.1974	1084.7	1.1
323.15	0.2263	1086	1.1

System: L-glutamic acid + potassium chloride + water; phases: Liquid
Fixed: Pressure, kPa = 101
Fixed: Solvent: Molality, mol/kg of potassium chloride = 2.13
Fixed: Frequency, MHz = 4
Property: Speed of sound, m/s (Liquid); method: LVPAI:UFactor:2
Temperature, K	Molality, mol/kg of L-glutamic acid	Speed of sound, m/s	uncertainty
298.15	0	1592.8	4.2
298.15	0.0092	1594	4.2
298.15	0.0184	1594.4	4.2
298.15	0.0277	1594.8	4.3
298.15	0.0369	1595.2	4.3
298.15	0.0462	1596	4.3
298.15	0.0555	1596.4	4.3
303.15	0	1600.4	4.3
303.15	0.0092	1600.8	4.3
303.15	0.0184	1601.2	4.3
303.15	0.0277	1601.6	4.3
303.15	0.0369	1602	4.3
303.15	0.0462	1602.4	4.3
303.15	0.0555	1603.2	4.3
308.15	0	1608	4.3
308.15	0.0092	1608.4	4.3
308.15	0.0184	1608.8	4.3
308.15	0.0277	1609.2	4.3
308.15	0.0369	1609.6	4.3
308.15	0.0462	1610	4.3
308.15	0.0555	1610.4	4.3
313.15	0	1614	4.3
313.15	0.0092	1614.4	4.3
313.15	0.0184	1614.8	4.3
313.15	0.0277	1615.2	4.3
313.15	0.0369	1615.6	4.3
313.15	0.0462	1616	4.3
313.15	0.0555	1616.8	4.3
318.15	0	1617.2	4.3
318.15	0.0092	1617.8	4.3
318.15	0.0184	1618.4	4.3
318.15	0.0277	1618.8	4.3
318.15	0.0369	1619.6	4.3
318.15	0.0462	1620	4.3
318.15	0.0555	1620.4	4.3
323.15	0	1622	4.3
323.15	0.0092	1622.4	4.3
323.15	0.0184	1623.2	4.3
323.15	0.0277	1624	4.3
323.15	0.0369	1624.8	4.3
323.15	0.0462	1625.6	4.3
323.15	0.0555	1626.4	4.3

System: L-glutamic acid + potassium chloride + water; phases: Liquid
Fixed: Pressure, kPa = 101
Fixed: Solvent: Molality, mol/kg of potassium chloride = 2.13
Property: Mass density, kg/m3 (Liquid); method: PYCNOM:UFactor:2
Temperature, K	Molality, mol/kg of L-glutamic acid	Mass density, kg/m3	uncertainty
298.15	0	1087.7	0.9
298.15	0.0092	1087.9	0.9
298.15	0.0184	1088.1	0.9
298.15	0.0277	1088.4	0.9
298.15	0.0369	1088.7	0.9
298.15	0.0462	1089.3	0.9
298.15	0.0555	1090.2	0.9
303.15	0	1085.7	0.9
303.15	0.0092	1085.9	0.9
303.15	0.0184	1086.1	0.9
303.15	0.0277	1086.5	0.9
303.15	0.0369	1086.8	0.9
303.15	0.0462	1087.5	0.9
303.15	0.0555	1088.3	0.9
308.15	0	1083.6	1
308.15	0.0092	1083.7	1
308.15	0.0184	1084	1
308.15	0.0277	1084.4	1
308.15	0.0369	1084.7	1
308.15	0.0462	1085.5	1
308.15	0.0555	1086.2	1
313.15	0	1081.3	1
313.15	0.0092	1081.5	1
313.15	0.0184	1081.7	1
313.15	0.0277	1082.2	1
313.15	0.0369	1082.5	1
313.15	0.0462	1083.3	1
313.15	0.0555	1083.9	1
318.15	0	1078.8	1
318.15	0.0092	1079	1
318.15	0.0184	1079.3	1
318.15	0.0277	1079.7	1
318.15	0.0369	1080	1
318.15	0.0462	1080.8	1
318.15	0.0555	1081.5	1
323.15	0	1076.1	1.1
323.15	0.0092	1076.5	1.1
323.15	0.0184	1076.7	1.1
323.15	0.0277	1077.1	1.1
323.15	0.0369	1077.4	1
323.15	0.0462	1078.1	1.1
323.15	0.0555	1078.8	1.1

System: L-tryptophan + potassium chloride + water; phases: Liquid
Fixed: Pressure, kPa = 101
Fixed: Solvent: Molality, mol/kg of potassium chloride = 2.13
Fixed: Frequency, MHz = 4
Property: Speed of sound, m/s (Liquid); method: LVPAI:UFactor:2
Temperature, K	Molality, mol/kg of L-tryptophan	Speed of sound, m/s	uncertainty
298.15	0	1592.8	4.2
298.15	0.009	1593.6	4.2
298.15	0.0138	1594	4.2
298.15	0.0184	1594.4	4.3
298.15	0.0231	1595.2	4.3
298.15	0.0277	1596	4.3
298.15	0.0323	1596.8	4.3
298.15	0.037	1597.6	4.3
303.15	0	1600.4	4.3
303.15	0.009	1601.6	4.3
303.15	0.0138	1602	4.3
303.15	0.0184	1603.2	4.3
303.15	0.0231	1604	4.3
303.15	0.0277	1604.8	4.3
303.15	0.0323	1605.6	4.3
303.15	0.037	1606.4	4.3
308.15	0	1608	4.3
308.15	0.009	1608.8	4.3
308.15	0.0138	1609.6	4.3
308.15	0.0184	1610	4.3
308.15	0.0231	1610.4	4.3
308.15	0.0277	1610.8	4.3
308.15	0.0323	1611.6	4.3
308.15	0.037	1612	4.3
313.15	0	1614	4.3
313.15	0.009	1614.8	4.3
313.15	0.0138	1615.2	4.3
313.15	0.0184	1615.6	4.3
313.15	0.0231	1616	4.3
313.15	0.0277	1616.8	4.3
313.15	0.0323	1617.6	4.3
313.15	0.037	1618.4	4.3
318.15	0	1617.2	4.3
318.15	0.009	1620	4.3
318.15	0.0138	1620.4	4.3
318.15	0.0184	1620.8	4.3
318.15	0.0231	1621.6	4.3
318.15	0.0277	1622.4	4.3
318.15	0.0323	1622.8	4.3
318.15	0.037	1623.6	4.3
323.15	0	1622	4.3
323.15	0.009	1623.6	4.3
323.15	0.0138	1624	4.3
323.15	0.0184	1624.4	4.3
323.15	0.0231	1625.2	4.3
323.15	0.0277	1626	4.3
323.15	0.0323	1626.4	4.3
323.15	0.037	1627.6	4.3

System: L-tryptophan + potassium chloride + water; phases: Liquid
Fixed: Pressure, kPa = 101
Fixed: Solvent: Molality, mol/kg of potassium chloride = 2.13
Property: Mass density, kg/m3 (Liquid); method: PYCNOM:UFactor:2
Temperature, K	Molality, mol/kg of L-tryptophan	Mass density, kg/m3	uncertainty
298.15	0	1087.7	0.9
298.15	0.009	1087.9	0.9
298.15	0.0138	1088.1	0.9
298.15	0.0184	1088.2	0.9
298.15	0.0231	1088.6	0.9
298.15	0.0277	1089	0.9
298.15	0.0323	1089.4	0.9
298.15	0.037	1089.5	0.9
303.15	0	1085.7	0.9
303.15	0.009	1086	0.9
303.15	0.0138	1086.2	0.9
303.15	0.0184	1086.4	0.9
303.15	0.0231	1086.7	0.9
303.15	0.0277	1087	0.9
303.15	0.0323	1087.3	0.9
303.15	0.037	1087.4	0.9
308.15	0	1083.6	1
308.15	0.009	1083.8	1
308.15	0.0138	1084.1	1
308.15	0.0184	1084.3	1
308.15	0.0231	1084.6	1
308.15	0.0277	1084.7	1
308.15	0.0323	1085.1	1
308.15	0.037	1085.3	1
313.15	0	1081.3	1
313.15	0.009	1081.6	1
313.15	0.0138	1081.9	1
313.15	0.0184	1082.1	1
313.15	0.0231	1082.3	1
313.15	0.0277	1082.4	1
313.15	0.0323	1082.8	1
313.15	0.037	1082.9	1
318.15	0	1078.8	1
318.15	0.009	1079.1	1
318.15	0.0138	1079.4	1
318.15	0.0184	1079.6	1
318.15	0.0231	1079.8	1
318.15	0.0277	1079.9	1
318.15	0.0323	1080.3	1
318.15	0.037	1080.5	1
323.15	0	1076.1	1.1
323.15	0.009	1076.4	1.1
323.15	0.0138	1076.7	1.1
323.15	0.0184	1077	1.1
323.15	0.0231	1077.1	1.1
323.15	0.0277	1077.3	1.1
323.15	0.0323	1077.7	1.1
323.15	0.037	1077.9	1.1

System: glycylglycine + potassium chloride + water; phases: Liquid
Fixed: Pressure, kPa = 101
Fixed: Solvent: Molality, mol/kg of potassium chloride = 2.13
Fixed: Frequency, MHz = 4
Property: Speed of sound, m/s (Liquid); method: LVPAI:UFactor:2
Temperature, K	Molality, mol/kg of glycylglycine	Speed of sound, m/s	uncertainty
298.15	0	1592.8	4.2
298.15	0.0184	1594	4.2
298.15	0.0369	1596.4	4.3
298.15	0.0554	1598.5	4.3
298.15	0.074	1599.6	4.3
298.15	0.0927	1600.8	4.3
298.15	0.1114	1602.4	4.3
298.15	0.1302	1603.2	4.3
298.15	0.1491	1604.4	4.3
303.15	0	1600.4	4.3
303.15	0.0184	1601.2	4.3
303.15	0.0369	1603.2	4.3
303.15	0.0554	1605.6	4.3
303.15	0.074	1607.5	4.3
303.15	0.0927	1608.8	4.3
303.15	0.1114	1609.6	4.3
303.15	0.1302	1610.4	4.3
303.15	0.1491	1611.2	4.3
308.15	0	1608	4.3
308.15	0.0184	1609.2	4.3
308.15	0.0369	1610.4	4.3
308.15	0.0554	1612.7	4.3
308.15	0.074	1613.2	4.3
308.15	0.0927	1614.4	4.3
308.15	0.1114	1615.6	4.3
308.15	0.1302	1616.8	4.3
308.15	0.1491	1617.8	4.3
313.15	0	1614	4.3
313.15	0.0184	1614.9	4.3
313.15	0.0369	1616.4	4.3
313.15	0.0554	1617.7	4.3
313.15	0.074	1618.4	4.3
313.15	0.0927	1620.2	4.3
313.15	0.1114	1622.4	4.3
313.15	0.1302	1623.3	4.3
313.15	0.1491	1624.4	4.3
318.15	0	1617.2	4.3
318.15	0.0184	1621.6	4.3
318.15	0.0369	1622.4	4.3
318.15	0.0554	1623.6	4.3
318.15	0.074	1624.4	4.3
318.15	0.0927	1626	4.3
318.15	0.1114	1627.2	4.3
318.15	0.1302	1628	4.3
318.15	0.1491	1628.8	4.3
323.15	0	1622	4.3
323.15	0.0184	1625.2	4.3
323.15	0.0369	1626	4.3
323.15	0.0554	1627.6	4.3
323.15	0.074	1628.4	4.3
323.15	0.0927	1629.2	4.3
323.15	0.1114	1630.4	4.3
323.15	0.1302	1630.8	4.3
323.15	0.1491	1632.4	4.3

System: glycylglycine + potassium chloride + water; phases: Liquid
Fixed: Pressure, kPa = 101
Fixed: Solvent: Molality, mol/kg of potassium chloride = 2.13
Property: Mass density, kg/m3 (Liquid); method: PYCNOM:UFactor:2
Temperature, K	Molality, mol/kg of glycylglycine	Mass density, kg/m3	uncertainty
298.15	0	1087.7	0.9
298.15	0.0184	1088.1	0.9
298.15	0.0369	1089	0.9
298.15	0.0554	1090.2	0.9
298.15	0.074	1091.1	0.9
298.15	0.0927	1092.3	0.9
298.15	0.1114	1092.8	0.9
298.15	0.1302	1093.5	0.9
298.15	0.1491	1093.5	0.9
303.15	0	1085.7	0.9
303.15	0.0184	1086.2	0.9
303.15	0.0369	1087.1	0.9
303.15	0.0554	1088.1	0.9
303.15	0.074	1089	0.9
303.15	0.0927	1089.9	0.9
303.15	0.1114	1090.5	0.9
303.15	0.1302	1091.5	0.9
303.15	0.1491	1092.2	0.9
308.15	0	1083.6	1
308.15	0.0184	1084.1	1
308.15	0.0369	1085	1
308.15	0.0554	1085.9	1
308.15	0.074	1086.8	1
308.15	0.0927	1087.5	1
308.15	0.1114	1088.1	1
308.15	0.1302	1089.3	1
308.15	0.1491	1090	1
313.15	0	1081.3	1
313.15	0.0184	1081.9	1
313.15	0.0369	1082.8	1
313.15	0.0554	1083.6	1
313.15	0.074	1084.5	1
313.15	0.0927	1085.2	1
313.15	0.1114	1085.7	1
313.15	0.1302	1087	1
313.15	0.1491	1087.7	1
318.15	0	1078.8	1
318.15	0.0184	1079.5	1
318.15	0.0369	1080.4	1
318.15	0.0554	1081.2	1
318.15	0.074	1082	1
318.15	0.0927	1082.7	1
318.15	0.1114	1083.2	1
318.15	0.1302	1084.5	1
318.15	0.1491	1085.2	1
323.15	0	1076.1	1.1
323.15	0.0184	1076.9	1.1
323.15	0.0369	1077.8	1.1
323.15	0.0554	1078.6	1.1
323.15	0.074	1079.4	1.1
323.15	0.0927	1080.2	1.1
323.15	0.1114	1080.7	1
323.15	0.1302	1081.9	1.1
323.15	0.1491	1082.6	1.1

System: L-histidine + water + potassium nitrate; phases: Liquid
Fixed: Pressure, kPa = 101
Fixed: Solvent: Molality, mol/kg of potassium nitrate = 2.19
Fixed: Frequency, MHz = 4
Property: Speed of sound, m/s (Liquid); method: LVPAI:UFactor:2
Temperature, K	Molality, mol/kg of L-histidine	Speed of sound, m/s	uncertainty
298.15	0	1558.8	4.2
298.15	0.027	1562.4	4.2
298.15	0.0541	1564.4	4.2
298.15	0.0815	1566.8	4.2
298.15	0.109	1568.8	4.2
298.15	0.1367	1570.8	4.2
298.15	0.1645	1573.2	4.2
298.15	0.1926	1575.2	4.2
298.15	0.2207	1577.6	4.2
303.15	0	1566.8	4.2
303.15	0.027	1570	4.2
303.15	0.0541	1572	4.2
303.15	0.0815	1574	4.2
303.15	0.109	1576	4.2
303.15	0.1367	1578	4.2
303.15	0.1645	1580.4	4.2
303.15	0.1926	1582.4	4.2
303.15	0.2207	1584.4	4.2
308.15	0	1572.8	4.2
308.15	0.027	1576.8	4.2
308.15	0.0541	1578.4	4.2
308.15	0.0815	1580.4	4.2
308.15	0.109	1582.4	4.2
308.15	0.1367	1584.4	4.2
308.15	0.1645	1586.4	4.2
308.15	0.2207	1590.8	4.2
313.15	0	1577.6	4.2
313.15	0.027	1581.6	4.2
313.15	0.0541	1583.6	4.2
313.15	0.0815	1585.6	4.2
313.15	0.109	1587.2	4.2
313.15	0.1367	1589.2	4.2
313.15	0.1645	1591.2	4.2
313.15	0.1926	1593.2	4.2
313.15	0.2207	1595.6	4.3
318.15	0	1582	4.2
318.15	0.027	1586	4.2
318.15	0.0541	1587.6	4.2
318.15	0.0815	1589.2	4.2
318.15	0.109	1590.8	4.2
318.15	0.1367	1592.8	4.2
318.15	0.1645	1594.8	4.2
318.15	0.1926	1596.8	4.3
318.15	0.2207	1598.8	4.3
323.15	0	1586.4	4.2
323.15	0.027	1589.6	4.2
323.15	0.0541	1591.6	4.2
323.15	0.0815	1592.8	4.2
323.15	0.109	1594.8	4.2
323.15	0.1367	1596	4.3
323.15	0.1645	1598	4.3
323.15	0.1926	1600	4.3
323.15	0.2207	1602.4	4.3

System: L-histidine + water + potassium nitrate; phases: Liquid
Fixed: Pressure, kPa = 101
Fixed: Solvent: Molality, mol/kg of potassium nitrate = 2.19
Property: Mass density, kg/m3 (Liquid); method: PYCNOM:UFactor:2
Temperature, K	Molality, mol/kg of L-histidine	Mass density, kg/m3	uncertainty
298.15	0	1115	0.9
298.15	0.027	1115.9	1
298.15	0.0541	1117.3	1
298.15	0.0815	1118.7	1
298.15	0.109	1119.4	1
298.15	0.1367	1120.4	1
298.15	0.1645	1122	0.9
298.15	0.1926	1123	1
298.15	0.2207	1124.7	1
303.15	0	1112.5	1
303.15	0.027	1113.4	1
303.15	0.0541	1114.7	1
303.15	0.0815	1116	1
303.15	0.109	1117	1
303.15	0.1367	1117.8	1
303.15	0.1645	1119.6	1
303.15	0.1926	1120.4	1
303.15	0.2207	1122.1	1
308.15	0	1109.8	1
308.15	0.027	1110.7	1
308.15	0.0541	1112	1
308.15	0.0815	1113.2	1
308.15	0.109	1114.3	1
308.15	0.1367	1115	1
308.15	0.1645	1116.9	1
308.15	0.1926	1117.7	1
308.15	0.2207	1119.4	1
313.15	0	1107	1
313.15	0.027	1107.8	1
313.15	0.0541	1109	1.1
313.15	0.0815	1110.2	1.1
313.15	0.109	1111.4	1.1
313.15	0.1367	1112.2	1.1
313.15	0.1645	1114	1.1
313.15	0.1926	1114.8	1.1
313.15	0.2207	1116.6	1.1
318.15	0	1104	1.1
318.15	0.027	1104.8	1.1
318.15	0.0541	1106	1.1
318.15	0.0815	1107.2	1.1
318.15	0.109	1108.2	1.1
318.15	0.1367	1109.2	1.1
318.15	0.1645	1111	1.1
318.15	0.1926	1111.8	1.1
318.15	0.2207	1113.6	1.1
323.15	0	1100.9	1.1
323.15	0.027	1101.7	1.1
323.15	0.0541	1102.8	1.1
323.15	0.0815	1104	1.1
323.15	0.109	1104.9	1.1
323.15	0.1367	1106	1.1
323.15	0.1645	1107.7	1.1
323.15	0.1926	1108.7	1.1
323.15	0.2207	1110.4	1.1

System: L-glutamic acid + water + potassium nitrate; phases: Liquid
Fixed: Pressure, kPa = 101
Fixed: Solvent: Molality, mol/kg of potassium nitrate = 2.19
Fixed: Frequency, MHz = 4
Property: Speed of sound, m/s (Liquid); method: LVPAI:UFactor:2
Temperature, K	Molality, mol/kg of L-glutamic acid	Speed of sound, m/s	uncertainty
298.15	0	1558.8	4.2
298.15	0.009	1559.2	4.2
298.15	0.018	1560.4	4.2
298.15	0.027	1561.2	4.2
298.15	0.036	1562	4.2
298.15	0.045	1562.8	4.2
298.15	0.0541	1563.6	4.2
303.15	0	1566.8	4.2
303.15	0.009	1567.6	4.2
303.15	0.018	1568.8	4.2
303.15	0.027	1569.2	4.2
303.15	0.036	1570.4	4.2
303.15	0.045	1571.2	4.2
303.15	0.0541	1572.2	4.2
308.15	0	1572.8	4.2
308.15	0.009	1573.2	4.2
308.15	0.018	1574.4	4.2
308.15	0.027	1575.6	4.2
308.15	0.036	1576.8	4.2
308.15	0.045	1577.6	4.2
308.15	0.0541	1578	4.2
313.15	0	1577.6	4.2
313.15	0.009	1578.8	4.2
313.15	0.018	1579.6	4.2
313.15	0.027	1580.8	4.2
313.15	0.036	1582	4.2
313.15	0.045	1583.2	4.2
313.15	0.0541	1584	4.2
318.15	0	1582	4.2
318.15	0.009	1583.6	4.2
318.15	0.018	1584.8	4.2
318.15	0.027	1585.6	4.2
318.15	0.036	1586.4	4.2
318.15	0.045	1587.6	4.2
318.15	0.0541	1588.4	4.2
323.15	0	1586.4	4.2
323.15	0.009	1587.2	4.2
323.15	0.018	1588	4.2
323.15	0.027	1588.8	4.2
323.15	0.036	1589	4.2
323.15	0.045	1590.4	4.2
323.15	0.0541	1591.2	4.2

System: L-glutamic acid + water + potassium nitrate; phases: Liquid
Fixed: Pressure, kPa = 101
Fixed: Solvent: Molality, mol/kg of potassium nitrate = 2.19
Property: Mass density, kg/m3 (Liquid); method: PYCNOM:UFactor:2
Temperature, K	Molality, mol/kg of L-glutamic acid	Mass density, kg/m3	uncertainty
298.15	0	1115	0.9
298.15	0.009	1115.5	0.9
298.15	0.018	1116	1
298.15	0.027	1116.6	0.9
298.15	0.036	1117.1	0.9
298.15	0.045	1117.4	1
298.15	0.0541	1118.4	1
303.15	0	1112.5	1
303.15	0.009	1113	1
303.15	0.018	1113.5	1
303.15	0.027	1114.1	1
303.15	0.036	1114.7	1
303.15	0.045	1114.9	1
303.15	0.0541	1115.9	1
308.15	0	1109.8	1
308.15	0.009	1110.4	1
308.15	0.018	1110.8	1
308.15	0.027	1111.4	1
308.15	0.036	1112	1
308.15	0.045	1112.2	1
308.15	0.0541	1113.2	1
313.15	0	1107	1
313.15	0.009	1107.6	1
313.15	0.018	1108	1
313.15	0.027	1108.6	1
313.15	0.036	1109.2	1
313.15	0.045	1109.4	1
313.15	0.0541	1110.4	1.1
318.15	0	1104	1.1
318.15	0.009	1104.7	1.1
318.15	0.018	1105	1.1
318.15	0.027	1105.6	1.1
318.15	0.036	1106.2	1.1
318.15	0.045	1106.4	1.1
318.15	0.0541	1107.4	1.1
323.15	0	1100.9	1.1
323.15	0.009	1101.6	1.1
323.15	0.018	1101.9	1.1
323.15	0.027	1102.6	1.1
323.15	0.036	1103.2	1.1
323.15	0.045	1103.4	1.1
323.15	0.0541	1104.2	1.1

System: L-tryptophan + water + potassium nitrate; phases: Liquid
Fixed: Pressure, kPa = 101
Fixed: Solvent: Molality, mol/kg of potassium nitrate = 2.19
Fixed: Frequency, MHz = 4
Property: Speed of sound, m/s (Liquid); method: LVPAI:UFactor:2
Temperature, K	Molality, mol/kg of L-tryptophan	Speed of sound, m/s	uncertainty
298.15	0	1558.8	4.2
298.15	0.009	1560.8	4.2
298.15	0.0135	1561.2	4.2
298.15	0.018	1562	4.2
298.15	0.0225	1562.6	4.2
298.15	0.027	1563.2	4.2
298.15	0.0315	1564	4.2
298.15	0.0361	1564.8	4.2
303.15	0	1566.8	4.2
303.15	0.009	1567.6	4.2
303.15	0.0135	1568	4.2
303.15	0.018	1568.4	4.2
303.15	0.0225	1569.2	4.2
303.15	0.027	1570	4.2
303.15	0.0315	1570.8	4.2
303.15	0.0361	1571.6	4.2
308.15	0	1572.6	4.2
308.15	0.009	1573	4.2
308.15	0.0135	1573.6	4.2
308.15	0.018	1574.8	4.2
308.15	0.0225	1575.6	4.2
308.15	0.027	1576	4.2
308.15	0.0315	1576.8	4.2
308.15	0.0361	1578	4.2
313.15	0	1577.6	4.2
313.15	0.009	1578	4.2
313.15	0.0135	1578.4	4.2
313.15	0.018	1579.2	4.2
313.15	0.0225	1580	4.2
313.15	0.027	1580.8	4.2
313.15	0.0315	1581.2	4.2
313.15	0.0361	1582	4.2
318.15	0	1582	4.2
318.15	0.009	1582.8	4.2
318.15	0.0135	1583.2	4.2
318.15	0.018	1584	4.2
318.15	0.0225	1584.4	4.2
318.15	0.027	1585.2	4.2
318.15	0.0315	1586	4.2
318.15	0.0361	1586.8	4.2
323.15	0	1586.4	4.2
323.15	0.009	1586.8	4.2
323.15	0.0135	1587.2	4.2
323.15	0.018	1587.6	4.2
323.15	0.0225	1588.4	4.2
323.15	0.027	1589.2	4.2
323.15	0.0315	1590	4.2
323.15	0.0361	1590.8	4.2

System: L-tryptophan + water + potassium nitrate; phases: Liquid
Fixed: Pressure, kPa = 101
Fixed: Solvent: Molality, mol/kg of potassium nitrate = 2.19
Property: Mass density, kg/m3 (Liquid); method: PYCNOM:UFactor:2
Temperature, K	Molality, mol/kg of L-tryptophan	Mass density, kg/m3	uncertainty
298.15	0	1115	0.9
298.15	0.009	1115.3	1
298.15	0.0135	1115.6	0.9
298.15	0.018	1115.7	0.9
298.15	0.0225	1116.1	1
298.15	0.027	1116.3	0.9
298.15	0.0315	1116.4	1
298.15	0.0361	1116.9	1
303.15	0	1112.5	1
303.15	0.009	1112.7	1
303.15	0.0135	1113.1	1
303.15	0.018	1113.3	1
303.15	0.0225	1113.5	1
303.15	0.027	1113.8	1
303.15	0.0315	1113.9	1
303.15	0.0361	1114.3	1
308.15	0	1109.8	1
308.15	0.009	1110	1
308.15	0.0135	1110.4	1
308.15	0.018	1110.6	1
308.15	0.0225	1110.8	1
308.15	0.027	1111.1	1
308.15	0.0315	1111.3	1
308.15	0.0361	1111.5	1
313.15	0	1107	1
313.15	0.009	1107.2	1
313.15	0.0135	1107.6	1
313.15	0.018	1107.8	1
313.15	0.0225	1108	1
313.15	0.027	1108.3	1
313.15	0.0315	1108.4	1
313.15	0.0361	1108.6	1
318.15	0	1104	1.1
318.15	0.009	1104.2	1.1
318.15	0.0135	1104.6	1.1
318.15	0.018	1104.8	1.1
318.15	0.0225	1105	1.1
318.15	0.027	1105.3	1.1
318.15	0.0315	1105.4	1.1
318.15	0.0361	1105.6	1.1
323.15	0	1100.9	1.1
323.15	0.009	1101.1	1.1
323.15	0.0135	1101.5	1.1
323.15	0.018	1101.7	1.1
323.15	0.0225	1101.8	1.1
323.15	0.027	1102.1	1.1
323.15	0.0315	1102.3	1.1
323.15	0.0361	1102.4	1.1

System: glycylglycine + water + potassium nitrate; phases: Liquid
Fixed: Pressure, kPa = 101
Fixed: Solvent: Molality, mol/kg of potassium nitrate = 2.19
Fixed: Frequency, MHz = 4
Property: Speed of sound, m/s (Liquid); method: LVPAI:UFactor:2
Temperature, K	Molality, mol/kg of glycylglycine	Speed of sound, m/s	uncertainty
298.15	0	1558.8	4.2
298.15	0.018	1561.4	4.2
298.15	0.036	1562.6	4.2
298.15	0.0541	1563.5	4.2
298.15	0.0722	1564.8	4.2
298.15	0.0904	1566.4	4.2
298.15	0.1087	1567.6	4.2
298.15	0.127	1569	4.2
298.15	0.1454	1570.4	4.2
303.15	0	1566.8	4.2
303.15	0.018	1568.4	4.2
303.15	0.036	1569.6	4.2
303.15	0.0541	1571.6	4.2
303.15	0.0722	1572.8	4.2
303.15	0.0904	1574.6	4.2
303.15	0.1087	1576	4.2
303.15	0.127	1576.8	4.2
303.15	0.1454	1578	4.2
308.15	0	1572.8	4.2
308.15	0.018	1575.6	4.2
308.15	0.036	1576.4	4.2
308.15	0.0541	1577.2	4.2
308.15	0.0722	1578.8	4.2
308.15	0.0904	1580	4.2
308.15	0.1087	1581.6	4.2
308.15	0.127	1582.8	4.2
308.15	0.1454	1584.4	4.2
313.15	0	1577.6	4.2
313.15	0.018	1580.4	4.2
313.15	0.036	1582	4.2
313.15	0.0541	1582.8	4.2
313.15	0.0722	1584	4.2
313.15	0.0904	1585.2	4.2
313.15	0.1087	1586.8	4.2
313.15	0.127	1588	4.2
313.15	0.1454	1590	4.2
318.15	0	1582	4.2
318.15	0.018	1585.2	4.2
318.15	0.036	1586	4.2
318.15	0.0541	1587.2	4.2
318.15	0.0722	1588.4	4.2
318.15	0.0904	1590	4.2
318.15	0.1087	1591.6	4.2
318.15	0.127	1593.2	4.2
318.15	0.1454	1594.4	4.2
323.15	0	1586.4	4.2
323.15	0.018	1589.6	4.2
323.15	0.036	1590.4	4.2
323.15	0.0541	1591.6	4.2
323.15	0.0722	1592.8	4.2
323.15	0.0904	1594.8	4.2
323.15	0.1087	1595.6	4.3
323.15	0.127	1596.4	4.3
323.15	0.1454	1597.6	4.3

System: glycylglycine + water + potassium nitrate; phases: Liquid
Fixed: Pressure, kPa = 101
Fixed: Solvent: Molality, mol/kg of potassium nitrate = 2.19
Property: Mass density, kg/m3 (Liquid); method: PYCNOM:UFactor:2
Temperature, K	Molality, mol/kg of glycylglycine	Mass density, kg/m3	uncertainty
298.15	0	1115	0.9
298.15	0.018	1115.6	1
298.15	0.036	1116.1	1
298.15	0.0541	1117.1	0.9
298.15	0.0722	1118.1	0.9
298.15	0.0904	1119.2	0.9
298.15	0.1087	1119.8	1
298.15	0.127	1121.1	0.9
298.15	0.1454	1121.6	0.9
303.15	0	1112.5	1
303.15	0.018	1113	1
303.15	0.036	1113.7	1
303.15	0.0541	1114.8	1
303.15	0.0722	1115.7	1
303.15	0.0904	1116.6	1
303.15	0.1087	1117.4	1
303.15	0.127	1118.5	1
303.15	0.1454	1119.4	1
308.15	0	1109.8	1
308.15	0.018	1110.4	1
308.15	0.036	1111.1	1
308.15	0.0541	1112.3	1
308.15	0.0722	1113.1	1
308.15	0.0904	1113.9	1
308.15	0.1087	1114.8	1
308.15	0.127	1115.8	1
308.15	0.1454	1117	1
313.15	0	1107	1
313.15	0.018	1107.6	1
313.15	0.036	1108.3	1
313.15	0.0541	1109.6	1
313.15	0.0722	1110.3	1
313.15	0.0904	1111.1	1
313.15	0.1087	1112	1.1
313.15	0.127	1112.9	1.1
313.15	0.1454	1114.4	1
318.15	0	1104	1.1
318.15	0.018	1104.6	1.1
318.15	0.036	1105.3	1.1
318.15	0.0541	1106.7	1.1
318.15	0.0722	1107.3	1.1
318.15	0.0904	1108.1	1.1
318.15	0.1087	1109	1.1
318.15	0.127	1109.9	1.1
318.15	0.1454	1111.7	1.1
323.15	0	1100.9	1.1
323.15	0.018	1101.5	1.1
323.15	0.036	1102.2	1.1
323.15	0.0541	1103.5	1.1
323.15	0.0722	1104.2	1.1
323.15	0.0904	1105	1.1
323.15	0.1087	1105.8	1.1
323.15	0.127	1106.8	1.1
323.15	0.1454	1108.9	1.1

System: potassium chloride + water; phases: Liquid
Fixed: Pressure, kPa = 101
Fixed: Molality, mol/kg of potassium chloride = 2.13
Fixed: Frequency, MHz = 4
Property: Speed of sound, m/s (Liquid); method: LVPAI:UFactor:2
Temperature, K	Speed of sound, m/s	uncertainty
298.15	1592.8	4.2
303.15	1600.4	4.2
308.15	1608	4.2
313.15	1614	4.2
318.15	1617.2	4.2
323.15	1622	4.3

System: potassium chloride + water; phases: Liquid
Fixed: Pressure, kPa = 101
Fixed: Molality, mol/kg of potassium chloride = 2.13
Property: Mass density, kg/m3 (Liquid); method: PYCNOM:UFactor:2
Temperature, K	Mass density, kg/m3	uncertainty
298.15	1087.7	1.2
303.15	1085.7	0.8
308.15	1083.6	0.8
313.15	1081.3	0.9
318.15	1078.8	0.9
323.15	1076.1	1.3

System: water + potassium nitrate; phases: Liquid
Fixed: Pressure, kPa = 101
Fixed: Molality, mol/kg of potassium nitrate = 2.19
Fixed: Frequency, MHz = 4
Property: Speed of sound, m/s (Liquid); method: LVPAI:UFactor:2
Temperature, K	Speed of sound, m/s	uncertainty
298.15	1558.8	4.2
303.15	1566.8	4.1
308.15	1572.8	4.2
313.15	1577.6	4.2
318.15	1582	4.2
323.15	1586.4	4.2
308.15	1572.6	4.2

System: water + potassium nitrate; phases: Liquid
Fixed: Pressure, kPa = 101
Fixed: Molality, mol/kg of potassium nitrate = 2.19
Property: Mass density, kg/m3 (Liquid); method: PYCNOM:UFactor:2
Temperature, K	Mass density, kg/m3	uncertainty
298.15	1115	1.2
303.15	1112.5	0.9
308.15	1109.8	0.9
313.15	1107	0.9
318.15	1104	1
323.15	1100.9	1.3
