Measured thermophysical data. Solubilities of Diglycolic Acid Esters at Temperatures Ranging from (343 to 363) K in Supercritical Carbon Dioxide
Source: J. Chem. Eng. Data, 2010, 10.1021/je900417c
Compound 1: carbon dioxide, CO2, InChI=1S/CO2/c2-1-3, purity 99.99%
Compound 2: dipentyl 2,2'-oxydiacetate, C14H26O5, InChI=1S/C14H26O5/c1-3-5-7-9-18-13(15)11-17-12-14(16)19-10-8-6-4-2/h3-12H2,1-2H3
Compound 3: diheptyl 2,2'-oxydiacetate, C18H34O5, InChI=1S/C18H34O5/c1-3-5-7-9-11-13-22-17(19)15-21-16-18(20)23-14-12-10-8-6-4-2/h3-16H2,1-2H3
Compound 4: dinonyl 2,2'-oxydiacetate, C22H42O5, InChI=1S/C22H42O5/c1-3-5-7-9-11-13-15-17-26-21(23)19-25-20-22(24)27-18-16-14-12-10-8-6-4-2/h3-20H2,1-2H3
Compound 5: diundecyl 2,2'-oxydiacetate, C26H50O5, InChI=1S/C26H50O5/c1-3-5-7-9-11-13-15-17-19-21-30-25(27)23-29-24-26(28)31-22-20-18-16-14-12-10-8-6-4-2/h3-24H2,1-2H3

System: carbon dioxide + dipentyl 2,2'-oxydiacetate; phases: Fluid (supercritical or subcritical phases), Crystal
Property: Vapor or sublimation pressure, kPa (Fluid (supercritical or subcritical phases)); method: Closed cell (Static) method
Temperature, K	Mole fraction of dipentyl 2,2'-oxydiacetate	Vapor or sublimation pressure, kPa	uncertainty
343	0.00353	11800	1000
343	0.00605	12800	1000
343	0.00835	13400	1000
343	0.01046	13900	1000
343	0.01224	14500	1000
353	0.00377	12400	1000
353	0.00654	13500	1000
353	0.00884	14400	1000
353	0.01106	15000	1000
353	0.01306	15600	1000
363	0.00399	13000	1000
363	0.00698	14100	1000
363	0.00954	15000	1000
363	0.01179	15800	1000
363	0.01365	16700	1000

System: carbon dioxide + diheptyl 2,2'-oxydiacetate; phases: Fluid (supercritical or subcritical phases), Crystal
Property: Vapor or sublimation pressure, kPa (Fluid (supercritical or subcritical phases)); method: Closed cell (Static) method
Temperature, K	Mole fraction of diheptyl 2,2'-oxydiacetate	Vapor or sublimation pressure, kPa	uncertainty
343	0.00239	12600	1000
343	0.00421	13500	1000
343	0.00582	14200	1000
343	0.00723	14900	1000
343	0.00865	15400	1000
353	0.00254	13400	1000
353	0.00447	14500	1000
353	0.00618	15300	1000
353	0.00774	16000	1000
353	0.00915	16700	1000
363	0.00271	14000	1000
363	0.00474	15300	1000
363	0.00655	16200	1000
363	0.00819	17000	1000
363	0.00972	17700	1000

System: carbon dioxide + dinonyl 2,2'-oxydiacetate; phases: Fluid (supercritical or subcritical phases), Crystal
Property: Vapor or sublimation pressure, kPa (Fluid (supercritical or subcritical phases)); method: Closed cell (Static) method
Temperature, K	Mole fraction of dinonyl 2,2'-oxydiacetate	Vapor or sublimation pressure, kPa	uncertainty
343	0.00176	13600	1000
343	0.00315	14600	1000
343	0.00443	15300	1000
343	0.00552	16200	1000
343	0.00669	16700	1000
353	0.00189	14500	1000
353	0.00333	15800	1000
353	0.00472	16500	1000
353	0.0059	17400	1000
353	0.00711	18000	1000
363	0.00195	15600	1000
363	0.00346	17000	1000
363	0.00484	18000	1000
363	0.00603	19100	1000
363	0.0073	19700	1000

System: carbon dioxide + diundecyl 2,2'-oxydiacetate; phases: Fluid (supercritical or subcritical phases), Crystal
Property: Vapor or sublimation pressure, kPa (Fluid (supercritical or subcritical phases)); method: Closed cell (Static) method
Temperature, K	Mole fraction of diundecyl 2,2'-oxydiacetate	Vapor or sublimation pressure, kPa	uncertainty
343	0.068	13700	1000
343	0.088	14100	1000
343	0.099	14600	1000
343	0.129	15100	1000
343	0.152	15800	1000
353	0.072	14800	1000
353	0.093	15400	1000
353	0.107	15900	1000
353	0.125	16300	1000
353	0.155	17000	1000
363	0.065	15600	1000
363	0.083	16500	1000
363	0.102	17200	1000
363	0.115	17600	1000
363	0.129	18100	1000
