Measured thermophysical data. Determination and Correlation of the Solubility for Taurine in Water and Organic Solvent Systems
Source: J. Chem. Eng. Data, 2010, 10.1021/je9009877
Compound 1: 2-aminoethanesulfonic acid, C2H7NO3S, InChI=1S/C2H7NO3S/c3-1-2-7(4,5)6/h1-3H2,(H,4,5,6), purity 99.4%
Compound 2: water, H2O, InChI=1S/H2O/h1H2
Compound 3: methanol, CH4O, InChI=1S/CH4O/c1-2/h2H,1H3, purity 99.5%
Compound 4: ethanol, C2H6O, InChI=1S/C2H6O/c1-2-3/h3H,2H2,1H3, purity 99.5%
Compound 5: propan-2-ol, C3H8O, InChI=1S/C3H8O/c1-3(2)4/h3-4H,1-2H3, purity 99.5%

System: 2-aminoethanesulfonic acid + water; phases: Liquid, Crystal
Fixed: Pressure, kPa = 101
Property: Mole fraction of 2-aminoethanesulfonic acid (Liquid); method: laser beam
Temperature, K	Mole fraction of 2-aminoethanesulfonic acid	uncertainty
278.05	0.00796	0.00035
281.25	0.00932	0.0004
288.75	0.01191	0.00053
289.85	0.01281	0.00057
298.15	0.01704	0.00073
305.35	0.0203	0.00087
308.25	0.02126	0.00091
310.95	0.02332	0.00101
314.85	0.02615	0.00113
318.35	0.0291	0.00126
321.55	0.03214	0.00139
331.75	0.04028	0.00173
340.95	0.04767	0.00205
345.15	0.05261	0.00227
350.25	0.05854	0.00253
353.55	0.06459	0.0028

System: methanol + 2-aminoethanesulfonic acid + water; phases: Liquid, Crystal
Fixed: Pressure, kPa = 101
Property: Mole fraction of 2-aminoethanesulfonic acid (Liquid); method: laser beam
Solvent: Volume fraction of methanol	Temperature, K	Mole fraction of 2-aminoethanesulfonic acid	uncertainty
0.05	274.35	0.00393	0.00016
0.05	278.15	0.0048	0.0002
0.05	281.55	0.00544	0.00022
0.05	284.65	0.00651	0.00027
0.05	288.35	0.00768	0.00031
0.05	292.75	0.00895	0.00037
0.05	297.15	0.01077	0.00044
0.05	300.75	0.01225	0.0005
0.05	302.85	0.01329	0.00054
0.05	306.55	0.01484	0.0006
0.05	310.25	0.01689	0.00069
0.05	314.15	0.01937	0.00079
0.05	318.15	0.02217	0.0009
0.05	322.45	0.02507	0.00101
0.05	328.65	0.02898	0.00117
0.05	332.45	0.03174	0.00128
0.1	276.25	0.00344	0.00015
0.1	280.75	0.00455	0.00019
0.1	284.45	0.00539	0.00022
0.1	287.75	0.00641	0.00027
0.1	291.15	0.00776	0.00032
0.1	297.05	0.00941	0.00038
0.1	301.65	0.01094	0.00044
0.1	305.05	0.0123	0.0005
0.1	308.15	0.0138	0.00056
0.1	310.65	0.0152	0.00062
0.1	315.55	0.0176	0.00071
0.1	317.75	0.01912	0.00078
0.1	320.85	0.02103	0.00086
0.1	324.35	0.02377	0.00096
0.1	328.85	0.02676	0.00108
0.1	331.35	0.02853	0.00115
0.2	277.75	0.00234	0.0001
0.2	283.75	0.00301	0.00012
0.2	287.35	0.00359	0.00015
0.2	288.95	0.00394	0.00016
0.2	292.35	0.00462	0.00019
0.2	294.75	0.0054	0.00023
0.2	298.65	0.00656	0.00027
0.2	302.55	0.00773	0.00032
0.2	305.45	0.00874	0.00035
0.2	309.25	0.00987	0.0004
0.2	312.95	0.01142	0.00047
0.2	317.65	0.01388	0.00057
0.2	323.45	0.01691	0.00069
0.2	328.15	0.01923	0.00078
0.2	331.55	0.02104	0.00086
0.3	275.55	0.00131	6e-05
0.3	282.35	0.00209	9e-05
0.3	287.95	0.00283	0.00012
0.3	292.55	0.00342	0.00014
0.3	296.05	0.00403	0.00017
0.3	301.25	0.0049	0.0002
0.3	303.85	0.00564	0.00023
0.3	307.65	0.00685	0.00028
0.3	313.25	0.00864	0.00035
0.3	316.65	0.0099	0.00041
0.3	321.55	0.01202	0.00049
0.3	325.45	0.01374	0.00056
0.3	330.25	0.01572	0.00063
0.4	282.55	0.00124	6e-05
0.4	286.85	0.00178	7e-05
0.4	292.55	0.00223	9e-05
0.4	296.85	0.00271	0.00011
0.4	302.05	0.00326	0.00013
0.4	305.85	0.00369	0.00015
0.4	308.75	0.00426	0.00018
0.4	312.75	0.00517	0.00021
0.4	316.35	0.00609	0.00025
0.4	320.55	0.00731	0.0003
0.4	325.35	0.0087	0.00035
0.4	331.45	0.01028	0.00042
0.5	291.15	0.00128	5e-05
0.5	297.05	0.00169	7e-05
0.5	301.65	0.00205	8e-05
0.5	305.25	0.00239	0.0001
0.5	310.35	0.00297	0.00012
0.5	314.65	0.00336	0.00014
0.5	318.75	0.00391	0.00016
0.5	322.55	0.00453	0.00018
0.5	328.15	0.00536	0.00022
0.5	332.25	0.00616	0.00025

System: ethanol + 2-aminoethanesulfonic acid + water; phases: Liquid, Crystal
Fixed: Pressure, kPa = 101
Property: Mole fraction of 2-aminoethanesulfonic acid (Liquid); method: laser beam
Solvent: Volume fraction of ethanol	Temperature, K	Mole fraction of 2-aminoethanesulfonic acid	uncertainty
0.05	277.65	0.00464	0.00019
0.05	281.45	0.00556	0.00023
0.05	285.65	0.00658	0.00027
0.05	288.55	0.00734	0.0003
0.05	291.45	0.00857	0.00035
0.05	295.15	0.0102	0.00042
0.05	298.35	0.01147	0.00047
0.05	302.15	0.01322	0.00054
0.05	307.05	0.01573	0.00064
0.05	310.05	0.01764	0.00072
0.05	314.65	0.02036	0.00083
0.05	318.25	0.02306	0.00094
0.05	323.85	0.02711	0.0011
0.05	328.75	0.03251	0.00132
0.1	282.75	0.00551	0.00023
0.1	288.45	0.0072	0.0003
0.1	294.45	0.00904	0.00037
0.1	296.25	0.00993	0.0004
0.1	299.95	0.01082	0.00044
0.1	306.05	0.01274	0.00054
0.1	307.15	0.01355	0.00057
0.1	313.45	0.01703	0.00069
0.1	316.05	0.01829	0.00074
0.1	319.65	0.02001	0.00081
0.1	322.05	0.02149	0.00087
0.1	327.15	0.0246	0.001
0.1	332.35	0.02799	0.00113
0.2	286.55	0.00491	0.0002
0.2	290.45	0.00576	0.00024
0.2	293.65	0.00687	0.00029
0.2	296.45	0.00797	0.00033
0.2	300.25	0.00962	0.00039
0.2	305.95	0.01121	0.00046
0.2	311.15	0.01397	0.00057
0.2	314.85	0.01549	0.00063
0.2	316.95	0.01689	0.00069
0.2	321.85	0.01957	0.00079
0.2	324.05	0.02099	0.00085
0.2	327.75	0.02337	0.00095
0.2	330.55	0.02549	0.00102
0.3	280.75	0.00294	0.00012
0.3	283.65	0.00343	0.00014
0.3	287.95	0.00419	0.00017
0.3	292.55	0.00477	0.00019
0.3	295.55	0.00556	0.00023
0.3	299.15	0.00633	0.00026
0.3	301.85	0.00708	0.00029
0.3	304.35	0.00804	0.00033
0.3	306.95	0.00913	0.00038
0.3	311.05	0.01091	0.00045
0.3	316.05	0.01297	0.00053
0.3	320.95	0.01496	0.00061
0.3	325.55	0.017	0.00069
0.3	330.35	0.01959	0.00079
0.4	288.55	0.00218	9e-05
0.4	295.25	0.00296	0.00012
0.4	300.05	0.00383	0.00016
0.4	303.35	0.00466	0.0002
0.4	306.05	0.00542	0.00023
0.4	309.05	0.00645	0.00027
0.4	313.15	0.00767	0.00031
0.4	317.55	0.00903	0.00037
0.4	320.05	0.01027	0.00042
0.4	324.15	0.01189	0.00048
0.4	328.95	0.0136	0.00055
0.4	331.15	0.01457	0.00059
0.5	288.55	0.00158	6e-05
0.5	292.65	0.00183	8e-05
0.5	297.65	0.0025	0.0001
0.5	302.55	0.00308	0.00013
0.5	308.85	0.00429	0.00018
0.5	316.05	0.00558	0.00023
0.5	319.95	0.00628	0.00025
0.5	323.05	0.00698	0.00028
0.5	325.45	0.00768	0.00032
0.5	331.55	0.00996	0.00041

System: propan-2-ol + 2-aminoethanesulfonic acid + water; phases: Liquid, Crystal
Fixed: Pressure, kPa = 101
Property: Mole fraction of 2-aminoethanesulfonic acid (Liquid); method: laser beam
Solvent: Volume fraction of propan-2-ol	Temperature, K	Mole fraction of 2-aminoethanesulfonic acid	uncertainty
0.05	276.45	0.00459	0.00019
0.05	280.95	0.00558	0.00023
0.05	284.95	0.00664	0.00027
0.05	290.05	0.00852	0.00035
0.05	294.35	0.01	0.00041
0.05	299.05	0.01186	0.00048
0.05	302.95	0.01352	0.00055
0.05	307.25	0.01579	0.00064
0.05	310.95	0.01788	0.00073
0.05	316.85	0.02202	0.00089
0.05	320.35	0.02425	0.00098
0.05	324.45	0.02719	0.0011
0.05	328.65	0.0301	0.00122
0.05	331.45	0.03239	0.00131
0.1	274.75	0.00319	0.00014
0.1	279.95	0.00431	0.00018
0.1	283.65	0.00507	0.00021
0.1	288.55	0.00644	0.00026
0.1	292.75	0.00751	0.00031
0.1	295.35	0.0084	0.00034
0.1	299.35	0.00978	0.0004
0.1	302.85	0.01176	0.00048
0.1	307.15	0.01377	0.00056
0.1	311.75	0.01649	0.00067
0.1	315.95	0.01876	0.00076
0.1	319.95	0.02144	0.00087
0.1	322.55	0.02341	0.00095
0.1	327.35	0.02618	0.00106
0.1	329.55	0.02803	0.00114
0.2	280.75	0.00272	0.00011
0.2	287.35	0.00378	0.00016
0.2	289.95	0.00429	0.00017
0.2	292.65	0.00485	0.0002
0.2	296.45	0.00576	0.00024
0.2	297.65	0.00645	0.00027
0.2	301.65	0.00794	0.00033
0.2	304.25	0.00885	0.00036
0.2	307.75	0.00999	0.00041
0.2	310.85	0.01166	0.00048
0.2	314.85	0.01376	0.00056
0.2	318.15	0.01563	0.00064
0.2	322.45	0.01827	0.00074
0.2	325.25	0.01987	0.00081
0.2	329.75	0.02278	0.00092
0.3	281.15	0.00173	7e-05
0.3	285.25	0.0023	0.0001
0.3	288.95	0.00284	0.00012
0.3	293.05	0.00359	0.00015
0.3	298.15	0.00459	0.00019
0.3	302.65	0.0056	0.00023
0.3	306.05	0.0067	0.00028
0.3	309.55	0.00801	0.00033
0.3	313.15	0.00947	0.00039
0.3	316.15	0.01088	0.00045
0.3	320.15	0.01272	0.00052
0.3	324.25	0.01459	0.00059
0.3	327.95	0.01591	0.00065
0.3	330.45	0.01718	0.0007
0.4	283.05	0.00133	6e-05
0.4	287.35	0.00178	7e-05
0.4	293.45	0.00248	0.0001
0.4	299.05	0.00318	0.00013
0.4	302.45	0.00375	0.00016
0.4	305.45	0.0044	0.00018
0.4	308.35	0.00526	0.00022
0.4	311.55	0.00625	0.00026
0.4	314.85	0.00733	0.0003
0.4	319.65	0.00922	0.00038
0.4	323.35	0.01081	0.00044
0.4	328.95	0.01309	0.00053
0.5	289.55	0.00163	7e-05
0.5	295.95	0.00213	9e-05
0.5	299.15	0.00243	0.0001
0.5	303.65	0.00309	0.00013
0.5	308.15	0.00381	0.00016
0.5	311.75	0.00427	0.00017
0.5	316.65	0.00518	0.00021
0.5	319.55	0.0059	0.00024
0.5	322.95	0.00666	0.00027
0.5	327.35	0.00762	0.00031
0.5	330.85	0.00844	0.00034
