Measured thermophysical data. Thermodynamic Properties of the Binary Mixture of Hexan-1-ol with m-Xylene at T = (303.15, 313.15, and 323.15) K
Source: J. Chem. Eng. Data, 2009, 10.1021/je900219w
Compound 1: hexan-1-ol, C6H14O, InChI=1S/C6H14O/c1-2-3-4-5-6-7/h7H,2-6H2,1H3, purity 98%
Compound 2: 1,3-dimethylbenzene, C8H10, InChI=1S/C8H10/c1-7-4-3-5-8(2)6-7/h3-6H,1-2H3, purity 98%

System: hexan-1-ol; phases: Liquid
Fixed: Pressure, kPa = 101
Property: Viscosity, Pa*s (Liquid); method: Capillary tube (Ostwald; Ubbelohde) method
Temperature, K	Viscosity, Pa*s	uncertainty
303.15	0.003829	4.8e-05
313.15	0.002879	3.6e-05
323.15	0.002215	2.8e-05

System: hexan-1-ol; phases: Liquid
Fixed: Pressure, kPa = 101
Property: Molar volume, m3/mol (Liquid); method: Pycnometric method
Temperature, K	Molar volume, m3/mol	uncertainty
303.15	0.00012589	1.5e-07
313.15	0.00012699	1.5e-07
323.15	0.00012813	1.6e-07

System: 1,3-dimethylbenzene; phases: Liquid
Fixed: Pressure, kPa = 101
Property: Viscosity, Pa*s (Liquid); method: Capillary tube (Ostwald; Ubbelohde) method
Temperature, K	Viscosity, Pa*s	uncertainty
303.15	0.0005501	7.3e-06
313.15	0.0004944	6.7e-06
323.15	0.0004472	6.1e-06

System: 1,3-dimethylbenzene; phases: Liquid
Fixed: Pressure, kPa = 101
Property: Molar volume, m3/mol (Liquid); method: Pycnometric method
Temperature, K	Molar volume, m3/mol	uncertainty
303.15	0.0001241	1.5e-07
313.15	0.00012535	1.5e-07
323.15	0.00012663	1.6e-07

System: 1,3-dimethylbenzene + hexan-1-ol; phases: Liquid
Fixed: Pressure, kPa = 101
Property: Viscosity, Pa*s (Liquid); method: Capillary tube (Ostwald; Ubbelohde) method
Temperature, K	Mole fraction of hexan-1-ol	Viscosity, Pa*s	uncertainty
303.15	0	0.0005501	7.3e-06
303.15	0.1	0.0005979	7.9e-06
303.15	0.2	0.0006825	9e-06
303.15	0.3	0.0007998	1.04e-05
303.15	0.4	0.0009537	1.24e-05
303.15	0.5	0.001161	1.5e-05
303.15	0.6	0.001442	1.8e-05
303.15	0.7	0.001833	2.3e-05
303.15	0.8	0.002357	3e-05
303.15	0.9	0.003032	3.8e-05
303.15	1	0.003829	4.8e-05
313.15	0	0.0004944	6.7e-06
313.15	0.1	0.0005309	7.1e-06
313.15	0.2	0.0005975	7.9e-06
313.15	0.3	0.0006894	9.1e-06
313.15	0.4	0.0008068	1.05e-05
313.15	0.5	0.0009645	1.25e-05
313.15	0.6	0.001173	1.5e-05
313.15	0.7	0.001457	1.9e-05
313.15	0.8	0.001833	2.3e-05
313.15	0.9	0.002309	2.9e-05
313.15	1	0.002879	3.6e-05
323.15	0	0.0004472	6.1e-06
323.15	0.1	0.0004743	6.4e-06
323.15	0.2	0.0005277	7.1e-06
323.15	0.3	0.0006009	8e-06
323.15	0.4	0.0006925	9.1e-06
323.15	0.5	0.0008141	1.06e-05
323.15	0.6	0.00097	1.26e-05
323.15	0.7	0.001179	1.5e-05
323.15	0.8	0.001448	1.9e-05
323.15	0.9	0.001797	2.3e-05
323.15	1	0.002215	2.8e-05

System: 1,3-dimethylbenzene + hexan-1-ol; phases: Liquid
Fixed: Pressure, kPa = 101
Property: Molar volume, m3/mol (Liquid); method: Pycnometric method
Temperature, K	Mole fraction of hexan-1-ol	Molar volume, m3/mol	uncertainty
303.15	0	0.0001241	1.5e-07
303.15	0.1	0.00012435	1.5e-07
303.15	0.2	0.00012457	1.5e-07
303.15	0.3	0.00012477	1.5e-07
303.15	0.4	0.00012494	1.5e-07
303.15	0.5	0.0001251	1.5e-07
303.15	0.6	0.00012526	1.5e-07
303.15	0.7	0.0001254	1.5e-07
303.15	0.8	0.00012554	1.5e-07
303.15	0.9	0.00012569	1.5e-07
303.15	1	0.00012589	1.5e-07
313.15	0	0.00012535	1.5e-07
313.15	0.1	0.00012562	1.5e-07
313.15	0.2	0.00012585	1.5e-07
313.15	0.3	0.00012603	1.5e-07
313.15	0.4	0.00012619	1.5e-07
313.15	0.5	0.00012633	1.5e-07
313.15	0.6	0.00012648	1.5e-07
313.15	0.7	0.00012661	1.5e-07
313.15	0.8	0.00012674	1.5e-07
313.15	0.9	0.00012686	1.5e-07
313.15	1	0.00012699	1.5e-07
323.15	0	0.00012663	1.6e-07
323.15	0.1	0.00012694	1.6e-07
323.15	0.2	0.00012715	1.6e-07
323.15	0.3	0.00012731	1.6e-07
323.15	0.4	0.00012745	1.6e-07
323.15	0.5	0.00012759	1.6e-07
323.15	0.6	0.00012771	1.6e-07
323.15	0.7	0.00012783	1.6e-07
323.15	0.8	0.00012794	1.6e-07
323.15	0.9	0.00012805	1.6e-07
323.15	1	0.00012813	1.6e-07
