Measured thermophysical data. Thermochemical Examination of NaI, NaBPh4, and Ph4PI in the Mixtures of Acetonitrile with N,N-Dimethylformamide and Dimethylsulfoxide at 298.15 K: Properties of Acetonitrile-Containing Mixtures as Solvents for Electrolytes
Source: J. Chem. Eng. Data, 2010, 10.1021/je900920p
Compound 1: sodium iodide, INa, InChI=1S/HI.Na/h1H;/q;+1/p-1
Compound 2: sodium tetraphenylboron, C24H20BNa, InChI=1S/C24H20B.Na/c1-5-13-21(14-6-1)25(22-15-7-2-8-16-22,23-17-9-3-10-18-23)24-19-11-4-12-20-24;/h1-20H;/q-1;+1
Compound 3: tetraphenylphosphonium iodide, C24H20IP, InChI=1S/C24H20P.HI/c1-5-13-21(14-6-1)25(22-15-7-2-8-16-22,23-17-9-3-10-18-23)24-19-11-4-12-20-24;/h1-20H;1H/q+1;/p-1
Compound 4: acetonitrile, C2H3N, InChI=1S/C2H3N/c1-2-3/h1H3
Compound 5: dimethylformamide, C3H7NO, InChI=1S/C3H7NO/c1-4(2)3-5/h3H,1-2H3
Compound 6: dimethyl sulfoxide, C2H6OS, InChI=1S/C2H6OS/c1-4(2)3/h1-2H3

System: dimethylformamide + acetonitrile + sodium iodide; phases: Liquid
Fixed: Pressure, kPa = 101
Fixed: Temperature, K = 298.15
Fixed: Mole fraction of sodium iodide = 0
Property: Molar enthalpy of solution, kJ/mol (Liquid); method: ISOPERIBOL
Solvent: Mole fraction of dimethylformamide	Molar enthalpy of solution, kJ/mol	uncertainty
0	-28.82	0.61
0.025	-32.17	0.68
0.05	-34.62	0.73
0.075	-36.12	0.77
0.1	-37.92	0.8
0.125	-40	0.85
0.15	-41.98	0.89
0.2	-43.6	0.92
0.3	-46	0.98
0.5	-48.67	1.03
0.7	-52.3	1.11

System: dimethyl sulfoxide + acetonitrile + sodium iodide; phases: Liquid
Fixed: Pressure, kPa = 101
Fixed: Temperature, K = 298.15
Fixed: Mole fraction of sodium iodide = 0
Property: Molar enthalpy of solution, kJ/mol (Liquid); method: ISOPERIBOL
Solvent: Mole fraction of dimethyl sulfoxide	Molar enthalpy of solution, kJ/mol	uncertainty
0	-28.82	0.61
0.025	-32.81	0.7
0.05	-35.89	0.76
0.075	-38.89	0.83
0.1	-40.18	0.85
0.125	-41.15	0.87
0.15	-42.81	0.91
0.2	-44.6	0.95
0.3	-46.4	0.98
0.5	-47.58	1.01
0.7	-48.97	1.04
0.8	-48.7	1.03
0.85	-48.94	1.04
0.875	-49.06	1.04
0.9	-49.14	1.04
0.925	-48.94	1.04
0.95	-48.89	1.04
0.975	-48.72	1.03
1	-48.88	1.04

System: dimethylformamide + acetonitrile + sodium tetraphenylboron; phases: Liquid
Fixed: Pressure, kPa = 101
Fixed: Temperature, K = 298.15
Fixed: Mole fraction of sodium tetraphenylboron = 0
Property: Molar enthalpy of solution, kJ/mol (Liquid); method: ISOPERIBOL
Solvent: Mole fraction of dimethylformamide	Molar enthalpy of solution, kJ/mol	uncertainty
0	-43.42	0.92
0.025	-46.1	0.98
0.05	-48.67	1.03
0.075	-52.25	1.11
0.1	-54.97	1.17
0.3	-62.96	1.34
0.5	-66.71	1.42
0.7	-69.22	1.47
0.85	-70.54	1.5
1	-72.25	1.53

System: dimethylformamide + acetonitrile + tetraphenylphosphonium iodide; phases: Liquid
Fixed: Pressure, kPa = 101
Fixed: Temperature, K = 298.15
Fixed: Mole fraction of tetraphenylphosphonium iodide = 0
Property: Molar enthalpy of solution, kJ/mol (Liquid); method: ISOPERIBOL
Solvent: Mole fraction of dimethylformamide	Molar enthalpy of solution, kJ/mol	uncertainty
0	16.03	0.34
0.025	16.09	0.34
0.05	15.97	0.34
0.075	15.95	0.34
0.1	15.89	0.34
0.3	13.6	0.29
0.5	10.21	0.22
0.7	7.26	0.15
0.85	6.43	0.14
1	4.48	0.1

System: dimethyl sulfoxide + acetonitrile + sodium tetraphenylboron; phases: Liquid
Fixed: Pressure, kPa = 101
Fixed: Temperature, K = 298.15
Fixed: Mole fraction of sodium tetraphenylboron = 0
Property: Molar enthalpy of solution, kJ/mol (Liquid); method: ISOPERIBOL
Solvent: Mole fraction of dimethyl sulfoxide	Molar enthalpy of solution, kJ/mol	uncertainty
0	-43.42	0.92
0.1	-55.31	1.17
0.25	-58.23	1.24
0.5	-59.22	1.26
0.75	-59.34	1.26
0.9	-59.5	1.26
1	-59.49	1.26

System: dimethyl sulfoxide + acetonitrile + tetraphenylphosphonium iodide; phases: Liquid
Fixed: Pressure, kPa = 101
Fixed: Temperature, K = 298.15
Fixed: Mole fraction of tetraphenylphosphonium iodide = 0
Property: Molar enthalpy of solution, kJ/mol (Liquid); method: ISOPERIBOL
Solvent: Mole fraction of dimethyl sulfoxide	Molar enthalpy of solution, kJ/mol	uncertainty
0	16.03	0.34
0.1	17.93	0.38
0.25	16.95	0.36
0.5	15.06	0.32
0.75	15.65	0.33
0.9	14.89	0.32
1	15.73	0.33
