Measured thermophysical data. Article Solubility and Diffusion of H2S and CO2 in the Ionic Liquid 1-(2-Hydroxyethyl)-3-methylimidazolium Tetrafluoroborate
Source: J. Chem. Eng. Data, 2010, 10.1021/je900716q
Compound 1: carbon dioxide, CO2, InChI=1S/CO2/c2-1-3
Compound 2: hydrogen sulfide, H2S, InChI=1S/H2S/h1H2
Compound 3: 1-(2-hydroxyethyl)-3-methylimidazolium tetrafluoroborate, C6H11BF4N2O, InChI=1S/C6H11N2O.BF4/c1-7-2-3-8(6-7)4-5-9;2-1(3,4)5/h2-3,6,9H,4-5H2,1H3;/q+1;-1

System: 1-(2-hydroxyethyl)-3-methylimidazolium tetrafluoroborate; phases: Liquid
Fixed: Pressure, kPa = 101.325
Property: Mass density, kg/m3 (Liquid); method: Pycnometric method
Temperature, K	Mass density, kg/m3	uncertainty
300.71	1384	1
303.35	1380	1
304.95	1379	1
307.31	1376	1
310.81	1373	1
314.35	1369	1

System: carbon dioxide + 1-(2-hydroxyethyl)-3-methylimidazolium tetrafluoroborate; phases: Liquid, Gas
Fixed: Mole fraction of carbon dioxide = 0
Property: Binary diffusion coefficient, m2/s (Liquid); method: measurement of pressure
Temperature, K	Binary diffusion coefficient, m2/s	uncertainty
303.15	1.4e-08	2.3
313.15	2.09e-08	3.6
323.15	3.94e-08	6.4
333.15	4.65e-08	7.5
343.15	5.71e-08	9.2
353.15	7.16e-08	11.5

System: carbon dioxide + 1-(2-hydroxyethyl)-3-methylimidazolium tetrafluoroborate; phases: Liquid, Gas
Property: Mole fraction of carbon dioxide (Liquid); method: Gas Volume Before and After Dissolution
Temperature, K	Pressure, kPa	Mole fraction of carbon dioxide	uncertainty
303.15	175	0.018	0.002
303.15	233	0.021	0.002
303.15	350	0.033	0.002
303.15	434	0.041	0.004
303.15	645	0.061	0.004
303.15	733	0.068	0.004
303.15	766	0.071	0.006
303.15	1102	0.102	0.006
313.15	114	0.008	0.002
313.15	291	0.019	0.002
313.15	408	0.031	0.002
313.15	549	0.043	0.002
313.15	677	0.053	0.004
313.15	808	0.065	0.004
313.15	917	0.071	0.004
313.15	1016	0.079	0.006
323.15	119	0.007	0.002
323.15	300	0.019	0.002
323.15	427	0.028	0.002
323.15	571	0.041	0.002
323.15	846	0.059	0.004
323.15	960	0.065	0.004
323.15	1064	0.072	0.004
333.15	125	0.006	0.002
333.15	312	0.018	0.002
333.15	444	0.026	0.002
333.15	597	0.037	0.004
333.15	738	0.045	0.004
333.15	882	0.055	0.004
333.15	999	0.061	0.006
343.15	130	0.005	0.002
343.15	325	0.016	0.002
343.15	460	0.025	0.002
343.15	619	0.035	0.002
343.15	768	0.042	0.004
343.15	917	0.051	0.004
343.15	1040	0.057	0.006
353.15	135	0.004	0.002
353.15	335	0.016	0.002
353.15	479	0.022	0.002
353.15	644	0.032	0.004
353.15	796	0.04	0.01
353.15	950	0.049	0.004
353.15	1194	0.061	0.006

System: hydrogen sulfide + 1-(2-hydroxyethyl)-3-methylimidazolium tetrafluoroborate; phases: Liquid, Gas
Fixed: Mole fraction of hydrogen sulfide = 0
Property: Binary diffusion coefficient, m2/s (Liquid); method: measurement of pressure
Temperature, K	Binary diffusion coefficient, m2/s	uncertainty
303.15	1.79e-08	2.9
313.15	2.15e-08	3.5
323.15	2.76e-08	4.4
333.15	3.24e-08	5.2
343.15	3.8e-08	6.1
353.15	4.41e-08	7.1

System: hydrogen sulfide + 1-(2-hydroxyethyl)-3-methylimidazolium tetrafluoroborate; phases: Liquid, Gas
Property: Mole fraction of hydrogen sulfide (Liquid); method: Gas Volume Before and After Dissolution
Temperature, K	Pressure, kPa	Mole fraction of hydrogen sulfide	uncertainty
303.15	136	0.039	0.002
303.15	164	0.048	0.002
303.15	289	0.081	0.004
303.15	462	0.126	0.006
303.15	532	0.144	0.007
303.15	652	0.174	0.009
303.15	703	0.187	0.009
303.15	802	0.208	0.01
303.15	969	0.235	0.012
303.15	1027	0.247	0.012
313.15	121	0.028	0.002
313.15	235	0.055	0.003
313.15	338	0.076	0.004
313.15	505	0.112	0.006
313.15	641	0.14	0.007
313.15	760	0.162	0.008
313.15	890	0.186	0.009
313.15	969	0.202	0.01
313.15	1066	0.217	0.011
323.15	142	0.026	0.002
323.15	250	0.047	0.002
323.15	350	0.065	0.003
323.15	444	0.083	0.004
323.15	531	0.097	0.005
323.15	606	0.111	0.006
323.15	675	0.123	0.006
323.15	793	0.142	0.007
323.15	931	0.164	0.008
323.15	1003	0.176	0.009
333.15	155	0.025	0.002
333.15	277	0.045	0.002
333.15	394	0.062	0.003
333.15	495	0.077	0.004
333.15	613	0.096	0.005
333.15	757	0.116	0.006
333.15	868	0.133	0.007
343.15	300	0.041	0.002
343.15	408	0.055	0.003
343.15	518	0.07	0.004
343.15	613	0.082	0.004
343.15	755	0.099	0.005
343.15	872	0.115	0.006
343.15	989	0.127	0.006
343.15	1066	0.137	0.007
353.15	165	0.02	0.002
353.15	318	0.039	0.002
353.15	442	0.055	0.003
353.15	644	0.079	0.004
353.15	845	0.102	0.005
353.15	964	0.115	0.006
353.15	1047	0.126	0.006
