Measured thermophysical data. Molar Heat Capacity at Constant Volume for Isobutane at Temperatures from (114 to 345) K and at Pressures to 35 MPa
Source: J. Chem. Eng. Data, 2009, 10.1021/je9001575
Compound 1: 2-methylpropane, C4H10, InChI=1S/C4H10/c1-4(2)3/h4H,1-3H3, purity 99.99%

System: 2-methylpropane; phases: Crystal, Liquid, Gas
Property: Molar enthalpy of transition or fusion, kJ/mol (Crystal); method: Adiabatic calorimetry
Molar enthalpy of transition or fusion, kJ/mol	uncertainty
4.494	0.02

System: 2-methylpropane; phases: Crystal, Liquid, Gas
Property: Triple point temperature, K (Crystal); method: Adiabatic calorimetry
Triple point temperature, K	uncertainty
113.707	0.07

System: 2-methylpropane; phases: Liquid, Gas
Property: Molar heat capacity at saturation pressure, J/K/mol (Liquid); method: Vacuum adiabatic calorimetry
Temperature, K	Molar heat capacity at saturation pressure, J/K/mol	uncertainty
116.795	99.973	0.3
119.574	100.39	0.3
122.226	100.86	0.301
124.959	101.19	0.301
127.546	101.83	0.302
130.235	102.1	0.302
132.769	102.54	0.303
135.417	103.17	0.303
137.901	103.68	0.304
140.511	103.94	0.304
142.953	104.41	0.304
145.522	104.91	0.305
147.922	105.3	0.305
150.467	105.75	0.306
152.826	106.16	0.306
155.336	106.5	0.307
157.664	107.02	0.307
160.145	107.18	0.307
162.439	107.78	0.308
164.887	108.27	0.308
167.155	108.62	0.309
169.58	109.08	0.309
171.82	109.17	0.309
174.213	110.08	0.31
176.428	110.08	0.31
178.798	110.97	0.311
180.987	111.25	0.311
183.328	112.12	0.312
185.503	112	0.312
187.82	112.78	0.313
189.97	112.81	0.313
192.258	113.22	0.313
194.391	113.72	0.314
196.656	114.21	0.314
198.771	114.75	0.315
201.014	115.05	0.315
203.107	115.61	0.316
205.337	115.9	0.316
207.405	116.35	0.316
209.614	116.79	0.317
211.667	117.4	0.317
213.859	117.52	0.318
215.898	118.12	0.318
218.066	118.51	0.319
220.086	118.79	0.319
222.244	119.63	0.32
224.246	119.86	0.32
226.389	120.61	0.321
228.375	121.07	0.321
230.505	121.62	0.322
232.477	121.93	0.322
234.587	122.3	0.322
236.553	122.62	0.323
238.645	123.75	0.324
240.594	123.7	0.324
242.678	124.31	0.324
244.612	124.72	0.325
246.68	125.15	0.325
248.6	125.88	0.326
250.661	126.37	0.326
252.572	126.78	0.327
254.617	127.78	0.328
256.519	127.81	0.328
258.554	128.92	0.329
260.446	128.69	0.329
262.471	129.62	0.33
264.352	129.86	0.33
266.369	130.48	0.331
268.239	131.47	0.332
270.244	131.7	0.332
272.113	132.45	0.333
274.098	133.44	0.333
275.959	133.56	0.334
277.943	134.24	0.334
279.802	134.7	0.335
281.765	135.37	0.335
283.622	135.69	0.336
285.575	136.15	0.336
287.429	137.7	0.338
289.369	137.5	0.338
291.232	138.84	0.339
293.154	139.14	0.339
295.011	139.36	0.339
296.926	140.12	0.34
298.78	140.84	0.341
300.683	141.15	0.341
302.543	142.6	0.343
306.297	143.77	0.344
308.174	143.87	0.344
310.036	144.87	0.345
311.91	146	0.346
313.767	146.62	0.347
315.634	147.42	0.348

System: 2-methylpropane; phases: Liquid
Property: Molar heat capacity at constant volume, J/K/mol (Liquid); method: Vacuum adiabatic calorimetry
Temperature, K	Pressure, kPa	Molar heat capacity at constant volume, J/K/mol	uncertainty
119.824	6500	71.22	1.02
122.33	10732	71.61	1.02
124.969	15325	72.14	1.03
127.431	20667	72.63	1.03
130.018	25536	73.32	1.04
132.429	28973	73.82	1.05
141.365	4922	73.32	1.04
143.716	9088	73.74	1.05
146.265	13401	74.25	1.06
148.585	17196	74.72	1.06
151.09	21305	75.18	1.07
153.376	24872	75.69	1.08
155.838	28673	76.28	1.09
162.3	4549	75.71	1.08
164.597	8126	76.26	1.09
167.029	11587	76.59	1.09
169.293	14798	77.08	1.1
171.692	18296	77.43	1.1
173.926	21461	78.06	1.11
176.294	24825	78.43	1.12
178.5	27869	78.99	1.12
180.83	31062	79.8	1.1
183.242	4049	78.07	1.11
185.448	6869	78.63	1.12
187.834	9994	79.02	1.12
190.011	12743	79.62	1.13
192.378	15769	79.81	1.13
194.515	18415	80.61	1.15
196.863	21369	81.16	1.15
198.974	23939	81.69	1.16
201.308	26822	81.98	1.16
203.378	29282	82.49	1.17
203.616	3700	80.96	1.15
205.687	32085	83.13	1.18
205.821	6192	81.19	1.15
208.089	8785	82.04	1.17
210.261	11205	82.36	1.17
212.53	13758	83	1
214.66	16095	83.42	1.18
216.918	18597	83.89	1.19
219.02	20866	84.44	1.2
221.262	23313	85	1
223.328	25507	85.63	1.22
224.207	3209	84.09	1.19
225.572	27916	85.85	1.22
226.505	5490	84.53	1.2
227.602	30036	86.44	1.23
228.594	7563	85.18	1.21
229.83	32388	86.73	1.23
230.859	9783	85.57	1.21
232.95	11833	86.15	1.22
235.183	13991	86.65	1.23
237.259	16001	87.31	1.24
239.464	18103	87.79	1.25
241.536	20084	88.35	1.25
243.715	22131	88.62	1.26
244.913	2940	87.7	1.2
245.774	24074	89.4	1.3
246.876	4626	88.13	1.25
247.921	26062	89.81	1.27
249.24	6667	88.84	1.26
249.98	27977	90.18	1.28
251.174	8311	89.23	1.27
252.106	29918	91.01	1.29
253.542	10334	89.74	1.27
254.151	31797	91.18	1.29
255.44	11931	90.33	1.28
257.801	13926	90.58	1.28
259.679	15488	91.3	1.3
262.027	17452	91.98	1.3
263.881	18974	92.4	1.3
264.623	2580	91.58	1.3
266.232	20919	93.11	1.32
266.606	4054	92.14	1.31
268.064	22404	93.8	1.3
268.908	5781	92.42	1.31
270.404	24318	94.15	1.33
270.879	7235	92.99	1.32
272.22	25772	94.9	1.3
273.17	8940	93.07	1.32
274.555	27659	95.07	1.35
275.117	10363	94.06	1.33
276.358	29087	95.35	1.35
277.4	12047	94.2	1.3
278.68	30942	95.99	1.36
279.338	13450	95.2	1.4
280.463	32342	96.46	1.37
281.615	15113	95.82	1.36
283.538	16491	96.18	1.36
283.657	2372	95.67	1.36
285.763	3730	96.28	1.36
285.81	18136	97.4	1.4
287.716	19487	97.22	1.38
287.933	5135	96.68	1.37
289.99	21118	98.16	1.39
290.038	6483	97.37	1.38
291.871	22438	98.44	1.39
292.183	7863	98.07	1.39
294.138	24048	99.1	1.4
294.296	9205	98	1
296.012	25350	99.94	1.42
296.421	10563	98.75	1.4
298.278	26943	99.99	1.42
298.534	11894	98.97	1.4
300.136	28222	100.48	1.42
300.638	13229	100.03	1.42
302.393	29793	100.74	1.43
302.754	14551	100.42	1.42
303.811	2271	99.83	1.41
304.247	31058	101.52	1.44
304.846	15868	101.01	1.43
306.067	3504	100.71	1.43
306.498	32612	102.04	1.44
306.975	17187	101.25	1.43
308.123	4631	100.8	1.4
309.04	18478	102.38	1.45
310.381	5860	101.98	1.44
311.165	19783	102.14	1.45
312.423	6973	101.82	1.44
312.622	2143	102.01	1.44
313.228	21063	102.98	1.46
314.682	8197	102.64	1.45
314.809	3247	102.19	1.45
315.352	22355	103.37	1.46
316.705	9293	102.97	1.46
316.946	4329	103.28	1.46
317.393	23611	103.51	1.46
318.978	10517	103.88	1.47
319.151	5436	103.12	1.46
319.529	24899	104.29	1.48
320.98	11596	104.6	1.5
321.275	6508	104.19	1.47
321.547	26133	104.78	1.48
322.431	2027	103.88	1.47
323.266	12819	104.79	1.48
323.482	7612	104.96	1.49
323.688	27412	105.09	1.49
324.786	3113	105.07	1.49
325.247	13880	105.73	1.5
325.586	8668	104.99	1.49
325.699	28633	106.08	1.5
326.805	4037	105.22	1.49
327.539	15099	105.76	1.5
327.822	9782	105.71	1.5
327.84	29902	106.3	1.5
329.145	5110	105.78	1.5
329.508	16147	106.45	1.51
329.842	31107	106.78	1.51
329.891	10815	106.1	1.5
331.168	6040	106.74	1.51
331.807	17362	106.57	1.51
331.979	32367	107.91	1.53
332.136	11928	106.39	1.51
333.489	7102	106.91	1.51
333.759	18392	107.16	1.52
333.968	33555	107.88	1.53
334.19	12947	107.66	1.52
335.531	8034	107.69	1.52
336.062	19603	107.61	1.52
336.448	14061	107.61	1.52
337.839	9085	108.12	1.53
337.998	20617	108.51	1.53
338.485	15066	108.51	1.53
339.887	10016	108.49	1.53
340.31	21824	108.42	1.53
340.748	16177	108.82	1.54
342.194	11067	108.69	1.54
342.233	22826	110.23	1.56
342.772	17169	109.53	1.55
344.235	11989	109.21	1.54
344.554	24029	109.59	1.55

System: 2-methylpropane; phases: Liquid
Property: Amount density, mol/m3 (Liquid); method: ISOCHOR
Temperature, K	Pressure, kPa	Amount density, mol/m3	uncertainty
119.824	6500	12679	8
122.33	10732	12671	8
124.969	15325	12662	8
127.431	20667	12652	8
130.018	25536	12643	8
132.429	28973	12636	8
141.365	4922	12331	8
143.716	9088	12323	8
146.265	13401	12315	8
148.585	17196	12307	8
151.09	21305	12299	8
153.376	24872	12293	8
155.838	28673	12285	8
162.3	4549	11989	8
164.597	8126	11983	8
167.029	11587	11976	8
169.293	14798	11970	8
171.692	18296	11963	8
173.926	21461	11957	8
176.294	24825	11951	8
178.5	27869	11945	8
180.83	31062	11939	8
183.242	4049	11645	7
185.448	6869	11639	7
187.834	9994	11633	7
190.011	12743	11628	7
192.378	15769	11622	7
194.515	18415	11617	7
196.863	21369	11611	7
198.974	23939	11607	7
201.308	26822	11601	7
203.378	29282	11596	7
203.616	3700	11304	7
205.687	32085	11591	7
205.821	6192	11299	7
208.089	8785	11294	7
210.261	11205	11290	7
212.53	13758	11285	7
214.66	16095	11280	7
216.918	18597	11276	7
219.02	20866	11271	7
221.262	23313	11266	7
223.328	25507	11262	7
224.207	3209	10949	7
225.572	27916	11258	7
226.505	5490	10944	7
227.602	30036	11253	7
228.594	7563	10940	7
229.83	32388	11249	7
230.859	9783	10936	7
232.95	11833	10932	7
235.183	13991	10928	7
237.259	16001	10924	7
239.464	18103	10920	7
241.536	20084	10916	7
243.715	22131	10912	7
244.913	2940	10582	7
245.774	24074	10908	7
246.876	4626	10579	7
247.921	26062	10904	7
249.24	6667	10575	7
249.98	27977	10900	7
251.174	8311	10571	7
252.106	29918	10897	7
253.542	10334	10567	7
254.151	31797	10893	7
255.44	11931	10564	7
257.801	13926	10560	7
259.679	15488	10557	7
262.027	17452	10553	7
263.881	18974	10550	7
264.623	2580	10214	7
266.232	20919	10546	7
266.606	4054	10211	7
268.064	22404	10543	7
268.908	5781	10208	7
270.404	24318	10539	7
270.879	7235	10205	7
272.22	25772	10537	7
273.17	8940	10201	7
274.555	27659	10533	7
275.117	10363	10199	7
276.358	29087	10530	7
277.4	12047	10195	7
278.68	30942	10526	7
279.338	13450	10192	7
280.463	32342	10523	7
281.615	15113	10189	7
283.538	16491	10186	7
283.657	2372	9842	6
285.763	3730	9839	6
285.81	18136	10183	7
287.716	19487	10180	7
287.933	5135	9836	6
289.99	21118	10177	7
290.038	6483	9834	6
291.871	22438	10174	7
292.183	7863	9831	6
294.138	24048	10171	7
294.296	9205	9828	6
296.012	25350	10168	7
296.421	10563	9825	6
298.278	26943	10165	7
298.534	11894	9822	6
300.136	28222	10162	7
300.638	13229	9820	6
302.393	29793	10159	7
302.754	14551	9817	6
303.811	2271	9423	6
304.247	31058	10156	7
304.846	15868	9814	6
306.067	3504	9420	6
306.498	32612	10153	7
306.975	17187	9811	6
308.123	4631	9418	6
309.04	18478	9809	6
310.381	5860	9415	6
311.165	19783	9806	6
312.423	6973	9413	6
312.622	2143	9223	6
313.228	21063	9803	6
314.682	8197	9410	6
314.809	3247	9220	6
315.352	22355	9801	6
316.705	9293	9408	6
316.946	4329	9218	6
317.393	23611	9798	6
318.978	10517	9405	6
319.151	5436	9216	6
319.529	24899	9795	6
320.98	11596	9403	6
321.275	6508	9213	6
321.547	26133	9793	6
322.431	2027	8989	6
323.266	12819	9400	6
323.482	7612	9211	6
323.688	27412	9790	6
324.786	3113	8986	6
325.247	13880	9398	6
325.586	8668	9209	6
325.699	28633	9787	6
326.805	4037	8984	6
327.539	15099	9395	6
327.822	9782	9206	6
327.84	29902	9785	6
329.145	5110	8982	6
329.508	16147	9393	6
329.842	31107	9782	6
329.891	10815	9204	6
331.168	6040	8980	6
331.807	17362	9390	6
331.979	32367	9779	6
332.136	11928	9201	6
333.489	7102	8977	6
333.759	18392	9388	6
333.968	33555	9777	6
334.19	12947	9199	6
335.531	8034	8975	6
336.062	19603	9385	6
336.448	14061	9197	6
337.839	9085	8973	6
337.998	20617	9383	6
338.485	15066	9195	6
339.887	10016	8971	6
340.31	21824	9381	6
340.748	16177	9192	6
342.194	11067	8968	6
342.233	22826	9378	6
342.772	17169	9190	6
344.235	11989	8966	6
344.554	24029	9376	6

System: 2-methylpropane; phases: Liquid, Gas
Property: Vapor or sublimation pressure, kPa (Liquid); method: Derived from internal energy loop calculations
Temperature, K	Vapor or sublimation pressure, kPa	uncertainty
113.73	2.279e-05	1.79e-06
115	3.158e-05	2.47e-06
117	5.198e-05	4.06e-06
119	8.4e-05	6.56e-06
121	0.0001334	1.041e-05
123	0.00020838	1.625e-05
125	0.00032041	2.497e-05
127	0.00048536	3.781e-05
129	0.00072481	5.644e-05
131	0.00106781	8.313e-05
133	0.00155288	0.00012085
135	0.0022306	0.00017353
137	0.00316655	0.00024628
139	0.00444488	0.00034561
141	0.00617249	0.00047982
143	0.0084838	0.00065935
145	0.01154633	0.00089718
147	0.01556691	0.00120935
149	0.02079878	0.00161552
151	0.02754952	0.00213952
153	0.0361897	0.00281009
155	0.04716255	0.00366161
157	0.06099438	0.00473486
159	0.07830589	0.00607796
161	0.09982434	0.0077473
163	0.12639642	0.00980849
165	0.15900203	0.01233749
167	0.19876863	0.01542167
169	0.24698628	0.01916101
171	0.30512326	0.0236693
173	0.37484214	0.02907537
175	0.45801628	0.03552439
177	0.55674657	0.04317915
179	0.67337842	0.05222137
181	0.81051883	0.06285305
183	0.9710534	0.07529777
185	1.1581632	0.08980199
187	1.3753416	0.10663636
189	1.6264105	0.12609698
191	1.915536	0.14850661
193	2.2472444	0.17421591
195	2.6264361	0.20360451
197	3.0584001	0.23708216
199	3.5488274	0.27508971
201	4.1038227	0.31810008
203	4.7299161	0.36661915
205	5.4340739	0.42118653
207	6.2237071	0.48237636
209	7.1066807	0.5507978
211	8.09132	0.62709592
213	9.1864173	0.71195165
215	10.401236	0.80608265
217	11.745517	0.91024334
219	13.229477	1.0252252
221	14.863814	1.1518569
223	16.659705	1.2910043
225	18.628809	1.4435704
227	20.783262	1.6104953
229	23.135676	1.7927559
231	25.699134	1.9913656
233	28.487189	2.2073742
235	31.513856	2.4418673
237	34.793606	2.6959658
239	38.341361	2.9708256
241	42.172487	3.2676368
243	46.302782	3.5876232
245	50.748473	3.932042
247	55.526205	4.3021816
249	60.653029	4.6993637
251	66.146399	5.1249397
253	72.024154	5.5802917
255	78.304515	6.0668308
257	85.006071	6.5859971
259	92.14777	7.1392581
261	99.748909	7.7280128
