Measured thermophysical data. Levulinic Acid Solubility in Supercritical Carbon Dioxide with and without Ethanol as Cosolvent at Different Temperatures
Source: J. Chem. Eng. Data, 2010, 10.1021/je900727r
Compound 1: carbon dioxide, CO2, InChI=1S/CO2/c2-1-3, purity 99.995%
Compound 2: 4-oxopentanoic acid, C5H8O3, InChI=1S/C5H8O3/c1-4(6)2-3-5(7)8/h2-3H2,1H3,(H,7,8), purity 99%
Compound 3: ethanol, C2H6O, InChI=1S/C2H6O/c1-2-3/h3H,2H2,1H3, purity 99.8%

System: 4-oxopentanoic acid + carbon dioxide; phases: Fluid (supercritical or subcritical phases), Crystal
Property: Mole fraction of 4-oxopentanoic acid (Fluid (supercritical or subcritical phases)); method: synthetic method
Temperature, K	Pressure, kPa	Mole fraction of 4-oxopentanoic acid	uncertainty
313	8410	0.000491	5.9e-05
313	8880	0.00093	8.8e-05
313	9040	0.00134	0.00014
313	9450	0.00214	0.00016
313	9960	0.00305	0.00022
313	10410	0.00419	0.00028
313	11230	0.00552	0.00035
313	12190	0.00662	0.00041
313	14610	0.00776	0.00047
313	18250	0.009	0.00054
322.6	9410	0.000491	3.5e-05
322.6	10290	0.00093	7.4e-05
322.6	10830	0.00134	0.00013
322.6	11410	0.00214	0.00014
322.6	12490	0.00305	0.0002
322.6	13090	0.00419	0.00027
322.6	14180	0.00552	0.00034
322.6	15140	0.00662	0.0004
322.6	18270	0.00776	0.00047
332.4	10010	0.000491	3.4e-05
332.4	11270	0.00093	6.4e-05
332.4	12100	0.00134	9e-05
332.4	13080	0.00214	0.00014
332.4	14550	0.00305	0.00019
332.4	15510	0.00419	0.00027
332.4	16780	0.00552	0.00034
332.4	18210	0.00662	0.0004
342.4	10390	0.000491	3.3e-05
342.4	12020	0.00093	5.8e-05
342.4	13140	0.00134	9e-05
342.4	14490	0.00214	0.00013
342.4	16130	0.00305	0.00019
342.4	17530	0.00419	0.00026
342.4	18830	0.00552	0.00034

System: ethanol + 4-oxopentanoic acid + carbon dioxide; phases: Fluid (supercritical or subcritical phases), Crystal
Property: Mole fraction of 4-oxopentanoic acid (Fluid (supercritical or subcritical phases)); method: synthetic method
Temperature, K	Pressure, kPa	Solvent: Mole fraction of ethanol	Mole fraction of 4-oxopentanoic acid	uncertainty
313	8180	0.051	0.00262	0.00052
313	8370	0.051	0.00411	0.00059
313	8570	0.051	0.00594	0.00057
313	8760	0.027	0.000972	0.000642
313	8890	0.027	0.00227	0.0004
313	8890	0.051	0.00773	0.00057
313	9180	0.051	0.00883	0.00059
313	9220	0.027	0.00379	0.00037
313	9470	0.051	0.0097	0.00063
313	9670	0.051	0.0104	0.0007
313	9750	0.027	0.00564	0.0004
313	10490	0.051	0.0123	0.0008
313	10880	0.027	0.00807	0.00051
313	11010	0.051	0.0138	0.0009
313	11660	0.051	0.0156	0.001
313	12200	0.027	0.00991	0.00062
313	12520	0.051	0.0177	0.0011
313	12820	0.027	0.0109	0.0007
313	13590	0.051	0.0204	0.0012
313	14350	0.027	0.0127	0.0008
313	14610	0.051	0.0215	0.0013
313	15330	0.051	0.023	0.0014
313	16080	0.051	0.024	0.0015
313	16130	0.027	0.0147	0.0009
313	17150	0.051	0.0254	0.0015
313	18360	0.027	0.0163	0.001
313	18380	0.051	0.0268	0.0016
322.6	10050	0.051	0.00262	0.0003
322.6	10500	0.051	0.00411	0.00034
322.6	10680	0.027	0.000972	0.000221
322.6	10970	0.027	0.00227	0.00025
322.6	11050	0.051	0.00594	0.00043
322.6	11540	0.027	0.00379	0.0003
322.6	11550	0.051	0.00773	0.00052
322.6	11960	0.051	0.00883	0.00056
322.6	12190	0.027	0.00564	0.00037
322.6	12350	0.051	0.0097	0.00062
322.6	12610	0.051	0.0104	0.0007
322.6	13380	0.051	0.0123	0.0008
322.6	13660	0.027	0.00807	0.0005
322.6	14130	0.051	0.0138	0.0009
322.6	14890	0.051	0.0156	0.001
322.6	15120	0.027	0.00991	0.00061
322.6	15560	0.051	0.0177	0.0011
322.6	16220	0.027	0.0109	0.0007
322.6	16870	0.051	0.0204	0.0012
322.6	18250	0.027	0.0127	0.0008
322.6	18700	0.051	0.0215	0.0013
332.4	11900	0.051	0.00262	0.00024
332.4	12480	0.051	0.00411	0.00031
332.4	12550	0.027	0.000972	0.000198
332.4	12920	0.027	0.00227	0.00023
332.4	13110	0.051	0.00594	0.0004
332.4	13610	0.027	0.00379	0.00027
332.4	13730	0.051	0.00773	0.00049
332.4	14490	0.051	0.00883	0.00055
332.4	14500	0.027	0.00564	0.00036
332.4	14850	0.051	0.0097	0.00061
332.4	15260	0.051	0.0104	0.0006
332.4	16200	0.027	0.00807	0.0005
332.4	16290	0.051	0.0123	0.0008
332.4	17560	0.051	0.0138	0.0008
332.4	17840	0.027	0.00991	0.0006
332.4	18680	0.051	0.0156	0.001
332.4	18990	0.027	0.0109	0.0007
342.4	13820	0.051	0.00262	0.00026
342.4	14240	0.051	0.00411	0.00029
342.4	14470	0.027	0.000972	0.000154
342.4	14720	0.027	0.00227	0.0002
342.4	15090	0.051	0.00594	0.00039
342.4	15430	0.027	0.00379	0.00025
342.4	15710	0.051	0.00773	0.00049
342.4	16330	0.051	0.00883	0.00055
342.4	16350	0.027	0.00564	0.00035
342.4	16680	0.051	0.0097	0.00059
342.4	17230	0.051	0.0104	0.0006
342.4	18180	0.027	0.00807	0.00049
342.4	18760	0.051	0.0123	0.0007
