Measured thermophysical data. Solubility of 1,1'-(Butane-1,4-diyl)-bis(3-methylpyridinium) Dihexafluorophosphate in Different Solvents from (288.15 to 333.15) K
Source: J. Chem. Eng. Data, 2010, 10.1021/je9010954
Compound 1: 1,1'-(butane-1,4-diyl)bis(3-methylpyridinium) hexafluorophosphate(V), C16H22F12N2P2, InChI=1S/C16H22N2.2F6P/c1-15-7-5-11-17(13-15)9-3-4-10-18-12-6-8-16(2)14-18;2*1-7(2,3,4,5)6/h5-8,11-14H,3-4,9-10H2,1-2H3;;/q+2;2*-1, purity 99%
Compound 2: water, H2O, InChI=1S/H2O/h1H2
Compound 3: 2,4-pentanedione, C5H8O2, InChI=1S/C5H8O2/c1-4(6)3-5(2)7/h3H2,1-2H3, purity 99.5%
Compound 4: acetophenone, C8H8O, InChI=1S/C8H8O/c1-7(9)8-5-3-2-4-6-8/h2-6H,1H3, purity 99.5%
Compound 5: cyclohexanone, C6H10O, InChI=1S/C6H10O/c7-6-4-2-1-3-5-6/h1-5H2, purity 99.5%
Compound 6: butanone, C4H8O, InChI=1S/C4H8O/c1-3-4(2)5/h3H2,1-2H3, purity 99.5%
Compound 7: acetone, C3H6O, InChI=1S/C3H6O/c1-3(2)4/h1-2H3, purity 99.5%

System: 1,1'-(butane-1,4-diyl)bis(3-methylpyridinium) hexafluorophosphate(V); phases: Crystal, Liquid, Air at 1 atmosphere
Property: Normal melting temperature, K (Crystal); method: VISOBS
Normal melting temperature, K	uncertainty
435.4	2.51

System: water + 1,1'-(butane-1,4-diyl)bis(3-methylpyridinium) hexafluorophosphate(V); phases: Liquid, Crystal
Fixed: Pressure, kPa = 101
Property: Mole fraction of 1,1'-(butane-1,4-diyl)bis(3-methylpyridinium) hexafluorophosphate(V) (Liquid); method: laser monitering observation technique
Temperature, K	Mole fraction of 1,1'-(butane-1,4-diyl)bis(3-methylpyridinium) hexafluorophosphate(V)	uncertainty
288.15	1.6e-06	1e-07
293.15	2.8e-06	2e-07
298.15	4.9e-06	4e-07
303.15	8.4e-06	6e-07
308.15	1.43e-05	1e-06
313.15	2.44e-05	1.7e-06
318.15	3.93e-05	2.8e-06
323.15	6.25e-05	4.4e-06
328.15	9.76e-05	7e-06
333.15	0.0001569	1.1e-05

System: 2,4-pentanedione + 1,1'-(butane-1,4-diyl)bis(3-methylpyridinium) hexafluorophosphate(V); phases: Liquid, Crystal
Fixed: Pressure, kPa = 101
Property: Mole fraction of 1,1'-(butane-1,4-diyl)bis(3-methylpyridinium) hexafluorophosphate(V) (Liquid); method: laser monitering observation technique
Temperature, K	Mole fraction of 1,1'-(butane-1,4-diyl)bis(3-methylpyridinium) hexafluorophosphate(V)	uncertainty
288.15	0.0011941	3.14e-05
293.15	0.0015742	4.08e-05
298.15	0.0021387	5.51e-05
303.15	0.0028182	7.17e-05
308.15	0.003683	9.2e-05
313.15	0.0046235	0.0001158
318.15	0.0059848	0.0001539
323.15	0.0080714	0.0002031
328.15	0.0100944	0.0002569
333.15	0.0135558	0.0003416

System: acetophenone + 1,1'-(butane-1,4-diyl)bis(3-methylpyridinium) hexafluorophosphate(V); phases: Liquid, Crystal
Fixed: Pressure, kPa = 101
Property: Mole fraction of 1,1'-(butane-1,4-diyl)bis(3-methylpyridinium) hexafluorophosphate(V) (Liquid); method: laser monitering observation technique
Temperature, K	Mole fraction of 1,1'-(butane-1,4-diyl)bis(3-methylpyridinium) hexafluorophosphate(V)	uncertainty
298.15	0.0007482	1.99e-05
303.15	0.0010248	2.59e-05
308.15	0.0013802	3.45e-05
313.15	0.0018274	4.52e-05
318.15	0.0023982	5.89e-05
323.15	0.0031084	7.84e-05
328.15	0.0042833	0.0001066
333.15	0.0055574	0.0001331

System: cyclohexanone + 1,1'-(butane-1,4-diyl)bis(3-methylpyridinium) hexafluorophosphate(V); phases: Liquid, Crystal
Fixed: Pressure, kPa = 101
Property: Mole fraction of 1,1'-(butane-1,4-diyl)bis(3-methylpyridinium) hexafluorophosphate(V) (Liquid); method: laser monitering observation technique
Temperature, K	Mole fraction of 1,1'-(butane-1,4-diyl)bis(3-methylpyridinium) hexafluorophosphate(V)	uncertainty
288.15	0.0002048	7e-06
293.15	0.0003327	9.8e-06
298.15	0.0005101	1.44e-05
303.15	0.0007462	1.95e-05
308.15	0.0009673	2.42e-05
313.15	0.0012091	2.96e-05
318.15	0.001463	3.49e-05
323.15	0.0016401	3.85e-05
328.15	0.0017998	4.18e-05
333.15	0.0018545	4.29e-05

System: butanone + 1,1'-(butane-1,4-diyl)bis(3-methylpyridinium) hexafluorophosphate(V); phases: Liquid, Crystal
Fixed: Pressure, kPa = 101
Property: Mole fraction of 1,1'-(butane-1,4-diyl)bis(3-methylpyridinium) hexafluorophosphate(V) (Liquid); method: laser monitering observation technique
Temperature, K	Mole fraction of 1,1'-(butane-1,4-diyl)bis(3-methylpyridinium) hexafluorophosphate(V)	uncertainty
288.15	0.0028868	7.51e-05
293.15	0.0032793	8.53e-05
298.15	0.0037927	9.9e-05
303.15	0.0043895	0.0001141
308.15	0.0049596	0.0001284
313.15	0.0055646	0.0001439
318.15	0.0062319	0.0001615
323.15	0.0070588	0.0001822
328.15	0.0077092	0.0001987
333.15	0.0085638	0.0002209

System: acetone + water + 1,1'-(butane-1,4-diyl)bis(3-methylpyridinium) hexafluorophosphate(V); phases: Liquid, Crystal
Fixed: Pressure, kPa = 101
Property: Mole fraction of 1,1'-(butane-1,4-diyl)bis(3-methylpyridinium) hexafluorophosphate(V) (Liquid); method: laser monitoring observation technique
Temperature, K	Mole fraction of water	Mole fraction of 1,1'-(butane-1,4-diyl)bis(3-methylpyridinium) hexafluorophosphate(V)	uncertainty
288.35	0.6	0.001772	6.9e-05
288.55	0.3	0.013259	0.000432
288.65	0.2	0.02059	0.000658
289.15	0.8	0.0001	6e-06
289.15	0.9	3.6e-05	3e-06
290.15	0.7	0.000647	2.9e-05
290.35	0.1	0.033367	0.001006
292.15	0.2	0.023982	0.000756
292.15	0.5	0.005531	0.000199
293.15	0.8	0.000167	9e-06
293.15	0.9	8e-05	6e-06
293.95	0.4	0.010671	0.000367
294.15	0.3	0.017234	0.000571
294.85	0.6	0.002597	0.000106
294.95	0.1	0.038205	0.001151
295.15	0.7	0.0009	4e-05
298.55	0.5	0.006794	0.00025
298.85	0.8	0.000315	1.7e-05
298.95	0.6	0.003218	0.00013
299.05	0.9	0.000216	1.4e-05
299.15	0.4	0.013253	0.000461
299.15	0.7	0.001161	5.1e-05
299.85	0.1	0.043876	0.001324
299.95	0.3	0.021437	0.000706
300.15	0.2	0.032386	0.00102
303.15	0.5	0.008085	0.000299
303.35	0.2	0.035598	0.001113
303.35	0.6	0.00407	0.000164
303.35	0.7	0.001525	6.8e-05
303.35	0.8	0.000484	2.5e-05
303.45	0.9	0.000395	2.4e-05
303.55	0.4	0.015659	0.000546
303.65	0.1	0.048703	0.001468
304.15	0.3	0.02463	0.000807
307.15	0.3	0.026601	0.00087
307.65	0.4	0.018533	0.000649
307.65	0.6	0.004992	0.000201
307.65	0.7	0.001963	8.7e-05
307.85	0.5	0.009655	0.000358
308.15	0.2	0.039492	0.00123
308.15	0.8	0.000703	3.5e-05
308.35	0.9	0.000655	3.8e-05
308.45	0.1	0.053974	0.001628
312.15	0.1	0.058682	0.001772
312.15	0.5	0.011619	0.000435
312.15	0.8	0.000918	4.5e-05
312.35	0.4	0.022266	0.000781
312.55	0.7	0.002542	0.000112
312.65	0.3	0.030457	0.000997
313.15	0.6	0.006494	0.000261
313.45	0.9	0.000945	5.4e-05
314.15	0.2	0.043234	0.001348
316.65	0.4	0.026589	0.000936
316.65	0.5	0.014245	0.000535
317.15	0.1	0.063817	0.001927
317.15	0.2	0.044836	0.001394
317.35	0.6	0.007941	0.000319
318.15	0.3	0.034286	0.001122
318.15	0.7	0.003369	0.000148
319.15	0.8	0.00128	6.2e-05
319.15	0.9	0.001206	6.8e-05
320.35	0.5	0.016642	0.000626
320.45	0.4	0.030792	0.001085
322.15	0.2	0.046696	0.001491
323.15	0.1	0.069262	0.002096
323.15	0.5	0.019126	0.000721
323.15	0.6	0.010373	0.000423
323.15	0.8	0.001485	9.2e-05
323.15	0.9	0.001313	7.4e-05
323.65	0.7	0.004436	0.000204
324.15	0.3	0.038036	0.001246
325.25	0.4	0.036367	0.001268
