Measured thermophysical data. Solubility of Avermectin B1a in Some Pure and Mixed Solvents from (278.2 to 318.2) K
Source: J. Chem. Eng. Data, 2010, 10.1021/je900772h
Compound 1: methanol, CH4O, InChI=1S/CH4O/c1-2/h2H,1H3
Compound 2: ethanol, C2H6O, InChI=1S/C2H6O/c1-2-3/h3H,2H2,1H3
Compound 3: propan-1-ol, C3H8O, InChI=1S/C3H8O/c1-2-3-4/h4H,2-3H2,1H3
Compound 4: propan-2-ol, C3H8O, InChI=1S/C3H8O/c1-3(2)4/h3-4H,1-2H3
Compound 5: butan-1-ol, C4H10O, InChI=1S/C4H10O/c1-2-3-4-5/h5H,2-4H2,1H3
Compound 6: diisopropyl ether, C6H14O, InChI=1S/C6H14O/c1-5(2)7-6(3)4/h5-6H,1-4H3
Compound 7: water, H2O, InChI=1S/H2O/h1H2
Compound 8: Avermectin B1a, C48H72O14, InChI=1S/C48H72O14/c1-11-25(2)43-28(5)17-18-47(62-43)23-34-20-33(61-47)16-15-27(4)42(26(3)13-12-14-32-24-55-45-40(49)29(6)19-35(46(51)58-34)48(32,45)52)59-39-22-37(54-10)44(31(8)57-39)60-38-21-36(53-9)41(50)30(7)56-38/h12-15,17-19,25-26,28,30-31,33-45,49-50,52H,11,16,20-24H2,1-10H3/b13-12+,27-15+,32-14+/t25-,26-,28-,30-,31-,33+,34-,35-,36-,37-,38-,39-,40+,41-,42-,43+,44-,45+,47+,48+/m0/s1

System: methanol + Avermectin B1a; phases: Liquid, Crystal
Fixed: Pressure, kPa = 101
Property: Amount concentration (molarity), mol/dm3 (Liquid); method: HPLC system
Temperature, K	Amount concentration (molarity), mol/dm3	uncertainty
278.2	0.01051	0.00094
283.2	0.01197	0.00094
288.2	0.01421	0.00094
293.2	0.0158	0.00094
298.2	0.01775	0.00094
303.2	0.01968	0.00094
308.2	0.0217	0.00094
313.2	0.02345	0.00094
318.2	0.02749	0.00094

System: ethanol + Avermectin B1a; phases: Liquid, Crystal
Fixed: Pressure, kPa = 101
Property: Amount concentration (molarity), mol/dm3 (Liquid); method: HPLC system
Temperature, K	Amount concentration (molarity), mol/dm3	uncertainty
278.2	0.0052	0.00038
283.2	0.00573	0.00038
288.2	0.00665	0.00038
293.2	0.00812	0.00038
298.2	0.00906	0.00038
303.2	0.01087	0.00038
308.2	0.01351	0.00038
313.2	0.0167	0.00038
318.2	0.02039	0.00038

System: propan-1-ol + Avermectin B1a; phases: Liquid, Crystal
Fixed: Pressure, kPa = 101
Property: Amount concentration (molarity), mol/dm3 (Liquid); method: HPLC system
Temperature, K	Amount concentration (molarity), mol/dm3	uncertainty
278.2	0.02732	0.00212
283.2	0.0313	0.00212
288.2	0.0381	0.00212
293.2	0.04247	0.00212
298.2	0.04831	0.00212
303.2	0.05773	0.00212
308.2	0.06772	0.00212
313.2	0.07746	0.00212
318.2	0.08694	0.00212

System: propan-2-ol + Avermectin B1a; phases: Liquid, Crystal
Fixed: Pressure, kPa = 101
Property: Amount concentration (molarity), mol/dm3 (Liquid); method: HPLC system
Temperature, K	Amount concentration (molarity), mol/dm3	uncertainty
278.2	0.02803	0.00551
283.2	0.0291	0.00551
288.2	0.03148	0.00551
293.2	0.03749	0.00551
298.2	0.04595	0.00551
303.2	0.05441	0.00551
308.2	0.06832	0.00551
313.2	0.09041	0.00551
318.2	0.10419	0.00551

System: butan-1-ol + Avermectin B1a; phases: Liquid, Crystal
Fixed: Pressure, kPa = 101
Property: Amount concentration (molarity), mol/dm3 (Liquid); method: HPLC system
Temperature, K	Amount concentration (molarity), mol/dm3	uncertainty
278.2	0.00767	0.00136
283.2	0.00871	0.00136
288.2	0.0102	0.00136
293.2	0.01243	0.00136
298.2	0.01555	0.00136
303.2	0.01892	0.00136
308.2	0.02543	0.00136
313.2	0.02964	0.00136
318.2	0.03958	0.00136

System: diisopropyl ether + Avermectin B1a; phases: Liquid, Crystal
Fixed: Pressure, kPa = 101
Property: Amount concentration (molarity), mol/dm3 (Liquid); method: HPLC system
Temperature, K	Amount concentration (molarity), mol/dm3	uncertainty
278.2	0.00819	0.00113
283.2	0.00897	0.00113
288.2	0.01021	0.00113
293.2	0.01159	0.00113
298.2	0.01286	0.00113
303.2	0.01651	0.00113
308.2	0.01882	0.00113
313.2	0.02537	0.00113
318.2	0.03091	0.00113

System: methanol + water + Avermectin B1a; phases: Liquid, Crystal
Fixed: Pressure, kPa = 101
Property: Amount concentration (molarity), mol/dm3 of Avermectin B1a (Liquid); method: HPLC
Temperature, K	Solvent: Volume fraction of methanol	Amount concentration (molarity), mol/dm3 of Avermectin B1a	uncertainty
278.2	0.5	2.09e-05	1.06e-05
278.2	0.6	9.26e-05	1.32e-05
278.2	0.7	0.0011353	5.77e-05
278.2	0.8	0.0030609	0.0003045
278.2	0.9	0.0064175	0.0004118
283.2	0.5	2.24e-05	1.06e-05
283.2	0.6	0.0001076	1.32e-05
283.2	0.7	0.001187	5.77e-05
283.2	0.8	0.0034178	0.0003045
283.2	0.9	0.0070979	0.0004118
288.2	0.5	2.6e-05	1.06e-05
288.2	0.6	0.0001347	1.32e-05
288.2	0.7	0.0012603	5.77e-05
288.2	0.8	0.0035883	0.0003045
288.2	0.9	0.0075803	0.0004118
293.2	0.5	3.3e-05	1.06e-05
293.2	0.6	0.0001551	1.32e-05
293.2	0.7	0.001329	5.77e-05
293.2	0.8	0.0037942	0.0003045
293.2	0.9	0.0079054	0.0004118
298.2	0.5	4.08e-05	1.06e-05
298.2	0.6	0.000198	1.32e-05
298.2	0.7	0.001482	5.77e-05
298.2	0.8	0.0043055	0.0003045
298.2	0.9	0.0091284	0.0004118
303.2	0.5	5.12e-05	1.06e-05
303.2	0.6	0.0002349	1.32e-05
303.2	0.7	0.0016957	5.77e-05
303.2	0.8	0.0050228	0.0003045
303.2	0.9	0.0104852	0.0004118
308.2	0.5	7.45e-05	1.06e-05
308.2	0.6	0.0002891	1.32e-05
308.2	0.7	0.0019167	5.77e-05
308.2	0.8	0.0061514	0.0003045
308.2	0.9	0.012443	0.0004118
313.2	0.5	9.45e-05	1.06e-05
313.2	0.6	0.00038	1.32e-05
313.2	0.7	0.002383	5.77e-05
313.2	0.8	0.0067854	0.0003045
313.2	0.9	0.0141402	0.0004118
318.2	0.5	0.0001005	1.06e-05
318.2	0.6	0.0004549	1.32e-05
318.2	0.7	0.002903	5.77e-05
318.2	0.8	0.0081832	0.0003045
318.2	0.9	0.0168161	0.0004118
