Measured thermophysical data. Solubility of Ethanamide and 2-Propenamide in Supercritical Carbon Dioxide. Measurements and Correlation
Source: J. Chem. Eng. Data, 2009, 10.1021/je900109b
Compound 1: ethanamide, C2H5NO, InChI=1S/C2H5NO/c1-2(3)4/h1H3,(H2,3,4), purity 98%
Compound 2: propenamide, C3H5NO, InChI=1S/C3H5NO/c1-2-3(4)5/h2H,1H2,(H2,4,5), purity 98%
Compound 3: carbon dioxide, CO2, InChI=1S/CO2/c2-1-3, purity 99.995%

System: ethanamide + carbon dioxide; phases: Fluid (supercritical or subcritical phases), Crystal
Property: Mole fraction of ethanamide (Fluid (supercritical or subcritical phases)); method: gravimetric
Temperature, K	Pressure, kPa	Mole fraction of ethanamide	uncertainty
308.2	9000	0.0007543	0.000275
308.2	10000	0.0009031	0.0002248
308.2	12000	0.001096	0.000195
308.2	15000	0.001195	0.000166
308.2	17500	0.001225	0.000158
308.2	20000	0.001346	0.000195
308.2	25000	0.001551	0.000206
308.2	30000	0.001577	0.000182
308.2	35000	0.001678	0.000216
308.2	40000	0.001804	0.00019
313.2	9000	0.0003998	0.0003998
313.2	10000	0.000789	0.0003146
313.2	12000	0.001154	0.000374
313.2	15000	0.001494	0.000219
313.2	17500	0.001525	0.000171
313.2	20000	0.001681	0.000195
313.2	25000	0.001887	0.000191
313.2	30000	0.001925	0.000225
313.2	35000	0.002073	0.000228
313.2	40000	0.002085	0.000255
323.2	9000	0.0002383	0.0002383
323.2	10000	0.0004324	0.0004324
323.2	11000	0.0008683	0.0004357
323.2	12000	0.001152	0.000494
323.2	15000	0.001692	0.000273
323.2	20000	0.002125	0.000228
323.2	25000	0.002355	0.000251
323.2	30000	0.002765	0.00028
323.2	35000	0.002814	0.000292
323.2	40000	0.003162	0.00036

System: propenamide + carbon dioxide; phases: Fluid (supercritical or subcritical phases), Crystal
Property: Mole fraction of propenamide (Fluid (supercritical or subcritical phases)); method: gravimetric
Temperature, K	Pressure, kPa	Mole fraction of propenamide	uncertainty
308.2	9000	0.0003276	0.0001481
308.2	10000	0.0003971	0.000126
308.2	12000	0.0005324	0.0001355
308.2	15000	0.000671	0.0001005
308.2	20000	0.000706	0.00011
308.2	25000	0.0008704	0.0001297
308.2	30000	0.0009318	0.0001355
308.2	35000	0.000941	0.0001383
308.2	40000	0.001021	0.000135
313.2	9000	0.0002084	0.0002084
313.2	10000	0.0003901	0.0001643
313.2	12000	0.0006572	0.0001884
313.2	15000	0.0007448	0.0001004
313.2	20000	0.0009628	0.0001137
313.2	25000	0.001085	0.000107
313.2	30000	0.001195	0.00013
313.2	35000	0.001251	0.000126
313.2	40000	0.001279	0.000144
323.2	9000	0.0001193	0.0001193
323.2	10000	0.0002392	0.0002026
323.2	11000	0.000346	0.000203
323.2	12000	0.0005146	0.0002153
323.2	15000	0.0007421	0.0001586
323.2	20000	0.001104	0.000131
323.2	25000	0.001173	0.000125
323.2	30000	0.001467	0.000173
323.2	35000	0.00154	0.000192
323.2	40000	0.001631	0.000175
