Measured thermophysical data. Compositions, Densities, and Refractive Indices for the Ternary Systems Ethylene Glycol + NaCl + H2O, Ethylene Glycol + KCl + H2O, Ethylene Glycol + RbCl + H2O, and Ethylene Glycol + CsCl + H2O at 298.15 K
Source: J. Chem. Eng. Data, 2010, 10.1021/je900630n
Compound 1: 1,2-ethanediol, C2H6O2, InChI=1S/C2H6O2/c3-1-2-4/h3-4H,1-2H2
Compound 2: sodium chloride, ClNa, InChI=1S/ClH.Na/h1H;/q;+1/p-1
Compound 3: water, H2O, InChI=1S/H2O/h1H2
Compound 4: potassium chloride, ClK, InChI=1S/ClH.K/h1H;/q;+1/p-1
Compound 5: rubidium chloride, ClRb, InChI=1S/ClH.Rb/h1H;/q;+1/p-1
Compound 6: cesium chloride, ClCs, InChI=1S/ClH.Cs/h1H;/q;+1/p-1

System: 1,2-ethanediol + sodium chloride + water; phases: Liquid, Crystal
Fixed: Pressure, kPa = 101
Fixed: Temperature, K = 298.15
Property: Refractive index (Na D-line) (Liquid); method: ABBE:UFactor:4
Solvent: Mass fraction of 1,2-ethanediol	Refractive index (Na D-line)	uncertainty
0	1.37964	0.00171
0.1026	1.38358	0.00171
0.2046	1.38805	0.00171
0.2994	1.3935	0.00171
0.3985	1.39854	0.00171
0.5012	1.40434	0.00171
0.6009	1.4103	0.00171
0.7001	1.41652	0.00171
0.8014	1.42324	0.00171
0.8894	1.43026	0.00171
1	1.43731	0.00171

System: 1,2-ethanediol + sodium chloride + water; phases: Liquid, Crystal
Fixed: Pressure, kPa = 101
Fixed: Temperature, K = 298.15
Property: Mass density, kg/m3 (Liquid); method: VIBTUB:UFactor:16
Solvent: Mass fraction of 1,2-ethanediol	Mass density, kg/m3	uncertainty
0	1198.26	2.27
0.1026	1189.9	2.2
0.2046	1182.86	2.14
0.2994	1175.82	2.09
0.3985	1171.1	2.05
0.5012	1166.02	2.01
0.6009	1161.3	1.97
0.7001	1157.7	1.94
0.8014	1154.53	1.91
0.8894	1152.44	1.9
1	1150.53	1.88

System: 1,2-ethanediol + sodium chloride + water; phases: Liquid, Crystal
Fixed: Pressure, kPa = 101
Fixed: Temperature, K = 298.15
Property: Mass fraction of sodium chloride (Liquid); method: TITR:UFactor:16
Solvent: Mass fraction of 1,2-ethanediol	Mass fraction of sodium chloride	uncertainty
0	0.2641	0.0127
0.1026	0.2393	0.0115
0.2046	0.2138	0.0103
0.2994	0.1919	0.0092
0.3985	0.1733	0.0083
0.5012	0.1518	0.0073
0.6009	0.1307	0.0063
0.7001	0.1137	0.0055
0.8014	0.093	0.0045
0.8894	0.0809	0.0039
1	0.0669	0.0032

System: 1,2-ethanediol + sodium chloride + water; phases: Liquid
Fixed: Pressure, kPa = 101
Fixed: Temperature, K = 298.15
Property: Refractive index (Na D-line) (Liquid); method: ABBE:UFactor:4
Solvent: Mass fraction of 1,2-ethanediol	Mass fraction of sodium chloride	Refractive index (Na D-line)	uncertainty
0.08251	0.19178	1.14878	0.00172
0.08262	0.17636	1.13673	0.00171
0.08588	0.14277	1.11063	0.00171
0.0874	0.15939	1.12538	0.00171
0.08854	0.12459	1.09834	0.00171
0.08975	0.10602	1.08436	0.00171
0.09227	0.08676	1.06969	0.00171
0.09338	0.06638	1.0562	0.00171
0.09531	0.04777	1.04256	0.00171
0.09788	0.02324	1.02567	0.00171
0.25152	0.16155	1.14735	0.00171
0.2567	0.14536	1.13583	0.00171
0.2605	0.13151	1.12711	0.00171
0.26519	0.11674	1.11605	0.00171
0.26871	0.10421	1.10779	0.00171
0.27409	0.08752	1.0967	0.00171
0.27869	0.07131	1.08514	0.00171
0.28408	0.05617	1.07395	0.00171
0.28948	0.03689	1.06078	0.00171
0.29416	0.01967	1.04883	0.00171
0.43459	0.13177	1.14871	0.00171
0.43953	0.12038	1.14134	0.00171
0.44728	0.10795	1.13362	0.00171
0.45215	0.09614	1.12522	0.00171
0.459	0.08307	1.11564	0.00171
0.46722	0.06868	1.10709	0.00171
0.47131	0.05731	1.09907	0.00171
0.47778	0.04318	1.08915	0.00171
0.48581	0.02928	1.08069	0.00171
0.49206	0.01503	1.07181	0.00171
0.62662	0.10122	1.14782	0.00171
0.63513	0.0927	1.14369	0.00171
0.63927	0.08299	1.13703	0.00171
0.64801	0.07254	1.13034	0.00171
0.65553	0.06408	1.12473	0.00171
0.66228	0.05363	1.11786	0.00171
0.66934	0.04338	1.11147	0.00171
0.67488	0.03281	1.10457	0.00171
0.68425	0.02217	1.09781	0.00171
0.69192	0.01112	1.09089	0.00171
0.83284	0.07442	1.14884	0.00171
0.83869	0.06721	1.14424	0.00171
0.8437	0.06141	1.13937	0.00171
0.85108	0.05408	1.13591	0.00171
0.85574	0.04623	1.13056	0.00171
0.86066	0.03893	1.12616	0.00171
0.87035	0.0319	1.12238	0.00171
0.87824	0.02378	1.11722	0.00171
0.8853	0.01573	1.11208	0.00171
0.89065	0.00839	1.10789	0.00171

System: 1,2-ethanediol + sodium chloride + water; phases: Liquid
Fixed: Pressure, kPa = 101
Fixed: Temperature, K = 298.15
Property: Mass density, kg/m3 (Liquid); method: VIBTUB:UFactor:4
Solvent: Mass fraction of 1,2-ethanediol	Mass fraction of sodium chloride	Mass density, kg/m3	uncertainty
0.08251	0.19178	1374.5	0.95
0.08251	0.19178	1374.5	0.95
0.08262	0.17636	1371.69	0.95
0.08262	0.17636	1371.69	0.95
0.08588	0.14277	1365.67	0.94
0.08588	0.14277	1365.67	0.94
0.0874	0.15939	1369.38	0.94
0.0874	0.15939	1369.38	0.94
0.08854	0.12459	1362.97	0.93
0.08854	0.12459	1362.97	0.93
0.08975	0.10602	1359.66	0.92
0.09227	0.08676	1356.17	0.92
0.09338	0.06638	1353.06	0.91
0.09531	0.04777	1349.77	0.9
0.09788	0.02324	1345.74	0.89
0.25152	0.16155	1386.35	0.98
0.25152	0.16155	1386.35	0.98
0.2567	0.14536	1383.89	0.97
0.2567	0.14536	1383.89	0.97
0.2605	0.13151	1382.24	0.97
0.2605	0.13151	1382.24	0.97
0.26519	0.11674	1379.68	0.96
0.26519	0.11674	1379.68	0.96
0.26871	0.10421	1378.06	0.96
0.26871	0.10421	1378.06	0.96
0.27409	0.08752	1375.68	0.96
0.27869	0.07131	1373.02	0.95
0.28408	0.05617	1370.35	0.94
0.28948	0.03689	1367.36	0.94
0.29416	0.01967	1364.47	0.93
0.43459	0.13177	1399.97	1.01
0.43953	0.12038	1398.57	1
0.44728	0.10795	1397.14	1
0.45215	0.09614	1395.36	1
0.459	0.08307	1393.13	0.99
0.46722	0.06868	1391.72	0.99
0.47131	0.05731	1389.81	0.98
0.47778	0.04318	1387.5	0.98
0.48581	0.02928	1386.02	0.98
0.49206	0.01503	1384.33	0.97
0.62662	0.10122	1413.2	1.03
0.63513	0.0927	1412.8	1.03
0.63927	0.08299	1411.38	1.03
0.64801	0.07254	1410.16	1.03
0.65553	0.06408	1409.07	1.02
0.66228	0.05363	1407.78	1.02
0.66934	0.04338	1406.67	1.02
0.67488	0.03281	1405.21	1.02
0.68425	0.02217	1403.89	1.01
0.69192	0.01112	1402.67	1.01
0.83284	0.07442	1428.86	1.07
0.83869	0.06721	1428.05	1.06
0.8437	0.06141	1427.07	1.06
0.85108	0.05408	1426.75	1.06
0.85574	0.04623	1425.55	1.06
0.86066	0.03893	1424.83	1.06
0.87035	0.0319	1424.71	1.06
0.87824	0.02378	1423.62	1.05
0.8853	0.01573	1422.86	1.05
0.89065	0.00839	1422.13	1.05

System: 1,2-ethanediol + potassium chloride + water; phases: Liquid, Crystal
Fixed: Pressure, kPa = 101
Fixed: Temperature, K = 298.15
Property: Refractive index (Na D-line) (Liquid); method: ABBE:UFactor:4
Solvent: Mass fraction of 1,2-ethanediol	Refractive index (Na D-line)	uncertainty
0	1.36884	0.00171
0.1048	1.37319	0.00171
0.2152	1.37816	0.00171
0.2997	1.38369	0.00171
0.4053	1.38986	0.00171
0.5001	1.39644	0.00171
0.6	1.4031	0.00171
0.7006	1.4109	0.00171
0.7992	1.4185	0.00171
0.8993	1.426	0.00171
1	1.4341	0.00171

System: 1,2-ethanediol + potassium chloride + water; phases: Liquid, Crystal
Fixed: Pressure, kPa = 101
Fixed: Temperature, K = 298.15
Property: Mass density, kg/m3 (Liquid); method: VIBTUB:UFactor:16
Solvent: Mass fraction of 1,2-ethanediol	Mass density, kg/m3	uncertainty
0	1176.9	2.1
0.1048	1167.79	2.02
0.2152	1160	1.96
0.2997	1153.53	1.91
0.4053	1148.12	1.86
0.5001	1144.03	1.83
0.6	1141.1	1.8
0.7006	1138.8	1.79
0.7992	1137.54	1.78
0.8993	1137.33	1.77
1	1138.14	1.78

System: 1,2-ethanediol + potassium chloride + water; phases: Liquid, Crystal
Fixed: Pressure, kPa = 101
Fixed: Temperature, K = 298.15
Property: Mass fraction of potassium chloride (Liquid); method: TITR:UFactor:16
Solvent: Mass fraction of 1,2-ethanediol	Mass fraction of potassium chloride	uncertainty
0	0.2662	0.0128
0.1048	0.2322	0.0111
0.2152	0.2038	0.0098
0.2997	0.1799	0.0086
0.4053	0.1544	0.0074
0.5001	0.1365	0.0066
0.6	0.1136	0.0055
0.7006	0.0958	0.0046
0.7992	0.0785	0.0038
0.8993	0.0675	0.0032
1	0.0528	0.0025

System: 1,2-ethanediol + potassium chloride + water; phases: Liquid
Fixed: Pressure, kPa = 101
Fixed: Temperature, K = 298.15
Property: Refractive index (Na D-line) (Liquid); method: ABBE:UFactor:4
Solvent: Mass fraction of 1,2-ethanediol	Mass fraction of potassium chloride	Refractive index (Na D-line)	uncertainty
0.08056	0.20006	1.14203	0.00172
0.08158	0.18407	1.13073	0.00171
0.08504	0.14926	1.10637	0.00171
0.08765	0.16718	1.11945	0.00171
0.08866	0.13077	1.09399	0.00171
0.08877	0.11201	1.08131	0.00171
0.09257	0.09112	1.0674	0.00171
0.09297	0.07078	1.05345	0.00171
0.09627	0.04766	1.03975	0.00171
0.09912	0.0246	1.02518	0.00171
0.25363	0.1553	1.13431	0.00171
0.258	0.14172	1.12511	0.00171
0.26198	0.12838	1.11642	0.00171
0.26594	0.11398	1.10726	0.00171
0.27415	0.09913	1.09896	0.00171
0.27521	0.08419	1.08813	0.00171
0.28224	0.06789	1.07745	0.00171
0.28579	0.0521	1.06777	0.00171
0.28999	0.03557	1.05479	0.00171
0.29711	0.01792	1.04745	0.00171
0.44338	0.11387	1.13085	0.00171
0.44831	0.10384	1.12414	0.00171
0.45395	0.09272	1.11842	0.00171
0.45889	0.08217	1.1119	0.00171
0.46489	0.07172	1.10529	0.00171
0.47125	0.05965	1.0979	0.00171
0.47637	0.0482	1.08997	0.00171
0.48074	0.03615	1.08335	0.00171
0.4875	0.02513	1.0771	0.00171
0.49338	0.01342	1.06813	0.00171
0.64514	0.07836	1.12757	0.00171
0.6502	0.06254	1.12031	0.00171
0.65084	0.07058	1.12694	0.00171
0.66178	0.0559	1.11878	0.00171
0.66484	0.04967	1.11427	0.00171
0.66876	0.03977	1.10906	0.00171
0.67805	0.03421	1.10509	0.00171
0.6819	0.02502	1.0995	0.00171
0.68884	0.01631	1.09525	0.00171
0.69026	0.00859	1.08913	0.00171
0.86544	0.03809	1.12464	0.00171
0.87019	0.03302	1.12116	0.00171
0.87181	0.02988	1.11944	0.00171
0.87573	0.02605	1.11759	0.00171
0.87967	0.02226	1.11567	0.00171
0.88284	0.01784	1.11222	0.00171
0.88574	0.01505	1.11141	0.00171
0.88905	0.01143	1.1092	0.00171
0.89265	0.0077	1.10723	0.00171
0.89648	0.00384	1.10491	0.00171

System: 1,2-ethanediol + potassium chloride + water; phases: Liquid
Fixed: Pressure, kPa = 101
Fixed: Temperature, K = 298.15
Property: Mass density, kg/m3 (Liquid); method: VIBTUB:UFactor:4
Solvent: Mass fraction of 1,2-ethanediol	Mass fraction of potassium chloride	Mass density, kg/m3	uncertainty
0.08056	0.20006	1368.2	0.94
0.08158	0.18407	1366.02	0.94
0.08504	0.14926	1361.32	0.93
0.08765	0.16718	1364.19	0.93
0.08866	0.13077	1359.04	0.92
0.08877	0.11201	1356.44	0.92
0.09257	0.09112	1353.71	0.91
0.09297	0.07078	1350.86	0.9
0.09627	0.04766	1348.17	0.9
0.09912	0.0246	1345.2	0.89
0.25363	0.1553	1380.04	0.96
0.258	0.14172	1378.45	0.96
0.26198	0.12838	1376.8	0.96
0.26594	0.11398	1375.02	0.95
0.27415	0.09913	1373.95	0.95
0.27521	0.08419	1371.46	0.95
0.28224	0.06789	1369.65	0.94
0.28579	0.0521	1367.67	0.94
0.28999	0.03557	1365.08	0.93
0.29711	0.01792	1363.95	0.93
0.44338	0.11387	1394.16	0.99
0.44831	0.10384	1392.91	0.99
0.45395	0.09272	1391.85	0.99
0.45889	0.08217	1390.73	0.99
0.46489	0.07172	1389.88	0.99
0.47125	0.05965	1388.45	0.98
0.47637	0.0482	1387.17	0.98
0.48074	0.03615	1385.79	0.98
0.4875	0.02513	1384.76	0.97
0.49338	0.01342	1383.27	0.97
0.64514	0.07836	1409.12	1.02
0.6502	0.06254	1407.47	1.02
0.65084	0.07058	1409.01	1.02
0.66178	0.0559	1407.92	1.02
0.66484	0.04967	1407.02	1.02
0.66876	0.03977	1405.99	1.02
0.67805	0.03421	1405.77	1.02
0.6819	0.02502	1404.61	1.02
0.68884	0.01631	1404.02	1.01
0.69026	0.00859	1402.5	1.01
0.86544	0.03809	1424.16	1.06
0.87019	0.03302	1423.36	1.05
0.87181	0.02988	1423.3	1.05
0.87573	0.02605	1423.2	1.05
0.87967	0.02226	1423.15	1.05
0.88284	0.01784	1422.89	1.05
0.88574	0.01505	1422.51	1.05
0.88905	0.01143	1422.26	1.05
0.89265	0.0077	1421.96	1.05
0.89648	0.00384	1421.62	1.05

System: 1,2-ethanediol + water + rubidium chloride; phases: Liquid, Crystal
Fixed: Pressure, kPa = 101
Fixed: Temperature, K = 298.15
Property: Refractive index (Na D-line) (Liquid); method: ABBE:UFactor:4
Solvent: Mass fraction of 1,2-ethanediol	Refractive index (Na D-line)	uncertainty
0	1.38841	0.00171
0.0998	1.39104	0.00171
0.2004	1.39409	0.00171
0.3003	1.39769	0.00171
0.4996	1.40647	0.00171
0.6003	1.41171	0.00171
0.6998	1.41632	0.00171
0.8001	1.4237	0.00171
0.8999	1.42995	0.00171
1	1.43742	0.00171

System: 1,2-ethanediol + water + rubidium chloride; phases: Liquid, Crystal
Fixed: Pressure, kPa = 101
Fixed: Temperature, K = 298.15
Property: Mass density, kg/m3 (Liquid); method: VIBTUB:UFactor:64
Solvent: Mass fraction of 1,2-ethanediol	Mass density, kg/m3	uncertainty
0	1496.51	18.65
0.0998	1463.81	17.59
0.2004	1427.08	16.4
0.3003	1394.9	15.36
0.4996	1323.06	13.03
0.6003	1295.55	12.14
0.6998	1258.25	10.94
0.8001	1239.3	10.32
0.8999	1218.71	9.66
1	1201.84	9.11

System: 1,2-ethanediol + water + rubidium chloride; phases: Liquid, Crystal
Fixed: Pressure, kPa = 101
Fixed: Temperature, K = 298.15
Property: Mass fraction of rubidium chloride (Liquid); method: TITR:UFactor:16
Solvent: Mass fraction of 1,2-ethanediol	Mass fraction of rubidium chloride	uncertainty
0	0.4858	0.0233
0.0998	0.449	0.0216
0.2004	0.4217	0.0202
0.3003	0.3735	0.0179
0.4996	0.2951	0.0142
0.6003	0.2552	0.0122
0.6998	0.2178	0.0105
0.8001	0.1771	0.0085
0.8999	0.146	0.007
1	0.0958	0.0046

System: 1,2-ethanediol + water + rubidium chloride; phases: Liquid
Fixed: Pressure, kPa = 101
Fixed: Temperature, K = 298.15
Property: Refractive index (Na D-line) (Liquid); method: ABBE:UFactor:4
Solvent: Mass fraction of 1,2-ethanediol	Mass fraction of rubidium chloride	Refractive index (Na D-line)	uncertainty
0.06908	0.31492	1.293	0.00174
0.07176	0.29229	1.26866	0.00174
0.07474	0.2688	1.24382	0.00173
0.07539	0.2441	1.21781	0.00173
0.07831	0.21572	1.19061	0.00172
0.08158	0.18731	1.16351	0.00172
0.08533	0.15539	1.13454	0.00172
0.08881	0.12037	1.10417	0.00171
0.09308	0.08398	1.07422	0.00171
0.09599	0.04389	1.04257	0.00171
0.21624	0.2792	1.28057	0.00176
0.22355	0.25758	1.2489	0.00173
0.22951	0.23658	1.23611	0.00173
0.23574	0.21309	1.20703	0.00172
0.24269	0.18849	1.19087	0.00172
0.25511	0.16143	1.16653	0.00172
0.25898	0.13499	1.14286	0.00171
0.26874	0.10394	1.1166	0.00171
0.27877	0.07207	1.09106	0.00171
0.28873	0.03792	1.06127	0.00171
0.38931	0.22106	1.24651	0.00173
0.39709	0.20327	1.22852	0.00173
0.40719	0.18511	1.21329	0.00172
0.4161	0.16629	1.19649	0.00172
0.42659	0.14573	1.17737	0.00172
0.43675	0.12515	1.15995	0.00171
0.44885	0.10242	1.14124	0.00171
0.4605	0.07839	1.12166	0.00171
0.47039	0.05412	1.10228	0.00171
0.48607	0.02816	1.0827	0.00171
0.58163	0.16955	1.22021	0.00172
0.591	0.15497	1.20843	0.00172
0.60154	0.14117	1.19653	0.00172
0.61132	0.12562	1.1828	0.00171
0.62213	0.11044	1.16719	0.00171
0.63502	0.09177	1.1555	0.00171
0.64649	0.07672	1.14275	0.00171
0.65904	0.058	1.12839	0.00171
0.67043	0.03889	1.11345	0.00171
0.68393	0.0202	1.09968	0.00171
0.8005	0.11033	1.18475	0.00171
0.80906	0.10007	1.17987	0.00171
0.81926	0.08915	1.17035	0.00171
0.83224	0.068	1.15307	0.00171
0.83563	0.07517	1.16291	0.00171
0.8482	0.05746	1.14622	0.00171
0.85469	0.04789	1.13849	0.00171
0.86755	0.03541	1.12923	0.00171
0.87505	0.0233	1.11947	0.00171
0.88453	0.01247	1.11165	0.00171

System: 1,2-ethanediol + water + rubidium chloride; phases: Liquid
Fixed: Temperature, K = 298.15
Fixed: Pressure, kPa = 101
Property: Mass density, kg/m3 (Liquid); method: VIBTUB:UFactor:4
Solvent: Mass fraction of 1,2-ethanediol	Mass fraction of rubidium chloride	Mass density, kg/m3	uncertainty
0.06908	0.31492	1373.63	0.95
0.07176	0.29229	1370.86	0.95
0.07474	0.2688	1368.52	0.94
0.07539	0.2441	1365.52	0.94
0.07831	0.21572	1362.6	0.93
0.08158	0.18731	1359.67	0.92
0.08533	0.15539	1356.48	0.92
0.08881	0.12037	1353.11	0.91
0.09308	0.08398	1349.77	0.9
0.09599	0.04389	1345.99	0.89
0.21624	0.2792	1386.9	0.98
0.22355	0.25758	1383.53	0.97
0.22951	0.23658	1382.54	0.97
0.23574	0.21309	1379.57	0.96
0.24269	0.18849	1378.03	0.96
0.25511	0.16143	1375.9	0.96
0.25898	0.13499	1373.13	0.95
0.26874	0.10394	1370.45	0.94
0.27877	0.07207	1367.79	0.94
0.28873	0.03792	1364.51	0.93
0.38931	0.22106	1399.52	1.01
0.39709	0.20327	1397.81	1
0.40719	0.18511	1396.52	1
0.4161	0.16629	1394.85	1
0.42659	0.14573	1393.17	0.99
0.43675	0.12515	1391.54	0.99
0.44885	0.10242	1389.86	0.98
0.4605	0.07839	1388.09	0.98
0.47039	0.05412	1385.93	0.98
0.48607	0.02816	1384.21	0.97
0.58163	0.16955	1413.43	1.03
0.591	0.15497	1412.64	1.03
0.60154	0.14117	1411.99	1.03
0.61132	0.12562	1410.6	1.03
0.62213	0.11044	1409.32	1.03
0.63502	0.09177	1408.41	1.02
0.64649	0.07672	1407.43	1.02
0.65904	0.058	1406.17	1.02
0.67043	0.03889	1404.6	1.02
0.68393	0.0202	1403.53	1.01
0.8005	0.11033	1427.7	1.06
0.80906	0.10007	1427.24	1.06
0.81926	0.08915	1426.64	1.06
0.83224	0.068	1425.45	1.06
0.83563	0.07517	1426.18	1.06
0.8482	0.05746	1424.97	1.06
0.85469	0.04789	1424.19	1.06
0.86755	0.03541	1423.63	1.05
0.87505	0.0233	1422.6	1.05
0.88453	0.01247	1421.93	1.05

System: 1,2-ethanediol + cesium chloride + water; phases: Liquid, Crystal
Fixed: Pressure, kPa = 101
Fixed: Temperature, K = 298.15
Property: Refractive index (Na D-line) (Liquid); method: ABBE:UFactor:4
Solvent: Mass fraction of 1,2-ethanediol	Refractive index (Na D-line)	uncertainty
0	1.41952	0.00171
0.1052	1.41989	0.00171
0.1982	1.42089	0.00171
0.3025	1.42212	0.00171
0.4021	1.42383	0.00171
0.5037	1.42592	0.00171
0.5983	1.42845	0.00171
0.6963	1.43136	0.00171
0.7953	1.4349	0.00171
0.8895	1.43752	0.00171
1	1.44383	0.00171

System: 1,2-ethanediol + cesium chloride + water; phases: Liquid, Crystal
Fixed: Pressure, kPa = 101
Fixed: Temperature, K = 298.15
Property: Mass density, kg/m3 (Liquid); method: VIBTUB:UFactor:64
Solvent: Mass fraction of 1,2-ethanediol	Mass density, kg/m3	uncertainty
0	1920.72	32.39
0.1052	1863.27	30.53
0.1982	1807.65	28.72
0.3025	1746.78	26.75
0.4021	1683.83	24.71
0.5037	1618.47	22.6
0.5983	1552.57	20.46
0.6963	1485.85	18.3
0.7953	1420.88	16.2
0.8895	1355.2	14.07
1	1314.75	12.76

System: 1,2-ethanediol + cesium chloride + water; phases: Liquid, Crystal
Fixed: Pressure, kPa = 101
Fixed: Temperature, K = 298.15
Property: Mass fraction of cesium chloride (Liquid); method: TITR:UFactor:8
Solvent: Mass fraction of 1,2-ethanediol	Mass fraction of cesium chloride	uncertainty
0	0.6563	0.0158
0.1052	0.621	0.0149
0.1982	0.5953	0.0143
0.3025	0.5575	0.0134
0.4021	0.5175	0.0124
0.5037	0.4572	0.011
0.5983	0.4387	0.0105
0.6963	0.3799	0.0091
0.7953	0.3292	0.0079
0.8895	0.2809	0.0067
1	0.2228	0.0053

System: 1,2-ethanediol + cesium chloride + water; phases: Liquid
Fixed: Pressure, kPa = 101
Fixed: Temperature, K = 298.15
Property: Refractive index (Na D-line) (Liquid); method: ABBE:UFactor:4
Solvent: Mass fraction of 1,2-ethanediol	Mass fraction of cesium chloride	Refractive index (Na D-line)	uncertainty
0.06252	0.3826	1.40575	0.00182
0.06431	0.35879	1.3669	0.00178
0.06659	0.33279	1.33892	0.00175
0.06989	0.30432	1.30397	0.00175
0.07303	0.27148	1.26481	0.00174
0.0761	0.23934	1.22875	0.00173
0.08036	0.19988	1.18689	0.00172
0.08437	0.15959	1.14668	0.00172
0.08946	0.11103	1.10153	0.00171
0.09428	0.05914	1.05674	0.00171
0.1928	0.35753	1.40101	0.00179
0.20037	0.33348	1.36872	0.00177
0.2073	0.3083	1.3367	0.00176
0.21612	0.2786	1.30087	0.00175
0.22513	0.24982	1.26658	0.00173
0.23512	0.2178	1.23322	0.00173
0.24411	0.18699	1.2009	0.00172
0.25635	0.14276	1.15775	0.00172
0.27052	0.09996	1.11883	0.00171
0.28425	0.05269	1.07829	0.00171
0.33902	0.32217	1.38124	0.00177
0.35001	0.30018	1.35373	0.00176
0.36117	0.27459	1.32299	0.00175
0.37207	0.24832	1.29224	0.00174
0.38935	0.22153	1.26381	0.00173
0.40458	0.19062	1.23139	0.00173
0.42054	0.15902	1.20005	0.00172
0.4377	0.12468	1.16746	0.00172
0.45649	0.08685	1.13344	0.00171
0.47729	0.0453	1.09807	0.00171
0.50681	0.27515	1.34775	0.00175
0.52124	0.25422	1.32401	0.00174
0.53722	0.2328	1.29922	0.00174
0.55354	0.20909	1.27419	0.00173
0.57036	0.18473	1.24841	0.00172
0.58526	0.15929	1.2234	0.00172
0.60671	0.13205	1.19795	0.00172
0.62714	0.10258	1.17045	0.00171
0.64847	0.07042	1.14236	0.00171
0.67428	0.03696	1.11466	0.00171
0.70224	0.21921	1.30438	0.00173
0.7186	0.20155	1.28593	0.00172
0.73417	0.18399	1.2682	0.00172
0.75151	0.16398	1.24756	0.00172
0.76908	0.14437	1.22839	0.00172
0.78846	0.12343	1.20784	0.00171
0.80664	0.10058	1.18749	0.00171
0.82924	0.07877	1.16828	0.00171
0.85164	0.05313	1.14601	0.00171
0.87452	0.02766	1.12446	0.00171

System: 1,2-ethanediol + cesium chloride + water; phases: Liquid
Fixed: Temperature, K = 298.15
Fixed: Pressure, kPa = 101
Property: Mass density, kg/m3 (Liquid); method: VIBTUB:UFactor:4
Solvent: Mass fraction of 1,2-ethanediol	Mass fraction of cesium chloride	Mass density, kg/m3	uncertainty
0.06252	0.3826	1379.37	0.97
0.06431	0.35879	1375.79	0.96
0.06659	0.33279	1373.21	0.95
0.06989	0.30432	1370.05	0.94
0.07303	0.27148	1366.4	0.94
0.0761	0.23934	1363.04	0.93
0.08036	0.19988	1359.13	0.92
0.08437	0.15959	1355.33	0.91
0.08946	0.11103	1351	0.9
0.09428	0.05914	1346.63	0.9
0.1928	0.35753	1393.75	0.99
0.20037	0.33348	1391.01	0.99
0.2073	0.3083	1388.26	0.98
0.21612	0.2786	1385.22	0.98
0.22513	0.24982	1382.18	0.97
0.23512	0.2178	1379.5	0.96
0.24411	0.18699	1376.63	0.96
0.25635	0.14276	1372.78	0.95
0.27052	0.09996	1369.45	0.94
0.28425	0.05269	1365.77	0.94
0.33902	0.32217	1407.71	1.02
0.35001	0.30018	1405.58	1.02
0.36117	0.27459	1403.03	1.01
0.37207	0.24832	1400.42	1.01
0.38935	0.22153	1398.61	1
0.40458	0.19062	1396.02	1
0.42054	0.15902	1393.63	0.99
0.4377	0.12468	1390.9	0.99
0.45649	0.08685	1388.17	0.98
0.47729	0.0453	1385.2	0.98
0.50681	0.27515	1421.42	1.05
0.52124	0.25422	1419.96	1.05
0.53722	0.2328	1418.16	1.04
0.55354	0.20909	1416.42	1.04
0.57036	0.18473	1414.41	1.04
0.58526	0.15929	1412.52	1.03
0.60671	0.13205	1411.11	1.03
0.62714	0.10258	1408.97	1.02
0.64847	0.07042	1406.77	1.02
0.67428	0.03696	1404.55	1.02
0.70224	0.21921	1434.92	1.08
0.7186	0.20155	1433.85	1.08
0.73417	0.18399	1432.85	1.07
0.75151	0.16398	1431.37	1.07
0.76908	0.14437	1430.03	1.07
0.78846	0.12343	1428.45	1.06
0.80664	0.10058	1427.18	1.06
0.82924	0.07877	1426.16	1.06
0.85164	0.05313	1424.46	1.06
0.87452	0.02766	1422.49	1.05
