Measured thermophysical data. Bronsted Ionic Liquids for Sustainable Processes: Synthesis and Physical Properties
Source: J. Chem. Eng. Data, 2010, 10.1021/je900550v
Compound 1: 2-hydroxy-N-methylethanaminium formate, C4H11NO3, InChI=1S/C3H9NO.CH2O2/c1-4-2-3-5;2-1-3/h4-5H,2-3H2,1H3;1H,(H,2,3)
Compound 2: N-methyl-2-hydroxyethylammonium acetate, C5H13NO3, InChI=1S/C3H9NO.C2H4O2/c1-4-2-3-5;1-2(3)4/h4-5H,2-3H2,1H3;1H3,(H,3,4)
Compound 3: 2-hydroxy-N-methylethanaminium propionate, C6H15NO3, InChI=1S/C3H9NO.C3H6O2/c1-4-2-3-5;1-2-3(4)5/h4-5H,2-3H2,1H3;2H2,1H3,(H,4,5)
Compound 4: N-methyl-2-hydroxyethylammonium butanoate, C7H17NO3, InChI=1S/C4H8O2.C3H9NO/c1-2-3-4(5)6;1-4-2-3-5/h2-3H2,1H3,(H,5,6);4-5H,2-3H2,1H3
Compound 5: 2-hydroxy-N-methylethanaminium isobutyrate, C7H17NO3, InChI=1S/C4H8O2.C3H9NO/c1-3(2)4(5)6;1-4-2-3-5/h3H,1-2H3,(H,5,6);4-5H,2-3H2,1H3
Compound 6: 2-hydroxy-N-methylethanaminium pentanoate, C8H19NO3, InChI=1S/C5H10O2.C3H9NO/c1-2-3-4-5(6)7;1-4-2-3-5/h2-4H2,1H3,(H,6,7);4-5H,2-3H2,1H3

System: 2-hydroxy-N-methylethanaminium formate; phases: Liquid
Fixed: Pressure, kPa = 101.325
Property: Mass density, kg/m3 (Liquid); method: Vibrating tube method
Temperature, K	Mass density, kg/m3	uncertainty
338.15	1106.429	2.222
337.9	1106.534	2.222
337.66	1106.66	2.222
337.4	1106.775	2.223
337.16	1106.905	2.223
336.9	1107.033	2.223
336.66	1107.163	2.223
336.41	1107.292	2.223
336.16	1107.416	2.223
335.91	1107.541	2.223
335.66	1107.669	2.223
335.41	1107.793	2.223
335.16	1107.92	2.223
334.91	1108.047	2.224
334.66	1108.176	2.224
334.41	1108.302	2.224
334.16	1108.431	2.224
333.91	1108.558	2.224
333.66	1108.689	2.224
333.41	1108.819	2.224
333.16	1108.946	2.224
332.91	1109.076	2.224
332.66	1109.207	2.225
332.41	1109.337	2.225
332.16	1109.471	2.225
331.91	1109.597	2.225
331.66	1109.729	2.225
331.41	1109.859	2.225
331.16	1109.992	2.225
330.91	1110.122	2.225
330.66	1110.254	2.226
330.41	1110.383	2.226
330.16	1110.515	2.226
329.9	1110.652	2.226
329.65	1110.784	2.226
329.4	1110.92	2.226
329.16	1111.056	2.226
328.9	1111.192	2.226
328.66	1111.328	2.226
328.41	1111.464	2.227
328.15	1111.599	2.227
327.9	1111.736	2.227
327.66	1111.873	2.227
327.4	1112.009	2.227
327.16	1112.145	2.227
326.9	1112.283	2.227
326.66	1112.417	2.227
326.41	1112.554	2.228
326.16	1112.692	2.228
325.9	1112.83	2.228
325.66	1112.965	2.228
325.4	1113.103	2.228
325.16	1113.241	2.228
324.9	1113.378	2.228
324.65	1113.514	2.228
324.41	1113.65	2.229
324.16	1113.789	2.229
323.91	1113.925	2.229
323.65	1114.061	2.229
323.41	1114.2	2.229
323.16	1114.34	2.229
322.91	1114.474	2.229
322.65	1114.614	2.229
322.41	1114.75	2.229
322.15	1114.89	2.23
321.9	1115.028	2.23
321.66	1115.164	2.23
321.41	1115.303	2.23
321.15	1115.441	2.23
320.91	1115.58	2.23
320.65	1115.716	2.23
320.41	1115.855	2.23
320.16	1115.993	2.231
319.91	1116.132	2.231
319.65	1116.27	2.231
319.41	1116.408	2.231
319.16	1116.547	2.231
318.9	1116.686	2.231
318.65	1116.823	2.231
318.41	1116.96	2.231
318.16	1117.098	2.232
317.91	1117.239	2.232
317.66	1117.379	2.232
317.4	1117.516	2.232
317.16	1117.654	2.232
316.91	1117.793	2.232
316.66	1117.932	2.232
316.41	1118.071	2.232
316.16	1118.209	2.233
315.91	1118.345	2.233
315.65	1118.487	2.233
315.41	1118.623	2.233
315.15	1118.765	2.233
314.9	1118.903	2.233
314.65	1119.041	2.233
314.4	1119.181	2.233
314.15	1119.319	2.234
313.9	1119.46	2.234
313.66	1119.597	2.234
313.4	1119.737	2.234
313.16	1119.874	2.234
312.91	1120.016	2.234
312.66	1120.154	2.234
312.41	1120.293	2.234
312.16	1120.434	2.235
311.91	1120.573	2.235
311.65	1120.711	2.235
311.4	1120.852	2.235
311.16	1120.99	2.235
310.91	1121.13	2.235
310.65	1121.27	2.235
310.4	1121.41	2.235
310.15	1121.549	2.236
309.9	1121.689	2.236
309.65	1121.827	2.236
309.4	1121.967	2.236
309.15	1122.107	2.236
308.9	1122.246	2.236
308.65	1122.386	2.236
308.4	1122.527	2.236
308.15	1122.666	2.237
307.9	1122.804	2.237
307.65	1122.943	2.237
307.4	1123.081	2.237
307.15	1123.22	2.237
306.9	1123.36	2.237
306.65	1123.501	2.237
306.4	1123.639	2.237
306.15	1123.782	2.238
305.9	1123.923	2.238
305.65	1124.06	2.238
305.4	1124.197	2.238
305.15	1124.337	2.238
304.91	1124.476	2.238
304.65	1124.617	2.238
304.4	1124.755	2.238
304.15	1124.895	2.239
303.9	1125.035	2.239
303.65	1125.178	2.239
303.4	1125.315	2.239
303.15	1125.453	2.239
302.9	1125.593	2.239
302.65	1125.734	2.239
302.4	1125.872	2.239
302.15	1126.015	2.24
301.9	1126.153	2.24
301.65	1126.292	2.24
301.4	1126.431	2.24
301.15	1126.572	2.24
300.9	1126.71	2.24
300.65	1126.85	2.24
300.4	1126.987	2.24
300.15	1127.13	2.241
299.9	1127.268	2.241
299.65	1127.409	2.241
299.4	1127.548	2.241
299.15	1127.691	2.241
298.9	1127.827	2.241
298.65	1127.965	2.241
298.4	1128.105	2.241
298.15	1128.25	2.242
297.9	1128.385	2.242
297.65	1128.524	2.242
297.4	1128.663	2.242
297.15	1128.803	2.242
296.9	1128.942	2.242
296.65	1129.084	2.242
296.4	1129.226	2.242
296.15	1129.368	2.243
295.9	1129.501	2.243
295.65	1129.642	2.243
295.4	1129.783	2.243
295.15	1129.921	2.243
294.9	1130.061	2.243
294.65	1130.205	2.243
294.4	1130.342	2.243
294.15	1130.482	2.244
293.9	1130.622	2.244
293.65	1130.761	2.244
293.4	1130.897	2.244
293.15	1131.041	2.244
292.9	1131.179	2.244
292.65	1131.317	2.244
292.4	1131.456	2.245
292.15	1131.596	2.245
291.9	1131.741	2.245
291.65	1131.876	2.245
291.4	1132.011	2.245
291.15	1132.156	2.245
290.9	1132.299	2.245
290.65	1132.436	2.245
290.4	1132.575	2.246
290.15	1132.717	2.246
289.9	1132.855	2.246
289.65	1132.996	2.246
289.4	1133.133	2.246
289.15	1133.276	2.246
288.9	1133.415	2.246
288.65	1133.554	2.246
288.4	1133.694	2.247
288.15	1133.835	2.247
287.9	1133.973	2.247
287.65	1134.113	2.247
287.4	1134.252	2.247
287.15	1134.393	2.247
286.9	1134.533	2.247
286.65	1134.672	2.247
286.4	1134.811	2.248
286.15	1134.95	2.248
285.9	1135.086	2.248
285.65	1135.233	2.248
285.4	1135.367	2.248
285.15	1135.506	2.248
284.9	1135.65	2.248
284.65	1135.791	2.249
284.4	1135.931	2.249
284.15	1136.068	2.249
283.9	1136.206	2.249
283.65	1136.346	2.249
283.4	1136.486	2.249
283.15	1136.625	2.249
282.9	1136.767	2.249
282.65	1136.902	2.25
282.4	1137.041	2.25
282.15	1137.182	2.25
281.9	1137.323	2.25
281.65	1137.458	2.25
281.4	1137.601	2.25
281.15	1137.735	2.25
280.9	1137.877	2.25
280.65	1138.018	2.251
280.4	1138.157	2.251
280.15	1138.296	2.251
279.9	1138.438	2.251
279.65	1138.576	2.251
279.4	1138.711	2.251
279.15	1138.847	2.251
278.9	1138.99	2.251
278.65	1139.129	2.252
278.4	1139.263	2.252
278.15	1139.409	2.252

System: 2-hydroxy-N-methylethanaminium formate; phases: Liquid
Fixed: Pressure, kPa = 101.325
Property: Speed of sound, m/s (Liquid); method: Pulse-echo method
Temperature, K	Speed of sound, m/s	uncertainty
338.15	1738.58	2.16
337.9	1738.92	2.17
337.66	1739.36	2.17
337.4	1739.77	2.17
337.16	1740.23	2.17
336.9	1740.69	2.17
336.66	1741.14	2.17
336.41	1741.58	2.17
336.16	1742.04	2.17
335.91	1742.49	2.17
335.66	1742.94	2.17
335.41	1743.39	2.17
335.16	1743.85	2.17
334.91	1744.31	2.17
334.66	1744.78	2.17
334.41	1745.23	2.17
334.16	1745.69	2.17
333.91	1746.15	2.17
333.66	1746.61	2.17
333.41	1747.07	2.17
333.16	1747.54	2.17
332.91	1748	2.17
332.66	1748.47	2.17
332.41	1748.93	2.17
332.16	1749.4	2.17
331.91	1749.87	2.17
331.66	1750.35	2.17
331.41	1750.8	2.17
331.16	1751.28	2.17
330.91	1751.75	2.17
330.66	1752.22	2.17
330.41	1752.68	2.17
330.16	1753.15	2.17
329.9	1753.63	2.17
329.65	1754.11	2.17
329.4	1754.6	2.17
329.16	1755.08	2.17
328.9	1755.56	2.17
328.66	1756.04	2.17
328.41	1756.54	2.17
328.15	1757.01	2.17
327.9	1757.51	2.17
327.66	1757.99	2.17
327.4	1758.48	2.17
327.16	1758.96	2.17
326.9	1759.44	2.17
326.66	1759.93	2.17
326.41	1760.41	2.17
326.16	1760.9	2.17
325.9	1761.38	2.17
325.66	1761.87	2.17
325.4	1762.35	2.17
325.16	1762.84	2.17
324.9	1763.31	2.17
324.65	1763.8	2.17
324.41	1764.28	2.17
324.16	1764.76	2.17
323.91	1765.24	2.17
323.65	1765.72	2.17
323.41	1766.2	2.17
323.16	1766.68	2.17
322.91	1767.17	2.17
322.65	1767.64	2.17
322.41	1768.12	2.17
322.15	1768.61	2.17
321.9	1769.08	2.17
321.66	1769.57	2.17
321.41	1770.03	2.17
321.15	1770.52	2.17
320.91	1771	2.17
320.65	1771.48	2.17
320.41	1771.95	2.17
320.16	1772.42	2.17
319.91	1772.89	2.17
319.65	1773.39	2.17
319.41	1773.88	2.17
319.16	1774.37	2.17
318.9	1774.85	2.17
318.65	1775.33	2.17
318.41	1775.82	2.17
318.16	1776.31	2.17
317.91	1776.8	2.17
317.66	1777.29	2.17
317.4	1777.78	2.17
317.16	1778.27	2.17
316.91	1778.76	2.17
316.66	1779.24	2.17
316.41	1779.73	2.17
316.16	1780.23	2.17
315.91	1780.71	2.17
315.65	1781.2	2.17
315.41	1781.68	2.17
315.15	1782.18	2.17
314.9	1782.66	2.17
314.65	1783.14	2.17
314.4	1783.64	2.17
314.15	1784.13	2.17
313.9	1784.62	2.17
313.66	1785.11	2.17
313.4	1785.6	2.17
313.16	1786.09	2.17
312.91	1786.58	2.17
312.66	1787.07	2.17
312.41	1787.56	2.17
312.16	1788.04	2.17
311.91	1788.54	2.17
311.65	1789.02	2.17
311.4	1789.51	2.17
311.16	1790	2.17
310.91	1790.49	2.17
310.65	1790.98	2.17
310.4	1791.46	2.17
310.15	1791.95	2.17
309.9	1792.45	2.17
309.65	1792.93	2.17
309.4	1793.41	2.17
309.15	1793.9	2.17
308.9	1794.39	2.17
308.65	1794.88	2.17
308.4	1795.36	2.17
308.15	1795.85	2.17
307.9	1796.34	2.17
307.65	1796.83	2.17
307.4	1797.31	2.17
307.15	1797.8	2.17
306.9	1798.29	2.17
306.65	1798.77	2.17
306.4	1799.26	2.17
306.15	1799.74	2.17
305.9	1800.23	2.17
305.65	1800.72	2.17
305.4	1801.21	2.17
305.15	1801.69	2.17
304.91	1802.17	2.17
304.65	1802.66	2.17
304.4	1803.15	2.17
304.15	1803.63	2.17
303.9	1804.09	2.17
303.65	1804.6	2.18
303.4	1805.08	2.18
303.15	1805.57	2.18
302.9	1806.05	2.18
302.65	1806.54	2.18
302.4	1807.03	2.18
302.15	1807.5	2.18
301.9	1807.99	2.18
301.65	1808.48	2.18
301.4	1808.97	2.18
301.15	1809.45	2.18
300.9	1809.94	2.18
300.65	1810.43	2.18
300.4	1810.91	2.18
300.15	1811.41	2.18
299.9	1811.89	2.18
299.65	1812.37	2.18
299.4	1812.86	2.18
299.15	1813.36	2.18
298.9	1813.83	2.18
298.65	1814.32	2.18
298.4	1814.81	2.18
298.15	1815.3	2.18
297.9	1815.78	2.18
297.65	1816.27	2.18
297.4	1816.76	2.18
297.15	1817.26	2.18
296.9	1817.74	2.18
296.65	1818.24	2.18
296.4	1818.73	2.18
296.15	1819.23	2.18
295.9	1819.7	2.18
295.65	1820.19	2.18
295.4	1820.69	2.18
295.15	1821.18	2.18
294.9	1821.67	2.18
294.65	1822.16	2.18
294.4	1822.65	2.18
294.15	1823.15	2.18
293.9	1823.64	2.18
293.65	1824.12	2.18
293.4	1824.61	2.18
293.15	1825.1	2.18
292.9	1825.58	2.18
292.65	1826.08	2.18
292.4	1826.56	2.18
292.15	1827.05	2.18
291.9	1827.54	2.18
291.65	1828.04	2.18
291.4	1828.51	2.18
291.15	1829.01	2.18
290.9	1829.5	2.18
290.65	1829.99	2.18
290.4	1830.49	2.18
290.15	1830.98	2.18
289.9	1831.48	2.18
289.65	1831.98	2.18
289.4	1832.45	2.18
289.15	1832.95	2.18
288.9	1833.44	2.18
288.65	1833.94	2.18
288.4	1834.43	2.18
288.15	1834.92	2.18
287.9	1835.41	2.18
287.65	1835.9	2.18
287.4	1836.4	2.18
287.15	1836.89	2.18
286.9	1837.37	2.18
286.65	1837.89	2.18
286.4	1838.38	2.18
286.15	1838.86	2.18
285.9	1839.35	2.18
285.65	1839.85	2.18
285.4	1840.34	2.18
285.15	1840.83	2.18
284.9	1841.32	2.18
284.65	1841.81	2.18
284.4	1842.31	2.18
284.15	1842.8	2.18
283.9	1843.29	2.18
283.65	1843.78	2.18
283.4	1844.27	2.18
283.15	1844.77	2.18
282.9	1845.26	2.18
282.65	1845.76	2.18
282.4	1846.26	2.18
282.15	1846.75	2.18
281.9	1847.25	2.18
281.65	1847.74	2.18
281.4	1848.24	2.18
281.15	1848.73	2.18
280.9	1849.23	2.18
280.65	1849.72	2.18
280.4	1850.23	2.18
280.15	1850.72	2.18
279.9	1851.22	2.18
279.65	1851.7	2.18
279.4	1852.22	2.18
279.15	1852.71	2.18
278.9	1853.21	2.18
278.65	1853.7	2.18
278.4	1854.2	2.18
278.15	1854.7	2.18

System: 2-hydroxy-N-methylethanaminium formate; phases: Liquid
Fixed: Pressure, kPa = 101.325
Property: Refractive index (Na D-line) (Liquid); method: Standard Abbe refractometry
Temperature, K	Refractive index (Na D-line)	uncertainty
322.85	1.4396	0.0005
318.15	1.4406	0.0005
313.1	1.4418	0.0005
308.23	1.4429	0.0005
303.15	1.4446	0.0005
298.35	1.4458	0.0005
293.15	1.447	0.0005
288.35	1.4485	0.0005

System: 2-hydroxy-N-methylethanaminium formate; phases: Liquid
Fixed: Pressure, kPa = 101.325
Property: Viscosity, Pa*s (Liquid); method: CAPTUB:UFactor:1
Temperature, K	Viscosity, Pa*s	uncertainty
323.15	0.00838	
320.65	0.00907	
317.65	0.0097	
315.15	0.01056	
313.15	0.0114	
310.15	0.01278	
308.15	0.01373	
305.15	0.0151	
303.15	0.0164	
300.65	0.01837	
298.15	0.02027	
295.65	0.02322	
293.15	0.02605	
290.65	0.03015	
288.15	0.0342	

System: N-methyl-2-hydroxyethylammonium acetate; phases: Liquid
Fixed: Pressure, kPa = 101.325
Property: Mass density, kg/m3 (Liquid); method: Vibrating tube method
Temperature, K	Mass density, kg/m3	uncertainty
338.15	1076.162	2.197
337.9	1076.317	2.197
337.66	1076.475	2.197
337.4	1076.635	2.197
337.16	1076.795	2.197
336.9	1076.957	2.197
336.66	1077.117	2.198
336.41	1077.279	2.198
336.16	1077.438	2.198
335.91	1077.597	2.198
335.66	1077.755	2.198
335.41	1077.916	2.198
335.16	1078.075	2.198
334.91	1078.233	2.199
334.66	1078.392	2.199
334.41	1078.548	2.199
334.16	1078.709	2.199
333.91	1078.868	2.199
333.66	1079.028	2.199
333.41	1079.186	2.199
333.16	1079.343	2.199
332.91	1079.501	2.2
332.66	1079.66	2.2
332.41	1079.818	2.2
332.16	1079.975	2.2
331.91	1080.135	2.2
331.66	1080.291	2.2
331.41	1080.451	2.2
331.16	1080.607	2.2
330.91	1080.766	2.201
330.66	1080.922	2.201
330.41	1081.08	2.201
330.16	1081.239	2.201
329.9	1081.396	2.201
329.65	1081.552	2.201
329.4	1081.709	2.201
329.16	1081.866	2.201
328.9	1082.025	2.202
328.66	1082.182	2.202
328.41	1082.338	2.202
328.15	1082.495	2.202
327.9	1082.651	2.202
327.66	1082.809	2.202
327.4	1082.966	2.202
327.16	1083.124	2.202
326.9	1083.279	2.203
326.66	1083.435	2.203
326.41	1083.592	2.203
326.16	1083.751	2.203
325.9	1083.905	2.203
325.66	1084.061	2.203
325.4	1084.218	2.203
325.16	1084.374	2.204
324.9	1084.529	2.204
324.65	1084.685	2.204
324.41	1084.84	2.204
324.16	1084.998	2.204
323.91	1085.152	2.204
323.65	1085.309	2.204
323.41	1085.464	2.204
323.16	1085.62	2.205
322.91	1085.773	2.205
322.65	1085.931	2.205
322.41	1086.084	2.205
322.15	1086.239	2.205
321.9	1086.396	2.205
321.66	1086.552	2.205
321.41	1086.706	2.205
321.15	1086.862	2.206
320.91	1087.016	2.206
320.65	1087.172	2.206
320.41	1087.326	2.206
320.16	1087.479	2.206
319.91	1087.636	2.206
319.65	1087.79	2.206
319.41	1087.944	2.206
319.16	1088.099	2.207
318.9	1088.255	2.207
318.65	1088.407	2.207
318.41	1088.559	2.207
318.16	1088.717	2.207
317.91	1088.869	2.207
317.66	1089.022	2.207
317.4	1089.178	2.207
317.16	1089.331	2.208
316.91	1089.487	2.208
316.66	1089.639	2.208
316.41	1089.789	2.208
316.16	1089.948	2.208
315.91	1090.102	2.208
315.65	1090.256	2.208
315.41	1090.409	2.209
315.15	1090.561	2.209
314.9	1090.713	2.209
314.65	1090.865	2.209
314.4	1091.02	2.209
314.15	1091.172	2.209
313.9	1091.324	2.209
313.66	1091.481	2.209
313.4	1091.634	2.21
313.16	1091.784	2.21
312.91	1091.94	2.21
312.66	1092.093	2.21
312.41	1092.242	2.21
312.16	1092.396	2.21
311.91	1092.55	2.21
311.65	1092.701	2.21
311.4	1092.854	2.211
311.16	1093.007	2.211
310.91	1093.16	2.211
310.65	1093.309	2.211
310.4	1093.466	2.211
310.15	1093.617	2.211
309.9	1093.77	2.211
309.65	1093.92	2.211
309.4	1094.074	2.212
309.15	1094.225	2.212
308.9	1094.373	2.212
308.65	1094.524	2.212
308.4	1094.681	2.212
308.15	1094.833	2.212
307.9	1094.98	2.212
307.65	1095.136	2.212
307.4	1095.286	2.213
307.15	1095.437	2.213
306.9	1095.588	2.213
306.65	1095.74	2.213
306.4	1095.888	2.213
306.15	1096.044	2.213
305.9	1096.192	2.213
305.65	1096.343	2.213
305.4	1096.493	2.214
305.15	1096.643	2.214
304.91	1096.793	2.214
304.65	1096.948	2.214
304.4	1097.096	2.214
304.15	1097.248	2.214
303.9	1097.397	2.214
303.65	1097.544	2.215
303.4	1097.692	2.215
303.15	1097.843	2.215
302.9	1097.994	2.215
302.65	1098.143	2.215
302.4	1098.291	2.215
302.15	1098.44	2.215
301.9	1098.59	2.215
301.65	1098.738	2.216
301.4	1098.889	2.216
301.15	1099.039	2.216
300.9	1099.186	2.216
300.65	1099.336	2.216
300.4	1099.484	2.216
300.15	1099.635	2.216
299.9	1099.781	2.216
299.65	1099.929	2.217
299.4	1100.081	2.217
299.15	1100.232	2.217
298.9	1100.376	2.217
298.65	1100.528	2.217
298.4	1100.67	2.217
298.15	1100.827	2.217
297.9	1100.969	2.217
297.65	1101.112	2.218
297.4	1101.264	2.218
297.15	1101.406	2.218
296.9	1101.559	2.218
296.65	1101.705	2.218
296.4	1101.847	2.218
296.15	1101.996	2.218
295.9	1102.144	2.218
295.65	1102.287	2.219
295.4	1102.438	2.219
295.15	1102.585	2.219
294.9	1102.73	2.219
294.65	1102.877	2.219
294.4	1103.022	2.219
294.15	1103.171	2.219
293.9	1103.316	2.219
293.65	1103.457	2.22
293.4	1103.606	2.22
293.15	1103.755	2.22
292.9	1103.902	2.22
292.65	1104.054	2.22
292.4	1104.207	2.22
292.15	1104.36	2.22
291.9	1104.513	2.22
291.65	1104.666	2.221
291.4	1104.82	2.221
291.15	1104.972	2.221
290.9	1105.126	2.221
290.65	1105.278	2.221
290.4	1105.432	2.221
290.15	1105.584	2.221
289.9	1105.735	2.222
289.65	1105.889	2.222
289.4	1106.041	2.222
289.15	1106.192	2.222
288.9	1106.346	2.222
288.65	1106.498	2.222
288.4	1106.65	2.222
288.15	1106.802	2.222
287.9	1106.953	2.223
287.65	1107.105	2.223
287.4	1107.258	2.223
287.15	1107.409	2.223
286.9	1107.56	2.223
286.65	1107.712	2.223
286.4	1107.864	2.223
286.15	1108.015	2.223
285.9	1108.167	2.224
285.65	1108.317	2.224
285.4	1108.469	2.224
285.15	1108.618	2.224
284.9	1108.773	2.224
284.65	1108.923	2.224
284.4	1109.074	2.224
284.15	1109.224	2.225
283.9	1109.376	2.225
283.65	1109.529	2.225
283.4	1109.677	2.225
283.15	1109.826	2.225
282.9	1109.977	2.225
282.65	1110.129	2.225
282.4	1110.279	2.225
282.15	1110.431	2.226
281.9	1110.581	2.226
281.65	1110.736	2.226
281.4	1110.883	2.226
281.15	1111.033	2.226
280.9	1111.184	2.226
280.65	1111.333	2.226
280.4	1111.484	2.227
280.15	1111.633	2.227
279.9	1111.782	2.227
279.65	1111.935	2.227
279.4	1112.084	2.227
279.15	1112.234	2.227
278.9	1112.385	2.227
278.65	1112.535	2.227
278.4	1112.685	2.228
278.15	1112.834	2.228

System: N-methyl-2-hydroxyethylammonium acetate; phases: Liquid
Fixed: Pressure, kPa = 101.325
Property: Speed of sound, m/s (Liquid); method: Sing-around technique in a fixed-path interferometer
Temperature, K	Speed of sound, m/s	uncertainty
338.15	1691.34	2.16
337.9	1691.67	2.16
337.66	1692.2	2.16
337.4	1692.76	2.16
337.16	1693.4	2.16
336.9	1694.04	2.16
336.66	1694.68	2.16
336.41	1695.32	2.16
336.16	1695.96	2.16
335.91	1696.59	2.16
335.66	1697.22	2.16
335.41	1697.88	2.16
335.16	1698.53	2.16
334.91	1699.19	2.16
334.66	1699.84	2.16
334.41	1700.5	2.16
334.16	1701.15	2.16
333.91	1701.8	2.16
333.66	1702.45	2.16
333.41	1703.12	2.16
333.16	1703.78	2.16
332.91	1704.45	2.16
332.66	1705.12	2.16
332.41	1705.78	2.16
332.16	1706.46	2.16
331.91	1707.14	2.16
331.66	1707.8	2.16
331.41	1708.46	2.16
331.16	1709.13	2.16
330.91	1709.8	2.16
330.66	1710.46	2.16
330.41	1711.13	2.16
330.16	1711.8	2.16
329.9	1712.47	2.16
329.65	1713.13	2.16
329.4	1713.79	2.16
329.16	1714.44	2.16
328.9	1715.1	2.16
328.66	1715.75	2.16
328.41	1716.42	2.16
328.15	1717.08	2.16
327.9	1717.74	2.16
327.66	1718.41	2.16
327.4	1719.08	2.16
327.16	1719.74	2.16
326.9	1720.4	2.16
326.66	1721.07	2.16
326.41	1721.73	2.16
326.16	1722.4	2.16
325.9	1723.06	2.16
325.66	1723.73	2.16
325.4	1724.38	2.16
325.16	1725.04	2.16
324.9	1725.7	2.16
324.65	1726.36	2.16
324.41	1727.01	2.16
324.16	1727.68	2.16
323.91	1728.34	2.16
323.65	1729.01	2.16
323.41	1729.67	2.16
323.16	1730.33	2.16
322.91	1730.99	2.16
322.65	1731.65	2.16
322.41	1732.31	2.16
322.15	1732.98	2.16
321.9	1733.64	2.16
321.66	1734.29	2.16
321.41	1734.95	2.16
321.15	1735.61	2.16
320.91	1736.27	2.17
320.65	1736.93	2.17
320.41	1737.59	2.17
320.16	1738.24	2.17
319.91	1738.9	2.17
319.65	1739.56	2.17
319.41	1740.22	2.17
319.16	1740.87	2.17
318.9	1741.52	2.17
318.65	1742.19	2.17
318.41	1742.84	2.17
318.16	1743.49	2.17
317.91	1744.15	2.17
317.66	1744.81	2.17
317.4	1745.47	2.17
317.16	1746.12	2.17
316.91	1746.77	2.17
316.66	1747.43	2.17
316.41	1748.08	2.17
316.16	1748.74	2.17
315.91	1749.38	2.17
315.65	1750.05	2.17
315.41	1750.69	2.17
315.15	1751.35	2.17
314.9	1752	2.17
314.65	1752.64	2.17
314.4	1753.29	2.17
314.15	1753.93	2.17
313.9	1754.59	2.17
313.66	1755.24	2.17
313.4	1755.87	2.17
313.16	1756.51	2.17
312.91	1757.17	2.17
312.66	1757.81	2.17
312.41	1758.45	2.17
312.16	1759.09	2.17
311.91	1759.73	2.17
311.65	1760.36	2.17
311.4	1761.01	2.17
311.16	1761.65	2.17
310.91	1762.29	2.17
310.65	1762.93	2.17
310.4	1763.56	2.17
310.15	1764.21	2.17
309.9	1764.85	2.17
309.65	1765.48	2.17
309.4	1766.12	2.17
309.15	1766.78	2.17
308.9	1767.41	2.17
308.65	1768.05	2.17
308.4	1768.7	2.17
308.15	1769.34	2.17
307.9	1769.98	2.17
307.65	1770.62	2.17
307.4	1771.26	2.17
307.15	1771.9	2.17
306.9	1772.54	2.17
306.65	1773.19	2.17
306.4	1773.82	2.17
306.15	1774.47	2.17
305.9	1775.11	2.17
305.65	1775.74	2.17
305.4	1776.39	2.17
305.15	1777.03	2.17
304.91	1777.67	2.17
304.65	1778.31	2.17
304.4	1778.95	2.17
304.15	1779.59	2.17
303.9	1780.23	2.17
303.65	1780.7	2.17
303.4	1781.35	2.17
303.15	1781.99	2.17
302.9	1782.64	2.17
302.65	1783.29	2.17
302.4	1783.93	2.17
302.15	1784.56	2.17
301.9	1785.21	2.17
301.65	1785.85	2.17
301.4	1786.48	2.17
301.15	1787.12	2.17
300.9	1787.76	2.17
300.65	1788.4	2.17
300.4	1789.04	2.17
300.15	1789.67	2.17
299.9	1790.3	2.17
299.65	1790.96	2.17
299.4	1791.59	2.17
299.15	1792.22	2.17
298.9	1792.87	2.17
298.65	1793.51	2.17
298.4	1794.14	2.17
298.15	1794.77	2.17
297.9	1795.41	2.17
297.65	1796.05	2.17
297.4	1796.7	2.17
297.15	1797.33	2.17
296.9	1797.97	2.17
296.65	1798.59	2.17
296.4	1799.23	2.17
296.15	1799.87	2.17
295.9	1800.51	2.17
295.65	1801.15	2.17
295.4	1801.79	2.17
295.15	1802.42	2.17
294.9	1803.07	2.18
294.65	1803.7	2.18
294.4	1804.34	2.18
294.15	1804.99	2.18
293.9	1805.62	2.18
293.65	1806.27	2.18
293.4	1806.91	2.18
293.15	1807.55	2.18
292.9	1808.21	2.18
292.65	1808.84	2.18
292.4	1809.48	2.18
292.15	1810.12	2.18
291.9	1810.77	2.18
291.65	1811.43	2.18
291.4	1812.07	2.18
291.15	1812.72	2.18
290.9	1813.37	2.18
290.65	1814.03	2.18
290.4	1814.68	2.18
290.15	1815.33	2.18
289.9	1815.98	2.18
289.65	1816.64	2.18
289.4	1817.27	2.18
289.15	1817.92	2.18
288.9	1818.56	2.18
288.65	1819.21	2.18
288.4	1819.87	2.18
288.15	1820.52	2.18
287.9	1821.19	2.18
287.65	1821.85	2.18
287.4	1822.53	2.18
287.15	1823.18	2.18
286.9	1823.85	2.18
286.65	1824.53	2.18
286.4	1825.19	2.18
286.15	1825.87	2.18
285.9	1826.54	2.18
285.65	1827.21	2.18
285.4	1827.88	2.18
285.15	1828.56	2.18
284.9	1829.25	2.18
284.65	1829.92	2.18
284.4	1830.6	2.18
284.15	1831.29	2.18
283.9	1831.97	2.18
283.65	1832.64	2.18
283.4	1833.34	2.18
283.15	1834.04	2.18
282.9	1834.72	2.18
282.65	1835.42	2.18
282.4	1836.11	2.18
282.15	1836.81	2.18
281.9	1837.5	2.18
281.65	1838.21	2.18
281.4	1838.91	2.18
281.15	1839.62	2.18
280.9	1840.34	2.18
280.65	1841.04	2.18
280.4	1841.75	2.18
280.15	1842.46	2.18
279.9	1843.19	2.18
279.65	1843.93	2.18
279.4	1844.65	2.18
279.15	1845.37	2.18
278.9	1846.1	2.18
278.65	1846.85	2.18
278.4	1847.58	2.18
278.15	1848.33	2.18

System: N-methyl-2-hydroxyethylammonium acetate; phases: Liquid
Fixed: Pressure, kPa = 101.325
Property: Refractive index (Na D-line) (Liquid); method: Standard Abbe refractometry
Temperature, K	Refractive index (Na D-line)	uncertainty
323.1	1.4433	0.0005
318.13	1.4445	0.0005
313.05	1.4457	0.0005
308.13	1.447	0.0005
303.13	1.4483	0.0005
298.15	1.4494	0.0005
293.23	1.4506	0.0005
288.25	1.4518	0.0005

System: N-methyl-2-hydroxyethylammonium acetate; phases: Liquid
Fixed: Pressure, kPa = 101.325
Property: Viscosity, Pa*s (Liquid); method: CAPTUB:UFactor:4
Temperature, K	Viscosity, Pa*s	uncertainty
323.15	0.02906	0.00085
318.15	0.03728	0.00106
313.15	0.04616	0.00132
308.15	0.06003	0.00165
303.15	0.0787	0.003
298.15	0.10606	0.00573
293.15	0.1458	0.01095
288.15	0.21124	0.02095

System: 2-hydroxy-N-methylethanaminium propionate; phases: Liquid
Fixed: Pressure, kPa = 101.325
Property: Mass density, kg/m3 (Liquid); method: Vibrating tube method
Temperature, K	Mass density, kg/m3	uncertainty
338.15	1044.581	2.172
337.9	1044.746	2.173
337.66	1044.92	2.173
337.4	1045.091	2.173
337.16	1045.265	2.173
336.9	1045.438	2.173
336.66	1045.608	2.173
336.41	1045.783	2.173
336.16	1045.955	2.173
335.91	1046.129	2.174
335.66	1046.3	2.174
335.41	1046.474	2.174
335.16	1046.644	2.174
334.91	1046.816	2.174
334.66	1046.99	2.174
334.41	1047.161	2.174
334.16	1047.334	2.174
333.91	1047.505	2.175
333.66	1047.68	2.175
333.41	1047.85	2.175
333.16	1048.022	2.175
332.91	1048.195	2.175
332.66	1048.364	2.175
332.41	1048.537	2.175
332.16	1048.708	2.175
331.91	1048.878	2.176
331.66	1049.05	2.176
331.41	1049.221	2.176
331.16	1049.392	2.176
330.91	1049.562	2.176
330.66	1049.734	2.176
330.41	1049.904	2.176
330.16	1050.074	2.176
329.9	1050.243	2.177
329.65	1050.417	2.177
329.4	1050.586	2.177
329.16	1050.756	2.177
328.9	1050.928	2.177
328.66	1051.098	2.177
328.41	1051.265	2.177
328.15	1051.437	2.178
327.9	1051.608	2.178
327.66	1051.78	2.178
327.4	1051.945	2.178
327.16	1052.115	2.178
326.9	1052.286	2.178
326.66	1052.455	2.178
326.41	1052.624	2.178
326.16	1052.793	2.179
325.9	1052.964	2.179
325.66	1053.13	2.179
325.4	1053.303	2.179
325.16	1053.473	2.179
324.9	1053.641	2.179
324.65	1053.811	2.179
324.41	1053.974	2.179
324.16	1054.15	2.18
323.91	1054.313	2.18
323.65	1054.481	2.18
323.41	1054.65	2.18
323.16	1054.818	2.18
322.91	1054.987	2.18
322.65	1055.152	2.18
322.41	1055.324	2.18
322.15	1055.493	2.181
321.9	1055.66	2.181
321.66	1055.828	2.181
321.41	1055.996	2.181
321.15	1056.163	2.181
320.91	1056.333	2.181
320.65	1056.499	2.181
320.41	1056.668	2.181
320.16	1056.831	2.182
319.91	1056.999	2.182
319.65	1057.171	2.182
319.41	1057.338	2.182
319.16	1057.506	2.182
318.9	1057.669	2.182
318.65	1057.839	2.182
318.41	1058.009	2.183
318.16	1058.172	2.183
317.91	1058.341	2.183
317.66	1058.507	2.183
317.4	1058.674	2.183
317.16	1058.841	2.183
316.91	1059.005	2.183
316.66	1059.178	2.183
316.41	1059.34	2.184
316.16	1059.509	2.184
315.91	1059.673	2.184
315.65	1059.84	2.184
315.41	1060.007	2.184
315.15	1060.172	2.184
314.9	1060.342	2.184
314.65	1060.504	2.184
314.4	1060.673	2.185
314.15	1060.836	2.185
313.9	1061.003	2.185
313.66	1061.171	2.185
313.4	1061.333	2.185
313.16	1061.499	2.185
312.91	1061.664	2.185
312.66	1061.832	2.185
312.41	1061.993	2.186
312.16	1062.163	2.186
311.91	1062.326	2.186
311.65	1062.492	2.186
311.4	1062.654	2.186
311.16	1062.818	2.186
310.91	1062.985	2.186
310.65	1063.15	2.186
310.4	1063.314	2.187
310.15	1063.482	2.187
309.9	1063.643	2.187
309.65	1063.807	2.187
309.4	1063.97	2.187
309.15	1064.138	2.187
308.9	1064.298	2.187
308.65	1064.465	2.188
308.4	1064.63	2.188
308.15	1064.795	2.188
307.9	1064.953	2.188
307.65	1065.123	2.188
307.4	1065.283	2.188
307.15	1065.451	2.188
306.9	1065.612	2.188
306.65	1065.774	2.189
306.4	1065.94	2.189
306.15	1066.098	2.189
305.9	1066.265	2.189
305.65	1066.425	2.189
305.4	1066.589	2.189
305.15	1066.755	2.189
304.91	1066.919	2.189
304.65	1067.076	2.19
304.4	1067.239	2.19
304.15	1067.405	2.19
303.9	1067.565	2.19
303.65	1067.726	2.19
303.4	1067.888	2.19
303.15	1068.053	2.19
302.9	1068.213	2.19
302.65	1068.376	2.191
302.4	1068.534	2.191
302.15	1068.695	2.191
301.9	1068.861	2.191
301.65	1069.021	2.191
301.4	1069.184	2.191
301.15	1069.347	2.191
300.9	1069.506	2.191
300.65	1069.666	2.192
300.4	1069.827	2.192
300.15	1069.988	2.192
299.9	1070.152	2.192
299.65	1070.308	2.192
299.4	1070.471	2.192
299.15	1070.629	2.192
298.9	1070.788	2.192
298.65	1070.949	2.193
298.4	1071.105	2.193
298.15	1071.266	2.193
297.9	1071.426	2.193
297.65	1071.588	2.193
297.4	1071.743	2.193
297.15	1071.903	2.193
296.9	1072.068	2.194
296.65	1072.223	2.194
296.4	1072.383	2.194
296.15	1072.544	2.194
295.9	1072.7	2.194
295.65	1072.859	2.194
295.4	1073.018	2.194
295.15	1073.182	2.194
294.9	1073.348	2.195
294.65	1073.513	2.195
294.4	1073.678	2.195
294.15	1073.843	2.195
293.9	1074.007	2.195
293.65	1074.175	2.195
293.4	1074.339	2.195
293.15	1074.504	2.195
292.9	1074.67	2.196
292.65	1074.832	2.196
292.4	1074.996	2.196
292.15	1075.163	2.196
291.9	1075.326	2.196
291.65	1075.492	2.196
291.4	1075.655	2.196
291.15	1075.819	2.197
290.9	1075.984	2.197
290.65	1076.15	2.197
290.4	1076.311	2.197
290.15	1076.476	2.197
289.9	1076.64	2.197
289.65	1076.805	2.197
289.4	1076.969	2.197
289.15	1077.131	2.198
288.9	1077.296	2.198
288.65	1077.459	2.198
288.4	1077.623	2.198
288.15	1077.787	2.198
287.9	1077.95	2.198
287.65	1078.112	2.198
287.4	1078.275	2.198
287.15	1078.438	2.199
286.9	1078.602	2.199
286.65	1078.764	2.199
286.4	1078.929	2.199
286.15	1079.088	2.199
285.9	1079.254	2.199
285.65	1079.418	2.199
285.4	1079.586	2.2
285.15	1079.748	2.2
284.9	1079.91	2.2
284.65	1080.072	2.2
284.4	1080.234	2.2
284.15	1080.395	2.2
283.9	1080.558	2.2
283.65	1080.721	2.2
283.4	1080.883	2.201
283.15	1081.045	2.201
282.9	1081.206	2.201
282.65	1081.367	2.201
282.4	1081.529	2.201
282.15	1081.693	2.201
281.9	1081.855	2.201
281.65	1082.016	2.202
281.4	1082.178	2.202
281.15	1082.34	2.202
280.9	1082.501	2.202
280.65	1082.663	2.202
280.4	1082.824	2.202
280.15	1082.985	2.202
279.9	1083.149	2.202
279.65	1083.311	2.203
279.4	1083.47	2.203
279.15	1083.632	2.203
278.9	1083.795	2.203
278.65	1083.956	2.203
278.4	1084.118	2.203
278.15	1084.28	2.203

System: 2-hydroxy-N-methylethanaminium propionate; phases: Liquid
Fixed: Pressure, kPa = 101.325
Property: Speed of sound, m/s (Liquid); method: Pulse-echo method
Temperature, K	Speed of sound, m/s	uncertainty
338.15	1570.58	2.14
337.9	1571.3	2.14
337.66	1572.08	2.14
337.4	1572.87	2.14
337.16	1573.66	2.14
336.9	1574.44	2.14
336.66	1575.19	2.14
336.41	1575.95	2.14
336.16	1576.7	2.14
335.91	1577.46	2.14
335.66	1578.21	2.14
335.41	1578.98	2.14
335.16	1579.73	2.14
334.91	1580.48	2.14
334.66	1581.23	2.14
334.41	1581.97	2.14
334.16	1582.73	2.14
333.91	1583.48	2.14
333.66	1584.24	2.14
333.41	1584.98	2.14
333.16	1585.74	2.14
332.91	1586.5	2.14
332.66	1587.26	2.14
332.41	1588.02	2.14
332.16	1588.78	2.14
331.91	1589.55	2.14
331.66	1590.31	2.14
331.41	1591.07	2.14
331.16	1591.84	2.14
330.91	1592.59	2.14
330.66	1593.34	2.14
330.41	1594.11	2.14
330.16	1594.87	2.14
329.9	1595.62	2.14
329.65	1596.37	2.15
329.4	1597.14	2.15
329.16	1597.89	2.15
328.9	1598.64	2.15
328.66	1599.4	2.15
328.41	1600.15	2.15
328.15	1600.91	2.15
327.9	1601.66	2.15
327.66	1602.42	2.15
327.4	1603.16	2.15
327.16	1603.91	2.15
326.9	1604.67	2.15
326.66	1605.42	2.15
326.41	1606.16	2.15
326.16	1606.91	2.15
325.9	1607.66	2.15
325.66	1608.41	2.15
325.4	1609.16	2.15
325.16	1609.92	2.15
324.9	1610.67	2.15
324.65	1611.42	2.15
324.41	1612.17	2.15
324.16	1613.03	2.15
323.91	1613.71	2.15
323.65	1614.45	2.15
323.41	1615.2	2.15
323.16	1615.95	2.15
322.91	1616.69	2.15
322.65	1617.45	2.15
322.41	1618.19	2.15
322.15	1618.94	2.15
321.9	1619.69	2.15
321.66	1620.43	2.15
321.41	1621.19	2.15
321.15	1621.95	2.15
320.91	1622.69	2.15
320.65	1623.44	2.15
320.41	1624.19	2.15
320.16	1624.94	2.15
319.91	1625.7	2.15
319.65	1626.46	2.15
319.41	1627.2	2.15
319.16	1627.95	2.15
318.9	1628.69	2.15
318.65	1629.43	2.15
318.41	1630.18	2.15
318.16	1630.92	2.15
317.91	1631.66	2.15
317.66	1632.4	2.15
317.4	1633.15	2.15
317.16	1633.89	2.15
316.91	1634.63	2.15
316.66	1635.37	2.15
316.41	1636.11	2.15
316.16	1636.85	2.15
315.91	1637.58	2.15
315.65	1638.32	2.15
315.41	1639.05	2.15
315.15	1639.8	2.15
314.9	1640.54	2.15
314.65	1641.28	2.15
314.4	1642.02	2.15
314.15	1642.75	2.15
313.9	1643.5	2.15
313.66	1644.24	2.15
313.4	1644.98	2.15
313.16	1645.72	2.15
312.91	1646.47	2.15
312.66	1647.21	2.15
312.41	1647.95	2.15
312.16	1648.68	2.15
311.91	1649.42	2.15
311.65	1650.18	2.15
311.4	1650.91	2.15
311.16	1651.65	2.15
310.91	1652.4	2.15
310.65	1653.12	2.15
310.4	1653.88	2.15
310.15	1654.61	2.15
309.9	1655.36	2.15
309.65	1656.09	2.15
309.4	1656.83	2.15
309.15	1657.57	2.15
308.9	1658.3	2.15
308.65	1659.05	2.15
308.4	1659.77	2.15
308.15	1660.51	2.15
307.9	1661.25	2.15
307.65	1661.99	2.15
307.4	1662.72	2.15
307.15	1663.46	2.15
306.9	1664.19	2.15
306.65	1664.93	2.15
306.4	1665.68	2.15
306.15	1666.4	2.15
305.9	1667.13	2.16
305.65	1667.87	2.16
305.4	1668.6	2.16
305.15	1669.35	2.16
304.91	1670.08	2.16
304.65	1670.8	2.16
304.4	1671.54	2.16
304.15	1672.27	2.16
303.9	1673.01	2.16
303.65	1673.73	2.16
303.4	1674.47	2.16
303.15	1675.2	2.16
302.9	1675.94	2.16
302.65	1676.67	2.16
302.4	1677.4	2.16
302.15	1678.14	2.16
301.9	1678.88	2.16
301.65	1679.62	2.16
301.4	1680.35	2.16
301.15	1681.09	2.16
300.9	1681.84	2.16
300.65	1682.58	2.16
300.4	1683.31	2.16
300.15	1684.07	2.16
299.9	1684.81	2.16
299.65	1685.55	2.16
299.4	1686.29	2.16
299.15	1687.03	2.16
298.9	1687.78	2.16
298.65	1688.51	2.16
298.4	1689.26	2.16
298.15	1689.99	2.16
297.9	1690.74	2.16
297.65	1691.48	2.16
297.4	1692.23	2.16
297.15	1692.96	2.16
296.9	1693.71	2.16
296.65	1694.45	2.16
296.4	1695.18	2.16
296.15	1695.93	2.16
295.9	1696.69	2.16
295.65	1697.43	2.16
295.4	1698.16	2.16
295.15	1698.9	2.16
294.9	1699.65	2.16
294.65	1700.39	2.16
294.4	1701.13	2.16
294.15	1701.89	2.16
293.9	1702.64	2.16
293.65	1703.38	2.16
293.4	1704.12	2.16
293.15	1704.86	2.16
292.9	1705.61	2.16
292.65	1706.36	2.16
292.4	1707.11	2.16
292.15	1707.85	2.16
291.9	1708.6	2.16
291.65	1709.34	2.16
291.4	1710.09	2.16
291.15	1710.86	2.16
290.9	1711.62	2.16
290.65	1712.38	2.16
290.4	1713.15	2.16
290.15	1713.9	2.16
289.9	1714.66	2.16
289.65	1715.43	2.16
289.4	1716.18	2.16
289.15	1716.97	2.16
288.9	1717.73	2.16
288.65	1718.49	2.16
288.4	1719.27	2.16
288.15	1720.02	2.16
287.9	1720.8	2.16
287.65	1721.58	2.16
287.4	1722.36	2.16
287.15	1723.14	2.16
286.9	1723.92	2.16
286.65	1724.7	2.16
286.4	1725.49	2.16
286.15	1726.25	2.16
285.9	1727.05	2.16
285.65	1727.85	2.16
285.4	1728.54	2.16
285.15	1729.36	2.16
284.9	1730.17	2.16
284.65	1730.97	2.16
284.4	1731.77	2.16
284.15	1732.59	2.16
283.9	1733.37	2.16
283.65	1734.18	2.17
283.4	1734.99	2.17
283.15	1735.79	2.17
282.9	1736.6	2.17
282.65	1737.4	2.17
282.4	1738.22	2.17
282.15	1739.02	2.17
281.9	1739.85	2.17
281.65	1740.66	2.17
281.4	1741.47	2.17
281.15	1742.31	2.17
280.9	1743.13	2.17
280.65	1743.95	2.17
280.4	1744.79	2.17
280.15	1745.6	2.17
279.9	1746.45	2.17
279.65	1747.31	2.17
279.4	1748.14	2.17
279.15	1749.01	2.17
278.9	1749.84	2.17
278.65	1750.71	2.17
278.4	1751.57	2.17
278.15	1752.42	2.17

System: 2-hydroxy-N-methylethanaminium propionate; phases: Liquid
Fixed: Pressure, kPa = 101.325
Property: Refractive index (Na D-line) (Liquid); method: Standard Abbe refractometry
Temperature, K	Refractive index (Na D-line)	uncertainty
323.15	1.4464	0.0005
318.15	1.4478	0.0005
313.18	1.4492	0.0005
308.15	1.4507	0.0005
303.15	1.452	0.0005
298.2	1.4534	0.0005
293.2	1.4548	0.0005
288.15	1.4561	0.0005

System: 2-hydroxy-N-methylethanaminium propionate; phases: Liquid
Fixed: Pressure, kPa = 101.325
Property: Viscosity, Pa*s (Liquid); method: CAPTUB:UFactor:4
Temperature, K	Viscosity, Pa*s	uncertainty
323.15	0.0551	0.00138
319.65	0.06418	0.00185
318.15	0.0703	0.00234
315.65	0.0812	0.00321
313.15	0.09338	0.00431
310.15	0.10584	0.00563
308.15	0.118	0.00717
305.15	0.14088	0.01018
303.15	0.15824	0.01266
300.65	0.18288	0.01639
298.15	0.21506	0.02161
295.65	0.25614	0.0287
293.15	0.30163	0.03707
290.65	0.35906	0.04831
288.15	0.43213	0.06341

System: N-methyl-2-hydroxyethylammonium butanoate; phases: Liquid
Fixed: Pressure, kPa = 101.325
Property: Mass density, kg/m3 (Liquid); method: Vibrating tube method
Temperature, K	Mass density, kg/m3	uncertainty
338.15	1011.688	2.149
337.9	1011.859	2.149
337.66	1012.041	2.149
337.4	1012.222	2.149
337.16	1012.4	2.15
336.9	1012.581	2.15
336.66	1012.758	2.15
336.41	1012.937	2.15
336.16	1013.118	2.15
335.91	1013.298	2.15
335.66	1013.469	2.15
335.41	1013.653	2.15
335.16	1013.833	2.15
334.91	1014.008	2.151
334.66	1014.184	2.151
334.41	1014.361	2.151
334.16	1014.539	2.151
333.91	1014.716	2.151
333.66	1014.894	2.151
333.41	1015.071	2.151
333.16	1015.251	2.151
332.91	1015.426	2.152
332.66	1015.603	2.152
332.41	1015.777	2.152
332.16	1015.956	2.152
331.91	1016.133	2.152
331.66	1016.305	2.152
331.41	1016.482	2.152
331.16	1016.662	2.152
330.91	1016.839	2.153
330.66	1017.014	2.153
330.41	1017.19	2.153
330.16	1017.365	2.153
329.9	1017.544	2.153
329.65	1017.718	2.153
329.4	1017.896	2.153
329.16	1018.068	2.153
328.9	1018.246	2.153
328.66	1018.417	2.154
328.41	1018.595	2.154
328.15	1018.772	2.154
327.9	1018.946	2.154
327.66	1019.12	2.154
327.4	1019.295	2.154
327.16	1019.468	2.154
326.9	1019.646	2.154
326.66	1019.821	2.155
326.41	1019.994	2.155
326.16	1020.17	2.155
325.9	1020.345	2.155
325.66	1020.519	2.155
325.4	1020.694	2.155
325.16	1020.866	2.155
324.9	1021.043	2.155
324.65	1021.216	2.156
324.41	1021.391	2.156
324.16	1021.563	2.156
323.91	1021.739	2.156
323.65	1021.912	2.156
323.41	1022.084	2.156
323.16	1022.262	2.156
322.91	1022.433	2.156
322.65	1022.608	2.157
322.41	1022.778	2.157
322.15	1022.957	2.157
321.9	1023.128	2.157
321.66	1023.301	2.157
321.41	1023.474	2.157
321.15	1023.649	2.157
320.91	1023.822	2.157
320.65	1023.996	2.157
320.41	1024.167	2.158
320.16	1024.339	2.158
319.91	1024.514	2.158
319.65	1024.687	2.158
319.41	1024.861	2.158
319.16	1025.029	2.158
318.9	1025.201	2.158
318.65	1025.374	2.158
318.41	1025.548	2.159
318.16	1025.722	2.159
317.91	1025.891	2.159
317.66	1026.064	2.159
317.4	1026.23	2.159
317.16	1026.413	2.159
316.91	1026.578	2.159
316.66	1026.748	2.159
316.41	1026.921	2.16
316.16	1027.089	2.16
315.91	1027.264	2.16
315.65	1027.434	2.16
315.41	1027.607	2.16
315.15	1027.777	2.16
314.9	1027.95	2.16
314.65	1028.118	2.16
314.4	1028.293	2.161
314.15	1028.46	2.161
313.9	1028.637	2.161
313.66	1028.801	2.161
313.4	1028.972	2.161
313.16	1029.145	2.161
312.91	1029.315	2.161
312.66	1029.486	2.161
312.41	1029.655	2.161
312.16	1029.826	2.162
311.91	1029.996	2.162
311.65	1030.166	2.162
311.4	1030.338	2.162
311.16	1030.508	2.162
310.91	1030.679	2.162
310.65	1030.846	2.162
310.4	1031.014	2.162
310.15	1031.178	2.163
309.9	1031.352	2.163
309.65	1031.522	2.163
309.4	1031.686	2.163
309.15	1031.859	2.163
308.9	1032.027	2.163
308.65	1032.199	2.163
308.4	1032.368	2.163
308.15	1032.53	2.164
307.9	1032.701	2.164
307.65	1032.871	2.164
307.4	1033.037	2.164
307.15	1033.202	2.164
306.9	1033.375	2.164
306.65	1033.542	2.164
306.4	1033.708	2.164
306.15	1033.879	2.165
305.9	1034.042	2.165
305.65	1034.207	2.165
305.4	1034.377	2.165
305.15	1034.543	2.165
304.91	1034.713	2.165
304.65	1034.876	2.165
304.4	1035.043	2.165
304.15	1035.209	2.165
303.9	1035.377	2.166
303.65	1035.542	2.166
303.4	1035.71	2.166
303.15	1035.872	2.166
302.9	1036.035	2.166
302.65	1036.203	2.166
302.4	1036.376	2.166
302.15	1036.538	2.166
301.9	1036.7	2.167
301.65	1036.867	2.167
301.4	1037.028	2.167
301.15	1037.197	2.167
300.9	1037.366	2.167
300.65	1037.537	2.167
300.4	1037.708	2.167
300.15	1037.879	2.167
299.9	1038.05	2.168
299.65	1038.22	2.168
299.4	1038.392	2.168
299.15	1038.562	2.168
298.9	1038.733	2.168
298.65	1038.903	2.168
298.4	1039.077	2.168
298.15	1039.245	2.168
297.9	1039.417	2.169
297.65	1039.587	2.169
297.4	1039.757	2.169
297.15	1039.927	2.169
296.9	1040.096	2.169
296.65	1040.268	2.169
296.4	1040.437	2.169
296.15	1040.606	2.169
295.9	1040.778	2.17
295.65	1040.947	2.17
295.4	1041.115	2.17
295.15	1041.285	2.17
294.9	1041.455	2.17
294.65	1041.626	2.17
294.4	1041.794	2.17
294.15	1041.963	2.17
293.9	1042.133	2.171
293.65	1042.302	2.171
293.4	1042.47	2.171
293.15	1042.64	2.171
292.9	1042.809	2.171
292.65	1042.976	2.171
292.4	1043.146	2.171
292.15	1043.315	2.171
291.9	1043.485	2.172
291.65	1043.653	2.172
291.4	1043.822	2.172
291.15	1043.99	2.172
290.9	1044.159	2.172
290.65	1044.327	2.172
290.4	1044.497	2.172
290.15	1044.664	2.172
289.9	1044.832	2.173
289.65	1045	2.173
289.4	1045.167	2.173
289.15	1045.336	2.173
288.9	1045.503	2.173
288.65	1045.672	2.173
288.4	1045.841	2.173
288.15	1046.008	2.173
287.9	1046.175	2.174
287.65	1046.343	2.174
287.4	1046.511	2.174
287.15	1046.68	2.174
286.9	1046.846	2.174
286.65	1047.013	2.174
286.4	1047.18	2.174
286.15	1047.348	2.174
285.9	1047.516	2.175
285.65	1047.684	2.175
285.4	1047.85	2.175
285.15	1048.019	2.175
284.9	1048.184	2.175
284.65	1048.35	2.175
284.4	1048.519	2.175
284.15	1048.685	2.175
283.9	1048.851	2.176
283.65	1049.02	2.176
283.4	1049.186	2.176
283.15	1049.354	2.176
282.9	1049.52	2.176
282.65	1049.686	2.176
282.4	1049.853	2.176
282.15	1050.02	2.176
281.9	1050.207	2.177
281.65	1050.376	2.177
281.4	1050.543	2.177
281.15	1050.708	2.177
280.9	1050.876	2.177
280.65	1051.042	2.177
280.4	1051.21	2.177
280.15	1051.376	2.177
279.9	1051.544	2.178
279.65	1051.711	2.178
279.4	1051.878	2.178
279.15	1052.043	2.178
278.9	1052.211	2.178
278.65	1052.378	2.178
278.4	1052.545	2.178
278.15	1052.711	2.178

System: N-methyl-2-hydroxyethylammonium butanoate; phases: Liquid
Fixed: Pressure, kPa = 101.325
Property: Speed of sound, m/s (Liquid); method: Pulse-echo method
Temperature, K	Speed of sound, m/s	uncertainty
338.15	1489.31	2.13
337.9	1490.02	2.13
337.66	1490.78	2.13
337.4	1491.55	2.13
337.16	1492.31	2.13
336.9	1493.09	2.13
336.66	1493.87	2.13
336.41	1494.65	2.13
336.16	1495.44	2.13
335.91	1496.23	2.13
335.66	1497.01	2.13
335.41	1497.8	2.13
335.16	1498.58	2.13
334.91	1499.36	2.13
334.66	1500.15	2.13
334.41	1500.93	2.13
334.16	1501.72	2.13
333.91	1502.5	2.13
333.66	1503.29	2.13
333.41	1504.06	2.13
333.16	1504.86	2.13
332.91	1505.64	2.13
332.66	1506.42	2.13
332.41	1507.2	2.13
332.16	1508	2.13
331.91	1508.79	2.13
331.66	1509.56	2.13
331.41	1510.34	2.13
331.16	1511.14	2.13
330.91	1511.93	2.13
330.66	1512.7	2.13
330.41	1513.5	2.13
330.16	1514.29	2.13
329.9	1515.08	2.13
329.65	1515.86	2.13
329.4	1516.64	2.13
329.16	1517.43	2.13
328.9	1518.22	2.13
328.66	1519.01	2.13
328.41	1519.8	2.13
328.15	1520.58	2.13
327.9	1521.37	2.13
327.66	1522.15	2.13
327.4	1522.94	2.14
327.16	1523.72	2.14
326.9	1524.51	2.14
326.66	1525.29	2.14
326.41	1526.09	2.14
326.16	1526.87	2.14
325.9	1527.65	2.14
325.66	1528.43	2.14
325.4	1529.21	2.14
325.16	1529.98	2.14
324.9	1530.76	2.14
324.65	1531.54	2.14
324.41	1532.32	2.14
324.16	1533.09	2.14
323.91	1533.88	2.14
323.65	1534.66	2.14
323.41	1535.43	2.14
323.16	1536.22	2.14
322.91	1537	2.14
322.65	1537.78	2.14
322.41	1538.57	2.14
322.15	1539.35	2.14
321.9	1540.13	2.14
321.66	1540.92	2.14
321.41	1541.69	2.14
321.15	1542.47	2.14
320.91	1543.26	2.14
320.65	1544.04	2.14
320.41	1544.82	2.14
320.16	1545.61	2.14
319.91	1546.39	2.14
319.65	1547.18	2.14
319.41	1547.96	2.14
319.16	1548.74	2.14
318.9	1549.52	2.14
318.65	1550.31	2.14
318.41	1551.08	2.14
318.16	1551.86	2.14
317.91	1552.64	2.14
317.66	1553.42	2.14
317.4	1554.31	2.14
317.16	1555.19	2.14
316.91	1555.91	2.14
316.66	1556.67	2.14
316.41	1557.45	2.14
316.16	1558.22	2.14
315.91	1558.99	2.14
315.65	1559.77	2.14
315.41	1560.54	2.14
315.15	1561.32	2.14
314.9	1562.09	2.14
314.65	1562.87	2.14
314.4	1563.64	2.14
314.15	1564.42	2.14
313.9	1565.19	2.14
313.66	1565.94	2.14
313.4	1566.71	2.14
313.16	1567.49	2.14
312.91	1568.26	2.14
312.66	1569.04	2.14
312.41	1569.81	2.14
312.16	1570.59	2.14
311.91	1571.37	2.14
311.65	1572.15	2.14
311.4	1572.93	2.14
311.16	1573.71	2.14
310.91	1574.49	2.14
310.65	1575.27	2.14
310.4	1576.05	2.14
310.15	1576.84	2.14
309.9	1577.62	2.14
309.65	1578.42	2.14
309.4	1579.18	2.14
309.15	1579.96	2.14
308.9	1580.74	2.14
308.65	1581.52	2.14
308.4	1582.29	2.14
308.15	1583.07	2.14
307.9	1583.85	2.14
307.65	1584.63	2.14
307.4	1585.41	2.14
307.15	1586.19	2.14
306.9	1586.96	2.14
306.65	1587.74	2.14
306.4	1588.51	2.14
306.15	1589.29	2.14
305.9	1590.07	2.14
305.65	1590.85	2.14
305.4	1591.64	2.14
305.15	1592.4	2.14
304.91	1593.19	2.14
304.65	1593.96	2.14
304.4	1594.75	2.14
304.15	1595.53	2.15
303.9	1596.32	2.15
303.65	1597.1	2.15
303.4	1597.89	2.15
303.15	1598.66	2.15
302.9	1599.45	2.15
302.65	1600.24	2.15
302.4	1601.02	2.15
302.15	1601.82	2.15
301.9	1602.6	2.15
301.65	1603.39	2.15
301.4	1604.18	2.15
301.15	1604.99	2.15
300.9	1605.78	2.15
300.65	1606.58	2.15
300.4	1607.38	2.15
300.15	1608.17	2.15
299.9	1608.97	2.15
299.65	1609.76	2.15
299.4	1610.56	2.15
299.15	1611.36	2.15
298.9	1612.17	2.15
298.65	1612.95	2.15
298.4	1613.75	2.15
298.15	1614.55	2.15
297.9	1615.34	2.15
297.65	1616.14	2.15
297.4	1616.95	2.15
297.15	1617.74	2.15
296.9	1618.53	2.15
296.65	1619.33	2.15
296.4	1620.11	2.15
296.15	1620.94	2.15
295.9	1621.74	2.15
295.65	1622.54	2.15
295.4	1623.33	2.15
295.15	1624.14	2.15
294.9	1624.94	2.15
294.65	1625.74	2.15
294.4	1626.56	2.15
294.15	1627.38	2.15
293.9	1628.2	2.15
293.65	1629	2.15
293.4	1629.82	2.15
293.15	1630.63	2.15
292.9	1631.45	2.15
292.65	1632.26	2.15
292.4	1633.09	2.15
292.15	1633.89	2.15
291.9	1634.71	2.15
291.65	1635.54	2.15
291.4	1636.35	2.15
291.15	1637.18	2.15
290.9	1638.02	2.15
290.65	1638.86	2.15
290.4	1639.68	2.15
290.15	1640.54	2.15
289.9	1641.36	2.15
289.65	1642.22	2.15
289.4	1643.05	2.15
289.15	1643.9	2.15
288.9	1644.77	2.15
288.65	1645.6	2.15
288.4	1646.47	2.15
288.15	1647.32	2.15
287.9	1648.14	2.15
287.65	1648.98	2.15
287.4	1649.87	2.15
287.15	1650.72	2.15
286.9	1651.58	2.15
286.65	1652.44	2.15
286.4	1653.29	2.15
286.15	1654.17	2.15
285.9	1655.05	2.15
285.65	1655.92	2.15
285.4	1656.78	2.15
285.15	1657.66	2.15
284.9	1658.49	2.15
284.65	1659.41	2.15
284.4	1660.28	2.15
284.15	1661.17	2.15
283.9	1662.07	2.15
283.65	1662.97	2.15
283.4	1663.82	2.16
283.15	1664.76	2.16
282.9	1665.65	2.16
282.65	1666.56	2.16
282.4	1667.44	2.16
282.15	1668.39	2.16
281.9	1669.23	2.16
281.65	1670.13	2.16
281.4	1671.09	2.16
281.15	1672.01	2.16
280.9	1672.96	2.16
280.65	1673.9	2.16
280.4	1674.84	2.16
280.15	1675.78	2.16
279.9	1676.75	2.16
279.65	1677.67	2.16
279.4	1678.65	2.16
279.15	1679.61	2.16
278.9	1680.57	2.16
278.65	1681.54	2.16
278.4	1682.52	2.16
278.15	1683.51	2.16

System: N-methyl-2-hydroxyethylammonium butanoate; phases: Liquid
Fixed: Pressure, kPa = 101.325
Property: Refractive index (Na D-line) (Liquid); method: Standard Abbe refractometry
Temperature, K	Refractive index (Na D-line)	uncertainty
323.15	1.4471	0.0005
318.15	1.4488	0.0005
313.15	1.4504	0.0005
308.15	1.452	0.0005
303.15	1.4534	0.0005
298.15	1.4549	0.0005
293.15	1.4564	0.0005
288.15	1.4579	0.0005

System: N-methyl-2-hydroxyethylammonium butanoate; phases: Liquid
Fixed: Pressure, kPa = 101.325
Property: Viscosity, Pa*s (Liquid); method: CAPTUB:UFactor:4
Temperature, K	Viscosity, Pa*s	uncertainty
323.15	0.07153	0.00234
320.15	0.07957	0.00305
318.15	0.09333	0.00435
315.15	0.10778	0.0059
312.65	0.1271	0.00834
310.65	0.1414	0.01025
308.15	0.1628	0.0133
305.45	0.18626	0.01691
303.15	0.21916	0.02229
300.65	0.2567	0.02877
298.15	0.29895	0.03653
295.65	0.3522	0.04697
293.15	0.4338	0.06378
290.15	0.51628	0.08186
288.15	0.60915	0.1034

System: 2-hydroxy-N-methylethanaminium isobutyrate; phases: Liquid
Fixed: Pressure, kPa = 101.325
Property: Mass density, kg/m3 (Liquid); method: Vibrating tube method
Temperature, K	Mass density, kg/m3	uncertainty
338.15	1016.842	2.153
337.9	1017.007	2.153
337.66	1017.18	2.153
337.4	1017.354	2.153
337.16	1017.526	2.153
336.9	1017.697	2.153
336.66	1017.867	2.153
336.41	1018.042	2.153
336.16	1018.215	2.153
335.91	1018.385	2.154
335.66	1018.557	2.154
335.41	1018.73	2.154
335.16	1018.901	2.154
334.91	1019.074	2.154
334.66	1019.243	2.154
334.41	1019.417	2.154
334.16	1019.587	2.154
333.91	1019.759	2.155
333.66	1019.93	2.155
333.41	1020.102	2.155
333.16	1020.271	2.155
332.91	1020.443	2.155
332.66	1020.614	2.155
332.41	1020.782	2.155
332.16	1020.953	2.155
331.91	1021.126	2.155
331.66	1021.294	2.156
331.41	1021.465	2.156
331.16	1021.634	2.156
330.91	1021.807	2.156
330.66	1021.976	2.156
330.41	1022.144	2.156
330.16	1022.315	2.156
329.9	1022.484	2.156
329.65	1022.655	2.157
329.4	1022.823	2.157
329.16	1022.992	2.157
328.9	1023.162	2.157
328.66	1023.332	2.157
328.41	1023.5	2.157
328.15	1023.672	2.157
327.9	1023.839	2.157
327.66	1024.008	2.158
327.4	1024.178	2.158
327.16	1024.344	2.158
326.9	1024.515	2.158
326.66	1024.683	2.158
326.41	1024.852	2.158
326.16	1025.019	2.158
325.9	1025.187	2.158
325.66	1025.355	2.158
325.4	1025.521	2.159
325.16	1025.689	2.159
324.9	1025.858	2.159
324.65	1026.027	2.159
324.41	1026.191	2.159
324.16	1026.361	2.159
323.91	1026.53	2.159
323.65	1026.694	2.159
323.41	1026.864	2.16
323.16	1027.032	2.16
322.91	1027.198	2.16
322.65	1027.366	2.16
322.41	1027.535	2.16
322.15	1027.7	2.16
321.9	1027.866	2.16
321.66	1028.033	2.16
321.41	1028.203	2.16
321.15	1028.369	2.161
320.91	1028.535	2.161
320.65	1028.699	2.161
320.41	1028.869	2.161
320.16	1029.034	2.161
319.91	1029.201	2.161
319.65	1029.366	2.161
319.41	1029.532	2.161
319.16	1029.7	2.162
318.9	1029.865	2.162
318.65	1030.031	2.162
318.41	1030.195	2.162
318.16	1030.36	2.162
317.91	1030.526	2.162
317.66	1030.693	2.162
317.4	1030.857	2.162
317.16	1031.023	2.162
316.91	1031.185	2.163
316.66	1031.353	2.163
316.41	1031.517	2.163
316.16	1031.685	2.163
315.91	1031.849	2.163
315.65	1032.014	2.163
315.41	1032.179	2.163
315.15	1032.345	2.163
314.9	1032.508	2.164
314.65	1032.673	2.164
314.4	1032.838	2.164
314.15	1033.003	2.164
313.9	1033.165	2.164
313.66	1033.332	2.164
313.4	1033.494	2.164
313.16	1033.658	2.164
312.91	1033.824	2.164
312.66	1033.986	2.165
312.41	1034.151	2.165
312.16	1034.317	2.165
311.91	1034.478	2.165
311.65	1034.644	2.165
311.4	1034.808	2.165
311.16	1034.97	2.165
310.91	1035.132	2.165
310.65	1035.294	2.166
310.4	1035.459	2.166
310.15	1035.623	2.166
309.9	1035.785	2.166
309.65	1035.949	2.166
309.4	1036.111	2.166
309.15	1036.277	2.166
308.9	1036.437	2.166
308.65	1036.602	2.166
308.4	1036.766	2.167
308.15	1036.924	2.167
307.9	1037.089	2.167
307.65	1037.249	2.167
307.4	1037.414	2.167
307.15	1037.575	2.167
306.9	1037.741	2.167
306.65	1037.899	2.167
306.4	1038.062	2.168
306.15	1038.226	2.168
305.9	1038.386	2.168
305.65	1038.551	2.168
305.4	1038.71	2.168
305.15	1038.873	2.168
304.91	1039.032	2.168
304.65	1039.195	2.168
304.4	1039.355	2.168
304.15	1039.518	2.169
303.9	1039.681	2.169
303.65	1039.841	2.169
303.4	1040.003	2.169
303.15	1040.167	2.169
302.9	1040.322	2.169
302.65	1040.486	2.169
302.4	1040.645	2.169
302.15	1040.807	2.17
301.9	1040.965	2.17
301.65	1041.133	2.17
301.4	1041.288	2.17
301.15	1041.447	2.17
300.9	1041.611	2.17
300.65	1041.77	2.17
300.4	1041.932	2.17
300.15	1042.092	2.171
299.9	1042.251	2.171
299.65	1042.407	2.171
299.4	1042.568	2.171
299.15	1042.731	2.171
298.9	1042.887	2.171
298.65	1043.046	2.171
298.4	1043.203	2.171
298.15	1043.366	2.171
297.9	1043.523	2.172
297.65	1043.684	2.172
297.4	1043.843	2.172
297.15	1044.005	2.172
296.9	1044.166	2.172
296.65	1044.323	2.172
296.4	1044.478	2.172
296.15	1044.635	2.172
295.9	1044.799	2.173
295.65	1044.956	2.173
295.4	1045.112	2.173
295.15	1045.269	2.173
294.9	1045.434	2.173
294.65	1045.59	2.173
294.4	1045.744	2.173
294.15	1045.899	2.173
293.9	1046.06	2.173
293.65	1046.214	2.174
293.4	1046.372	2.174
293.15	1046.528	2.174
292.9	1046.685	2.174
292.65	1046.844	2.174
292.4	1047	2.174
292.15	1047.158	2.174
291.9	1047.314	2.174
291.65	1047.467	2.174
291.4	1047.628	2.175
291.15	1047.786	2.175
290.9	1047.942	2.175
290.65	1048.091	2.175
290.4	1048.251	2.175
290.15	1048.406	2.175
289.9	1048.562	2.175
289.65	1048.718	2.175
289.4	1048.874	2.176
289.15	1049.034	2.176
288.9	1049.195	2.176
288.65	1049.36	2.176
288.4	1049.521	2.176
288.15	1049.684	2.176
287.9	1049.845	2.176
287.65	1050.008	2.176
287.4	1050.17	2.177
287.15	1050.332	2.177
286.9	1050.494	2.177
286.65	1050.657	2.177
286.4	1050.819	2.177
286.15	1050.98	2.177
285.9	1051.144	2.177
285.65	1051.308	2.177
285.4	1051.468	2.177
285.15	1051.63	2.178
284.9	1051.79	2.178
284.65	1051.95	2.178
284.4	1052.112	2.178
284.15	1052.273	2.178
283.9	1052.433	2.178
283.65	1052.596	2.178
283.4	1052.755	2.178
283.15	1052.917	2.179
282.9	1053.077	2.179
282.65	1053.238	2.179
282.4	1053.4	2.179
282.15	1053.559	2.179
281.9	1053.72	2.179
281.65	1053.881	2.179
281.4	1054.042	2.179
281.15	1054.202	2.18
280.9	1054.363	2.18
280.65	1054.524	2.18
280.4	1054.683	2.18
280.15	1054.845	2.18
279.9	1055.004	2.18
279.65	1055.163	2.18
279.4	1055.323	2.18
279.15	1055.485	2.181
278.9	1055.645	2.181
278.65	1055.802	2.181
278.4	1055.963	2.181
278.15	1056.124	2.181

System: 2-hydroxy-N-methylethanaminium isobutyrate; phases: Liquid
Fixed: Pressure, kPa = 101.325
Property: Speed of sound, m/s (Liquid); method: Pulse-echo method
Temperature, K	Speed of sound, m/s	uncertainty
338.15	1497.66	2.13
337.9	1498.31	2.13
337.66	1499	2.13
337.4	1499.72	2.13
337.16	1500.43	2.13
336.9	1501.15	2.13
336.66	1501.86	2.13
336.41	1502.56	2.13
336.16	1503.28	2.13
335.91	1504.01	2.13
335.66	1504.73	2.13
335.41	1505.45	2.13
335.16	1506.17	2.13
334.91	1506.91	2.13
334.66	1507.61	2.13
334.41	1508.33	2.13
334.16	1509.06	2.13
333.91	1509.78	2.13
333.66	1510.49	2.13
333.41	1511.23	2.13
333.16	1511.94	2.13
332.91	1512.67	2.13
332.66	1513.39	2.13
332.41	1514.11	2.13
332.16	1514.83	2.13
331.91	1515.55	2.13
331.66	1516.25	2.13
331.41	1516.98	2.13
331.16	1517.71	2.13
330.91	1518.42	2.13
330.66	1519.14	2.13
330.41	1519.87	2.13
330.16	1520.58	2.13
329.9	1521.32	2.13
329.65	1522.04	2.13
329.4	1522.77	2.13
329.16	1523.48	2.14
328.9	1524.2	2.14
328.66	1524.93	2.14
328.41	1525.65	2.14
328.15	1526.36	2.14
327.9	1527.08	2.14
327.66	1527.8	2.14
327.4	1528.52	2.14
327.16	1529.23	2.14
326.9	1529.94	2.14
326.66	1530.66	2.14
326.41	1531.37	2.14
326.16	1532.08	2.14
325.9	1532.79	2.14
325.66	1533.5	2.14
325.4	1534.22	2.14
325.16	1534.9	2.14
324.9	1535.59	2.14
324.65	1536.3	2.14
324.41	1537.01	2.14
324.16	1537.73	2.14
323.91	1538.45	2.14
323.65	1539.17	2.14
323.41	1539.88	2.14
323.16	1540.58	2.14
322.91	1541.3	2.14
322.65	1542.01	2.14
322.41	1542.73	2.14
322.15	1543.44	2.14
321.9	1544.16	2.14
321.66	1544.87	2.14
321.41	1545.58	2.14
321.15	1546.3	2.14
320.91	1547.01	2.14
320.65	1547.72	2.14
320.41	1548.44	2.14
320.16	1549.15	2.14
319.91	1549.86	2.14
319.65	1550.58	2.14
319.41	1551.28	2.14
319.16	1552	2.14
318.9	1552.7	2.14
318.65	1553.41	2.14
318.41	1554.12	2.14
318.16	1554.84	2.14
317.91	1555.54	2.14
317.66	1556.25	2.14
317.4	1556.96	2.14
317.16	1557.67	2.14
316.91	1558.37	2.14
316.66	1559.09	2.14
316.41	1559.79	2.14
316.16	1560.5	2.14
315.91	1561.2	2.14
315.65	1561.91	2.14
315.41	1562.62	2.14
315.15	1563.33	2.14
314.9	1564.04	2.14
314.65	1564.74	2.14
314.4	1565.44	2.14
314.15	1566.14	2.14
313.9	1566.85	2.14
313.66	1567.55	2.14
313.4	1568.26	2.14
313.16	1568.96	2.14
312.91	1569.66	2.14
312.66	1570.37	2.14
312.41	1571.08	2.14
312.16	1571.79	2.14
311.91	1572.49	2.14
311.65	1573.21	2.14
311.4	1573.91	2.14
311.16	1574.62	2.14
310.91	1575.32	2.14
310.65	1576.04	2.14
310.4	1576.74	2.14
310.15	1577.45	2.14
309.9	1578.16	2.14
309.65	1578.85	2.14
309.4	1579.58	2.14
309.15	1580.28	2.14
308.9	1580.98	2.14
308.65	1581.68	2.14
308.4	1582.4	2.14
308.15	1583.09	2.14
307.9	1583.8	2.14
307.65	1584.5	2.14
307.4	1585.21	2.14
307.15	1585.91	2.14
306.9	1586.61	2.14
306.65	1587.32	2.14
306.4	1588.02	2.14
306.15	1588.72	2.14
305.9	1589.43	2.14
305.65	1590.12	2.14
305.4	1590.82	2.14
305.15	1591.52	2.14
304.91	1592.23	2.14
304.65	1592.92	2.14
304.4	1593.63	2.14
304.15	1594.34	2.14
303.9	1595.03	2.14
303.65	1595.74	2.14
303.4	1596.44	2.15
303.15	1597.15	2.15
302.9	1597.85	2.15
302.65	1598.56	2.15
302.4	1599.27	2.15
302.15	1599.97	2.15
301.9	1600.68	2.15
301.65	1601.39	2.15
301.4	1602.1	2.15
301.15	1602.8	2.15
300.9	1603.5	2.15
300.65	1604.21	2.15
300.4	1604.92	2.15
300.15	1605.63	2.15
299.9	1606.33	2.15
299.65	1607.06	2.15
299.4	1607.75	2.15
299.15	1608.47	2.15
298.9	1609.18	2.15
298.65	1609.89	2.15
298.4	1610.59	2.15
298.15	1611.31	2.15
297.9	1612.02	2.15
297.65	1612.73	2.15
297.4	1613.44	2.15
297.15	1614.15	2.15
296.9	1614.86	2.15
296.65	1615.57	2.15
296.4	1616.28	2.15
296.15	1617	2.15
295.9	1617.69	2.15
295.65	1618.41	2.15
295.4	1619.11	2.15
295.15	1619.82	2.15
294.9	1620.53	2.15
294.65	1621.25	2.15
294.4	1621.95	2.15
294.15	1622.66	2.15
293.9	1623.38	2.15
293.65	1624.08	2.15
293.4	1624.8	2.15
293.15	1625.51	2.15
292.9	1626.24	2.15
292.65	1626.94	2.15
292.4	1627.67	2.15
292.15	1628.38	2.15
291.9	1629.08	2.15
291.65	1629.81	2.15
291.4	1630.53	2.15
291.15	1631.25	2.15
290.9	1631.98	2.15
290.65	1632.69	2.15
290.4	1633.41	2.15
290.15	1634.15	2.15
289.9	1634.87	2.15
289.65	1635.61	2.15
289.4	1636.33	2.15
289.15	1637.07	2.15
288.9	1637.79	2.15
288.65	1638.52	2.15
288.4	1639.26	2.15
288.15	1639.99	2.15
287.9	1640.73	2.15
287.65	1641.46	2.15
287.4	1642.19	2.15
287.15	1642.93	2.15
286.9	1643.67	2.15
286.65	1644.41	2.15
286.4	1645.15	2.15
286.15	1645.88	2.15
285.9	1646.38	2.15
285.65	1647.15	2.15
285.4	1647.9	2.15
285.15	1648.65	2.15
284.9	1649.4	2.15
284.65	1650.15	2.15
284.4	1650.91	2.15
284.15	1651.67	2.15
283.9	1652.41	2.15
283.65	1653.17	2.15
283.4	1653.92	2.15
283.15	1654.67	2.15
282.9	1655.44	2.15
282.65	1656.19	2.15
282.4	1656.95	2.15
282.15	1657.71	2.15
281.9	1658.48	2.15
281.65	1659.23	2.15
281.4	1660	2.15
281.15	1660.78	2.15
280.9	1661.54	2.15
280.65	1662.32	2.15
280.4	1663.09	2.15
280.15	1663.86	2.15
279.9	1664.65	2.15
279.65	1665.42	2.15
279.4	1666.21	2.16
279.15	1666.99	2.16
278.9	1667.78	2.16
278.65	1668.57	2.16
278.4	1669.36	2.16
278.15	1670.18	2.16

System: 2-hydroxy-N-methylethanaminium isobutyrate; phases: Liquid
Fixed: Pressure, kPa = 101.325
Property: Refractive index (Na D-line) (Liquid); method: Standard Abbe refractometry
Temperature, K	Refractive index (Na D-line)	uncertainty
323.15	1.4433	0.0005
318.08	1.4448	0.0005
313.05	1.4463	0.0005
308.05	1.4481	0.0005
303.05	1.4496	0.0005
298.05	1.4511	0.0005
293.15	1.4525	0.0005
288.11	1.4539	0.0005

System: 2-hydroxy-N-methylethanaminium isobutyrate; phases: Liquid
Fixed: Pressure, kPa = 101.325
Property: Viscosity, Pa*s (Liquid); method: CAPTUB:UFactor:4
Temperature, K	Viscosity, Pa*s	uncertainty
323.15	0.04796	0.00137
318.15	0.0601	0.00161
313.15	0.07578	0.00272
308.15	0.09828	0.00481
303.15	0.12467	0.00799
298.15	0.16308	0.01337
293.15	0.22069	0.02252
288.15	0.30135	0.03693

System: 2-hydroxy-N-methylethanaminium pentanoate; phases: Liquid
Fixed: Pressure, kPa = 101.325
Property: Mass density, kg/m3 (Liquid); method: Vibrating tube method
Temperature, K	Mass density, kg/m3	uncertainty
338.15	988.703	2.137
337.9	988.872	2.137
337.66	989.051	2.137
337.4	989.229	2.137
337.16	989.407	2.137
336.9	989.584	2.137
336.66	989.761	2.137
336.41	989.938	2.137
336.16	990.117	2.137
335.91	990.295	2.137
335.66	990.472	2.137
335.41	990.651	2.138
335.16	990.827	2.138
334.91	991.004	2.138
334.66	991.18	2.138
334.41	991.358	2.138
334.16	991.536	2.138
333.91	991.71	2.138
333.66	991.886	2.138
333.41	992.064	2.138
333.16	992.239	2.138
332.91	992.415	2.138
332.66	992.592	2.138
332.41	992.768	2.138
332.16	992.945	2.138
331.91	993.121	2.139
331.66	993.296	2.139
331.41	993.472	2.139
331.16	993.649	2.139
330.91	993.824	2.139
330.66	993.999	2.139
330.41	994.177	2.139
330.16	994.354	2.139
329.9	994.528	2.139
329.65	994.701	2.139
329.4	994.879	2.139
329.16	995.05	2.139
328.9	995.229	2.139
328.66	995.401	2.139
328.41	995.577	2.139
328.15	995.753	2.14
327.9	995.927	2.14
327.66	996.103	2.14
327.4	996.278	2.14
327.16	996.452	2.14
326.9	996.626	2.14
326.66	996.8	2.14
326.41	996.977	2.14
326.16	997.148	2.14
325.9	997.325	2.14
325.66	997.495	2.14
325.4	997.672	2.14
325.16	997.846	2.14
324.9	998.022	2.14
324.65	998.196	2.14
324.41	998.367	2.141
324.16	998.543	2.141
323.91	998.715	2.141
323.65	998.891	2.141
323.41	999.06	2.141
323.16	999.237	2.141
322.91	999.412	2.141
322.65	999.586	2.141
322.41	999.756	2.141
322.15	999.932	2.141
321.9	1000.102	2.141
321.66	1000.279	2.141
321.41	1000.45	2.141
321.15	1000.623	2.142
320.91	1000.798	2.142
320.65	1000.966	2.142
320.41	1001.141	2.142
320.16	1001.316	2.142
319.91	1001.486	2.142
319.65	1001.659	2.142
319.41	1001.833	2.142
319.16	1002.003	2.143
318.9	1002.176	2.143
318.65	1002.349	2.143
318.41	1002.521	2.143
318.16	1002.693	2.143
317.91	1002.863	2.143
317.66	1003.038	2.143
317.4	1003.211	2.143
317.16	1003.38	2.143
316.91	1003.549	2.144
316.66	1003.721	2.144
316.41	1003.895	2.144
316.16	1004.066	2.144
315.91	1004.24	2.144
315.65	1004.405	2.144
315.41	1004.582	2.144
315.15	1004.754	2.144
314.9	1004.922	2.144
314.65	1005.094	2.145
314.4	1005.266	2.145
314.15	1005.438	2.145
313.9	1005.608	2.145
313.66	1005.778	2.145
313.4	1005.952	2.145
313.16	1006.117	2.145
312.91	1006.289	2.145
312.66	1006.46	2.145
312.41	1006.63	2.146
312.16	1006.801	2.146
311.91	1006.971	2.146
311.65	1007.14	2.146
311.4	1007.313	2.146
311.16	1007.481	2.146
310.91	1007.649	2.146
310.65	1007.821	2.146
310.4	1007.991	2.146
310.15	1008.159	2.147
309.9	1008.331	2.147
309.65	1008.499	2.147
309.4	1008.668	2.147
309.15	1008.839	2.147
308.9	1009.006	2.147
308.65	1009.177	2.147
308.4	1009.341	2.147
308.15	1009.512	2.148
307.9	1009.683	2.148
307.65	1009.849	2.148
307.4	1010.016	2.148
307.15	1010.187	2.148
306.9	1010.356	2.148
306.65	1010.522	2.148
306.4	1010.69	2.148
306.15	1010.861	2.148
305.9	1011.028	2.149
305.65	1011.191	2.149
305.4	1011.365	2.149
305.15	1011.532	2.149
304.91	1011.7	2.149
304.65	1011.865	2.149
304.4	1012.033	2.149
304.15	1012.201	2.149
303.9	1012.366	2.149
303.65	1012.531	2.15
303.4	1012.699	2.15
303.15	1012.864	2.15
302.9	1013.029	2.15
302.65	1013.198	2.15
302.4	1013.362	2.15
302.15	1013.531	2.15
301.9	1013.696	2.15
301.65	1013.862	2.15
301.4	1014.029	2.151
301.15	1014.19	2.151
300.9	1014.359	2.151
300.65	1014.523	2.151
300.4	1014.686	2.151
300.15	1014.853	2.151
299.9	1015.021	2.151
299.65	1015.188	2.151
299.4	1015.351	2.151
299.15	1015.522	2.152
298.9	1015.693	2.152
298.65	1015.864	2.152
298.4	1016.035	2.152
298.15	1016.206	2.152
297.9	1016.376	2.152
297.65	1016.548	2.152
297.4	1016.717	2.152
297.15	1016.889	2.153
296.9	1017.061	2.153
296.65	1017.231	2.153
296.4	1017.4	2.153
296.15	1017.57	2.153
295.9	1017.741	2.153
295.65	1017.911	2.153
295.4	1018.082	2.153
295.15	1018.251	2.153
294.9	1018.422	2.154
294.65	1018.59	2.154
294.4	1018.76	2.154
294.15	1018.928	2.154
293.9	1019.098	2.154
293.65	1019.269	2.154
293.4	1019.439	2.154
293.15	1019.608	2.154
292.9	1019.778	2.155
292.65	1019.945	2.155
292.4	1020.116	2.155
292.15	1020.284	2.155
291.9	1020.453	2.155
291.65	1020.623	2.155
291.4	1020.791	2.155
291.15	1020.96	2.155
290.9	1021.131	2.155
290.65	1021.299	2.156
290.4	1021.467	2.156
290.15	1021.636	2.156
289.9	1021.806	2.156
289.65	1021.974	2.156
289.4	1022.143	2.156
289.15	1022.312	2.156
288.9	1022.479	2.156
288.65	1022.647	2.157
288.4	1022.815	2.157
288.15	1022.985	2.157
287.9	1023.153	2.157
287.65	1023.322	2.157
287.4	1023.49	2.157
287.15	1023.658	2.157
286.9	1023.827	2.157
286.65	1023.994	2.157
286.4	1024.162	2.158
286.15	1024.329	2.158
285.9	1024.499	2.158
285.65	1024.664	2.158
285.4	1024.833	2.158
285.15	1025.001	2.158
284.9	1025.168	2.158
284.65	1025.335	2.158
284.4	1025.502	2.159
284.15	1025.673	2.159
283.9	1025.837	2.159
283.65	1026.006	2.159
283.4	1026.172	2.159
283.15	1026.34	2.159
282.9	1026.509	2.159
282.65	1026.675	2.159
282.4	1026.843	2.159
282.15	1027.01	2.16
281.9	1027.176	2.16
281.65	1027.344	2.16
281.4	1027.51	2.16
281.15	1027.678	2.16
280.9	1027.846	2.16
280.65	1028.013	2.16
280.4	1028.18	2.16
280.15	1028.345	2.161
279.9	1028.512	2.161
279.65	1028.681	2.161
279.4	1028.846	2.161
279.15	1029.012	2.161
278.9	1029.18	2.161
278.65	1029.346	2.161
278.4	1029.515	2.161
278.15	1029.68	2.161

System: 2-hydroxy-N-methylethanaminium pentanoate; phases: Liquid
Fixed: Pressure, kPa = 101.325
Property: Speed of sound, m/s (Liquid); method: Pulse-echo method
Temperature, K	Speed of sound, m/s	uncertainty
338.15	1425.6	2.12
337.9	1426.29	2.12
337.66	1427.04	2.12
337.4	1427.81	2.12
337.16	1428.58	2.12
336.9	1429.34	2.12
336.66	1430.11	2.12
336.41	1430.88	2.12
336.16	1431.65	2.12
335.91	1432.42	2.12
335.66	1433.18	2.12
335.41	1433.96	2.12
335.16	1434.71	2.12
334.91	1435.48	2.12
334.66	1436.25	2.12
334.41	1437.02	2.12
334.16	1437.79	2.12
333.91	1438.55	2.12
333.66	1439.32	2.12
333.41	1440.08	2.12
333.16	1440.85	2.12
332.91	1441.62	2.12
332.66	1442.38	2.12
332.41	1443.15	2.12
332.16	1443.92	2.12
331.91	1444.69	2.12
331.66	1445.45	2.12
331.41	1446.22	2.12
331.16	1447	2.12
330.91	1447.77	2.13
330.66	1448.52	2.13
330.41	1449.31	2.13
330.16	1450.07	2.13
329.9	1450.84	2.13
329.65	1451.62	2.13
329.4	1452.39	2.13
329.16	1453.16	2.13
328.9	1453.94	2.13
328.66	1454.71	2.13
328.41	1455.47	2.13
328.15	1456.24	2.13
327.9	1457.01	2.13
327.66	1457.77	2.13
327.4	1458.53	2.13
327.16	1459.3	2.13
326.9	1460.07	2.13
326.66	1460.83	2.13
326.41	1461.6	2.13
326.16	1462.36	2.13
325.9	1463.14	2.13
325.66	1463.9	2.13
325.4	1464.67	2.13
325.16	1465.42	2.13
324.9	1466.21	2.13
324.65	1466.98	2.13
324.41	1467.73	2.13
324.16	1468.48	2.13
323.91	1469.25	2.13
323.65	1470.01	2.13
323.41	1470.78	2.13
323.16	1471.56	2.13
322.91	1472.31	2.13
322.65	1473.07	2.13
322.41	1473.84	2.13
322.15	1474.61	2.13
321.9	1475.37	2.13
321.66	1476.14	2.13
321.41	1476.92	2.13
321.15	1477.69	2.13
320.91	1478.46	2.13
320.65	1479.23	2.13
320.41	1480	2.13
320.16	1480.76	2.13
319.91	1481.53	2.13
319.65	1482.3	2.13
319.41	1483.06	2.13
319.16	1483.83	2.13
318.9	1484.58	2.13
318.65	1485.35	2.13
318.41	1486.11	2.13
318.16	1486.88	2.13
317.91	1487.64	2.13
317.66	1488.41	2.13
317.4	1489.17	2.13
317.16	1489.93	2.13
316.91	1490.7	2.13
316.66	1491.46	2.13
316.41	1492.23	2.13
316.16	1492.99	2.13
315.91	1493.76	2.13
315.65	1494.51	2.13
315.41	1495.28	2.13
315.15	1496.05	2.13
314.9	1496.81	2.13
314.65	1497.58	2.13
314.4	1498.35	2.13
314.15	1499.12	2.13
313.9	1499.88	2.13
313.66	1500.65	2.13
313.4	1501.42	2.13
313.16	1502.19	2.13
312.91	1502.96	2.13
312.66	1503.73	2.13
312.41	1504.5	2.13
312.16	1505.26	2.13
311.91	1506.03	2.13
311.65	1506.8	2.13
311.4	1507.57	2.13
311.16	1508.35	2.13
310.91	1509.12	2.13
310.65	1509.89	2.13
310.4	1510.67	2.13
310.15	1511.44	2.13
309.9	1512.2	2.13
309.65	1512.98	2.13
309.4	1513.76	2.13
309.15	1514.53	2.13
308.9	1515.3	2.13
308.65	1516.08	2.13
308.4	1516.84	2.13
308.15	1517.61	2.13
307.9	1518.38	2.13
307.65	1519.14	2.13
307.4	1519.91	2.13
307.15	1520.68	2.13
306.9	1521.46	2.13
306.65	1522.23	2.13
306.4	1522.99	2.14
306.15	1523.76	2.14
305.9	1524.53	2.14
305.65	1525.31	2.14
305.4	1526.08	2.14
305.15	1526.84	2.14
304.91	1527.63	2.14
304.65	1528.41	2.14
304.4	1529.17	2.14
304.15	1529.95	2.14
303.9	1530.73	2.14
303.65	1531.52	2.14
303.4	1532.3	2.14
303.15	1533.08	2.14
302.9	1533.86	2.14
302.65	1534.62	2.14
302.4	1535.42	2.14
302.15	1536.21	2.14
301.9	1536.99	2.14
301.65	1537.77	2.14
301.4	1538.55	2.14
301.15	1539.34	2.14
300.9	1540.13	2.14
300.65	1540.91	2.14
300.4	1541.69	2.14
300.15	1542.48	2.14
299.9	1543.26	2.14
299.65	1544.05	2.14
299.4	1544.83	2.14
299.15	1545.62	2.14
298.9	1546.41	2.14
298.65	1547.19	2.14
298.4	1547.97	2.14
298.15	1548.76	2.14
297.9	1549.56	2.14
297.65	1550.34	2.14
297.4	1551.13	2.14
297.15	1551.91	2.14
296.9	1552.72	2.14
296.65	1553.51	2.14
296.4	1554.29	2.14
296.15	1555.08	2.14
295.9	1555.89	2.14
295.65	1556.67	2.14
295.4	1557.47	2.14
295.15	1558.28	2.14
294.9	1559.08	2.14
294.65	1559.88	2.14
294.4	1560.69	2.14
294.15	1561.49	2.14
293.9	1562.3	2.14
293.65	1563.11	2.14
293.4	1563.93	2.14
293.15	1564.73	2.14
292.9	1565.54	2.14
292.65	1566.35	2.14
292.4	1567.16	2.14
292.15	1567.97	2.14
291.9	1568.78	2.14
291.65	1569.6	2.14
291.4	1570.4	2.14
291.15	1571.22	2.14
290.9	1572.04	2.14
290.65	1572.86	2.14
290.4	1573.69	2.14
290.15	1574.5	2.14
289.9	1575.33	2.14
289.65	1576.17	2.14
289.4	1576.99	2.14
289.15	1577.83	2.14
288.9	1578.67	2.14
288.65	1579.48	2.14
288.4	1580.32	2.14
288.15	1581.16	2.14
287.9	1582	2.14
287.65	1582.83	2.14
287.4	1583.67	2.14
287.15	1584.5	2.14
286.9	1585.36	2.14
286.65	1586.21	2.14
286.4	1587.06	2.14
286.15	1587.9	2.14
285.9	1588.76	2.14
285.65	1589.62	2.14
285.4	1590.48	2.14
285.15	1591.35	2.14
284.9	1592.2	2.14
284.65	1593.09	2.14
284.4	1593.94	2.15
284.15	1594.8	2.15
283.9	1595.69	2.15
283.65	1596.58	2.15
283.4	1597.46	2.15
283.15	1598.34	2.15
282.9	1599.24	2.15
282.65	1600.12	2.15
282.4	1601.02	2.15
282.15	1601.91	2.15
281.9	1602.8	2.15
281.65	1603.7	2.15
281.4	1604.61	2.15
281.15	1605.52	2.15
280.9	1606.41	2.15
280.65	1607.33	2.15
280.4	1608.23	2.15
280.15	1609.13	2.15
279.9	1610.06	2.15
279.65	1610.97	2.15
279.4	1611.89	2.15
279.15	1612.82	2.15
278.9	1613.75	2.15
278.65	1614.69	2.15
278.4	1615.63	2.15
278.15	1616.57	2.15

System: 2-hydroxy-N-methylethanaminium pentanoate; phases: Liquid
Fixed: Pressure, kPa = 101.325
Property: Refractive index (Na D-line) (Liquid); method: Standard Abbe refractometry
Temperature, K	Refractive index (Na D-line)	uncertainty
323.18	1.4461	0.0005
318.15	1.4474	0.0005
313.25	1.4492	0.0005
308.18	1.4508	0.0005
303.15	1.4524	0.0005
298.19	1.4538	0.0005
293.12	1.4554	0.0005
288.15	1.4568	0.0005

System: 2-hydroxy-N-methylethanaminium pentanoate; phases: Liquid
Fixed: Pressure, kPa = 101.325
Property: Viscosity, Pa*s (Liquid); method: CAPTUB:UFactor:4
Temperature, K	Viscosity, Pa*s	uncertainty
323.15	0.06602	0.00192
320.65	0.07074	0.00229
318.15	0.08038	0.0031
315.15	0.09192	0.00416
313.15	0.10238	0.00523
310.15	0.11728	0.00705
308.15	0.13308	0.00909
305.65	0.14742	0.0111
303.15	0.17584	0.01533
300.65	0.20532	0.01995
298.15	0.23444	0.02484
295.65	0.27303	0.03171
293.15	0.31963	0.04045
290.65	0.36878	0.05026
288.15	0.45093	0.06749
