Measured thermophysical data. Solubility of Triadimefon in Organic Solvents at Temperatures between (288.15 and 333.15) K
Source: J. Chem. Eng. Data, 2010, 10.1021/je901024t
Compound 1: 1-(4-chlorophenoxy)-3,3-dimethyl-1-(1H-1,2,4-triazol-1-yl)-2-butanone, C14H16ClN3O2, InChI=1S/C14H16ClN3O2/c1-14(2,3)12(19)13(18-9-16-8-17-18)20-11-6-4-10(15)5-7-11/h4-9,13H,1-3H3, purity 95%
Compound 2: acetonitrile, C2H3N, InChI=1S/C2H3N/c1-2-3/h1H3, purity 99%
Compound 3: hexane, C6H14, InChI=1S/C6H14/c1-3-5-6-4-2/h3-6H2,1-2H3, purity 99%
Compound 4: heptane, C7H16, InChI=1S/C7H16/c1-3-5-7-6-4-2/h3-7H2,1-2H3, purity 99%
Compound 5: cyclohexane, C6H12, InChI=1S/C6H12/c1-2-4-6-5-3-1/h1-6H2, purity 99%
Compound 6: toluene, C7H8, InChI=1S/C7H8/c1-7-5-3-2-4-6-7/h2-6H,1H3, purity 99%
Compound 7: 1,4-dimethylbenzene, C8H10, InChI=1S/C8H10/c1-7-3-5-8(2)6-4-7/h3-6H,1-2H3, purity 99%

System: acetonitrile + 1-(4-chlorophenoxy)-3,3-dimethyl-1-(1H-1,2,4-triazol-1-yl)-2-butanone; phases: Liquid, Crystal
Fixed: Pressure, kPa = 101
Property: Mole fraction of acetonitrile (Liquid); method: laser monitoring
Temperature, K	Mole fraction of acetonitrile	uncertainty
288.15	0.011015	0.000449
293.15	0.013167	0.000537
298.15	0.016218	0.000661
303.15	0.019623	0.000799
308.15	0.023803	0.000969
313.15	0.028519	0.001159
318.15	0.034015	0.001382
323.15	0.040722	0.001653
328.15	0.047921	0.001944
333.15	0.056985	0.002308

System: hexane + 1-(4-chlorophenoxy)-3,3-dimethyl-1-(1H-1,2,4-triazol-1-yl)-2-butanone; phases: Liquid, Crystal
Fixed: Pressure, kPa = 101
Property: Mole fraction of hexane (Liquid); method: laser monitoring
Temperature, K	Mole fraction of hexane	uncertainty
288.15	0.000262	1.5e-05
293.15	0.000539	2.7e-05
298.15	0.001037	5e-05
303.15	0.001971	9.3e-05
308.15	0.003505	0.000161
313.15	0.005917	0.000268
318.15	0.009839	0.000438
323.15	0.015569	0.000679
328.15	0.023304	0.001013
333.15	0.035427	0.001498

System: heptane + 1-(4-chlorophenoxy)-3,3-dimethyl-1-(1H-1,2,4-triazol-1-yl)-2-butanone; phases: Liquid, Crystal
Fixed: Pressure, kPa = 101
Property: Mole fraction of heptane (Liquid); method: laser monitoring
Temperature, K	Mole fraction of heptane	uncertainty
288.15	0.001287	6e-05
293.15	0.002043	9e-05
298.15	0.003207	0.00014
303.15	0.004835	0.000211
308.15	0.007369	0.00032
313.15	0.011109	0.000479
318.15	0.016367	0.000703
323.15	0.023838	0.001017
328.15	0.034031	0.001452
333.15	0.049107	0.002055

System: cyclohexane + 1-(4-chlorophenoxy)-3,3-dimethyl-1-(1H-1,2,4-triazol-1-yl)-2-butanone; phases: Liquid, Crystal
Fixed: Pressure, kPa = 101
Property: Mole fraction of cyclohexane (Liquid); method: laser monitoring
Temperature, K	Mole fraction of cyclohexane	uncertainty
288.15	0.000445	4.3e-05
293.15	0.001425	8.8e-05
298.15	0.003818	0.000211
303.15	0.008731	0.000447
308.15	0.017798	0.000845
313.15	0.031521	0.001406
318.15	0.048935	0.002097
323.15	0.069153	0.002869
328.15	0.086871	0.003525
333.15	0.098619	0.003973

System: toluene + 1-(4-chlorophenoxy)-3,3-dimethyl-1-(1H-1,2,4-triazol-1-yl)-2-butanone; phases: Liquid, Crystal
Fixed: Pressure, kPa = 101
Property: Mole fraction of toluene (Liquid); method: laser monitoring
Temperature, K	Mole fraction of toluene	uncertainty
288.15	0.091554	0.003822
293.15	0.118879	0.004915
298.15	0.15363	0.00632
303.15	0.191764	0.007842
308.15	0.234827	0.009569
313.15	0.282491	0.011472
318.15	0.333137	0.013474
323.15	0.380972	0.01537
328.15	0.431157	0.017356
333.15	0.474974	0.019089

System: 1,4-dimethylbenzene + 1-(4-chlorophenoxy)-3,3-dimethyl-1-(1H-1,2,4-triazol-1-yl)-2-butanone; phases: Liquid, Crystal
Fixed: Pressure, kPa = 101
Property: Mole fraction of 1,4-dimethylbenzene (Liquid); method: laser monitoring
Temperature, K	Mole fraction of 1,4-dimethylbenzene	uncertainty
288.15	0.063077	0.002667
293.15	0.084624	0.003527
298.15	0.112477	0.004669
303.15	0.146843	0.006067
308.15	0.188092	0.007747
313.15	0.238838	0.009811
318.15	0.29902	0.01226
323.15	0.371877	0.015208
328.15	0.45562	0.01859
333.15	0.553111	0.022474
