Measured thermophysical data. p-T-x Measurements for Some Working Fluids for an Absorption Heat Transformer: 1,1,1,2-Tetrafluoroethane (R134a) + Dimethylether Diethylene Glycol (DMEDEG) and Dimethylether Triethylene Glycol (DMETrEG)
Source: J. Chem. Eng. Data, 2010, 10.1021/je9009915
Compound 1: 1,1,1,2-tetrafluoroethane, C2H2F4, InChI=1S/C2H2F4/c3-1-2(4,5)6/h1H2, purity 99.5%
Compound 2: 2,5,8-trioxanonane, C6H14O3, InChI=1S/C6H14O3/c1-7-3-5-9-6-4-8-2/h3-6H2,1-2H3, purity 99%
Compound 3: 2,5,8,11-tetraoxadodecane, C8H18O4, InChI=1S/C8H18O4/c1-9-3-5-11-7-8-12-6-4-10-2/h3-8H2,1-2H3, purity 99%

System: 1,1,1,2-tetrafluoroethane; phases: Liquid, Gas
Property: Vapor or sublimation pressure, kPa (Liquid); method: EBULLIO:UFactor:2
Temperature, K	Vapor or sublimation pressure, kPa	uncertainty
303.45	775.7	1.1
308.44	892.2	1.2
313.3	1018.8	1.3
318.39	1165.4	1.4
323.3	1319	1.5
328.26	1492.4	1.7
333.3	1683.7	1.9
338.24	1889.6	2
343.23	2115.3	2.2

System: 2,5,8-trioxanonane + 1,1,1,2-tetrafluoroethane; phases: Liquid, Gas
Property: Vapor or sublimation pressure, kPa (Liquid); method: Ebulliometric method (Recirculating still)
Temperature, K	Mole fraction of 1,1,1,2-tetrafluoroethane	Vapor or sublimation pressure, kPa	uncertainty
303.3	0.329	181.7	8.6
303.3	0.364	211.9	9.5
303.3	0.526	341.6	13.6
303.3	0.623	435	14.4
303.3	0.646	452.6	15
303.3	0.763	568.7	22.9
303.3	0.847	652.4	25.6
303.3	0.849	654.4	25.6
313.2	0.348	277.7	8.8
313.2	0.421	344.5	12
313.2	0.543	480.8	18.9
313.2	0.658	620.3	24.3
313.2	0.736	715.5	28.5
313.2	0.804	801.3	28.4
323.3	0.323	354.4	11.4
323.3	0.511	571.8	20.1
323.3	0.601	718.3	28.4
323.3	0.664	810.6	30
323.3	0.762	964.1	36.4
323.3	0.845	1100.5	32.2
323.3	0.931	1209.3	32.5
338.15	0.303	483	14.6
338.15	0.444	725.7	28.9
338.15	0.479	801.3	28.7
338.15	0.546	929.3	31.9
338.15	0.605	1045	38.8
338.15	0.625	1084.5	27.3
338.15	0.668	1164.2	39
338.15	0.729	1297.3	48.3
338.15	0.771	1390.5	66.7
353.15	0.174	385.9	13.5
353.15	0.211	481	16
353.15	0.3	702.1	21.7
353.15	0.374	869.9	26.1
353.15	0.429	999.5	31.2
353.15	0.466	1091.3	34.4
353.15	0.505	1184.8	39.5
353.15	0.606	1451.2	47.8
353.15	0.652	1567.3	53.9
353.15	0.768	1891.6	65.5
353.15	0.8	1986.8	73.4
353.15	0.849	2137.4	79.3
353.15	0.885	2250.1	79.4
353.15	0.941	2411.3	81.9

System: 2,5,8,11-tetraoxadodecane + 1,1,1,2-tetrafluoroethane; phases: Liquid, Gas
Property: Vapor or sublimation pressure, kPa (Liquid); method: Ebulliometric method (Recirculating still)
Temperature, K	Mole fraction of 1,1,1,2-tetrafluoroethane	Vapor or sublimation pressure, kPa	uncertainty
303.45	0.376	232.2	10.3
303.45	0.429	280.5	12
303.45	0.484	332.7	13.7
303.45	0.583	424.6	15.9
303.45	0.66	491.1	17.1
303.45	0.75	567.3	19.4
303.45	0.851	654.5	22.4
303.45	0.893	692	24.1
313.24	0.323	277.5	11.1
313.24	0.452	424.9	15.4
313.24	0.521	499.5	16.7
313.24	0.597	578.9	18.4
313.24	0.685	669.6	22.2
313.24	0.794	789.5	27.1
313.24	0.853	860.1	32.5
313.24	0.912	934.1	40.9
323.33	0.31	373.6	12.7
323.33	0.387	478.3	16.1
323.33	0.441	553.3	18.3
323.33	0.522	666	21.4
323.33	0.6	770.2	24.9
323.33	0.652	843	31.6
323.33	0.681	889.6	27.4
323.33	0.754	985.1	31
323.33	0.803	1045.2	36
323.33	0.868	1155.6	36.9
323.33	0.921	1215.8	40.4
323.33	0.935	1236.8	20.6
338.3	0.279	473	18.5
338.3	0.315	552	19.9
338.3	0.419	766	25.1
338.3	0.503	923	29.3
338.3	0.592	1099	33.9
338.3	0.681	1260	37.9
338.3	0.748	1390	45.4
338.3	0.819	1528	47.4
338.3	0.856	1596	49.8
338.3	0.906	1695	61.1
338.3	0.935	1753	108.8
353.33	0.241	588	19.5
353.33	0.543	1397	43.4
353.33	0.654	1673	49.6
353.33	0.718	1835	55.4
353.33	0.763	1951	59.6
353.33	0.902	2310	72.9
353.33	0.949	2453	87.2
