Measured thermophysical data. Thermodynamic Properties of Aqueous Electrolyte Solutions. Volumetric and Compressibility Studies in 0.1 mol*kg-1, 0.5 mol*kg-1, and 1.0 mol*kg-1 Sodium Carbonate and Sodium Sulfate Solutions at Temperatures from 278.15 K to 323.15 K
Source: J. Chem. Eng. Data, 2009, 10.1021/je900108f
Compound 1: sodium carbonate, CNa2O3, InChI=1S/CH2O3.2Na/c2-1(3)4;;/h(H2,2,3,4);;/q;2*+1/p-2
Compound 2: sodium sulfate, Na2O4S, InChI=1S/2Na.H2O4S/c;;1-5(2,3)4/h;;(H2,1,2,3,4)/q2*+1;/p-2
Compound 3: water, H2O, InChI=1S/H2O/h1H2

System: sodium carbonate + water; phases: Liquid
Fixed: Pressure, kPa = 101
Property: Speed of sound, m/s (Liquid); method: Sing-around technique in a fixed-path interferometer
Temperature, K	Molality, mol/kg of sodium carbonate	Speed of sound, m/s	uncertainty
278.1	0.1	1446.08	1
278.1	0.5	1518.1	1.04
278.1	1	1605.78	1.06
279.1	0.1	1449.87	1.02
279.1	0.5	1521.22	1.03
279.1	1	1608.9	1.06
280.1	0.1	1454.19	1.02
280.1	0.5	1524.93	1.05
280.1	1	1612	1.06
281.1	0.1	1458.33	1.02
281.1	0.5	1528.9	1.04
281.1	1	1615	1.06
282.1	0.1	1462.45	1.02
282.1	0.5	1532.02	1.03
282.1	1	1617.9	1.06
283.1	0.1	1466.55	1.01
283.1	0.5	1535.23	1.04
283.1	1	1620.7	1.05
284.15	0.1	1469.99	1.01
284.15	0.5	1538.98	1.04
284.15	1	1623.14	1.06
285.15	0.1	1473.71	1.01
285.15	0.5	1542.14	1.03
285.15	1	1626.1	1.06
286.15	0.1	1477.27	1.01
286.15	0.5	1545.32	1.03
286.15	1	1628.8	1.06
287.15	0.1	1480.88	1
287.15	0.5	1548.45	1.03
287.15	1	1631.43	1.05
288.15	0.1	1483.91	1
288.15	0.5	1551.6	1.03
288.15	1	1633.57	1.05
289.15	0.1	1487.54	1.01
289.15	0.5	1554.31	1.03
289.15	1	1636.13	1.05
290.15	0.1	1490.65	1
290.15	0.5	1557.08	1.03
290.15	1	1637.91	1.05
291.15	0.1	1493.85	1.01
291.15	0.5	1559.72	1.02
291.15	1	1640.43	1.06
292.15	0.1	1497.23	1.01
292.15	0.5	1562.18	1.03
292.15	1	1642.59	1.05
293.15	0.1	1500.22	1
293.15	0.5	1565.16	1.03
293.15	1	1644.58	1.05
294.15	0.1	1503.06	0.99
294.15	0.5	1567.49	1.02
294.15	1	1646.77	1.05
295.15	0.1	1505.64	1
295.15	0.5	1569.87	1.02
295.15	1	1648.72	1.05
296.15	0.1	1508.61	1
296.15	0.5	1572.27	1.03
296.15	1	1650.54	1.05
297.15	0.1	1511.2	0.99
297.15	0.5	1574.73	1.02
297.15	1	1652.45	1.05
298.15	0.1	1513.71	0.99
298.15	0.5	1576.74	1.02
298.15	1	1654.05	1.05
299.15	0.1	1516.08	1
299.15	0.5	1579.09	1.02
299.15	1	1655.61	1.05
300.15	0.1	1518.66	1
300.15	0.5	1581.25	1.02
300.15	1	1657.47	1.05
301.15	0.1	1520.96	0.99
301.15	0.5	1583.15	1.02
301.15	1	1658.99	1.05
302.15	0.1	1523.01	0.99
302.15	0.5	1585.14	1.02
302.15	1	1660.48	1.05
303.15	0.1	1525.56	1
303.15	0.5	1587.04	1.02
303.15	1	1661.78	1.05
304.15	0.1	1527.66	0.99
304.15	0.5	1588.92	1.02
304.15	1	1663.24	1.05
305.15	0.1	1529.87	0.99
305.15	0.5	1590.57	1.02
305.15	1	1664.6	1.05
306.15	0.1	1532.03	0.99
306.15	0.5	1592.18	1.02
306.15	1	1665.68	1.05
307.15	0.1	1533.61	0.99
307.15	0.5	1593.91	1.02
307.15	1	1667.04	1.05
308.15	0.1	1535.62	0.99
308.15	0.5	1595.44	1.02
308.15	1	1668.08	1.05
309.15	0.1	1537.61	0.99
309.15	0.5	1596.97	1.02
309.15	1	1669.28	1.05
310.15	0.1	1539.07	0.99
310.15	0.5	1598.39	1.02
310.15	1	1670.32	1.05
311.15	0.1	1541.04	0.99
311.15	0.5	1599.75	1.02
311.15	1	1671.45	1.05
312.15	0.1	1542.77	0.99
312.15	0.5	1601	1.02
312.15	1	1672.24	1.05
313.15	0.1	1544.19	0.99
313.15	0.5	1602.58	1.02
313.15	1	1673.11	1.05
314.15	0.1	1545.62	0.99
314.15	0.5	1603.74	1.02
314.15	1	1674	1.05
315.15	0.1	1547.05	0.99
315.15	0.5	1604.99	1.02
315.15	1	1674.73	1.05
316.15	0.1	1548.37	0.99
316.15	0.5	1606.08	1.02
316.15	1	1675.68	1.05
317.15	0.1	1549.93	0.99
317.15	0.5	1607.18	1.02
317.15	1	1676.2	1.05
318.15	0.1	1551.23	0.99
318.15	0.5	1608.19	1.02
318.15	1	1676.91	1.05
319.15	0.1	1552.47	0.99
319.15	0.5	1609.17	1.02
319.15	1	1677.57	1.05
320.15	0.1	1553.69	0.99
320.15	0.5	1610.2	1.02
320.15	1	1678.11	1.05
321.15	0.1	1554.87	0.99
321.15	0.5	1610.97	1.02
321.15	1	1678.65	1.05
322.15	0.1	1556.01	0.99
322.15	0.5	1611.68	1.02
322.15	1	1679.16	1.05
323.15	0.1	1557.07	0.99
323.15	0.5	1612.7	1.02
323.15	1	1679.75	1.05

System: sodium carbonate + water; phases: Liquid
Fixed: Pressure, kPa = 101
Property: Mass density, kg/m3 (Liquid); method: VIBTUB:UFactor:4
Temperature, K	Molality, mol/kg of sodium carbonate	Mass density, kg/m3	uncertainty
278.1	0.09999	1011.53	0.22
278.1	0.50002	1055.19	0.32
278.1	1.00008	1104.54	0.39
279.1	0.09999	1011.46	0.22
279.1	0.50002	1054.9	0.3
279.1	1.00008	1104.24	0.39
280.1	0.09999	1011.4	0.22
280.1	0.50002	1054.59	0.29
280.1	1.00008	1103.92	0.39
281.1	0.09999	1011.3	0.21
281.1	0.50002	1054.31	0.29
281.1	1.00008	1103.57	0.39
282.1	0.09999	1011.2	0.21
282.1	0.50002	1054.02	0.29
282.1	1.00008	1103.23	0.39
283.1	0.09999	1011.07	0.21
283.1	0.50002	1053.75	0.29
283.1	1.00008	1102.91	0.39
284.15	0.09999	1010.92	0.21
284.15	0.50002	1053.44	0.29
284.15	1.00008	1102.55	0.39
285.15	0.09999	1010.8	0.21
285.15	0.50002	1053.15	0.29
285.15	1.00008	1102.19	0.39
286.15	0.09999	1010.65	0.21
286.15	0.50002	1052.86	0.29
286.15	1.00008	1101.83	0.39
287.15	0.09999	1010.48	0.21
287.15	0.50002	1052.57	0.29
287.15	1.00008	1101.47	0.39
288.15	0.09999	1010.3	0.21
288.15	0.50002	1052.27	0.29
288.15	1.00008	1101.12	0.38
289.15	0.09999	1010.1	0.21
289.15	0.50002	1051.98	0.29
289.15	1.00008	1100.74	0.38
290.15	0.09999	1009.92	0.21
290.15	0.50002	1051.68	0.29
290.15	1.00008	1100.35	0.38
291.15	0.09999	1009.73	0.21
291.15	0.50002	1051.39	0.29
291.15	1.00008	1099.96	0.38
292.15	0.09999	1009.49	0.21
292.15	0.50002	1051.07	0.29
292.15	1.00008	1099.56	0.38
293.15	0.09999	1009.26	0.21
293.15	0.50002	1050.75	0.29
293.15	1.00008	1099.18	0.38
294.15	0.09999	1009.01	0.21
294.15	0.50002	1050.43	0.29
294.15	1.00008	1098.78	0.38
295.15	0.09999	1008.76	0.21
295.15	0.50002	1050.11	0.29
295.15	1.00008	1098.36	0.38
296.15	0.09999	1008.5	0.21
296.15	0.50002	1049.76	0.28
296.15	1.00008	1097.95	0.38
297.15	0.09999	1008.24	0.21
297.15	0.50002	1049.42	0.28
297.15	1.00008	1097.55	0.38
298.15	0.09999	1007.96	0.21
298.15	0.50002	1049.09	0.28
298.15	1.00008	1097.13	0.38
299.15	0.09999	1007.68	0.21
299.15	0.50002	1048.73	0.28
299.15	1.00008	1096.7	0.38
300.15	0.09999	1007.4	0.21
300.15	0.50002	1048.36	0.28
300.15	1.00008	1096.27	0.38
301.15	0.09999	1007.1	0.21
301.15	0.50002	1048	0.28
301.15	1.00008	1095.83	0.37
302.15	0.09999	1006.78	0.21
302.15	0.50002	1047.63	0.28
302.15	1.00008	1095.39	0.37
303.15	0.09999	1006.46	0.21
303.15	0.50002	1047.23	0.28
303.15	1.00008	1094.94	0.37
304.15	0.09999	1006.13	0.21
304.15	0.50002	1046.86	0.28
304.15	1.00008	1094.5	0.37
305.15	0.09999	1005.79	0.2
305.15	0.50002	1046.47	0.28
305.15	1.00008	1094.05	0.37
306.15	0.09999	1005.46	0.2
306.15	0.50002	1046.07	0.28
306.15	1.00008	1093.56	0.37
307.15	0.09999	1005.12	0.2
307.15	0.50002	1045.67	0.28
307.15	1.00008	1093.13	0.37
308.15	0.09999	1004.75	0.2
308.15	0.50002	1045.26	0.28
308.15	1.00008	1092.66	0.37
309.15	0.09999	1004.39	0.2
309.15	0.50002	1044.84	0.28
309.15	1.00008	1092.19	0.37
310.15	0.09999	1004.01	0.2
310.15	0.50002	1044.43	0.27
310.15	1.00008	1091.7	0.37
311.15	0.09999	1003.64	0.2
311.15	0.50002	1044	0.27
311.15	1.00008	1091.24	0.37
312.15	0.09999	1003.24	0.2
312.15	0.50002	1043.57	0.27
312.15	1.00008	1090.74	0.36
313.15	0.09999	1002.85	0.2
313.15	0.50002	1043.13	0.27
313.15	1.00008	1090.25	0.36
314.15	0.09999	1002.44	0.2
314.15	0.50002	1042.69	0.27
314.15	1.00008	1089.75	0.36
315.15	0.09999	1002.03	0.2
315.15	0.50002	1042.24	0.27
315.15	1.00008	1089.27	0.36
316.15	0.09999	1001.63	0.2
316.15	0.50002	1041.81	0.27
316.15	1.00008	1088.77	0.36
317.15	0.09999	1001.21	0.2
317.15	0.50002	1041.35	0.27
317.15	1.00008	1088.26	0.36
318.15	0.09999	1000.78	0.2
318.15	0.50002	1040.89	0.27
318.15	1.00008	1087.77	0.36
319.15	0.09999	1000.34	0.2
319.15	0.50002	1040.42	0.27
319.15	1.00008	1087.26	0.36
320.15	0.09999	999.9	0.2
320.15	0.50002	1039.96	0.27
320.15	1.00008	1086.76	0.36
321.15	0.09999	999.45	0.2
321.15	0.50002	1039.49	0.27
321.15	1.00008	1086.25	0.36
322.15	0.09999	998.98	0.2
322.15	0.50002	1038.99	0.27
322.15	1.00008	1085.73	0.36
323.15	0.09999	998.53	0.2
323.15	0.50002	1038.52	0.26
323.15	1.00008	1085.21	0.35
324.15	0.09999	998.07	0.2
324.15	0.50002	1038.04	0.26
324.15	1.00008	1084.69	0.35
325.15	0.09999	997.61	0.2
325.15	0.50002	1037.59	0.26
325.15	1.00008	1084.17	0.35
326.15	0.09999	997.11	0.2
326.15	0.50002	1037.11	0.26
326.15	1.00008	1083.64	0.35
327.15	0.09999	996.63	0.2
327.15	0.50002	1036.64	0.26
327.15	1.00008	1083.14	0.35
328.15	0.09999	996.15	0.2
328.15	0.50002	1036.17	0.26
328.15	1.00008	1082.61	0.35
329.15	0.09999	995.66	0.2
329.15	0.50002	1035.67	0.26
329.15	1.00008	1082.07	0.35
330.15	0.09999	995.16	0.21
330.15	0.50002	1035.19	0.26
330.15	1.00008	1081.54	0.35
331.15	0.09999	994.67	0.21
331.15	0.50002	1034.75	0.26
331.15	1.00008	1081.01	0.35
332.15	0.09999	994.16	0.21
332.15	0.50002	1034.29	0.26
332.15	1.00008	1080.47	0.35
333.15	0.09999	993.66	0.21
333.15	0.50002	1033.8	0.26
333.15	1.00008	1079.91	0.34
334.15	0.09999	993.17	0.21
334.15	0.50002	1033.38	0.25
334.15	1.00008	1079.39	0.34
335.15	0.09999	992.65	0.21
335.15	0.50002	1032.92	0.25
335.15	1.00008	1078.85	0.34
336.15	0.09999	992.12	0.21
336.15	0.50002	1032.46	0.25
336.15	1.00008	1078.3	0.34
337.15	0.09999	991.59	0.21
337.15	0.50002	1032.03	0.25
337.15	1.00008	1077.74	0.34
338.15	0.09999	991.05	0.21
338.15	0.50002	1031.6	0.25
338.15	1.00008	1077.19	0.34
339.15	0.09999	990.53	0.22
339.15	0.50002	1031.18	0.25
339.15	1.00008	1076.66	0.34
340.15	0.09999	990	0.22
340.15	0.50002	1030.79	0.25
340.15	1.00008	1076.1	0.34
341.15	0.09999	989.45	0.22
341.15	0.50002	1030.39	0.25
341.15	1.00008	1075.57	0.34
342.15	0.09999	988.91	0.22
342.15	0.50002	1030.01	0.25
342.15	1.00008	1075.02	0.33
343.15	0.09999	988.35	0.22
343.15	0.50002	1029.67	0.34
343.15	1.00008	1074.47	0.33

System: water + sodium sulfate; phases: Liquid
Fixed: Pressure, kPa = 101
Property: Speed of sound, m/s (Liquid); method: Sing-around technique in a fixed-path interferometer
Temperature, K	Molality, mol/kg of sodium sulfate	Speed of sound, m/s	uncertainty
278.1	0.1	1445.58	1.01
278.1	0.5	1513.29	1.04
278.1	1	1596.28	1.06
279.1	0.1	1449.63	1.01
279.1	0.5	1516.42	1.04
279.1	1	1599.23	1.07
280.1	0.1	1453.56	1.02
280.1	0.5	1520.4	1.04
280.1	1	1602.4	1.07
281.1	0.1	1457.92	1.02
281.1	0.5	1523.65	1.03
281.1	1	1605.35	1.06
282.1	0.1	1461.58	1.01
282.1	0.5	1527.03	1.04
282.1	1	1608.16	1.06
283.1	0.1	1465.33	1.01
283.1	0.5	1530.51	1.04
283.1	1	1610.94	1.06
284.15	0.1	1469.25	1.01
284.15	0.5	1534	1.04
284.15	1	1613.49	1.06
285.15	0.1	1472.73	1.01
285.15	0.5	1537.29	1.03
285.15	1	1616.12	1.06
286.15	0.1	1476.39	1.01
286.15	0.5	1540.11	1.03
286.15	1	1618.76	1.06
287.15	0.1	1479.89	1.01
287.15	0.5	1543.1	1.03
287.15	1	1621.1	1.06
288.15	0.1	1483.37	1
288.15	0.5	1546.23	1.03
288.15	1	1623.43	1.06
289.15	0.1	1486.45	1
289.15	0.5	1548.91	1.03
289.15	1	1625.82	1.06
290.15	0.1	1489.57	1
290.15	0.5	1551.65	1.03
290.15	1	1627.93	1.06
291.15	0.1	1492.64	1
291.15	0.5	1554.52	1.03
291.15	1	1630.26	1.06
292.15	0.1	1495.74	1.01
292.15	0.5	1557.13	1.03
292.15	1	1632.15	1.06
293.15	0.1	1498.98	1
293.15	0.5	1559.69	1.03
293.15	1	1634.13	1.06
294.15	0.1	1501.72	1
294.15	0.5	1562.25	1.02
294.15	1	1636.1	1.06
295.15	0.1	1504.66	1
295.15	0.5	1564.42	1.02
295.15	1	1637.88	1.06
296.15	0.1	1507.23	1
296.15	0.5	1566.81	1.03
296.15	1	1639.71	1.06
297.15	0.1	1509.9	1
297.15	0.5	1569.04	1.02
297.15	1	1641.42	1.06
298.15	0.1	1512.41	1
298.15	0.5	1571.23	1.02
298.15	1	1642.99	1.05
299.15	0.1	1515.02	1
299.15	0.5	1573.16	1.02
299.15	1	1644.55	1.06
300.15	0.1	1517.33	1
300.15	0.5	1575.13	1.02
300.15	1	1646.22	1.06
301.15	0.1	1519.94	1
301.15	0.5	1577.33	1.02
301.15	1	1647.77	1.06
302.15	0.1	1522.05	0.99
302.15	0.5	1579.17	1.02
302.15	1	1649.24	1.06
303.15	0.1	1524.2	1
303.15	0.5	1581.06	1.02
303.15	1	1650.68	1.06
304.15	0.1	1526.61	1
304.15	0.5	1582.82	1.02
304.15	1	1651.96	1.06
305.15	0.1	1528.67	0.99
305.15	0.5	1584.7	1.02
305.15	1	1653.33	1.06
306.15	0.1	1530.65	0.99
306.15	0.5	1586.22	1.02
306.15	1	1654.48	1.06
307.15	0.1	1532.49	0.99
307.15	0.5	1587.85	1.02
307.15	1	1655.63	1.06
308.15	0.1	1534.4	0.99
308.15	0.5	1589.34	1.02
308.15	1	1656.74	1.06
309.15	0.1	1536.22	0.99
309.15	0.5	1590.72	1.02
309.15	1	1657.8	1.06
310.15	0.1	1537.89	0.99
310.15	0.5	1592.16	1.02
310.15	1	1658.84	1.06
311.15	0.1	1539.7	0.99
311.15	0.5	1593.57	1.02
311.15	1	1659.82	1.06
312.15	0.1	1541.35	0.99
312.15	0.5	1594.93	1.02
312.15	1	1660.75	1.06
313.15	0.1	1542.95	0.99
313.15	0.5	1596.25	1.02
313.15	1	1661.55	1.06
314.15	0.1	1544.46	0.99
314.15	0.5	1597.5	1.02
314.15	1	1662.31	1.06
315.15	0.1	1545.94	0.99
315.15	0.5	1598.71	1.02
315.15	1	1663.15	1.06
316.15	0.1	1547.29	0.99
316.15	0.5	1599.82	1.02
316.15	1	1663.9	1.06
317.15	0.1	1548.68	0.99
317.15	0.5	1600.87	1.02
317.15	1	1664.6	1.06
318.15	0.1	1549.98	0.99
318.15	0.5	1601.95	1.02
318.15	1	1665.84	1.06
319.15	0.1	1551.19	0.99
319.15	0.5	1602.73	1.02
319.15	1	1666.44	1.06
320.15	0.1	1552.41	0.99
320.15	0.5	1603.75	1.02
320.15	1	1667	1.06
321.15	0.1	1553.49	0.99
321.15	0.5	1604.68	1.02
321.15	1	1667.44	1.06
322.15	0.1	1554.73	0.99
322.15	0.5	1605.38	1.02
322.15	1	1667.47	1.06
323.15	0.1	1555.82	0.99
323.15	0.5	1606.17	1.02
323.15	1	1667.94	1.06

System: water + sodium sulfate; phases: Liquid
Fixed: Pressure, kPa = 101
Property: Mass density, kg/m3 (Liquid); method: VIBTUB:UFactor:4
Temperature, K	Molality, mol/kg of sodium sulfate	Mass density, kg/m3	uncertainty
278.1	0.10009	1013.24	0.23
278.1	0.499995	1063.1	0.35
278.1	1.00001	1119.95	0.43
279.1	0.10009	1013.18	0.23
279.1	0.499995	1062.89	0.32
279.1	1.00001	1119.65	0.43
280.1	0.10009	1013.13	0.23
280.1	0.499995	1062.83	0.32
280.1	1.00001	1119.36	0.43
281.1	0.10009	1013.03	0.23
281.1	0.499995	1062.61	0.32
281.1	1.00001	1119.06	0.43
282.1	0.10009	1012.93	0.23
282.1	0.499995	1062.38	0.32
282.1	1.00001	1118.74	0.43
283.1	0.10009	1012.81	0.23
283.1	0.499995	1062.14	0.32
283.1	1.00001	1118.4	0.43
284.15	0.10009	1012.67	0.23
284.15	0.499995	1061.78	0.32
284.15	1.00001	1118.06	0.43
285.15	0.10009	1012.54	0.23
285.15	0.499995	1061.62	0.31
285.15	1.00001	1117.71	0.43
286.15	0.10009	1012.39	0.23
286.15	0.499995	1061.36	0.31
286.15	1.00001	1117.36	0.43
287.15	0.10009	1012.23	0.23
287.15	0.499995	1061.1	0.31
287.15	1.00001	1117	0.43
288.15	0.10009	1012.03	0.22
288.15	0.499995	1060.69	0.31
288.15	1.00001	1116.63	0.43
289.15	0.10009	1011.83	0.22
289.15	0.499995	1060.38	0.31
289.15	1.00001	1116.27	0.43
290.15	0.10009	1011.66	0.22
290.15	0.499995	1060.27	0.31
290.15	1.00001	1115.9	0.42
291.15	0.10009	1011.46	0.22
291.15	0.499995	1059.99	0.31
291.15	1.00001	1115.51	0.42
292.15	0.10009	1011.22	0.22
292.15	0.499995	1059.62	0.31
292.15	1.00001	1115.11	0.42
293.15	0.10009	1010.99	0.22
293.15	0.499995	1059.3	0.31
293.15	1.00001	1114.72	0.42
294.15	0.10009	1010.74	0.22
294.15	0.499995	1058.97	0.31
294.15	1.00001	1114.31	0.42
295.15	0.10009	1010.5	0.22
295.15	0.499995	1058.65	0.31
295.15	1.00001	1113.91	0.42
296.15	0.10009	1010.24	0.22
296.15	0.499995	1058.31	0.31
296.15	1.00001	1113.49	0.42
297.15	0.10009	1009.97	0.22
297.15	0.499995	1057.96	0.31
297.15	1.00001	1113.08	0.42
298.15	0.10009	1009.7	0.22
298.15	0.499995	1057.61	0.31
298.15	1.00001	1112.66	0.42
299.15	0.10009	1009.43	0.22
299.15	0.499995	1057.25	0.31
299.15	1.00001	1112.24	0.42
300.15	0.10009	1009.13	0.22
300.15	0.499995	1056.89	0.31
300.15	1.00001	1111.82	0.42
301.15	0.10009	1008.83	0.22
301.15	0.499995	1056.53	0.31
301.15	1.00001	1111.39	0.42
302.15	0.10009	1008.51	0.22
302.15	0.499995	1056.14	0.31
302.15	1.00001	1110.93	0.42
303.15	0.10009	1008.2	0.22
303.15	0.499995	1055.76	0.3
303.15	1.00001	1110.5	0.41
304.15	0.10009	1007.87	0.22
304.15	0.499995	1055.36	0.3
304.15	1.00001	1110.04	0.41
305.15	0.10009	1007.54	0.22
305.15	0.499995	1054.97	0.3
305.15	1.00001	1109.59	0.41
306.15	0.10009	1007.21	0.22
306.15	0.499995	1054.58	0.3
306.15	1.00001	1109.14	0.41
307.15	0.10009	1006.86	0.22
307.15	0.499995	1054.17	0.3
307.15	1.00001	1108.68	0.41
308.15	0.10009	1006.5	0.22
308.15	0.499995	1053.75	0.3
308.15	1.00001	1108.2	0.41
309.15	0.10009	1006.13	0.21
309.15	0.499995	1053.34	0.3
309.15	1.00001	1107.74	0.41
310.15	0.10009	1005.76	0.21
310.15	0.499995	1052.89	0.3
310.15	1.00001	1107.25	0.41
311.15	0.10009	1005.38	0.21
311.15	0.499995	1052.49	0.3
311.15	1.00001	1106.78	0.41
312.15	0.10009	1004.98	0.21
312.15	0.499995	1052.03	0.3
312.15	1.00001	1106.29	0.41
313.15	0.10009	1004.58	0.21
313.15	0.499995	1051.59	0.3
313.15	1.00001	1105.8	0.41
314.15	0.10009	1004.17	0.21
314.15	0.499995	1051.14	0.3
314.15	1.00001	1105.3	0.4
315.15	0.10009	1003.77	0.21
315.15	0.499995	1050.69	0.3
315.15	1.00001	1104.81	0.4
316.15	0.10009	1003.36	0.21
316.15	0.499995	1050.23	0.29
316.15	1.00001	1104.31	0.4
317.15	0.10009	1002.93	0.21
317.15	0.499995	1049.76	0.29
317.15	1.00001	1103.8	0.4
318.15	0.10009	1002.52	0.21
318.15	0.499995	1049.3	0.29
318.15	1.00001	1103.3	0.4
319.15	0.10009	1002.1	0.21
319.15	0.499995	1048.82	0.29
319.15	1.00001	1102.78	0.4
320.15	0.10009	1001.63	0.21
320.15	0.499995	1048.35	0.29
320.15	1.00001	1102.27	0.4
321.15	0.10009	1001.2	0.21
321.15	0.499995	1047.86	0.29
321.15	1.00001	1101.75	0.4
322.15	0.10009	1000.73	0.21
322.15	0.499995	1047.36	0.29
322.15	1.00001	1101.25	0.4
323.15	0.10009	1000.29	0.21
323.15	0.499995	1046.88	0.29
323.15	1.00001	1100.73	0.4
324.15	0.10009	999.83	0.21
324.15	0.499995	1046.38	0.29
324.15	1.00001	1100.2	0.39
325.15	0.10009	999.35	0.21
325.15	0.499995	1045.87	0.29
325.15	1.00001	1099.67	0.39
326.15	0.10009	998.88	0.21
326.15	0.499995	1045.36	0.29
326.15	1.00001	1099.13	0.39
327.15	0.10009	998.39	0.21
327.15	0.499995	1044.86	0.29
327.15	1.00001	1098.58	0.39
328.15	0.10009	997.89	0.21
328.15	0.499995	1044.28	0.29
328.15	1.00001	1098.02	0.39
329.15	0.10009	997.39	0.21
329.15	0.499995	1043.75	0.28
329.15	1.00001	1097.47	0.39
330.15	0.10009	996.89	0.21
330.15	0.499995	1043.38	0.28
330.15	1.00001	1096.93	0.39
331.15	0.10009	996.38	0.21
331.15	0.499995	1042.87	0.28
331.15	1.00001	1096.37	0.39
332.15	0.10009	995.87	0.21
332.15	0.499995	1042.33	0.28
332.15	1.00001	1095.79	0.39
333.15	0.10009	995.37	0.21
333.15	0.499995	1041.76	0.33
333.15	1.00001	1095.22	0.39
