Measured thermophysical data. Solubility of Adenosine 5'-Monophosphate in Different Solvents from (288.15 to 330.15) K
Source: J. Chem. Eng. Data, 2010, 10.1021/je900462z
Compound 1: 5'-adenylic acid, C10H14N5O7P, InChI=1S/C10H14N5O7P/c11-8-5-9(13-2-12-8)15(3-14-5)10-7(17)6(16)4(22-10)1-21-23(18,19)20/h2-4,6-7,10,16-17H,1H2,(H2,11,12,13)(H2,18,19,20)/t4-,6-,7-,10-/m1/s1, purity 99.16%
Compound 2: methanol, CH4O, InChI=1S/CH4O/c1-2/h2H,1H3
Compound 3: ethanol, C2H6O, InChI=1S/C2H6O/c1-2-3/h3H,2H2,1H3
Compound 4: acetic acid, C2H4O2, InChI=1S/C2H4O2/c1-2(3)4/h1H3,(H,3,4)
Compound 5: water, H2O, InChI=1S/H2O/h1H2

System: 5'-adenylic acid + methanol; phases: Liquid, Crystal
Fixed: Pressure, kPa = 101
Property: Solid-liquid equilibrium temperature, K (Liquid); method: Laser monitoring technique
Mole fraction of 5'-adenylic acid	Solid-liquid equilibrium temperature, K	uncertainty
8.59e-06	288.15	2.71
9.35e-06	294.15	2.46
1.04e-05	300.15	2.32
1.15e-05	306.15	2.11
1.3e-05	312.15	2.38
1.41e-05	318.15	1.85
1.65e-05	324.15	2.04
1.79e-05	330.15	3.07

System: 5'-adenylic acid + ethanol; phases: Liquid, Crystal
Fixed: Pressure, kPa = 101
Property: Solid-liquid equilibrium temperature, K (Liquid); method: Laser monitoring technique
Mole fraction of 5'-adenylic acid	Solid-liquid equilibrium temperature, K	uncertainty
5.297e-06	288.15	4.07
5.609e-06	294.15	1.67
6.748e-06	300.15	1.53
7.729e-06	306.15	1.47
9.235e-06	312.15	1.53
1.062e-05	318.15	1.59
1.242e-05	324.15	1.23
1.536e-05	330.15	1.25

System: 5'-adenylic acid + acetic acid; phases: Liquid, Crystal
Fixed: Pressure, kPa = 101
Property: Solid-liquid equilibrium temperature, K (Liquid); method: Laser monitoring technique
Mole fraction of 5'-adenylic acid	Solid-liquid equilibrium temperature, K	uncertainty
7.848e-05	288.15	0.43
0.0001224	294.15	0.54
0.0001856	300.15	0.57
0.000276	306.15	0.63
0.0003946	312.15	0.65
0.0005642	318.15	0.76
0.0007496	324.15	0.89
0.000967	330.15	1.07

System: 5'-adenylic acid + water; phases: Liquid, Crystal
Fixed: Pressure, kPa = 101
Property: Solid-liquid equilibrium temperature, K (Liquid); method: Laser monitoring technique
Mole fraction of 5'-adenylic acid	Solid-liquid equilibrium temperature, K	uncertainty
0.0002574	288.2	0.8
0.0003362	294.2	1
0.0004125	300.2	1
0.000526	306.2	1.1
0.0006356	312.2	1.3
0.000768	318.2	1.2
0.0009337	324.2	1.4
