Measured thermophysical data. Gas-Liquid Critical Properties of Ethylene + Hydrogen and Propylene + Hydrogen Binary Mixtures
Source: J. Chem. Eng. Data, 2010, 10.1021/je9009199
Compound 1: ethene, C2H4, InChI=1S/C2H4/c1-2/h1-2H2
Compound 2: propene, C3H6, InChI=1S/C3H6/c1-3-2/h3H,1H2,2H3
Compound 3: hydrogen, H2, InChI=1S/H2/h1H

System: ethene; phases: Liquid, Gas
Property: Critical pressure, kPa (Liquid); method: Direct measurement
Critical pressure, kPa	uncertainty
5020	100

System: ethene; phases: Liquid, Gas
Property: Critical temperature, K (Liquid); method: Visual observation in an unstirred cell
Critical temperature, K	uncertainty
282.3	0.2

System: propene; phases: Liquid, Gas
Property: Critical pressure, kPa (Liquid); method: Direct measurement
Critical pressure, kPa	uncertainty
4630	90

System: propene; phases: Liquid, Gas
Property: Critical temperature, K (Liquid); method: Visual observation in an unstirred cell
Critical temperature, K	uncertainty
365.1	0.2

System: propene + hydrogen; phases: Liquid, Gas
Property: Critical pressure, kPa (Liquid); method: Direct measurement
Mole fraction of hydrogen	Critical pressure, kPa	uncertainty
0	4630	90
0.0288	4950	100
0.0391	5160	100
0.0396	5180	100
0.0494	5330	110
0.0639	5610	110
0.0707	5770	120
0.088	6210	120
0.0996	6350	130
0.1019	6440	130
0.1052	6530	130
0.1194	6750	140
0.1306	7050	140
0.1443	7290	150
0.1531	7580	150
0.165	7850	160
0.1784	8120	160

System: propene + hydrogen; phases: Liquid, Gas
Property: Critical temperature, K (Liquid); method: Visual observation in an unstirred cell
Mole fraction of hydrogen	Critical temperature, K	uncertainty
0	365.1	0.3
0.0288	364.7	0.3
0.0391	364.2	0.3
0.0396	364.2	0.3
0.0494	364	0.3
0.0639	363.4	0.3
0.0707	362.8	0.3
0.088	362.1	0.3
0.0996	361.7	0.3
0.1019	361.7	0.3
0.1052	361.5	0.3
0.1194	361	0.3
0.1306	360.6	0.3
0.1443	360.3	0.3
0.1531	360.1	0.3
0.165	359.5	0.3
0.1784	359.3	0.3

System: ethene + hydrogen; phases: Liquid, Gas
Property: Critical pressure, kPa (Liquid); method: Direct measurement
Mole fraction of hydrogen	Critical pressure, kPa	uncertainty
0	5020	100
0.0207	5310	110
0.0358	5610	110
0.0466	5780	120
0.0619	5980	120
0.0769	6320	130
0.0878	6510	130
0.0952	6630	130
0.0998	6730	130
0.1029	6870	140
0.1086	7070	140
0.1213	7230	140
0.1305	7560	150
0.1508	7850	160
0.1737	8440	170

System: ethene + hydrogen; phases: Liquid, Gas
Property: Critical temperature, K (Liquid); method: Visual observation in an unstirred cell
Mole fraction of hydrogen	Critical temperature, K	uncertainty
0	282.3	0.3
0.0207	281.7	0.3
0.0358	281.2	0.3
0.0466	280.8	0.3
0.0619	280.4	0.3
0.0769	279.9	0.3
0.0878	279.6	0.3
0.0952	279.4	0.3
0.0998	279.2	0.3
0.1029	279	0.3
0.1086	278.9	0.3
0.1213	278.5	0.3
0.1305	278.1	0.3
0.1508	277.5	0.3
0.1737	276.6	0.3
