Measured thermophysical data. Influence of Temperature and Composition upon Density, Viscosity, Speed of Sound, and Refractive Index of Aqueous Solutions of 1-Ethyl-2-pyrrolidinone
Source: J. Chem. Eng. Data, 2010, 10.1021/je9003959
Compound 1: water, H2O, InChI=1S/H2O/h1H2
Compound 2: 1-ethyl-2-pyrrolidinone, C6H11NO, InChI=1S/C6H11NO/c1-2-7-5-3-4-6(7)8/h2-5H2,1H3

System: water; phases: Liquid
Fixed: Pressure, kPa = 101.325
Property: Refractive index (Na D-line) (Liquid); method: Standard Abbe refractometry
Temperature, K	Refractive index (Na D-line)	uncertainty
293	1.33298	0.00044
298	1.33251	0.00045
303	1.33191	0.00045
313	1.33061	0.00046
323	1.32902	0.00046

System: water; phases: Liquid
Fixed: Pressure, kPa = 101
Property: Viscosity, Pa*s (Liquid); method: Capillary tube (Ostwald; Ubbelohde) method
Temperature, K	Viscosity, Pa*s	uncertainty
293	0.0010089	1.04e-05
298	0.0009029	9.4e-06
303	0.0008133	8.4e-06
313	0.0006693	7e-06
323	0.0005611	6.1e-06

System: water; phases: Liquid
Fixed: Pressure, kPa = 101
Property: Speed of sound, m/s (Liquid); method: Cylindrical cavity resonance method
Temperature, K	Speed of sound, m/s	uncertainty
293	1482.72	1.19
298	1496.94	1.19
303	1509.36	1.18
313	1529.06	1.17
323	1542.73	1.16

System: water; phases: Liquid
Fixed: Pressure, kPa = 101
Property: Mass density, kg/m3 (Liquid); method: VIBTUB::UFactor:32
Temperature, K	Mass density, kg/m3	uncertainty
293	998.26	1.21
298	997.1	1.22
303	995.7	1.24
313	992.26	1.28
323	988.08	1.33

System: 1-ethyl-2-pyrrolidinone; phases: Liquid
Fixed: Pressure, kPa = 101.325
Property: Refractive index (Na D-line) (Liquid); method: Standard Abbe refractometry
Temperature, K	Refractive index (Na D-line)	uncertainty
293	1.46461	0.00077
298	1.46192	0.00087
303	1.45791	0.00075
313	1.45415	0.00064
323	1.45147	0.00062

System: 1-ethyl-2-pyrrolidinone; phases: Liquid
Fixed: Pressure, kPa = 101
Property: Viscosity, Pa*s (Liquid); method: Capillary tube (Ostwald; Ubbelohde) method
Temperature, K	Viscosity, Pa*s	uncertainty
293	0.0021333	2.69e-05
298	0.002022	2.59e-05
303	0.0018321	2.35e-05
313	0.0016213	2.09e-05
323	0.0013582	1.79e-05

System: 1-ethyl-2-pyrrolidinone; phases: Liquid
Fixed: Pressure, kPa = 101
Property: Speed of sound, m/s (Liquid); method: Cylindrical cavity resonance method
Temperature, K	Speed of sound, m/s	uncertainty
293	1511.62	2.12
298	1492.47	2.12
303	1473.32	2.12
313	1435.35	2.12
323	1397.96	2.12

System: 1-ethyl-2-pyrrolidinone; phases: Liquid
Fixed: Pressure, kPa = 101
Property: Mass density, kg/m3 (Liquid); method: VIBTUB::UFactor:32
Temperature, K	Mass density, kg/m3	uncertainty
293	1000.55	1.81
298	996.24	1.84
303	991.93	1.89
313	983.26	1.98
323	974.56	2.08

System: 1-ethyl-2-pyrrolidinone + water; phases: Liquid
Fixed: Pressure, kPa = 101
Property: Viscosity, Pa*s (Liquid); method: Capillary tube (Ostwald; Ubbelohde) method
Temperature, K	Mole fraction of 1-ethyl-2-pyrrolidinone	Viscosity, Pa*s	uncertainty
293	0	0.0010089	1.04e-05
293	0.022	0.0015929	3.64e-05
293	0.05	0.0023683	4.8e-05
293	0.1	0.0041492	5e-05
293	0.2	0.006159	6.21e-05
293	0.3	0.0061891	6.73e-05
293	0.4	0.0053487	6.58e-05
293	0.5	0.004506	5.4e-05
293	0.6	0.003639	4.48e-05
293	0.7	0.0031303	3.75e-05
293	0.8	0.0026706	3.37e-05
293	0.9	0.0024578	3.08e-05
293	1	0.0021333	2.69e-05
298	0	0.0009029	9.4e-06
298	0.022	0.0014328	3.11e-05
298	0.05	0.0020469	3.81e-05
298	0.1	0.0034184	4.55e-05
298	0.2	0.0048491	6.17e-05
298	0.3	0.0050293	6.29e-05
298	0.4	0.004386	5.61e-05
298	0.5	0.0038555	4.73e-05
298	0.6	0.0032444	3.87e-05
298	0.7	0.0028358	3.42e-05
298	0.8	0.0024297	2.98e-05
298	0.9	0.0022101	2.81e-05
298	1	0.002022	2.59e-05
303	0	0.0008133	8.4e-06
303	0.022	0.0012544	2.62e-05
303	0.05	0.0017673	3.09e-05
303	0.1	0.0028424	3.54e-05
303	0.2	0.0040883	4.55e-05
303	0.3	0.0041638	4.76e-05
303	0.4	0.0036214	4.34e-05
303	0.5	0.0032798	3.84e-05
303	0.6	0.0028597	3.38e-05
303	0.7	0.0025274	3.04e-05
303	0.8	0.0022182	2.75e-05
303	0.9	0.0020113	2.53e-05
303	1	0.0018321	2.35e-05
313	0	0.0006693	7e-06
313	0.022	0.0009966	1.88e-05
313	0.05	0.0013272	2.15e-05
313	0.1	0.0020512	2.67e-05
313	0.2	0.0028787	3.36e-05
313	0.3	0.0029662	3.47e-05
313	0.4	0.0025998	3.09e-05
313	0.5	0.0025089	2.93e-05
313	0.6	0.0022618	2.67e-05
313	0.7	0.0020404	2.47e-05
313	0.8	0.0017765	2.2e-05
313	0.9	0.0017017	2.14e-05
313	1	0.0016213	2.09e-05
323	0	0.0005611	6.1e-06
323	0.022	0.0008044	1.51e-05
323	0.05	0.0010725	1.44e-05
323	0.1	0.0013582	2.02e-05
323	0.2	0.0021643	2.86e-05
323	0.3	0.0022344	2.75e-05
323	0.4	0.0020136	2.31e-05
323	0.5	0.0019864	2.38e-05
323	0.6	0.0018557	2.21e-05
323	0.7	0.0016701	2.03e-05
323	0.8	0.0015405	1.88e-05
323	0.9	0.0014348	1.83e-05
323	1	0.0013582	1.79e-05

System: 1-ethyl-2-pyrrolidinone + water; phases: Liquid
Fixed: Pressure, kPa = 101
Property: Refractive index (Na D-line) (Liquid); method: Standard Abbe refractometry
Temperature, K	Mole fraction of 1-ethyl-2-pyrrolidinone	Refractive index (Na D-line)	uncertainty
293	0	1.33298	0.00044
293	0.022	1.35197	0.00102
293	0.05	1.37085	0.00084
293	0.1	1.39584	0.00089
293	0.2	1.42603	0.00084
293	0.3	1.44127	0.00051
293	0.4	1.44975	0.00052
293	0.5	1.4551	0.00057
293	0.6	1.45859	0.00062
293	0.7	1.46118	0.00065
293	0.8	1.46326	0.00068
293	0.9	1.46478	0.00066
293	1	1.46461	0.00077
298	0	1.33251	0.00045
298	0.022	1.35144	0.00103
298	0.05	1.37012	0.0008
298	0.1	1.39478	0.00067
298	0.2	1.42432	0.00061
298	0.3	1.43983	0.00064
298	0.4	1.44776	0.00061
298	0.5	1.45307	0.00061
298	0.6	1.45647	0.00066
298	0.7	1.459	0.00068
298	0.8	1.46096	0.0007
298	0.9	1.4623	0.00071
298	1	1.46192	0.00087
303	0	1.33191	0.00045
303	0.022	1.34954	0.001
303	0.05	1.3694	0.0008
303	0.1	1.39291	0.00064
303	0.2	1.42304	0.00058
303	0.3	1.43715	0.00062
303	0.4	1.44605	0.00061
303	0.5	1.45147	0.00063
303	0.6	1.45435	0.00064
303	0.7	1.4568	0.00066
303	0.8	1.4586	0.00065
303	0.9	1.46016	0.00065
303	1	1.45791	0.00075
313	0	1.33061	0.00046
313	0.022	1.3488	0.00098
313	0.05	1.36692	0.0008
313	0.1	1.39022	0.00065
313	0.2	1.41887	0.0006
313	0.3	1.4331	0.00063
313	0.4	1.4418	0.00064
313	0.5	1.44694	0.00066
313	0.6	1.45035	0.00065
313	0.7	1.4527	0.00066
313	0.8	1.45496	0.00066
313	0.9	1.45641	0.00067
313	1	1.45415	0.00064
323	0	1.32902	0.00046
323	0.022	1.34707	0.00101
323	0.05	1.36431	0.00087
323	0.1	1.38757	0.00087
323	0.2	1.41711	0.00092
323	0.3	1.42913	0.0007
323	0.4	1.43762	0.00072
323	0.5	1.44273	0.00068
323	0.6	1.44622	0.00067
323	0.7	1.44864	0.00066
323	0.8	1.45075	0.00069
323	0.9	1.45217	0.00073
323	1	1.45147	0.00062

System: 1-ethyl-2-pyrrolidinone + water; phases: Liquid
Fixed: Pressure, kPa = 101
Property: Speed of sound, m/s (Liquid); method: Cylindrical cavity resonance method
Temperature, K	Mole fraction of 1-ethyl-2-pyrrolidinone	Speed of sound, m/s	uncertainty
293	0	1482.72	1.19
293	0.022	1574.75	4.21
293	0.05	1651.86	2.38
293	0.1	1711.89	1.34
293	0.2	1712.15	1.35
293	0.3	1677.6	1.53
293	0.4	1640.39	1.63
293	0.5	1610.72	1.69
293	0.6	1583.14	1.78
293	0.7	1562.07	1.85
293	0.8	1541.71	1.95
293	0.9	1526.12	2.03
293	1	1511.62	2.12
298	0	1496.94	1.19
298	0.022	1579.97	3.78
298	0.05	1648.9	2.09
298	0.1	1699.44	1.29
298	0.2	1694.15	1.4
298	0.3	1658.56	1.54
298	0.4	1621.15	1.62
298	0.5	1591.48	1.69
298	0.6	1563.96	1.77
298	0.7	1542.94	1.85
298	0.8	1522.58	1.94
298	0.9	1507.05	2.03
298	1	1492.47	2.12
303	0	1509.36	1.18
303	0.022	1583.92	3.42
303	0.05	1645.06	1.89
303	0.1	1686.65	1.27
303	0.2	1675.85	1.41
303	0.3	1639.26	1.54
303	0.4	1601.66	1.62
303	0.5	1572.12	1.69
303	0.6	1544.64	1.77
303	0.7	1523.64	1.85
303	0.8	1503.38	1.94
303	0.9	1487.86	2.03
303	1	1473.32	2.12
313	0	1529.06	1.17
313	0.022	1588.33	2.76
313	0.05	1634.83	1.57
313	0.1	1660.41	1.27
313	0.2	1639.14	1.43
313	0.3	1600.65	1.54
313	0.4	1562.77	1.62
313	0.5	1533.29	1.69
313	0.6	1505.96	1.77
313	0.7	1485.26	1.85
313	0.8	1465.2	1.94
313	0.9	1449.87	2.03
313	1	1435.35	2.12
323	0	1542.73	1.16
323	0.022	1588.35	2.23
323	0.05	1622.28	1.38
323	0.1	1633.15	1.32
323	0.2	1602.06	1.46
323	0.3	1561.88	1.55
323	0.4	1523.7	1.61
323	0.5	1494.43	1.69
323	0.6	1467.52	1.76
323	0.7	1447.09	1.85
323	0.8	1427.34	1.94
323	0.9	1412.23	2.03
323	1	1397.96	2.12

System: 1-ethyl-2-pyrrolidinone + water; phases: Liquid
Fixed: Pressure, kPa = 101
Property: Mass density, kg/m3 (Liquid); method: VIBTUB:UFactor:32
Temperature, K	Mole fraction of 1-ethyl-2-pyrrolidinone	Mass density, kg/m3	uncertainty
293	0	998.26	1.21
293	0.022	1003.49	1.28
293	0.05	1010.45	1.37
293	0.1	1020.31	1.5
293	0.2	1026.26	1.62
293	0.3	1023.9	1.64
293	0.4	1022.18	1.68
293	0.5	1019.16	1.7
293	0.6	1014.04	1.7
293	0.7	1010.43	1.71
293	0.8	1006.66	1.74
293	0.9	1003.19	1.76
293	1	1000.55	1.81
298	0	997.1	1.22
298	0.022	1001.76	1.25
298	0.05	1007.34	1.33
298	0.1	1016.76	1.45
298	0.2	1021.82	1.56
298	0.3	1019.33	1.58
298	0.4	1016.58	1.6
298	0.5	1014.6	1.64
298	0.6	1009.45	1.63
298	0.7	1005.98	1.65
298	0.8	1002.26	1.67
298	0.9	998.84	1.73
298	1	996.24	1.84
303	0	995.7	1.24
303	0.022	999.83	1.21
303	0.05	1002.82	1.26
303	0.1	1013.12	1.41
303	0.2	1017.34	1.5
303	0.3	1014.71	1.52
303	0.4	1012.16	1.54
303	0.5	1010	1.58
303	0.6	1004.1	1.56
303	0.7	1001.5	1.59
303	0.8	997.83	1.67
303	0.9	994.48	1.78
303	1	991.93	1.89
313	0	992.26	1.28
313	0.022	995.35	1.26
313	0.05	997.46	1.25
313	0.1	1005.63	1.31
313	0.2	1008.28	1.39
313	0.3	1005.38	1.4
313	0.4	1001.82	1.41
313	0.5	1000.71	1.45
313	0.6	995	1.56
313	0.7	992.48	1.66
313	0.8	988.94	1.77
313	0.9	985.71	1.88
313	1	983.26	1.98
323	0	988.08	1.33
323	0.022	989.91	1.32
323	0.05	991.01	1.32
323	0.1	997.84	1.26
323	0.2	999.06	1.29
323	0.3	995.92	1.38
323	0.4	992.73	1.47
323	0.5	991.3	1.54
323	0.6	985.81	1.67
323	0.7	983.37	1.76
323	0.8	979.96	1.87
323	0.9	976.89	1.97
323	1	974.56	2.08
