Measured thermophysical data. Thermodynamics of Mixtures Containing a Strongly Polar Compound. 9. Liquid-Liquid Equilibria for epsilon-Caprolactam + Selected Alkanes
Source: J. Chem. Eng. Data, 2010, 10.1021/je900785z
Compound 1: heptane, C7H16, InChI=1S/C7H16/c1-3-5-7-6-4-2/h3-7H2,1-2H3, purity 99.5%
Compound 2: octane, C8H18, InChI=1S/C8H18/c1-3-5-7-8-6-4-2/h3-8H2,1-2H3, purity 99%
Compound 3: nonane, C9H20, InChI=1S/C9H20/c1-3-5-7-9-8-6-4-2/h3-9H2,1-2H3, purity 99%
Compound 4: decane, C10H22, InChI=1S/C10H22/c1-3-5-7-9-10-8-6-4-2/h3-10H2,1-2H3, purity 99%
Compound 5: 2,2,4-trimethylpentane, C8H18, InChI=1S/C8H18/c1-7(2)6-8(3,4)5/h7H,6H2,1-5H3, purity 99.5%
Compound 6: 1-aza-2-cycloheptanone, C6H11NO, InChI=1S/C6H11NO/c8-6-4-2-1-3-5-7-6/h1-5H2,(H,7,8), purity 99%

System: heptane; phases: Liquid
Property: Mass density, kg/m3 (Liquid); method: VIBTUB:UFactor:4
Temperature, K	Pressure, kPa	Mass density, kg/m3	uncertainty
298.15	101.325	679.627	0.853

System: octane; phases: Liquid
Property: Mass density, kg/m3 (Liquid); method: VIBTUB:UFactor:6
Temperature, K	Pressure, kPa	Mass density, kg/m3	uncertainty
298.15	101.325	698.636	1.298

System: nonane; phases: Liquid
Property: Mass density, kg/m3 (Liquid); method: VIBTUB:UFactor:6
Temperature, K	Pressure, kPa	Mass density, kg/m3	uncertainty
298.15	101.325	714.064	1.256

System: decane; phases: Liquid
Property: Mass density, kg/m3 (Liquid); method: VIBTUB:UFactor:6
Temperature, K	Pressure, kPa	Mass density, kg/m3	uncertainty
298.15	101.325	726.357	1.223

System: 2,2,4-trimethylpentane; phases: Liquid
Property: Mass density, kg/m3 (Liquid); method: VIBTUB:UFactor:4
Temperature, K	Pressure, kPa	Mass density, kg/m3	uncertainty
298.15	101.325	687.757	0.837

System: 1-aza-2-cycloheptanone; phases: Crystal, Liquid, Air at 1 atmosphere
Property: Normal melting temperature, K (Crystal); method: VISOBS
Normal melting temperature, K	uncertainty
342.21	0.39

System: 1-aza-2-cycloheptanone + heptane; phases: Liquid mixture 1, Liquid mixture 2
Fixed: Pressure, kPa = 101
Property: Liquid-liquid equilibrium temperature, K (Liquid mixture 1); method: Laser Detection
Mole fraction of 1-aza-2-cycloheptanone	Liquid-liquid equilibrium temperature, K	uncertainty
0.2691	346.47	0.12
0.2952	348.31	0.12
0.3188	349.57	0.11
0.3459	350.69	0.11
0.369	351.29	0.1
0.3968	351.72	0.1
0.4207	352	0.1
0.4452	352.14	0.1
0.47	352.21	0.1
0.4977	352.18	0.1
0.4978	352.11	0.11
0.4991	352.17	0.11
0.5217	352.08	0.1
0.5464	351.92	0.1
0.5709	351.62	0.1
0.5962	351.1	0.1
0.6204	350.34	0.11
0.631	349.83	0.11
0.6488	348.84	0.12
0.6702	347.44	0.13
0.6955	344.8	0.14

System: 1-aza-2-cycloheptanone + octane; phases: Liquid mixture 1, Liquid mixture 2
Fixed: Pressure, kPa = 101
Property: Liquid-liquid equilibrium temperature, K (Liquid mixture 1); method: Laser Detection
Mole fraction of 1-aza-2-cycloheptanone	Liquid-liquid equilibrium temperature, K	uncertainty
0.3058	349.77	0.11
0.326	350.88	0.11
0.3479	351.98	0.11
0.3614	352.57	0.11
0.3777	353.17	0.1
0.4007	353.72	0.1
0.4139	354.02	0.1
0.4264	354.3	0.1
0.4457	354.36	0.1
0.4618	354.55	0.1
0.4772	354.58	0.1
0.4788	354.56	0.1
0.4994	354.57	0.1
0.524	354.63	0.1
0.5377	354.58	0.1
0.5552	354.55	0.1
0.5751	354.48	0.1
0.5986	354.29	0.1
0.6303	353.69	0.1
0.6503	353.18	0.11
0.6666	352.48	0.11
0.6766	352.06	0.11
0.693	351.01	0.12

System: 1-aza-2-cycloheptanone + nonane; phases: Liquid mixture 1, Liquid mixture 2
Fixed: Pressure, kPa = 101
Property: Liquid-liquid equilibrium temperature, K (Liquid mixture 1); method: Laser Detection
Mole fraction of 1-aza-2-cycloheptanone	Liquid-liquid equilibrium temperature, K	uncertainty
0.3442	354.21	0.11
0.3732	355.78	0.11
0.3957	356.75	0.11
0.4188	357.45	0.1
0.4477	358.01	0.1
0.4699	358.31	0.1
0.5007	358.49	0.1
0.5059	358.53	0.1
0.5209	358.6	0.1
0.5449	358.62	0.1
0.5488	358.7	0.1
0.5715	358.6	0.1
0.5865	358.56	0.1
0.5963	358.57	0.1
0.6221	358.45	0.1
0.6455	358.14	0.1
0.6551	357.99	0.1
0.6725	357.62	0.1
0.682	357.3	0.11
0.7062	356.2	0.11
0.7207	355.41	0.11

System: 1-aza-2-cycloheptanone + decane; phases: Liquid mixture 1, Liquid mixture 2
Fixed: Pressure, kPa = 101
Property: Liquid-liquid equilibrium temperature, K (Liquid mixture 1); method: Laser Detection
Mole fraction of 1-aza-2-cycloheptanone	Liquid-liquid equilibrium temperature, K	uncertainty
0.3936	360.15	0.11
0.4175	361.23	0.11
0.443	362.01	0.1
0.4707	362.65	0.1
0.4769	362.78	0.1
0.4945	363.09	0.1
0.4969	363.06	0.1
0.498	363.09	0.1
0.5159	363.24	0.1
0.5449	363.4	0.1
0.5565	363.41	0.1
0.5756	363.43	0.1
0.5957	363.45	0.1
0.6042	363.45	0.1
0.616	363.39	0.1
0.6459	363.32	0.1
0.6711	363.06	0.1
0.6971	362.59	0.1
0.7207	361.65	0.11
0.7421	360.76	0.11

System: 1-aza-2-cycloheptanone + 2,2,4-trimethylpentane; phases: Liquid mixture 1, Liquid mixture 2
Fixed: Pressure, kPa = 101
Property: Liquid-liquid equilibrium temperature, K (Liquid mixture 1); method: Laser Detection
Mole fraction of 1-aza-2-cycloheptanone	Liquid-liquid equilibrium temperature, K	uncertainty
0.3206	358.94	0.11
0.3476	360.11	0.11
0.3681	360.84	0.1
0.3947	361.59	0.1
0.3971	361.6	0.1
0.4198	361.94	0.1
0.4486	362.19	0.1
0.4733	362.3	0.1
0.4766	362.34	0.1
0.4865	362.39	0.11
0.4879	362.34	0.11
0.4999	362.34	0.1
0.5052	362.35	0.1
0.5213	362.35	0.1
0.5315	362.31	0.1
0.546	362.27	0.1
0.5765	362.06	0.1
0.5951	361.8	0.1
0.6222	361.21	0.1
0.6472	360.26	0.11
0.6717	358.93	0.11
