Measured thermophysical data. Solubilities of 3-Pentadecylphenol in Ethanol, 1-Butanol, Toluene, Acetone, Tetrachloromethane, and Ethyl Acetate
Source: J. Chem. Eng. Data, 2010, 10.1021/je900346t
Compound 1: 3-pentadecylphenol, C21H36O, InChI=1S/C21H36O/c1-2-3-4-5-6-7-8-9-10-11-12-13-14-16-20-17-15-18-21(22)19-20/h15,17-19,22H,2-14,16H2,1H3
Compound 2: ethanol, C2H6O, InChI=1S/C2H6O/c1-2-3/h3H,2H2,1H3
Compound 3: butan-1-ol, C4H10O, InChI=1S/C4H10O/c1-2-3-4-5/h5H,2-4H2,1H3
Compound 4: toluene, C7H8, InChI=1S/C7H8/c1-7-5-3-2-4-6-7/h2-6H,1H3
Compound 5: acetone, C3H6O, InChI=1S/C3H6O/c1-3(2)4/h1-2H3
Compound 6: tetrachloromethane, CCl4, InChI=1S/CCl4/c2-1(3,4)5
Compound 7: ethyl acetate, C4H8O2, InChI=1S/C4H8O2/c1-3-6-4(2)5/h3H2,1-2H3

System: 3-pentadecylphenol; phases: Crystal, Liquid, Air at 1 atmosphere
Property: Molar enthalpy of transition or fusion, kJ/mol (Crystal); method: DSC
Molar enthalpy of transition or fusion, kJ/mol	uncertainty
38.092	0.816

System: 3-pentadecylphenol; phases: Crystal, Liquid, Air at 1 atmosphere
Property: Normal melting temperature, K (Crystal); method: DTA
Normal melting temperature, K	uncertainty
322.35	1.06

System: ethanol + 3-pentadecylphenol; phases: Liquid, Crystal
Fixed: Pressure, kPa = 101
Property: Solid-liquid equilibrium temperature, K (Liquid); method: laser monitoring
Mole fraction of 3-pentadecylphenol	Solid-liquid equilibrium temperature, K	uncertainty
0.1584	291.47	0.6
0.1812	293.83	0.6
0.1991	295.56	0.6
0.2275	297.55	0.6
0.2519	299.15	0.6
0.2778	301.28	0.6
0.3036	302.96	0.6
0.3316	304.83	0.6
0.3597	306.96	0.6
0.3983	309.16	0.6
0.435	311.13	0.6
0.4634	312.87	0.6

System: butan-1-ol + 3-pentadecylphenol; phases: Liquid, Crystal
Fixed: Pressure, kPa = 101
Property: Solid-liquid equilibrium temperature, K (Liquid); method: laser monitoring
Mole fraction of 3-pentadecylphenol	Solid-liquid equilibrium temperature, K	uncertainty
0.2393	293.55	0.6
0.2629	295.36	0.6
0.2822	297.33	0.6
0.302	299.16	0.6
0.3206	300.86	0.6
0.3489	302.94	0.6
0.3818	304.95	0.6
0.4219	306.72	0.6
0.476	308.18	0.6
0.5274	309.86	0.6
0.5764	311.04	0.6
0.6192	312.36	0.6

System: toluene + 3-pentadecylphenol; phases: Liquid, Crystal
Fixed: Pressure, kPa = 101
Property: Solid-liquid equilibrium temperature, K (Liquid); method: laser monitoring
Mole fraction of 3-pentadecylphenol	Solid-liquid equilibrium temperature, K	uncertainty
0.1217	295.25	0.6
0.14	297.45	0.6
0.1599	299.2	0.6
0.1865	301.23	0.6
0.2285	303.66	0.6
0.2617	305.47	0.6
0.3017	307.55	0.6
0.3444	309.86	0.6
0.3826	311.75	0.6
0.4378	313.86	0.6
0.4899	315.75	0.6
0.5434	317.38	0.6

System: acetone + 3-pentadecylphenol; phases: Liquid, Crystal
Fixed: Pressure, kPa = 101
Property: Solid-liquid equilibrium temperature, K (Liquid); method: laser monitoring
Mole fraction of 3-pentadecylphenol	Solid-liquid equilibrium temperature, K	uncertainty
0.253	289.08	0.8
0.272	291.32	0.8
0.3092	293.55	0.8
0.3297	295.54	0.8
0.3513	297.54	0.8
0.3733	299.33	0.8
0.4125	301.63	0.8
0.436	303.86	0.8
0.4779	305.65	0.8
0.512	307.87	0.8
0.5542	309.65	0.8
0.5956	311.77	0.8

System: tetrachloromethane + 3-pentadecylphenol; phases: Liquid, Crystal
Fixed: Pressure, kPa = 101
Property: Solid-liquid equilibrium temperature, K (Liquid); method: laser monitoring
Mole fraction of 3-pentadecylphenol	Solid-liquid equilibrium temperature, K	uncertainty
0.0912	288.46	0.6
0.1014	290.45	0.6
0.1236	292.51	0.6
0.1497	294.42	0.6
0.1799	296.55	0.6
0.2104	298.36	0.6
0.2423	300.24	0.6
0.2782	302.2	0.6
0.312	304.07	0.6
0.3565	306.05	0.6
0.4023	308.17	0.6
0.4608	310.13	0.6
0.556	312.23	0.6

System: ethyl acetate + 3-pentadecylphenol; phases: Liquid, Crystal
Fixed: Pressure, kPa = 101
Property: Solid-liquid equilibrium temperature, K (Liquid); method: laser monitoring
Mole fraction of 3-pentadecylphenol	Solid-liquid equilibrium temperature, K	uncertainty
0.2359	290.83	1
0.2994	295.86	1
0.3229	297.3	1
0.3518	300.12	1
0.3801	302.14	1
0.4131	303.9	1
0.4474	306.25	1
0.4899	308.58	1
0.5407	310.96	1
0.5902	313.35	1
