Measured thermophysical data. Dilute Aqueous Solutions with Formate Ions: A Conductometric Study
Source: J. Chem. Eng. Data, 2010, 10.1021/je900903w
Compound 1: formic acid, CH2O2, InChI=1S/CH2O2/c2-1-3/h1H,(H,2,3)
Compound 2: sodium methanoate, CHNaO2, InChI=1S/CH2O2.Na/c2-1-3;/h1H,(H,2,3);/q;+1/p-1
Compound 3: potassium formate, CHKO2, InChI=1S/CH2O2.K/c2-1-3;/h1H,(H,2,3);/q;+1/p-1
Compound 4: water, H2O, InChI=1S/H2O/h1H2, purity 99.9%

System: formic acid + water; phases: Liquid
Fixed: Temperature, K = 298.15
Fixed: Pressure, kPa = 101
Property: Mass density, kg/m3 (Liquid); method: VIBTUB:UFactor:12
Molality, mol/kg of formic acid	Mass density, kg/m3	uncertainty
0.0048979	997.113	0.503
0.12907	998.53	0.495

System: formic acid + water; phases: Liquid
Fixed: Pressure, kPa = 101
Property: Molar conductivity, S*m2/mol (Liquid); method: Alternating current cell with electrodes
Molality, mol/kg of formic acid	Temperature, K	Molar conductivity, S*m2/mol	uncertainty
0.00027088	278.15	0.014898	0.000246
0.00027088	283.15	0.016478	0.000226
0.00027088	288.15	0.0180092	0.000204
0.00027088	293.15	0.019468	0.00018
0.00027088	298.15	0.020843	0.000174
0.00027088	303.15	0.022137	0.000202
0.00027088	308.15	0.023348	0.000268
0.00027088	313.15	0.024247	0.0004
0.00056568	278.15	0.011319	0.000246
0.00056568	283.15	0.01254	0.000226
0.00056568	288.15	0.013763	0.000204
0.00056568	293.15	0.014945	0.00018
0.00056568	298.15	0.016078	0.000174
0.00056568	303.15	0.017149	0.000202
0.00056568	308.15	0.018006	0.000268
0.00056568	313.15	0.018896	0.0004
0.00082981	278.15	0.009705	0.000246
0.00082981	283.15	0.010802	0.000226
0.00082981	288.15	0.011876	0.000204
0.00082981	293.15	0.012915	0.00018
0.00082981	298.15	0.013909	0.000174
0.00082981	303.15	0.014852	0.000202
0.00082981	308.15	0.015728	0.000268
0.00082981	313.15	0.016404	0.0004
0.001094	278.15	0.008674	0.000246
0.001094	283.15	0.009648	0.000226
0.001094	288.15	0.010612	0.000204
0.001094	293.15	0.01154	0.00018
0.001094	298.15	0.012433	0.000174
0.001094	303.15	0.013279	0.000202
0.001094	308.15	0.014071	0.000268
0.001094	313.15	0.014656	0.0004
0.0014421	278.15	0.007735	0.000246
0.0014421	283.15	0.008618	0.000226
0.0014421	288.15	0.009484	0.000204
0.0014421	293.15	0.010323	0.00018
0.0014421	298.15	0.011129	0.000174
0.0014421	303.15	0.011894	0.000202
0.0014421	308.15	0.012595	0.000268
0.0014421	313.15	0.013217	0.0004
0.0018252	278.15	0.006897	0.000246
0.0018252	283.15	0.007683	0.000226
0.0018252	288.15	0.008454	0.000204
0.0018252	293.15	0.009199	0.00018
0.0018252	298.15	0.009914	0.000174
0.0018252	303.15	0.010597	0.000202
0.0018252	308.15	0.011234	0.000268
0.0018252	313.15	0.011716	0.0004
0.002222	278.15	0.006365	0.000246
0.002222	283.15	0.007094	0.000226
0.002222	288.15	0.00781	0.000204
0.002222	293.15	0.008503	0.00018
0.002222	298.15	0.009171	0.000174
0.002222	303.15	0.009807	0.000202
0.002222	308.15	0.010404	0.000268
0.002222	313.15	0.010933	0.0004
0.0026483	278.15	0.005934	0.000246
0.0026483	283.15	0.006608	0.000226
0.0026483	288.15	0.007268	0.000204
0.0026483	293.15	0.007902	0.00018
0.0026483	298.15	0.00851	0.000174
0.0026483	303.15	0.009072	0.000202
0.0026483	308.15	0.009589	0.000268
0.0026483	313.15	0.010095	0.0004
0.0032077	278.15	0.005477	0.000246
0.0032077	283.15	0.006108	0.000226
0.0032077	288.15	0.006728	0.000204
0.0032077	293.15	0.007328	0.00018
0.0032077	298.15	0.007906	0.000174
0.0032077	303.15	0.00845	0.000202
0.0032077	308.15	0.008936	0.000268
0.0032077	313.15	0.009391	0.0004
0.0039574	278.15	0.005045	0.000246
0.0039574	283.15	0.005627	0.000226
0.0039574	288.15	0.006199	0.000204
0.0039574	293.15	0.006753	0.00018
0.0039574	298.15	0.007287	0.000174
0.0039574	303.15	0.007788	0.000202
0.0039574	308.15	0.008242	0.000268
0.0039574	313.15	0.00866	0.0004
0.0048979	278.15	0.004633	0.000246
0.0048979	283.15	0.005168	0.000226
0.0048979	288.15	0.005695	0.000204
0.0048979	293.15	0.006206	0.00018
0.0048979	298.15	0.006699	0.000174
0.0048979	303.15	0.007167	0.000202
0.0048979	308.15	0.007598	0.000268
0.0048979	313.15	0.007988	0.0004

System: sodium methanoate + water; phases: Liquid
Fixed: Temperature, K = 298.15
Fixed: Pressure, kPa = 101
Property: Mass density, kg/m3 (Liquid); method: VIBTUB:UFactor:6
Molality, mol/kg of sodium methanoate	Mass density, kg/m3	uncertainty
0.0055911	997.307	0.26
0.12223	1002.231	0.259

System: sodium methanoate + water; phases: Liquid
Fixed: Pressure, kPa = 101
Property: Molar conductivity, S*m2/mol (Liquid); method: Alternating current cell with electrodes
Molality, mol/kg of sodium methanoate	Temperature, K	Molar conductivity, S*m2/mol	uncertainty
0.00028733	278.15	0.00626	2.5e-05
0.00028733	283.15	0.007191	2.9e-05
0.00028733	288.15	0.008167	3.3e-05
0.00028733	293.15	0.009185	3.7e-05
0.00028733	298.15	0.010247	4.1e-05
0.00028733	303.15	0.011343	4.5e-05
0.00028733	308.15	0.012471	5e-05
0.00028733	313.15	0.013576	5.4e-05
0.00038414	278.15	0.006215	2.5e-05
0.00038414	283.15	0.007142	2.9e-05
0.00038414	288.15	0.00813	3.3e-05
0.00038414	293.15	0.009157	3.7e-05
0.00038414	298.15	0.010224	4.1e-05
0.00038414	303.15	0.011331	4.5e-05
0.00038414	308.15	0.012458	5e-05
0.00038414	313.15	0.013557	5.4e-05
0.00052467	278.15	0.006187	2.5e-05
0.00052467	283.15	0.007111	2.8e-05
0.00052467	288.15	0.008093	3.2e-05
0.00052467	293.15	0.009118	3.6e-05
0.00052467	298.15	0.010182	4.1e-05
0.00052467	303.15	0.011284	4.5e-05
0.00052467	308.15	0.012427	5e-05
0.00052467	313.15	0.013508	5.4e-05
0.00056819	278.15	0.006178	2.5e-05
0.00056819	283.15	0.007106	2.8e-05
0.00056819	288.15	0.008083	3.2e-05
0.00056819	293.15	0.009103	3.6e-05
0.00056819	298.15	0.010166	4.1e-05
0.00056819	303.15	0.011258	4.5e-05
0.00056819	308.15	0.012379	5e-05
0.00056819	313.15	0.013481	5.4e-05
0.00066082	278.15	0.006158	2.5e-05
0.00066082	283.15	0.007081	2.8e-05
0.00066082	288.15	0.008058	3.2e-05
0.00066082	293.15	0.009078	3.6e-05
0.00066082	298.15	0.010139	4.1e-05
0.00066082	303.15	0.01124	4.5e-05
0.00066082	308.15	0.012373	4.9e-05
0.00066082	313.15	0.013467	5.4e-05
0.00082009	278.15	0.006134	2.5e-05
0.00082009	283.15	0.007053	2.8e-05
0.00082009	288.15	0.008027	3.2e-05
0.00082009	293.15	0.009042	3.6e-05
0.00082009	298.15	0.010098	4e-05
0.00082009	303.15	0.011195	4.5e-05
0.00082009	308.15	0.012337	4.9e-05
0.00082009	313.15	0.013453	5.4e-05
0.00086292	278.15	0.006107	2.4e-05
0.00086292	283.15	0.007049	2.8e-05
0.00086292	288.15	0.008019	3.2e-05
0.00086292	293.15	0.009031	3.6e-05
0.00086292	298.15	0.010088	4e-05
0.00086292	303.15	0.011183	4.5e-05
0.00086292	308.15	0.012306	4.9e-05
0.00086292	313.15	0.013442	5.4e-05
0.0009581	278.15	0.006095	2.4e-05
0.0009581	283.15	0.007021	2.8e-05
0.0009581	288.15	0.007988	3.2e-05
0.0009581	293.15	0.009	3.6e-05
0.0009581	298.15	0.010051	4e-05
0.0009581	303.15	0.011145	4.5e-05
0.0009581	308.15	0.012278	4.9e-05
0.0009581	313.15	0.013412	5.4e-05
0.0011194	278.15	0.006088	2.4e-05
0.0011194	283.15	0.007002	2.8e-05
0.0011194	288.15	0.007965	3.2e-05
0.0011194	293.15	0.008975	3.6e-05
0.0011194	298.15	0.010025	4e-05
0.0011194	303.15	0.011115	4.4e-05
0.0011194	308.15	0.012244	4.9e-05
0.0011194	313.15	0.013401	5.4e-05
0.0011878	278.15	0.006075	2.4e-05
0.0011878	283.15	0.007	2.8e-05
0.0011878	288.15	0.007964	3.2e-05
0.0011878	293.15	0.008973	3.6e-05
0.0011878	298.15	0.010024	4e-05
0.0011878	303.15	0.011113	4.4e-05
0.0011878	308.15	0.012236	4.9e-05
0.0011878	313.15	0.01338	5.4e-05
0.0012569	278.15	0.006054	2.4e-05
0.0012569	283.15	0.006986	2.8e-05
0.0012569	288.15	0.007948	3.2e-05
0.0012569	293.15	0.008957	3.6e-05
0.0012569	298.15	0.010006	4e-05
0.0012569	303.15	0.011096	4.4e-05
0.0012569	308.15	0.012228	4.9e-05
0.0012569	313.15	0.013365	5.3e-05
0.0015483	278.15	0.006043	2.4e-05
0.0015483	283.15	0.006974	2.8e-05
0.0015483	288.15	0.007934	3.2e-05
0.0015483	293.15	0.008938	3.6e-05
0.0015483	298.15	0.009988	4e-05
0.0015483	303.15	0.011073	4.4e-05
0.0015483	308.15	0.012187	4.9e-05
0.0015483	313.15	0.013319	5.3e-05
0.0019212	278.15	0.006045	2.4e-05
0.0019212	283.15	0.006953	2.8e-05
0.0019212	288.15	0.007912	3.2e-05
0.0019212	293.15	0.008914	3.6e-05
0.0019212	298.15	0.009962	4e-05
0.0019212	303.15	0.01105	4.4e-05
0.0019212	308.15	0.012159	4.9e-05
0.0019212	313.15	0.013266	5.3e-05
0.0023913	278.15	0.006033	2.4e-05
0.0023913	283.15	0.006939	2.8e-05
0.0023913	288.15	0.007896	3.2e-05
0.0023913	293.15	0.008898	3.6e-05
0.0023913	298.15	0.009943	4e-05
0.0023913	303.15	0.011026	4.4e-05
0.0023913	308.15	0.012135	4.9e-05
0.0023913	313.15	0.013255	5.3e-05
0.003024	278.15	0.006025	2.4e-05
0.003024	283.15	0.006923	2.8e-05
0.003024	288.15	0.007876	3.2e-05
0.003024	293.15	0.008874	3.6e-05
0.003024	298.15	0.009917	4e-05
0.003024	303.15	0.010996	4.4e-05
0.003024	308.15	0.012098	4.8e-05
0.003024	313.15	0.013203	5.3e-05
0.0037441	278.15	0.006001	2.4e-05
0.0037441	283.15	0.006901	2.8e-05
0.0037441	288.15	0.007852	3.1e-05
0.0037441	293.15	0.008827	3.5e-05
0.0037441	298.15	0.009883	4e-05
0.0037441	303.15	0.010958	4.4e-05
0.0037441	308.15	0.012054	4.8e-05
0.0037441	313.15	0.01315	5.3e-05
0.0045668	278.15	0.00598	2.4e-05
0.0045668	283.15	0.006877	2.8e-05
0.0045668	288.15	0.007823	3.1e-05
0.0045668	293.15	0.008811	3.5e-05
0.0045668	298.15	0.009845	3.9e-05
0.0045668	303.15	0.010916	4.4e-05
0.0045668	308.15	0.01202	4.8e-05
0.0045668	313.15	0.013132	5.3e-05
0.0055911	278.15	0.005949	2.4e-05
0.0055911	283.15	0.006841	2.7e-05
0.0055911	288.15	0.007783	3.1e-05
0.0055911	293.15	0.008767	3.5e-05
0.0055911	298.15	0.009794	3.9e-05
0.0055911	303.15	0.010861	4.3e-05
0.0055911	308.15	0.01196	4.8e-05
0.0055911	313.15	0.013064	5.2e-05

System: potassium formate + water; phases: Liquid
Fixed: Temperature, K = 298.15
Fixed: Pressure, kPa = 101
Property: Mass density, kg/m3 (Liquid); method: VIBTUB:UFactor:6
Molality, mol/kg of potassium formate	Mass density, kg/m3	uncertainty
0.0058309	997.346	0.261
0.12191	1002.906	0.262

System: potassium formate + water; phases: Liquid
Fixed: Pressure, kPa = 101
Property: Molar conductivity, S*m2/mol (Liquid); method: Alternating current cell with electrodes
Molality, mol/kg of potassium formate	Temperature, K	Molar conductivity, S*m2/mol	uncertainty
0.00034976	278.15	0.007906	3.2e-05
0.00034976	283.15	0.009019	3.6e-05
0.00034976	288.15	0.01018	4.1e-05
0.00034976	293.15	0.011376	4.6e-05
0.00034976	298.15	0.012603	5e-05
0.00034976	303.15	0.013866	5.5e-05
0.00034976	308.15	0.015163	6.1e-05
0.00034976	313.15	0.016492	6.6e-05
0.00065989	278.15	0.007826	3.1e-05
0.00065989	283.15	0.008931	3.6e-05
0.00065989	288.15	0.010083	4e-05
0.00065989	293.15	0.011275	4.5e-05
0.00065989	298.15	0.012514	5e-05
0.00065989	303.15	0.013769	5.5e-05
0.00065989	308.15	0.015023	6e-05
0.00065989	313.15	0.016317	6.5e-05
0.0010258	278.15	0.007789	3.1e-05
0.0010258	283.15	0.008888	3.6e-05
0.0010258	288.15	0.010032	4e-05
0.0010258	293.15	0.011213	4.5e-05
0.0010258	298.15	0.012446	5e-05
0.0010258	303.15	0.013709	5.5e-05
0.0010258	308.15	0.015	6e-05
0.0010258	313.15	0.01628	6.5e-05
0.001412	278.15	0.007752	3.1e-05
0.001412	283.15	0.008844	3.5e-05
0.001412	288.15	0.009984	4e-05
0.001412	293.15	0.01117	4.5e-05
0.001412	298.15	0.012392	5e-05
0.001412	303.15	0.013651	5.5e-05
0.001412	308.15	0.014944	6e-05
0.001412	313.15	0.016223	6.5e-05
0.001766	278.15	0.007701	3.1e-05
0.001766	283.15	0.008787	3.5e-05
0.001766	288.15	0.009919	4e-05
0.001766	293.15	0.011097	4.4e-05
0.001766	298.15	0.012312	4.9e-05
0.001766	303.15	0.013563	5.4e-05
0.001766	308.15	0.014853	5.9e-05
0.001766	313.15	0.016142	6.5e-05
0.0022175	278.15	0.007674	3.1e-05
0.0022175	283.15	0.008755	3.5e-05
0.0022175	288.15	0.009886	4e-05
0.0022175	293.15	0.011055	4.4e-05
0.0022175	298.15	0.012265	4.9e-05
0.0022175	303.15	0.013515	5.4e-05
0.0022175	308.15	0.0148	5.9e-05
0.0022175	313.15	0.016082	6.4e-05
0.0028227	278.15	0.007653	3.1e-05
0.0028227	283.15	0.008729	3.5e-05
0.0028227	288.15	0.009852	3.9e-05
0.0028227	293.15	0.011023	4.4e-05
0.0028227	298.15	0.012231	4.9e-05
0.0028227	303.15	0.01348	5.4e-05
0.0028227	308.15	0.014764	5.9e-05
0.0028227	313.15	0.016056	6.4e-05
0.0034318	278.15	0.007632	3.1e-05
0.0034318	283.15	0.008706	3.5e-05
0.0034318	288.15	0.009826	3.9e-05
0.0034318	293.15	0.010995	4.4e-05
0.0034318	298.15	0.012198	4.9e-05
0.0034318	303.15	0.013441	5.4e-05
0.0034318	308.15	0.014722	5.9e-05
0.0034318	313.15	0.01601	6.4e-05
0.0040602	278.15	0.007611	3e-05
0.0040602	283.15	0.008682	3.5e-05
0.0040602	288.15	0.0098	3.9e-05
0.0040602	293.15	0.010965	4.4e-05
0.0040602	298.15	0.012167	4.9e-05
0.0040602	303.15	0.013406	5.4e-05
0.0040602	308.15	0.014682	5.9e-05
0.0040602	313.15	0.015962	6.4e-05
0.0048154	278.15	0.007596	3e-05
0.0048154	283.15	0.008665	3.5e-05
0.0048154	288.15	0.00978	3.9e-05
0.0048154	293.15	0.010942	4.4e-05
0.0048154	298.15	0.012143	4.9e-05
0.0048154	303.15	0.013378	5.4e-05
0.0048154	308.15	0.01465	5.9e-05
0.0048154	313.15	0.015933	6.4e-05
0.0058309	278.15	0.007573	3e-05
0.0058309	283.15	0.008637	3.5e-05
0.0058309	288.15	0.009748	3.9e-05
0.0058309	293.15	0.010906	4.4e-05
0.0058309	298.15	0.012103	4.8e-05
0.0058309	303.15	0.013332	5.3e-05
0.0058309	308.15	0.014599	5.8e-05
0.0058309	313.15	0.015868	6.3e-05
