Measured thermophysical data. Using 1-Ethyl-3-methylimidazolium Trifluoromethanesulfonate as an Entrainer for the Extractive Distillation of Ethanol + Water Mixtures
Source: J. Chem. Eng. Data, 2010, 10.1021/je900719z
Compound 1: ethanol, C2H6O, InChI=1S/C2H6O/c1-2-3/h3H,2H2,1H3, purity 99.9%
Compound 2: water, H2O, InChI=1S/H2O/h1H2, purity 99.9%
Compound 3: 1-ethyl-3-methylimidazolium trifluoromethanesulfonate, C7H11F3N2O3S, InChI=1S/C6H11N2.CHF3O3S/c1-3-8-5-4-7(2)6-8;2-1(3,4)8(5,6)7/h4-6H,3H2,1-2H3;(H,5,6,7)/q+1;/p-1, purity 98%

System: ethanol; phases: Liquid, Gas
Property: Vapor or sublimation pressure, kPa (Liquid); method: Ebulliometric method (Recirculating still)
Temperature, K	Vapor or sublimation pressure, kPa	uncertainty
325.48	33	0.11
326.03	33.9	0.11
326.48	34.6	0.11
326.93	35.3	0.11
327.33	36	0.11
327.8	36.8	0.11
328.26	37.6	0.11
328.73	38.4	0.11
329.18	39.2	0.11
329.62	40	0.11
330.11	40.9	0.11
330.62	41.9	0.11
331.16	42.9	0.11
331.66	43.9	0.11
332.17	44.9	0.11
332.68	45.9	0.11
333.15	46.9	0.11
333.86	48.4	0.11
334.55	49.9	0.11
335.17	51.3	0.11
335.84	52.8	0.11
336.28	53.85	0.11
336.81	55.13	0.11
337.31	56.32	0.11
337.86	57.69	0.11
338.32	58.87	0.11
338.97	60.49	0.11
339.47	61.82	0.11
339.99	63.19	0.11
340.47	64.47	0.12
340.82	65.48	0.12
341.18	66.45	0.12
341.68	67.91	0.12
342.01	68.92	0.12
342.53	70.35	0.12
343.05	71.88	0.12
343.54	73.35	0.12
343.97	74.68	0.12
344.41	76.08	0.12
344.93	77.68	0.12
345.3	78.95	0.12
345.77	80.44	0.12
346.17	81.82	0.12
346.75	83.74	0.12
347.17	85.17	0.12
347.51	86.38	0.12
347.91	87.78	0.12
348.29	89.17	0.12
348.62	90.34	0.12
349.03	91.82	0.13
349.36	93.08	0.13
349.67	94.24	0.13
350.05	95.68	0.13
350.44	97.16	0.13
350.82	98.63	0.13
351.17	100.02	0.13
351.51	101.38	0.13
351.76	102.37	0.13
352.07	103.64	0.13
352.45	105.17	0.13
352.79	106.59	0.13
353.15	108.08	0.13
353.5	109.58	0.13
353.79	110.8	0.13
354.14	112.36	0.13
354.46	113.75	0.13
354.82	115.35	0.14
355.15	116.81	0.14
355.51	118.44	0.14
355.85	120.01	0.14
356.22	121.68	0.14
356.54	123.23	0.14
356.81	124.46	0.14
357.16	126.16	0.14
357.48	127.68	0.14
357.89	129.67	0.14

System: water; phases: Liquid, Gas
Property: Vapor or sublimation pressure, kPa (Liquid); method: Ebulliometric method (Recirculating still)
Temperature, K	Vapor or sublimation pressure, kPa	uncertainty
333.02	19.55	0.1
333.56	20.05	0.1
334.08	20.55	0.1
334.59	21.05	0.1
335.15	21.6	0.1
335.64	22.1	0.1
336.11	22.6	0.1
336.66	23.15	0.1
337.12	23.65	0.1
337.65	24.22	0.1
338.13	24.75	0.1
338.6	25.3	0.1
339.12	25.9	0.1
339.62	26.45	0.1
340.15	27.1	0.1
340.63	27.7	0.1
341.25	28.45	0.1
341.67	29	0.1
342.13	29.6	0.1
342.71	30.33	0.1
343.17	30.95	0.1
343.73	31.72	0.1
344.21	32.4	0.1
344.73	33.15	0.1
345.22	33.85	0.1
345.66	34.5	0.1
346.11	35.15	0.1
346.61	35.9	0.11
347.15	36.75	0.11
347.62	37.5	0.11
348.15	38.32	0.11
348.22	38.47	0.11
348.65	39.18	0.11
349.17	40.04	0.11
349.68	40.88	0.11
350.22	41.85	0.11
350.66	42.59	0.11
351.18	43.5	0.11
351.67	44.39	0.11
352.13	45.28	0.11
352.64	46.19	0.11
353.13	47.14	0.11
353.65	48.15	0.11
354.12	49.06	0.11
354.63	50.07	0.11
355.13	51.1	0.11
355.71	52.36	0.11
356.14	53.24	0.11
356.65	54.34	0.11
357.13	55.42	0.11
357.69	56.64	0.11
358.16	57.69	0.11
358.65	58.78	0.11
359.19	60.08	0.11
359.62	61.09	0.11
360.26	62.64	0.11
360.74	63.82	0.11
361.2	64.95	0.11
361.61	65.98	0.11
362.13	67.33	0.11
362.71	68.85	0.11
363.17	70.05	0.11
363.72	71.54	0.11
364.28	73.07	0.12
364.75	74.38	0.12
365.34	76.08	0.12
365.84	77.53	0.12
366.34	78.95	0.12
366.86	80.58	0.12
367.35	82.03	0.12
367.83	83.48	0.12
368.33	85.04	0.12
368.8	86.54	0.12
369.27	88.07	0.12
369.69	89.44	0.12
370.03	90.54	0.12
370.62	92.52	0.12
371.09	94.12	0.12
371.52	95.59	0.12
371.94	97.02	0.12
372.36	98.48	0.12
372.78	100.03	0.13
373.16	101.39	0.13
373.59	103	0.13
374	104.48	0.13
374.39	105.94	0.13
374.82	107.57	0.13
375.18	108.97	0.13
375.6	110.58	0.13
376.1	112.55	0.13
376.46	113.99	0.13
376.86	115.58	0.13
377.21	117.02	0.13
377.57	118.54	0.13
377.92	119.94	0.13
378.29	121.58	0.13
378.65	123.07	0.13
378.99	124.48	0.13
379.33	126.01	0.13
379.71	127.64	0.13
380	128.92	0.14
380.36	130.53	0.14
380.74	132.25	0.14

System: ethanol + water; phases: Gas, Liquid
Fixed: Pressure, kPa = 100
Property: Boiling temperature at pressure P, K (Gas); method: Ebulliometric method (Recirculating still)
Mole fraction of ethanol	Boiling temperature at pressure P, K	uncertainty
0	372.81	0.09
0.0017	371.86	0.55
0.0054	370.68	0.49
0.0137	368.88	0.51
0.0215	366.61	0.41
0.0381	363.82	0.26
0.0668	360.95	0.18
0.1033	358.62	0.13
0.1516	356.92	0.1
0.2144	355.65	0.09
0.266	354.89	0.09
0.3142	354.29	0.09
0.3544	353.83	0.09
0.403	353.39	0.09
0.4488	353.03	0.09

System: ethanol + water; phases: Gas, Liquid
Fixed: Pressure, kPa = 100
Property: Mole fraction of ethanol (Gas); method: Chromatography
Mole fraction of ethanol	Mole fraction of ethanol	uncertainty
0	0	0.0001
0.0017	0.0347	0.0207
0.0054	0.0796	0.0187
0.0137	0.1486	0.0193
0.0215	0.234	0.0142
0.0381	0.3254	0.008
0.0668	0.4023	0.0059
0.1033	0.4677	0.0052
0.1516	0.5155	0.0048
0.2144	0.5533	0.0044
0.266	0.5727	0.0042
0.3142	0.5943	0.0041
0.3544	0.6076	0.004
0.403	0.6241	0.0038
0.4488	0.639	0.0037

System: ethanol + water + 1-ethyl-3-methylimidazolium trifluoromethanesulfonate; phases: Liquid, Gas
Fixed: Pressure, kPa = 100
Property: Boiling temperature at pressure P, K (Liquid); method: EBULLIO:UFactor:4
Mole fraction of 1-ethyl-3-methylimidazolium trifluoromethanesulfonate	Solvent: Mole fraction of ethanol	Boiling temperature at pressure P, K	uncertainty
0.0521	0.0842	364.1	0.38
0.0523	0.0336	368.8	0.41
0.0525	0.1468	360.57	0.36
0.0529	0.2205	358.13	0.35
0.0533	0.3044	356.37	0.35
0.0535	0.0113	372.15	0.51
0.0536	0.3934	354.97	0.35
0.054	1	352.23	0.34
0.0541	0	374.28	0.35
0.0543	0.4761	354.03	0.35
0.0543	0.7401	352.48	0.35
0.0543	0.7919	352.37	0.35
0.0544	0.5532	353.4	0.35
0.0544	0.6252	353.01	0.35
0.0545	0.6881	352.71	0.35
0.0553	0.8479	352.23	0.34
0.0562	0.901	352.28	0.34
0.0569	0.9426	352.3	0.34
0.096	0.0475	369.36	0.4
0.096	0.0929	365.75	0.38
0.0962	0.1445	362.89	0.37
0.0962	0.2031	360.58	0.36
0.097	0.0221	372.19	0.43
0.0979	0.8253	353.26	0.35
0.0983	0.7609	353.46	0.35
0.0987	0.261	358.94	0.36
0.0988	0.4219	355.8	0.35
0.0989	0.6867	353.8	0.35
0.0991	0.6012	354.13	0.35
0.0992	0.3373	357.32	0.35
0.0997	0.5187	354.95	0.35
0.0999	0.8753	353.16	0.35
0.1006	0	375.45	0.35
0.1016	0.9241	353.12	0.35
0.1036	1	353.13	0.34
0.1052	0.96	353.25	0.35
0.2055	0.1803	365.93	0.36
0.209	0.1334	368.52	0.37
0.2104	0.2483	364.13	0.36
0.2111	0.0809	371.74	0.37
0.2113	0.3024	362.64	0.36
0.2133	0.3755	360.89	0.35
0.2137	0.0402	375.09	0.38
0.2137	0.4487	359.46	0.35
0.2157	0.5324	358.45	0.35
0.2161	0.6125	357.6	0.35
0.2165	0.0187	377.44	0.41
0.2167	0	379.51	0.35
0.2175	0.6916	357.19	0.35
0.2175	0.7661	356.74	0.35
0.2191	1	355.83	0.35
0.2205	0.8323	356.49	0.35
0.222	0.8868	356.27	0.35
0.2224	0.9305	356.22	0.35

System: ethanol + water + 1-ethyl-3-methylimidazolium trifluoromethanesulfonate; phases: Gas, Liquid
Fixed: Pressure, kPa = 100
Property: Mole fraction of ethanol (Gas); method: Chromatography
Mole fraction of 1-ethyl-3-methylimidazolium trifluoromethanesulfonate	Solvent: Mole fraction of ethanol	Mole fraction of ethanol	uncertainty
0.0521	0.0842	0.3662	0.0059
0.0523	0.0336	0.1954	0.0081
0.0525	0.1468	0.4572	0.0051
0.0529	0.2205	0.5248	0.0049
0.0533	0.3044	0.5815	0.0043
0.0535	0.0113	0.078	0.014
0.0536	0.3934	0.6256	0.004
0.054	1	1	0.0001
0.0541	0	0	0.0001
0.0543	0.4761	0.6678	0.0037
0.0543	0.7401	0.8065	0.003
0.0543	0.7919	0.8397	0.0028
0.0544	0.5532	0.7048	0.0034
0.0544	0.6252	0.7413	0.0033
0.0545	0.6881	0.7772	0.0031
0.0553	0.8479	0.8777	0.0027
0.0562	0.901	0.9167	0.0027
0.0569	0.9426	0.9518	0.0027
0.096	0.0475	0.2183	0.0066
0.096	0.0929	0.3401	0.0056
0.0962	0.1445	0.4191	0.0051
0.0962	0.2031	0.4922	0.0051
0.097	0.0221	0.1227	0.0084
0.0979	0.8253	0.8721	0.0027
0.0983	0.7609	0.8342	0.0028
0.0987	0.261	0.5475	0.0047
0.0988	0.4219	0.6469	0.0039
0.0989	0.6867	0.789	0.003
0.0991	0.6012	0.7427	0.0033
0.0992	0.3373	0.5975	0.0043
0.0997	0.5187	0.693	0.0036
0.0999	0.8753	0.9076	0.0026
0.1006	0	0	0.0001
0.1016	0.9241	0.9393	0.0026
0.1036	1	1	0.0001
0.1052	0.96	0.9689	0.0026
0.2055	0.1803	0.4465	0.0049
0.209	0.1334	0.3688	0.0048
0.2104	0.2483	0.5097	0.0055
0.2111	0.0809	0.2707	0.0049
0.2113	0.3024	0.5637	0.0049
0.2133	0.3755	0.6236	0.0044
0.2137	0.0402	0.16	0.0061
0.2137	0.4487	0.6786	0.004
0.2157	0.5324	0.7269	0.0036
0.2161	0.6125	0.7781	0.0033
0.2165	0.0187	0.0763	0.0084
0.2167	0	0	0.0001
0.2175	0.6916	0.8221	0.003
0.2175	0.7661	0.86	0.0028
0.2191	1	1	0.0001
0.2205	0.8323	0.9002	0.0025
0.222	0.8868	0.9305	0.0024
0.2224	0.9305	0.9569	0.0024
