Measured thermophysical data. Solubility and Liquid-Liquid Equilibrium of Aqueous Systems of Iodoethane with Methanol, Ethanol, or 1-Propanol at Temperature 298.15 K and Pressure 101.2 kPa
Source: J. Chem. Eng. Data, 2009, 10.1021/je900059e
Compound 1: water, H2O, InChI=1S/H2O/h1H2
Compound 2: methanol, CH4O, InChI=1S/CH4O/c1-2/h2H,1H3
Compound 3: ethanol, C2H6O, InChI=1S/C2H6O/c1-2-3/h3H,2H2,1H3
Compound 4: propan-1-ol, C3H8O, InChI=1S/C3H8O/c1-2-3-4/h4H,2-3H2,1H3
Compound 5: propan-2-ol, C3H8O, InChI=1S/C3H8O/c1-3(2)4/h3-4H,1-2H3
Compound 6: iodoethane, C2H5I, InChI=1S/C2H5I/c1-2-3/h2H2,1H3

System: water; phases: Liquid
Property: Mass density, kg/m3 (Liquid); method: Vibrating tube method
Temperature, K	Pressure, kPa	Mass density, kg/m3	uncertainty
298.15	101.325	997.07	1

System: methanol; phases: Liquid
Property: Mass density, kg/m3 (Liquid); method: Vibrating tube method
Temperature, K	Pressure, kPa	Mass density, kg/m3	uncertainty
298.15	101.325	787	1

System: ethanol; phases: Liquid
Property: Mass density, kg/m3 (Liquid); method: Vibrating tube method
Temperature, K	Pressure, kPa	Mass density, kg/m3	uncertainty
298.15	101.325	785.2	1

System: propan-1-ol; phases: Liquid
Property: Mass density, kg/m3 (Liquid); method: Vibrating tube method
Temperature, K	Pressure, kPa	Mass density, kg/m3	uncertainty
298.15	101.325	799.7	1

System: propan-2-ol; phases: Liquid
Property: Mass density, kg/m3 (Liquid); method: Vibrating tube method
Temperature, K	Pressure, kPa	Mass density, kg/m3	uncertainty
298.15	101.325	781.5	1

System: iodoethane; phases: Liquid
Property: Mass density, kg/m3 (Liquid); method: Vibrating tube method
Temperature, K	Pressure, kPa	Mass density, kg/m3	uncertainty
298.15	101.325	1923.8	1.1

System: methanol + iodoethane + water; phases: Liquid mixture 1, Liquid mixture 2
Fixed: Pressure, kPa = 101.2
Fixed: Temperature, K = 298.15
Property: Mole fraction of methanol (Liquid mixture 1); method: Titration method
Mole fraction of iodoethane	Mole fraction of methanol	uncertainty
0.018	0.493	0.016
0.024	0.525	0.015
0.03	0.542	0.014
0.04	0.575	0.013
0.057	0.604	0.012
0.069	0.617	0.012
0.082	0.624	0.012
0.101	0.631	0.011
0.125	0.634	0.011
0.154	0.628	0.012
0.183	0.619	0.012
0.212	0.604	0.012
0.239	0.585	0.013
0.284	0.555	0.014
0.353	0.502	0.015
0.406	0.464	0.014
0.473	0.403	0.013
0.542	0.345	0.011
0.609	0.292	0.009
0.78	0.159	0.005

System: methanol + iodoethane + water; phases: Liquid mixture 1, Liquid mixture 2
Fixed: Temperature, K = 298.15
Fixed: Pressure, kPa = 101.2
Property: Mole fraction of methanol (Liquid mixture 1); method: Chromatography
Property: Mole fraction of water (Liquid mixture 2); method: Chromatography
Property: Mole fraction of methanol (Liquid mixture 2); method: Chromatography
Mole fraction of water	Mole fraction of methanol	uncertainty	Mole fraction of water	uncertainty	Mole fraction of methanol	uncertainty
0.323	0.615	0.008	0.101	0.006	0.342	
0.374	0.581	0.008	0.072	0.006	0.224	
0.462	0.515	0.008	0.051	0.006	0.146	
0.541	0.447	0.009	0.033	0.006	0.09	
0.597	0.392	0.009	0.025	0.007	0.071	
0.69	0.299	0.009	0.012	0.007	0.041	
0.776	0.215	0.009	0.008	0.006	0.029	
0.85	0.139	0.009	0.004	0.004	0.011	

System: ethanol + iodoethane + water; phases: Liquid mixture 1, Liquid mixture 2
Fixed: Pressure, kPa = 101.2
Fixed: Temperature, K = 298.15
Property: Mole fraction of ethanol (Liquid mixture 1); method: Titration method
Mole fraction of iodoethane	Mole fraction of ethanol	uncertainty
0.012	0.291	0.009
0.019	0.311	0.01
0.023	0.315	0.01
0.031	0.333	0.01
0.043	0.36	0.011
0.056	0.375	0.012
0.074	0.397	0.012
0.1	0.417	0.013
0.128	0.426	0.013
0.166	0.432	0.013
0.175	0.432	0.013
0.221	0.435	0.013
0.268	0.426	0.013
0.318	0.411	0.013
0.369	0.392	0.012
0.482	0.351	0.011
0.529	0.325	0.01
0.599	0.281	0.009
0.689	0.231	0.007
0.833	0.148	0.005

System: ethanol + iodoethane + water; phases: Liquid mixture 1, Liquid mixture 2
Fixed: Temperature, K = 298.15
Fixed: Pressure, kPa = 101.2
Property: Mole fraction of ethanol (Liquid mixture 1); method: Chromatography
Property: Mole fraction of water (Liquid mixture 2); method: Chromatography
Property: Mole fraction of ethanol (Liquid mixture 2); method: Chromatography
Mole fraction of water	Mole fraction of ethanol	uncertainty	Mole fraction of water	uncertainty	Mole fraction of ethanol	uncertainty
0.443	0.425	0.007	0.069	0.006	0.236	
0.528	0.393	0.007	0.064	0.006	0.187	
0.582	0.362	0.008	0.047	0.007	0.162	
0.661	0.307	0.008	0.023	0.007	0.13	
0.726	0.257	0.008	0.01	0.006	0.099	
0.817	0.178	0.008	0.008	0.006	0.073	
0.843	0.148	0.008	0.007	0.006	0.066	
0.901	0.096	0.008	0.005	0.005	0.032	

System: propan-1-ol + iodoethane + water; phases: Liquid mixture 1, Liquid mixture 2
Fixed: Pressure, kPa = 101.2
Fixed: Temperature, K = 298.15
Property: Mole fraction of propan-1-ol (Liquid mixture 1); method: Titration method
Mole fraction of iodoethane	Mole fraction of propan-1-ol	uncertainty
0.033	0.241	0.008
0.042	0.265	0.008
0.056	0.303	0.009
0.072	0.331	0.01
0.09	0.355	0.011
0.113	0.378	0.012
0.139	0.393	0.012
0.178	0.406	0.013
0.246	0.407	0.013
0.307	0.403	0.012
0.35	0.396	0.012
0.398	0.383	0.012
0.431	0.372	0.012
0.492	0.343	0.011
0.557	0.309	0.01
0.65	0.251	0.008
0.752	0.191	0.006
0.851	0.125	0.004

System: propan-1-ol + iodoethane + water; phases: Liquid mixture 1, Liquid mixture 2
Fixed: Temperature, K = 298.15
Fixed: Pressure, kPa = 101.2
Property: Mole fraction of propan-1-ol (Liquid mixture 1); method: Chromatography
Property: Mole fraction of propan-1-ol (Liquid mixture 2); method: Chromatography
Property: Mole fraction of water (Liquid mixture 2); method: Chromatography
Mole fraction of water	Mole fraction of propan-1-ol	uncertainty	Mole fraction of propan-1-ol	uncertainty	Mole fraction of water	uncertainty
0.684	0.278	0.009	0.401	0.008	0.25	
0.737	0.227	0.008	0.374	0.008	0.208	
0.775	0.202	0.007	0.351	0.008	0.18	
0.807	0.178	0.008	0.328	0.008	0.156	
0.848	0.137	0.009	0.316	0.009	0.134	
0.892	0.094	0.008	0.281	0.01	0.105	
0.909	0.079	0.008	0.264	0.016	0.095	
0.938	0.054	0.008	0.238	0.015	0.087	
0.964	0.029	0.008	0.206	0.014	0.071	
