Measured thermophysical data. Measurement and Correlation of Solubilities of Decanedioic Acid in C4-C6 Alcohol Solvents
Source: J. Chem. Eng. Data, 2010, 10.1021/je900587b
Compound 1: 1,10-decanedioic acid, C10H18O4, InChI=1S/C10H18O4/c11-9(12)7-5-3-1-2-4-6-8-10(13)14/h1-8H2,(H,11,12)(H,13,14), purity 99.5%
Compound 2: butan-1-ol, C4H10O, InChI=1S/C4H10O/c1-2-3-4-5/h5H,2-4H2,1H3, purity 99.7%
Compound 3: butan-2-ol, C4H10O, InChI=1S/C4H10O/c1-3-4(2)5/h4-5H,3H2,1-2H3, purity 99.8%
Compound 4: pentan-1-ol, C5H12O, InChI=1S/C5H12O/c1-2-3-4-5-6/h6H,2-5H2,1H3, purity 99.8%
Compound 5: hexan-1-ol, C6H14O, InChI=1S/C6H14O/c1-2-3-4-5-6-7/h7H,2-6H2,1H3, purity 99.7%
Compound 6: propan-2-ol, C3H8O, InChI=1S/C3H8O/c1-3(2)4/h3-4H,1-2H3, purity 99.8%
Compound 7: water, H2O, InChI=1S/H2O/h1H2, purity 99.8%

System: butan-1-ol + 1,10-decanedioic acid; phases: Liquid, Crystal
Fixed: Pressure, kPa = 101
Property: Solid-liquid equilibrium temperature, K (Liquid); method: Laser Monitoring System
Mole fraction of 1,10-decanedioic acid	Solid-liquid equilibrium temperature, K	uncertainty
0.01221	295.36	1
0.01782	302.27	1
0.01982	303.95	1
0.02468	308.51	1
0.03032	313.13	1
0.03382	315.15	1
0.0451	321.01	1
0.05347	325.66	1
0.06464	329.2	1
0.07847	333.93	1
0.09652	339.1	1
0.1152	343.19	1

System: butan-2-ol + 1,10-decanedioic acid; phases: Liquid, Crystal
Fixed: Pressure, kPa = 101
Property: Solid-liquid equilibrium temperature, K (Liquid); method: Laser Monitoring System
Mole fraction of 1,10-decanedioic acid	Solid-liquid equilibrium temperature, K	uncertainty
0.00743	294.37	1
0.00936	295.65	1
0.01243	299.28	1
0.01392	301.36	1
0.01414	301.75	1
0.01793	306.05	1
0.02121	309.58	1
0.02751	313.78	1
0.03264	317	1
0.03825	320.24	1
0.04502	323.84	1
0.05401	327.84	1
0.06486	331.36	1
0.07837	335.78	1
0.09491	340.19	1
0.1155	345.16	1

System: pentan-1-ol + 1,10-decanedioic acid; phases: Liquid, Crystal
Fixed: Pressure, kPa = 101
Property: Solid-liquid equilibrium temperature, K (Liquid); method: Laser Monitoring System
Mole fraction of 1,10-decanedioic acid	Solid-liquid equilibrium temperature, K	uncertainty
0.00779	294.13	1
0.01087	294.6	1
0.01337	298.23	1
0.01483	299.45	1
0.01791	304.1	1
0.02257	307.75	1
0.02499	309.3	1
0.02897	312.17	1
0.0334	315.23	1
0.03981	319.24	1
0.04623	323.1	1
0.05227	325.68	1
0.05846	328.11	1
0.06905	332.17	1
0.07998	335.24	1
0.09064	338.5	1
0.1013	340.91	1
0.1135	344.4	1
0.123	346.01	1
0.1337	347.2	1
0.1436	348.84	1

System: 1,10-decanedioic acid + hexan-1-ol; phases: Liquid, Crystal
Fixed: Pressure, kPa = 101
Property: Solid-liquid equilibrium temperature, K (Liquid); method: Laser Monitoring System
Mole fraction of 1,10-decanedioic acid	Solid-liquid equilibrium temperature, K	uncertainty
0.0074	293.95	1
0.0112	299.05	1
0.0132	300.41	1
0.014	301.78	1
0.0169	304.81	1
0.0181	306.78	1
0.0212	309.61	1
0.0248	312.05	1
0.0281	314.61	1
0.0312	316.45	1
0.0385	320.8	1
0.0444	323.48	1
0.0529	327.65	1
0.0648	332.65	1
0.0778	337.09	1
0.0857	339.99	1
0.0982	343.09	1
0.119	348.1	1
0.137	350.27	1

System: propan-2-ol + 1,10-decanedioic acid; phases: Liquid, Crystal
Fixed: Pressure, kPa = 101
Property: Solid-liquid equilibrium temperature, K (Liquid); method: Laser Monitoring System
Mole fraction of 1,10-decanedioic acid	Solid-liquid equilibrium temperature, K	uncertainty
0.0128	294.33	1
0.017	297.47	1
0.0231	302.02	1
0.031	307.72	1
0.0386	312.15	1
0.0462	316.22	1
0.0542	319.77	1
0.0626	323.87	1
0.0719	326.72	1
0.0808	329.57	1
0.0886	331.75	1
0.0981	334.97	1
0.108	337.34	1
0.1162	339.72	1
0.1282	342.76	1
0.1372	344.84	1
0.1461	346.41	1
0.1613	349.6	1

System: propan-2-ol + 1,10-decanedioic acid + water; phases: Liquid, Crystal
Fixed: Pressure, kPa = 101
Property: Solid-liquid equilibrium temperature, K (Liquid); method: Laser Monitoring System
Solvent: Mole fraction of propan-2-ol	Mole fraction of 1,10-decanedioic acid	Solid-liquid equilibrium temperature, K	uncertainty
0.1988	0.0028	294.8	1
0.1988	0.0039	298.82	1
0.1988	0.0059	304.71	1
0.1988	0.0074	308.71	1
0.1988	0.0091	311.87	1
0.1988	0.0111	315.06	1
0.1988	0.0135	318.41	1
0.1988	0.0167	321.85	1
0.1988	0.0208	325.6	1
0.1988	0.0252	328.87	1
0.1988	0.0307	332.37	1
0.1988	0.0378	336.14	1
0.1988	0.0465	339.85	1
0.1988	0.0572	343.65	1
0.3974	0.011	295.44	1
0.3974	0.0142	300.02	1
0.3974	0.0178	304.57	1
0.3974	0.0224	308.81	1
0.3974	0.0284	313.52	1
0.3974	0.0351	318.12	1
0.3974	0.0429	322.27	1
0.3974	0.0529	327.07	1
0.3974	0.062	330.75	1
0.3974	0.0799	336.6	1
0.3974	0.0936	340.53	1
0.3974	0.107	344.03	1
0.3974	0.1205	347.31	1
0.3974	0.1341	350.21	1
0.5712	0.0193	297.91	1
0.5712	0.0239	302.22	1
0.5712	0.0287	305.88	1
0.5712	0.0339	309.65	1
0.5712	0.0402	313.39	1
0.5712	0.0484	317.78	1
0.5712	0.0573	321.91	1
0.5712	0.0674	326.02	1
0.5712	0.0773	329.52	1
0.5712	0.0911	334.32	1
0.5712	0.106	338.49	1
0.5712	0.1215	342.51	1
0.5712	0.1376	346.52	1
0.5712	0.1536	349.98	1
0.8112	0.0196	295.12	1
0.8112	0.0246	299.62	1
0.8112	0.0293	303.06	1
0.8112	0.0341	306.61	1
0.8112	0.0395	310.01	1
0.8112	0.0465	313.75	1
0.8112	0.0559	318.31	1
0.8112	0.0681	323.6	1
0.8112	0.08	328.05	1
0.8112	0.0912	331.7	1
0.8112	0.1036	335.38	1
0.8112	0.1172	339.13	1
0.8112	0.1313	342.81	1
0.8112	0.1469	346.43	1
0.8112	0.1632	349.84	1
1	0.0128	294.33	1
1	0.017	297.47	1
1	0.0231	302.02	1
1	0.031	307.72	1
1	0.0386	312.15	1
1	0.0462	316.22	1
1	0.0542	319.77	1
1	0.0626	323.87	1
1	0.0719	326.72	1
1	0.0808	329.57	1
1	0.0886	331.75	1
1	0.0981	334.97	1
1	0.108	337.34	1
1	0.1162	339.72	1
1	0.1282	342.76	1
1	0.1372	344.84	1
1	0.1461	346.41	1
1	0.1613	349.6	1
