Measured thermophysical data. Solubilities of 1,1'-(Pentane-1,5-diyl)-bis(pyridinium) Dihexafluorophosphate in Dimethyl Sulfoxide + Water
Source: J. Chem. Eng. Data, 2010, 10.1021/je900355h
Compound 1: dimethyl sulfoxide, C2H6OS, InChI=1S/C2H6OS/c1-4(2)3/h1-2H3
Compound 2: 1,1'-(1,5-pentanediyl)bis-pyridinium hexafluorophosphate, C15H20F12N2P2, InChI=1S/C15H20N2.2F6P/c1-4-10-16(11-5-1)14-8-3-9-15-17-12-6-2-7-13-17;2*1-7(2,3,4,5)6/h1-2,4-7,10-13H,3,8-9,14-15H2;;/q+2;2*-1, purity 99%
Compound 3: water, H2O, InChI=1S/H2O/h1H2, purity 99%

System: 1,1'-(1,5-pentanediyl)bis-pyridinium hexafluorophosphate; phases: Crystal, Liquid, Air at 1 atmosphere
Property: Normal melting temperature, K (Crystal); method: VISOBS
Normal melting temperature, K	uncertainty
471.55	1.22

System: dimethyl sulfoxide + water + 1,1'-(1,5-pentanediyl)bis-pyridinium hexafluorophosphate; phases: Liquid, Crystal
Fixed: Pressure, kPa = 101
Property: Solid-liquid equilibrium temperature, K (Liquid); method: Ebulliometric method (Recirculating still)
Solvent: Mass fraction of dimethyl sulfoxide	Mole fraction of 1,1'-(1,5-pentanediyl)bis-pyridinium hexafluorophosphate	Solid-liquid equilibrium temperature, K	uncertainty
0.1	0.1057	296.75	0.91
0.1	0.1183	302.05	1.03
0.1	0.13	307.15	1.15
0.1	0.1411	312.15	1.24
0.2	0.01955	293.65	1.09
0.2	0.02478	300.25	1.25
0.2	0.02817	306.15	1.46
0.2	0.03136	313.35	1.77
0.3	0.01028	293.65	1.63
0.3	0.01221	299.05	1.92
0.3	0.01307	304.65	2.74
0.3	0.01424	310.85	1.12
0.4	0.00448	296.95	1.48
0.4	0.00574	301.95	1.54
0.4	0.00674	306.65	1.7
0.4	0.00786	312.15	0.73
0.5	0.0017	293.45	1.88
0.5	0.00224	301.45	1.99
0.5	0.00283	306.55	1.75
0.5	0.00374	311.75	1.92
0.6	0.000667	292.05	2.08
0.6	0.000833	297.95	1.98
0.6	0.00119	305.85	2.24
0.6	0.00158	312.05	2.47
0.7	0.000297	292.95	2.04
0.7	0.000358	295.35	2.04
0.7	0.000519	303.05	2.07
0.7	0.00072	308.65	2.1
0.8	7e-05	290.65	1.29
0.8	0.000134	296.95	1.44
0.8	0.000174	299.75	1.72
0.8	0.000301	307.25	1.77
0.9	7.7e-05	293.15	0.49
0.9	0.000105	296.95	0.59
0.9	0.000149	301.85	0.71
0.9	0.000193	307.45	1.16
