Measured thermophysical data. Solubilities of 1,1?-(Propane-1,3-diyl)-bis(3-methyl-1H-imidazolium-1-yl) Dihexafluorophosphate in Different Solvents
Source: J. Chem. Eng. Data, 2010, 10.1021/je9006585
Compound 1: 1,1'-(propane-1,3-diyl)-bis(3-methyl-1H-imidazolium-1-yl) dihexafluorophosphate, C11H18F12N4P2, InChI=1S/C11H18N4.2F6P/c1-12-6-8-14(10-12)4-3-5-15-9-7-13(2)11-15;2*1-7(2,3,4,5)6/h6-11H,3-5H2,1-2H3;;/q+2;2*-1, purity 99%
Compound 2: acetone, C3H6O, InChI=1S/C3H6O/c1-3(2)4/h1-2H3, purity 99.8%
Compound 3: butanone, C4H8O, InChI=1S/C4H8O/c1-3-4(2)5/h3H2,1-2H3, purity 99.8%
Compound 4: acetophenone, C8H8O, InChI=1S/C8H8O/c1-7(9)8-5-3-2-4-6-8/h2-6H,1H3, purity 99.8%
Compound 5: cyclohexanone, C6H10O, InChI=1S/C6H10O/c7-6-4-2-1-3-5-6/h1-5H2, purity 99.8%
Compound 6: 2,4-pentanedione, C5H8O2, InChI=1S/C5H8O2/c1-4(6)3-5(2)7/h3H2,1-2H3, purity 99.8%
Compound 7: water, H2O, InChI=1S/H2O/h1H2, purity 99.8%

System: 1,1'-(propane-1,3-diyl)-bis(3-methyl-1H-imidazolium-1-yl) dihexafluorophosphate; phases: Crystal, Liquid, Air at 1 atmosphere
Property: Normal melting temperature, K (Crystal); method: VISOBS
Normal melting temperature, K	uncertainty
415.4	1.5

System: acetone + 1,1'-(propane-1,3-diyl)-bis(3-methyl-1H-imidazolium-1-yl) dihexafluorophosphate; phases: Liquid, Crystal
Fixed: Pressure, kPa = 101
Property: Solid-liquid equilibrium temperature, K (Liquid); method: VISOBS
Mole fraction of 1,1'-(propane-1,3-diyl)-bis(3-methyl-1H-imidazolium-1-yl) dihexafluorophosphate	Solid-liquid equilibrium temperature, K	uncertainty
0.03647	289.15	0.84
0.04012	293.15	0.91
0.04333	296.65	0.85
0.04854	301.15	0.82
0.05506	306.15	0.86
0.0605	310.15	0.87
0.06814	315.15	0.93
0.07719	321.15	1.05

System: butanone + 1,1'-(propane-1,3-diyl)-bis(3-methyl-1H-imidazolium-1-yl) dihexafluorophosphate; phases: Liquid, Crystal
Fixed: Pressure, kPa = 101
Property: Solid-liquid equilibrium temperature, K (Liquid); method: VISOBS
Mole fraction of 1,1'-(propane-1,3-diyl)-bis(3-methyl-1H-imidazolium-1-yl) dihexafluorophosphate	Solid-liquid equilibrium temperature, K	uncertainty
0.002918	290.15	0.56
0.003386	294.15	0.6
0.004042	299.35	0.66
0.004576	303.15	0.72
0.005237	308.15	0.79
0.005981	313.25	0.85
0.006713	318.15	0.98
0.007377	323.15	1.08
0.00811	328.15	1.15
0.009126	335.25	1.3

System: acetophenone + 1,1'-(propane-1,3-diyl)-bis(3-methyl-1H-imidazolium-1-yl) dihexafluorophosphate; phases: Liquid, Crystal
Fixed: Pressure, kPa = 101
Property: Solid-liquid equilibrium temperature, K (Liquid); method: VISOBS
Mole fraction of 1,1'-(propane-1,3-diyl)-bis(3-methyl-1H-imidazolium-1-yl) dihexafluorophosphate	Solid-liquid equilibrium temperature, K	uncertainty
0.000417	289.15	0.8
0.000461	293.15	0.87
0.0005	296.65	0.94
0.00056	302.15	1.02
0.000619	307.15	1.04
0.000683	312.15	1.15
0.000743	317.35	1.16
0.000807	321.65	1.15
0.000899	328.15	1.12
0.000996	333.15	1.06

System: cyclohexanone + 1,1'-(propane-1,3-diyl)-bis(3-methyl-1H-imidazolium-1-yl) dihexafluorophosphate; phases: Liquid, Crystal
Fixed: Pressure, kPa = 101
Property: Solid-liquid equilibrium temperature, K (Liquid); method: VISOBS
Mole fraction of 1,1'-(propane-1,3-diyl)-bis(3-methyl-1H-imidazolium-1-yl) dihexafluorophosphate	Solid-liquid equilibrium temperature, K	uncertainty
0.000151	289.65	0.31
0.000222	294.15	0.34
0.000331	299.15	0.36
0.000443	303.15	0.37
0.000622	308.15	0.39
0.000852	313.25	0.42
0.001116	318.15	0.45
0.001431	323.15	0.48
0.001812	328.15	0.51
0.00224	333.15	0.58

System: 2,4-pentanedione + 1,1'-(propane-1,3-diyl)-bis(3-methyl-1H-imidazolium-1-yl) dihexafluorophosphate; phases: Liquid, Crystal
Fixed: Pressure, kPa = 101
Property: Solid-liquid equilibrium temperature, K (Liquid); method: VISOBS
Mole fraction of 1,1'-(propane-1,3-diyl)-bis(3-methyl-1H-imidazolium-1-yl) dihexafluorophosphate	Solid-liquid equilibrium temperature, K	uncertainty
0.000598	288.55	0.31
0.000876	293.15	0.36
0.001198	297.45	0.36
0.001718	302.65	0.38
0.002406	307.85	0.41
0.003246	313.15	0.45
0.004112	317.65	0.47
0.005315	323.15	0.51
0.006394	327.35	0.53
0.008404	334.65	0.66

System: water + 1,1'-(propane-1,3-diyl)-bis(3-methyl-1H-imidazolium-1-yl) dihexafluorophosphate; phases: Liquid, Crystal
Fixed: Pressure, kPa = 101
Property: Solid-liquid equilibrium temperature, K (Liquid); method: VISOBS
Mole fraction of 1,1'-(propane-1,3-diyl)-bis(3-methyl-1H-imidazolium-1-yl) dihexafluorophosphate	Solid-liquid equilibrium temperature, K	uncertainty
7.7e-05	289.15	0.35
0.000102	293.15	0.38
0.000137	297.65	0.37
0.000216	304.75	0.41
0.000289	309.35	0.41
0.000366	313.25	0.42
0.000454	317.15	0.42
0.000611	322.65	0.45
0.00078	327.15	0.44
0.00104	332.65	0.5
