Measured thermophysical data. Vapor-Liquid Equilibrium Data of (Carbon Dioxide + Methyl Propionate) and (Carbon Dioxide + Propyl Propionate) at Pressures from (1.00 to 12.00) MPa and Temperatures from (313.0 to 373.0) K
Source: J. Chem. Eng. Data, 2009, 10.1021/je9001784
Compound 1: carbon dioxide, CO2, InChI=1S/CO2/c2-1-3, purity 99.99%
Compound 2: methyl propanoate, C4H8O2, InChI=1S/C4H8O2/c1-3-4(5)6-2/h3H2,1-2H3, purity 99.85%
Compound 3: propyl propanoate, C6H12O2, InChI=1S/C6H12O2/c1-3-5-8-6(7)4-2/h3-5H2,1-2H3, purity 99.85%

System: carbon dioxide + methyl propanoate; phases: Liquid, Gas
Property: Vapor or sublimation pressure, kPa (Liquid); method: CCELL:UFactor:16
Mole fraction of carbon dioxide	Temperature, K	Vapor or sublimation pressure, kPa	uncertainty
0.3125	353	2000	110
0.3282	373	3000	150
0.3321	313	1000	50
0.3711	353	3000	150
0.3961	373	4000	200
0.4215	353	4000	200
0.4384	313	2000	100
0.4501	333	3000	150
0.4511	373	5000	250
0.4811	353	5000	250
0.5166	373	6000	300
0.5349	313	3000	150
0.5358	333	4000	200
0.5563	353	6000	300
0.5685	373	7000	350
0.6038	353	7000	350
0.6251	373	8000	400
0.6338	333	5000	250
0.6435	313	4000	200
0.6694	373	9000	450
0.6866	353	8000	400
0.7097	373	10000	500
0.7185	333	6000	300
0.7392	353	9000	450
0.7523	373	11000	550
0.7649	313	5000	250
0.7867	333	7000	350
0.8121	373	12000	600
0.8125	353	10000	500
0.8355	313	6000	300
0.8443	333	8000	400
0.8821	333	9000	450
0.9058	313	7000	350

System: carbon dioxide + methyl propanoate; phases: Liquid, Gas
Property: Mass density, kg/m3 (Liquid); method: Pycnometric method
Temperature, K	Mole fraction of carbon dioxide	Mass density, kg/m3	uncertainty
313	0.3321	987	10
313	0.4384	970.7	10
313	0.5349	946	10
313	0.6435	925	10
313	0.7649	886.9	9.9
313	0.8355	840.1	11.9
313	0.9058	767.6	12.9
333	0.4501	905.8	9.1
333	0.5358	910.2	9.1
333	0.6338	917.2	9.2
333	0.7185	916.2	9.3
333	0.7867	911.2	10
333	0.8443	870	10
333	0.8821	843.2	11.1
353	0.3125	870.2	8.9
353	0.3711	865.6	8.7
353	0.4215	866.4	8.7
353	0.4811	869.5	8.7
353	0.5563	857.9	8.7
353	0.6038	854.3	8.7
353	0.6866	851	9
353	0.7392	824.3	9.5
353	0.8125	791	9
373	0.3282	825	8
373	0.3961	821.4	8.3
373	0.4511	812.1	8.4
373	0.5166	798.2	8.4
373	0.5685	782.8	8.5
373	0.6251	763.7	8.6
373	0.6694	744.7	9
373	0.7097	722.6	9.3
373	0.7523	698.5	8.5
373	0.8121	675	8

System: carbon dioxide + methyl propanoate; phases: Gas, Liquid
Property: Mass density, kg/m3 (Gas); method: Pycnometric method
Temperature, K	Pressure, kPa	Mass density, kg/m3	uncertainty
313	1000	24.5	1.5
313	2000	43.8	2.6
313	3000	72.6	4.4
313	4000	124.1	7.5
313	5000	180.1	10.9
313	6000	310.3	18.8
313	7000	546.3	33.2
333	3000	52.8	3.2
333	4000	82.2	4.9
333	5000	100	6
333	6000	154.1	9.4
333	7000	185.6	11.5
333	8000	243.6	14.7
333	9000	420	25.3
353	2000	41.2	2.5
353	3000	48.4	2.9
353	4000	68.9	4.1
353	5000	98.8	5.9
353	6000	116.5	7
353	7000	143.2	8.6
353	8000	196.5	11.8
353	9000	280	16.9
353	10000	389.4	23.4
373	3000	44.4	2.7
373	4000	61.6	3.7
373	5000	81.7	4.9
373	6000	98.3	5.9
373	7000	122.4	7.4
373	8000	148.4	8.9
373	9000	212.6	12.8
373	10000	283.3	17.1
373	11000	371.6	22.3
373	12000	451.2	27.1

System: carbon dioxide + methyl propanoate; phases: Gas, Liquid
Property: Mole fraction of carbon dioxide (Gas); method: gravimetric
Mole fraction of carbon dioxide	Temperature, K	Mole fraction of carbon dioxide	uncertainty
0.3125	353	0.9422	0.0101
0.3282	373	0.9213	0.01
0.3321	313	0.9812	0.01
0.3711	353	0.9502	0.01
0.3961	373	0.9255	0.01
0.4215	353	0.9486	0.01
0.4384	313	0.9852	0.01
0.4501	333	0.987	0.0101
0.4511	373	0.9228	0.01
0.4811	353	0.9456	0.01
0.5166	373	0.9246	0.01
0.5349	313	0.9819	0.01
0.5358	333	0.9874	0.01
0.5563	353	0.946	0.01
0.5685	373	0.9222	0.01
0.6038	353	0.942	0.01
0.6251	373	0.9189	0.01
0.6338	333	0.9887	0.01
0.6435	313	0.9819	0.01
0.6694	373	0.9123	0.0102
0.6866	353	0.9352	0.0103
0.7097	373	0.9011	0.0106
0.7185	333	0.9774	0.0101
0.7392	353	0.9023	0.0119
0.7523	373	0.8845	0.0115
0.7649	313	0.9753	0.01
0.7867	333	0.9716	0.0103
0.8121	373	0.8432	0.0122
0.8125	353	0.8601	0.0104
0.8355	313	0.966	0.0109
0.8443	333	0.9495	0.0115
0.8821	333	0.9025	0.016
0.9058	313	0.9137	0.0125

System: propyl propanoate + carbon dioxide; phases: Liquid, Gas
Property: Vapor or sublimation pressure, kPa (Liquid); method: CCELL:UFactor:16
Mole fraction of carbon dioxide	Temperature, K	Vapor or sublimation pressure, kPa	uncertainty
0.2551	373	2000	180
0.2685	373	3000	180
0.271	313	1000	50
0.2943	373	4000	210
0.3001	353	2000	110
0.324	373	5000	260
0.3446	333	2000	110
0.3446	353	3000	160
0.3599	373	6000	310
0.3865	373	7000	350
0.3901	333	3000	150
0.3901	353	4000	200
0.4001	313	2000	100
0.4242	373	8000	400
0.4477	353	5000	250
0.4837	333	4000	200
0.4968	373	9000	450
0.5007	353	6000	300
0.5071	313	3000	150
0.5583	353	7000	350
0.5686	373	10000	500
0.572	333	5000	250
0.6172	373	11000	550
0.6241	353	8000	400
0.629	313	4000	200
0.665	333	6000	300
0.6939	353	9000	450
0.7036	373	12000	600
0.7286	333	7000	350
0.751	313	5000	250
0.7545	353	10000	500
0.7741	333	8000	400
0.8198	353	11000	550
0.8615	333	9000	450
0.8616	313	6000	300
0.9049	333	10000	500
0.9475	313	7000	350

System: propyl propanoate + carbon dioxide; phases: Liquid, Gas
Property: Mass density, kg/m3 (Liquid); method: Pycnometric method
Temperature, K	Mole fraction of carbon dioxide	Mass density, kg/m3	uncertainty
313	0.271	825	8.3
313	0.4001	886.9	8.9
313	0.5071	908.3	9.1
313	0.629	908.5	9.2
313	0.751	908.6	9.3
313	0.8616	893.9	9.4
313	0.9475	894.5	9.6
333	0.3446	897	9.1
333	0.3901	868.1	8.7
333	0.4837	834.4	8.4
333	0.572	813.4	8.2
333	0.665	792.3	8
333	0.7286	770.8	7.8
333	0.7741	730.6	7.6
333	0.8615	700	7.7
333	0.9049	645.8	8.1
353	0.3001	858	8.6
353	0.3446	853	8.6
353	0.3901	849.5	8.5
353	0.4477	846.5	8.5
353	0.5007	834.4	8.4
353	0.5583	806.9	8.1
353	0.6241	793.8	8
353	0.6939	781.3	7.8
353	0.7545	788.7	7.9
353	0.8198	770	7.8
373	0.2551	700	9.7
373	0.2685	744.8	8.6
373	0.2943	786.3	8.3
373	0.324	808.5	8.1
373	0.3599	804.4	8.1
373	0.3865	813.2	8.2
373	0.4242	816.7	8.2
373	0.4968	799.2	8
373	0.5686	799.8	8
373	0.6172	783.4	7.9
373	0.7036	754.7	7.6

System: propyl propanoate + carbon dioxide; phases: Gas, Liquid
Property: Mass density, kg/m3 (Gas); method: Pycnometric method
Temperature, K	Pressure, kPa	Mass density, kg/m3	uncertainty
313	1000	22	1.3
313	2000	42.9	2.6
313	3000	65.2	3.9
313	4000	106.8	6.4
313	5000	153.7	9.3
313	6000	244.4	15.1
313	7000	646.3	39.4
333	2000	40.3	2.4
333	3000	58.8	3.5
333	4000	77.2	4.6
333	5000	108	6.5
333	6000	126.9	7.7
333	7000	180	11.3
333	8000	247.5	14.9
333	9000	276.7	16.6
333	10000	446.8	26.9
353	2000	27.1	1.6
353	3000	49.6	3
353	4000	68.2	4.1
353	5000	89.8	5.4
353	6000	123.9	7.4
353	7000	165	9.9
353	8000	220.6	13.3
353	9000	276.7	16.6
353	10000	333	20
353	11000	456.6	27.5
373	2000	22	1.3
373	3000	42.9	2.6
373	4000	65.2	3.9
373	5000	86	5.2
373	6000	108.2	6.5
373	7000	146.3	8.8
373	8000	190.1	11.4
373	9000	252.2	15.1
373	10000	304.2	18.3
373	11000	334.1	20.1
373	12000	460.4	27.7

System: propyl propanoate + carbon dioxide; phases: Gas, Liquid
Property: Mole fraction of carbon dioxide (Gas); method: gravimetric
Mole fraction of carbon dioxide	Temperature, K	Mole fraction of carbon dioxide	uncertainty
0.2551	373	0.9093	0.0101
0.2685	373	0.9073	0.01
0.271	313	0.9892	0.01
0.2943	373	0.9075	0.01
0.3001	353	0.9375	0.0104
0.324	373	0.9073	0.0101
0.3446	333	0.9819	0.01
0.3446	353	0.9496	0.0103
0.3599	373	0.8984	0.0103
0.3865	373	0.8932	0.0103
0.3901	333	0.9812	0.01
0.3901	353	0.961	0.0101
0.4001	313	0.9942	0.0058
0.4242	373	0.8824	0.0102
0.4477	353	0.9609	0.01
0.4837	333	0.97	0.01
0.4968	373	0.8744	0.0101
0.5007	353	0.9631	0.0101
0.5071	313	0.9941	0.0059
0.5583	353	0.9609	0.0101
0.5686	373	0.8686	0.0102
0.572	333	0.97	0.01
0.6172	373	0.8532	0.0105
0.6241	353	0.9499	0.0102
0.629	313	0.9928	0.0072
0.665	333	0.9653	0.01
0.6939	353	0.9364	0.0105
0.7036	373	0.8268	0.0105
0.7286	333	0.9811	0.01
0.751	313	0.9976	0.0024
0.7545	353	0.9023	0.0113
0.7741	333	0.9725	0.01
0.8198	353	0.8701	0.0112
0.8615	333	0.9735	0.0107
0.8616	313	0.9963	0.0037
0.9049	333	0.9145	0.0169
0.9475	313	0.961	0.0108
