Measured thermophysical data. Determination of Octanol-Air Partition Coefficients (KOA) of Fluorotelomer Acrylates, Perfluoroalkyl Sulfonamids, and Perfluoroalkylsulfonamido Ethanols
Source: J. Chem. Eng. Data, 2009, 10.1021/je900082g
Compound 1: perfluorohexylethyl acrylate, C11H7F13O2, InChI=1S/C11H7F13O2/c1-3-5(25)26-4(2)6(12,13)7(14,15)8(16,17)9(18,19)10(20,21)11(22,23)24/h3-4H,1H2,2H3
Compound 2: 2-Propenoic acid, 3,3,4,4,5,5,6,6,7,7,8,8,9,9,10,10,10-heptadecafluorodecyl ester, C13H7F17O2, InChI=1S/C13H7F17O2/c1-2-5(31)32-4-3-6(14,15)7(16,17)8(18,19)9(20,21)10(22,23)11(24,25)12(26,27)13(28,29)30/h2H,1,3-4H2
Compound 3: perfluorodecylethyl acrylate, C15H7F21O2, InChI=1S/C15H7F21O2/c1-3-5(37)38-4(2)6(16,17)7(18,19)8(20,21)9(22,23)10(24,25)11(26,27)12(28,29)13(30,31)14(32,33)15(34,35)36/h3-4H,1H2,2H3
Compound 4: n-methyl perfluorooctane sulfonamide, C9H4F17NO2S, InChI=1S/C9H4F17NO2S/c1-27-30(28,29)9(25,26)7(20,21)5(16,17)3(12,13)2(10,11)4(14,15)6(18,19)8(22,23)24/h27H,1H3
Compound 5: n-ethyl perfluorooctane sulfonamide, C10H6F17NO2S, InChI=1S/C10H6F17NO2S/c1-2-28-31(29,30)10(26,27)8(21,22)6(17,18)4(13,14)3(11,12)5(15,16)7(19,20)9(23,24)25/h28H,2H2,1H3
Compound 6: n-methyl perfluorooctane sulfonamidoethanol, C11H8F17NO3S, InChI=1S/C11H8F17NO3S/c1-29(2-3-30)33(31,32)11(27,28)9(22,23)7(18,19)5(14,15)4(12,13)6(16,17)8(20,21)10(24,25)26/h30H,2-3H2,1H3
Compound 7: n-ethyl perfluorooctane sulfonamido ethanol, C12H10F17NO3S, InChI=1S/C12H10F17NO3S/c1-2-30(3-4-31)34(32,33)12(28,29)10(23,24)8(19,20)6(15,16)5(13,14)7(17,18)9(21,22)11(25,26)27/h31H,2-4H2,1H3
Compound 8: octan-1-ol, C8H18O, InChI=1S/C8H18O/c1-2-3-4-5-6-7-8-9/h9H,2-8H2,1H3

System: octan-1-ol + perfluorohexylethyl acrylate; phases: Gas, Liquid
Fixed: Amount concentration (molarity), mol/dm3 of perfluorohexylethyl acrylate = 0
Property: Amount concentration (molarity), mol/dm3 (Gas); method: SPECTR
Temperature, K	Amount concentration (molarity), mol/dm3	uncertainty
278.1	105000	24410
283.1	64600	15020
288.15	51300	11920
293.15	52500	12200
298.15	46800	10880
303.15	41700	9692
308.15	11000	2557
313.15	9770	2271

System: octan-1-ol + 2-Propenoic acid, 3,3,4,4,5,5,6,6,7,7,8,8,9,9,10,10,10-heptadecafluorodecyl ester; phases: Gas, Liquid
Fixed: Amount concentration (molarity), mol/dm3 of 2-Propenoic acid, 3,3,4,4,5,5,6,6,7,7,8,8,9,9,10,10,10-heptadecafluorodecyl ester = 0
Property: Amount concentration (molarity), mol/dm3 (Gas); method: SPECTR
Temperature, K	Amount concentration (molarity), mol/dm3	uncertainty
278.1	794000	359100
283.1	447000	202100
288.15	331000	149700
293.15	269000	121600
298.15	219000	99040
303.15	251000	113500
308.15	63100	28540
313.15	40700	18410

System: octan-1-ol + perfluorodecylethyl acrylate; phases: Gas, Liquid
Fixed: Amount concentration (molarity), mol/dm3 of perfluorodecylethyl acrylate = 0
Property: Amount concentration (molarity), mol/dm3 (Gas); method: SPECTR
Temperature, K	Amount concentration (molarity), mol/dm3	uncertainty
278.1	3470000	1229000
283.1	2090000	740500
288.15	1550000	549100
293.15	603000	213600
298.15	479000	169700
303.15	479000	169700
308.15	195000	69090
313.15	120000	42510

System: octan-1-ol + n-methyl perfluorooctane sulfonamide; phases: Gas, Liquid
Fixed: Amount concentration (molarity), mol/dm3 of n-methyl perfluorooctane sulfonamide = 0
Property: Amount concentration (molarity), mol/dm3 (Gas); method: SPECTR
Temperature, K	Amount concentration (molarity), mol/dm3	uncertainty
278.1	4790000	3813000
283.1	4170000	3320000
288.15	3390000	2699000
293.15	2750000	2189000
298.15	2090000	1664000
303.15	1740000	1385000
308.15	1380000	1099000

System: octan-1-ol + n-ethyl perfluorooctane sulfonamide; phases: Gas, Liquid
Fixed: Amount concentration (molarity), mol/dm3 of n-ethyl perfluorooctane sulfonamide = 0
Property: Amount concentration (molarity), mol/dm3 (Gas); method: SPECTR
Temperature, K	Amount concentration (molarity), mol/dm3	uncertainty
278.1	7590000	5086000
283.1	7760000	5200000
288.15	5750000	3853000
293.15	5250000	3518000
298.15	4470000	2996000
303.15	3470000	2325000
308.15	2510000	1682000

System: octan-1-ol + n-methyl perfluorooctane sulfonamidoethanol; phases: Gas, Liquid
Fixed: Amount concentration (molarity), mol/dm3 of n-methyl perfluorooctane sulfonamidoethanol = 0
Property: Amount concentration (molarity), mol/dm3 (Gas); method: SPECTR
Temperature, K	Amount concentration (molarity), mol/dm3	uncertainty
278.1	4900000	3313000
283.1	4900000	3313000
288.15	4370000	2955000
293.15	3310000	2238000
298.15	3020000	2042000
303.15	2290000	1548000
308.15	1820000	1231000

System: octan-1-ol + n-ethyl perfluorooctane sulfonamido ethanol; phases: Gas, Liquid
Fixed: Amount concentration (molarity), mol/dm3 of n-ethyl perfluorooctane sulfonamido ethanol = 0
Property: Amount concentration (molarity), mol/dm3 (Gas); method: SPECTR
Temperature, K	Amount concentration (molarity), mol/dm3	uncertainty
278.1	8910000	5276000
283.1	8710000	5158000
288.15	7410000	4388000
293.15	5620000	3328000
298.15	5130000	3038000
303.15	3890000	2304000
308.15	3310000	1960000
