Measured thermophysical data. Liquid-Liquid Equilibria for Monoethylene Glycol + Hexane and 2,2,4-Trimethylpentane, Water + Hexane and 2,2,4-Trimethylpentane, Monoethylene Glycol + Water + Hexane, and Monoethylene Glycol + Water + 2,2,4-Trimethylpentane in the Temperature Range between T = 283.15 K and T = 323.15 K
Source: J. Chem. Eng. Data, 2010, 10.1021/je900295u
Compound 1: 1,2-ethanediol, C2H6O2, InChI=1S/C2H6O2/c3-1-2-4/h3-4H,1-2H2
Compound 2: hexane, C6H14, InChI=1S/C6H14/c1-3-5-6-4-2/h3-6H2,1-2H3
Compound 3: 2,2,4-trimethylpentane, C8H18, InChI=1S/C8H18/c1-7(2)6-8(3,4)5/h7H,6H2,1-5H3
Compound 4: water, H2O, InChI=1S/H2O/h1H2

System: 1,2-ethanediol + hexane; phases: Liquid mixture 1, Liquid mixture 2
Fixed: Pressure, kPa = 101
Property: Mole fraction of 1,2-ethanediol (Liquid mixture 1); method: Chromatography
Temperature, K	Mole fraction of 1,2-ethanediol	uncertainty
283.15	4.55e-05	3.7e-06
303.15	0.00013	1e-05
323.15	0.000431	3.5e-05

System: 1,2-ethanediol + hexane; phases: Liquid mixture 2, Liquid mixture 1
Fixed: Pressure, kPa = 101
Property: Mole fraction of hexane (Liquid mixture 2); method: Chromatography
Temperature, K	Mole fraction of hexane	uncertainty
283.15	0.00139	0.00011
303.15	0.00177	0.00014
323.15	0.00231	0.00019

System: 1,2-ethanediol + 2,2,4-trimethylpentane; phases: Liquid mixture 1, Liquid mixture 2
Fixed: Pressure, kPa = 101
Property: Mole fraction of 1,2-ethanediol (Liquid mixture 1); method: Chromatography
Temperature, K	Mole fraction of 1,2-ethanediol	uncertainty
283.15	6.47e-05	5.2e-06
303.15	0.000185	1.5e-05
323.15	0.000407	3.3e-05

System: 1,2-ethanediol + 2,2,4-trimethylpentane; phases: Liquid mixture 2, Liquid mixture 1
Fixed: Pressure, kPa = 101
Property: Mole fraction of 2,2,4-trimethylpentane (Liquid mixture 2); method: Chromatography
Temperature, K	Mole fraction of 2,2,4-trimethylpentane	uncertainty
283.15	0.000479	3.8e-05
303.15	0.000768	6.2e-05
323.15	0.0009704	7.79e-05

System: hexane + water; phases: Liquid mixture 2, Liquid mixture 1
Fixed: Pressure, kPa = 101
Property: Mole fraction of hexane (Liquid mixture 2); method: Chromatography
Temperature, K	Mole fraction of hexane	uncertainty
283.15	3.07e-06	3.1e-07
303.15	2.91e-06	2.9e-07
323.15	3.15e-06	3.2e-07

System: hexane + water; phases: Liquid mixture 1, Liquid mixture 2
Fixed: Pressure, kPa = 101
Property: Mole fraction of water (Liquid mixture 1); method: Karl Fischer Titration
Temperature, K	Mole fraction of water	uncertainty
283.15	0.000309	3.1e-05
303.15	0.000783	7.8e-05
323.15	0.00137	0.00014

System: 2,2,4-trimethylpentane + water; phases: Liquid mixture 2, Liquid mixture 1
Fixed: Pressure, kPa = 101
Property: Mole fraction of 2,2,4-trimethylpentane (Liquid mixture 2); method: Chromatography
Temperature, K	Mole fraction of 2,2,4-trimethylpentane	uncertainty
283.15	2.14e-07	2.1e-08
303.15	2e-07	2e-08
323.15	2.03e-07	2e-08

System: 2,2,4-trimethylpentane + water; phases: Liquid mixture 1, Liquid mixture 2
Fixed: Pressure, kPa = 101
Property: Mole fraction of water (Liquid mixture 1); method: Karl Fischer Titration
Temperature, K	Mole fraction of water	uncertainty
283.15	0.000388	3.9e-05
303.15	0.00107	0.00011
323.15	0.00196	0.0002

System: 1,2-ethanediol + hexane + water; phases: Liquid mixture 2, Liquid mixture 1
Fixed: Pressure, kPa = 101
Property: Mole fraction of 1,2-ethanediol (Liquid mixture 2); method: Chromatography
Temperature, K	Mole fraction of 1,2-ethanediol	Mole fraction of 1,2-ethanediol	uncertainty
283.15	0.15	8.7e-06	9e-07
283.15	0.3	1.62e-05	1.9e-06
283.15	0.5	2.89e-05	3.3e-06
283.15	0.6997	3.98e-05	4e-06
283.15	0.8494	4.38e-05	4e-06
303.15	0.15	1.57e-05	1.6e-06
303.15	0.3	3.66e-05	4.4e-06
303.15	0.4999	6.56e-05	7.9e-06
303.15	0.6996	9.5e-05	1.12e-05
303.15	0.8491	0.000111	2.5e-05
333.15	0.15	5.58e-05	6.3e-06
333.15	0.3	0.000112	1.4e-05
333.15	0.4999	0.000203	2.5e-05
333.15	0.6995	0.000297	3.3e-05
333.15	0.8487	0.000346	3.6e-05

System: 1,2-ethanediol + hexane + water; phases: Liquid mixture 1, Liquid mixture 2
Fixed: Pressure, kPa = 101
Property: Mole fraction of hexane (Liquid mixture 1); method: Chromatography
Temperature, K	Mole fraction of 1,2-ethanediol	Mole fraction of hexane	uncertainty
283.15	0.15	5.31e-06	1.19e-06
283.15	0.3	1.92e-05	3.9e-06
283.15	0.5	5.67e-05	4.48e-05
283.15	0.6997	0.000465	0.000117
283.15	0.8494	0.00075	0.000143
303.15	0.15	1.5e-05	2.5e-06
303.15	0.3	3.94e-05	1.22e-05
303.15	0.4999	0.000179	6e-05
303.15	0.6996	0.000623	0.000154
303.15	0.8491	0.00111	0.00023
333.15	0.15	1.95e-05	3.9e-06
333.15	0.3	6.37e-05	1.76e-05
333.15	0.4999	0.00026	7.1e-05
333.15	0.6995	0.000742	0.000209
333.15	0.8487	0.00153	0.00038

System: 1,2-ethanediol + hexane + water; phases: Liquid mixture 2, Liquid mixture 1
Fixed: Pressure, kPa = 101
Property: Mole fraction of water (Liquid mixture 2); method: Karl Fischer Titration
Temperature, K	Mole fraction of 1,2-ethanediol	Mole fraction of water	uncertainty
283.15	0.15	0.000273	2.3e-05
283.15	0.3	0.000188	1.7e-05
283.15	0.5	0.000167	1.5e-05
283.15	0.6997	0.000128	1.4e-05
283.15	0.8494	0.000117	1.1e-05
303.15	0.15	0.000666	5.4e-05
303.15	0.3	0.000579	4.9e-05
303.15	0.4999	0.000462	4.5e-05
303.15	0.6996	0.000379	5.5e-05
303.15	0.8491	0.000236	8.6e-05
333.15	0.15	0.00113	9e-05
333.15	0.3	0.000942	8.3e-05
333.15	0.4999	0.000728	7.4e-05
333.15	0.6995	0.000573	8e-05
333.15	0.8487	0.000397	0.000105

System: 1,2-ethanediol + 2,2,4-trimethylpentane + water; phases: Liquid mixture 2, Liquid mixture 1
Fixed: Pressure, kPa = 101
Property: Mole fraction of 1,2-ethanediol (Liquid mixture 2); method: Chromatography
Temperature, K	Mole fraction of 1,2-ethanediol	Mole fraction of 1,2-ethanediol	uncertainty
283.15	0.15	8.7e-06	9e-07
283.15	0.3	1.62e-05	1.9e-06
283.15	0.5	2.89e-05	3.3e-06
283.15	0.6997	3.98e-05	4e-06
283.15	0.8494	4.38e-05	4e-06
303.15	0.15	1.57e-05	1.6e-06
303.15	0.3	3.66e-05	4.4e-06
303.15	0.4999	6.56e-05	7.9e-06
303.15	0.6996	9.5e-05	1.12e-05
303.15	0.8491	0.000111	2.5e-05
333.15	0.15	5.58e-05	6.3e-06
333.15	0.3	0.000112	1.4e-05
333.15	0.4999	0.000203	2.5e-05
333.15	0.6995	0.000297	3.3e-05
333.15	0.8487	0.000346	3.6e-05

System: 1,2-ethanediol + 2,2,4-trimethylpentane + water; phases: Liquid mixture 2, Liquid mixture 1
Fixed: Pressure, kPa = 101
Property: Mole fraction of 1,2-ethanediol (Liquid mixture 2); method: Karl Fischer Titration
Temperature, K	Mole fraction of water	Mole fraction of 1,2-ethanediol	uncertainty
283.15	0.15	0.000273	2.3e-05
283.15	0.3	0.000188	1.7e-05
283.15	0.5	0.000167	1.5e-05
283.15	0.6997	0.000128	1.4e-05
283.15	0.8494	0.000117	1.1e-05
303.15	0.15	0.000666	5.4e-05
303.15	0.3	0.000579	4.9e-05
303.15	0.4999	0.000462	4.5e-05
303.15	0.6996	0.000379	5.5e-05
303.15	0.8491	0.000236	8.6e-05
333.15	0.15	0.00113	9e-05
333.15	0.3	0.000942	8.3e-05
333.15	0.4999	0.000728	7.4e-05
333.15	0.6995	0.000573	8e-05
333.15	0.8487	0.000397	0.000105

System: 1,2-ethanediol + 2,2,4-trimethylpentane + water; phases: Liquid mixture 1, Liquid mixture 2
Fixed: Pressure, kPa = 101
Property: Mole fraction of 2,2,4-trimethylpentane (Liquid mixture 1); method: Chromatography
Temperature, K	Mole fraction of 1,2-ethanediol	Mole fraction of 2,2,4-trimethylpentane	uncertainty
283.15	0.15	5.31e-06	1.19e-06
283.15	0.3	1.92e-05	3.9e-06
283.15	0.5	5.67e-05	4.48e-05
283.15	0.6997	0.000465	0.000117
283.15	0.8494	0.00075	0.000143
303.15	0.15	1.5e-05	2.5e-06
303.15	0.3	3.94e-05	1.22e-05
303.15	0.4999	0.000179	6e-05
303.15	0.6996	0.000623	0.000154
303.15	0.8491	0.00111	0.00023
333.15	0.15	1.95e-05	3.9e-06
333.15	0.3	6.37e-05	1.76e-05
333.15	0.4999	0.00026	7.1e-05
333.15	0.6995	0.000742	0.000209
333.15	0.8487	0.00153	0.00038
