Measured thermophysical data. Solubility of Camellianin A in Methanol, Acetonitrile, Acetone, and Water from (283.2 to 313.2) K
Source: J. Chem. Eng. Data, 2010, 10.1021/je900554r
Compound 1: camellianin A, C29H32O15, InChI=1S/C29H32O15/c1-11-22(34)23(35)25(37)28(40-11)44-27-20(10-39-12(2)30)43-29(26(38)24(27)36)42-19-8-15(32)7-18-21(19)16(33)9-17(41-18)13-3-5-14(31)6-4-13/h3-9,11,20,22-29,31-32,34-38H,10H2,1-2H3/t11-,20+,22-,23+,24+,25+,26+,27+,28-,29+/m0/s1
Compound 2: methanol, CH4O, InChI=1S/CH4O/c1-2/h2H,1H3, purity 99%
Compound 3: acetonitrile, C2H3N, InChI=1S/C2H3N/c1-2-3/h1H3, purity 99%
Compound 4: acetone, C3H6O, InChI=1S/C3H6O/c1-3(2)4/h1-2H3, purity 99%
Compound 5: water, H2O, InChI=1S/H2O/h1H2, purity 99.9%

System: water + camellianin A; phases: Liquid mixture 1, Liquid mixture 2
Fixed: Pressure, kPa = 101
Property: Amount concentration (molarity), mol/dm3 (Liquid mixture 1); method: SPECTR
Temperature, K	Amount concentration (molarity), mol/dm3	uncertainty
283.2	9.48e-05	2.8e-06
293.2	0.0001308	3.7e-06
298.2	0.0001567	4.3e-06
303.2	0.0001899	5.1e-06
308.2	0.0002326	6.1e-06
313.2	0.0002879	7.5e-06

System: acetonitrile + camellianin A; phases: Liquid mixture 1, Liquid mixture 2
Fixed: Pressure, kPa = 101
Property: Amount concentration (molarity), mol/dm3 (Liquid mixture 1); method: SPECTR
Temperature, K	Amount concentration (molarity), mol/dm3	uncertainty
283.2	4.27e-05	2.9e-06
293.2	5.82e-05	3.8e-06
298.2	6.41e-05	4.2e-06
303.2	7.47e-05	4.8e-06
308.2	9.25e-05	5.9e-06
313.2	0.000103	7e-06

System: acetone + camellianin A; phases: Liquid mixture 1, Liquid mixture 2
Fixed: Pressure, kPa = 101
Property: Amount concentration (molarity), mol/dm3 (Liquid mixture 1); method: SPECTR
Temperature, K	Amount concentration (molarity), mol/dm3	uncertainty
283.2	2.78e-05	1.2e-06
293.2	2.87e-05	1.3e-06
298.2	3.02e-05	1.3e-06
303.2	3.14e-05	1.3e-06
308.2	3.27e-05	1.3e-06
313.2	3.45e-05	1.4e-06

System: methanol + camellianin A; phases: Liquid mixture 1, Liquid mixture 2
Fixed: Pressure, kPa = 101
Property: Amount concentration (molarity), mol/dm3 (Liquid mixture 1); method: SPECTR
Temperature, K	Amount concentration (molarity), mol/dm3	uncertainty
283.2	0.0116686	0.0004953
293.2	0.0162785	0.0006909
298.2	0.0181743	0.0007713
303.2	0.0194243	0.0008243
308.2	0.0218865	0.0009288
313.2	0.023735	0.001007
