Measured thermophysical data. Critical Parameters and Saturated Densities in the Critical Region for trans-1,3,3,3-Tetrafluoropropene (HFO-1234ze(E))
Source: J. Chem. Eng. Data, 2010, 10.1021/je900696z
Compound 1: trans-1,3,3,3-tetrafluoropropene, C3H2F4, InChI=1S/C3H2F4/c4-2-1-3(5,6)7/h1-2H/b2-1+, purity 99.96%

System: trans-1,3,3,3-tetrafluoropropene; phases: Liquid, Gas
Property: Critical temperature, K (Liquid); method: Visual observation in an unstirred cell
Critical temperature, K	uncertainty
382.51	0.06

System: trans-1,3,3,3-tetrafluoropropene; phases: Liquid, Gas
Property: Critical density, kg/m3 (Liquid); method: Rectilinear diameter
Critical density, kg/m3	uncertainty
486	8

System: trans-1,3,3,3-tetrafluoropropene; phases: Gas, Liquid
Property: Mass density, kg/m3 (Gas); method: ISOCHOR
Temperature, K	Mass density, kg/m3	uncertainty
368.798	193.7	6.2
370.705	208	6.7
372.223	223.2	7.1
373.954	238.8	7.6
376.5	263.1	8.4
377.289	270.9	8.7
379.134	290.9	9.3
379.775	312.2	10
380.502	334	10.7
381.078	342.6	11
381.648	368	11.8
382.079	394.9	12.7
382.35	422.6	14
382.51	479.4	16.9
382.513	485.9	17.4

System: trans-1,3,3,3-tetrafluoropropene; phases: Liquid, Gas
Property: Mass density, kg/m3 (Liquid); method: ISOCHOR
Temperature, K	Mass density, kg/m3	uncertainty
368.204	824.7	13.2
375.337	748.3	12
378.416	699.2	11.2
380.568	651.5	10.4
381.678	606.5	9.7
382.053	591.3	9.6
382.404	552.5	9.4
382.504	514.9	11.2
