Measured thermophysical data. Densities of Ionic Liquid [BMIM][BF4] + Ethanol, + Benzene, and + Acetonitrile at Different Temperature and Pressure
Source: J. Chem. Eng. Data, 2009, 10.1021/je900048r
Compound 1: 1-butyl-3-methylimidazolium tetrafluoroborate, C8H15BF4N2, InChI=1S/C8H15N2.BF4/c1-3-4-5-10-7-6-9(2)8-10;2-1(3,4)5/h6-8H,3-5H2,1-2H3;/q+1;-1
Compound 2: water, H2O, InChI=1S/H2O/h1H2
Compound 3: acetonitrile, C2H3N, InChI=1S/C2H3N/c1-2-3/h1H3
Compound 4: benzene, C6H6, InChI=1S/C6H6/c1-2-4-6-5-3-1/h1-6H
Compound 5: ethanol, C2H6O, InChI=1S/C2H6O/c1-2-3/h3H,2H2,1H3

System: 1-butyl-3-methylimidazolium tetrafluoroborate; phases: Liquid
Property: Mass density, kg/m3 (Liquid); method: Other PVT measurement
Pressure, kPa	Temperature, K	Mass density, kg/m3	uncertainty
100	293.15	1198	12
100	313.15	1183	12
200	313.15	1185	12
200	353.15	1159	12
600	313.15	1186	12
600	353.15	1160	12
600	393.15	1135	11
1000	313.15	1186	12
1000	353.15	1160	12
1000	393.15	1135	11
1000	433.15	1112	11
1400	313.15	1186	12
1400	353.15	1160	12
1400	393.15	1135	11
1400	433.15	1112	11
1800	313.15	1187	12
1800	353.15	1161	12
1800	393.15	1136	11
1800	433.15	1113	11
1800	473.15	1086	11
2000	313.15	1186.93	11.96
2000	353.15	1160.82	11.69
2000	393.15	1135.92	11.44
2000	433.15	1113	11
2000	473.15	1087	11
2000	313.15	1187	12
2000	353.15	1161	12
2000	393.15	1136	11

System: water; phases: Liquid
Property: Mass density, kg/m3 (Liquid); method: Other PVT measurement
Pressure, kPa	Temperature, K	Mass density, kg/m3	uncertainty
200	313.15	993	10
200	353.15	975	10
200	393.15	949	10
400	313.15	994	10
400	353.15	975	10
400	393.15	949	10
800	313.15	994	10
800	373.15	963	10
800	433.15	912	9
1200	313.15	994	10
1200	373.15	963	10
1200	433.15	912	9
1600	313.15	994	10
1600	393.15	950	10
1600	473.15	871	9
2000	313.15	995	10
2000	393.15	950	10
2000	473.15	871	9

System: acetonitrile; phases: Liquid
Property: Mass density, kg/m3 (Liquid); method: Other PVT measurement
Pressure, kPa	Temperature, K	Mass density, kg/m3	uncertainty
200	313.15	755	8
200	353.15	710	7
600	313.15	755	8
600	353.15	711	7
600	393.15	664	7
1000	313.15	756	8
1000	353.15	711	7
1000	393.15	664	7
1000	433.15	611	6
1400	313.15	756	8
1400	353.15	711	7
1400	393.15	665	7
1400	433.15	612	6
1800	313.15	757	8
1800	353.15	712	7
1800	393.15	666	7
1800	433.15	614	6
1800	473.15	550	6
2000	313.15	757	8
2000	353.15	713	7
2000	393.15	666	7
2000	433.15	614	6
2000	473.15	552	6

System: ethanol; phases: Liquid
Property: Mass density, kg/m3 (Liquid); method: Other PVT measurement
Pressure, kPa	Temperature, K	Mass density, kg/m3	uncertainty
200	313.15	770	8
200	353.15	734	7
600	313.15	770	8
600	353.15	734	7
600	393.15	691	7
1000	313.15	770	8
1000	353.15	735	7
1000	393.15	692	7
1400	313.15	771	8
1400	353.15	735	7
1400	393.15	693	7
1400	433.15	638	6
1800	313.15	771	8
1800	353.15	736	7
1800	393.15	694	7
1800	433.15	639	6
2000	313.15	772	8
2000	353.15	738	7
2000	393.15	694	7
2000	433.15	639	6

System: ethanol + 1-butyl-3-methylimidazolium tetrafluoroborate; phases: Liquid
Property: Mass density, kg/m3 (Liquid); method: Other PVT measurement
Pressure, kPa	Temperature, K	Mole fraction of 1-butyl-3-methylimidazolium tetrafluoroborate	Mass density, kg/m3	uncertainty
200	313.15	0	770	8
200	313.15	0.2	965	10
200	313.15	0.3	1022	10
200	313.15	0.3999	1071	11
200	313.15	0.4998	1098	11
200	313.15	0.6	1121	11
200	313.15	0.6996	1142	11
200	313.15	0.8001	1158	12
200	313.15	0.8998	1173	12
200	313.15	1	1185	12
200	353.15	0	734	7
200	353.15	0.2	935	9
200	353.15	0.3	993	10
200	353.15	0.3999	1042	10
200	353.15	0.4998	1070	11
200	353.15	0.6	1094	11
200	353.15	0.6996	1116	11
200	353.15	0.8001	1131	11
200	353.15	0.8998	1147	12
200	353.15	1	1159	12
600	313.15	0	770	8
600	313.15	0.2	966	10
600	313.15	0.3	1023	10
600	313.15	0.3999	1072	11
600	313.15	0.4998	1098	11
600	313.15	0.6	1122	11
600	313.15	0.6996	1142	11
600	313.15	0.8001	1158	12
600	313.15	0.8998	1174	12
600	313.15	1	1186	12
600	353.15	0	734	7
600	353.15	0.2	935	9
600	353.15	0.3	993	10
600	353.15	0.3999	1042	10
600	353.15	0.4998	1071	11
600	353.15	0.6	1094	11
600	353.15	0.6996	1116	11
600	353.15	0.8001	1132	11
600	353.15	0.8998	1147	12
600	353.15	1	1160	12
600	393.15	0	691	7
600	393.15	0.2	904	9
600	393.15	0.3	964	10
600	393.15	0.3999	1014	10
600	393.15	0.4998	1042	10
600	393.15	0.6	1067	11
600	393.15	0.6996	1090	11
600	393.15	0.8001	1106	11
600	393.15	0.8998	1122	11
600	393.15	1	1135	11
1000	313.15	0	770	8
1000	313.15	0.2	966	10
1000	313.15	0.3	1023	10
1000	313.15	0.3999	1072	11
1000	313.15	0.4998	1098	11
1000	313.15	0.6	1122	11
1000	313.15	0.6996	1143	11
1000	313.15	0.8001	1159	12
1000	313.15	0.8998	1174	12
1000	313.15	1	1186	12
1000	353.15	0	735	7
1000	353.15	0.2	935	9
1000	353.15	0.3	993	10
1000	353.15	0.3999	1043	10
1000	353.15	0.4998	1071	11
1000	353.15	0.6	1095	11
1000	353.15	0.6996	1116	11
1000	353.15	0.8001	1132	11
1000	353.15	0.8998	1147	12
1000	353.15	1	1160	12
1000	393.15	0	692	7
1000	393.15	0.2	904	9
1000	393.15	0.3	965	10
1000	393.15	0.3999	1014	10
1000	393.15	0.4998	1043	10
1000	393.15	0.6	1068	11
1000	393.15	0.6996	1090	11
1000	393.15	0.8001	1106	11
1000	393.15	0.8998	1122	11
1000	393.15	1	1135	11
1400	313.15	0	771	8
1400	313.15	0.2	966	10
1400	313.15	0.3	1024	10
1400	313.15	0.3999	1072	11
1400	313.15	0.4998	1099	11
1400	313.15	0.6	1123	11
1400	313.15	0.6996	1144	11
1400	313.15	0.8001	1159	12
1400	313.15	0.8998	1174	12
1400	313.15	1	1186	12
1400	353.15	0	735	7
1400	353.15	0.2	936	9
1400	353.15	0.3	994	10
1400	353.15	0.3999	1043	10
1400	353.15	0.4998	1071	11
1400	353.15	0.6	1095	11
1400	353.15	0.6996	1116	11
1400	353.15	0.8001	1133	11
1400	353.15	0.8998	1147	12
1400	353.15	1	1160	12
1400	393.15	0	693	7
1400	393.15	0.2	905	9
1400	393.15	0.3	965	10
1400	393.15	0.3999	1015	10
1400	393.15	0.4998	1043	10
1400	393.15	0.6	1068	11
1400	393.15	0.6996	1090	11
1400	393.15	0.8001	1107	11
1400	393.15	0.8998	1122	11
1400	393.15	1	1135	11
1400	433.15	0	638	6
1400	433.15	0.2	871	9
1400	433.15	0.3	935	9
1400	433.15	0.3999	987	10
1400	433.15	0.4998	1016	10
1400	433.15	0.6	1041	10
1400	433.15	0.6996	1065	11
1400	433.15	0.8001	1081	11
1400	433.15	0.8998	1097	11
1400	433.15	1	1112	11
1800	313.15	0	771	8
1800	313.15	0.2	967	10
1800	313.15	0.3	1024	10
1800	313.15	0.3999	1073	11
1800	313.15	0.4998	1099	11
1800	313.15	0.6	1123	11
1800	313.15	0.6996	1144	11
1800	313.15	0.8001	1160	12
1800	313.15	0.8998	1174	12
1800	313.15	1	1187	12
1800	353.15	0	736	7
1800	353.15	0.2	936	9
1800	353.15	0.3	994	10
1800	353.15	0.3999	1043	10
1800	353.15	0.4998	1071	11
1800	353.15	0.6	1095	11
1800	353.15	0.6996	1116	11
1800	353.15	0.8001	1133	11
1800	353.15	0.8998	1148	12
1800	353.15	1	1161	12
1800	393.15	0	694	7
1800	393.15	0.2	905	9
1800	393.15	0.3	965	10
1800	393.15	0.3999	1015	10
1800	393.15	0.4998	1044	10
1800	393.15	0.6	1069	11
1800	393.15	0.6996	1091	11
1800	393.15	0.8001	1107	11
1800	393.15	0.8998	1123	11
1800	393.15	1	1136	11
1800	433.15	0	639	6
1800	433.15	0.2	872	9
1800	433.15	0.3	935	9
1800	433.15	0.3999	987	10
1800	433.15	0.4998	1017	10
1800	433.15	0.6	1042	10
1800	433.15	0.6996	1066	11
1800	433.15	0.8001	1082	11
1800	433.15	0.8998	1097	11
1800	433.15	1	1113	11
2000	313.15	0	772	8
2000	313.15	0.2	967	10
2000	313.15	0.3	1024	10
2000	313.15	0.3999	1073	11
2000	313.15	0.4998	1102	11
2000	313.15	0.6	1123	11
2000	313.15	0.6996	1144	11
2000	313.15	0.8001	1160	12
2000	313.15	0.8998	1175	12
2000	313.15	1	1187	12
2000	353.15	0	738	7
2000	353.15	0.2	937	9
2000	353.15	0.3	994	10
2000	353.15	0.3999	1043	10
2000	353.15	0.4998	1072	11
2000	353.15	0.6	1096	11
2000	353.15	0.6996	1117	11
2000	353.15	0.8001	1133	11
2000	353.15	0.8998	1148	12
2000	353.15	1	1161	12
2000	393.15	0	694	7
2000	393.15	0.2	905	9
2000	393.15	0.3	966	10
2000	393.15	0.3999	1015	10
2000	393.15	0.4998	1044	10
2000	393.15	0.6	1069	11
2000	393.15	0.6996	1091	11
2000	393.15	0.8001	1108	11
2000	393.15	0.8998	1123	11
2000	393.15	1	1136	11
2000	433.15	0	639	6
2000	433.15	0.2	872	9
2000	433.15	0.3	935	9
2000	433.15	0.3999	987	10
2000	433.15	0.4998	1017	10
2000	433.15	0.6	1042	10
2000	433.15	0.6996	1066	11
2000	433.15	0.8001	1082	11
2000	433.15	0.8998	1098	11
2000	433.15	1	1113	11

System: benzene + 1-butyl-3-methylimidazolium tetrafluoroborate; phases: Liquid
Property: Mass density, kg/m3 (Liquid); method: Other PVT measurement
Pressure, kPa	Temperature, K	Mole fraction of 1-butyl-3-methylimidazolium tetrafluoroborate	Mass density, kg/m3	uncertainty
200	313.15	0.5	1111	11
200	313.15	0.5999	1129	11
200	313.15	0.7001	1145	12
200	313.15	0.8	1158	12
200	313.15	0.8999	1172	12
200	313.15	1	1185	12
200	353.15	0.5	1082	11
200	353.15	0.5999	1102	11
200	353.15	0.7001	1118	11
200	353.15	0.8	1131	11
200	353.15	0.8999	1145	12
200	353.15	1	1159	12
600	313.15	0.5	1111	11
600	313.15	0.5999	1130	11
600	313.15	0.7001	1145	12
600	313.15	0.8	1158	12
600	313.15	0.8999	1172	12
600	313.15	1	1186	12
600	353.15	0.5	1082	11
600	353.15	0.5999	1103	11
600	353.15	0.7001	1118	11
600	353.15	0.8	1131	11
600	353.15	0.8999	1145	12
600	353.15	1	1160	12
600	393.15	0.5	1055	11
600	393.15	0.5999	1076	11
600	393.15	0.7001	1092	11
600	393.15	0.8	1106	11
600	393.15	0.8999	1120	11
600	393.15	1	1135	11
1000	313.15	0.5	1111	11
1000	313.15	0.5999	1130	11
1000	313.15	0.7001	1146	12
1000	313.15	0.8	1158	12
1000	313.15	0.8999	1173	12
1000	313.15	1	1186	12
1000	353.15	0.5	1083	11
1000	353.15	0.5999	1103	11
1000	353.15	0.7001	1118	11
1000	353.15	0.8	1131	11
1000	353.15	0.8999	1145	12
1000	353.15	1	1160	12
1000	393.15	0.5	1055	11
1000	393.15	0.5999	1076	11
1000	393.15	0.7001	1092	11
1000	393.15	0.8	1106	11
1000	393.15	0.8999	1120	11
1000	393.15	1	1135	11
1400	313.15	0.5	1111	11
1400	313.15	0.5999	1131	11
1400	313.15	0.7001	1146	12
1400	313.15	0.8	1159	12
1400	313.15	0.8999	1173	12
1400	313.15	1	1186	12
1400	353.15	0.5	1083	11
1400	353.15	0.5999	1103	11
1400	353.15	0.7001	1118	11
1400	353.15	0.8	1132	11
1400	353.15	0.8999	1146	12
1400	353.15	1	1160	12
1400	393.15	0.5	1055	11
1400	393.15	0.5999	1077	11
1400	393.15	0.7001	1092	11
1400	393.15	0.8	1106	11
1400	393.15	0.8999	1120	11
1400	393.15	1	1135	11
1400	433.15	0.5	1028	10
1400	433.15	0.5999	1050	11
1400	433.15	0.7001	1066	11
1400	433.15	0.8	1080	11
1400	433.15	0.8999	1096	11
1400	433.15	1	1112	11
1800	313.15	0.5	1111	11
1800	313.15	0.5999	1131	11
1800	313.15	0.7001	1147	12
1800	313.15	0.8	1159	12
1800	313.15	0.8999	1173	12
1800	313.15	1	1187	12
1800	353.15	0.5	1084	11
1800	353.15	0.5999	1104	11
1800	353.15	0.7001	1119	11
1800	353.15	0.8	1132	11
1800	353.15	0.8999	1146	12
1800	353.15	1	1161	12
1800	393.15	0.5	1056	11
1800	393.15	0.5999	1077	11
1800	393.15	0.7001	1092	11
1800	393.15	0.8	1106	11
1800	393.15	0.8999	1121	11
1800	393.15	1	1136	11
1800	433.15	0.5	1029	10
1800	433.15	0.5999	1050	11
1800	433.15	0.7001	1067	11
1800	433.15	0.8	1081	11
1800	433.15	0.8999	1096	11
1800	433.15	1	1113	11
2000	313.15	0.5	1111	11
2000	313.15	0.5999	1132	11
2000	313.15	0.7001	1147	12
2000	313.15	0.8	1159	12
2000	313.15	0.8999	1173	12
2000	313.15	1	1187	12
2000	353.15	0.5	1084	11
2000	353.15	0.5999	1104	11
2000	353.15	0.7001	1119	11
2000	353.15	0.8	1132	11
2000	353.15	0.8999	1146	12
2000	353.15	1	1161	12
2000	393.15	0.5	1056	11
2000	393.15	0.5999	1078	11
2000	393.15	0.7001	1093	11
2000	393.15	0.8	1106	11
2000	393.15	0.8999	1121	11
2000	393.15	1	1136	11
2000	433.15	0.5	1029	10
2000	433.15	0.5999	1051	11
2000	433.15	0.7001	1067	11
2000	433.15	0.8	1081	11
2000	433.15	0.8999	1096	11
2000	433.15	1	1113	11

System: acetonitrile + 1-butyl-3-methylimidazolium tetrafluoroborate; phases: Liquid
Property: Mass density, kg/m3 (Liquid); method: Other PVT measurement
Pressure, kPa	Temperature, K	Mole fraction of 1-butyl-3-methylimidazolium tetrafluoroborate	Mass density, kg/m3	uncertainty
200	313.15	0	755	8
200	313.15	0.1	893	9
200	313.15	0.2	980	10
200	313.15	0.3	1040	10
200	313.15	0.4	1077	11
200	313.15	0.5	1105	11
200	313.15	0.6	1127	11
200	313.15	0.6999	1146	12
200	313.15	0.7998	1161	12
200	313.15	0.8993	1175	12
200	313.15	1	1185	12
200	353.15	0	710	7
200	353.15	0.1	857	9
200	353.15	0.2	947	10
200	353.15	0.3	1008	10
200	353.15	0.4	1047	10
200	353.15	0.5	1076	11
200	353.15	0.6	1098	11
200	353.15	0.6999	1118	11
200	353.15	0.7998	1134	11
200	353.15	0.8993	1148	12
200	353.15	1	1159	12
600	313.15	0	755	8
600	313.15	0.1	894	9
600	313.15	0.2	981	10
600	313.15	0.3	1041	10
600	313.15	0.4	1078	11
600	313.15	0.5	1106	11
600	313.15	0.6	1127	11
600	313.15	0.6999	1147	12
600	313.15	0.7998	1162	12
600	313.15	0.8993	1175	12
600	313.15	1	1186	12
600	353.15	0	711	7
600	353.15	0.1	858	9
600	353.15	0.2	948	10
600	353.15	0.3	1009	10
600	353.15	0.4	1047	10
600	353.15	0.5	1076	11
600	353.15	0.6	1099	11
600	353.15	0.6999	1119	11
600	353.15	0.7998	1134	11
600	353.15	0.8993	1148	12
600	353.15	1	1160	12
600	393.15	0	664	7
600	393.15	0.1	820	8
600	393.15	0.2	914	9
600	393.15	0.3	978	10
600	393.15	0.4	1018	10
600	393.15	0.5	1048	11
600	393.15	0.6	1072	11
600	393.15	0.6999	1092	11
600	393.15	0.7998	1108	11
600	393.15	0.8993	1123	11
600	393.15	1	1135	11
1000	313.15	0	756	8
1000	313.15	0.1	895	9
1000	313.15	0.2	982	10
1000	313.15	0.3	1041	10
1000	313.15	0.4	1078	11
1000	313.15	0.5	1106	11
1000	313.15	0.6	1128	11
1000	313.15	0.6999	1147	12
1000	313.15	0.7998	1162	12
1000	313.15	0.8993	1175	12
1000	313.15	1	1186	12
1000	353.15	0	711	7
1000	353.15	0.1	858	9
1000	353.15	0.2	948	10
1000	353.15	0.3	1009	10
1000	353.15	0.4	1048	11
1000	353.15	0.5	1077	11
1000	353.15	0.6	1099	11
1000	353.15	0.6999	1119	11
1000	353.15	0.7998	1134	11
1000	353.15	0.8993	1148	12
1000	353.15	1	1160	12
1000	393.15	0	664	7
1000	393.15	0.1	821	8
1000	393.15	0.2	915	9
1000	393.15	0.3	978	10
1000	393.15	0.4	1018	10
1000	393.15	0.5	1048	11
1000	393.15	0.6	1072	11
1000	393.15	0.6999	1092	11
1000	393.15	0.7998	1108	11
1000	393.15	0.8993	1123	11
1000	393.15	1	1135	11
1000	433.15	0	611	6
1000	433.15	0.1	781	8
1000	433.15	0.2	881	9
1000	433.15	0.3	947	9
1000	433.15	0.4	989	10
1000	433.15	0.5	1021	10
1000	433.15	0.6	1045	10
1000	433.15	0.6999	1066	11
1000	433.15	0.7998	1082	11
1000	433.15	0.8993	1098	11
1000	433.15	1	1112	11
1400	313.15	0	756	8
1400	313.15	0.1	895	9
1400	313.15	0.2	982	10
1400	313.15	0.3	1041	10
1400	313.15	0.4	1079	11
1400	313.15	0.5	1106	11
1400	313.15	0.6	1128	11
1400	313.15	0.6999	1147	12
1400	313.15	0.7998	1162	12
1400	313.15	0.8993	1175	12
1400	313.15	1	1186	12
1400	353.15	0	711	7
1400	353.15	0.1	858	9
1400	353.15	0.2	948	10
1400	353.15	0.3	1010	10
1400	353.15	0.4	1048	11
1400	353.15	0.5	1077	11
1400	353.15	0.6	1100	11
1400	353.15	0.6999	1119	11
1400	353.15	0.7998	1134	11
1400	353.15	0.8993	1149	12
1400	353.15	1	1160	12
1400	393.15	0	665	7
1400	393.15	0.1	821	8
1400	393.15	0.2	915	9
1400	393.15	0.3	979	10
1400	393.15	0.4	1019	10
1400	393.15	0.5	1048	11
1400	393.15	0.6	1073	11
1400	393.15	0.6999	1092	11
1400	393.15	0.7998	1108	11
1400	393.15	0.8993	1123	11
1400	393.15	1	1135	11
1400	433.15	0	612	6
1400	433.15	0.1	782	8
1400	433.15	0.2	882	9
1400	433.15	0.3	948	10
1400	433.15	0.4	990	10
1400	433.15	0.5	1021	10
1400	433.15	0.6	1045	10
1400	433.15	0.6999	1066	11
1400	433.15	0.7998	1082	11
1400	433.15	0.8993	1098	11
1400	433.15	1	1112	11
1800	313.15	0	757	8
1800	313.15	0.1	895	9
1800	313.15	0.2	983	10
1800	313.15	0.3	1041	10
1800	313.15	0.4	1079	11
1800	313.15	0.5	1106	11
1800	313.15	0.6	1128	11
1800	313.15	0.6999	1147	12
1800	313.15	0.7998	1163	12
1800	313.15	0.8993	1176	12
1800	313.15	1	1187	12
1800	353.15	0	712	7
1800	353.15	0.1	859	9
1800	353.15	0.2	949	10
1800	353.15	0.3	1010	10
1800	353.15	0.4	1049	11
1800	353.15	0.5	1077	11
1800	353.15	0.6	1100	11
1800	353.15	0.6999	1120	11
1800	353.15	0.7998	1134	11
1800	353.15	0.8993	1149	12
1800	353.15	1	1161	12
1800	393.15	0	666	7
1800	393.15	0.1	822	8
1800	393.15	0.2	915	9
1800	393.15	0.3	979	10
1800	393.15	0.4	1019	10
1800	393.15	0.5	1049	11
1800	393.15	0.6	1073	11
1800	393.15	0.6999	1093	11
1800	393.15	0.7998	1108	11
1800	393.15	0.8993	1123	11
1800	393.15	1	1136	11
1800	433.15	0	614	6
1800	433.15	0.1	783	8
1800	433.15	0.2	882	9
1800	433.15	0.3	948	10
1800	433.15	0.4	990	10
1800	433.15	0.5	1021	10
1800	433.15	0.6	1046	10
1800	433.15	0.6999	1067	11
1800	433.15	0.7998	1083	11
1800	433.15	0.8993	1098	11
1800	433.15	1	1113	11
1800	473.15	0	550	6
1800	473.15	0.1	741	7
1800	473.15	0.2	847	9
1800	473.15	0.3	917	9
1800	473.15	0.4	960	10
1800	473.15	0.5	993	10
1800	473.15	0.6	1018	10
1800	473.15	0.6999	1040	10
1800	473.15	0.7998	1057	11
1800	473.15	0.8993	1072	11
1800	473.15	1	1086	11
2000	313.15	0	757	8
2000	313.15	0.1	896	9
2000	313.15	0.2	983	10
2000	313.15	0.3	1042	10
2000	313.15	0.4	1079	11
2000	313.15	0.5	1107	11
2000	313.15	0.6	1129	11
2000	313.15	0.6999	1148	12
2000	313.15	0.7998	1163	12
2000	313.15	0.8993	1176	12
2000	313.15	1	1187	12
2000	353.15	0	713	7
2000	353.15	0.1	859	9
2000	353.15	0.2	949	10
2000	353.15	0.3	1010	10
2000	353.15	0.4	1049	11
2000	353.15	0.5	1078	11
2000	353.15	0.6	1100	11
2000	353.15	0.6999	1120	11
2000	353.15	0.7998	1135	11
2000	353.15	0.8993	1149	12
2000	353.15	1	1161	12
2000	393.15	0	666	7
2000	393.15	0.1	822	8
2000	393.15	0.2	916	9
2000	393.15	0.3	979	10
2000	393.15	0.4	1019	10
2000	393.15	0.5	1049	11
2000	393.15	0.6	1073	11
2000	393.15	0.6999	1093	11
2000	393.15	0.7998	1108	11
2000	393.15	0.8993	1124	11
2000	393.15	1	1136	11
2000	433.15	0	614	6
2000	433.15	0.1	783	8
2000	433.15	0.2	882	9
2000	433.15	0.3	949	10
2000	433.15	0.4	990	10
2000	433.15	0.5	1021	10
2000	433.15	0.6	1046	10
2000	433.15	0.6999	1067	11
2000	433.15	0.7998	1083	11
2000	433.15	0.8993	1099	11
2000	433.15	1	1113	11
2000	473.15	0	552	6
2000	473.15	0.1	742	7
2000	473.15	0.2	848	9
2000	473.15	0.3	917	9
2000	473.15	0.4	960	10
2000	473.15	0.5	993	10
2000	473.15	0.6	1019	10
2000	473.15	0.6999	1041	10
2000	473.15	0.7998	1057	11
2000	473.15	0.8993	1073	11
2000	473.15	1	1087	11
