Measured thermophysical data. Vapor-Liquid Equilibria in Binary Systems Formed by Cyclohexane with Alcohols
Source: J. Chem. Eng. Data, 2009, 10.1021/je900050z
Compound 1: cyclohexane, C6H12, InChI=1S/C6H12/c1-2-4-6-5-3-1/h1-6H2, purity 99.95%
Compound 2: butan-2-ol, C4H10O, InChI=1S/C4H10O/c1-3-4(2)5/h4-5H,3H2,1-2H3, purity 99.95%
Compound 3: pentan-2-ol, C5H12O, InChI=1S/C5H12O/c1-3-4-5(2)6/h5-6H,3-4H2,1-2H3, purity 99.95%
Compound 4: 2-methylbutan-2-ol, C5H12O, InChI=1S/C5H12O/c1-4-5(2,3)6/h6H,4H2,1-3H3, purity 99.95%
Compound 5: hexan-1-ol, C6H14O, InChI=1S/C6H14O/c1-2-3-4-5-6-7/h7H,2-6H2,1H3, purity 99.95%

System: cyclohexane; phases: Liquid, Gas
Property: Vapor or sublimation pressure, kPa (Liquid); method: EBULLIO:UFactor:4
Temperature, K	Vapor or sublimation pressure, kPa	uncertainty
295.42	11.15	0.89
295.455	11.16	0.89
295.46	11.17	0.89
295.72	11.33	0.91
295.745	11.35	0.91
296.22	11.63	0.93
297.08	12.15	0.97
297.13	12.16	0.97
297.135	12.17	0.97
297.86	12.61	1.01
297.985	12.71	1.02
298.835	13.23	1.06
299.75	13.8	1.1
299.77	13.81	1.11
300.853	14.52	1.16
302.63	15.71	1.26
303.025	16.03	1.28
303.15	16.11	1.29
304.38	17.04	1.36
304.4	17.05	1.36
304.417	17.07	1.37
306.045	18.33	1.47
306.4	18.6	1.49
307.45	19.4	1.55
308.06	19.91	1.59
309.495	21.12	1.69
310.98	22.47	1.8
312.48	23.89	1.91
313.15	24.56	1.97
313.84	25.25	2.02
315.01	26.47	2.12
315.26	26.67	2.13
316.32	27.88	2.23
317.515	29.23	2.34
318.315	30.09	2.41
318.665	30.56	2.45
319.815	31.93	2.55
320.872	33.27	2.66
321.908	34.59	2.77
321.99	34.69	2.78
322.94	35.95	2.88
323.15	36.27	2.9
323.44	36.59	2.93
323.885	37.23	2.98
323.95	37.33	2.99
324.83	38.56	3.09
326.125	40.45	3.24
326.675	41.25	3.3
327.605	42.68	3.41
328.43	43.97	3.52
329.325	45.4	3.63
329.345	45.43	3.63
330.05	46.59	3.73
330.937	48.07	3.85
331.68	49.32	3.95
332.02	49.89	3.99
332.412	50.6	4.05
333.11	51.87	4.15
333.15	51.92	4.15
333.83	53.15	4.25
333.855	53.19	4.26
334.53	54.47	4.36
335.265	55.85	4.47
335.64	56.56	4.53
335.955	57.19	4.58
336.7	58.63	4.69
337.36	59.96	4.8
338.055	61.39	4.91
338.065	61.4	4.91
338.655	62.63	5.01
338.665	62.64	5.01
339.285	63.95	5.12
339.915	65.29	5.22
340.535	66.63	5.33
341.123	67.95	5.44
341.722	69.29	5.54
342.32	70.65	5.65
342.875	71.93	5.75
343.15	72.6	5.81
343.43	73.25	5.86
344.05	74.73	5.98
344.55	75.96	6.08
345.085	77.27	6.18
345.69	78.76	6.3
346.18	80	6.4
346.667	81.25	6.5
347.175	82.56	6.61
347.18	82.57	6.61
347.685	83.89	6.71
348.19	85.23	6.82
348.655	86.49	6.92
349.19	87.93	7.03
349.718	89.43	7.15
350.175	90.64	7.25
350.25	90.87	7.27
350.67	92.07	7.37
351.095	93.27	7.46
351.572	94.63	7.57
352.008	95.92	7.67
352.45	97.23	7.78
352.905	98.57	7.89
353.15	99.31	7.95
353.363	99.95	8

System: butan-2-ol; phases: Liquid, Gas
Property: Vapor or sublimation pressure, kPa (Liquid); method: EBULLIO:UFactor:4
Temperature, K	Vapor or sublimation pressure, kPa	uncertainty
314.47	6.08	0.49
315.36	6.43	0.52
316.21	6.81	0.55
317.61	7.45	0.6
318.57	7.92	0.63
319.37	8.35	0.67
319.58	8.45	0.68
320.18	8.77	0.7
321.05	9.23	0.74
322.03	9.8	0.78
322.68	10.19	0.82
323.15	10.48	0.84
323.41	10.64	0.85
324.05	11.04	0.88
324.72	11.47	0.92
325.27	11.84	0.95
325.92	12.31	0.99
326.66	12.81	1.03
327.32	13.16	1.05
328.28	14.03	1.12
329.05	14.61	1.17
329.91	15.31	1.23
330.49	15.79	1.26
331.11	16.31	1.31
331.58	16.71	1.34
332.17	17.25	1.38
332.81	17.87	1.43
333.15	18.2	1.46
333.28	18.33	1.47
333.65	18.68	1.49
334.23	19.24	1.54
334.69	19.71	1.58
335.19	20.2	1.62
335.69	20.71	1.66
336.28	21.33	1.71
336.77	21.85	1.75
337.23	22.35	1.79
337.72	22.87	1.83
338.08	23.28	1.86
338.6	23.87	1.91
339.07	24.43	1.95
339.5	24.95	2
339.9	25.43	2.03
340.34	25.97	2.08
340.95	26.79	2.14
341.4	27.36	2.19
341.87	27.99	2.24
342.34	28.63	2.29
342.89	29.37	2.35
343.15	29.76	2.38
343.32	29.97	2.4
343.81	30.67	2.45
344.25	31.31	2.51
344.71	31.99	2.56
345.145	32.63	2.61
345.6	33.33	2.67
346.025	33.99	2.72
346.455	34.67	2.77
346.86	35.32	2.83
347.28	36.01	2.88
347.65	36.63	2.93
348.055	37.31	2.99
348.455	37.99	3.04
348.845	38.64	3.09
349.21	39.29	3.14
349.585	39.95	3.2
350.155	40.97	3.28
350.745	42.05	3.36
351.255	43.03	3.44
351.74	43.96	3.52
352.265	44.97	3.6
353.085	46.6	3.73
353.15	46.75	3.74
353.6	47.65	3.81
354.06	48.61	3.89
354.53	49.61	3.97
355	50.63	4.05
355.455	51.63	4.13
355.805	52.39	4.19
356.23	53.33	4.27
356.8	54.63	4.37
357.37	55.96	4.48
357.99	57.41	4.59
358.5	58.67	4.69
359.055	60.03	4.8
359.615	61.41	4.91
360.13	62.73	5.02
360.61	63.97	5.12
361.095	65.29	5.22
361.64	66.71	5.34
362.1	67.99	5.44
362.63	69.43	5.55
363.075	70.69	5.66
363.575	72.12	5.77
364	73.36	5.87
364.475	74.72	5.98
364.9	76	6.08
365.333	77.31	6.19
365.763	78.65	6.29
366.18	79.95	6.4
366.632	81.35	6.51
367.043	82.63	6.61
367.47	84.03	6.72
367.885	85.39	6.83
368.27	86.71	6.94
368.68	88.05	7.04
369.08	89.41	7.15
369.43	90.67	7.25
369.79	91.91	7.35
370.195	93.33	7.47
370.555	94.44	7.56
370.94	96	7.68
371.32	97.35	7.79
371.65	98.59	7.89

System: pentan-2-ol; phases: Liquid, Gas
Property: Vapor or sublimation pressure, kPa (Liquid); method: EBULLIO:UFactor:8
Temperature, K	Vapor or sublimation pressure, kPa	uncertainty
323.84	4.16	0.34
324.195	4.41	0.36
324.55	4.39	0.36
325.09	4.67	0.38
325.995	4.93	0.4
326.22	4.89	0.4
326.99	5.27	0.43
327.15	5.2	0.42
327.64	5.43	0.44
328.19	5.71	0.46
328.225	5.64	0.46
329.05	5.91	0.48
329.105	5.95	0.48
329.11	6.04	0.49
329.66	6.16	0.5
329.9	6.33	0.51
330.86	6.71	0.54
331.78	7.08	0.57
332.29	7.17	0.58
332.55	7.4	0.6
332.61	7.31	0.59
332.92	7.43	0.6
333.15	7.52	0.6
333.365	7.76	0.62
333.88	7.99	0.64
334.61	8.33	0.67
335.52	8.77	0.7
336.34	9.17	0.74
336.37	9.19	0.74
337.2	9.59	0.77
337.85	9.95	0.8
338.74	10.43	0.84
339.44	10.81	0.87
340.1	11.21	0.9
340.82	11.67	0.94
341.54	12.11	0.97
342.2	12.52	1
342.83	12.77	1.02
342.88	12.97	1.04
343.15	13	1.04
343.26	13.07	1.05
343.3	13.11	1.05
343.38	13.16	1.05
344.38	13.99	1.12
345.27	14.65	1.17
346.15	15.31	1.23
347.02	15.96	1.28
347.795	16.63	1.33
348.68	17.32	1.39
349.38	17.95	1.44
350.16	18.63	1.49
350.93	19.31	1.55
351.64	19.96	1.6
351.875	20	1.6
352.335	20.43	1.64
352.6	20.65	1.65
352.7	20.72	1.66
352.765	20.83	1.67
352.895	20.96	1.68
353.05	21.12	1.69
353.095	21.19	1.7
353.15	21.2	1.7
353.35	21.4	1.71
354.115	22.16	1.77
354.72	22.83	1.83
355.42	23.55	1.89
355.92	24.12	1.93
356.39	24.44	1.96
356.55	24.84	1.99
357.15	25.47	2.04
357.76	26.2	2.1
357.79	26	2.08
358.23	26.75	2.14
358.83	27.45	2.2
358.88	27.32	2.19
359.01	27.45	2.2
359.53	28.19	2.26
359.91	28.67	2.29
360.35	29.25	2.34
360.495	29.41	2.35
361.125	30.29	2.42
361.45	30.68	2.46
362.1	31.59	2.53
362.495	32.13	2.57
362.93	32.73	2.62
363.38	33.35	2.67
363.845	34.05	2.73
364.28	34.64	2.77
364.84	35.47	2.84
365.13	35.95	2.88
365.625	36.71	2.94
366.015	37.32	2.99
366.4	37.95	3.04
366.86	38.64	3.09
367.24	39.31	3.15
367.65	39.97	3.2
368.06	40.64	3.25
368.435	41.27	3.3
368.85	41.96	3.36
369.315	42.73	3.42
369.58	43.23	3.46
370.05	44.05	3.53
370.46	44.75	3.58
370.74	45.4	3.63
371.075	45.91	3.67
371.47	46.64	3.73
371.82	47.45	3.8
372.15	47.93	3.84
372.505	48.64	3.89
372.91	49.31	3.95
373.16	49.87	3.99
373.575	50.71	4.06
373.88	51.25	4.1
374.25	52.03	4.16
374.47	52.55	4.21
374.85	53.37	4.27
375.145	53.95	4.32
375.445	54.67	4.37
375.83	55.37	4.43
376.13	56.01	4.48
376.47	56.71	4.54
376.74	57.36	4.59
377.07	58	4.64
377.325	58.64	4.69
377.65	59.32	4.75
377.91	59.97	4.8
378.22	60.67	4.85
378.56	61.4	4.91
378.805	61.97	4.96
379.035	62.61	5.01
379.39	63.39	5.07
379.6	63.91	5.11
379.895	64.6	5.17
380.13	65.2	5.22
380.47	65.99	5.28
380.705	66.63	5.33
381	67.31	5.39
381.26	68.01	5.44
381.53	68.67	5.49
381.765	69.31	5.55
382.08	70.21	5.62
382.28	70.63	5.65
382.545	71.31	5.71
382.78	71.95	5.76
383.045	72.65	5.81
383.29	73.35	5.87
383.53	73.93	5.92
383.765	74.63	5.97
384.09	75.48	6.04
384.26	75.99	6.08
384.495	76.63	6.13
384.74	77.35	6.19
384.95	77.93	6.24
385.42	79.27	6.34
385.65	80	6.4
385.87	80.56	6.45
386.24	81.79	6.54
386.32	81.88	6.55
386.54	82.68	6.62
386.765	83.23	6.66
386.96	84.05	6.73
387.37	85.27	6.82
387.795	86.61	6.93
388.23	88	7.04
388.66	89.39	7.15
389.07	90.69	7.26
389.51	92.16	7.37
389.9	93.44	7.48
390.26	94.61	7.57
390.655	95.95	7.68
391.045	97.27	7.78
391.46	98.71	7.9

System: 2-methylbutan-2-ol; phases: Liquid, Gas
Property: Vapor or sublimation pressure, kPa (Liquid); method: EBULLIO:UFactor:4
Temperature, K	Vapor or sublimation pressure, kPa	uncertainty
303.29	2.81	0.23
303.47	2.85	0.23
304.67	3.16	0.25
305.75	3.4	0.27
305.9	3.43	0.28
308.35	4.08	0.33
309.12	4.31	0.35
309.86	4.55	0.37
310.61	4.8	0.39
311.64	5.15	0.41
312.47	5.43	0.44
313.38	5.77	0.46
314.17	6.08	0.49
315.44	6.59	0.53
317.09	7.31	0.59
318.64	7.99	0.64
319.37	8.36	0.67
319.86	8.61	0.69
320.32	8.84	0.71
321.32	9.36	0.75
322.44	9.99	0.8
323.15	10.41	0.83
323.275	10.49	0.84
324.11	11.03	0.88
324.91	11.51	0.92
325.71	12.03	0.96
326.45	12.55	1
327.18	13.05	1.04
327.625	13.36	1.07
328.41	13.97	1.12
329.33	14.65	1.17
330.15	15.31	1.23
330.98	15.97	1.28
331.8	16.67	1.33
332.46	17.29	1.38
333.15	17.87	1.43
333.265	17.99	1.44
333.985	18.65	1.49
334.695	19.32	1.55
335.455	20.03	1.6
336.05	20.67	1.65
336.68	21.31	1.71
337.31	21.96	1.76
337.97	22.63	1.81
338.69	23.47	1.88
339.15	23.97	1.92
339.68	24.67	1.97
340.31	25.35	2.03
340.83	26	2.08
341.39	26.67	2.13
341.9	27.33	2.19
342.4	27.97	2.24
342.92	28.67	2.29
343.15	28.95	2.32
343.42	29.31	2.35
343.94	30.01	2.4
344.47	30.67	2.45
344.91	31.35	2.51
345.39	32.07	2.57
345.78	32.67	2.61
346.35	33.48	2.68
347.18	34.67	2.77
347.57	35.32	2.83
348.07	36.07	2.89
348.49	36.71	2.94
348.88	37.36	2.99
349.27	38.01	3.04
349.64	38.64	3.09
350.08	39.32	3.15
350.49	39.96	3.2
350.83	40.64	3.25
351.2	41.31	3.31
351.67	42.08	3.37
351.95	42.65	3.41
352.295	43.35	3.47
352.73	44	3.52
353.02	44.65	3.57
353.15	44.87	3.59
353.44	45.35	3.63
353.73	45.97	3.68
354.095	46.63	3.73
354.41	47.28	3.78
354.72	47.95	3.84
355.11	48.65	3.89
355.425	49.31	3.95
355.74	49.95	4
356.09	50.75	4.06
356.45	51.36	4.11
356.69	52	4.16
356.99	52.61	4.21
357.35	53.32	4.27
357.67	54.03	4.32
357.96	54.67	4.37
358.25	55.35	4.43
358.47	55.95	4.48
358.85	56.63	4.53
359.15	57.33	4.59
359.48	58	4.64
359.68	58.59	4.69
360.01	59.27	4.74
360.21	59.95	4.8
360.53	60.59	4.85
360.83	61.27	4.9
361.11	61.99	4.96
361.4	62.61	5.01
361.72	63.35	5.07
362.01	64.04	5.12
362.24	64.67	5.17
362.54	65.35	5.23
362.84	66	5.28
363.07	66.71	5.34
363.56	67.92	5.43
364.15	69.21	5.54
364.62	70.64	5.65
365.21	71.99	5.76
365.73	73.37	5.87
366.16	74.75	5.98
366.67	76.05	6.08
367.11	77.28	6.18
367.53	78.63	6.29
368.02	79.97	6.4
368.44	81.28	6.5
368.83	82.53	6.6
369.31	83.93	6.71
369.73	85.28	6.82
370.15	86.63	6.93
370.56	87.97	7.04
370.99	89.39	7.15
371.39	90.76	7.26
371.77	91.99	7.36
372.16	93.31	7.47
372.56	94.67	7.57
372.95	95.99	7.68
373.34	97.39	7.79
373.73	98.71	7.9

System: hexan-1-ol; phases: Liquid, Gas
Property: Vapor or sublimation pressure, kPa (Liquid); method: EBULLIO:UFactor:4
Temperature, K	Vapor or sublimation pressure, kPa	uncertainty
343.46	2.04	0.17
344.2	2.16	0.18
344.595	2.23	0.18
345.36	2.35	0.19
346.165	2.47	0.2
347.27	2.67	0.22
348.1	2.79	0.23
348.35	2.85	0.23
349.375	3.04	0.25
349.75	3.11	0.25
350.75	3.32	0.27
351.39	3.44	0.28
352.2	3.64	0.29
352.635	3.73	0.3
353.005	3.83	0.31
353.315	3.89	0.31
353.82	3.96	0.32
355.205	4.31	0.35
357.015	4.79	0.38
358.22	5.15	0.41
359.425	5.51	0.44
360.34	5.79	0.46
361.12	6.04	0.48
361.86	6.29	0.5
363.85	6.99	0.56
364.61	7.27	0.58
365.585	7.64	0.61
366.295	7.92	0.63
367.445	8.4	0.67
368.05	8.67	0.69
368.985	9.08	0.73
369.67	9.4	0.75
370.24	9.67	0.77
370.83	9.95	0.8
371.45	10.27	0.82
372.1	10.59	0.85
373	11.05	0.88
373.67	11.43	0.92
374.19	11.73	0.94
375.143	12.27	0.98
375.93	12.73	1.02
376.59	13.15	1.05
377.223	13.53	1.08
377.83	13.71	1.1
378.01	13.85	1.11
378.367	14.15	1.13
378.723	14.4	1.15
379.103	14.65	1.17
379.46	14.91	1.19
379.755	15.12	1.21
380.062	15.37	1.23
380.41	15.61	1.25
380.865	15.95	1.28
381.152	16.15	1.29
381.45	16.37	1.31
381.89	16.71	1.34
382.25	16.97	1.36
382.557	17.21	1.38
382.85	17.44	1.4
383.175	17.69	1.42
383.34	17.84	1.43
383.67	18.09	1.45
384.08	18.43	1.47
384.87	19.05	1.52
385.37	19.47	1.56
385.863	19.91	1.59
386.315	20.31	1.63
386.835	20.79	1.66
387.225	21.15	1.69
387.625	21.48	1.72
388.1	21.91	1.75
388.59	22.37	1.79
389.045	22.79	1.82
389.475	23.2	1.86
389.887	23.6	1.89
390.23	23.95	1.92
390.65	24.36	1.95
390.93	24.67	1.97
391.403	25.13	2.01
391.755	25.51	2.04
392.057	25.83	2.07
392.51	26.31	2.11
392.775	26.59	2.13
393.145	27	2.16

System: butan-2-ol + cyclohexane; phases: Liquid, Gas
Property: Vapor or sublimation pressure, kPa (Liquid); method: EBULLIO:UFactor:6
Temperature, K	Mole fraction of butan-2-ol	Vapor or sublimation pressure, kPa	uncertainty
313.15	0	24.56	2.097
313.15	0.0562	25.853	2.204
313.15	0.129	26.107	2.225
313.15	0.2011	25.907	2.208
313.15	0.2559	25.72	2.193
313.15	0.3124	25.347	2.162
313.15	0.386	24.947	2.129
313.15	0.452	24.28	2.074
313.15	0.5083	23.667	2.024
313.15	0.5734	22.787	1.951
313.15	0.6253	21.467	1.843
313.15	0.6891	20.307	1.747
313.15	0.7373	19.067	1.645
313.15	0.7913	17.533	1.52
313.15	0.848	15.773	1.375
313.15	0.893	13.733	1.209
313.15	1	5.827	0.575
323.15	0	36.267	3.063
323.15	0.0537	38.413	3.24
323.15	0.1226	38.973	3.287
323.15	0.195	38.8	3.272
323.15	0.2502	38.52	3.249
323.15	0.3063	38.053	3.211
323.15	0.3785	37.427	3.159
323.15	0.4431	36.573	3.088
323.15	0.4986	35.707	3.017
323.15	0.5571	34.467	2.914
323.15	0.5635	34.493	2.917
323.15	0.6198	32.707	2.769
323.15	0.6792	30.907	2.621
323.15	0.7262	29.347	2.492
323.15	0.7776	27.987	2.38
323.15	0.8768	22.173	1.901
323.15	0.9149	19.68	1.696
323.15	0.9493	17.093	1.483
323.15	0.9759	14.667	1.285
323.15	0.9903	12.547	1.112
323.15	1	10.48	0.944
333.15	0	51.92	4.356
333.15	0.0523	55.16	4.624
333.15	0.1196	56.467	4.732
333.15	0.1897	56.44	4.73
333.15	0.244	56.067	4.699
333.15	0.3001	55.4	4.644
333.15	0.3726	54.6	4.578
333.15	0.4372	53.467	4.484
333.15	0.4917	52.267	4.385
333.15	0.5482	50.72	4.257
333.15	0.5544	50.72	4.257
333.15	0.6082	48.333	4.06
333.15	0.6652	45.627	3.836
333.15	0.7113	43.12	3.629
333.15	0.7634	39.6	3.338
333.15	0.8195	38.213	3.224
333.15	0.8665	34.493	2.917
333.15	0.9048	31.187	2.644
333.15	0.9385	27.64	2.351
333.15	0.9665	24.16	2.064
333.15	0.9848	21	1.804
333.15	1	18.2	1.574
343.15	0	72.627	6.069
343.15	0.0513	77.267	6.453
343.15	0.1168	79.72	6.656
343.15	0.1852	80.013	6.68
343.15	0.2388	79.653	6.65
343.15	0.2949	78.827	6.582
343.15	0.3677	77.427	6.466
343.15	0.4321	76.053	6.352
343.15	0.486	74.587	6.231
343.15	0.5411	72.773	6.081
343.15	0.547	72.72	6.077
343.15	0.5989	69.507	5.811
343.15	0.6539	65.467	5.477
343.15	0.6987	61.267	5.129
343.15	0.8069	56.693	4.751
343.15	0.8556	51.653	4.334
343.15	0.8954	47.453	3.987
343.15	0.9304	42.707	3.595
343.15	0.9601	38.013	3.207
343.15	0.9808	33.6	2.843
343.15	1	29.76	2.526

System: cyclohexane + pentan-2-ol; phases: Liquid, Gas
Property: Vapor or sublimation pressure, kPa (Liquid); method: EBULLIO:UFactor:6
Temperature, K	Mole fraction of pentan-2-ol	Vapor or sublimation pressure, kPa	uncertainty
333.15	0	51.92	4.357
333.15	0.0588	52	4.363
333.15	0.1128	51.52	4.323
333.15	0.1709	50.773	4.262
333.15	0.232	49.907	4.19
333.15	0.2887	48.907	4.107
333.15	0.3536	47.507	3.992
333.15	0.4103	46.333	3.895
333.15	0.473	44.6	3.751
333.15	0.5301	42.68	3.593
333.15	0.5974	40.267	3.393
333.15	0.6548	37	3.124
333.15	0.7094	33.587	2.842
333.15	0.7653	29.667	2.518
333.15	0.8125	25.24	2.153
333.15	0.8692	21.733	1.865
333.15	0.9084	18.547	1.603
333.15	0.9434	16.267	1.416
333.15	0.9713	13.64	1.201
333.15	0.9895	10.787	0.969
333.15	1	7.68	0.72
343.15	0	72.627	6.069
343.15	0.058	72.827	6.086
343.15	0.1109	72.16	6.03
343.15	0.1681	71.04	5.938
343.15	0.2286	69.893	5.843
343.15	0.2849	68.6	5.736
343.15	0.3494	66.733	5.581
343.15	0.4057	65.107	5.447
343.15	0.4678	62.853	5.261
343.15	0.5241	59.453	4.979
343.15	0.5917	55.56	4.657
343.15	0.6465	50.533	4.242
343.15	0.7002	48.227	4.051
343.15	0.7554	42.96	3.616
343.15	0.8022	37.147	3.136
343.15	0.8581	32.2	2.727
343.15	0.8961	28.173	2.395
343.15	0.9302	25.067	2.139
343.15	0.9599	21.667	1.859
343.15	0.9838	17.347	1.504
343.15	1	13.08	1.155
353.15	0	99.307	8.276
353.15	0.0575	99.787	8.316
353.15	0.1096	99.12	8.261
353.15	0.166	97.48	8.125
353.15	0.2261	95.52	7.963
353.15	0.2823	93.733	7.815
353.15	0.3466	91.56	7.635
353.15	0.4025	89.627	7.475
353.15	0.4665	86.467	7.214
353.15	0.5243	82.533	6.888
353.15	0.5834	78.52	6.556
353.15	0.6363	75.08	6.272
353.15	0.6917	67.56	5.65
353.15	0.7469	60.547	5.07
353.15	0.7939	52.64	4.416
353.15	0.8491	45.947	3.863
353.15	0.8852	40.36	3.401
353.15	0.9166	36.387	3.073
353.15	0.9451	31.92	2.704
353.15	0.973	26.573	2.263
353.15	1	21.2	1.821

System: 2-methylbutan-2-ol + cyclohexane; phases: Liquid, Gas
Property: Vapor or sublimation pressure, kPa (Liquid); method: EBULLIO:UFactor:6
Temperature, K	Mole fraction of 2-methylbutan-2-ol	Vapor or sublimation pressure, kPa	uncertainty
313.15	0	24.56	2.097
313.15	0.0591	25.187	2.149
313.15	0.1169	24.667	2.106
313.15	0.1715	24.067	2.057
313.15	0.2407	23.333	1.996
313.15	0.2913	22.493	1.927
313.15	0.3565	21.76	1.867
313.15	0.4133	20.853	1.792
313.15	0.4742	19.627	1.691
313.15	0.5346	18.867	1.629
313.15	0.5904	17.733	1.536
313.15	0.6505	16.107	1.403
313.15	0.7068	15.093	1.32
313.15	0.7665	13.467	1.187
313.15	1	5.693	0.564
323.15	0	36.267	3.063
323.15	0.0542	37.76	3.186
323.15	0.1106	37.107	3.132
323.15	0.1647	36.213	3.059
323.15	0.2325	35.213	2.976
323.15	0.281	34.107	2.885
323.15	0.3424	33.013	2.794
323.15	0.3956	31.76	2.691
323.15	0.4526	29.787	2.528
323.15	0.5062	28.16	2.394
323.15	0.5615	27.427	2.333
323.15	0.616	25.187	2.149
323.15	0.6658	23.667	2.024
323.15	0.7202	21.893	1.878
323.15	0.7748	20.907	1.797
323.15	0.8244	18.947	1.636
323.15	0.8777	16.973	1.474
323.15	0.9149	15.28	1.335
323.15	0.9392	14.4	1.263
323.15	0.9675	12.533	1.111
323.15	1	10.413	0.939
333.15	0	51.92	4.356
333.15	0.0513	54.907	4.603
333.15	0.1087	54	4.528
333.15	0.1627	52.813	4.43
333.15	0.2295	51.52	4.323
333.15	0.2772	49.987	4.197
333.15	0.3377	48.6	4.082
333.15	0.3902	46.933	3.944
333.15	0.4465	43.76	3.682
333.15	0.5023	43.08	3.626
333.15	0.5534	41.093	3.462
333.15	0.6069	38	3.206
333.15	0.6558	35.707	3.017
333.15	0.7099	32.88	2.783
333.15	0.7651	32.547	2.756
333.15	0.8158	30	2.546
333.15	0.8699	27.107	2.307
333.15	0.9069	24.533	2.095
333.15	0.9311	23.173	1.983
333.15	0.9604	20.613	1.772
333.15	1	17.867	1.547
343.15	0	72.627	6.069
343.15	0.0488	77.707	6.489
343.15	0.1071	76.427	6.383
343.15	0.1612	74.773	6.246
343.15	0.2273	73.12	6.11
343.15	0.2743	71.427	5.97
343.15	0.3337	69.627	5.821
343.15	0.3853	67.427	5.639
343.15	0.4956	62.453	5.227
343.15	0.5458	59.747	5.004
343.15	0.5984	55.333	4.639
343.15	0.6466	51.68	4.337
343.15	0.7552	48.773	4.096
343.15	0.8065	45.427	3.82
343.15	0.862	41.467	3.493
343.15	0.9003	37.973	3.204
343.15	0.9254	35.893	3.032
343.15	0.9563	32.627	2.762
343.15	1	28.947	2.459

System: cyclohexane + hexan-1-ol; phases: Liquid, Gas
Property: Vapor or sublimation pressure, kPa (Liquid); method: EBULLIO:UFactor:6
Temperature, K	Mole fraction of hexan-1-ol	Vapor or sublimation pressure, kPa	uncertainty
323.15	0	36.267	3.063
323.15	0.0663	35.187	2.974
323.15	0.1248	34.653	2.93
323.15	0.1956	33.987	2.875
323.15	0.2607	33.24	2.813
323.15	0.3411	32.2	2.727
323.15	0.3917	31.333	2.656
323.15	0.4587	29.573	2.51
323.15	0.5221	27.72	2.358
323.15	0.5989	25.253	2.154
323.15	0.6464	23.707	2.027
323.15	0.7097	20.493	1.763
323.15	0.7821	16.267	1.416
323.15	1	0.453	0.243
333.15	0	51.92	4.356
333.15	0.0656	50.267	4.22
333.15	0.1239	49.467	4.154
333.15	0.1946	48.56	4.079
333.15	0.2596	47.453	3.987
333.15	0.3398	45.867	3.856
333.15	0.3903	44.587	3.75
333.15	0.457	42.2	3.553
333.15	0.5203	39.28	3.312
333.15	0.7066	29.733	2.524
333.15	0.7781	23.253	1.99
333.15	0.8465	16.213	1.411
333.15	1	1.013	0.256
343.15	0	72.627	6.069
343.15	0.0647	70.533	5.896
343.15	0.1227	68.893	5.76
343.15	0.1934	67.52	5.647
343.15	0.2583	65.907	5.513
343.15	0.3382	63.707	5.331
343.15	0.3885	61.907	5.182
343.15	0.4549	57.6	4.826
343.15	0.5178	53.813	4.513
343.15	0.5939	49.947	4.193
343.15	0.7029	41.707	3.512
343.15	0.7728	32.933	2.788
343.15	0.8395	23.48	2.008
343.15	0.8944	16.4	1.427
343.15	1	2.04	0.303
353.15	0	99.307	8.276
353.15	0.0641	96.36	8.032
353.15	0.1218	94.76	7.9
353.15	0.1924	92.013	7.673
353.15	0.2573	89.573	7.471
353.15	0.3369	86.573	7.223
353.15	0.4541	76.6	6.398
353.15	0.5151	71.427	5.97
353.15	0.5905	67.053	5.608
353.15	0.643	57.333	4.804
353.15	0.7028	53.493	4.486
353.15	0.7684	45.453	3.822
353.15	0.8334	33.2	2.81
353.15	0.8849	23.28	1.992
353.15	0.9243	16.08	1.4
353.15	0.96	10.067	0.911
353.15	1	3.867	0.427
