Measured thermophysical data. Densities, Sound Speed, and IR Studies of (Methanol + 1-Acetoxybutane) and (Methanol + 1,1-Dimethylethyl Ester) at (298.15, 303.15, 308.15, and 313.15) K
Source: J. Chem. Eng. Data, 2010, 10.1021/je900442b
Compound 1: methanol, CH4O, InChI=1S/CH4O/c1-2/h2H,1H3
Compound 2: butyl ethanoate, C6H12O2, InChI=1S/C6H12O2/c1-3-4-5-8-6(2)7/h3-5H2,1-2H3
Compound 3: 1,1-dimethylethyl ethanoate, C6H12O2, InChI=1S/C6H12O2/c1-5(7)8-6(2,3)4/h1-4H3

System: methanol; phases: Liquid
Fixed: Pressure, kPa = 101
Property: Speed of sound, m/s (Liquid); method: FPINT::UFactor:6
Temperature, K	Speed of sound, m/s	uncertainty
298.15	1109	4
303.15	1092	4
308.15	1074	4
313.15	1060	4

System: methanol; phases: Liquid
Fixed: Pressure, kPa = 101
Property: Mass density, kg/m3 (Liquid); method: PYCNOM::UFactor:4
Temperature, K	Mass density, kg/m3	uncertainty
298.15	786.38	0.84
303.15	781.65	0.87
308.15	776.52	0.91
313.15	772.15	0.95

System: butyl ethanoate; phases: Liquid
Fixed: Pressure, kPa = 101
Property: Speed of sound, m/s (Liquid); method: FPINT::UFactor:6
Temperature, K	Speed of sound, m/s	uncertainty
298.15	1190	4
303.15	1173	4
308.15	1150	4
313.15	1131	4

System: butyl ethanoate; phases: Liquid
Fixed: Pressure, kPa = 101
Property: Mass density, kg/m3 (Liquid); method: PYCNOM::UFactor:4
Temperature, K	Mass density, kg/m3	uncertainty
298.15	876.18	0.86
303.15	871.27	0.9
308.15	865.41	0.94
313.15	860.46	0.98

System: 1,1-dimethylethyl ethanoate; phases: Liquid
Fixed: Pressure, kPa = 101
Property: Speed of sound, m/s (Liquid); method: FPINT::UFactor:6
Temperature, K	Speed of sound, m/s	uncertainty
298.15	1091	4
303.15	1078	4
308.15	1049	4
313.15	1040	4

System: 1,1-dimethylethyl ethanoate; phases: Liquid
Fixed: Pressure, kPa = 101
Property: Mass density, kg/m3 (Liquid); method: PYCNOM::UFactor:4
Temperature, K	Mass density, kg/m3	uncertainty
298.15	859.75	0.95
303.15	853.94	0.99
308.15	848.34	1.03
313.15	842.67	1.06

System: methanol + 1,1-dimethylethyl ethanoate; phases: Liquid
Fixed: Pressure, kPa = 101
Property: Speed of sound, m/s (Liquid); method: FPINT:UFactor:6
Mole fraction of 1,1-dimethylethyl ethanoate	Temperature, K	Speed of sound, m/s	uncertainty
0	298.15	1109	4
0	303.15	1092	4
0	308.15	1074	4
0	313.15	1060	4
0.1004	298.15	1107	4
0.1004	303.15	1090	4
0.1004	308.15	1069	4
0.1004	313.15	1055	4
0.1997	298.15	1105	4
0.1997	303.15	1089	4
0.1997	308.15	1065	4
0.1997	313.15	1052	4
0.2996	298.15	1105	4
0.2996	303.15	1089	4
0.2996	308.15	1063	4
0.2996	313.15	1051	4
0.3916	298.15	1104	4
0.3916	303.15	1088	4
0.3916	308.15	1061	4
0.3916	313.15	1049	4
0.5003	298.15	1103	4
0.5003	303.15	1087	4
0.5003	308.15	1059	4
0.5003	313.15	1048	4
0.5988	298.15	1102	4
0.5988	303.15	1086	4
0.5988	308.15	1057	4
0.5988	313.15	1046	4
0.6994	298.15	1100	4
0.6994	303.15	1085	4
0.6994	308.15	1055	4
0.6994	313.15	1045	4
0.7985	298.15	1097	4
0.7985	303.15	1083	4
0.7985	308.15	1053	4
0.7985	313.15	1043	4
0.8992	298.15	1094	4
0.8992	303.15	1080	4
0.8992	308.15	1051	4
0.8992	313.15	1041	4
1	298.15	1091	4
1	303.15	1078	4
1	308.15	1049	4
1	313.15	1040	4

System: methanol + 1,1-dimethylethyl ethanoate; phases: Liquid
Fixed: Pressure, kPa = 101
Property: Mass density, kg/m3 (Liquid); method: PYCNOM:UFactor:4
Mole fraction of 1,1-dimethylethyl ethanoate	Temperature, K	Mass density, kg/m3	uncertainty
0	298.15	786.38	0.84
0	303.15	781.65	0.87
0	308.15	776.52	0.91
0	313.15	772.15	0.95
0.1004	298.15	806.42	0.87
0.1004	303.15	801.36	0.91
0.1004	308.15	796.06	0.94
0.1004	313.15	791.34	0.98
0.1997	298.15	819.95	0.89
0.1997	303.15	814.66	0.93
0.1997	308.15	809.27	0.96
0.1997	313.15	804.29	1
0.2996	298.15	829.79	0.9
0.2996	303.15	824.37	0.94
0.2996	308.15	818.91	0.98
0.2996	313.15	813.75	1.02
0.3916	298.15	836.73	0.91
0.3916	303.15	831.21	0.95
0.3916	308.15	825.7	0.99
0.3916	313.15	820.41	1.03
0.5003	298.15	843.12	0.92
0.5003	303.15	837.52	0.96
0.5003	308.15	831.98	1
0.5003	313.15	826.57	1.04
0.5988	298.15	847.72	0.93
0.5988	303.15	842.05	0.97
0.5988	308.15	836.48	1.01
0.5988	313.15	831	1.04
0.6994	298.15	851.57	0.94
0.6994	303.15	845.85	0.97
0.6994	308.15	840.26	1.01
0.6994	313.15	834.72	1.05
0.7985	298.15	854.72	0.94
0.7985	303.15	848.96	0.98
0.7985	308.15	843.36	1.02
0.7985	313.15	837.77	1.05
0.8992	298.15	857.43	0.95
0.8992	303.15	851.65	0.98
0.8992	308.15	846.04	1.02
0.8992	313.15	840.4	1.06
1	298.15	859.75	0.95
1	303.15	853.94	0.99
1	308.15	848.34	1.03
1	313.15	842.67	1.06

System: methanol + butyl ethanoate; phases: Liquid
Fixed: Pressure, kPa = 101
Property: Speed of sound, m/s (Liquid); method: FPINT:UFactor:6
Mole fraction of butyl ethanoate	Temperature, K	Speed of sound, m/s	uncertainty
0	298.15	1109	4
0	303.15	1092	4
0	308.15	1074	4
0	313.15	1060	4
0.1004	298.15	1130	4
0.1004	303.15	1112	4
0.1004	308.15	1092	4
0.1004	313.15	1076	4
0.2329	298.15	1151	4
0.2329	303.15	1132	4
0.2329	308.15	1111	4
0.2329	313.15	1093	4
0.2996	298.15	1160	4
0.2996	303.15	1140	4
0.2996	308.15	1118	4
0.2996	313.15	1100	4
0.4008	298.15	1171	4
0.4008	303.15	1151	4
0.4008	308.15	1128	4
0.4008	313.15	1109	4
0.498	298.15	1179	4
0.498	303.15	1159	4
0.498	308.15	1136	4
0.498	313.15	1116	4
0.5988	298.15	1185	4
0.5988	303.15	1165	4
0.5988	308.15	1141	4
0.5988	313.15	1122	4
0.6994	298.15	1189	4
0.6994	303.15	1170	4
0.6994	308.15	1145	4
0.6994	313.15	1126	4
0.7912	298.15	1191	4
0.7912	303.15	1172	4
0.7912	308.15	1148	4
0.7912	313.15	1128	4
0.8992	298.15	1191	4
0.8992	303.15	1173	4
0.8992	308.15	1149	4
0.8992	313.15	1130	4
1	298.15	1190	4
1	303.15	1173	4
1	308.15	1150	4
1	313.15	1131	4

System: methanol + butyl ethanoate; phases: Liquid
Fixed: Pressure, kPa = 101
Property: Mass density, kg/m3 (Liquid); method: PYCNOM:UFactor:4
Mole fraction of butyl ethanoate	Temperature, K	Mass density, kg/m3	uncertainty
0	298.15	786.38	0.84
0	303.15	781.65	0.87
0	308.15	776.52	0.91
0	313.15	772.15	0.95
0.1004	298.15	810.58	0.86
0.1004	303.15	805.75	0.9
0.1004	308.15	800.39	0.94
0.1004	313.15	795.84	0.98
0.2329	298.15	831.49	0.88
0.2329	303.15	826.61	0.92
0.2329	308.15	821.09	0.95
0.2329	313.15	816.38	0.99
0.2996	298.15	839.18	0.88
0.2996	303.15	834.29	0.92
0.2996	308.15	828.66	0.96
0.2996	313.15	823.89	1
0.4008	298.15	848.46	0.88
0.4008	303.15	843.52	0.92
0.4008	308.15	837.84	0.96
0.4008	313.15	833.02	1
0.498	298.15	855.46	0.88
0.498	303.15	850.52	0.92
0.498	308.15	844.77	0.96
0.498	313.15	839.91	1
0.5988	298.15	861.3	0.88
0.5988	303.15	856.34	0.92
0.5988	308.15	850.55	0.96
0.5988	313.15	845.66	0.99
0.6994	298.15	866.05	0.87
0.6994	303.15	861.1	0.91
0.6994	308.15	855.28	0.95
0.6994	313.15	850.36	0.99
0.7912	298.15	869.71	0.87
0.7912	303.15	864.74	0.91
0.7912	308.15	858.91	0.95
0.7912	313.15	853.98	0.99
0.8992	298.15	873.3	0.87
0.8992	303.15	868.38	0.91
0.8992	308.15	862.52	0.94
0.8992	313.15	857.58	0.98
1	298.15	876.18	0.86
1	303.15	871.27	0.9
1	308.15	865.41	0.94
1	313.15	860.46	0.98
