Measured thermophysical data. Density and Viscosity of Propyl Formate + Aromatic Hydrocarbons at T = (303.15, 308.15, and 313.15) K
Source: J. Chem. Eng. Data, 2010, 10.1021/je901071x
Compound 1: propyl methanoate, C4H8O2, InChI=1S/C4H8O2/c1-2-3-6-4-5/h4H,2-3H2,1H3, purity 99.5%
Compound 2: benzene, C6H6, InChI=1S/C6H6/c1-2-4-6-5-3-1/h1-6H, purity 99.5%
Compound 3: isopropylbenzene, C9H12, InChI=1S/C9H12/c1-8(2)9-6-4-3-5-7-9/h3-8H,1-2H3, purity 99.5%
Compound 4: (2-methylpropyl)benzene, C10H14, InChI=1S/C10H14/c1-9(2)8-10-6-4-3-5-7-10/h3-7,9H,8H2,1-2H3, purity 99.5%
Compound 5: butylbenzene, C10H14, InChI=1S/C10H14/c1-2-3-7-10-8-5-4-6-9-10/h4-6,8-9H,2-3,7H2,1H3, purity 99.5%

System: propyl methanoate; phases: Liquid
Fixed: Pressure, kPa = 101
Property: Viscosity, Pa*s (Liquid); method: Capillary tube (Ostwald; Ubbelohde) method
Temperature, K	Viscosity, Pa*s	uncertainty
303.15	0.000477	6e-06
308.15	0.000456	6e-06
313.15	0.000431	5e-06

System: propyl methanoate; phases: Liquid
Fixed: Pressure, kPa = 101
Property: Mass density, kg/m3 (Liquid); method: Vibrating tube method
Temperature, K	Mass density, kg/m3	uncertainty
303.15	893.5	0.9
308.15	888.6	0.9
313.15	883.8	0.9

System: benzene; phases: Liquid
Fixed: Pressure, kPa = 101
Property: Viscosity, Pa*s (Liquid); method: Capillary tube (Ostwald; Ubbelohde) method
Temperature, K	Viscosity, Pa*s	uncertainty
303.15	0.000569	7e-06
308.15	0.000534	6e-06
313.15	0.000497	6e-06

System: benzene; phases: Liquid
Fixed: Pressure, kPa = 101
Property: Mass density, kg/m3 (Liquid); method: Vibrating tube method
Temperature, K	Mass density, kg/m3	uncertainty
303.15	867.6	0.9
308.15	863.2	0.9
313.15	858.9	0.9

System: isopropylbenzene; phases: Liquid
Fixed: Pressure, kPa = 101
Property: Viscosity, Pa*s (Liquid); method: Capillary tube (Ostwald; Ubbelohde) method
Temperature, K	Viscosity, Pa*s	uncertainty
303.15	0.00069	8e-06
308.15	0.000651	8e-06
313.15	0.000611	7e-06

System: isopropylbenzene; phases: Liquid
Fixed: Pressure, kPa = 101
Property: Mass density, kg/m3 (Liquid); method: Vibrating tube method
Temperature, K	Mass density, kg/m3	uncertainty
303.15	852.7	0.9
308.15	849	0.9
313.15	845.4	0.9

System: (2-methylpropyl)benzene; phases: Liquid
Fixed: Pressure, kPa = 101
Property: Viscosity, Pa*s (Liquid); method: Capillary tube (Ostwald; Ubbelohde) method
Temperature, K	Viscosity, Pa*s	uncertainty
303.15	0.000905	1.1e-05
308.15	0.000848	1e-05
313.15	0.000784	9e-06

System: (2-methylpropyl)benzene; phases: Liquid
Fixed: Pressure, kPa = 101
Property: Mass density, kg/m3 (Liquid); method: Vibrating tube method
Temperature, K	Mass density, kg/m3	uncertainty
303.15	844.4	0.9
308.15	841.1	0.9
313.15	837.6	0.8

System: butylbenzene; phases: Liquid
Fixed: Pressure, kPa = 101
Property: Viscosity, Pa*s (Liquid); method: Capillary tube (Ostwald; Ubbelohde) method
Temperature, K	Viscosity, Pa*s	uncertainty
303.15	0.000901	1.1e-05
308.15	0.000844	1e-05
313.15	0.000787	9e-06

System: butylbenzene; phases: Liquid
Fixed: Pressure, kPa = 101
Property: Mass density, kg/m3 (Liquid); method: Vibrating tube method
Temperature, K	Mass density, kg/m3	uncertainty
303.15	851.3	0.9
308.15	848	0.9
313.15	844.6	0.9

System: benzene + propyl methanoate; phases: Liquid
Fixed: Pressure, kPa = 101
Property: Viscosity, Pa*s (Liquid); method: Capillary tube (Ostwald; Ubbelohde) method
Temperature, K	Mole fraction of propyl methanoate	Viscosity, Pa*s	uncertainty
303.15	0	0.000569	7e-06
303.15	0.0918	0.00054	7e-06
303.15	0.1874	0.000518	6e-06
303.15	0.2822	0.000504	6e-06
303.15	0.3785	0.00049	6e-06
303.15	0.4767	0.00048	6e-06
303.15	0.5772	0.000474	6e-06
303.15	0.6802	0.000471	6e-06
303.15	0.7854	0.000469	6e-06
303.15	0.8924	0.000467	6e-06
303.15	1	0.000477	6e-06
308.15	0	0.000534	6e-06
308.15	0.0918	0.000512	6e-06
308.15	0.1874	0.00049	6e-06
308.15	0.2822	0.000476	6e-06
308.15	0.3785	0.000466	6e-06
308.15	0.4767	0.000456	6e-06
308.15	0.5772	0.000449	6e-06
308.15	0.6802	0.000451	6e-06
308.15	0.7854	0.000448	5e-06
308.15	0.8924	0.000446	5e-06
308.15	1	0.000456	6e-06
313.15	0	0.000497	6e-06
313.15	0.0918	0.000479	6e-06
313.15	0.1874	0.000462	6e-06
313.15	0.2822	0.000448	5e-06
313.15	0.3785	0.000437	5e-06
313.15	0.4767	0.000431	5e-06
313.15	0.5772	0.000425	5e-06
313.15	0.6802	0.000426	5e-06
313.15	0.7854	0.000423	5e-06
313.15	0.8924	0.000421	5e-06
313.15	1	0.000431	5e-06

System: benzene + propyl methanoate; phases: Liquid
Fixed: Pressure, kPa = 101
Property: Mass density, kg/m3 (Liquid); method: Vibrating tube method
Temperature, K	Mole fraction of propyl methanoate	Mass density, kg/m3	uncertainty
303.15	0	867.6	0.9
303.15	0.0918	869.6	0.9
303.15	0.1874	871.4	0.9
303.15	0.2822	873.6	0.9
303.15	0.3785	875.8	0.9
303.15	0.4767	878.2	0.9
303.15	0.5772	880.6	0.9
303.15	0.6802	883.4	0.9
303.15	0.7854	886.2	0.9
303.15	0.8924	889.4	0.9
303.15	1	893.5	0.9
308.15	0	863.2	0.9
308.15	0.0918	865.1	0.9
308.15	0.1874	866.8	0.9
308.15	0.2822	868.9	0.9
308.15	0.3785	871.1	0.9
308.15	0.4767	873.4	0.9
308.15	0.5772	875.8	0.9
308.15	0.6802	878.5	0.9
308.15	0.7854	881.3	0.9
308.15	0.8924	884.4	0.9
308.15	1	888.6	0.9
313.15	0	858.9	0.9
313.15	0.0918	860.6	0.9
313.15	0.1874	862.3	0.9
313.15	0.2822	864.3	0.9
313.15	0.3785	866.5	0.9
313.15	0.4767	868.7	0.9
313.15	0.5772	871.1	0.9
313.15	0.6802	873.7	0.9
313.15	0.7854	876.5	0.9
313.15	0.8924	879.5	0.9
313.15	1	883.8	0.9

System: isopropylbenzene + propyl methanoate; phases: Liquid
Fixed: Pressure, kPa = 101
Property: Viscosity, Pa*s (Liquid); method: Capillary tube (Ostwald; Ubbelohde) method
Temperature, K	Mole fraction of propyl methanoate	Viscosity, Pa*s	uncertainty
303.15	0	0.00069	8e-06
303.15	0.1349	0.000652	8e-06
303.15	0.2617	0.000617	7e-06
303.15	0.3812	0.000585	7e-06
303.15	0.487	0.000559	7e-06
303.15	0.5882	0.000537	6e-06
303.15	0.6817	0.000517	6e-06
303.15	0.7675	0.000506	6e-06
303.15	0.8499	0.000494	6e-06
303.15	0.9277	0.000484	6e-06
303.15	1	0.000477	6e-06
308.15	0	0.000651	8e-06
308.15	0.1349	0.000617	7e-06
308.15	0.2617	0.000585	7e-06
308.15	0.3812	0.000557	7e-06
308.15	0.487	0.000533	6e-06
308.15	0.5882	0.000513	6e-06
308.15	0.6817	0.000495	6e-06
308.15	0.7675	0.000485	6e-06
308.15	0.8499	0.000474	6e-06
308.15	0.9277	0.000464	6e-06
308.15	1	0.000456	6e-06
313.15	0	0.000611	7e-06
313.15	0.1349	0.00058	7e-06
313.15	0.2617	0.000551	7e-06
313.15	0.3812	0.000526	6e-06
313.15	0.487	0.000504	6e-06
313.15	0.5882	0.000485	6e-06
313.15	0.6817	0.000468	6e-06
313.15	0.7675	0.000459	6e-06
313.15	0.8499	0.000448	5e-06
313.15	0.9277	0.000439	5e-06
313.15	1	0.000431	5e-06

System: isopropylbenzene + propyl methanoate; phases: Liquid
Fixed: Pressure, kPa = 101
Property: Mass density, kg/m3 (Liquid); method: Vibrating tube method
Temperature, K	Mole fraction of propyl methanoate	Mass density, kg/m3	uncertainty
303.15	0	852.7	0.9
303.15	0.1349	856	0.9
303.15	0.2617	859.5	0.9
303.15	0.3812	863.3	0.9
303.15	0.487	867.1	0.9
303.15	0.5882	871	0.9
303.15	0.6817	875.1	0.9
303.15	0.7675	879.2	0.9
303.15	0.8499	883.5	0.9
303.15	0.9277	888.1	0.9
303.15	1	893.5	0.9
308.15	0	849	0.9
308.15	0.1349	852.1	0.9
308.15	0.2617	855.4	0.9
308.15	0.3812	859.1	0.9
308.15	0.487	862.7	0.9
308.15	0.5882	866.5	0.9
308.15	0.6817	870.4	0.9
308.15	0.7675	874.4	0.9
308.15	0.8499	878.6	0.9
308.15	0.9277	883	0.9
308.15	1	888.6	0.9
313.15	0	845.4	0.9
313.15	0.1349	848.2	0.9
313.15	0.2617	851.4	0.9
313.15	0.3812	855	0.9
313.15	0.487	858.5	0.9
313.15	0.5882	862.2	0.9
313.15	0.6817	866	0.9
313.15	0.7675	869.8	0.9
313.15	0.8499	873.9	0.9
313.15	0.9277	878.2	0.9
313.15	1	883.8	0.9

System: propyl methanoate + (2-methylpropyl)benzene; phases: Liquid
Fixed: Pressure, kPa = 101
Property: Viscosity, Pa*s (Liquid); method: Capillary tube (Ostwald; Ubbelohde) method
Temperature, K	Mole fraction of propyl methanoate	Viscosity, Pa*s	uncertainty
303.15	0	0.000905	1.1e-05
303.15	0.1508	0.000813	1e-05
303.15	0.287	0.000743	9e-06
303.15	0.4072	0.000687	8e-06
303.15	0.519	0.00064	8e-06
303.15	0.6161	0.000602	7e-06
303.15	0.708	0.000569	7e-06
303.15	0.7895	0.00054	7e-06
303.15	0.8656	0.000516	6e-06
303.15	0.9341	0.000495	6e-06
303.15	1	0.000477	6e-06
308.15	0	0.000848	1e-05
308.15	0.1508	0.000771	9e-06
308.15	0.287	0.000706	8e-06
308.15	0.4072	0.000654	8e-06
308.15	0.519	0.00061	7e-06
308.15	0.6161	0.000575	7e-06
308.15	0.708	0.000544	7e-06
308.15	0.7895	0.000519	6e-06
308.15	0.8656	0.000497	6e-06
308.15	0.9341	0.000476	6e-06
308.15	1	0.000456	6e-06
313.15	0	0.000784	9e-06
313.15	0.1508	0.000718	9e-06
313.15	0.287	0.000661	8e-06
313.15	0.4072	0.000614	7e-06
313.15	0.519	0.000575	7e-06
313.15	0.6161	0.000543	7e-06
313.15	0.708	0.000515	6e-06
313.15	0.7895	0.000492	6e-06
313.15	0.8656	0.000471	6e-06
313.15	0.9341	0.000451	6e-06
313.15	1	0.000431	5e-06

System: propyl methanoate + (2-methylpropyl)benzene; phases: Liquid
Fixed: Pressure, kPa = 101
Property: Mass density, kg/m3 (Liquid); method: Vibrating tube method
Temperature, K	Mole fraction of propyl methanoate	Mass density, kg/m3	uncertainty
303.15	0	844.4	0.9
303.15	0.1508	848.8	0.9
303.15	0.287	853.3	0.9
303.15	0.4072	857.9	0.9
303.15	0.519	862.9	0.9
303.15	0.6161	867.7	0.9
303.15	0.708	872.9	0.9
303.15	0.7895	878	0.9
303.15	0.8656	883.2	0.9
303.15	0.9341	888.3	0.9
303.15	1	893.5	0.9
308.15	0	841.1	0.9
308.15	0.1508	845.2	0.9
308.15	0.287	849.5	0.9
308.15	0.4072	854	0.9
308.15	0.519	858.7	0.9
308.15	0.6161	863.4	0.9
308.15	0.708	868.5	0.9
308.15	0.7895	873.4	0.9
308.15	0.8656	878.4	0.9
308.15	0.9341	883.4	0.9
308.15	1	888.6	0.9
313.15	0	837.6	0.8
313.15	0.1508	841.4	0.9
313.15	0.287	845.6	0.9
313.15	0.4072	850	0.9
313.15	0.519	854.5	0.9
313.15	0.6161	859.1	0.9
313.15	0.708	864	0.9
313.15	0.7895	868.8	0.9
313.15	0.8656	873.7	0.9
313.15	0.9341	878.6	0.9
313.15	1	883.8	0.9

System: butylbenzene + propyl methanoate; phases: Liquid
Fixed: Pressure, kPa = 101
Property: Viscosity, Pa*s (Liquid); method: Capillary tube (Ostwald; Ubbelohde) method
Temperature, K	Mole fraction of propyl methanoate	Viscosity, Pa*s	uncertainty
303.15	0	0.000901	1.1e-05
303.15	0.1483	0.000823	1e-05
303.15	0.2855	0.000753	9e-06
303.15	0.4066	0.000696	8e-06
303.15	0.5164	0.000649	8e-06
303.15	0.6148	0.000609	7e-06
303.15	0.7042	0.000575	7e-06
303.15	0.7884	0.000545	7e-06
303.15	0.8642	0.000519	6e-06
303.15	0.9339	0.000498	6e-06
303.15	1	0.000477	6e-06
308.15	0	0.000844	1e-05
308.15	0.1483	0.000772	9e-06
308.15	0.2855	0.00071	8e-06
308.15	0.4066	0.000658	8e-06
308.15	0.5164	0.000616	7e-06
308.15	0.6148	0.000579	7e-06
308.15	0.7042	0.000547	7e-06
308.15	0.7884	0.00052	6e-06
308.15	0.8642	0.000497	6e-06
308.15	0.9339	0.000476	6e-06
308.15	1	0.000456	6e-06
313.15	0	0.000787	9e-06
313.15	0.1483	0.000723	9e-06
313.15	0.2855	0.000667	8e-06
313.15	0.4066	0.000619	7e-06
313.15	0.5164	0.00058	7e-06
313.15	0.6148	0.000546	7e-06
313.15	0.7042	0.000517	6e-06
313.15	0.7884	0.000491	6e-06
313.15	0.8642	0.00047	6e-06
313.15	0.9339	0.000451	6e-06
313.15	1	0.000431	5e-06

System: butylbenzene + propyl methanoate; phases: Liquid
Fixed: Pressure, kPa = 101
Property: Mass density, kg/m3 (Liquid); method: Vibrating tube method
Temperature, K	Mole fraction of propyl methanoate	Mass density, kg/m3	uncertainty
303.15	0	851.3	0.9
303.15	0.1483	854.7	0.9
303.15	0.2855	858.4	0.9
303.15	0.4066	862.2	0.9
303.15	0.5164	866.2	0.9
303.15	0.6148	870.3	0.9
303.15	0.7042	874.5	0.9
303.15	0.7884	879.1	0.9
303.15	0.8642	883.8	0.9
303.15	0.9339	888.6	0.9
303.15	1	893.5	0.9
308.15	0	848	0.9
308.15	0.1483	851	0.9
308.15	0.2855	854.6	0.9
308.15	0.4066	858.2	0.9
308.15	0.5164	862.1	0.9
308.15	0.6148	866	0.9
308.15	0.7042	870.1	0.9
308.15	0.7884	874.5	0.9
308.15	0.8642	879	0.9
308.15	0.9339	883.7	0.9
308.15	1	888.6	0.9
313.15	0	844.6	0.9
313.15	0.1483	847.3	0.9
313.15	0.2855	850.7	0.9
313.15	0.4066	854.3	0.9
313.15	0.5164	858	0.9
313.15	0.6148	861.8	0.9
313.15	0.7042	865.8	0.9
313.15	0.7884	869.9	0.9
313.15	0.8642	874.2	0.9
313.15	0.9339	878.7	0.9
313.15	1	883.8	0.9
