Measured thermophysical data. Enthalpic Interaction Coefficients of N-(N- Glycylglycyl)glycine in Aqueous Sodium Chloride and Potassium Chloride Solutions at 298.15 K
Source: J. Chem. Eng. Data, 2010, 10.1021/je900849b
Compound 1: sodium chloride, ClNa, InChI=1S/ClH.Na/h1H;/q;+1/p-1, purity 99%
Compound 2: potassium chloride, ClK, InChI=1S/ClH.K/h1H;/q;+1/p-1, purity 99%
Compound 3: water, H2O, InChI=1S/H2O/h1H2
Compound 4: glycylglycylglycine, C6H11N3O4, InChI=1S/C6H11N3O4/c7-1-4(10)8-2-5(11)9-3-6(12)13/h1-3,7H2,(H,8,10)(H,9,11)(H,12,13)

System: glycylglycylglycine + sodium chloride + water; phases: Liquid
Fixed: Temperature, K = 298.15
Fixed: Pressure, kPa = 101.325
Property: Molar enthalpy of dilution, kJ/mol (Liquid); method: Flow calorimetry
Solvent: Molality, mol/kg of sodium chloride	Initial molality of solute, mol/kg	Final molality of solute, mol/kg	Molar enthalpy of dilution, kJ/mol	uncertainty
0	0.08	0.0394	0.04176	0.00159
0	0.1	0.0491	0.05868	0.00238
0	0.12	0.0589	0.07509	0.00252
0	0.15	0.0735	0.09921	0.00324
0	0.18	0.0879	0.12302	0.00393
0	0.2	0.0975	0.13851	0.00441
0	0.22	0.1076	0.15315	0.00482
0	0.25	0.1216	0.17648	0.00553
0	0.28	0.1361	0.19889	0.00618
0	0.3	0.1454	0.21443	0.00666
0	0.32	0.155	0.22945	0.0071
0	0.35	0.1695	0.25234	0.00778
0.1	0.08	0.0392	0.04292	0.00165
0.1	0.1	0.0491	0.05864	0.00206
0.1	0.12	0.0587	0.0742	0.00251
0.1	0.15	0.0733	0.09663	0.00315
0.1	0.18	0.0879	0.11804	0.00378
0.1	0.2	0.0975	0.13221	0.0042
0.1	0.22	0.1071	0.14604	0.00461
0.1	0.25	0.1212	0.16708	0.0055
0.1	0.28	0.136	0.18675	0.00666
0.1	0.3	0.1452	0.2009	0.0067
0.1	0.32	0.1547	0.21467	0.00705
0.1	0.35	0.1686	0.23606	0.00742
0.2	0.08	0.0403	0.04253	0.00164
0.2	0.1	0.0505	0.05737	0.00205
0.2	0.12	0.0606	0.07195	0.00245
0.2	0.15	0.0755	0.09339	0.00308
0.2	0.18	0.0905	0.11375	0.00367
0.2	0.2	0.1002	0.12737	0.00407
0.2	0.22	0.1102	0.14035	0.00446
0.2	0.25	0.1251	0.15942	0.00501
0.2	0.28	0.14	0.17822	0.00557
0.2	0.3	0.1495	0.19148	0.00598
0.2	0.32	0.1594	0.20398	0.00633
0.2	0.35	0.1737	0.22354	0.00692
0.3	0.08	0.0397	0.04394	0.0019
0.3	0.1	0.0496	0.05873	0.00235
0.3	0.12	0.0594	0.07334	0.00275
0.3	0.15	0.0739	0.09497	0.00328
0.3	0.18	0.0889	0.11525	0.00422
0.3	0.2	0.0986	0.12892	0.00457
0.3	0.22	0.1081	0.14262	0.00475
0.3	0.25	0.1225	0.16258	0.00528
0.3	0.28	0.1371	0.18191	0.00583
0.3	0.3	0.1469	0.19459	0.00623
0.3	0.32	0.1562	0.20783	0.00653
0.3	0.35	0.1704	0.22708	0.00709
0.4	0.08	0.0393	0.04456	0.00227
0.4	0.1	0.0491	0.05764	0.0022
0.4	0.12	0.0588	0.07168	0.00247
0.4	0.15	0.0733	0.09229	0.00303
0.4	0.18	0.0878	0.1123	0.00361
0.4	0.2	0.0974	0.12539	0.004
0.4	0.22	0.107	0.13833	0.00438
0.4	0.25	0.1213	0.15778	0.00505
0.4	0.28	0.1358	0.17656	0.00559
0.4	0.3	0.1452	0.18951	0.00597
0.4	0.32	0.1554	0.20127	0.00636
0.4	0.35	0.1695	0.22108	0.00696
0.5	0.08	0.0379	0.03799	0.0016
0.5	0.1	0.0474	0.05242	0.00198
0.5	0.12	0.0568	0.06669	0.00272
0.5	0.15	0.071	0.08737	0.00294
0.5	0.18	0.085	0.10785	0.00348
0.5	0.2	0.0941	0.12149	0.0039
0.5	0.22	0.1035	0.13462	0.00427
0.5	0.25	0.1173	0.15442	0.00488
0.5	0.28	0.1315	0.1734	0.00542
0.5	0.3	0.1406	0.18633	0.00581
0.5	0.32	0.1497	0.1992	0.00619
0.5	0.35	0.1633	0.21864	0.00677
0.6	0.08	0.04	0.02296	0.00115
0.6	0.1	0.0498	0.03643	0.00148
0.6	0.12	0.056	0.05398	0.00195
0.6	0.15	0.0747	0.06787	0.00234
0.6	0.18	0.0894	0.08681	0.00286
0.6	0.2	0.0992	0.09916	0.00322
0.6	0.22	0.109	0.11023	0.00355
0.6	0.25	0.1236	0.12896	0.00457
0.6	0.28	0.1384	0.14593	0.0046
0.6	0.3	0.1478	0.15757	0.00495
0.6	0.32	0.1576	0.16899	0.00529
0.6	0.35	0.1719	0.18667	0.00582

System: glycylglycylglycine + potassium chloride + water; phases: Liquid
Fixed: Temperature, K = 298.15
Fixed: Pressure, kPa = 101.325
Property: Molar enthalpy of dilution, kJ/mol (Liquid); method: Flow calorimetry
Solvent: Molality, mol/kg of potassium chloride	Initial molality of solute, mol/kg	Final molality of solute, mol/kg	Molar enthalpy of dilution, kJ/mol	uncertainty
0.1	0.08	0.0382	0.04452	0.00166
0.1	0.1	0.0476	0.06083	0.00216
0.1	0.12	0.0568	0.07745	0.00259
0.1	0.15	0.0708	0.10121	0.00328
0.1	0.18	0.0848	0.12434	0.00397
0.1	0.2	0.0945	0.13902	0.00441
0.1	0.22	0.1031	0.15512	0.00488
0.1	0.25	0.117	0.17768	0.00558
0.1	0.28	0.1311	0.19976	0.00621
0.1	0.3	0.14	0.21515	0.0067
0.1	0.32	0.1488	0.23081	0.00714
0.1	0.35	0.1624	0.25367	0.00782
0.2	0.08	0.0383	0.04324	0.00166
0.2	0.1	0.048	0.05864	0.00206
0.2	0.12	0.0574	0.07401	0.00249
0.2	0.15	0.0718	0.09611	0.00315
0.2	0.18	0.0858	0.11801	0.00379
0.2	0.2	0.0954	0.13194	0.00421
0.2	0.22	0.1043	0.1467	0.00466
0.2	0.25	0.1185	0.16728	0.00527
0.2	0.28	0.1326	0.18765	0.00588
0.2	0.3	0.1421	0.20102	0.00628
0.2	0.32	0.1509	0.21521	0.00671
0.2	0.35	0.1645	0.23617	0.00734
0.3	0.08	0.0373	0.03988	0.00198
0.3	0.1	0.0468	0.05521	0.00257
0.3	0.12	0.0563	0.07035	0.00324
0.3	0.15	0.0696	0.0939	0.00307
0.3	0.18	0.0828	0.11705	0.00376
0.3	0.2	0.0916	0.13224	0.00421
0.3	0.22	0.0991	0.14899	0.00471
0.3	0.25	0.1118	0.17181	0.0054
0.3	0.28	0.1259	0.19188	0.00599
0.3	0.3	0.1374	0.20201	0.00629
0.3	0.32	0.146	0.21622	0.0067
0.3	0.35	0.1594	0.23649	0.00731
0.4	0.08	0.0371	0.04128	0.0017
0.4	0.1	0.0462	0.05633	0.00208
0.4	0.12	0.0556	0.07076	0.00252
0.4	0.15	0.0694	0.09254	0.00303
0.4	0.18	0.0832	0.11378	0.00365
0.4	0.2	0.0918	0.12858	0.00409
0.4	0.22	0.1012	0.14213	0.00449
0.4	0.25	0.1143	0.16339	0.00513
0.4	0.28	0.128	0.18378	0.00573
0.4	0.3	0.1371	0.19723	0.00614
0.4	0.32	0.1462	0.21068	0.00653
0.4	0.35	0.1595	0.23126	0.00715
0.5	0.08	0.0362	0.04041	0.00167
0.5	0.1	0.0452	0.05476	0.00202
0.5	0.12	0.0543	0.06891	0.00235
0.5	0.15	0.0676	0.08984	0.0032
0.5	0.18	0.081	0.11023	0.00355
0.5	0.2	0.0898	0.12379	0.00397
0.5	0.22	0.0989	0.13683	0.00433
0.5	0.25	0.1122	0.15669	0.00493
0.5	0.28	0.1254	0.17643	0.00551
0.5	0.3	0.1344	0.18933	0.0059
0.5	0.32	0.143	0.2027	0.0063
0.5	0.35	0.1562	0.22248	0.00689
0.6	0.08	0.0397	0.02802	0.00123
0.6	0.1	0.0495	0.0413	0.00163
0.6	0.12	0.0595	0.05425	0.00193
0.6	0.15	0.0741	0.07395	0.00253
0.6	0.18	0.0891	0.09296	0.00304
0.6	0.2	0.0986	0.10619	0.00345
0.6	0.22	0.1083	0.11914	0.00381
0.6	0.25	0.1226	0.13882	0.00441
0.6	0.28	0.1373	0.15787	0.00496
0.6	0.3	0.147	0.17086	0.00536
0.6	0.32	0.1563	0.18433	0.00575
0.6	0.35	0.1707	0.20401	0.00633
