Measured thermophysical data. Mutual Diffusion Coefficients of Diethyl Carbonate and Diethyl Adipate in Heptane at T = (278.15 to 338.15) K under Atmospheric Pressure
Source: J. Chem. Eng. Data, 2009, 10.1021/je900193m
Compound 1: dimethyl carbonate, C3H6O3, InChI=1S/C3H6O3/c1-5-3(4)6-2/h1-2H3, purity 99.5%
Compound 2: diethyl carbonate, C5H10O3, InChI=1S/C5H10O3/c1-3-7-5(6)8-4-2/h3-4H2,1-2H3, purity 99.7%
Compound 3: diethyl hexanedioate, C10H18O4, InChI=1S/C10H18O4/c1-3-13-9(11)7-5-6-8-10(12)14-4-2/h3-8H2,1-2H3, purity 99.5%
Compound 4: heptane, C7H16, InChI=1S/C7H16/c1-3-5-7-6-4-2/h3-7H2,1-2H3, purity 99.7%

System: heptane + dimethyl carbonate; phases: Liquid
Fixed: Pressure, kPa = 101
Fixed: Mole fraction of dimethyl carbonate = 0
Property: Binary diffusion coefficient, m2/s (Liquid); method: holographic inferometry
Temperature, K	Binary diffusion coefficient, m2/s	uncertainty
278.15	4.929e-09	0.021
281.15	4.971e-09	0.021
284.15	5.012e-09	0.021
287.15	5.069e-09	0.022
290.15	5.133e-09	0.022
293.15	5.193e-09	0.022
296.15	5.251e-09	0.023
299.15	5.326e-09	0.023
302.15	5.391e-09	0.024
305.15	5.475e-09	0.024
308.15	5.554e-09	0.025
311.15	5.635e-09	0.025
314.15	5.711e-09	0.025
317.15	5.797e-09	0.026
320.15	5.899e-09	0.027
323.15	5.994e-09	0.027
326.15	6.085e-09	0.028
329.15	6.202e-09	0.028
332.15	6.294e-09	0.029
335.15	6.406e-09	0.03
338.15	6.523e-09	0.03

System: diethyl carbonate + heptane; phases: Liquid
Fixed: Pressure, kPa = 101
Fixed: Mole fraction of diethyl carbonate = 0
Property: Binary diffusion coefficient, m2/s (Liquid); method: holographic inferometry
Temperature, K	Binary diffusion coefficient, m2/s	uncertainty
278.15	3.929e-09	0.016
281.15	3.956e-09	0.016
284.15	3.988e-09	0.017
287.15	4.025e-09	0.017
290.15	4.084e-09	0.018
293.15	4.144e-09	0.018
296.15	4.192e-09	0.019
299.15	4.266e-09	0.019
302.15	4.325e-09	0.019
305.15	4.399e-09	0.02
308.15	4.469e-09	0.02
311.15	4.539e-09	0.021
314.15	4.619e-09	0.022
317.15	4.705e-09	0.022
320.15	4.796e-09	0.022
323.15	4.881e-09	0.023
326.15	4.972e-09	0.023
329.15	5.068e-09	0.024
332.15	5.153e-09	0.024
335.15	5.251e-09	0.025
338.15	5.352e-09	0.025

System: diethyl hexanedioate + heptane; phases: Liquid
Fixed: Pressure, kPa = 101
Fixed: Mole fraction of diethyl hexanedioate = 0
Property: Binary diffusion coefficient, m2/s (Liquid); method: holographic inferometry
Temperature, K	Binary diffusion coefficient, m2/s	uncertainty
278.15	1.929e-09	0.009
281.15	1.959e-09	0.009
284.15	1.991e-09	0.009
287.15	2.018e-09	0.009
290.15	2.055e-09	0.01
293.15	2.098e-09	0.011
296.15	2.151e-09	0.011
299.15	2.201e-09	0.011
302.15	2.249e-09	0.011
305.15	2.307e-09	0.012
308.15	2.366e-09	0.013
311.15	2.43e-09	0.013
314.15	2.493e-09	0.013
317.15	2.557e-09	0.013
320.15	2.621e-09	0.014
323.15	2.697e-09	0.015
326.15	2.783e-09	0.015
329.15	2.847e-09	0.015
332.15	2.921e-09	0.016
335.15	3.017e-09	0.018
338.15	3.113e-09	0.018
