Measured thermophysical data. Densities, Speeds of Sound, and Isentropic Compressibilities for Binary Mixtures of 1,2-Ethanediol with 2-Ethyl-1-hexanol, 1-Heptanol, or Ethanol at the Temperature 298.15 K and Densities for Mixtures of 1,2-Ethanediol with 1-Nonanol at the Temperatures (293.15 and 298.15) K
Source: J. Chem. Eng. Data, 2010, 10.1021/je9010882
Compound 1: 1,2-ethanediol, C2H6O2, InChI=1S/C2H6O2/c3-1-2-4/h3-4H,1-2H2, purity 99.5%
Compound 2: heptan-1-ol, C7H16O, InChI=1S/C7H16O/c1-2-3-4-5-6-7-8/h8H,2-7H2,1H3, purity 99%
Compound 3: nonan-1-ol, C9H20O, InChI=1S/C9H20O/c1-2-3-4-5-6-7-8-9-10/h10H,2-9H2,1H3, purity 99%
Compound 4: ethanol, C2H6O, InChI=1S/C2H6O/c1-2-3/h3H,2H2,1H3, purity 99.8%
Compound 5: 2-ethyl-1-hexanol, C8H18O, InChI=1S/C8H18O/c1-3-5-6-8(4-2)7-9/h8-9H,3-7H2,1-2H3, purity 99.6%

System: 1,2-ethanediol; phases: Liquid
Property: Speed of sound, m/s (Liquid); method: Pulse-echo method
Pressure, kPa	Temperature, K	Speed of sound, m/s	uncertainty
101	298.15	1654.38	2.24

System: 1,2-ethanediol; phases: Liquid
Property: Mass density, kg/m3 (Liquid); method: VIBTUB:UFactor:4
Pressure, kPa	Temperature, K	Mass density, kg/m3	uncertainty
101	298.15	1109.876	0.38

System: 1,2-ethanediol; phases: Liquid
Property: Mass density, kg/m3 (Liquid); method: VIBTUB:UFactor:4
Temperature, K	Pressure, kPa	Mass density, kg/m3	uncertainty
293.15	101	1113.368	0.369

System: 1,2-ethanediol; phases: Liquid
Property: Speed of sound, m/s (Liquid); method: Pulse-echo method
Pressure, kPa	Temperature, K	Speed of sound, m/s	uncertainty
101	298.15	1655.24	2.24

System: 1,2-ethanediol; phases: Liquid
Property: Mass density, kg/m3 (Liquid); method: VIBTUB::UFactor:4
Pressure, kPa	Temperature, K	Mass density, kg/m3	uncertainty
101	298.15	1109.841	0.38

System: heptan-1-ol; phases: Liquid
Property: Speed of sound, m/s (Liquid); method: Pulse-echo method
Pressure, kPa	Temperature, K	Speed of sound, m/s	uncertainty
101	298.15	1326.99	2.37

System: heptan-1-ol; phases: Liquid
Property: Mass density, kg/m3 (Liquid); method: VIBTUB::UFactor:4
Pressure, kPa	Temperature, K	Mass density, kg/m3	uncertainty
101	298.15	818.793	0.549

System: nonan-1-ol; phases: Liquid
Fixed: Pressure, kPa = 101
Property: Mass density, kg/m3 (Liquid); method: Vibrating tube method
Temperature, K	Mass density, kg/m3	uncertainty
293.15	827.65	0.245
298.15	824.238	0.246

System: ethanol; phases: Liquid
Property: Speed of sound, m/s (Liquid); method: Pulse-echo method
Pressure, kPa	Temperature, K	Speed of sound, m/s	uncertainty
101	298.15	1142.02	2.14

System: ethanol; phases: Liquid
Property: Mass density, kg/m3 (Liquid); method: VIBTUB::UFactor:4
Pressure, kPa	Temperature, K	Mass density, kg/m3	uncertainty
101	298.15	785.144	0.474

System: 2-ethyl-1-hexanol; phases: Liquid
Property: Speed of sound, m/s (Liquid); method: Pulse-echo method
Pressure, kPa	Temperature, K	Speed of sound, m/s	uncertainty
101	298.15	1318.44	2.19

System: 2-ethyl-1-hexanol; phases: Liquid
Property: Mass density, kg/m3 (Liquid); method: VIBTUB::UFactor:4
Pressure, kPa	Temperature, K	Mass density, kg/m3	uncertainty
101	298.15	828.667	0.425

System: 2-ethyl-1-hexanol + 1,2-ethanediol; phases: Liquid
Fixed: Pressure, kPa = 101
Fixed: Temperature, K = 298.15
Property: Speed of sound, m/s (Liquid); method: Pulse-echo method
Mole fraction of 1,2-ethanediol	Speed of sound, m/s	uncertainty
0	1318.44	2.19
0.1858	1334.24	2.19
0.2952	1345.46	2.19
0.4043	1358.81	2.2
0.4914	1372.36	2.2
0.599	1394.88	2.21
0.6996	1423.5	2.21
0.7985	1468.15	2.22
0.9	1539.42	2.23
1	1655.24	2.24

System: 2-ethyl-1-hexanol + 1,2-ethanediol; phases: Liquid
Fixed: Pressure, kPa = 101
Fixed: Temperature, K = 298.15
Property: Mass density, kg/m3 (Liquid); method: VIBTUB:UFactor:4
Mole fraction of 1,2-ethanediol	Mass density, kg/m3	uncertainty
0	828.667	0.425
0.1858	848.929	0.399
0.2952	863.973	0.379
0.4043	881.937	0.356
0.4512	890.807	0.345
0.4914	899.091	0.335
0.599	924.736	0.303
0.6996	954.672	0.271
0.7985	991.938	0.24
0.8507	1015.691	0.258
0.9	1041.981	0.3
1	1109.841	0.38

System: 1,2-ethanediol + heptan-1-ol; phases: Liquid
Fixed: Pressure, kPa = 101
Fixed: Temperature, K = 298.15
Property: Speed of sound, m/s (Liquid); method: Pulse-echo method
Mole fraction of 1,2-ethanediol	Speed of sound, m/s	uncertainty
0	1326.99	2.37
0.0668	1330.32	2.36
0.2007	1339.22	2.33
0.2946	1346.86	2.31
0.4022	1359.63	2.3
0.4834	1371.62	2.28
0.5508	1384.31	2.27
0.6087	1398.52	2.27
0.6766	1418.17	2.26
0.7988	1470.79	2.25
0.894	1537.95	2.25
1	1655.24	2.24

System: 1,2-ethanediol + heptan-1-ol; phases: Liquid
Fixed: Pressure, kPa = 101
Fixed: Temperature, K = 298.15
Property: Mass density, kg/m3 (Liquid); method: VIBTUB:UFactor:4
Mole fraction of 1,2-ethanediol	Mass density, kg/m3	uncertainty
0	818.793	0.549
0.0668	826.183	0.532
0.1162	832.262	0.518
0.2007	843.633	0.494
0.2946	858.174	0.464
0.4022	877.754	0.427
0.4834	895.05	0.385
0.5508	911.359	0.379
0.6087	927.049	0.354
0.6766	948.151	0.313
0.7988	994.195	0.257
0.894	1041.296	0.305
1	1109.841	0.38

System: ethanol + 1,2-ethanediol; phases: Liquid
Fixed: Pressure, kPa = 101
Fixed: Temperature, K = 298.15
Property: Speed of sound, m/s (Liquid); method: Pulse-echo method
Mole fraction of 1,2-ethanediol	Speed of sound, m/s	uncertainty
0	1142.02	2.14
0.10022	1187.52	2.15
0.19799	1231.67	2.16
0.3014	1279.7	2.17
0.39979	1328.01	2.17
0.49443	1374.94	2.18
0.64283	1454.54	2.2
0.74988	1513.44	2.21
0.84978	1569.53	2.22
1	1654.38	2.24

System: ethanol + 1,2-ethanediol; phases: Liquid
Fixed: Pressure, kPa = 101
Fixed: Temperature, K = 298.15
Property: Mass density, kg/m3 (Liquid); method: VIBTUB:UFactor:4
Mole fraction of 1,2-ethanediol	Mass density, kg/m3	uncertainty
0	785.144	0.474
0.10022	819.39	0.426
0.19799	852.357	0.38
0.3014	886.918	0.333
0.34623	901.797	0.313
0.49443	950.526	0.256
0.64283	998.611	0.214
0.74988	1032.402	0.253
0.84978	1063.876	0.3
1	1109.876	0.38

System: 1,2-ethanediol + nonan-1-ol; phases: Liquid
Fixed: Pressure, kPa = 101
Property: Mass density, kg/m3 (Liquid); method: VIBTUB:UFactor:4
Temperature, K	Mole fraction of 1,2-ethanediol	Mass density, kg/m3	uncertainty
293.15	0	827.65	0.533
293.15	0.1047	837.118	0.51
293.15	0.20396	847.778	0.484
293.15	0.28781	858.547	0.46
293.15	0.39273	874.431	0.43
293.15	0.5203	898.673	0.384
293.15	0.59824	917.33	0.351
293.15	0.70298	948.15	0.306
293.15	0.78054	977.295	0.282
293.15	0.90045	1038.167	0.358
293.15	1	1113.368	0.369
298.15	0	824.238	0.538
298.15	0.1047	833.672	0.511
298.15	0.20396	844.308	0.484
298.15	0.28781	855.056	0.46
298.15	0.39273	870.919	0.425
298.15	0.5203	895.129	0.377
298.15	0.59824	913.771	0.343
298.15	0.70298	944.568	0.287
298.15	0.78054	973.695	0.241
298.15	0.90045	1034.581	0.272
298.15	1	1109.876	0.363
