Measured thermophysical data. Densities, Excess Volumes, Isobaric Expansivities, and Isothermal Compressibilities of the 1-Ethyl-3-methylimidazolium Ethylsulfate + Ethanol System at Temperatures (283.15 to 343.15) K and Pressures from (0.1 to 35) MPa
Source: J. Chem. Eng. Data, 2010, 10.1021/je900414p
Compound 1: 1-ethyl-3-methylimidazolium ethyl sulfate, C8H16N2O4S, InChI=1S/C6H11N2.C2H6O4S/c1-3-8-5-4-7(2)6-8;1-2-6-7(3,4)5/h4-6H,3H2,1-2H3;2H2,1H3,(H,3,4,5)/q+1;/p-1, purity 99.7%
Compound 2: ethanol, C2H6O, InChI=1S/C2H6O/c1-2-3/h3H,2H2,1H3

System: 1-ethyl-3-methylimidazolium ethyl sulfate; phases: Liquid
Property: Mass density, kg/m3 (Liquid); method: VIBTUB:UFactor:8
Pressure, kPa	Temperature, K	Mass density, kg/m3	uncertainty
100	283.15	1247.6	1.05
100	288.15	1244.17	1.04
100	293.15	1240.67	1.03
100	298.15	1237.33	1.02
100	303.15	1233.95	1.01
100	308.15	1230.49	1
100	313.15	1227.14	0.99
100	318.15	1223.86	0.98
100	323.15	1220.46	0.97
100	328.15	1217.07	0.96
100	333.15	1213.67	0.95
100	338.15	1210.4	0.94
2500	283.15	1248.59	1.24
2500	288.15	1245.15	1.22
2500	293.15	1241.7	1.21
2500	298.15	1238.32	1.2
2500	303.15	1234.96	1.18
2500	308.15	1231.54	1.17
2500	313.15	1228.21	1.16
2500	318.15	1224.94	1.15
2500	323.15	1221.54	1.13
2500	328.15	1218.15	1.12
2500	333.15	1214.63	1.11
2500	338.15	1211.52	1.09
5000	283.15	1249.58	1.44
5000	288.15	1246.17	1.42
5000	293.15	1242.72	1.4
5000	298.15	1239.36	1.39
5000	303.15	1236.02	1.37
5000	308.15	1232.6	1.36
5000	313.15	1229.29	1.34
5000	318.15	1226.03	1.32
5000	323.15	1222.66	1.31
5000	328.15	1219.31	1.29
5000	333.15	1215.87	1.28
5000	338.15	1212.68	1.26
10000	283.15	1251.56	1.83
10000	288.15	1248.17	1.81
10000	293.15	1244.75	1.79
10000	298.15	1241.41	1.77
10000	303.15	1238.1	1.75
10000	308.15	1234.71	1.73
10000	313.15	1231.41	1.71
10000	318.15	1228.17	1.69
10000	323.15	1224.85	1.67
10000	328.15	1221.5	1.65
10000	333.15	1218.14	1.63
10000	338.15	1214.94	1.61
15000	283.15	1253.65	2.24
15000	288.15	1250.14	2.21
15000	293.15	1246.75	2.19
15000	298.15	1243.42	2.16
15000	303.15	1240.14	2.14
15000	308.15	1236.78	2.11
15000	313.15	1233.51	2.08
15000	318.15	1230.31	2.06
15000	323.15	1226.99	2.03
15000	328.15	1223.69	2.01
15000	333.15	1220.35	1.98
15000	338.15	1217.17	1.96
20000	283.15	1255.44	2.65
20000	288.15	1252.1	2.62
20000	293.15	1248.72	2.59
20000	298.15	1245.42	2.56
20000	303.15	1242.15	2.53
20000	308.15	1238.83	2.49
20000	313.15	1235.57	2.46
20000	318.15	1232.4	2.43
20000	323.15	1229.11	2.4
20000	328.15	1225.81	2.37
20000	333.15	1222.53	2.34
20000	338.15	1219.36	2.31
25000	283.15	1257.31	3.07
25000	288.15	1254.03	3.03
25000	293.15	1250.66	2.99
25000	298.15	1247.38	2.96
25000	303.15	1244.14	2.92
25000	308.15	1240.83	2.89
25000	313.15	1237.6	2.85
25000	318.15	1234.44	2.82
25000	323.15	1231.18	2.78
25000	328.15	1227.93	2.75
25000	333.15	1224.65	2.71
25000	338.15	1221.51	2.68
30000	283.15	1259.18	3.49
30000	288.15	1255.9	3.45
30000	293.15	1252.56	3.41
30000	298.15	1249.31	3.37
30000	303.15	1246.11	3.33
30000	308.15	1242.81	3.28
30000	313.15	1239.6	3.24
30000	318.15	1236.49	3.21
30000	323.15	1233.23	3.17
30000	328.15	1229.99	3.12
30000	333.15	1226.74	3.08
30000	338.15	1223.61	3.05
35000	283.15	1261.04	3.92
35000	288.15	1257.77	3.87
35000	293.15	1254.46	3.82
35000	298.15	1251.22	3.78
35000	303.15	1248.06	3.73
35000	308.15	1244.76	3.69
35000	313.15	1241.57	3.64
35000	318.15	1238.47	3.6
35000	323.15	1235.25	3.55
35000	328.15	1232.04	3.51
35000	333.15	1228.8	3.46
35000	338.15	1225.71	3.42

System: ethanol; phases: Liquid
Property: Mass density, kg/m3 (Liquid); method: VIBTUB:UFactor:2
Pressure, kPa	Temperature, K	Mass density, kg/m3	uncertainty
100	283.15	797.76	0.45
100	288.15	793.65	0.45
100	293.15	789.19	0.45
100	298.15	784.92	0.45
100	303.15	780.63	0.45
100	308.15	776.26	0.46
100	313.15	771.91	0.46
100	318.15	767.58	0.46
100	323.15	763.09	0.46
100	328.15	758.54	0.46
100	333.15	753.96	0.46
100	338.15	749.42	0.47
100	343.15	744.74	0.47
2500	283.15	799.74	0.46
2500	288.15	795.66	0.47
2500	293.15	791.25	0.47
2500	298.15	787.03	0.47
2500	303.15	782.81	0.47
2500	308.15	778.54	0.47
2500	313.15	774.26	0.48
2500	318.15	769.99	0.48
2500	323.15	765.56	0.48
2500	328.15	761.09	0.48
2500	333.15	756.61	0.48
2500	338.15	752.16	0.49
2500	343.15	747.57	0.49
5000	283.15	801.73	0.48
5000	288.15	797.73	0.48
5000	293.15	793.37	0.49
5000	298.15	789.21	0.49
5000	303.15	785.04	0.49
5000	308.15	780.82	0.49
5000	313.15	776.62	0.5
5000	318.15	772.41	0.5
5000	323.15	768.08	0.5
5000	328.15	763.7	0.5
5000	333.15	759.27	0.51
5000	338.15	754.89	0.51
5000	343.15	750.39	0.51
10000	283.15	805.58	0.52
10000	288.15	801.67	0.52
10000	293.15	797.42	0.53
10000	298.15	793.38	0.53
10000	303.15	789.3	0.5
10000	308.15	785.22	0.54
10000	313.15	781.13	0.54
10000	318.15	777.04	0.55
10000	323.15	772.84	0.55
10000	328.15	768.58	0.56
10000	333.15	764.32	0.56
10000	338.15	760.09	0.56
10000	343.15	755.74	0.57
15000	283.15	809.28	0.56
15000	288.15	805.43	0.57
15000	293.15	801.3	0.6
15000	298.15	797.34	0.58
15000	303.15	793.37	0.58
15000	308.15	789.37	0.59
15000	313.15	785.4	0.6
15000	318.15	781.43	0.6
15000	323.15	777.34	0.6
15000	328.15	773.22	0.61
15000	333.15	769.08	0.61
15000	338.15	764.99	0.62
15000	343.15	760.75	0.63
20000	283.15	812.8	0.6
20000	288.15	809.06	0.61
20000	293.15	804.99	0.62
20000	298.15	801.11	0.62
20000	303.15	797.25	0.63
20000	308.15	793.34	0.64
20000	313.15	789.45	0.64
20000	318.15	785.59	0.65
20000	323.15	781.59	0.66
20000	328.15	777.57	0.66
20000	333.15	773.56	0.67
20000	338.15	769.59	0.68
20000	343.15	765.47	0.68
25000	283.15	816.2	0.7
25000	288.15	812.52	0.66
25000	293.15	808.53	0.67
25000	298.15	804.75	0.67
25000	303.15	800.93	0.68
25000	308.15	797.14	0.69
25000	313.15	793.33	0.7
25000	318.15	789.55	0.7
25000	323.15	785.65	0.71
25000	328.15	781.73	0.72
25000	333.15	777.81	0.73
25000	338.15	773.96	0.74
25000	343.15	769.94	0.74
30000	283.15	819.47	0.7
30000	288.15	815.87	0.7
30000	293.15	811.94	0.71
30000	298.15	808.21	0.72
30000	303.15	804.49	0.73
30000	308.15	800.76	0.74
30000	313.15	797.04	0.75
30000	318.15	793.36	0.76
30000	323.15	789.53	0.77
30000	328.15	785.7	0.8
30000	333.15	781.87	0.78
30000	338.15	778.09	0.79
30000	343.15	774.17	0.8
35000	283.15	822.63	0.74
35000	288.15	819.04	0.75
35000	293.15	815.23	0.76
35000	298.15	811.58	0.77
35000	303.15	807.95	0.78
35000	308.15	804.27	0.79
35000	313.15	800.61	0.8
35000	318.15	796.98	0.81
35000	323.15	793.24	0.82
35000	328.15	789.5	0.8
35000	333.15	785.76	0.84
35000	338.15	782.06	0.85
35000	343.15	778.23	0.86

System: ethanol + 1-ethyl-3-methylimidazolium ethyl sulfate; phases: Liquid
Property: Mass density, kg/m3 (Liquid); method: VIBTUB:UFactor:6
Pressure, kPa	Temperature, K	Mole fraction of 1-ethyl-3-methylimidazolium ethyl sulfate	Mass density, kg/m3	uncertainty
100	283.15	0.05056	868.1	0.64
100	283.15	0.10296	925.77	0.56
100	283.15	0.12466	946.96	0.53
100	283.15	0.21262	1015.49	0.47
100	283.15	0.29186	1063.41	0.52
100	283.15	0.31855	1076.89	0.53
100	283.15	0.41984	1120.15	0.6
100	283.15	0.48466	1142.52	0.63
100	283.15	0.57131	1167.9	0.68
100	283.15	0.68271	1194.68	0.72
100	283.15	0.79194	1216.13	0.76
100	283.15	0.93175	1237.97	0.81
100	293.15	0.05056	860.03	0.66
100	293.15	0.10296	917.84	0.57
100	293.15	0.12466	939.1	0.5
100	293.15	0.21262	1007.62	0.47
100	293.15	0.29186	1055.3	0.5
100	293.15	0.31855	1069.32	0.52
100	293.15	0.41984	1112.7	0.6
100	293.15	0.48466	1135.13	0.62
100	293.15	0.57131	1160.59	0.66
100	293.15	0.68271	1187.41	0.71
100	293.15	0.79194	1208.95	0.75
100	293.15	0.93175	1230.93	0.8
100	298.15	0.05056	855.98	0.66
100	298.15	0.10296	913.93	0.58
100	298.15	0.12466	935.16	0.54
100	298.15	0.21262	1003.9	0.5
100	298.15	0.29186	1052	1
100	298.15	0.31855	1065.62	0.52
100	298.15	0.41984	1109.11	0.58
100	298.15	0.48466	1131.56	0.61
100	298.15	0.57131	1157.07	0.66
100	298.15	0.68271	1183.93	0.7
100	298.15	0.79194	1205.61	0.75
100	298.15	0.93175	1227.5	0.8
100	303.15	0.05056	851.9	0.7
100	303.15	0.10296	910.06	0.58
100	303.15	0.12466	931.25	0.55
100	303.15	0.21262	1000.1	0.5
100	303.15	0.29186	1048.63	0.5
100	303.15	0.31855	1061.99	0.51
100	303.15	0.41984	1105.54	0.57
100	303.15	0.48466	1128.01	0.61
100	303.15	0.57131	1153.59	0.65
100	303.15	0.68271	1180.46	0.7
100	303.15	0.79194	1202.24	0.74
100	303.15	0.93175	1224.05	0.78
100	313.15	0.05056	843.63	0.68
100	313.15	0.10296	902	1
100	313.15	0.12466	923.22	0.56
100	313.15	0.21262	992.44	0.47
100	313.15	0.29186	1041.3	0.5
100	313.15	0.31855	1054.58	0.5
100	313.15	0.41984	1098.28	0.56
100	313.15	0.48466	1120.82	0.6
100	313.15	0.57131	1146.49	0.64
100	313.15	0.68271	1173.47	0.69
100	313.15	0.79194	1195.34	0.73
100	313.15	0.93175	1217.11	0.77
100	323.15	0.05056	835.32	0.7
100	323.15	0.10296	893.98	0.61
100	323.15	0.12466	915.32	0.57
100	323.15	0.21262	984.81	0.47
100	323.15	0.29186	1034.05	0.49
100	323.15	0.31855	1047.28	0.49
100	323.15	0.41984	1091.13	0.55
100	323.15	0.48466	1113.75	0.59
100	323.15	0.57131	1139.53	0.63
100	323.15	0.68271	1166.57	0.67
100	323.15	0.79194	1188.51	0.71
100	323.15	0.93175	1210.34	0.76
100	333.15	0.05056	826.91	0.71
100	333.15	0.10296	885.77	0.62
100	333.15	0.12466	907.28	0.58
100	333.15	0.21262	977.1	0.5
100	333.15	0.29186	1026.55	0.48
100	333.15	0.31855	1039.85	0.49
100	333.15	0.41984	1083.92	0.54
100	333.15	0.48466	1106.62	0.57
100	333.15	0.57131	1132.56	0.62
100	333.15	0.68271	1159.67	0.66
100	333.15	0.79194	1181.63	0.7
100	333.15	0.93175	1203.54	0.74
100	343.15	0.05056	818.25	0.73
100	343.15	0.10296	877.67	0.63
100	343.15	0.12466	899.5	0.6
100	343.15	0.21262	969.67	0.49
100	343.15	0.29186	1019.38	0.47
100	343.15	0.31855	1032.6	0.5
100	343.15	0.41984	1076.98	0.53
100	343.15	0.48466	1099.67	0.56
100	343.15	0.57131	1125.7	0.6
100	343.15	0.68271	1152.86	0.65
100	343.15	0.79194	1175	1
100	343.15	0.93175	1196.87	0.73
2500	283.15	0.05056	870	0.69
2500	283.15	0.10296	927.45	0.58
2500	283.15	0.12466	948.54	0.54
2500	283.15	0.21262	1016.98	0.48
2500	283.15	0.29186	1064.67	0.54
2500	283.15	0.31855	1078.19	0.56
2500	283.15	0.41984	1121.36	0.64
2500	283.15	0.48466	1143.68	0.69
2500	283.15	0.57131	1169.02	0.75
2500	283.15	0.68271	1195.76	0.81
2500	283.15	0.79194	1217.15	0.86
2500	283.15	0.93175	1238.92	0.92
2500	293.15	0.05056	861.91	0.71
2500	293.15	0.10296	919.6	0.6
2500	293.15	0.12466	940.76	0.55
2500	293.15	0.21262	1009.27	0.47
2500	293.15	0.29186	1056.61	0.53
2500	293.15	0.31855	1070.62	0.55
2500	293.15	0.41984	1113.96	0.63
2500	293.15	0.48466	1136.31	0.68
2500	293.15	0.57131	1161.75	0.73
2500	293.15	0.68271	1188.51	0.79
2500	293.15	0.79194	1210	1
2500	293.15	0.93175	1231.9	0.9
2500	298.15	0.05056	857.88	0.71
2500	298.15	0.10296	915.61	0.6
2500	298.15	0.12466	936.81	0.56
2500	298.15	0.21262	1005.45	0.46
2500	298.15	0.29186	1052.97	0.52
2500	298.15	0.31855	1066.9	0.5
2500	298.15	0.41984	1110.35	0.62
2500	298.15	0.48466	1132.76	0.67
2500	298.15	0.57131	1158.2	0.7
2500	298.15	0.68271	1185.01	0.79
2500	298.15	0.79194	1206.51	0.84
2500	298.15	0.93175	1228.53	0.89
2500	303.15	0.05056	853.85	0.72
2500	303.15	0.10296	911.7	0.6
2500	303.15	0.12466	932.93	0.57
2500	303.15	0.21262	1001.68	0.46
2500	303.15	0.29186	1049.46	0.52
2500	303.15	0.31855	1063.29	0.53
2500	303.15	0.41984	1106.82	0.62
2500	303.15	0.48466	1129.22	0.66
2500	303.15	0.57131	1154.71	0.72
2500	303.15	0.68271	1181.59	0.78
2500	303.15	0.79194	1203.1	0.8
2500	303.15	0.93175	1225.06	0.88
2500	313.15	0.05056	845.7	0.7
2500	313.15	0.10296	903.78	0.62
2500	313.15	0.12466	925.01	0.58
2500	313.15	0.21262	994.08	0.46
2500	313.15	0.29186	1042.32	0.51
2500	313.15	0.31855	1055.91	0.52
2500	313.15	0.41984	1099.64	0.6
2500	313.15	0.48466	1122.08	0.65
2500	313.15	0.57131	1147.66	0.7
2500	313.15	0.68271	1174.61	0.76
2500	313.15	0.79194	1196.17	0.81
2500	313.15	0.93175	1218.16	0.87
2500	323.15	0.05056	837.47	0.76
2500	323.15	0.10296	895.85	0.64
2500	323.15	0.12466	917.14	0.59
2500	323.15	0.21262	986.48	0.47
2500	323.15	0.29186	1035.04	0.5
2500	323.15	0.31855	1048.63	0.51
2500	323.15	0.41984	1092.5	0.6
2500	323.15	0.48466	1115	1
2500	323.15	0.57131	1140.71	0.69
2500	323.15	0.68271	1167.74	0.75
2500	323.15	0.79194	1189.35	0.8
2500	323.15	0.93175	1211.42	0.85
2500	333.15	0.05056	829.15	0.78
2500	333.15	0.10296	887.83	0.65
2500	333.15	0.12466	909.17	0.61
2500	333.15	0.21262	978.86	0.48
2500	333.15	0.29186	1027.68	0.49
2500	333.15	0.31855	1041.25	0.5
2500	333.15	0.41984	1085.39	0.57
2500	333.15	0.48466	1107.91	0.62
2500	333.15	0.57131	1133.8	0.7
2500	333.15	0.68271	1160.86	0.73
2500	333.15	0.79194	1182.51	0.78
2500	333.15	0.93175	1204.68	0.84
2500	343.15	0.05056	820.66	0.79
2500	343.15	0.10296	879.77	0.67
2500	343.15	0.12466	901.47	0.62
2500	343.15	0.21262	971.48	0.49
2500	343.15	0.29186	1020.57	0.48
2500	343.15	0.31855	1034.03	0.49
2500	343.15	0.41984	1078.52	0.56
2500	343.15	0.48466	1100.97	0.6
2500	343.15	0.57131	1126.98	0.66
2500	343.15	0.68271	1154.1	0.7
2500	343.15	0.79194	1175.81	0.77
2500	343.15	0.93175	1198.02	0.82
5000	283.15	0.05056	871.83	0.74
5000	283.15	0.10296	929.13	0.6
5000	283.15	0.12466	950.16	0.55
5000	283.15	0.21262	1018.48	0.48
5000	283.15	0.29186	1066.03	0.57
5000	283.15	0.31855	1079.51	0.59
5000	283.15	0.41984	1122.61	0.7
5000	283.15	0.48466	1144.88	0.76
5000	283.15	0.57131	1170.16	0.83
5000	283.15	0.68271	1196.85	0.9
5000	283.15	0.79194	1218.19	0.97
5000	283.15	0.93175	1239.94	1.05
5000	293.15	0.05056	863.83	0.76
5000	293.15	0.10296	921.37	0.62
5000	293.15	0.12466	942.46	0.57
5000	293.15	0.21262	1010.81	0.47
5000	293.15	0.29186	1058.04	0.55
5000	293.15	0.31855	1071.98	0.58
5000	293.15	0.41984	1115.24	0.68
5000	293.15	0.48466	1137.55	0.74
5000	293.15	0.57131	1162.92	0.81
5000	293.15	0.68271	1189.64	0.88
5000	293.15	0.79194	1211.08	0.95
5000	293.15	0.93175	1232.97	1.02
5000	298.15	0.05056	859.83	0.77
5000	298.15	0.10296	917.4	0.6
5000	298.15	0.12466	938.54	0.58
5000	298.15	0.21262	1007.01	0.47
5000	298.15	0.29186	1054.41	0.54
5000	298.15	0.31855	1068.3	0.6
5000	298.15	0.41984	1111.65	0.67
5000	298.15	0.48466	1133.99	0.73
5000	298.15	0.57131	1159.39	0.8
5000	298.15	0.68271	1186.16	0.87
5000	298.15	0.79194	1207.59	0.94
5000	298.15	0.93175	1229.57	1.01
5000	303.15	0.05056	855.87	0.78
5000	303.15	0.10296	913.54	0.64
5000	303.15	0.12466	934.69	0.59
5000	303.15	0.21262	1003.26	0.46
5000	303.15	0.29186	1050.92	0.54
5000	303.15	0.31855	1064.7	0.6
5000	303.15	0.41984	1108.14	0.66
5000	303.15	0.48466	1130.5	0.7
5000	303.15	0.57131	1155.92	0.79
5000	303.15	0.68271	1182.73	0.86
5000	303.15	0.79194	1204.19	0.93
5000	303.15	0.93175	1226.12	1
5000	313.15	0.05056	847.81	0.8
5000	313.15	0.10296	905.71	0.66
5000	313.15	0.12466	926.88	0.6
5000	313.15	0.21262	995.74	0.46
5000	313.15	0.29186	1043.83	0.52
5000	313.15	0.31855	1057.39	0.54
5000	313.15	0.41984	1101.01	0.64
5000	313.15	0.48466	1123.39	0.7
5000	313.15	0.57131	1148.92	0.77
5000	313.15	0.68271	1175.83	0.85
5000	313.15	0.79194	1197.31	0.91
5000	313.15	0.93175	1219.26	0.98
5000	323.15	0.05056	839.71	0.82
5000	323.15	0.10296	897.87	0.67
5000	323.15	0.12466	919.07	0.62
5000	323.15	0.21262	988.21	0.47
5000	323.15	0.29186	1036.64	0.51
5000	323.15	0.31855	1050.16	0.53
5000	323.15	0.41984	1093.93	0.63
5000	323.15	0.48466	1116.36	0.68
5000	323.15	0.57131	1142.02	0.75
5000	323.15	0.68271	1168.97	0.83
5000	323.15	0.79194	1190.5	0.9
5000	323.15	0.93175	1212.55	0.96
5000	333.15	0.05056	831.49	0.84
5000	333.15	0.10296	889.93	0.69
5000	333.15	0.12466	911.19	0.64
5000	333.15	0.21262	980.64	0.49
5000	333.15	0.29186	1029.31	0.5
5000	333.15	0.31855	1042.83	0.51
5000	333.15	0.41984	1086.84	0.61
5000	333.15	0.48466	1109.29	0.66
5000	333.15	0.57131	1135.1	0.7
5000	333.15	0.68271	1162.12	0.81
5000	333.15	0.79194	1183.7	0.9
5000	333.15	0.93175	1205.83	0.94
5000	343.15	0.05056	823.11	0.87
5000	343.15	0.10296	881.99	0.71
5000	343.15	0.12466	903.69	0.66
5000	343.15	0.21262	973.32	0.5
5000	343.15	0.29186	1022.23	0.48
5000	343.15	0.31855	1035.67	0.5
5000	343.15	0.41984	1080	1
5000	343.15	0.48466	1102.41	0.65
5000	343.15	0.57131	1128.32	0.71
5000	343.15	0.68271	1155.37	0.79
5000	343.15	0.79194	1177.05	0.85
5000	343.15	0.93175	1199.21	0.92
10000	283.15	0.05056	875.33	0.84
10000	283.15	0.10296	932.41	0.65
10000	283.15	0.12466	953.34	0.58
10000	283.15	0.21262	1021.37	0.5
10000	283.15	0.29186	1068.69	0.63
10000	283.15	0.31855	1082.11	0.66
10000	283.15	0.41984	1125.05	0.82
10000	283.15	0.48466	1147.23	0.9
10000	283.15	0.57131	1172.41	1
10000	283.15	0.68271	1199	1.13
10000	283.15	0.79194	1220.26	1.23
10000	283.15	0.93175	1241.93	1.34
10000	293.15	0.05056	867.52	0.86
10000	293.15	0.10296	924.78	0.67
10000	293.15	0.12466	945.77	0.6
10000	293.15	0.21262	1013.8	0.5
10000	293.15	0.29186	1060.8	0.6
10000	293.15	0.31855	1074.68	0.64
10000	293.15	0.41984	1117.75	0.79
10000	293.15	0.48466	1139.97	0.87
10000	293.15	0.57131	1165.25	0.97
10000	293.15	0.68271	1191.86	1.09
10000	293.15	0.79194	1213.21	1.2
10000	293.15	0.93175	1235.05	1.3
10000	298.15	0.05056	863.62	0.88
10000	298.15	0.10296	920.89	0.68
10000	298.15	0.12466	941.91	0.61
10000	298.15	0.21262	1010.07	0.48
10000	298.15	0.29186	1057.22	0.59
10000	298.15	0.31855	1071.05	0.63
10000	298.15	0.41984	1114.21	0.78
10000	298.15	0.48466	1136.46	0.86
10000	298.15	0.57131	1161.74	0.96
10000	298.15	0.68271	1188.41	1.08
10000	298.15	0.79194	1209.76	1.18
10000	298.15	0.93175	1231.66	1.29
10000	303.15	0.05056	859.72	0.89
10000	303.15	0.10296	917.1	0.7
10000	303.15	0.12466	938.12	0.62
10000	303.15	0.21262	1006.36	0.47
10000	303.15	0.29186	1053.74	0.58
10000	303.15	0.31855	1067.49	0.62
10000	303.15	0.41984	1110.73	0.76
10000	303.15	0.48466	1132.99	0.85
10000	303.15	0.57131	1158.31	0.94
10000	303.15	0.68271	1185	1
10000	303.15	0.79194	1206.38	1.16
10000	303.15	0.93175	1228.23	1.27
10000	313.15	0.05056	851.86	0.92
10000	313.15	0.10296	909.43	0.72
10000	313.15	0.12466	930.46	0.65
10000	313.15	0.21262	998.97	0.46
10000	313.15	0.29186	1046.78	0.56
10000	313.15	0.31855	1060.28	0.59
10000	313.15	0.41984	1103.69	0.74
10000	313.15	0.48466	1125.96	0.82
10000	313.15	0.57131	1151.37	0.92
10000	313.15	0.68271	1178.16	1.03
10000	313.15	0.79194	1199.56	1.13
10000	313.15	0.93175	1221.43	1.24
10000	323.15	0.05056	843.97	0.95
10000	323.15	0.10296	901.75	0.74
10000	323.15	0.12466	922.82	0.67
10000	323.15	0.21262	991.57	0.47
10000	323.15	0.29186	1039.7	0.5
10000	323.15	0.31855	1053.16	0.57
10000	323.15	0.41984	1096.7	0.7
10000	323.15	0.48466	1119.02	0.79
10000	323.15	0.57131	1144.55	0.89
10000	323.15	0.68271	1171.37	1
10000	323.15	0.79194	1192.81	1.1
10000	323.15	0.93175	1214.78	1.21
10000	333.15	0.05056	835.97	0.98
10000	333.15	0.10296	893.99	0.77
10000	333.15	0.12466	915.1	0.7
10000	333.15	0.21262	984.14	0.49
10000	333.15	0.29186	1032.48	0.52
10000	333.15	0.31855	1045.92	0.55
10000	333.15	0.41984	1089.7	0.7
10000	333.15	0.48466	1112.04	0.77
10000	333.15	0.57131	1137.7	0.9
10000	333.15	0.68271	1164.6	1
10000	333.15	0.79194	1186.07	1.07
10000	333.15	0.93175	1208.1	1.2
10000	343.15	0.05056	827.83	1.01
10000	343.15	0.10296	886.23	0.8
10000	343.15	0.12466	907.82	0.72
10000	343.15	0.21262	976.91	0.5
10000	343.15	0.29186	1025.5	0.5
10000	343.15	0.31855	1038.87	0.53
10000	343.15	0.41984	1082.95	0.67
10000	343.15	0.48466	1105.21	0.74
10000	343.15	0.57131	1131.01	0.84
10000	343.15	0.68271	1157.89	0.94
10000	343.15	0.79194	1179.48	1.04
10000	343.15	0.93175	1201.52	1.15
15000	283.15	0.05056	878.74	0.93
15000	283.15	0.10296	935.57	0.68
15000	283.15	0.12466	956.4	0.6
15000	283.15	0.21262	1024.17	0.52
15000	283.15	0.29186	1071.27	0.69
15000	283.15	0.31855	1084.66	0.75
15000	283.15	0.41984	1127.44	0.95
15000	283.15	0.48466	1149.51	1.07
15000	283.15	0.57131	1174.61	1.21
15000	283.15	0.68271	1201.12	1.37
15000	283.15	0.79194	1222.32	1.5
15000	283.15	0.93175	1243.92	1.63
15000	293.15	0.05056	871.06	0.97
15000	293.15	0.10296	928.08	0.72
15000	293.15	0.12466	948.96	0.63
15000	293.15	0.21262	1016.71	0.5
15000	293.15	0.29186	1063.5	0.7
15000	293.15	0.31855	1077.32	0.71
15000	293.15	0.41984	1120.22	0.91
15000	293.15	0.48466	1142.34	1.02
15000	293.15	0.57131	1167.52	1.17
15000	293.15	0.68271	1194.04	1.33
15000	293.15	0.79194	1215.31	1.46
15000	293.15	0.93175	1237.08	1.59
15000	298.15	0.05056	867.22	0.99
15000	298.15	0.10296	924.24	0.73
15000	298.15	0.12466	945.16	0.64
15000	298.15	0.21262	1013.02	0.49
15000	298.15	0.29186	1059.95	0.65
15000	298.15	0.31855	1073.73	0.7
15000	298.15	0.41984	1116.72	0.89
15000	298.15	0.48466	1138.86	1
15000	298.15	0.57131	1164.05	1.15
15000	298.15	0.68271	1190.6	1.3
15000	298.15	0.79194	1211.88	1.44
15000	298.15	0.93175	1233.72	1.57
15000	303.15	0.05056	863.43	1.01
15000	303.15	0.10296	920.52	0.75
15000	303.15	0.12466	941.44	0.66
15000	303.15	0.21262	1009.37	0.48
15000	303.15	0.29186	1056.51	0.63
15000	303.15	0.31855	1070.22	0.68
15000	303.15	0.41984	1113.28	0.88
15000	303.15	0.48466	1135.43	0.98
15000	303.15	0.57131	1160.66	1.13
15000	303.15	0.68271	1187.24	1.29
15000	303.15	0.79194	1208.54	1.42
15000	303.15	0.93175	1230.32	1.55
15000	313.15	0.05056	855.73	1.05
15000	313.15	0.10296	912.99	0.78
15000	313.15	0.12466	933.91	0.69
15000	313.15	0.21262	1002.07	0.46
15000	313.15	0.29186	1049.64	0.6
15000	313.15	0.31855	1063.09	0.65
15000	313.15	0.41984	1106.3	0.8
15000	313.15	0.48466	1128.48	0.95
15000	313.15	0.57131	1153.79	1.09
15000	313.15	0.68271	1180.44	1.25
15000	313.15	0.79194	1201.76	1.38
15000	313.15	0.93175	1223.56	1.51
15000	323.15	0.05056	848.02	1.09
15000	323.15	0.10296	905.47	0.81
15000	323.15	0.12466	926.4	0.7
15000	323.15	0.21262	994.8	0.5
15000	323.15	0.29186	1042.66	0.58
15000	323.15	0.31855	1056.05	0.63
15000	323.15	0.41984	1099.39	0.81
15000	323.15	0.48466	1121.59	0.92
15000	323.15	0.57131	1147.01	1.05
15000	323.15	0.68271	1173.72	1.21
15000	323.15	0.79194	1195.06	1.34
15000	323.15	0.93175	1216.96	1.47
15000	333.15	0.05056	840.22	1.14
15000	333.15	0.10296	897.89	0.85
15000	333.15	0.12466	918.84	0.75
15000	333.15	0.21262	987.5	0.5
15000	333.15	0.29186	1035.56	0.55
15000	333.15	0.31855	1048.93	0.6
15000	333.15	0.41984	1092.49	0.78
15000	333.15	0.48466	1114.72	0.89
15000	333.15	0.57131	1140.25	1.01
15000	333.15	0.68271	1167.03	1.17
15000	333.15	0.79194	1188.4	1.3
15000	333.15	0.93175	1210.35	1.43
15000	343.15	0.05056	832.27	1.18
15000	343.15	0.10296	890.27	0.88
15000	343.15	0.12466	911.68	0.78
15000	343.15	0.21262	980.38	0.51
15000	343.15	0.29186	1028.64	0.53
15000	343.15	0.31855	1041.94	0.57
15000	343.15	0.41984	1085.8	0.8
15000	343.15	0.48466	1107.95	0.85
15000	343.15	0.57131	1133.6	1
15000	343.15	0.68271	1160.38	1.13
15000	343.15	0.79194	1181.84	1.26
15000	343.15	0.93175	1203.82	1.39
20000	283.15	0.05056	882.02	1.03
20000	283.15	0.10296	938.63	0.72
20000	283.15	0.12466	959.38	0.62
20000	283.15	0.21262	1026.89	0.55
20000	283.15	0.29186	1073.82	0.77
20000	283.15	0.31855	1087.15	0.84
20000	283.15	0.41984	1129.77	1.1
20000	283.15	0.48466	1151.78	1.26
20000	283.15	0.57131	1176.78	1.43
20000	283.15	0.68271	1203.21	1.62
20000	283.15	0.79194	1224.34	1.77
20000	283.15	0.93175	1245.88	1.93
20000	293.15	0.05056	874.47	1.08
20000	293.15	0.10296	931.25	0.76
20000	293.15	0.12466	952.04	0.65
20000	293.15	0.21262	1019.53	0.52
20000	293.15	0.29186	1066.12	0.73
20000	293.15	0.31855	1079.89	0.8
20000	293.15	0.41984	1122.63	1.05
20000	293.15	0.48466	1144.68	1.21
20000	293.15	0.57131	1169.75	1.38
20000	293.15	0.68271	1196.18	1.57
20000	293.15	0.79194	1217.38	1.72
20000	293.15	0.93175	1239.09	1.88
20000	298.15	0.05056	870.7	1.1
20000	298.15	0.10296	927.48	0.78
20000	298.15	0.12466	948.3	0.7
20000	298.15	0.21262	1015.88	0.5
20000	298.15	0.29186	1062.62	0.71
20000	298.15	0.31855	1076.33	0.78
20000	298.15	0.41984	1119.15	1.03
20000	298.15	0.48466	1141.21	1.18
20000	298.15	0.57131	1166.31	1.36
20000	298.15	0.68271	1192.77	1.55
20000	298.15	0.79194	1213.98	1.7
20000	298.15	0.93175	1235.74	1.85
20000	303.15	0.05056	866.98	1.14
20000	303.15	0.10296	923.82	0.8
20000	303.15	0.12466	944.64	0.69
20000	303.15	0.21262	1012.29	0.49
20000	303.15	0.29186	1059.18	0.69
20000	303.15	0.31855	1072.86	0.76
20000	303.15	0.41984	1115.76	1
20000	303.15	0.48466	1137.83	1.16
20000	303.15	0.57131	1162.94	1.33
20000	303.15	0.68271	1189.45	1.52
20000	303.15	0.79194	1210.64	1.67
20000	303.15	0.93175	1232.36	1.83
20000	313.15	0.05056	859.44	1.19
20000	313.15	0.10296	916.4	0.8
20000	313.15	0.12466	937.23	0.72
20000	313.15	0.21262	1005.09	0.47
20000	313.15	0.29186	1052.42	0.66
20000	313.15	0.31855	1065.82	0.72
20000	313.15	0.41984	1108.84	0.96
20000	313.15	0.48466	1130.94	1.11
20000	313.15	0.57131	1156.13	1.29
20000	313.15	0.68271	1182.7	1.5
20000	313.15	0.79194	1203.92	1.63
20000	313.15	0.93175	1225.65	1.78
20000	323.15	0.05056	851.88	1.24
20000	323.15	0.10296	909.03	0.88
20000	323.15	0.12466	929.85	0.76
20000	323.15	0.21262	997.91	0.46
20000	323.15	0.29186	1045.53	0.62
20000	323.15	0.31855	1058.87	0.69
20000	323.15	0.41984	1102.02	0.92
20000	323.15	0.48466	1124.12	1.06
20000	323.15	0.57131	1149.42	1.24
20000	323.15	0.68271	1176.03	1.43
20000	323.15	0.79194	1197.29	1.58
20000	323.15	0.93175	1219.11	1.74
20000	333.15	0.05056	844.27	1.29
20000	333.15	0.10296	901.61	0.92
20000	333.15	0.12466	922.44	0.8
20000	333.15	0.21262	990.73	0.48
20000	333.15	0.29186	1038.53	0.59
20000	333.15	0.31855	1051.83	0.65
20000	333.15	0.41984	1095.2	0.9
20000	333.15	0.48466	1117.29	1.02
20000	333.15	0.57131	1142.73	1.19
20000	333.15	0.68271	1169.4	1.4
20000	333.15	0.79194	1190.67	1.53
20000	333.15	0.93175	1212.54	1.69
20000	343.15	0.05056	836.51	1.35
20000	343.15	0.10296	894.14	0.96
20000	343.15	0.12466	915.39	0.84
20000	343.15	0.21262	983.71	0.51
20000	343.15	0.29186	1031.72	0.56
20000	343.15	0.31855	1044.93	0.62
20000	343.15	0.41984	1088.59	0.85
20000	343.15	0.48466	1110.61	0.97
20000	343.15	0.57131	1136.16	1.15
20000	343.15	0.68271	1162.8	1.3
20000	343.15	0.79194	1184.18	1.49
20000	343.15	0.93175	1206.06	1.65
25000	283.15	0.05056	885.17	1.14
25000	283.15	0.10296	941.59	0.76
25000	283.15	0.12466	962.25	0.63
25000	283.15	0.21262	1029.52	0.58
25000	283.15	0.29186	1076.29	0.85
25000	283.15	0.31855	1089.57	0.93
25000	283.15	0.41984	1132.05	1.27
25000	283.15	0.48466	1153.99	1.45
25000	283.15	0.57131	1178.91	1.65
25000	283.15	0.68271	1205.24	1.87
25000	283.15	0.79194	1226.31	2.05
25000	283.15	0.93175	1247.81	2.23
25000	293.15	0.05056	877.74	1.2
25000	293.15	0.10296	934.32	0.8
25000	293.15	0.12466	955.03	0.67
25000	293.15	0.21262	1022.26	0.54
25000	293.15	0.29186	1068.67	0.8
25000	293.15	0.31855	1082.37	0.89
25000	293.15	0.41984	1124.97	1.21
25000	293.15	0.48466	1146.94	1.39
25000	293.15	0.57131	1171.93	1.6
25000	293.15	0.68271	1198.27	1.81
25000	293.15	0.79194	1219.4	2
25000	293.15	0.93175	1241.05	2.17
25000	298.15	0.05056	874.05	1.23
25000	298.15	0.10296	930.6	0.8
25000	298.15	0.12466	951.34	0.69
25000	298.15	0.21262	1018.67	0.53
25000	298.15	0.29186	1065.22	0.78
25000	298.15	0.31855	1078.88	0.86
25000	298.15	0.41984	1121.54	1.19
25000	298.15	0.48466	1143.53	1.36
25000	298.15	0.57131	1168.52	1.57
25000	298.15	0.68271	1194.89	1.79
25000	298.15	0.79194	1216.03	1.96
25000	298.15	0.93175	1237.73	2.14
25000	303.15	0.05056	870.39	1.26
25000	303.15	0.10296	927	1
25000	303.15	0.12466	947.74	0.71
25000	303.15	0.21262	1015.12	0.51
25000	303.15	0.29186	1061.79	0.76
25000	303.15	0.31855	1075.44	0.84
25000	303.15	0.41984	1118.18	1.16
25000	303.15	0.48466	1140.16	1.34
25000	303.15	0.57131	1165.19	1.54
25000	303.15	0.68271	1191.6	1.8
25000	303.15	0.79194	1212.73	1.94
25000	303.15	0.93175	1234.37	2.12
25000	313.15	0.05056	862.99	1.32
25000	313.15	0.10296	919.72	0.89
25000	313.15	0.12466	940.45	0.76
25000	313.15	0.21262	1008.03	0.48
25000	313.15	0.29186	1055.15	0.72
25000	313.15	0.31855	1068.49	0.8
25000	313.15	0.41984	1111.34	1.1
25000	313.15	0.48466	1133.35	1.28
25000	313.15	0.57131	1158.44	1.49
25000	313.15	0.68271	1184.92	1.71
25000	313.15	0.79194	1206.06	1.88
25000	313.15	0.93175	1227.71	2.06
25000	323.15	0.05056	855.6	1.4
25000	323.15	0.10296	912.49	0.94
25000	323.15	0.12466	933.19	0.8
25000	323.15	0.21262	1000.95	0.46
25000	323.15	0.29186	1048.35	0.68
25000	323.15	0.31855	1061.63	0.75
25000	323.15	0.41984	1104.58	1.05
25000	323.15	0.48466	1126.59	1.23
25000	323.15	0.57131	1151.81	1.43
25000	323.15	0.68271	1178.31	1.65
25000	323.15	0.79194	1199.48	1.83
25000	323.15	0.93175	1221.21	2.01
25000	333.15	0.05056	848.14	1.44
25000	333.15	0.10296	905.17	0.99
25000	333.15	0.12466	925.91	0.85
25000	333.15	0.21262	993.88	0.48
25000	333.15	0.29186	1041.42	0.64
25000	333.15	0.31855	1054.66	0.71
25000	333.15	0.41984	1097.84	0.99
25000	333.15	0.48466	1119.85	1.17
25000	333.15	0.57131	1145.17	1.38
25000	333.15	0.68271	1171.73	1.6
25000	333.15	0.79194	1192.91	1.77
25000	333.15	0.93175	1214.7	2
25000	343.15	0.05056	840.54	1.5
25000	343.15	0.10296	897.85	1.04
25000	343.15	0.12466	918.99	0.89
25000	343.15	0.21262	986.96	0.5
25000	343.15	0.29186	1034.69	0.6
25000	343.15	0.31855	1047.86	0.67
25000	343.15	0.41984	1091.31	0.95
25000	343.15	0.48466	1113.23	1.12
25000	343.15	0.57131	1138.67	1.33
25000	343.15	0.68271	1165.19	1.55
25000	343.15	0.79194	1186.47	1.72
25000	343.15	0.93175	1208.26	1.9
30000	283.15	0.05056	888.22	1.25
30000	283.15	0.10296	944.47	0.79
30000	283.15	0.12466	965.06	0.64
30000	283.15	0.21262	1032.11	0.61
30000	283.15	0.29186	1078.72	0.94
30000	283.15	0.31855	1091.95	1.05
30000	283.15	0.41984	1134.29	1.44
30000	283.15	0.48466	1156.16	1.65
30000	283.15	0.57131	1181.01	1.88
30000	283.15	0.68271	1207.27	2.13
30000	283.15	0.79194	1228.28	2.33
30000	283.15	0.93175	1249.69	2.53
30000	293.15	0.05056	880.91	1.31
30000	293.15	0.10296	937.28	0.84
30000	293.15	0.12466	957.93	0.69
30000	293.15	0.21262	1024.93	0.57
30000	293.15	0.29186	1071.18	0.88
30000	293.15	0.31855	1084.82	0.98
30000	293.15	0.41984	1127.27	1.38
30000	293.15	0.48466	1149.19	1.58
30000	293.15	0.57131	1174.07	1.82
30000	293.15	0.68271	1200.33	2.06
30000	293.15	0.79194	1221.4	2.3
30000	293.15	0.93175	1242.97	2.47
30000	298.15	0.05056	877.28	1.35
30000	298.15	0.10296	933.63	0.86
30000	298.15	0.12466	954.29	0.71
30000	298.15	0.21262	1021.38	0.55
30000	298.15	0.29186	1067.75	0.86
30000	298.15	0.31855	1081.37	0.96
30000	298.15	0.41984	1123.89	1.35
30000	298.15	0.48466	1145.8	1.6
30000	298.15	0.57131	1170.7	1.8
30000	298.15	0.68271	1197	2
30000	298.15	0.79194	1218.05	2.23
30000	298.15	0.93175	1239.69	2.44
30000	303.15	0.05056	873.69	1.38
30000	303.15	0.10296	930.09	0.89
30000	303.15	0.12466	950.74	0.74
30000	303.15	0.21262	1017.88	0.53
30000	303.15	0.29186	1064.33	0.83
30000	303.15	0.31855	1077.96	0.93
30000	303.15	0.41984	1120.55	1.32
30000	303.15	0.48466	1142.46	1.52
30000	303.15	0.57131	1167.4	1.8
30000	303.15	0.68271	1193.74	2
30000	303.15	0.79194	1214.77	2.2
30000	303.15	0.93175	1236.36	2.41
30000	313.15	0.05056	866.42	1.45
30000	313.15	0.10296	922.91	0.94
30000	313.15	0.12466	943.56	0.79
30000	313.15	0.21262	1010.88	0.5
30000	313.15	0.29186	1057.79	0.78
30000	313.15	0.31855	1071.08	0.88
30000	313.15	0.41984	1113.78	1.25
30000	313.15	0.48466	1135.7	1.5
30000	313.15	0.57131	1160.72	1.69
30000	313.15	0.68271	1187.08	1.94
30000	313.15	0.79194	1208.15	2.14
30000	313.15	0.93175	1229.75	2.35
30000	323.15	0.05056	859.16	1.51
30000	323.15	0.10296	915.79	1
30000	323.15	0.12466	936.42	0.84
30000	323.15	0.21262	1003.91	0.47
30000	323.15	0.29186	1051.07	0.74
30000	323.15	0.31855	1064.29	0.83
30000	323.15	0.41984	1107.1	1.2
30000	323.15	0.48466	1129.01	1.4
30000	323.15	0.57131	1154.14	1.63
30000	323.15	0.68271	1180.52	1.88
30000	323.15	0.79194	1201.62	2.08
30000	323.15	0.93175	1223.29	2.29
30000	333.15	0.05056	851.85	1.58
30000	333.15	0.10296	908.61	1.06
30000	333.15	0.12466	929.24	0.89
30000	333.15	0.21262	996.92	0.47
30000	333.15	0.29186	1044.25	0.69
30000	333.15	0.31855	1057.43	0.78
30000	333.15	0.41984	1100.42	1.13
30000	333.15	0.48466	1122.34	1.33
30000	333.15	0.57131	1147.56	1.57
30000	333.15	0.68271	1174	2
30000	333.15	0.79194	1195.12	2.02
30000	333.15	0.93175	1216.82	2.23
30000	343.15	0.05056	844.41	1.65
30000	343.15	0.10296	901.43	1.13
30000	343.15	0.12466	922.46	0.94
30000	343.15	0.21262	990.09	0.5
30000	343.15	0.29186	1036.01	0.64
30000	343.15	0.31855	1050.69	0.73
30000	343.15	0.41984	1093.96	1.07
30000	343.15	0.48466	1115.78	1.27
30000	343.15	0.57131	1141.1	1.5
30000	343.15	0.68271	1167.53	1.76
30000	343.15	0.79194	1188.72	1.96
30000	343.15	0.93175	1210.44	2.17
35000	283.15	0.05056	891.19	1.34
35000	283.15	0.10296	947.26	0.81
35000	283.15	0.12466	967.8	0.65
35000	283.15	0.21262	1034.62	0.66
35000	283.15	0.29186	1081.08	1.05
35000	283.15	0.31855	1094.27	1.18
35000	283.15	0.41984	1136.48	1.62
35000	283.15	0.48466	1158.29	1.85
35000	283.15	0.57131	1183.08	2.11
35000	283.15	0.68271	1209.25	2.39
35000	283.15	0.79194	1230.19	2.61
35000	283.15	0.93175	1251.56	2.84
35000	293.15	0.05056	883.98	1.42
35000	293.15	0.10296	940.18	0.87
35000	293.15	0.12466	960.74	0.7
35000	293.15	0.21262	1027.53	0.61
35000	293.15	0.29186	1073.62	0.97
35000	293.15	0.31855	1087.22	1.11
35000	293.15	0.41984	1129.54	1.55
35000	293.15	0.48466	1151.37	1.78
35000	293.15	0.57131	1176.19	2.04
35000	293.15	0.68271	1202.37	2.32
35000	293.15	0.79194	1223.38	2.54
35000	293.15	0.93175	1244.9	2.8
35000	298.15	0.05056	880.4	1.5
35000	298.15	0.10296	936.57	0.9
35000	298.15	0.12466	957.15	0.73
35000	298.15	0.21262	1024.03	0.58
35000	298.15	0.29186	1070.23	0.94
35000	298.15	0.31855	1083.79	1.07
35000	298.15	0.41984	1126.17	1.52
35000	298.15	0.48466	1148.02	1.74
35000	298.15	0.57131	1172.85	2.01
35000	298.15	0.68271	1199.05	2.28
35000	298.15	0.79194	1220.04	2.51
35000	298.15	0.93175	1241.63	2.74
35000	303.15	0.05056	876.89	1.49
35000	303.15	0.10296	933.1	0.9
35000	303.15	0.12466	953.67	0.76
35000	303.15	0.21262	1020.58	0.56
35000	303.15	0.29186	1066.82	0.91
35000	303.15	0.31855	1080.42	1.04
35000	303.15	0.41984	1122.89	1.48
35000	303.15	0.48466	1144.71	1.71
35000	303.15	0.57131	1169.59	1.97
35000	303.15	0.68271	1195.84	2.25
35000	303.15	0.79194	1216.82	2.47
35000	303.15	0.93175	1238.34	2.7
35000	313.15	0.05056	869.72	1.56
35000	313.15	0.10296	926.01	0.99
35000	313.15	0.12466	946.56	0.81
35000	313.15	0.21262	1013.65	0.52
35000	313.15	0.29186	1060.38	0.86
35000	313.15	0.31855	1073.63	0.97
35000	313.15	0.41984	1116.18	1.41
35000	313.15	0.48466	1138.01	1.64
35000	313.15	0.57131	1162.93	1.9
35000	313.15	0.68271	1189.22	2.18
35000	313.15	0.79194	1210.22	2.4
35000	313.15	0.93175	1231.75	2.63
35000	323.15	0.05056	862.58	1.64
35000	323.15	0.10296	919.01	1.06
35000	323.15	0.12466	939.53	0.87
35000	323.15	0.21262	1006.77	0.49
35000	323.15	0.29186	1053.73	0.8
35000	323.15	0.31855	1066.91	0.91
35000	323.15	0.41984	1109.55	1.34
35000	323.15	0.48466	1131.39	1.57
35000	323.15	0.57131	1156.41	1.83
35000	323.15	0.68271	1182.71	2.11
35000	323.15	0.79194	1203.73	2.34
35000	323.15	0.93175	1225.34	2.57
35000	333.15	0.05056	855.41	1.71
35000	333.15	0.10296	911.93	1.13
35000	333.15	0.12466	932.47	0.93
35000	333.15	0.21262	999.88	0.46
35000	333.15	0.29186	1046.98	0.75
35000	333.15	0.31855	1060.13	0.85
35000	333.15	0.41984	1102.94	1.27
35000	333.15	0.48466	1124.77	1.5
35000	333.15	0.57131	1149.9	1.8
35000	333.15	0.68271	1176.25	2.04
35000	333.15	0.79194	1197.28	2.27
35000	333.15	0.93175	1218.92	2.5
35000	343.15	0.05056	848.12	1.79
35000	343.15	0.10296	904.85	1.2
35000	343.15	0.12466	925.77	0.99
35000	343.15	0.21262	993.12	0.49
35000	343.15	0.29186	1040.41	0.7
35000	343.15	0.31855	1053.46	0.8
35000	343.15	0.41984	1096.54	1.21
35000	343.15	0.48466	1118.28	1.43
35000	343.15	0.57131	1143.48	1.7
35000	343.15	0.68271	1169.82	1.98
35000	343.15	0.79194	1190.93	2.2
35000	343.15	0.93175	1212.58	2.43
