Measured thermophysical data. Solubility of Baicalin in Methanol, Ethanol, and Ethyl Acetate from (298.2 to 328.2) K
Source: J. Chem. Eng. Data, 2009, 10.1021/je900171g
Compound 1: ethanol, C2H6O, InChI=1S/C2H6O/c1-2-3/h3H,2H2,1H3
Compound 2: baicalin, C21H18O11, InChI=1S/C21H18O11/c22-9-6-10(8-4-2-1-3-5-8)30-11-7-12(14(23)15(24)13(9)11)31-21-18(27)16(25)17(26)19(32-21)20(28)29/h1-7,16-19,21,23-27H,(H,28,29)/t16-,17-,18+,19-,21+/m0/s1
Compound 3: methanol, CH4O, InChI=1S/CH4O/c1-2/h2H,1H3
Compound 4: ethyl acetate, C4H8O2, InChI=1S/C4H8O2/c1-3-6-4(2)5/h3H2,1-2H3

System: ethanol + baicalin; phases: Liquid, Crystal
Fixed: Pressure, kPa = 101
Property: Amount concentration (molarity), mol/dm3 of baicalin (Liquid); method: SPECTR
Temperature, K	Amount concentration (molarity), mol/dm3 of baicalin	uncertainty
298.2	0.003274	7e-05
303.2	0.003357	7.2e-05
308.2	0.003485	7.5e-05
313.2	0.003497	7.5e-05
318.2	0.003629	7.8e-05
323.2	0.00368	7.9e-05
328.2	0.003726	8e-05

System: methanol + baicalin; phases: Liquid, Crystal
Fixed: Pressure, kPa = 101
Property: Amount concentration (molarity), mol/dm3 of baicalin (Liquid); method: SPECTR
Temperature, K	Amount concentration (molarity), mol/dm3 of baicalin	uncertainty
298.2	0.003157	7e-05
303.2	0.003563	7.8e-05
308.2	0.003862	8.3e-05
313.2	0.004125	9e-05
318.2	0.004774	0.000108
323.2	0.005902	0.000129
328.2	0.006152	0.000132

System: ethyl acetate + baicalin; phases: Liquid, Crystal
Fixed: Pressure, kPa = 101
Property: Amount concentration (molarity), mol/dm3 of baicalin (Liquid); method: SPECTR
Temperature, K	Amount concentration (molarity), mol/dm3 of baicalin	uncertainty
298.2	0.00011	3e-06
303.2	0.000151	4e-06
308.2	0.000201	5e-06
313.2	0.000225	5e-06
318.2	0.000269	7e-06
323.2	0.000324	8e-06
328.2	0.000332	8e-06
