Measured thermophysical data. Vapor Pressure of Dimethyl Phosphite and Dimethyl Methylphosphonate
Source: J. Chem. Eng. Data, 2010, 10.1021/je900258f
Compound 1: dimethyl phosphonate, C2H7O3P, InChI=1S/C2H7O3P/c1-4-6(3)5-2/h6H,1-2H3
Compound 2: dimethyl methanephosphonate, C3H9O3P, InChI=1S/C3H9O3P/c1-5-7(3,4)6-2/h1-3H3

System: dimethyl phosphonate; phases: Liquid, Gas
Property: Vapor or sublimation pressure, kPa (Liquid); method: CCELL:UFactor:8
Temperature, K	Vapor or sublimation pressure, kPa	uncertainty
352.85	4.1	0.12
354.05	4.33	0.12
356.87	4.87	0.13
357.35	4.93	0.13
360.85	5.8	0.14
364.2	6.7	0.15
367.05	7.47	0.17
369.95	8.6	0.18
372.45	9.39	0.19
376.07	10.96	0.22
378.85	12.16	0.23
382.43	14.01	0.26
387.65	16.94	0.3
391.75	19.85	0.34
396.75	23.33	0.41
397.55	24.17	0.42
398.75	25.46	0.42
402.95	29.32	0.47
408.05	34.77	0.55
413.45	41.6	0.64
416.75	46.6	0.71
422.46	55.24	0.81
423.9	57.79	0.87
428.03	65.89	0.97
430.85	71.5	1.03
434.8	79.35	1.15
437.05	86.14	1.25
438.59	89.11	1.24
440.35	93.1	1.3
441.85	96.63	1.38
443.35	101.33	1.46

System: dimethyl methanephosphonate; phases: Liquid, Gas
Property: Vapor or sublimation pressure, kPa (Liquid); method: CCELL:UFactor:8
Temperature, K	Vapor or sublimation pressure, kPa	uncertainty
358.17	2.73	0.1
362.65	3.51	0.11
368.35	4.75	0.13
373.95	6.34	0.16
380.75	8.76	0.19
385.95	10.96	0.22
390.25	13.41	0.25
393.15	14.93	0.28
397.45	18.07	0.32
401.25	20.76	0.36
403.85	23.13	0.4
409.65	28.76	0.46
412.45	31.41	0.5
416.27	35.86	0.56
419.6	39.84	0.61
423.25	44.26	0.67
427.05	50.3	0.76
431.95	58.21	0.86
434.65	63.24	0.92
437.75	68.4	0.99
442.25	77.79	1.1
446.25	84.92	1.19
448.65	91.51	1.3
450.85	96.47	1.33
453.45	101.32	1.37
