Measured thermophysical data. Measurement and Correlation of Vapor-Liquid Equilibrium for the Carbon Dioxide + 1-Butoxy Butane System
Source: J. Chem. Eng. Data, 2010, 10.1021/je900231r
Compound 1: carbon dioxide, CO2, InChI=1S/CO2/c2-1-3, purity 99.9%
Compound 2: dibutyl ether, C8H18O, InChI=1S/C8H18O/c1-3-5-7-9-8-6-4-2/h3-8H2,1-2H3, purity 99%
Compound 3: ethanol, C2H6O, InChI=1S/C2H6O/c1-2-3/h3H,2H2,1H3

System: carbon dioxide + dibutyl ether; phases: Liquid, Gas
Property: Vapor or sublimation pressure, kPa (Liquid); method: CCELL:UFactor:8
Mole fraction of carbon dioxide	Temperature, K	Vapor or sublimation pressure, kPa	uncertainty
0.1166	309.15	663	21
0.119	289.35	506	16
0.1235	298.55	612	20
0.1539	273.25	544	18
0.1592	263.15	442	14
0.1977	298.55	988	32
0.22	289.35	1003	32
0.2372	309.15	1318	42
0.2628	263.15	771	25
0.2673	309.15	1488	48
0.2858	273.25	1115	36
0.3172	298.55	1564	50
0.3188	289.35	1472	47
0.3386	309.15	1934	62
0.3742	263.15	1192	38
0.3878	273.25	1527	49
0.3908	298.55	2005	64
0.3988	309.15	2395	77
0.4101	289.35	2002	64
0.4415	298.55	2431	78
0.4548	309.15	2810	90
0.4569	273.25	1875	60
0.4705	289.35	2310	74
0.4778	263.15	1652	53
0.4989	298.55	2818	90
0.5355	289.35	2685	86
0.5442	263.15	2002	64
0.5669	273.25	2453	79
0.6009	263.15	2322	75
0.6297	273.25	2815	90

System: carbon dioxide + dibutyl ether; phases: Gas, Liquid
Property: Mole fraction of carbon dioxide (Gas); method: Chromatography
Mole fraction of carbon dioxide	Temperature, K	Mole fraction of carbon dioxide	uncertainty
0.1166	309.15	0.9945	0.0004
0.119	289.35	0.9955	0.0004
0.1235	298.55	0.9951	0.0004
0.1539	273.25	0.996	0.0004
0.1592	263.15	0.9966	0.0004
0.1977	298.55	0.9953	0.0004
0.22	289.35	0.9957	0.0004
0.2372	309.15	0.9947	0.0004
0.2628	263.15	0.9968	0.0004
0.2673	309.15	0.9949	0.0004
0.2858	273.25	0.9963	0.0004
0.3172	298.55	0.9955	0.0004
0.3188	289.35	0.9959	0.0004
0.3386	309.15	0.9951	0.0004
0.3742	263.15	0.9969	0.0004
0.3878	273.25	0.9964	0.0004
0.3908	298.55	0.9957	0.0004
0.3988	309.15	0.9952	0.0004
0.4101	289.35	0.9961	0.0004
0.4415	298.55	0.9958	0.0004
0.4548	309.15	0.9955	0.0004
0.4569	273.25	0.9968	0.0004
0.4705	289.35	0.9962	0.0004
0.4778	263.15	0.9972	0.0004
0.4989	298.55	0.9959	0.0004
0.5355	289.35	0.9964	0.0004
0.5442	263.15	0.9975	0.0004
0.5669	273.25	0.997	0.0004
0.6009	263.15	0.9977	0.0004
0.6297	273.25	0.9972	0.0004

System: ethanol + carbon dioxide; phases: Liquid, Gas
Property: Vapor or sublimation pressure, kPa (Liquid); method: CCELL:UFactor:8
Mole fraction of carbon dioxide	Temperature, K	Vapor or sublimation pressure, kPa	uncertainty
0.0555	293.15	750	30
0.0606	303.15	950	30
0.1292	293.15	1600	50
0.1355	303.15	2000	70
0.1755	293.15	2220	70
0.2185	303.15	3050	100

System: ethanol + carbon dioxide; phases: Gas, Liquid
Property: Mole fraction of carbon dioxide (Gas); method: Chromatography
Mole fraction of carbon dioxide	Temperature, K	Mole fraction of carbon dioxide	uncertainty
0.0555	293.15	0.9886	0.0004
0.0606	303.15	0.9879	0.0004
0.1292	293.15	0.9948	0.0004
0.1355	303.15	0.994	0.0004
0.1755	293.15	0.9972	0.0004
0.2185	303.15	0.9972	0.0004
