Measured thermophysical data. Density and Surface Tension of Ionic Liquid [C2mim][PF3(CF2CF3)3] and Prediction of Properties [Cnmim][PF3(CF2CF3)3] (n = 1, 3, 4, 5, 6)
Source: J. Chem. Eng. Data, 2010, 10.1021/je901035d
Compound 1: 1-ethyl-3-methylimidazolium tris(pentafluoroethyl)trifluorophosphate, C12H11F18N2P, InChI=1S/C6F18P.C6H11N2/c7-1(8,9)4(16,17)25(22,23,24,5(18,19)2(10,11)12)6(20,21)3(13,14)15;1-3-8-5-4-7(2)6-8/h;4-6H,3H2,1-2H3/q-1;+1

System: 1-ethyl-3-methylimidazolium tris(pentafluoroethyl)trifluorophosphate; phases: Liquid, Air at 1 atmosphere
Property: Surface tension liquid-gas, N/m (Liquid); method: Maximal bubble pressure
Temperature, K	Surface tension liquid-gas, N/m	uncertainty
283.15	0.0353	0.0005
288.15	0.0351	0.0005
293.15	0.0349	0.0005
298.15	0.0348	0.0005
303.15	0.0346	0.0005
308.15	0.0344	0.0005
313.15	0.0342	0.0005
318.15	0.0341	0.0005
323.15	0.034	0.0005
328.15	0.0338	0.0005
333.15	0.0336	0.0005
338.15	0.0334	0.0005

System: 1-ethyl-3-methylimidazolium tris(pentafluoroethyl)trifluorophosphate; phases: Liquid
Fixed: Pressure, kPa = 101.325
Property: Mass density, kg/m3 (Liquid); method: VIBTUB:UFactor:8
Temperature, K	Mass density, kg/m3	uncertainty
283.15	1727.05	2.63
288.15	1721.13	2.61
293.15	1715.17	2.59
298.15	1709.26	2.57
303.15	1703.32	2.55
308.15	1697.4	2.54
313.15	1691.5	2.52
318.15	1685.62	2.5
323.15	1679.75	2.48
328.15	1673.88	2.46
333.15	1668.04	2.45
338.15	1662.21	2.43
