Measured thermophysical data. Volumetric and Viscometric Properties of Some Sulpha Drugs in Aqueous Solutions of Sodium Chloride at T = (288.15 to 318.15) K
Source: J. Chem. Eng. Data, 2010, 10.1021/je900798p
Compound 1: 4-aminobenzenesulfonamide, C6H8N2O2S, InChI=1S/C6H8N2O2S/c7-5-1-3-6(4-2-5)11(8,9)10/h1-4H,7H2,(H2,8,9,10), purity 99%
Compound 2: 4-aminobenzenesulfonic acid, C6H7NO3S, InChI=1S/C6H7NO3S/c7-5-1-3-6(4-2-5)11(8,9)10/h1-4H,7H2,(H,8,9,10), purity 99%
Compound 3: 2-hydroxy-5-sulfobenzoic acid dihydrate, C7H10O8S, InChI=1S/C7H6O6S.2H2O/c8-6-2-1-4(14(11,12)13)3-5(6)7(9)10;;/h1-3,8H,(H,9,10)(H,11,12,13);2*1H2, purity 99.5%
Compound 4: sodium chloride, ClNa, InChI=1S/ClH.Na/h1H;/q;+1/p-1, purity 99.5%
Compound 5: water, H2O, InChI=1S/H2O/h1H2

System: 4-aminobenzenesulfonamide + water; phases: Liquid
Fixed: Pressure, kPa = 101
Property: Viscosity, Pa*s (Liquid); method: Capillary tube (Ostwald; Ubbelohde) method
Temperature, K	Molality, mol/kg of 4-aminobenzenesulfonamide	Viscosity, Pa*s	uncertainty
288.15	0.01075	0.0011425	7e-06
288.15	0.01834	0.0011451	7e-06
288.15	0.02431	0.0011466	7e-06
288.15	0.0253	0.0011472	7e-06
288.15	0.0329	0.0011496	7e-06
288.15	0.03964	0.0011517	7e-06
298.15	0.01076	0.0008931	5.6e-06
298.15	0.01838	0.000895	5.6e-06
298.15	0.02431	0.0008965	5.7e-06
298.15	0.0253	0.000897	5.7e-06
298.15	0.0329	0.000899	5.7e-06
298.15	0.03964	0.0009008	5.7e-06
308.15	0.01076	0.0007207	4.7e-06
308.15	0.01838	0.0007224	4.7e-06
308.15	0.02431	0.0007234	4.8e-06
308.15	0.0253	0.000724	4.8e-06
308.15	0.0329	0.0007254	4.8e-06
318.15	0.01076	0.0005965	4.2e-06
318.15	0.01838	0.0005979	4.2e-06
318.15	0.02431	0.0005992	4.2e-06
318.15	0.0253	0.0005993	4.2e-06
318.15	0.0329	0.0006007	4.2e-06
318.15	0.03964	0.0006015	4.2e-06

System: 4-aminobenzenesulfonamide + water; phases: Liquid
Fixed: Pressure, kPa = 101.3
Property: Mass density, kg/m3 (Liquid); method: VIBTUB::UFactor:8
Temperature, K	Molality, mol/kg of 4-aminobenzenesulfonamide	Mass density, kg/m3	uncertainty
288.15	0.01316	999.796	0.259
288.15	0.01579	999.933	0.259
288.15	0.02227	1000.266	0.26
288.15	0.03105	1000.725	0.261
288.15	0.03342	1000.849	0.262
288.15	0.04091	1001.247	0.263
298.15	0.01316	997.704	0.309
298.15	0.01579	997.837	0.269
298.15	0.02227	998.168	0.265
298.15	0.03105	998.62	0.261
298.15	0.03342	998.742	0.267
298.15	0.04091	999.135	0.256
308.15	0.01316	994.705	0.311
308.15	0.01579	994.835	0.277
308.15	0.02227	995.159	0.274
308.15	0.03105	995.604	0.27
308.15	0.03342	995.726	0.275
308.15	0.04091	996.113	0.266
318.15	0.01316	990.877	0.286
318.15	0.01579	991.006	0.285
318.15	0.02227	991.325	0.284
318.15	0.03105	991.766	0.283
318.15	0.03342	991.885	0.283
318.15	0.04091	992.269	0.282

System: 4-aminobenzenesulfonic acid + water; phases: Liquid
Fixed: Pressure, kPa = 101
Property: Viscosity, Pa*s (Liquid); method: Capillary tube (Ostwald; Ubbelohde) method
Temperature, K	Molality, mol/kg of 4-aminobenzenesulfonic acid	Viscosity, Pa*s	uncertainty
288.15	0.01062	0.0011432	7e-06
288.15	0.01687	0.001145	7e-06
288.15	0.02132	0.0011467	7e-06
288.15	0.03025	0.0011499	7e-06
288.15	0.03888	0.0011533	7e-06
298.15	0.01062	0.0008949	5.6e-06
298.15	0.01687	0.0008969	5.6e-06
298.15	0.02337	0.000899	5.7e-06
298.15	0.03025	0.0008999	5.7e-06
298.15	0.03888	0.0009031	5.7e-06
308.15	0.00618	0.0007215	4.7e-06
308.15	0.01062	0.0007221	4.7e-06
308.15	0.01687	0.000724	4.7e-06
308.15	0.02132	0.0007252	4.8e-06
308.15	0.02337	0.0007255	4.8e-06
308.15	0.03888	0.0007281	4.8e-06
318.15	0.01136	0.0005999	4.2e-06
318.15	0.02046	0.000601	4.2e-06
318.15	0.02864	0.0006033	4.2e-06
318.15	0.03381	0.0006041	4.2e-06
318.15	0.03759	0.0006049	4.2e-06
318.15	0.04297	0.0006055	4.2e-06

System: 4-aminobenzenesulfonic acid + water; phases: Liquid
Fixed: Pressure, kPa = 101.3
Property: Mass density, kg/m3 (Liquid); method: VIBTUB::UFactor:8
Temperature, K	Molality, mol/kg of 4-aminobenzenesulfonic acid	Mass density, kg/m3	uncertainty
288.15	0.00817	999.669	0.263
288.15	0.01529	1000.144	0.263
288.15	0.02369	1000.706	0.264
288.15	0.031	1001.201	0.266
288.15	0.0389	1001.736	0.268
288.15	0.04164	1001.923	0.268
298.15	0.00817	997.584	0.283
298.15	0.01529	998.054	0.268
298.15	0.02369	998.614	0.266
298.15	0.031	999.103	0.266
298.15	0.0389	999.637	0.261
298.15	0.04164	999.824	0.258
308.15	0.00817	994.592	0.29
308.15	0.01529	995.057	0.277
308.15	0.02369	995.612	0.275
308.15	0.031	996.1	0.274
308.15	0.0389	996.63	0.27
308.15	0.04164	996.815	0.266
318.15	0.00817	990.764	0.289
318.15	0.01529	991.221	0.288
318.15	0.02369	991.766	0.286
318.15	0.031	992.244	0.285
318.15	0.0389	992.765	0.284
318.15	0.04164	992.949	0.283

System: 2-hydroxy-5-sulfobenzoic acid dihydrate + water; phases: Liquid
Fixed: Pressure, kPa = 101
Property: Viscosity, Pa*s (Liquid); method: Capillary tube (Ostwald; Ubbelohde) method
Temperature, K	Molality, mol/kg of 2-hydroxy-5-sulfobenzoic acid dihydrate	Viscosity, Pa*s	uncertainty
288.15	0.02287	0.001152	7e-06
288.15	0.03321	0.001158	7.1e-06
288.15	0.04266	0.0011631	7.1e-06
288.15	0.05981	0.0011731	7.1e-06
298.15	0.02287	0.0008998	5.7e-06
298.15	0.03321	0.0009032	5.7e-06
298.15	0.04266	0.000907	5.7e-06
298.15	0.05981	0.0009134	5.7e-06
308.15	0.02287	0.0007268	4.8e-06
308.15	0.03321	0.0007304	4.8e-06
308.15	0.04266	0.0007332	4.8e-06
308.15	0.05981	0.0007386	4.8e-06
318.15	0.02287	0.000597	4.2e-06
318.15	0.03321	0.0006063	4.2e-06
318.15	0.04266	0.0006087	4.2e-06
318.15	0.05981	0.0006128	4.3e-06

System: 2-hydroxy-5-sulfobenzoic acid dihydrate + water; phases: Liquid
Fixed: Pressure, kPa = 101.3
Property: Mass density, kg/m3 (Liquid); method: VIBTUB:UFactor:8
Temperature, K	Molality, mol/kg of 2-hydroxy-5-sulfobenzoic acid dihydrate	Mass density, kg/m3	uncertainty
288.15	0.0092	1000.035	0.272
288.15	0.02311	1001.395	0.276
288.15	0.03359	1002.409	0.278
288.15	0.04474	1003.469	0.281
288.15	0.05423	1004.382	0.284
288.15	0.06044	1004.973	0.285
298.15	0.0092	997.937	0.286
298.15	0.02311	999.272	0.272
298.15	0.03359	1000.269	0.272
298.15	0.04474	1001.32	0.274
298.15	0.05423	1002.207	0.275
298.15	0.06044	1002.785	0.268
308.15	0.0092	994.942	0.293
308.15	0.02311	996.259	0.281
308.15	0.03359	997.242	0.278
308.15	0.04474	998.278	0.274
308.15	0.05423	999.153	0.271
308.15	0.06044	999.722	0.26
318.15	0.0092	991.107	0.296
318.15	0.02311	992.401	0.292
318.15	0.03359	993.367	0.289
318.15	0.04474	994.388	0.286
318.15	0.05423	995.245	0.283
318.15	0.06044	995.806	0.281

System: sodium chloride + water; phases: Liquid
Fixed: Pressure, kPa = 101
Property: Viscosity, Pa*s (Liquid); method: Capillary tube (Ostwald; Ubbelohde) method
Temperature, K	Molality, mol/kg of sodium chloride	Viscosity, Pa*s	uncertainty
288.15	0.05	0.001146	7e-06
288.15	0.1	0.0011506	7e-06
288.15	0.3	0.0011648	7.1e-06
288.15	0.5	0.0011785	7.2e-06
298.15	0.05	0.0008978	5.7e-06
298.15	0.1	0.0009012	5.7e-06
298.15	0.3	0.0009173	5.8e-06
298.15	0.5	0.000932	5.8e-06
308.15	0.05	0.0007251	4.7e-06
308.15	0.1	0.000728	4.8e-06
308.15	0.3	0.0007433	4.8e-06
308.15	0.5	0.0007564	4.9e-06
318.15	0.05	0.0006022	4.2e-06
318.15	0.1	0.0006056	4.2e-06
318.15	0.3	0.0006189	4.3e-06
318.15	0.5	0.0006296	4.3e-06

System: 4-aminobenzenesulfonamide + sodium chloride + water; phases: Liquid
Fixed: Pressure, kPa = 101
Property: Viscosity, Pa*s (Liquid); method: Capillary tube (Ostwald; Ubbelohde) method
Temperature, K	Solvent: Molality, mol/kg of sodium chloride	Molality, mol/kg of 4-aminobenzenesulfonamide	Viscosity, Pa*s	uncertainty
288.15	0.05	0.02032	0.001146	7.6e-06
288.15	0.05	0.02245	0.0011488	7.6e-06
288.15	0.05	0.0313	0.0011526	7.6e-06
288.15	0.05	0.03783	0.0011552	7.7e-06
288.15	0.1	0.01146	0.0011506	7.6e-06
288.15	0.1	0.01584	0.0011515	7.6e-06
288.15	0.1	0.01697	0.0011521	7.6e-06
288.15	0.1	0.0198	0.0011551	7.7e-06
288.15	0.1	0.02915	0.0011606	7.7e-06
288.15	0.3	0.00541	0.0011661	7.7e-06
288.15	0.3	0.01089	0.0011679	7.7e-06
288.15	0.3	0.01427	0.0011709	7.8e-06
288.15	0.3	0.02284	0.0011749	7.8e-06
288.15	0.3	0.0289	0.0011784	7.8e-06
288.15	0.5	0.01132	0.0011813	7.8e-06
288.15	0.5	0.01913	0.0011834	7.8e-06
288.15	0.5	0.02165	0.0011849	7.8e-06
288.15	0.5	0.02805	0.0011869	7.9e-06
288.15	0.5	0.03503	0.0011889	7.9e-06
298.15	0.05	0.01361	0.0009031	6.1e-06
298.15	0.05	0.01772	0.0009057	6.2e-06
298.15	0.05	0.02032	0.0009068	6.2e-06
298.15	0.05	0.02246	0.0009081	6.2e-06
298.15	0.05	0.0313	0.0009134	6.2e-06
298.15	0.05	0.03783	0.0009169	6.2e-06
298.15	0.1	0.01146	0.0009026	6.1e-06
298.15	0.1	0.01584	0.0009046	6.2e-06
298.15	0.1	0.01697	0.0009063	6.2e-06
298.15	0.1	0.0198	0.0009087	6.2e-06
298.15	0.1	0.02915	0.0009143	6.2e-06
298.15	0.3	0.00541	0.0009158	6.2e-06
298.15	0.3	0.01089	0.0009167	6.2e-06
298.15	0.3	0.01427	0.000918	6.2e-06
298.15	0.3	0.02284	0.0009201	6.3e-06
298.15	0.3	0.02915	0.0009306	6.3e-06
298.15	0.5	0.01913	0.0009344	6.3e-06
298.15	0.5	0.02196	0.0009351	6.3e-06
298.15	0.5	0.02805	0.0009368	6.4e-06
298.15	0.5	0.03503	0.0009388	6.4e-06
308.15	0.05	0.01361	0.0007252	5.1e-06
308.15	0.05	0.01772	0.000726	5.1e-06
308.15	0.05	0.02032	0.0007263	5.1e-06
308.15	0.05	0.02246	0.0007266	5.1e-06
308.15	0.05	0.0313	0.0007285	5.1e-06
308.15	0.05	0.03783	0.0007308	5.1e-06
308.15	0.1	0.01697	0.0007266	5.1e-06
308.15	0.1	0.0198	0.0007273	5.1e-06
308.15	0.1	0.02915	0.0007291	5.1e-06
308.15	0.3	0.00541	0.0007423	5.2e-06
308.15	0.3	0.01089	0.0007432	5.2e-06
308.15	0.3	0.01427	0.000744	5.2e-06
308.15	0.3	0.02284	0.0007458	5.2e-06
308.15	0.3	0.0289	0.0007467	5.2e-06
308.15	0.5	0.01132	0.0007555	5.3e-06
308.15	0.5	0.01913	0.0007563	5.3e-06
308.15	0.5	0.02196	0.0007573	5.3e-06
308.15	0.5	0.02805	0.0007582	5.3e-06
308.15	0.5	0.03503	0.00076	5.3e-06
318.15	0.05	0.02032	0.0006011	4.5e-06
318.15	0.05	0.02246	0.0006014	4.5e-06
318.15	0.05	0.0313	0.0006024	4.5e-06
318.15	0.05	0.03783	0.0006039	4.5e-06
318.15	0.1	0.00597	0.0006041	4.5e-06
318.15	0.1	0.01146	0.0006044	4.5e-06
318.15	0.1	0.01584	0.0006048	4.5e-06
318.15	0.1	0.0198	0.0006052	4.5e-06
318.15	0.1	0.02915	0.000606	4.5e-06
318.15	0.3	0.00541	0.0006187	4.6e-06
318.15	0.3	0.01089	0.000619	4.6e-06
318.15	0.3	0.01427	0.0006193	4.6e-06
318.15	0.3	0.02284	0.0006205	4.6e-06
318.15	0.3	0.0289	0.000621	4.6e-06
318.15	0.5	0.01132	0.0006309	4.6e-06
318.15	0.5	0.01913	0.0006322	4.6e-06
318.15	0.5	0.02196	0.0006326	4.6e-06
318.15	0.5	0.02805	0.0006334	4.6e-06
318.15	0.5	0.03503	0.0006344	4.7e-06

System: 4-aminobenzenesulfonamide + sodium chloride + water; phases: Liquid
Fixed: Pressure, kPa = 101.3
Property: Mass density, kg/m3 (Liquid); method: VIBTUB:UFactor:8
Temperature, K	Molality, mol/kg of sodium chloride	Molality, mol/kg of 4-aminobenzenesulfonamide	Mass density, kg/m3	uncertainty
288.15	0	0.01316	999.796	0.259
288.15	0	0.01579	999.933	0.259
288.15	0	0.02227	1000.266	0.26
288.15	0	0.03105	1000.725	0.261
288.15	0	0.03342	1000.849	0.262
288.15	0	0.04091	1001.247	0.263
288.15	0.05	0.01025	1001.767	0.264
288.15	0.05	0.01405	1001.967	0.265
288.15	0.05	0.02218	1002.4	0.266
288.15	0.05	0.02648	1002.631	0.267
288.15	0.05	0.03192	1002.925	0.268
288.15	0.05	0.03513	1003.101	0.269
288.15	0.1	0.00866	1003.779	0.27
288.15	0.1	0.0119	1003.948	0.271
288.15	0.1	0.01968	1004.357	0.271
288.15	0.1	0.02419	1004.595	0.273
288.15	0.1	0.02644	1004.715	0.273
288.15	0.1	0.03308	1005.072	0.275
288.15	0.3	0.00944	1012.126	0.299
288.15	0.3	0.01283	1012.3	0.296
288.15	0.3	0.01614	1012.468	0.297
288.15	0.3	0.0255	1012.954	0.298
288.15	0.3	0.0307	1013.227	0.299
288.15	0.5	0.00991	1020.276	0.321
288.15	0.5	0.01824	1020.699	0.322
288.15	0.5	0.02376	1020.983	0.323
288.15	0.5	0.02556	1021.077	0.323
288.15	0.5	0.02877	1021.244	0.324
288.15	0.5	0.03442	1021.541	0.325
298.15	0	0.01316	997.704	0.309
298.15	0	0.01579	997.837	0.269
298.15	0	0.02227	998.168	0.265
298.15	0	0.03105	998.62	0.261
298.15	0	0.03342	998.742	0.267
298.15	0	0.04091	999.135	0.256
298.15	0.05	0.01025	999.634	0.288
298.15	0.05	0.01405	999.828	0.26
298.15	0.05	0.02218	1000.247	0.257
298.15	0.05	0.02648	1000.471	0.262
298.15	0.05	0.03192	1000.757	0.259
298.15	0.05	0.03513	1000.925	0.261
298.15	0.1	0.00866	1001.577	0.302
298.15	0.1	0.0119	1001.741	0.266
298.15	0.1	0.01968	1002.137	0.264
298.15	0.1	0.02419	1002.37	0.263
298.15	0.1	0.02644	1002.487	0.27
298.15	0.1	0.03308	1002.833	0.262
298.15	0.3	0.00944	1009.745	0.304
298.15	0.3	0.01283	1009.913	0.288
298.15	0.3	0.01614	1010.08	0.291
298.15	0.3	0.0255	1010.556	0.29
298.15	0.3	0.0307	1010.824	0.287
298.15	0.5	0.00991	1017.65	0.318
298.15	0.5	0.01824	1018.055	0.313
298.15	0.5	0.02376	1018.327	0.312
298.15	0.5	0.02556	1018.416	0.317
298.15	0.5	0.02877	1018.575	0.317
298.15	0.5	0.03442	1018.859	0.312
308.15	0	0.01316	994.705	0.311
308.15	0	0.01579	994.835	0.277
308.15	0	0.02227	995.159	0.274
308.15	0	0.03105	995.604	0.27
308.15	0	0.03342	995.726	0.275
308.15	0	0.04091	996.113	0.266
308.15	0.05	0.01025	996.571	0.268
308.15	0.05	0.01405	996.762	0.268
308.15	0.05	0.02218	997.172	0.267
308.15	0.05	0.02648	997.392	0.266
308.15	0.05	0.03192	997.67	0.266
308.15	0.05	0.03513	997.837	0.265
308.15	0.1	0.00866	998.477	0.294
308.15	0.1	0.0119	998.637	0.265
308.15	0.1	0.01968	999.029	0.261
308.15	0.1	0.02419	999.26	0.258
308.15	0.1	0.02644	999.375	0.263
308.15	0.1	0.03308	999.719	0.254
308.15	0.3	0.00944	1006.507	0.29
308.15	0.3	0.01283	1006.672	0.278
308.15	0.3	0.01614	1006.833	0.281
308.15	0.3	0.0255	1007.296	0.28
308.15	0.3	0.0307	1007.558	0.277
308.15	0.5	0.00991	1014.305	0.307
308.15	0.5	0.01824	1014.701	0.302
308.15	0.5	0.02376	1014.968	0.302
308.15	0.5	0.02556	1015.055	0.307
308.15	0.5	0.02877	1015.212	0.306
308.15	0.5	0.03442	1015.493	0.302
318.15	0	0.01316	990.877	0.286
318.15	0	0.01579	991.006	0.285
318.15	0	0.02227	991.325	0.284
318.15	0	0.03105	991.766	0.283
318.15	0	0.03342	991.885	0.283
318.15	0	0.04091	992.269	0.282
318.15	0.1	0.00866	994.602	0.274
318.15	0.1	0.0119	994.761	0.274
318.15	0.1	0.01968	995.15	0.273
318.15	0.1	0.02419	995.378	0.272
318.15	0.1	0.02644	995.495	0.272
318.15	0.1	0.03308	995.838	0.27
318.15	0.3	0.00944	1002.598	0.274
318.15	0.3	0.01283	1002.761	0.266
318.15	0.3	0.01614	1002.92	0.267
318.15	0.3	0.0255	1003.38	0.268
318.15	0.3	0.0307	1003.641	0.269
318.15	0.5	0.00991	1010.253	0.289
318.15	0.5	0.01824	1010.646	0.29
318.15	0.5	0.02376	1010.91	0.291
318.15	0.5	0.02556	1010.998	0.292
318.15	0.5	0.02877	1011.156	0.292
318.15	0.5	0.03442	1011.433	0.293

System: 4-aminobenzenesulfonic acid + sodium chloride + water; phases: Liquid
Fixed: Pressure, kPa = 101
Property: Viscosity, Pa*s (Liquid); method: Capillary tube (Ostwald; Ubbelohde) method
Temperature, K	Solvent: Molality, mol/kg of sodium chloride	Molality, mol/kg of 4-aminobenzenesulfonic acid	Viscosity, Pa*s	uncertainty
288.15	0.05	0.01005	0.0011521	7.6e-06
288.15	0.05	0.01394	0.0011492	7.6e-06
288.15	0.05	0.01944	0.0011512	7.6e-06
288.15	0.05	0.02225	0.0011525	7.6e-06
288.15	0.05	0.02762	0.0011541	7.7e-06
288.15	0.05	0.03738	0.0011576	7.7e-06
288.15	0.1	0.00634	0.001152	7.6e-06
288.15	0.1	0.01596	0.0011564	7.7e-06
288.15	0.1	0.02273	0.0011589	7.7e-06
288.15	0.1	0.0342	0.0011643	7.7e-06
288.15	0.1	0.03616	0.0011645	7.7e-06
288.15	0.1	0.04459	0.0011683	7.7e-06
288.15	0.3	0.01572	0.0011712	7.8e-06
288.15	0.3	0.02235	0.0011733	7.8e-06
288.15	0.3	0.02715	0.0011754	7.8e-06
288.15	0.3	0.03258	0.0011773	7.8e-06
288.15	0.3	0.03725	0.0011798	7.8e-06
288.15	0.5	0.00817	0.0011827	7.8e-06
288.15	0.5	0.01315	0.001185	7.8e-06
288.15	0.5	0.01945	0.001188	7.9e-06
288.15	0.5	0.02199	0.0011889	7.9e-06
288.15	0.5	0.028	0.0011915	7.9e-06
288.15	0.5	0.03112	0.0011929	7.9e-06
298.15	0.05	0.01161	0.0008993	6.1e-06
298.15	0.05	0.01339	0.0009	6.1e-06
298.15	0.05	0.02361	0.0009023	6.1e-06
298.15	0.05	0.02722	0.0009035	6.2e-06
298.15	0.05	0.03062	0.0009047	6.2e-06
298.15	0.05	0.03704	0.0009058	6.2e-06
298.15	0.1	0.00634	0.0009026	6.2e-06
298.15	0.1	0.016	0.0009053	6.2e-06
298.15	0.1	0.02273	0.0009075	6.2e-06
298.15	0.1	0.0342	0.0009111	6.2e-06
298.15	0.1	0.03616	0.0009116	6.2e-06
298.15	0.1	0.04459	0.000914	6.2e-06
298.15	0.3	0.00873	0.0009195	6.2e-06
298.15	0.3	0.01572	0.0009212	6.3e-06
298.15	0.3	0.02235	0.0009234	6.3e-06
298.15	0.3	0.02715	0.0009247	6.3e-06
298.15	0.3	0.03258	0.0009256	6.3e-06
298.15	0.3	0.03725	0.0009273	6.3e-06
298.15	0.5	0.00904	0.000935	6.3e-06
298.15	0.5	0.01303	0.0009356	6.3e-06
298.15	0.5	0.01935	0.0009382	6.4e-06
298.15	0.5	0.02385	0.0009389	6.4e-06
298.15	0.5	0.03017	0.0009406	6.4e-06
298.15	0.5	0.03887	0.0009432	6.4e-06
308.15	0.05	0.01339	0.0007271	5.1e-06
308.15	0.05	0.0236	0.0007292	5.1e-06
308.15	0.05	0.02722	0.0007302	5.1e-06
308.15	0.05	0.03062	0.0007309	5.1e-06
308.15	0.05	0.03704	0.0007321	5.2e-06
308.15	0.1	0.00634	0.0007295	5.1e-06
308.15	0.1	0.01596	0.0007317	5.1e-06
308.15	0.1	0.02273	0.000733	5.2e-06
308.15	0.1	0.0342	0.0007362	5.2e-06
308.15	0.1	0.04459	0.0007387	5.2e-06
308.15	0.3	0.00873	0.0007452	5.2e-06
308.15	0.3	0.01572	0.0007469	5.2e-06
308.15	0.3	0.02235	0.0007481	5.2e-06
308.15	0.3	0.02715	0.000749	5.2e-06
308.15	0.3	0.03258	0.0007504	5.2e-06
308.15	0.3	0.03746	0.0007517	5.3e-06
308.15	0.5	0.01315	0.0007577	5.3e-06
308.15	0.5	0.01945	0.0007587	5.3e-06
308.15	0.5	0.02199	0.000759	5.3e-06
308.15	0.5	0.028	0.00076	5.3e-06
308.15	0.5	0.03112	0.0007606	5.3e-06
318.15	0.05	0.01161	0.0006036	4.5e-06
318.15	0.05	0.01339	0.0006039	4.5e-06
318.15	0.05	0.02361	0.0006057	4.5e-06
318.15	0.05	0.02721	0.0006063	4.5e-06
318.15	0.05	0.03062	0.0006071	4.5e-06
318.15	0.05	0.03704	0.0006081	4.5e-06
318.15	0.1	0.00634	0.0006063	4.5e-06
318.15	0.1	0.01596	0.000608	4.5e-06
318.15	0.1	0.02273	0.0006094	4.5e-06
318.15	0.1	0.0342	0.0006121	4.5e-06
318.15	0.1	0.03616	0.0006124	4.5e-06
318.15	0.1	0.04459	0.0006137	4.5e-06
318.15	0.3	0.00873	0.0006204	4.6e-06
318.15	0.3	0.01572	0.0006219	4.6e-06
318.15	0.3	0.02235	0.000623	4.6e-06
318.15	0.3	0.02715	0.0006238	4.6e-06
318.15	0.3	0.03258	0.0006248	4.6e-06
318.15	0.3	0.03725	0.0006256	4.6e-06
318.15	0.5	0.01315	0.0006317	4.6e-06
318.15	0.5	0.01945	0.0006327	4.6e-06
318.15	0.5	0.02199	0.0006331	4.6e-06
318.15	0.5	0.028	0.0006342	4.7e-06
318.15	0.5	0.03112	0.0006348	4.7e-06

System: 4-aminobenzenesulfonic acid + sodium chloride + water; phases: Liquid
Fixed: Pressure, kPa = 101.3
Property: Mass density, kg/m3 (Liquid); method: VIBTUB:UFactor:8
Temperature, K	Molality, mol/kg of sodium chloride	Molality, mol/kg of 4-aminobenzenesulfonic acid	Mass density, kg/m3	uncertainty
288.15	0	0.00817	999.669	0.263
288.15	0	0.01529	1000.144	0.263
288.15	0	0.02369	1000.706	0.264
288.15	0	0.031	1001.201	0.266
288.15	0	0.0389	1001.736	0.268
288.15	0	0.04164	1001.923	0.268
288.15	0.05	0.0109	1001.965	0.268
288.15	0.05	0.01783	1002.434	0.27
288.15	0.05	0.02427	1002.87	0.271
288.15	0.05	0.03106	1003.331	0.273
288.15	0.05	0.03665	1003.71	0.274
288.15	0.05	0.0404	1003.966	0.273
288.15	0.1	0.01159	1004.11	0.275
288.15	0.1	0.01876	1004.594	0.276
288.15	0.1	0.02347	1004.912	0.277
288.15	0.1	0.03212	1005.5	0.279
288.15	0.1	0.03862	1005.943	0.28
288.15	0.1	0.04343	1006.272	0.281
288.15	0.3	0.01371	1012.55	0.308
288.15	0.3	0.01557	1012.672	0.3
288.15	0.3	0.02347	1013.194	0.302
288.15	0.3	0.03103	1013.695	0.303
288.15	0.3	0.03862	1014.201	0.304
288.15	0.3	0.04084	1014.349	0.307
288.15	0.5	0.00885	1020.358	0.323
288.15	0.5	0.01371	1020.671	0.324
288.15	0.5	0.02005	1021.084	0.326
288.15	0.5	0.0289	1021.663	0.328
288.15	0.5	0.03103	1021.805	0.328
288.15	0.5	0.04045	1022.426	0.33
298.15	0	0.00817	997.584	0.283
298.15	0	0.01529	998.054	0.268
298.15	0	0.02369	998.614	0.266
298.15	0	0.031	999.103	0.266
298.15	0	0.0389	999.637	0.261
298.15	0	0.04164	999.824	0.258
298.15	0.05	0.0109	999.84	0.278
298.15	0.05	0.01783	1000.302	0.263
298.15	0.05	0.02427	1000.734	0.264
298.15	0.05	0.03106	1001.19	0.265
298.15	0.05	0.03665	1001.584	0.266
298.15	0.05	0.0404	1001.817	0.261
298.15	0.1	0.01159	1001.911	0.275
298.15	0.1	0.01876	1002.39	0.267
298.15	0.1	0.02347	1002.7	0.272
298.15	0.1	0.03212	1003.28	0.271
298.15	0.1	0.03862	1003.71	0.272
298.15	0.1	0.04343	1004.03	0.266
298.15	0.3	0.01371	1010.169	0.302
298.15	0.3	0.01557	1010.29	0.299
298.15	0.3	0.02347	1010.802	0.294
298.15	0.3	0.03103	1011.293	0.296
298.15	0.3	0.03862	1011.786	0.295
298.15	0.3	0.04084	1011.931	0.297
298.15	0.5	0.00885	1017.742	0.329
298.15	0.5	0.01371	1018.053	0.317
298.15	0.5	0.02005	1018.462	0.318
298.15	0.5	0.0289	1019.036	0.361
298.15	0.5	0.03103	1019.174	0.317
298.15	0.5	0.04045	1019.791	0.317
308.15	0	0.00817	994.592	0.29
308.15	0	0.01529	995.057	0.277
308.15	0	0.02369	995.612	0.275
308.15	0	0.031	996.1	0.274
308.15	0	0.0389	996.63	0.27
308.15	0	0.04164	996.815	0.266
308.15	0.05	0.0109	996.777	0.283
308.15	0.05	0.01783	997.232	0.27
308.15	0.05	0.02427	997.657	0.269
308.15	0.05	0.03106	998.108	0.266
308.15	0.05	0.03665	998.475	0.265
308.15	0.05	0.0404	998.729	0.261
308.15	0.1	0.01159	998.851	0.271
308.15	0.1	0.01876	999.28	0.261
308.15	0.1	0.02347	999.58	0.264
308.15	0.1	0.03212	1000.15	0.261
308.15	0.1	0.03862	1000.58	0.263
308.15	0.1	0.04343	1000.9	0.256
308.15	0.3	0.01371	1006.931	0.289
308.15	0.3	0.01557	1007.051	0.281
308.15	0.3	0.02347	1007.559	0.285
308.15	0.3	0.03103	1008.084	0.286
308.15	0.3	0.03862	1008.542	0.285
308.15	0.3	0.04084	1008.688	0.283
308.15	0.5	0.00885	1014.395	0.318
308.15	0.5	0.01371	1014.701	0.306
308.15	0.5	0.02005	1015.101	0.308
308.15	0.5	0.0289	1015.665	0.348
308.15	0.5	0.03103	1015.801	0.306
308.15	0.5	0.04045	1016.406	0.307
318.15	0	0.00817	990.764	0.289
318.15	0	0.01529	991.221	0.288
318.15	0	0.02369	991.766	0.286
318.15	0	0.031	992.244	0.285
318.15	0	0.0389	992.765	0.284
318.15	0	0.04164	992.949	0.283
318.15	0.05	0.0109	992.934	0.283
318.15	0.05	0.01783	993.388	0.281
318.15	0.05	0.02427	993.812	0.28
318.15	0.05	0.03106	994.262	0.279
318.15	0.05	0.03665	994.633	0.278
318.15	0.05	0.0404	994.884	0.276
318.15	0.1	0.01159	994.93	0.276
318.15	0.1	0.01876	995.397	0.275
318.15	0.1	0.02347	995.704	0.274
318.15	0.1	0.03212	996.273	0.273
318.15	0.1	0.03862	996.701	0.272
318.15	0.1	0.04343	997.02	0.27
318.15	0.3	0.01371	1003.018	0.289
318.15	0.3	0.01557	1003.136	0.27
318.15	0.3	0.02347	1003.639	0.272
318.15	0.3	0.03103	1004.124	0.274
318.15	0.3	0.03862	1004.612	0.274
318.15	0.3	0.04084	1004.756	0.279
318.15	0.5	0.00885	1010.342	0.292
318.15	0.5	0.01371	1010.645	0.293
318.15	0.5	0.02005	1011.041	0.294
318.15	0.5	0.0289	1011.6	0.296
318.15	0.5	0.03103	1011.734	0.297
318.15	0.5	0.04045	1012.331	0.299

System: 2-hydroxy-5-sulfobenzoic acid dihydrate + sodium chloride + water; phases: Liquid
Fixed: Pressure, kPa = 101
Property: Viscosity, Pa*s (Liquid); method: Capillary tube (Ostwald; Ubbelohde) method
Temperature, K	Solvent: Molality, mol/kg of sodium chloride	Molality, mol/kg of 2-hydroxy-5-sulfobenzoic acid dihydrate	Viscosity, Pa*s	uncertainty
288.15	0.05	0.01046	0.001147	7.3e-06
288.15	0.05	0.01846	0.0011515	7.3e-06
288.15	0.05	0.02689	0.0011555	7.3e-06
288.15	0.05	0.03631	0.0011624	7.4e-06
288.15	0.05	0.05138	0.001169	7.4e-06
288.15	0.1	0.01133	0.0011497	7.3e-06
288.15	0.1	0.02465	0.0011577	7.3e-06
288.15	0.1	0.03089	0.001162	7.4e-06
288.15	0.1	0.04301	0.0011705	7.4e-06
288.15	0.1	0.05364	0.0011782	7.5e-06
288.15	0.3	0.00921	0.0011684	7.4e-06
288.15	0.3	0.01558	0.0011716	7.4e-06
288.15	0.3	0.02249	0.001174	7.4e-06
288.15	0.3	0.04368	0.0011837	7.5e-06
288.15	0.3	0.04812	0.0011858	7.5e-06
288.15	0.3	0.06164	0.0011918	7.5e-06
288.15	0.5	0.01171	0.0011872	7.5e-06
288.15	0.5	0.02781	0.0011949	7.6e-06
288.15	0.5	0.03626	0.0011994	7.6e-06
288.15	0.5	0.04095	0.0012011	7.6e-06
288.15	0.5	0.05381	0.001209	7.6e-06
298.15	0.05	0.01046	0.0008968	5.9e-06
298.15	0.05	0.01846	0.0009012	5.9e-06
298.15	0.05	0.02689	0.0009053	5.9e-06
298.15	0.05	0.03631	0.0009097	5.9e-06
298.15	0.05	0.05138	0.0009163	6e-06
298.15	0.05	0.05704	0.0009187	6e-06
298.15	0.1	0.01133	0.0008969	5.9e-06
298.15	0.1	0.02466	0.0009041	5.9e-06
298.15	0.1	0.03089	0.0009074	5.9e-06
298.15	0.1	0.04301	0.0009137	6e-06
298.15	0.1	0.05365	0.0009208	6e-06
298.15	0.3	0.01558	0.0009215	6e-06
298.15	0.3	0.02249	0.0009231	6e-06
298.15	0.3	0.04368	0.0009314	6.1e-06
298.15	0.3	0.04812	0.0009336	6.1e-06
298.15	0.3	0.06164	0.0009373	6.1e-06
298.15	0.5	0.01171	0.0009391	6.1e-06
298.15	0.5	0.02781	0.0009448	6.1e-06
298.15	0.5	0.03626	0.000949	6.2e-06
298.15	0.5	0.04095	0.0009514	6.2e-06
298.15	0.5	0.05381	0.0009573	6.2e-06
308.15	0.05	0.01046	0.0007245	4.9e-06
308.15	0.05	0.01846	0.0007278	4.9e-06
308.15	0.05	0.02689	0.0007313	4.9e-06
308.15	0.05	0.03631	0.000735	5e-06
308.15	0.05	0.05138	0.0007407	5e-06
308.15	0.1	0.01133	0.0007278	4.9e-06
308.15	0.1	0.02466	0.0007319	5e-06
308.15	0.1	0.03089	0.0007348	5e-06
308.15	0.1	0.04301	0.0007415	5e-06
308.15	0.1	0.05365	0.0007478	5e-06
308.15	0.3	0.01558	0.0007462	5e-06
308.15	0.3	0.02249	0.0007478	5e-06
308.15	0.3	0.04368	0.0007542	5.1e-06
308.15	0.3	0.04812	0.0007554	5.1e-06
308.15	0.3	0.06164	0.000759	5.1e-06
308.15	0.5	0.01171	0.0007627	5.1e-06
308.15	0.5	0.02781	0.0007681	5.1e-06
308.15	0.5	0.03626	0.0007718	5.1e-06
308.15	0.5	0.04095	0.0007736	5.2e-06
308.15	0.5	0.05381	0.0007781	5.2e-06
318.15	0.05	0.01046	0.0006032	4.3e-06
318.15	0.05	0.01846	0.0006048	4.3e-06
318.15	0.05	0.02689	0.0006068	4.4e-06
318.15	0.05	0.03631	0.0006089	4.4e-06
318.15	0.05	0.05138	0.0006137	4.4e-06
318.15	0.1	0.02466	0.0006084	4.4e-06
318.15	0.1	0.03089	0.0006107	4.4e-06
318.15	0.1	0.04301	0.000614	4.4e-06
318.15	0.1	0.05365	0.000618	4.4e-06
318.15	0.3	0.00921	0.0006202	4.4e-06
318.15	0.3	0.01557	0.0006214	4.4e-06
318.15	0.3	0.04368	0.0006268	4.5e-06
318.15	0.3	0.04812	0.0006282	4.5e-06
318.15	0.3	0.06164	0.0006311	4.5e-06
318.15	0.5	0.01171	0.000637	4.5e-06
318.15	0.5	0.02781	0.0006412	4.5e-06
318.15	0.5	0.03626	0.0006434	4.5e-06
318.15	0.5	0.04095	0.0006448	4.5e-06
318.15	0.5	0.05381	0.0006489	4.6e-06

System: 2-hydroxy-5-sulfobenzoic acid dihydrate + sodium chloride + water; phases: Liquid
Fixed: Pressure, kPa = 101.3
Property: Mass density, kg/m3 (Liquid); method: VIBTUB:UFactor:8
Temperature, K	Molality, mol/kg of sodium chloride	Molality, mol/kg of 2-hydroxy-5-sulfobenzoic acid dihydrate	Mass density, kg/m3	uncertainty
288.15	0	0.0092	1000.035	0.272
288.15	0	0.02311	1001.395	0.276
288.15	0	0.03359	1002.409	0.278
288.15	0	0.04474	1003.469	0.281
288.15	0	0.05423	1004.382	0.284
288.15	0	0.06044	1004.973	0.285
288.15	0.05	0.01328	1002.55	0.279
288.15	0.05	0.02035	1003.24	0.281
288.15	0.05	0.03141	1004.32	0.284
288.15	0.05	0.036	1004.77	0.286
288.15	0.05	0.04235	1005.38	0.287
288.15	0.05	0.06193	1007.26	0.292
288.15	0.1	0.00912	1004.236	0.284
288.15	0.1	0.01725	1005.032	0.286
288.15	0.1	0.02977	1006.248	0.289
288.15	0.1	0.03933	1007.166	0.292
288.15	0.1	0.04274	1007.491	0.293
288.15	0.1	0.05307	1008.47	0.294
288.15	0.3	0.01593	1013.209	0.31
288.15	0.3	0.02989	1014.55	0.314
288.15	0.3	0.03889	1015.401	0.315
288.15	0.3	0.04584	1016.052	0.317
288.15	0.3	0.0486	1016.308	0.318
288.15	0.3	0.06146	1017.494	0.321
288.15	0.5	0.01163	1020.902	0.332
288.15	0.5	0.02133	1021.825	0.335
288.15	0.5	0.02709	1022.37	0.337
288.15	0.5	0.0388	1023.472	0.34
288.15	0.5	0.04846	1024.374	0.342
288.15	0.5	0.05732	1025.196	0.345
298.15	0	0.0092	997.937	0.286
298.15	0	0.02311	999.272	0.272
298.15	0	0.03359	1000.269	0.272
298.15	0	0.04474	1001.32	0.274
298.15	0	0.05423	1002.207	0.275
298.15	0	0.06044	1002.785	0.268
298.15	0.05	0.0092	1000.004	0.271
298.15	0.05	0.01712	1000.766	0.273
298.15	0.05	0.02922	1001.921	0.276
298.15	0.05	0.04135	1003.07	0.28
298.15	0.05	0.06283	1005.08	0.28
298.15	0.05	0.06312	1005.1	0.276
298.15	0.1	0.00912	1002.03	0.291
298.15	0.1	0.01725	1002.81	0.278
298.15	0.1	0.02977	1004	0.283
298.15	0.1	0.03933	1004.89	0.277
298.15	0.1	0.04274	1005.209	0.286
298.15	0.1	0.05307	1006.164	0.283
298.15	0.3	0.01593	1010.799	0.308
298.15	0.3	0.02989	1012.102	0.304
298.15	0.3	0.03889	1012.927	0.307
298.15	0.3	0.04584	1013.556	0.306
298.15	0.3	0.0486	1013.804	0.296
298.15	0.3	0.06146	1014.95	0.309
298.15	0.5	0.01162	1018.268	0.332
298.15	0.5	0.02133	1019.173	0.325
298.15	0.5	0.02709	1019.705	0.329
298.15	0.5	0.0388	1020.785	0.331
298.15	0.5	0.04846	1021.668	0.333
298.15	0.5	0.05732	1022.473	0.33
308.15	0	0.0092	994.942	0.293
308.15	0	0.02311	996.259	0.281
308.15	0	0.03359	997.242	0.278
308.15	0	0.04474	998.278	0.274
308.15	0	0.05423	999.153	0.271
308.15	0	0.06044	999.722	0.26
308.15	0.05	0.0092	996.94	0.28
308.15	0.05	0.01712	997.7	0.277
308.15	0.05	0.02922	998.84	0.273
308.15	0.05	0.04135	999.98	0.271
308.15	0.05	0.06283	1001.96	0.269
308.15	0.05	0.06312	1001.99	0.265
308.15	0.1	0.00808	998.83	0.282
308.15	0.1	0.02072	1000.08	0.27
308.15	0.1	0.02678	1000.58	0.269
308.15	0.1	0.03425	1001.27	0.273
308.15	0.1	0.04413	1002.18	0.276
308.15	0.1	0.04961	1002.67	0.276
308.15	0.3	0.01593	1007.558	0.297
308.15	0.3	0.02989	1008.85	0.295
308.15	0.3	0.03889	1009.671	0.297
308.15	0.3	0.04584	1010.296	0.296
308.15	0.3	0.0486	1010.545	0.288
308.15	0.3	0.06146	1011.687	0.298
308.15	0.5	0.01163	1014.919	0.321
308.15	0.5	0.02133	1015.809	0.315
308.15	0.5	0.02709	1016.332	0.319
308.15	0.5	0.0388	1017.389	0.32
308.15	0.5	0.04846	1018.254	0.323
308.15	0.5	0.05732	1019.039	0.319
318.15	0	0.0092	991.107	0.296
318.15	0	0.02311	992.401	0.292
318.15	0	0.03359	993.367	0.289
318.15	0	0.04474	994.388	0.286
318.15	0	0.05423	995.245	0.283
318.15	0	0.06044	995.806	0.281
318.15	0.05	0.01328	993.47	0.289
318.15	0.05	0.02035	994.13	0.287
318.15	0.05	0.03141	995.15	0.284
318.15	0.05	0.036	995.58	0.282
318.15	0.05	0.04235	996.161	0.28
318.15	0.05	0.06193	997.934	0.275
318.15	0.1	0.00808	994.95	0.285
318.15	0.1	0.02072	996.12	0.281
318.15	0.1	0.02678	996.686	0.279
318.15	0.1	0.03425	997.36	0.276
318.15	0.1	0.04413	998.25	0.274
318.15	0.1	0.04961	998.73	0.272
318.15	0.3	0.01593	1003.643	0.28
318.15	0.3	0.02989	1004.917	0.284
318.15	0.3	0.03889	1005.723	0.285
318.15	0.3	0.04584	1006.335	0.285
318.15	0.3	0.0486	1006.574	0.277
318.15	0.3	0.06146	1007.687	0.289
318.15	0.5	0.01163	1010.86	0.301
318.15	0.5	0.02133	1011.742	0.304
318.15	0.5	0.02709	1012.262	0.305
318.15	0.5	0.0388	1013.31	0.308
318.15	0.5	0.04846	1014.169	0.31
318.15	0.5	0.05732	1014.95	0.313
