Measured thermophysical data. Thermodynamics of Sodium 5-Nitroisophthalic Acid  Monohydrate
Source: J. Chem. Eng. Data, 2010, 10.1021/je900936t
Compound 1: sodium peroxide, Na2O2, InChI=1S/2Na.O2/c;;1-2/q2*+1;-2
Compound 2: carbon dioxide, CO2, InChI=1S/CO2/c2-1-3
Compound 3: nitrogen, N2, InChI=1S/N2/c1-2
Compound 4: water, H2O, InChI=1S/H2O/h1H2
Compound 5: oxygen, O2, InChI=1S/O2/c1-2
Compound 6: sodium 5-nitroisophthalate monohydrate, C8H5NNa2O7, InChI=1S/C8H5NO6.2Na.H2O/c10-7(11)4-1-5(8(12)13)3-6(2-4)9(14)15;;;/h1-3H,(H,10,11)(H,12,13);;;1H2/q;2*+1;/p-2

System: sodium 5-nitroisophthalate monohydrate; phases: Crystal
Fixed: Pressure, kPa = 101.325
Property: Molar heat capacity at constant pressure, J/K/mol (Crystal); method: Vacuum adiabatic calorimetry
Temperature, K	Molar heat capacity at constant pressure, J/K/mol	uncertainty
78.016	112.423	0.701
80.054	115.975	0.723
81.77	117.911	0.734
84.14	120.74	0.752
86.44	123.72	0.77
88.69	127.03	0.791
90.89	129.99	0.815
93.04	133.28	0.834
95.16	135.89	0.85
97.24	138.31	0.864
99.3141	140.797	0.879
101.288	143.42	0.894
103.262	145.772	0.909
105.235	148.305	0.924
107.136	150.566	0.937
109.011	152.865	0.951
110.968	154.984	0.963
112.804	157.231	0.977
114.58	159.349	0.99
116.437	161.212	1.001
118.282	163.137	1.012
120.058	165.448	1.026
123.038	168.337	1.043
126.229	171.932	1.065
128.787	174.692	1.081
131.333	177.07	1.096
134.038	179.513	1.11
136.596	182.498	1.128
170.135	213.27	1.313
172.716	215.487	1.326
175.285	218.007	1.341
178.037	220.318	1.355
180.686	223.014	1.371
184.573	226.641	1.393
188.289	229.723	1.412
190.972	232.034	1.425
193.758	234.313	1.439
196.614	236.881	1.455
199.331	239.352	1.469
202.083	242.016	1.485
204.801	244.231	1.499
207.553	246.221	1.511
210.202	248.693	1.526
212.788	251.204	1.541
215.368	252.954	1.551
217.948	255.522	1.567
220.447	257.507	1.579
222.931	259.446	1.59
225.442	261.436	1.602
228.026	263.809	1.617
230.526	265.677	1.628
233.025	268.245	1.643
235.767	270.813	1.659
238.588	273.03	1.672
241.163	274.853	1.683
244.636	277.582	1.699
282.45	307.813	1.882
285.433	310.858	1.9
288.357	312.758	1.911
291.281	315.471	1.928
294.206	318.366	1.945
297.205	320.069	1.955
300.188	322.403	1.969
303.01	324.854	1.984
305.913	326.255	1.993
308.896	328.472	2.006
311.96	331.741	2.026
314.943	333.842	2.038
317.926	335.476	2.048
320.909	337.46	2.06
323.893	340.028	2.076
326.876	342.012	2.088
329.806	344.418	2.102
332.762	346.914	2.117
335.655	349.755	2.134
338.579	351.474	2.145
341.47	354.034	2.16
344.372	356.602	2.176
347.275	358.936	2.19
350.177	360.687	2.2
353.08	363.255	2.216
355.904	365.495	2.229
358.845	368.004	2.244
361.598	369.434	2.253
139.228	184.578	1.14
141.835	186.891	1.154
144.415	189.225	1.168
147.076	191.91	1.184
149.575	193.777	1.196
152.24	196.338	1.211
154.816	198.913	1.227
157.316	201.364	1.241
159.896	204.282	1.259
162.41	206.437	1.272
164.975	208.834	1.286
167.475	210.935	1.299
248.112	280.662	1.718
250.933	282.524	1.729
253.651	285.252	1.746
256.472	287.724	1.761
259.31	290.071	1.775
262.212	292.406	1.789
265.111	295.118	1.805
267.962	297.199	1.818
270.813	299.641	1.832
273.737	301.541	1.844
276.588	303.983	1.858
279.439	305.702	1.869
364.522	372.253	2.27
367.515	374.254	2.282
370.542	376.951	2.298
373.397	378.912	2.31
376.39	381.567	2.326
379.314	383.569	2.338
382.307	385.897	2.352
385.162	388.062	2.365
387.983	390.064	2.377
390.907	392.107	2.39
393.694	394.558	2.404
396.549	396.355	2.415

System: sodium 5-nitroisophthalate monohydrate + water; phases: Liquid
Property: Molar enthalpy of solution, kJ/mol (Liquid); method: Calvet calorimetry
Temperature, K	Mole fraction of sodium 5-nitroisophthalate monohydrate	Pressure, kPa	Molar enthalpy of solution, kJ/mol	uncertainty
298.15	0	101	22.133	0.171

Reaction: -1 sodium 5-nitroisophthalate monohydrate + 1 sodium peroxide + 8 carbon dioxide + .5 nitrogen + 2.5 water + -6.75 oxygen
Property: Molar enthalpy of reaction, kJ/mol
-3965.07
