Measured thermophysical data. Determination of the Density of Toluene in the Range from (293 to 373) K and from (0.1 to 30) MPa
Source: J. Chem. Eng. Data, 2009, 10.1021/je900105g
Compound 1: toluene, C7H8, InChI=1S/C7H8/c1-7-5-3-2-4-6-7/h2-6H,1H3

System: toluene; phases: Liquid
Property: Mass density, kg/m3 (Liquid); method: Buoyancy - hydrostatic balance with magnetic suspension - one sinker
Temperature, K	Pressure, kPa	Mass density, kg/m3	uncertainty
293.14	580	867.3	0.12
293.14	2080	868.44	0.12
293.14	2100	868.49	0.12
293.14	4080	869.92	0.12
293.14	6080	871.41	0.12
293.14	8080	872.84	0.12
293.14	10080	874.27	0.12
293.14	10110	874.35	0.12
293.14	15090	877.74	0.12
293.14	15110	877.83	0.12
293.14	20090	881.09	0.12
293.14	20110	881.18	0.12
293.14	25090	884.33	0.12
293.14	25120	884.42	0.12
293.14	30090	887.47	0.12
293.14	30120	887.56	0.12
293.15	2080	868.48	0.12
293.15	4080	869.98	0.12
293.15	6080	871.45	0.12
293.15	8080	872.9	0.12
293.15	10080	874.33	0.12
293.15	15080	877.8	0.12
293.15	20080	881.15	0.12
293.15	25080	884.39	0.12
313.14	590	848.73	0.12
313.14	2090	850.02	0.12
313.14	4090	851.7	0.12
313.14	6090	853.35	0.12
313.14	8090	854.98	0.12
313.14	10090	856.57	0.12
313.14	15090	860.44	0.12
313.14	20090	864.16	0.12
313.14	25090	867.74	0.12
333.14	590	829.86	0.12
333.14	2090	831.32	0.12
333.14	4090	833.23	0.12
333.14	6090	835.1	0.12
333.14	8090	836.93	0.12
333.14	10090	838.73	0.12
333.14	15090	843.06	0.12
333.14	20090	847.2	0.12
333.14	25090	851.15	0.12
333.14	30090	854.96	0.12
353.14	2090	812.26	0.11
353.14	4090	814.44	0.11
353.14	6090	816.57	0.11
353.14	8090	818.63	0.11
353.14	10090	820.66	0.11
353.14	15090	825.54	0.11
353.14	20090	830.16	0.12
353.14	25090	834.54	0.12
353.14	30090	838.72	0.12
373.15	590	790.76	0.11
373.15	2090	792.7	0.11
373.15	4090	795.21	0.11
373.15	6090	797.64	0.11
373.15	8090	800	0.11
373.15	10090	802.3	0.11
373.15	15080	807.86	0.11
373.15	15090	807.78	0.11
373.15	20080	813.03	0.11
373.15	25080	817.91	0.11
373.15	30080	822.54	0.11
373.15	2090	792.76	0.11
373.15	4090	795.27	0.11
373.15	6090	797.7	0.11
373.15	8090	800.07	0.11
373.15	10090	802.37	0.11
373.49	2100	792.38	0.11
373.49	10110	802.04	0.11
373.49	15110	807.56	0.11
373.49	20120	812.74	0.11
373.49	25120	817.63	0.11
373.49	30120	822.28	0.11
