Measured thermophysical data. Measurement and Correlation of Densities and Viscosities of Thiourea in Triglycol + Water at Temperatures from (302.85 to 341.45) K
Source: J. Chem. Eng. Data, 2010, 10.1021/je9007124
Compound 1: thiourea, CH4N2S, InChI=1S/CH4N2S/c2-1(3)4/h(H4,2,3,4), purity 99.5%
Compound 2: triethylene glycol, C6H14O4, InChI=1S/C6H14O4/c7-1-3-9-5-6-10-4-2-8/h7-8H,1-6H2, purity 99.5%
Compound 3: water, H2O, InChI=1S/H2O/h1H2, purity 99.9%

System: thiourea; phases: Liquid
Property: Mass density, kg/m3 (Liquid); method: VIBTUB:UFactor:24
Temperature, K	Pressure, kPa	Mass density, kg/m3	uncertainty
298.15	101.325	1405.1	4.7

System: triethylene glycol; phases: Liquid
Fixed: Pressure, kPa = 101
Property: Mass density, kg/m3 (Liquid); method: VIBTUB:UFactor:24
Temperature, K	Mass density, kg/m3	uncertainty
302.85	1116.6	1.9
307.75	1111.9	1.9
312.65	1108.4	1.8
317.45	1104.7	1.8
322.25	1101	1.8
327.05	1097.9	1.7
332.15	1093.5	1.7
341.45	1086.1	1.6
293.35	1123.2	2
293.15	1124.5	2

System: triethylene glycol; phases: Liquid
Fixed: Pressure, kPa = 101
Property: Viscosity, Pa*s (Liquid); method: CAPTUB:UFactor:8
Temperature, K	Viscosity, Pa*s	uncertainty
302.85	0.027101	0.000904
307.75	0.019701	0.000674
312.65	0.015866	0.000555
317.45	0.013023	0.000467
322.25	0.010255	0.000381
327.05	0.007953	0.000309
332.15	0.005316	0.000227
341.45	0.0016	7.5e-05

System: triethylene glycol + water; phases: Liquid
Fixed: Pressure, kPa = 101
Property: Mass density, kg/m3 (Liquid); method: VIBTUB:UFactor:24
Temperature, K	Mass fraction of triethylene glycol	Mass density, kg/m3	uncertainty
302.85	1	1116.6	1.9
307.75	1	1111.9	1.9
312.65	1	1108.4	1.8
317.45	1	1104.7	1.8
322.25	1	1101	1.8
327.05	1	1097.9	1.7
332.15	1	1093.5	1.7
341.45	1	1086.1	1.6
302.85	0.91	1111.7	1.8
307.75	0.91	1108.3	1.8
312.65	0.91	1103.9	1.8
317.45	0.91	1100.5	1.7
322.25	0.91	1097	1.7
327.05	0.91	1093.9	1.7
332.15	0.91	1089.6	1.6
341.45	0.91	1083.2	1.6
302.85	0.82	1106.6	1.8
307.75	0.82	1102.6	1.8
312.65	0.82	1098.6	1.7
317.45	0.82	1094.5	1.7
322.25	0.82	1091	1.6
327.05	0.82	1087.6	1.6
332.15	0.82	1083.8	1.6
341.45	0.82	1075.9	1.5
302.85	0.72	1096.9	1.7
307.75	0.72	1094.2	1.7
312.65	0.72	1090.2	1.6
317.45	0.72	1086.3	1.6
322.25	0.72	1082.8	1.6
327.05	0.72	1079.3	1.5
332.15	0.72	1075.3	1.5
341.45	0.72	1067.4	1.4

System: triethylene glycol + water; phases: Liquid
Fixed: Pressure, kPa = 101
Property: Viscosity, Pa*s (Liquid); method: CAPTUB:UFactor:8
Temperature, K	Mass fraction of triethylene glycol	Viscosity, Pa*s	uncertainty
302.85	1	0.027101	0.000904
307.75	1	0.019701	0.000674
312.65	1	0.015866	0.000555
317.45	1	0.013023	0.000467
322.25	1	0.010255	0.000381
327.05	1	0.007953	0.000309
332.15	1	0.005316	0.000227
341.45	1	0.0016	7.5e-05
302.85	0.91	0.020365	0.000695
307.75	0.91	0.015356	0.000539
312.65	0.91	0.012306	0.000444
317.45	0.91	0.010165	0.000378
322.25	0.91	0.0081	0.000314
327.05	0.91	0.006294	0.000257
332.15	0.91	0.004238	0.000186
341.45	0.91	0.00127	6.1e-05
302.85	0.82	0.014855	0.000523
307.75	0.82	0.011222	0.00041
312.65	0.82	0.009034	0.000342
317.45	0.82	0.007516	0.000295
322.25	0.82	0.006011	0.000249
327.05	0.82	0.004693	0.000205
332.15	0.82	0.003161	0.000141
341.45	0.82	0.000955	4.7e-05
302.85	0.72	0.009793	0.000366
307.75	0.72	0.007514	0.000295
312.65	0.72	0.006176	0.000254
317.45	0.72	0.005149	0.000222
322.25	0.72	0.004121	0.000181
327.05	0.72	0.003272	0.000146
332.15	0.72	0.002265	0.000103
341.45	0.72	0.000693	3.6e-05

System: thiourea + triethylene glycol + water; phases: Liquid
Fixed: Pressure, kPa = 101
Property: Mass density, kg/m3 (Liquid); method: VIBTUB:UFactor:24
Temperature, K	Amount concentration (molarity), mol/dm3 of thiourea	Solvent: Mass fraction of triethylene glycol	Mass density, kg/m3	uncertainty
302.85	0.0756	1	1116.5	1.9
302.85	0.2294	1	1117.9	1.9
302.85	0.3869	1	1118.5	1.9
302.85	0.7981	1	1123.7	1.9
302.85	1.0575	1	1126.3	2
302.85	1.2361	1	1128.4	2
302.85	1.6076	1	1132	2
307.75	0.0756	1	1112.9	1.8
307.75	0.2294	1	1114.6	1.9
307.75	0.3869	1	1115.4	1.9
307.75	0.7981	1	1120.3	1.9
307.75	1.0575	1	1122.4	1.9
307.75	1.2361	1	1124.8	1.9
307.75	1.6076	1	1128.4	2
312.65	0.0756	1	1109.1	1.8
312.65	0.2294	1	1110.6	1.8
312.65	0.3869	1	1111.5	1.8
312.65	0.7981	1	1116.5	1.9
312.65	1.0575	1	1118.7	1.9
312.65	1.2361	1	1121.4	1.9
312.65	1.6076	1	1124.6	1.9
317.45	0.0756	1	1104.7	1.8
317.45	0.2294	1	1107.1	1.8
317.45	0.3869	1	1107.6	1.8
317.45	0.7981	1	1112.6	1.8
317.45	1.0575	1	1115.1	1.9
317.45	1.2361	1	1117.7	1.9
317.45	1.6076	1	1121	1.9
322.25	0.0756	1	1102	1.7
322.25	0.2294	1	1103.1	1.7
322.25	0.3869	1	1105.4	1.8
322.25	0.7981	1	1109	1.8
322.25	1.0575	1	1111.5	1.8
322.25	1.2361	1	1114.2	1.8
322.25	1.6076	1	1117.8	1.9
327.05	0.0756	1	1098.4	1.7
327.05	0.2294	1	1100.3	1.7
327.05	0.3869	1	1101.1	1.7
327.05	0.7981	1	1105.7	1.8
327.05	1.0575	1	1108.5	1.8
327.05	1.2361	1	1111	1.8
327.05	1.6076	1	1114.5	1.9
332.15	0.0756	1	1095	1.7
332.15	0.2294	1	1096.4	1.7
332.15	0.3869	1	1097.3	1.7
332.15	0.7981	1	1101.9	1.7
332.15	1.2361	1	1107.1	1.8
332.15	1.6076	1	1110.5	1.8
341.45	0.0756	1	1087.8	1.6
341.45	0.2294	1	1089	1.6
341.45	0.3869	1	1090.2	1.6
341.45	0.7981	1	1094.9	1.7
341.45	1.2361	1	1100.5	1.7
341.45	1.6076	1	1103.3	1.7
302.85	0.1235	0.91	1113.6	1.8
302.85	0.373	0.91	1116.8	1.9
302.85	0.6258	0.91	1120.5	1.9
302.85	1.0114	0.91	1125.7	2
302.85	1.273	0.91	1129.5	2
307.75	0.1235	0.91	1110.9	1.8
307.75	0.373	0.91	1114	1.8
307.75	0.6258	0.91	1117.3	1.9
307.75	1.0114	0.91	1123.2	1.9
307.75	1.273	0.91	1126.3	2
312.65	0.1235	0.91	1107.2	1.8
312.65	0.373	0.91	1110.1	1.8
312.65	0.6258	0.91	1113.1	1.8
312.65	1.0114	0.91	1119.5	1.9
312.65	1.273	0.91	1122.5	1.9
317.45	0.1235	0.91	1103.2	1.7
317.45	0.373	0.91	1105.8	1.8
317.45	0.6258	0.91	1109.6	1.8
317.45	1.0114	0.91	1115.5	1.9
317.45	1.273	0.91	1118.9	1.9
322.25	0.1235	0.91	1099.5	1.7
322.25	0.373	0.91	1102.2	1.7
322.25	0.6258	0.91	1106	1.8
322.25	1.0114	0.91	1112	1.8
322.25	1.273	0.91	1115.5	1.9
327.05	0.1235	0.91	1096	1.7
327.05	0.373	0.91	1099	1.7
327.05	0.6258	0.91	1102.1	1.7
327.05	1.0114	0.91	1108.6	1.8
327.05	1.273	0.91	1112	1.8
332.15	0.1235	0.91	1092.4	1.6
332.15	0.373	0.91	1095.2	1.7
332.15	0.6258	0.91	1099.4	1.7
332.15	1.0114	0.91	1105.1	1.8
332.15	1.273	0.91	1107.6	1.8
341.45	0.1235	0.91	1086.3	1.6
341.45	0.373	0.91	1088.2	1.6
341.45	0.6258	0.91	1091.9	1.6
341.45	1.0114	0.91	1098	1.7
341.45	1.273	0.91	1100.7	1.7
302.85	0.1712	0.82	1106.4	1.8
302.85	0.5143	0.82	1115.1	1.9
302.85	0.8584	0.82	1118.3	1.9
302.85	1.3765	0.82	1126.6	2
302.85	1.7231	0.82	1131	2
302.85	2.7692	0.82	1146	2.1
307.75	0.1712	0.82	1103.9	1.8
307.75	0.5143	0.82	1109.9	1.8
307.75	0.8584	0.82	1114.9	1.9
307.75	1.3765	0.82	1123.3	1.9
307.75	1.7231	0.82	1127.9	2
307.75	2.7692	0.82	1142.3	2.1
312.65	0.1712	0.82	1100	1.7
312.65	0.5143	0.82	1106.2	1.8
312.65	0.8584	0.82	1111.7	1.8
312.65	1.3765	0.82	1119.4	1.9
312.65	1.7231	0.82	1124.2	1.9
312.65	2.7692	0.82	1139.1	2.1
317.45	0.1712	0.82	1096.3	1.7
317.45	0.5143	0.82	1102.6	1.7
317.45	0.8584	0.82	1107.9	1.8
317.45	1.3765	0.82	1116	1.9
317.45	1.7231	0.82	1120.7	1.9
317.45	2.7692	0.82	1135.3	2
322.25	0.1712	0.82	1093.4	1.7
322.25	0.5143	0.82	1098.5	1.7
322.25	0.8584	0.82	1104.5	1.8
322.25	1.3765	0.82	1112.6	1.8
322.25	1.7231	0.82	1117.6	1.9
322.25	2.7692	0.82	1131.7	2
327.05	0.1712	0.82	1089.8	1.6
327.05	0.5143	0.82	1094.8	1.7
327.05	0.8584	0.82	1101.2	1.7
327.05	1.3765	0.82	1109.6	1.8
327.05	1.7231	0.82	1114	1.8
327.05	2.7692	0.82	1128.8	2
332.15	0.1712	0.82	1086.1	1.6
332.15	0.5143	0.82	1091	1.6
332.15	0.8584	0.82	1097.5	1.7
332.15	1.3765	0.82	1105.7	1.8
332.15	1.7231	0.82	1110.2	1.8
332.15	2.7692	0.82	1125.2	2
341.45	0.1712	0.82	1079.2	1.5
341.45	0.5143	0.82	1083.4	1.6
341.45	0.8584	0.82	1090.6	1.6
341.45	1.3765	0.82	1099.1	1.7
341.45	1.7231	0.82	1103.6	1.8
341.45	2.7692	0.82	1117.9	1.9
302.85	0.2186	0.72	1101.1	1.7
302.85	0.6535	0.72	1109.3	1.8
302.85	1.085	0.72	1114.8	1.9
302.85	1.7265	0.72	1123.8	1.9
302.85	2.1502	0.72	1130.6	2
302.85	2.78	0.72	1141.2	2.1
302.85	3.4029	0.72	1149.8	2.2
307.75	0.2186	0.72	1098.2	1.7
307.75	0.6535	0.72	1105.4	1.8
307.75	1.085	0.72	1111	1.8
307.75	1.7265	0.72	1121	1.9
307.75	2.1502	0.72	1127.9	2
307.75	2.78	0.72	1137.8	2.1
307.75	3.4029	0.72	1146.6	2.2
312.65	0.2186	0.72	1094.5	1.7
312.65	0.6535	0.72	1101.8	1.7
312.65	1.085	0.72	1107.4	1.8
312.65	1.7265	0.72	1117.4	1.9
312.65	2.1502	0.72	1124.4	1.9
312.65	2.78	0.72	1134.3	2
312.65	3.4029	0.72	1142.9	2.1
317.45	0.2186	0.72	1090.9	1.6
317.45	0.6535	0.72	1097.6	1.7
317.45	1.085	0.72	1103.9	1.8
317.45	1.7265	0.72	1113.8	1.8
317.45	2.1502	0.72	1120.6	1.9
317.45	2.78	0.72	1130.8	2
317.45	3.4029	0.72	1139.5	2.1
322.25	0.2186	0.72	1087	1.6
322.25	0.6535	0.72	1093.8	1.7
322.25	1.085	0.72	1100.2	1.7
322.25	1.7265	0.72	1110.5	1.8
322.25	2.1502	0.72	1116.8	1.9
322.25	2.78	0.72	1127.3	2
322.25	3.4029	0.72	1136.1	2.1
327.05	0.2186	0.72	1084.2	1.6
327.05	0.6535	0.72	1090.7	1.6
327.05	1.085	0.72	1097	1.7
327.05	1.7265	0.72	1106.5	1.8
327.05	2.1502	0.72	1113.7	1.8
327.05	2.78	0.72	1124.3	1.9
327.05	3.4029	0.72	1133	2
332.15	0.2186	0.72	1079.7	1.5
332.15	0.6535	0.72	1086.8	1.6
332.15	1.085	0.72	1093.5	1.7
332.15	1.7265	0.72	1103.5	1.7
332.15	2.1502	0.72	1109.9	1.8
332.15	2.78	0.72	1120.3	1.9
332.15	3.4029	0.72	1129.4	2
341.45	0.2186	0.72	1073.1	1.5
341.45	0.6535	0.72	1079.7	1.5
341.45	1.085	0.72	1087.2	1.6
341.45	1.7265	0.72	1096.2	1.7
341.45	2.1502	0.72	1104.6	1.8
341.45	2.78	0.72	1113.4	1.8
341.45	3.4029	0.72	1123	1.9

System: thiourea + triethylene glycol + water; phases: Liquid
Fixed: Pressure, kPa = 101
Property: Viscosity, Pa*s (Liquid); method: CAPTUB:UFactor:8
Temperature, K	Amount concentration (molarity), mol/dm3 of thiourea	Solvent: Mass fraction of triethylene glycol	Viscosity, Pa*s	uncertainty
302.85	0.0756	1	0.025842	0.000864
302.85	0.2294	1	0.025874	0.000865
302.85	0.3869	1	0.024336	0.000817
302.85	0.7981	1	0.023929	0.000805
302.85	1.0575	1	0.02227	0.000753
302.85	1.2361	1	0.022088	0.000747
302.85	1.6076	1	0.022009	0.000745
307.75	0.0756	1	0.019105	0.000655
307.75	0.2294	1	0.019134	0.000656
307.75	0.3869	1	0.017985	0.00062
307.75	0.7981	1	0.017652	0.00061
307.75	1.0575	1	0.016378	0.00057
307.75	1.2361	1	0.016275	0.000567
307.75	1.6076	1	0.01605	0.00056
312.65	0.0756	1	0.015336	0.000538
312.65	0.2294	1	0.01529	0.000536
312.65	0.3869	1	0.014421	0.000509
312.65	0.7981	1	0.01401	0.000497
312.65	1.0575	1	0.013152	0.00047
312.65	1.2361	1	0.012979	0.000465
312.65	1.6076	1	0.01281	0.000459
317.45	0.0756	1	0.012821	0.00046
317.45	0.2294	1	0.01258	0.000452
317.45	0.3869	1	0.011845	0.00043
317.45	0.7981	1	0.011493	0.000419
317.45	1.0575	1	0.010774	0.000396
317.45	1.2361	1	0.010596	0.000391
317.45	1.6076	1	0.010491	0.000387
322.25	0.0756	1	0.010077	0.000375
322.25	0.2294	1	0.009836	0.000367
322.25	0.3869	1	0.009292	0.00035
322.25	0.7981	1	0.009007	0.000341
322.25	1.0575	1	0.008522	0.000326
322.25	1.2361	1	0.008353	0.000321
322.25	1.6076	1	0.008254	0.000318
327.05	0.0756	1	0.007844	0.000305
327.05	0.2294	1	0.007688	0.000301
327.05	0.3869	1	0.007241	0.000287
327.05	0.7981	1	0.00693	0.000277
327.05	1.0575	1	0.006606	0.000267
327.05	1.2361	1	0.00645	0.000262
327.05	1.6076	1	0.006413	0.000261
332.15	0.0756	1	0.005235	0.000224
332.15	0.2294	1	0.005108	0.00022
332.15	0.3869	1	0.004801	0.000209
332.15	0.7981	1	0.004687	0.000204
332.15	1.2361	1	0.004306	0.000189
332.15	1.6076	1	0.004229	0.000185
341.45	0.0756	1	0.001568	7.4e-05
341.45	0.2294	1	0.001518	7.2e-05
341.45	0.3869	1	0.001434	6.8e-05
341.45	0.7981	1	0.001388	6.6e-05
341.45	1.2361	1	0.001273	6.1e-05
341.45	1.6076	1	0.001259	6e-05
302.85	0.1235	0.91	0.021061	0.000716
302.85	0.373	0.91	0.021493	0.000729
302.85	0.6258	0.91	0.022081	0.000747
302.85	1.0114	0.91	0.022928	0.000774
302.85	1.273	0.91	0.023455	0.00079
307.75	0.1235	0.91	0.015665	0.000548
307.75	0.373	0.91	0.015845	0.000554
307.75	0.6258	0.91	0.016235	0.000566
307.75	1.0114	0.91	0.016872	0.000586
307.75	1.273	0.91	0.017125	0.000593
312.65	0.1235	0.91	0.012409	0.000447
312.65	0.373	0.91	0.012577	0.000452
312.65	0.6258	0.91	0.012883	0.000462
312.65	1.0114	0.91	0.013434	0.000479
312.65	1.273	0.91	0.013538	0.000482
317.45	0.1235	0.91	0.010256	0.00038
317.45	0.373	0.91	0.010416	0.000385
317.45	0.6258	0.91	0.010518	0.000388
317.45	1.0114	0.91	0.011049	0.000405
317.45	1.273	0.91	0.011014	0.000404
322.25	0.1235	0.91	0.008181	0.000316
322.25	0.373	0.91	0.008201	0.000316
322.25	0.6258	0.91	0.008292	0.000319
322.25	1.0114	0.91	0.008653	0.00033
322.25	1.273	0.91	0.008616	0.000329
327.05	0.1235	0.91	0.006362	0.000259
327.05	0.373	0.91	0.00638	0.00026
327.05	0.6258	0.91	0.006398	0.00026
327.05	1.0114	0.91	0.006721	0.00027
327.05	1.273	0.91	0.006684	0.000269
332.15	0.1235	0.91	0.004249	0.000186
332.15	0.373	0.91	0.004259	0.000187
332.15	0.6258	0.91	0.004187	0.000184
332.15	1.0114	0.91	0.004477	0.000196
332.15	1.273	0.91	0.004442	0.000194
341.45	0.1235	0.91	0.001274	6.1e-05
341.45	0.373	0.91	0.001276	6.1e-05
341.45	0.6258	0.91	0.001263	6.1e-05
341.45	1.0114	0.91	0.001322	6.3e-05
341.45	1.273	0.91	0.001325	6.3e-05
302.85	0.1712	0.82	0.01456	0.000514
302.85	0.5143	0.82	0.015117	0.000531
302.85	0.8584	0.82	0.015826	0.000553
302.85	1.3765	0.82	0.016837	0.000585
302.85	1.7231	0.82	0.017426	0.000603
302.85	2.7692	0.82	0.019855	0.000678
307.75	0.1712	0.82	0.010965	0.000402
307.75	0.5143	0.82	0.011432	0.000417
307.75	0.8584	0.82	0.011893	0.000431
307.75	1.3765	0.82	0.012534	0.000451
307.75	1.7231	0.82	0.012931	0.000463
307.75	2.7692	0.82	0.014567	0.000514
312.65	0.1712	0.82	0.008845	0.000336
312.65	0.5143	0.82	0.009232	0.000348
312.65	0.8584	0.82	0.009616	0.00036
312.65	1.3765	0.82	0.010091	0.000375
312.65	1.7231	0.82	0.01034	0.000383
312.65	2.7692	0.82	0.011657	0.000424
317.45	0.1712	0.82	0.007461	0.000294
317.45	0.5143	0.82	0.007638	0.000299
317.45	0.8584	0.82	0.008011	0.000311
317.45	1.3765	0.82	0.008409	0.000323
317.45	1.7231	0.82	0.008513	0.000326
317.45	2.7692	0.82	0.009589	0.00036
322.25	0.1712	0.82	0.005899	0.000245
322.25	0.5143	0.82	0.006052	0.00025
322.25	0.8584	0.82	0.006336	0.000259
322.25	1.3765	0.82	0.006635	0.000268
322.25	1.7231	0.82	0.006792	0.000273
322.25	2.7692	0.82	0.007521	0.000295
327.05	0.1712	0.82	0.004647	0.000203
327.05	0.5143	0.82	0.004725	0.000206
327.05	0.8584	0.82	0.004979	0.000216
327.05	1.3765	0.82	0.005244	0.000225
327.05	1.7231	0.82	0.005265	0.000225
327.05	2.7692	0.82	0.005857	0.000244
332.15	0.1712	0.82	0.003124	0.000139
332.15	0.5143	0.82	0.003182	0.000142
332.15	0.8584	0.82	0.003335	0.000148
332.15	1.3765	0.82	0.003494	0.000155
332.15	1.7231	0.82	0.003553	0.000157
332.15	2.7692	0.82	0.003875	0.000171
341.45	0.1712	0.82	0.00095	4.7e-05
341.45	0.5143	0.82	0.000969	4.8e-05
341.45	0.8584	0.82	0.001023	5e-05
341.45	1.3765	0.82	0.001045	5.1e-05
341.45	1.7231	0.82	0.001063	5.2e-05
341.45	2.7692	0.82	0.001151	5.6e-05
302.85	0.2186	0.72	0.010267	0.000381
302.85	0.6535	0.72	0.010857	0.000399
302.85	1.085	0.72	0.011206	0.00041
302.85	1.7265	0.72	0.011742	0.000426
302.85	2.1502	0.72	0.012486	0.00045
302.85	2.78	0.72	0.013434	0.000479
302.85	3.4029	0.72	0.014295	0.000506
307.75	0.2186	0.72	0.007743	0.000302
307.75	0.6535	0.72	0.008268	0.000319
307.75	1.085	0.72	0.008515	0.000326
307.75	1.7265	0.72	0.008935	0.000339
307.75	2.1502	0.72	0.009474	0.000356
307.75	2.78	0.72	0.010045	0.000374
307.75	3.4029	0.72	0.010685	0.000394
312.65	0.2186	0.72	0.0064	0.000261
312.65	0.6535	0.72	0.006712	0.00027
312.65	1.085	0.72	0.007015	0.00028
312.65	1.7265	0.72	0.007283	0.000288
312.65	2.1502	0.72	0.007739	0.000302
312.65	2.78	0.72	0.008222	0.000317
312.65	3.4029	0.72	0.008632	0.00033
317.45	0.2186	0.72	0.005369	0.000229
317.45	0.6535	0.72	0.005669	0.000238
317.45	1.085	0.72	0.005903	0.000245
317.45	1.7265	0.72	0.006091	0.000251
317.45	2.1502	0.72	0.006401	0.000261
317.45	2.78	0.72	0.006872	0.000275
317.45	3.4029	0.72	0.007202	0.000285
322.25	0.2186	0.72	0.004322	0.000189
322.25	0.6535	0.72	0.004535	0.000198
322.25	1.085	0.72	0.004749	0.000207
322.25	1.7265	0.72	0.00492	0.000214
322.25	2.1502	0.72	0.005074	0.000219
322.25	2.78	0.72	0.005442	0.000231
322.25	3.4029	0.72	0.005743	0.00024
327.05	0.2186	0.72	0.003398	0.000151
327.05	0.6535	0.72	0.003642	0.000161
327.05	1.085	0.72	0.003776	0.000167
327.05	1.7265	0.72	0.003866	0.00017
327.05	2.1502	0.72	0.004005	0.000176
327.05	2.78	0.72	0.004332	0.00019
327.05	3.4029	0.72	0.004482	0.000196
332.15	0.2186	0.72	0.00233	0.000106
332.15	0.6535	0.72	0.002447	0.000111
332.15	1.085	0.72	0.00255	0.000115
332.15	1.7265	0.72	0.002636	0.000119
332.15	2.1502	0.72	0.002743	0.000123
332.15	2.78	0.72	0.002905	0.00013
332.15	3.4029	0.72	0.00302	0.000135
341.45	0.2186	0.72	0.00072	3.7e-05
341.45	0.6535	0.72	0.000754	3.9e-05
341.45	1.085	0.72	0.000785	4e-05
341.45	1.7265	0.72	0.000804	4.1e-05
341.45	2.1502	0.72	0.000846	4.3e-05
341.45	2.78	0.72	0.000886	4.4e-05
341.45	3.4029	0.72	0.00093	4.6e-05

System: thiourea + triethylene glycol; phases: Liquid
Fixed: Pressure, kPa = 101
Property: Mass density, kg/m3 (Liquid); method: VIBTUB:UFactor:24
Temperature, K	Amount concentration (molarity), mol/dm3 of thiourea	Mass density, kg/m3	uncertainty
302.85	0.0756	1116.5	1.9
302.85	0.2294	1117.9	1.9
302.85	0.3869	1118.5	1.9
302.85	0.7981	1123.7	1.9
302.85	1.0575	1126.3	2
302.85	1.2361	1128.4	2
302.85	1.6076	1132	2
307.75	0.0756	1112.9	1.8
307.75	0.2294	1114.6	1.9
307.75	0.3869	1115.4	1.9
307.75	0.7981	1120.3	1.9
307.75	1.0575	1122.4	1.9
307.75	1.2361	1124.8	1.9
307.75	1.6076	1128.4	2
312.65	0.0756	1109.1	1.8
312.65	0.2294	1110.6	1.8
312.65	0.3869	1111.5	1.8
312.65	0.7981	1116.5	1.9
312.65	1.0575	1118.7	1.9
312.65	1.2361	1121.4	1.9
312.65	1.6076	1124.6	1.9
317.45	0.0756	1104.7	1.8
317.45	0.2294	1107.1	1.8
317.45	0.3869	1107.6	1.8
317.45	0.7981	1112.6	1.8
317.45	1.0575	1115.1	1.9
317.45	1.2361	1117.7	1.9
317.45	1.6076	1121	1.9
322.25	0.0756	1102	1.7
322.25	0.2294	1103.1	1.7
322.25	0.3869	1105.4	1.8
322.25	0.7981	1109	1.8
322.25	1.0575	1111.5	1.8
322.25	1.2361	1114.2	1.8
322.25	1.6076	1117.8	1.9
327.05	0.0756	1098.4	1.7
327.05	0.2294	1100.3	1.7
327.05	0.3869	1101.1	1.7
327.05	0.7981	1105.7	1.8
327.05	1.0575	1108.5	1.8
327.05	1.2361	1111	1.8
327.05	1.6076	1114.5	1.9
332.15	0.0756	1095	1.7
332.15	0.2294	1096.4	1.7
332.15	0.3869	1097.3	1.7
332.15	0.7981	1101.9	1.7
332.15	1.2361	1107.1	1.8
332.15	1.6076	1110.5	1.8
341.45	0.0756	1087.8	1.6
341.45	0.2294	1089	1.6
341.45	0.3869	1090.2	1.6
341.45	0.7981	1094.9	1.7
341.45	1.2361	1100.5	1.7
341.45	1.6076	1103.3	1.7

System: thiourea + triethylene glycol; phases: Liquid
Fixed: Pressure, kPa = 101
Property: Viscosity, Pa*s (Liquid); method: CAPTUB:UFactor:8
Temperature, K	Amount concentration (molarity), mol/dm3 of thiourea	Viscosity, Pa*s	uncertainty
302.85	0.0756	0.025842	0.000864
302.85	0.2294	0.025874	0.000865
302.85	0.3869	0.024336	0.000817
302.85	0.7981	0.023929	0.000805
302.85	1.0575	0.02227	0.000753
302.85	1.2361	0.022088	0.000747
302.85	1.6076	0.022009	0.000745
307.75	0.0756	0.019105	0.000655
307.75	0.2294	0.019134	0.000656
307.75	0.3869	0.017985	0.00062
307.75	0.7981	0.017652	0.00061
307.75	1.0575	0.016378	0.00057
307.75	1.2361	0.016275	0.000567
307.75	1.6076	0.01605	0.00056
312.65	0.0756	0.015336	0.000538
312.65	0.2294	0.01529	0.000536
312.65	0.3869	0.014421	0.000509
312.65	0.7981	0.01401	0.000497
312.65	1.0575	0.013152	0.00047
312.65	1.2361	0.012979	0.000465
312.65	1.6076	0.01281	0.000459
317.45	0.0756	0.012821	0.00046
317.45	0.2294	0.01258	0.000452
317.45	0.3869	0.011845	0.00043
317.45	0.7981	0.011493	0.000419
317.45	1.0575	0.010774	0.000396
317.45	1.2361	0.010596	0.000391
317.45	1.6076	0.010491	0.000387
322.25	0.0756	0.010077	0.000375
322.25	0.2294	0.009836	0.000367
322.25	0.3869	0.009292	0.00035
322.25	0.7981	0.009007	0.000341
322.25	1.0575	0.008522	0.000326
322.25	1.2361	0.008353	0.000321
322.25	1.6076	0.008254	0.000318
327.05	0.0756	0.007844	0.000305
327.05	0.2294	0.007688	0.000301
327.05	0.3869	0.007241	0.000287
327.05	0.7981	0.00693	0.000277
327.05	1.0575	0.006606	0.000267
327.05	1.2361	0.00645	0.000262
327.05	1.6076	0.006413	0.000261
332.15	0.0756	0.005235	0.000224
332.15	0.2294	0.005108	0.00022
332.15	0.3869	0.004801	0.000209
332.15	0.7981	0.004687	0.000204
332.15	1.2361	0.004306	0.000189
332.15	1.6076	0.004229	0.000185
341.45	0.0756	0.001568	7.4e-05
341.45	0.2294	0.001518	7.2e-05
341.45	0.3869	0.001434	6.8e-05
341.45	0.7981	0.001388	6.6e-05
341.45	1.2361	0.001273	6.1e-05
341.45	1.6076	0.001259	6e-05
