Measured thermophysical data. Synthesis, Physicochemical Properties, and Toxicity Data of New Hydrophobic Ionic Liquids Containing Dimethylpyridinium and Trimethylpyridinium Cations
Source: J. Chem. Eng. Data, 2010, 10.1021/je9009283
Compound 1: 3,5-dimethyl-1-octylpyridinium iodide, C15H26IN, InChI=1S/C15H26N.HI/c1-4-5-6-7-8-9-10-16-12-14(2)11-15(3)13-16;/h11-13H,4-10H2,1-3H3;1H/q+1;/p-1
Compound 2: 5-ethyl-2-methyl-1-octylpyridinium iodide, C16H28IN, InChI=1S/C16H28N.HI/c1-4-6-7-8-9-10-13-17-14-16(5-2)12-11-15(17)3;/h11-12,14H,4-10,13H2,1-3H3;1H/q+1;/p-1
Compound 3: 2,3,5-trimethyl-1-octylpyridinium iodide, C16H28IN, InChI=1S/C16H28N.HI/c1-5-6-7-8-9-10-11-17-13-14(2)12-15(3)16(17)4;/h12-13H,5-11H2,1-4H3;1H/q+1;/p-1
Compound 4: 1-butyl-3,5-dimethylpyridinium bis(trifluoromethylsulfonyl)amide, C13H18F6N2O4S2, InChI=1S/C11H18N.C2F6NO4S2/c1-4-5-6-12-8-10(2)7-11(3)9-12;3-1(4,5)14(10,11)9-15(12,13)2(6,7)8/h7-9H,4-6H2,1-3H3;/q+1;-1
Compound 5: 1-butyl-2,3-dimethylpyridinium bis(trifluoromethylsulfonyl)amide, C13H18F6N2O4S2, InChI=1S/C11H18N.C2F6NO4S2/c1-4-5-8-12-9-6-7-10(2)11(12)3;3-1(4,5)14(10,11)9-15(12,13)2(6,7)8/h6-7,9H,4-5,8H2,1-3H3;/q+1;-1
Compound 6: 1-butyl-5-ethyl-2-methylpyridinium bis(trifluoromethylsulfonyl)amide, C14H20F6N2O4S2, InChI=1S/C12H20N.C2F6NO4S2/c1-4-6-9-13-10-12(5-2)8-7-11(13)3;3-1(4,5)14(10,11)9-15(12,13)2(6,7)8/h7-8,10H,4-6,9H2,1-3H3;/q+1;-1
Compound 7: 1-butyl-2,3,5-trimethylpyridinium bis(trifluoromethylsulfonyl)amide, C14H20F6N2O4S2, InChI=1S/C12H20N.C2F6NO4S2/c1-5-6-7-13-9-10(2)8-11(3)12(13)4;3-1(4,5)14(10,11)9-15(12,13)2(6,7)8/h8-9H,5-7H2,1-4H3;/q+1;-1
Compound 8: 3,5-dimethyl-1-octylpyridinium bis(trifluoromethylsulfonyl)amide, C17H26F6N2O4S2, InChI=1S/C15H26N.C2F6NO4S2/c1-4-5-6-7-8-9-10-16-12-14(2)11-15(3)13-16;3-1(4,5)14(10,11)9-15(12,13)2(6,7)8/h11-13H,4-10H2,1-3H3;/q+1;-1
Compound 9: 2,3-dimethyl-1-octylpyridinium bis(trifluoromethylsulfonyl)amide, C17H26F6N2O4S2, InChI=1S/C15H26N.C2F6NO4S2/c1-4-5-6-7-8-9-12-16-13-10-11-14(2)15(16)3;3-1(4,5)14(10,11)9-15(12,13)2(6,7)8/h10-11,13H,4-9,12H2,1-3H3;/q+1;-1
Compound 10: 5-ethyl-2-methyl-1-octylpyridinium bis(trifluoromethylsulfonyl)amide, C18H28F6N2O4S2, InChI=1S/C16H28N.C2F6NO4S2/c1-4-6-7-8-9-10-13-17-14-16(5-2)12-11-15(17)3;3-1(4,5)14(10,11)9-15(12,13)2(6,7)8/h11-12,14H,4-10,13H2,1-3H3;/q+1;-1
Compound 11: 2,3,5-trimethyl-1-octylpyridinium bis(trifluoromethylsulfonyl)amide, C18H28F6N2O4S2, InChI=1S/C16H28N.C2F6NO4S2/c1-5-6-7-8-9-10-11-17-13-14(2)12-15(3)16(17)4;3-1(4,5)14(10,11)9-15(12,13)2(6,7)8/h12-13H,5-11H2,1-4H3;/q+1;-1
Compound 12: 1-butyl-3,5-dimethylpyridinium 1,1,1-trifluoromethanesulfonate, C12H18F3NO3S, InChI=1S/C11H18N.CHF3O3S/c1-4-5-6-12-8-10(2)7-11(3)9-12;2-1(3,4)8(5,6)7/h7-9H,4-6H2,1-3H3;(H,5,6,7)/q+1;/p-1
Compound 13: 1-butyl-2,3-dimethylpyridinium 1,1,1-trifluoromethanesulfonate, C12H18F3NO3S, InChI=1S/C11H18N.CHF3O3S/c1-4-5-8-12-9-6-7-10(2)11(12)3;2-1(3,4)8(5,6)7/h6-7,9H,4-5,8H2,1-3H3;(H,5,6,7)/q+1;/p-1
Compound 14: 1-butyl-2,3,5-trimethylpyridinium 1,1,1-trifluoromethanesulfonate, C13H20F3NO3S, InChI=1S/C12H20N.CHF3O3S/c1-5-6-7-13-9-10(2)8-11(3)12(13)4;2-1(3,4)8(5,6)7/h8-9H,5-7H2,1-4H3;(H,5,6,7)/q+1;/p-1
Compound 15: 3,5-dimethyl-1-octylpyridinium 1,1,1-trifluoromethanesulfonate, C16H26F3NO3S, InChI=1S/C15H26N.CHF3O3S/c1-4-5-6-7-8-9-10-16-12-14(2)11-15(3)13-16;2-1(3,4)8(5,6)7/h11-13H,4-10H2,1-3H3;(H,5,6,7)/q+1;/p-1
Compound 16: 2,3-dimethyl-1-octylpyridinium 1,1,1-trifluoromethanesulfonate, C16H26F3NO3S, InChI=1S/C15H26N.CHF3O3S/c1-4-5-6-7-8-9-12-16-13-10-11-14(2)15(16)3;2-1(3,4)8(5,6)7/h10-11,13H,4-9,12H2,1-3H3;(H,5,6,7)/q+1;/p-1
Compound 17: 2,3,5-trimethyl-1-octylpyridinium 1,1,1-trifluoromethanesulfonate, C17H28F3NO3S, InChI=1S/C16H28N.CHF3O3S/c1-5-6-7-8-9-10-11-17-13-14(2)12-15(3)16(17)4;2-1(3,4)8(5,6)7/h12-13H,5-11H2,1-4H3;(H,5,6,7)/q+1;/p-1
Compound 18: 1-butyl-3,5-dimethylpyridinium dicyanamide, C13H18N4, InChI=1S/C11H18N.C2N3/c1-4-5-6-12-8-10(2)7-11(3)9-12;3-1-5-2-4/h7-9H,4-6H2,1-3H3;/q+1;-1
Compound 19: 1-butyl-2,3-dimethylpyridinium dicyanamide, C13H18N4, InChI=1S/C11H18N.C2N3/c1-4-5-8-12-9-6-7-10(2)11(12)3;3-1-5-2-4/h6-7,9H,4-5,8H2,1-3H3;/q+1;-1
Compound 20: 3,5-dimethyl-1-octylpyridinium dicyanamide, C17H26N4, InChI=1S/C15H26N.C2N3/c1-4-5-6-7-8-9-10-16-12-14(2)11-15(3)13-16;3-1-5-2-4/h11-13H,4-10H2,1-3H3;/q+1;-1
Compound 21: 5-ethyl-2-methyl-1-octylpyridinium dicyanamide, C18H28N4, InChI=1S/C16H28N.C2N3/c1-4-6-7-8-9-10-13-17-14-16(5-2)12-11-15(17)3;3-1-5-2-4/h11-12,14H,4-10,13H2,1-3H3;/q+1;-1
Compound 22: 1-butyl-3,5-dimethylpyridinium thiocyanate, C12H18N2S, InChI=1S/C11H18N.CHNS/c1-4-5-6-12-8-10(2)7-11(3)9-12;2-1-3/h7-9H,4-6H2,1-3H3;3H/q+1;/p-1
Compound 23: 3,5-dimethyl-1-octylpyridinium thiocyanate, C16H26N2S, InChI=1S/C15H26N.CHNS/c1-4-5-6-7-8-9-10-16-12-14(2)11-15(3)13-16;2-1-3/h11-13H,4-10H2,1-3H3;3H/q+1;/p-1
Compound 24: 2,3-dimethyl-1-octylpyridinium thiocyanate, C16H26N2S, InChI=1S/C15H26N.CHNS/c1-4-5-6-7-8-9-12-16-13-10-11-14(2)15(16)3;2-1-3/h10-11,13H,4-9,12H2,1-3H3;3H/q+1;/p-1
Compound 25: 2,3,5-trimethyl-1-octylpyridinium thiocyanate, C17H28N2S, InChI=1S/C16H28N.CHNS/c1-5-6-7-8-9-10-11-17-13-14(2)12-15(3)16(17)4;2-1-3/h12-13H,5-11H2,1-4H3;3H/q+1;/p-1
Compound 26: 3,5-dimethyl-1-octylpyridinium tetrafluoroborate, C15H26BF4N, InChI=1S/C15H26N.BF4/c1-4-5-6-7-8-9-10-16-12-14(2)11-15(3)13-16;2-1(3,4)5/h11-13H,4-10H2,1-3H3;/q+1;-1
Compound 27: water, H2O, InChI=1S/H2O/h1H2

System: 3,5-dimethyl-1-octylpyridinium iodide; phases: Crystal, Liquid, Air at 1 atmosphere
Property: Molar enthalpy of transition or fusion, kJ/mol (Crystal); method: DSC
Molar enthalpy of transition or fusion, kJ/mol	uncertainty
25.45	0.78

System: 3,5-dimethyl-1-octylpyridinium iodide; phases: Glass, Liquid, Air at 1 atmosphere
Property: Triple point temperature, K (Glass); method: DTA
Triple point temperature, K	uncertainty
232.1	2

System: 3,5-dimethyl-1-octylpyridinium iodide; phases: Crystal, Liquid, Air at 1 atmosphere
Property: Normal melting temperature, K (Crystal); method: DTA
Normal melting temperature, K	uncertainty
355.1	2

System: 5-ethyl-2-methyl-1-octylpyridinium iodide; phases: Crystal, Liquid, Air at 1 atmosphere
Property: Molar enthalpy of transition or fusion, kJ/mol (Crystal); method: DSC
Molar enthalpy of transition or fusion, kJ/mol	uncertainty
30.87	0.91

System: 5-ethyl-2-methyl-1-octylpyridinium iodide; phases: Glass, Liquid, Air at 1 atmosphere
Property: Triple point temperature, K (Glass); method: DTA
Triple point temperature, K	uncertainty
240.1	2

System: 5-ethyl-2-methyl-1-octylpyridinium iodide; phases: Crystal, Liquid, Air at 1 atmosphere
Property: Normal melting temperature, K (Crystal); method: DTA
Normal melting temperature, K	uncertainty
360.1	2

System: 2,3,5-trimethyl-1-octylpyridinium iodide; phases: Glass, Liquid, Air at 1 atmosphere
Property: Triple point temperature, K (Glass); method: DTA
Triple point temperature, K	uncertainty
242.1	2

System: 2,3,5-trimethyl-1-octylpyridinium iodide; phases: Liquid
Property: Refractive index (Na D-line) (Liquid); method: Standard Abbe refractometry
Temperature, K	Pressure, kPa	Refractive index (Na D-line)	uncertainty
293.1	101.325	1.5776	0.0016

System: 1-butyl-3,5-dimethylpyridinium bis(trifluoromethylsulfonyl)amide; phases: Glass, Liquid, Air at 1 atmosphere
Property: Triple point temperature, K (Glass); method: DTA
Triple point temperature, K	uncertainty
200.1	2

System: 1-butyl-3,5-dimethylpyridinium bis(trifluoromethylsulfonyl)amide; phases: Liquid
Property: Refractive index (Na D-line) (Liquid); method: Standard Abbe refractometry
Temperature, K	Pressure, kPa	Refractive index (Na D-line)	uncertainty
293.1	101.325	1.4559	0.0016

System: 1-butyl-3,5-dimethylpyridinium bis(trifluoromethylsulfonyl)amide; phases: Liquid
Property: Mass density, kg/m3 (Liquid); method: Pycnometric method
Temperature, K	Pressure, kPa	Mass density, kg/m3	uncertainty
293.1	101.325	1390	20

System: 1-butyl-2,3-dimethylpyridinium bis(trifluoromethylsulfonyl)amide; phases: Glass, Liquid, Air at 1 atmosphere
Property: Triple point temperature, K (Glass); method: DTA
Triple point temperature, K	uncertainty
192.1	2

System: 1-butyl-2,3-dimethylpyridinium bis(trifluoromethylsulfonyl)amide; phases: Liquid
Property: Refractive index (Na D-line) (Liquid); method: Standard Abbe refractometry
Temperature, K	Pressure, kPa	Refractive index (Na D-line)	uncertainty
293.1	101.325	1.4497	0.0016

System: 1-butyl-2,3-dimethylpyridinium bis(trifluoromethylsulfonyl)amide; phases: Liquid
Property: Mass density, kg/m3 (Liquid); method: Pycnometric method
Temperature, K	Pressure, kPa	Mass density, kg/m3	uncertainty
293.1	101.325	1370	20

System: 1-butyl-5-ethyl-2-methylpyridinium bis(trifluoromethylsulfonyl)amide; phases: Glass, Liquid, Air at 1 atmosphere
Property: Triple point temperature, K (Glass); method: DTA
Triple point temperature, K	uncertainty
192.1	2

System: 1-butyl-5-ethyl-2-methylpyridinium bis(trifluoromethylsulfonyl)amide; phases: Liquid
Property: Refractive index (Na D-line) (Liquid); method: Standard Abbe refractometry
Temperature, K	Pressure, kPa	Refractive index (Na D-line)	uncertainty
293.1	101.325	1.4552	0.0016

System: 1-butyl-5-ethyl-2-methylpyridinium bis(trifluoromethylsulfonyl)amide; phases: Liquid
Property: Mass density, kg/m3 (Liquid); method: Pycnometric method
Temperature, K	Pressure, kPa	Mass density, kg/m3	uncertainty
293.1	101.325	1370	20

System: 1-butyl-2,3,5-trimethylpyridinium bis(trifluoromethylsulfonyl)amide; phases: Glass, Liquid, Air at 1 atmosphere
Property: Triple point temperature, K (Glass); method: DTA
Triple point temperature, K	uncertainty
199.1	2

System: 1-butyl-2,3,5-trimethylpyridinium bis(trifluoromethylsulfonyl)amide; phases: Liquid
Property: Refractive index (Na D-line) (Liquid); method: Standard Abbe refractometry
Temperature, K	Pressure, kPa	Refractive index (Na D-line)	uncertainty
293.1	101.325	1.4583	0.0016

System: 1-butyl-2,3,5-trimethylpyridinium bis(trifluoromethylsulfonyl)amide; phases: Liquid
Property: Mass density, kg/m3 (Liquid); method: Pycnometric method
Temperature, K	Pressure, kPa	Mass density, kg/m3	uncertainty
293.1	101.325	1370	20

System: 3,5-dimethyl-1-octylpyridinium bis(trifluoromethylsulfonyl)amide; phases: Glass, Liquid, Air at 1 atmosphere
Property: Triple point temperature, K (Glass); method: DTA
Triple point temperature, K	uncertainty
195.1	2

System: 3,5-dimethyl-1-octylpyridinium bis(trifluoromethylsulfonyl)amide; phases: Liquid
Property: Refractive index (Na D-line) (Liquid); method: Standard Abbe refractometry
Temperature, K	Pressure, kPa	Refractive index (Na D-line)	uncertainty
293.1	101.325	1.4526	0.01

System: 3,5-dimethyl-1-octylpyridinium bis(trifluoromethylsulfonyl)amide; phases: Liquid
Property: Mass density, kg/m3 (Liquid); method: Pycnometric method
Temperature, K	Pressure, kPa	Mass density, kg/m3	uncertainty
293.1	101.325	1280	20

System: 2,3-dimethyl-1-octylpyridinium bis(trifluoromethylsulfonyl)amide; phases: Glass, Liquid, Air at 1 atmosphere
Property: Triple point temperature, K (Glass); method: DTA
Triple point temperature, K	uncertainty
203.1	2

System: 2,3-dimethyl-1-octylpyridinium bis(trifluoromethylsulfonyl)amide; phases: Liquid
Property: Refractive index (Na D-line) (Liquid); method: Standard Abbe refractometry
Temperature, K	Pressure, kPa	Refractive index (Na D-line)	uncertainty
293.1	101.325	1.4571	0.01

System: 2,3-dimethyl-1-octylpyridinium bis(trifluoromethylsulfonyl)amide; phases: Liquid
Property: Mass density, kg/m3 (Liquid); method: Pycnometric method
Temperature, K	Pressure, kPa	Mass density, kg/m3	uncertainty
293.1	101.325	1290	20

System: 5-ethyl-2-methyl-1-octylpyridinium bis(trifluoromethylsulfonyl)amide; phases: Glass, Liquid, Air at 1 atmosphere
Property: Triple point temperature, K (Glass); method: DTA
Triple point temperature, K	uncertainty
195.1	2

System: 5-ethyl-2-methyl-1-octylpyridinium bis(trifluoromethylsulfonyl)amide; phases: Liquid
Property: Mass density, kg/m3 (Liquid); method: Pycnometric method
Temperature, K	Pressure, kPa	Mass density, kg/m3	uncertainty
293.1	101.325	1280	20

System: 2,3,5-trimethyl-1-octylpyridinium bis(trifluoromethylsulfonyl)amide; phases: Glass, Liquid, Air at 1 atmosphere
Property: Triple point temperature, K (Glass); method: DTA
Triple point temperature, K	uncertainty
201.1	2

System: 2,3,5-trimethyl-1-octylpyridinium bis(trifluoromethylsulfonyl)amide; phases: Liquid
Property: Refractive index (Na D-line) (Liquid); method: Standard Abbe refractometry
Temperature, K	Pressure, kPa	Refractive index (Na D-line)	uncertainty
293.1	101.325	1.4617	0.0016

System: 2,3,5-trimethyl-1-octylpyridinium bis(trifluoromethylsulfonyl)amide; phases: Liquid
Property: Mass density, kg/m3 (Liquid); method: Pycnometric method
Temperature, K	Pressure, kPa	Mass density, kg/m3	uncertainty
293.1	101.325	1280	20

System: 1-butyl-3,5-dimethylpyridinium 1,1,1-trifluoromethanesulfonate; phases: Crystal, Liquid, Air at 1 atmosphere
Property: Molar enthalpy of transition or fusion, kJ/mol (Crystal); method: DSC
Molar enthalpy of transition or fusion, kJ/mol	uncertainty
28.5	0.85

System: 1-butyl-3,5-dimethylpyridinium 1,1,1-trifluoromethanesulfonate; phases: Crystal, Liquid, Air at 1 atmosphere
Property: Normal melting temperature, K (Crystal); method: DTA
Normal melting temperature, K	uncertainty
364.1	2

System: 1-butyl-3,5-dimethylpyridinium 1,1,1-trifluoromethanesulfonate; phases: Liquid
Property: Mass density, kg/m3 (Liquid); method: Pycnometric method
Temperature, K	Pressure, kPa	Mass density, kg/m3	uncertainty
293.1	101.325	1390	20

System: 1-butyl-2,3-dimethylpyridinium 1,1,1-trifluoromethanesulfonate; phases: Crystal, Liquid, Air at 1 atmosphere
Property: Molar enthalpy of transition or fusion, kJ/mol (Crystal); method: DSC
Molar enthalpy of transition or fusion, kJ/mol	uncertainty
16.88	0.58

System: 1-butyl-2,3-dimethylpyridinium 1,1,1-trifluoromethanesulfonate; phases: Glass, Liquid, Air at 1 atmosphere
Property: Triple point temperature, K (Glass); method: DTA
Triple point temperature, K	uncertainty
204.1	2

System: 1-butyl-2,3-dimethylpyridinium 1,1,1-trifluoromethanesulfonate; phases: Crystal, Liquid, Air at 1 atmosphere
Property: Normal melting temperature, K (Crystal); method: DTA
Normal melting temperature, K	uncertainty
290.1	2

System: 1-butyl-2,3-dimethylpyridinium 1,1,1-trifluoromethanesulfonate; phases: Liquid
Property: Refractive index (Na D-line) (Liquid); method: Standard Abbe refractometry
Temperature, K	Pressure, kPa	Refractive index (Na D-line)	uncertainty
293.1	101.325	1.4748	0.0016

System: 1-butyl-2,3-dimethylpyridinium 1,1,1-trifluoromethanesulfonate; phases: Liquid
Property: Mass density, kg/m3 (Liquid); method: Pycnometric method
Temperature, K	Pressure, kPa	Mass density, kg/m3	uncertainty
293.1	101.325	1370	20

System: 1-butyl-2,3,5-trimethylpyridinium 1,1,1-trifluoromethanesulfonate; phases: Crystal, Liquid, Air at 1 atmosphere
Property: Molar enthalpy of transition or fusion, kJ/mol (Crystal); method: DSC
Molar enthalpy of transition or fusion, kJ/mol	uncertainty
20.97	0.67

System: 1-butyl-2,3,5-trimethylpyridinium 1,1,1-trifluoromethanesulfonate; phases: Crystal, Liquid, Air at 1 atmosphere
Property: Normal melting temperature, K (Crystal); method: DTA
Normal melting temperature, K	uncertainty
347.1	2

System: 3,5-dimethyl-1-octylpyridinium 1,1,1-trifluoromethanesulfonate; phases: Crystal, Liquid, Air at 1 atmosphere
Property: Molar enthalpy of transition or fusion, kJ/mol (Crystal); method: DSC
Molar enthalpy of transition or fusion, kJ/mol	uncertainty
24.81	0.76

System: 3,5-dimethyl-1-octylpyridinium 1,1,1-trifluoromethanesulfonate; phases: Crystal, Liquid, Air at 1 atmosphere
Property: Normal melting temperature, K (Crystal); method: DTA
Normal melting temperature, K	uncertainty
349.1	2

System: 2,3-dimethyl-1-octylpyridinium 1,1,1-trifluoromethanesulfonate; phases: Glass, Liquid, Air at 1 atmosphere
Property: Triple point temperature, K (Glass); method: DTA
Triple point temperature, K	uncertainty
210.1	2

System: 2,3-dimethyl-1-octylpyridinium 1,1,1-trifluoromethanesulfonate; phases: Liquid
Property: Refractive index (Na D-line) (Liquid); method: Standard Abbe refractometry
Temperature, K	Pressure, kPa	Refractive index (Na D-line)	uncertainty
293.1	101.325	1.4725	0.0016

System: 2,3-dimethyl-1-octylpyridinium 1,1,1-trifluoromethanesulfonate; phases: Liquid
Property: Mass density, kg/m3 (Liquid); method: Pycnometric method
Temperature, K	Pressure, kPa	Mass density, kg/m3	uncertainty
293.1	101.325	1180	20

System: 2,3,5-trimethyl-1-octylpyridinium 1,1,1-trifluoromethanesulfonate; phases: Glass, Liquid, Air at 1 atmosphere
Property: Triple point temperature, K (Glass); method: DTA
Triple point temperature, K	uncertainty
217.1	2

System: 1-butyl-3,5-dimethylpyridinium dicyanamide; phases: Crystal, Liquid, Air at 1 atmosphere
Property: Molar enthalpy of transition or fusion, kJ/mol (Crystal); method: DSC
Molar enthalpy of transition or fusion, kJ/mol	uncertainty
3.85	0.32

System: 1-butyl-3,5-dimethylpyridinium dicyanamide; phases: Glass, Liquid, Air at 1 atmosphere
Property: Triple point temperature, K (Glass); method: DTA
Triple point temperature, K	uncertainty
193.1	2

System: 1-butyl-3,5-dimethylpyridinium dicyanamide; phases: Crystal, Liquid, Air at 1 atmosphere
Property: Normal melting temperature, K (Crystal); method: DTA
Normal melting temperature, K	uncertainty
272.1	2

System: 1-butyl-3,5-dimethylpyridinium dicyanamide; phases: Liquid
Property: Refractive index (Na D-line) (Liquid); method: Standard Abbe refractometry
Temperature, K	Pressure, kPa	Refractive index (Na D-line)	uncertainty
293.1	101.325	1.5278	0.0016

System: 1-butyl-2,3-dimethylpyridinium dicyanamide; phases: Glass, Liquid, Air at 1 atmosphere
Property: Triple point temperature, K (Glass); method: DTA
Triple point temperature, K	uncertainty
201.1	2

System: 1-butyl-2,3-dimethylpyridinium dicyanamide; phases: Liquid
Property: Refractive index (Na D-line) (Liquid); method: Standard Abbe refractometry
Temperature, K	Pressure, kPa	Refractive index (Na D-line)	uncertainty
293.1	101.325	1.5403	0.0016

System: 3,5-dimethyl-1-octylpyridinium dicyanamide; phases: Glass, Liquid, Air at 1 atmosphere
Property: Triple point temperature, K (Glass); method: DTA
Triple point temperature, K	uncertainty
195.1	2

System: 3,5-dimethyl-1-octylpyridinium dicyanamide; phases: Liquid
Property: Refractive index (Na D-line) (Liquid); method: Standard Abbe refractometry
Temperature, K	Pressure, kPa	Refractive index (Na D-line)	uncertainty
293.1	101.325	1.5196	0.0016

System: 3,5-dimethyl-1-octylpyridinium dicyanamide; phases: Liquid
Property: Mass density, kg/m3 (Liquid); method: Pycnometric method
Temperature, K	Pressure, kPa	Mass density, kg/m3	uncertainty
293.1	101.325	1000	20

System: 5-ethyl-2-methyl-1-octylpyridinium dicyanamide; phases: Glass, Liquid, Air at 1 atmosphere
Property: Triple point temperature, K (Glass); method: DTA
Triple point temperature, K	uncertainty
214.1	2

System: 5-ethyl-2-methyl-1-octylpyridinium dicyanamide; phases: Crystal, Liquid, Air at 1 atmosphere
Property: Normal melting temperature, K (Crystal); method: DTA
Normal melting temperature, K	uncertainty
326.1	2

System: 1-butyl-3,5-dimethylpyridinium thiocyanate; phases: Crystal, Liquid, Air at 1 atmosphere
Property: Molar enthalpy of transition or fusion, kJ/mol (Crystal); method: DSC
Molar enthalpy of transition or fusion, kJ/mol	uncertainty
16.04	0.56

System: 1-butyl-3,5-dimethylpyridinium thiocyanate; phases: Glass, Liquid, Air at 1 atmosphere
Property: Triple point temperature, K (Glass); method: DTA
Triple point temperature, K	uncertainty
216.1	2

System: 1-butyl-3,5-dimethylpyridinium thiocyanate; phases: Crystal, Liquid, Air at 1 atmosphere
Property: Normal melting temperature, K (Crystal); method: DTA
Normal melting temperature, K	uncertainty
286.1	2

System: 3,5-dimethyl-1-octylpyridinium thiocyanate; phases: Crystal, Liquid, Air at 1 atmosphere
Property: Molar enthalpy of transition or fusion, kJ/mol (Crystal); method: DSC
Molar enthalpy of transition or fusion, kJ/mol	uncertainty
6.39	0.36

System: 3,5-dimethyl-1-octylpyridinium thiocyanate; phases: Glass, Liquid, Air at 1 atmosphere
Property: Triple point temperature, K (Glass); method: DTA
Triple point temperature, K	uncertainty
199.1	2

System: 3,5-dimethyl-1-octylpyridinium thiocyanate; phases: Crystal, Liquid, Air at 1 atmosphere
Property: Normal melting temperature, K (Crystal); method: DTA
Normal melting temperature, K	uncertainty
235.1	2

System: 3,5-dimethyl-1-octylpyridinium thiocyanate; phases: Liquid
Property: Refractive index (Na D-line) (Liquid); method: Standard Abbe refractometry
Temperature, K	Pressure, kPa	Refractive index (Na D-line)	uncertainty
293.1	101.325	1.5415	0.0016

System: 3,5-dimethyl-1-octylpyridinium thiocyanate; phases: Liquid
Property: Mass density, kg/m3 (Liquid); method: Pycnometric method
Temperature, K	Pressure, kPa	Mass density, kg/m3	uncertainty
293.1	101.325	1000	20

System: 2,3-dimethyl-1-octylpyridinium thiocyanate; phases: Glass, Liquid, Air at 1 atmosphere
Property: Triple point temperature, K (Glass); method: DTA
Triple point temperature, K	uncertainty
208.1	2

System: 2,3-dimethyl-1-octylpyridinium thiocyanate; phases: Liquid
Property: Refractive index (Na D-line) (Liquid); method: Standard Abbe refractometry
Temperature, K	Pressure, kPa	Refractive index (Na D-line)	uncertainty
293.1	101.325	1.5489	0.0016

System: 2,3-dimethyl-1-octylpyridinium thiocyanate; phases: Liquid
Property: Mass density, kg/m3 (Liquid); method: Pycnometric method
Temperature, K	Pressure, kPa	Mass density, kg/m3	uncertainty
293.1	101.325	1020	20

System: 2,3,5-trimethyl-1-octylpyridinium thiocyanate; phases: Crystal, Liquid, Air at 1 atmosphere
Property: Molar enthalpy of transition or fusion, kJ/mol (Crystal); method: DSC
Molar enthalpy of transition or fusion, kJ/mol	uncertainty
14.66	0.53

System: 2,3,5-trimethyl-1-octylpyridinium thiocyanate; phases: Glass, Liquid, Air at 1 atmosphere
Property: Triple point temperature, K (Glass); method: DTA
Triple point temperature, K	uncertainty
215.1	2

System: 2,3,5-trimethyl-1-octylpyridinium thiocyanate; phases: Crystal, Liquid, Air at 1 atmosphere
Property: Normal melting temperature, K (Crystal); method: DTA
Normal melting temperature, K	uncertainty
293.1	2

System: 3,5-dimethyl-1-octylpyridinium tetrafluoroborate; phases: Crystal, Liquid, Air at 1 atmosphere
Property: Molar enthalpy of transition or fusion, kJ/mol (Crystal); method: DSC
Molar enthalpy of transition or fusion, kJ/mol	uncertainty
28.07	0.84

System: 3,5-dimethyl-1-octylpyridinium tetrafluoroborate; phases: Crystal, Liquid, Air at 1 atmosphere
Property: Normal melting temperature, K (Crystal); method: DTA
Normal melting temperature, K	uncertainty
329.1	2

System: water + 5-ethyl-2-methyl-1-octylpyridinium iodide; phases: Liquid mixture 1, Liquid mixture 2
Property: Mass fraction of 5-ethyl-2-methyl-1-octylpyridinium iodide (Liquid mixture 1); method: Beer-Lambert's law
Temperature, K	Pressure, kPa	Mass fraction of 5-ethyl-2-methyl-1-octylpyridinium iodide	uncertainty
289.15	101	0.02385	0.002385

System: water + 2,3,5-trimethyl-1-octylpyridinium iodide; phases: Liquid mixture 1, Liquid mixture 2
Property: Mass fraction of 2,3,5-trimethyl-1-octylpyridinium iodide (Liquid mixture 1); method: Beer-Lambert's law
Temperature, K	Pressure, kPa	Mass fraction of 2,3,5-trimethyl-1-octylpyridinium iodide	uncertainty
289.15	101	0.02865	0.002865

System: water + 1-butyl-3,5-dimethylpyridinium bis(trifluoromethylsulfonyl)amide; phases: Liquid mixture 1, Liquid mixture 2
Property: Mass fraction of 1-butyl-3,5-dimethylpyridinium bis(trifluoromethylsulfonyl)amide (Liquid mixture 1); method: Beer-Lambert's law
Temperature, K	Pressure, kPa	Mass fraction of 1-butyl-3,5-dimethylpyridinium bis(trifluoromethylsulfonyl)amide	uncertainty
289.15	101	0.00339	0.000339

System: water + 1-butyl-2,3-dimethylpyridinium bis(trifluoromethylsulfonyl)amide; phases: Liquid mixture 1, Liquid mixture 2
Property: Mass fraction of 1-butyl-2,3-dimethylpyridinium bis(trifluoromethylsulfonyl)amide (Liquid mixture 1); method: Beer-Lambert's law
Temperature, K	Pressure, kPa	Mass fraction of 1-butyl-2,3-dimethylpyridinium bis(trifluoromethylsulfonyl)amide	uncertainty
289.15	101	0.00278	0.000278

System: water + 1-butyl-5-ethyl-2-methylpyridinium bis(trifluoromethylsulfonyl)amide; phases: Liquid mixture 1, Liquid mixture 2
Property: Mass fraction of 1-butyl-5-ethyl-2-methylpyridinium bis(trifluoromethylsulfonyl)amide (Liquid mixture 1); method: Beer-Lambert's law
Temperature, K	Pressure, kPa	Mass fraction of 1-butyl-5-ethyl-2-methylpyridinium bis(trifluoromethylsulfonyl)amide	uncertainty
289.15	101	0.00249	0.000249

System: water + 1-butyl-2,3,5-trimethylpyridinium bis(trifluoromethylsulfonyl)amide; phases: Liquid mixture 1, Liquid mixture 2
Property: Mass fraction of 1-butyl-2,3,5-trimethylpyridinium bis(trifluoromethylsulfonyl)amide (Liquid mixture 1); method: Beer-Lambert's law
Temperature, K	Pressure, kPa	Mass fraction of 1-butyl-2,3,5-trimethylpyridinium bis(trifluoromethylsulfonyl)amide	uncertainty
289.15	101	0.00166	0.000166

System: water + 3,5-dimethyl-1-octylpyridinium bis(trifluoromethylsulfonyl)amide; phases: Liquid mixture 1, Liquid mixture 2
Property: Mass fraction of 3,5-dimethyl-1-octylpyridinium bis(trifluoromethylsulfonyl)amide (Liquid mixture 1); method: Beer-Lambert's law
Temperature, K	Pressure, kPa	Mass fraction of 3,5-dimethyl-1-octylpyridinium bis(trifluoromethylsulfonyl)amide	uncertainty
289.15	101	0.00031	3.1e-05

System: water + 2,3-dimethyl-1-octylpyridinium bis(trifluoromethylsulfonyl)amide; phases: Liquid mixture 1, Liquid mixture 2
Property: Mass fraction of 2,3-dimethyl-1-octylpyridinium bis(trifluoromethylsulfonyl)amide (Liquid mixture 1); method: Beer-Lambert's law
Temperature, K	Pressure, kPa	Mass fraction of 2,3-dimethyl-1-octylpyridinium bis(trifluoromethylsulfonyl)amide	uncertainty
289.15	101	0.0004	4e-05

System: water + 5-ethyl-2-methyl-1-octylpyridinium bis(trifluoromethylsulfonyl)amide; phases: Liquid mixture 1, Liquid mixture 2
Property: Mass fraction of 5-ethyl-2-methyl-1-octylpyridinium bis(trifluoromethylsulfonyl)amide (Liquid mixture 1); method: Beer-Lambert's law
Temperature, K	Pressure, kPa	Mass fraction of 5-ethyl-2-methyl-1-octylpyridinium bis(trifluoromethylsulfonyl)amide	uncertainty
289.15	101	0.00026	2.6e-05

System: water + 2,3-dimethyl-1-octylpyridinium 1,1,1-trifluoromethanesulfonate; phases: Liquid mixture 1, Liquid mixture 2
Property: Mass fraction of 2,3-dimethyl-1-octylpyridinium 1,1,1-trifluoromethanesulfonate (Liquid mixture 1); method: Beer-Lambert's law
Temperature, K	Pressure, kPa	Mass fraction of 2,3-dimethyl-1-octylpyridinium 1,1,1-trifluoromethanesulfonate	uncertainty
289.15	101	0.01487	0.001487

System: water + 3,5-dimethyl-1-octylpyridinium 1,1,1-trifluoromethanesulfonate; phases: Liquid mixture 1, Liquid mixture 2
Property: Mass fraction of 3,5-dimethyl-1-octylpyridinium 1,1,1-trifluoromethanesulfonate (Liquid mixture 1); method: Beer-Lambert's law
Temperature, K	Pressure, kPa	Mass fraction of 3,5-dimethyl-1-octylpyridinium 1,1,1-trifluoromethanesulfonate	uncertainty
289.15	101	0.00975	0.000975

System: water + 2,3,5-trimethyl-1-octylpyridinium 1,1,1-trifluoromethanesulfonate; phases: Liquid mixture 1, Liquid mixture 2
Property: Mass fraction of 2,3,5-trimethyl-1-octylpyridinium 1,1,1-trifluoromethanesulfonate (Liquid mixture 1); method: Beer-Lambert's law
Temperature, K	Pressure, kPa	Mass fraction of 2,3,5-trimethyl-1-octylpyridinium 1,1,1-trifluoromethanesulfonate	uncertainty
289.15	101	0.01086	0.001086

System: water + 3,5-dimethyl-1-octylpyridinium dicyanamide; phases: Liquid mixture 1, Liquid mixture 2
Property: Mass fraction of 3,5-dimethyl-1-octylpyridinium dicyanamide (Liquid mixture 1); method: Beer-Lambert's law
Temperature, K	Pressure, kPa	Mass fraction of 3,5-dimethyl-1-octylpyridinium dicyanamide	uncertainty
289.15	101	0.020005	0.002001

System: water + 5-ethyl-2-methyl-1-octylpyridinium dicyanamide; phases: Liquid mixture 1, Liquid mixture 2
Property: Mass fraction of 5-ethyl-2-methyl-1-octylpyridinium dicyanamide (Liquid mixture 1); method: Beer-Lambert's law
Temperature, K	Pressure, kPa	Mass fraction of 5-ethyl-2-methyl-1-octylpyridinium dicyanamide	uncertainty
289.15	101	0.01521	0.001521

System: water + 3,5-dimethyl-1-octylpyridinium thiocyanate; phases: Liquid mixture 1, Liquid mixture 2
Property: Mass fraction of 3,5-dimethyl-1-octylpyridinium thiocyanate (Liquid mixture 1); method: Beer-Lambert's law
Temperature, K	Pressure, kPa	Mass fraction of 3,5-dimethyl-1-octylpyridinium thiocyanate	uncertainty
289.15	101	0.01053	0.001053

System: water + 2,3-dimethyl-1-octylpyridinium thiocyanate; phases: Liquid mixture 1, Liquid mixture 2
Property: Mass fraction of 2,3-dimethyl-1-octylpyridinium thiocyanate (Liquid mixture 1); method: Beer-Lambert's law
Temperature, K	Pressure, kPa	Mass fraction of 2,3-dimethyl-1-octylpyridinium thiocyanate	uncertainty
289.15	101	0.00972	0.000972
