Measured thermophysical data. Isobaric Vapor-Liquid Equilibrium for Binary Mixtures of 3-Methyl-1-butanol + 3-Methyl-1-butyl Ethanoate and 1-Pentanol + Pentyl Ethanoate at 101.3 kPa
Source: J. Chem. Eng. Data, 2010, 10.1021/je900812v
Compound 1: 3-methylbutan-1-ol, C5H12O, InChI=1S/C5H12O/c1-5(2)3-4-6/h5-6H,3-4H2,1-2H3, purity 99%
Compound 2: 3-methylbutyl ethanoate, C7H14O2, InChI=1S/C7H14O2/c1-6(2)4-5-9-7(3)8/h6H,4-5H2,1-3H3, purity 99%
Compound 3: pentan-1-ol, C5H12O, InChI=1S/C5H12O/c1-2-3-4-5-6/h6H,2-5H2,1H3, purity 98.5%
Compound 4: pentyl ethanoate, C7H14O2, InChI=1S/C7H14O2/c1-3-4-5-6-9-7(2)8/h3-6H2,1-2H3, purity 98%

System: 3-methylbutan-1-ol; phases: Liquid
Property: Refractive index (Na D-line) (Liquid); method: Standard Abbe refractometry
Temperature, K	Pressure, kPa	Refractive index (Na D-line)	uncertainty
298.15	101.325	1.4501	0.0008

System: 3-methylbutan-1-ol; phases: Liquid
Property: Mass density, kg/m3 (Liquid); method: Pycnometric method
Temperature, K	Pressure, kPa	Mass density, kg/m3	uncertainty
298.15	101.325	807.6	0.2

System: 3-methylbutan-1-ol; phases: Liquid, Gas
Property: Vapor or sublimation pressure, kPa (Liquid); method: EBULLIO:UFactor:32
Temperature, K	Vapor or sublimation pressure, kPa	uncertainty
336.35	5.27	0.27
346.9	9.25	0.28
354.2	12.96	0.3
354.3	13.24	0.3
356.85	14.83	0.32
359.75	17.09	0.33
360.65	17.61	0.33
363.55	20.13	0.4
364.05	20.81	0.35
365.45	21.98	0.37
368.3	25.18	0.38
369.5	26.24	0.38
371.5	28.64	0.4
380.65	41.65	0.53
381.65	43.64	0.54
389.6	59.58	0.67
391.35	64.3	0.62
392.65	66.58	0.64
395.55	74.19	0.68
396.9	77.47	0.7
398.25	81.46	0.76
403.05	96.21	1.19
403.75	99.99	0.84
404.55	101.33	0.7
405.15	103.46	0.88
408.05	114.26	0.94
410.95	125.72	0.97
413.05	133.86	0.98

System: 3-methylbutyl ethanoate; phases: Liquid
Property: Refractive index (Na D-line) (Liquid); method: Standard Abbe refractometry
Temperature, K	Pressure, kPa	Refractive index (Na D-line)	uncertainty
298.15	101.325	1.39893	0.0008

System: 3-methylbutyl ethanoate; phases: Liquid
Property: Mass density, kg/m3 (Liquid); method: Pycnometric method
Temperature, K	Pressure, kPa	Mass density, kg/m3	uncertainty
298.15	101.325	866.4	0.2

System: 3-methylbutyl ethanoate; phases: Liquid, Gas
Property: Vapor or sublimation pressure, kPa (Liquid); method: EBULLIO:UFactor:32
Temperature, K	Vapor or sublimation pressure, kPa	uncertainty
368.15	22.4	0.4
369.35	23.4	0.4
370.65	24.6	0.4
371.85	25.7	0.4
372.45	26.3	0.4
380.65	35.3	0.4
381.75	36.7	0.4
387	43.9	0.5
387.9	45.2	0.5
390.95	50	0.5
392.75	52.9	0.5
394.25	55.5	0.5
395.65	58	0.5
398.65	63.7	0.6
401.85	70.1	0.6
403.35	73.3	0.6
407.15	81.9	0.7
409.55	87.8	0.7
410.95	91.3	0.7
412.85	96.3	0.7
414.15	99.8	0.7
414.85	101.7	0.8
415.35	103.1	0.8
416.45	106.2	0.8

System: pentan-1-ol; phases: Liquid
Property: Refractive index (Na D-line) (Liquid); method: Standard Abbe refractometry
Temperature, K	Pressure, kPa	Refractive index (Na D-line)	uncertainty
298.15	101.325	1.4077	0.0008

System: pentan-1-ol; phases: Liquid, Gas
Property: Boiling temperature at pressure P, K (Liquid); method: Ebulliometric method (Recirculating still)
Pressure, kPa	Boiling temperature at pressure P, K	uncertainty
101.3	410.95	0.3

System: pentan-1-ol; phases: Liquid
Property: Mass density, kg/m3 (Liquid); method: Pycnometric method
Temperature, K	Pressure, kPa	Mass density, kg/m3	uncertainty
298.15	101.325	811.2	0.4

System: pentan-1-ol; phases: Liquid, Gas
Property: Vapor or sublimation pressure, kPa (Liquid); method: Ebulliometric method (Recirculating still)
Temperature, K	Vapor or sublimation pressure, kPa	uncertainty
410.95	101.3	

System: pentyl ethanoate; phases: Liquid
Property: Refractive index (Na D-line) (Liquid); method: Standard Abbe refractometry
Temperature, K	Pressure, kPa	Refractive index (Na D-line)	uncertainty
298.15	101.325	1.4005	0.0009

System: pentyl ethanoate; phases: Liquid, Gas
Property: Boiling temperature at pressure P, K (Liquid); method: Ebulliometric method (Recirculating still)
Pressure, kPa	Boiling temperature at pressure P, K	uncertainty
101.3	421.55	0.3

System: pentyl ethanoate; phases: Liquid
Property: Mass density, kg/m3 (Liquid); method: Pycnometric method
Temperature, K	Pressure, kPa	Mass density, kg/m3	uncertainty
298.15	101.325	872.3	0.9

System: pentyl ethanoate; phases: Liquid, Gas
Property: Vapor or sublimation pressure, kPa (Liquid); method: Ebulliometric method (Recirculating still)
Temperature, K	Vapor or sublimation pressure, kPa	uncertainty
421.55	101.3	

System: 3-methylbutan-1-ol + 3-methylbutyl ethanoate; phases: Liquid, Gas
Fixed: Pressure, kPa = 101.3
Property: Boiling temperature at pressure P, K (Liquid); method: Ebulliometric method (Recirculating still)
Mole fraction of 3-methylbutan-1-ol	Boiling temperature at pressure P, K	uncertainty
0	414.75	2
0.025	414.05	2
0.059	413.15	2
0.108	411.95	2
0.185	410.55	2
0.218	410.05	2
0.299	408.85	2
0.33	408.45	2
0.424	407.45	2
0.504	406.75	2
0.578	406.15	2
0.65	405.75	2
0.768	405.15	2
0.794	405.05	2
0.838	404.95	2
0.863	404.85	2
0.891	404.75	2
0.904	404.75	2
0.923	404.65	2
0.959	404.55	2
1	404.55	2

System: 3-methylbutan-1-ol + 3-methylbutyl ethanoate; phases: Gas, Liquid
Fixed: Pressure, kPa = 101.3
Property: Mole fraction of 3-methylbutan-1-ol (Gas); method: Chromatography
Mole fraction of 3-methylbutan-1-ol	Mole fraction of 3-methylbutan-1-ol	uncertainty
0	0	0.001
0.025	0.044	0.002
0.059	0.098	0.002
0.108	0.169	0.002
0.185	0.265	0.003
0.218	0.303	0.003
0.299	0.388	0.004
0.33	0.418	0.005
0.424	0.504	0.006
0.504	0.574	0.006
0.578	0.636	0.005
0.65	0.695	0.004
0.768	0.794	0.003
0.794	0.815	0.003
0.838	0.855	0.003
0.863	0.876	0.002
0.891	0.9	0.002
0.904	0.912	0.002
0.923	0.929	0.002
0.959	0.961	0.002
1	1	0.001

System: pentan-1-ol + pentyl ethanoate; phases: Liquid, Gas
Fixed: Pressure, kPa = 101.3
Property: Boiling temperature at pressure P, K (Liquid); method: Ebulliometric method (Recirculating still)
Mole fraction of pentan-1-ol	Boiling temperature at pressure P, K	uncertainty
0	421.55	2.01
0.0089	421.35	2.01
0.0252	420.85	2.01
0.0265	420.75	2.01
0.0752	419.65	2.01
0.186	417.35	2.01
0.324	415.25	2.01
0.356	414.85	2.01
0.376	414.65	2.01
0.404	414.35	2.01
0.446	413.85	2.01
0.498	413.35	2.01
0.558	412.85	2.01
0.624	412.35	2.01
0.735	411.75	2.01
0.76	411.65	2.01
0.777	411.55	2.01
0.8001	411.45	2.01
0.809	411.4	2
0.844	411.3	2
0.9	411.15	2
0.9822	410.95	2
1	410.95	2

System: pentan-1-ol + pentyl ethanoate; phases: Gas, Liquid
Fixed: Pressure, kPa = 101.3
Property: Mole fraction of pentan-1-ol (Gas); method: Chromatography
Mole fraction of pentan-1-ol	Mole fraction of pentan-1-ol	uncertainty
0	0	0.001
0.0089	0.016	0.002
0.0252	0.043	0.002
0.0265	0.045	0.002
0.0752	0.12	0.002
0.186	0.266	0.003
0.324	0.414	0.006
0.356	0.446	0.007
0.376	0.463	0.007
0.404	0.49	0.008
0.446	0.526	0.008
0.498	0.57	0.008
0.558	0.623	0.007
0.624	0.675	0.006
0.735	0.769	0.005
0.76	0.789	0.005
0.777	0.803	0.004
0.8001	0.824	0.004
0.809	0.83	0.004
0.844	0.86	0.003
0.9	0.908	0.002
0.9822	0.983	0.002
1	1	1
