Measured thermophysical data. Density, Speed of Sound, and Refractive Index of the Binary Systems Cyclohexane (1) or Methylcyclohexane (1) or Cyclo-octane (1) with Benzene (2), Toluene (2), and Ethylbenzene (2) at Two Temperatures
Source: J. Chem. Eng. Data, 2010, 10.1021/je900468u
Compound 1: cyclohexane, C6H12, InChI=1S/C6H12/c1-2-4-6-5-3-1/h1-6H2, purity 99.9%
Compound 2: methylcyclohexane, C7H14, InChI=1S/C7H14/c1-7-5-3-2-4-6-7/h7H,2-6H2,1H3, purity 99%
Compound 3: cyclooctane, C8H16, InChI=1S/C8H16/c1-2-4-6-8-7-5-3-1/h1-8H2, purity 99%
Compound 4: benzene, C6H6, InChI=1S/C6H6/c1-2-4-6-5-3-1/h1-6H, purity 99.8%
Compound 5: toluene, C7H8, InChI=1S/C7H8/c1-7-5-3-2-4-6-7/h2-6H,1H3, purity 99.8%
Compound 6: ethylbenzene, C8H10, InChI=1S/C8H10/c1-2-8-6-4-3-5-7-8/h3-7H,2H2,1H3, purity 99.8%

System: cyclohexane; phases: Liquid
Fixed: Pressure, kPa = 101.325
Property: Refractive index (Na D-line) (Liquid); method: Standard Abbe refractometry
Temperature, K	Refractive index (Na D-line)	uncertainty
283.15	1.43193	0.00064
298.15	1.4236	0.00064

System: cyclohexane; phases: Liquid
Fixed: Pressure, kPa = 101
Property: Speed of sound, m/s (Liquid); method: Pulse-echo method
Temperature, K	Speed of sound, m/s	uncertainty
283.15	1329	2
298.15	1255	2

System: cyclohexane; phases: Liquid
Fixed: Pressure, kPa = 101
Property: Mass density, kg/m3 (Liquid); method: VIBTUB::UFactor:4
Temperature, K	Mass density, kg/m3	uncertainty
283.15	787.8	0.5
298.15	773.9	0.5

System: methylcyclohexane; phases: Liquid
Fixed: Pressure, kPa = 101.325
Property: Refractive index (Na D-line) (Liquid); method: Standard Abbe refractometry
Temperature, K	Refractive index (Na D-line)	uncertainty
283.15	1.42833	0.00063
298.15	1.42062	0.00063

System: methylcyclohexane; phases: Liquid
Fixed: Pressure, kPa = 101
Property: Speed of sound, m/s (Liquid); method: Pulse-echo method
Temperature, K	Speed of sound, m/s	uncertainty
283.15	1281	2
298.15	1215	2

System: methylcyclohexane; phases: Liquid
Fixed: Pressure, kPa = 101
Property: Mass density, kg/m3 (Liquid); method: VIBTUB::UFactor:4
Temperature, K	Mass density, kg/m3	uncertainty
283.15	777.9	0.6
298.15	765.1	0.6

System: cyclooctane; phases: Liquid
Property: Refractive index (Na D-line) (Liquid); method: Standard Abbe refractometry
Temperature, K	Pressure, kPa	Refractive index (Na D-line)	uncertainty
298.15	101.325	1.45598	0.0007

System: cyclooctane; phases: Liquid
Property: Speed of sound, m/s (Liquid); method: Pulse-echo method
Temperature, K	Pressure, kPa	Speed of sound, m/s	uncertainty
298.15	101	1391	2

System: cyclooctane; phases: Liquid
Property: Mass density, kg/m3 (Liquid); method: VIBTUB::UFactor:4
Temperature, K	Pressure, kPa	Mass density, kg/m3	uncertainty
298.15	101	831.5	0.5

System: benzene; phases: Liquid
Fixed: Pressure, kPa = 101.325
Property: Refractive index (Na D-line) (Liquid); method: Standard Abbe refractometry
Temperature, K	Refractive index (Na D-line)	uncertainty
283.15	1.50765	0.00073
298.15	1.49774	0.00073

System: benzene; phases: Liquid
Fixed: Pressure, kPa = 101
Property: Speed of sound, m/s (Liquid); method: Pulse-echo method
Temperature, K	Speed of sound, m/s	uncertainty
283.15	1371	2
298.15	1299	2

System: benzene; phases: Liquid
Fixed: Pressure, kPa = 101
Property: Mass density, kg/m3 (Liquid); method: VIBTUB::UFactor:4
Temperature, K	Mass density, kg/m3	uncertainty
283.15	889.5	0.3
298.15	873.9	0.4
298.15	873.6	0.4

System: toluene; phases: Liquid
Fixed: Pressure, kPa = 101.325
Property: Refractive index (Na D-line) (Liquid); method: Standard Abbe refractometry
Temperature, K	Refractive index (Na D-line)	uncertainty
283.15	1.50278	0.00068
298.15	1.49399	0.00068

System: toluene; phases: Liquid
Fixed: Pressure, kPa = 101
Property: Speed of sound, m/s (Liquid); method: Pulse-echo method
Temperature, K	Speed of sound, m/s	uncertainty
283.15	1371	2
298.15	1305	2

System: toluene; phases: Liquid
Fixed: Pressure, kPa = 101
Property: Mass density, kg/m3 (Liquid); method: VIBTUB:UFactor:4
Temperature, K	Mass density, kg/m3	uncertainty
283.15	876.1	0.4
298.15	862.2	0.4

System: ethylbenzene; phases: Liquid
Fixed: Pressure, kPa = 101.325
Property: Refractive index (Na D-line) (Liquid); method: Standard Abbe refractometry
Temperature, K	Refractive index (Na D-line)	uncertainty
283.15	1.50129	0.00063
298.15	1.49304	0.00063

System: ethylbenzene; phases: Liquid
Fixed: Pressure, kPa = 101
Property: Speed of sound, m/s (Liquid); method: Pulse-echo method
Temperature, K	Speed of sound, m/s	uncertainty
283.15	1382	2
298.15	1319	2

System: ethylbenzene; phases: Liquid
Fixed: Pressure, kPa = 101
Property: Mass density, kg/m3 (Liquid); method: VIBTUB::UFactor:4
Temperature, K	Mass density, kg/m3	uncertainty
283.15	875.7	0.4
298.15	862.5	0.4

System: benzene + cyclohexane; phases: Liquid
Fixed: Pressure, kPa = 101
Property: Refractive index (Na D-line) (Liquid); method: Standard Abbe refractometry
Temperature, K	Mole fraction of cyclohexane	Refractive index (Na D-line)	uncertainty
283.15	0	1.50765	0.00073
283.15	0.047	1.50275	0.00072
283.15	0.0984	1.49741	0.00073
283.15	0.1978	1.48772	0.00073
283.15	0.2968	1.47886	0.0007
283.15	0.3929	1.47071	0.0007
283.15	0.4996	1.46247	0.00069
283.15	0.6003	1.45532	0.00067
283.15	0.7022	1.44865	0.00067
283.15	0.7963	1.44324	0.00068
283.15	0.8954	1.43781	0.00066
283.15	0.9501	1.43453	0.00065
283.15	1	1.43193	0.00064
298.15	0	1.49774	0.00073
298.15	0.047	1.49298	0.00072
298.15	0.0984	1.48771	0.00071
298.15	0.1978	1.47808	0.00069
298.15	0.2968	1.46965	0.00069
298.15	0.3929	1.46157	0.00067
298.15	0.4996	1.45354	0.00066
298.15	0.6003	1.44654	0.00065
298.15	0.7022	1.44001	0.00065
298.15	0.7963	1.43431	0.00066
298.15	0.8954	1.42891	0.00067
298.15	0.9501	1.42611	0.00064
298.15	1	1.4236	0.00064

System: benzene + cyclohexane; phases: Liquid
Fixed: Pressure, kPa = 101
Property: Speed of sound, m/s (Liquid); method: Pulse-echo method
Temperature, K	Mole fraction of cyclohexane	Speed of sound, m/s	uncertainty
283.15	0	1371	2
283.15	0.047	1364	2
283.15	0.0984	1358	2
283.15	0.1978	1346	2
283.15	0.2968	1338	2
283.15	0.3929	1331	2
283.15	0.4996	1326	2
283.15	0.6003	1323	2
283.15	0.7022	1322	2
283.15	0.7963	1322	2
283.15	0.8954	1325	2
283.15	0.9501	1327	2
283.15	1	1329	2
298.15	0	1299	2
298.15	0.047	1293	2
298.15	0.0984	1286	2
298.15	0.1978	1275	2
298.15	0.2968	1266	2
298.15	0.3929	1259	2
298.15	0.4996	1254	2
298.15	0.6003	1251	2
298.15	0.7022	1249	2
298.15	0.7963	1249	2
298.15	0.8954	1250	2
298.15	0.9501	1252	2
298.15	1	1255	2

System: benzene + cyclohexane; phases: Liquid
Fixed: Pressure, kPa = 101
Property: Mass density, kg/m3 (Liquid); method: VIBTUB:UFactor:4
Temperature, K	Mole fraction of cyclohexane	Mass density, kg/m3	uncertainty
283.15	0	889.5	0.3
283.15	0.047	882.7	0.4
283.15	0.0984	875.6	0.4
283.15	0.1978	862.4	0.4
283.15	0.2968	850.4	0.4
283.15	0.3929	839.4	0.4
283.15	0.4996	828.3	0.4
283.15	0.6003	818.8	0.4
283.15	0.7022	809.9	0.4
283.15	0.7963	802.3	0.5
283.15	0.8954	794.9	0.5
283.15	0.9501	791.2	0.5
283.15	1	787.8	0.5
298.15	0	873.9	0.4
298.15	0.047	867.1	0.4
298.15	0.0984	859.9	0.4
298.15	0.1978	847	0.4
298.15	0.2968	835.2	0.4
298.15	0.3929	824.5	0.4
298.15	0.4996	813.6	0.4
298.15	0.6003	804.2	0.4
298.15	0.7022	795.5	0.5
298.15	0.7963	788	0.5
298.15	0.8954	780.8	0.5
298.15	0.9501	777.2	0.5
298.15	1	773.9	0.5

System: benzene + methylcyclohexane; phases: Liquid
Fixed: Pressure, kPa = 101
Property: Refractive index (Na D-line) (Liquid); method: Standard Abbe refractometry
Temperature, K	Mole fraction of methylcyclohexane	Refractive index (Na D-line)	uncertainty
283.15	0	1.50765	0.00073
283.15	0.0504	1.50135	0.00072
283.15	0.099	1.49548	0.00072
283.15	0.1998	1.48438	0.00073
283.15	0.2978	1.47501	0.00069
283.15	0.3991	1.46578	0.00069
283.15	0.4993	1.45783	0.00067
283.15	0.598	1.45078	0.00066
283.15	0.6991	1.44435	0.00065
283.15	0.7981	1.43862	0.00065
283.15	0.8961	1.4333	0.00064
283.15	0.9523	1.43058	0.00064
283.15	1	1.42833	0.00063
298.15	0	1.49774	0.00073
298.15	0.0504	1.49162	0.00072
298.15	0.099	1.48594	0.0007
298.15	0.1998	1.47509	0.00067
298.15	0.2978	1.46597	0.00067
298.15	0.3991	1.45706	0.00065
298.15	0.4993	1.44934	0.00064
298.15	0.598	1.44247	0.00063
298.15	0.6991	1.43623	0.00063
298.15	0.7981	1.43061	0.00063
298.15	0.8961	1.42549	0.00063
298.15	0.9523	1.42279	0.00063
298.15	1	1.42062	0.00063

System: benzene + methylcyclohexane; phases: Liquid
Fixed: Pressure, kPa = 101
Property: Speed of sound, m/s (Liquid); method: Pulse-echo method
Temperature, K	Mole fraction of methylcyclohexane	Speed of sound, m/s	uncertainty
283.15	0	1371	2
283.15	0.0504	1359	2
283.15	0.099	1350	2
283.15	0.1998	1333	2
283.15	0.2978	1320	2
283.15	0.3991	1308	2
283.15	0.4993	1299	2
283.15	0.598	1293	2
283.15	0.6991	1288	2
283.15	0.7981	1284	2
283.15	0.8961	1282	2
283.15	0.9523	1282	2
283.15	1	1281	2
298.15	0	1299	2
298.15	0.0504	1289	2
298.15	0.099	1280	2
298.15	0.1998	1263	2
298.15	0.2978	1250	2
298.15	0.3991	1240	2
298.15	0.4993	1231	2
298.15	0.598	1225	2
298.15	0.6991	1220	2
298.15	0.7981	1217	2
298.15	0.8961	1216	2
298.15	0.9523	1215	2
298.15	1	1215	2

System: benzene + methylcyclohexane; phases: Liquid
Fixed: Pressure, kPa = 101
Property: Mass density, kg/m3 (Liquid); method: VIBTUB:UFactor:4
Temperature, K	Mole fraction of methylcyclohexane	Mass density, kg/m3	uncertainty
283.15	0	889.5	0.3
283.15	0.0504	880.6	0.4
283.15	0.099	872.4	0.4
283.15	0.1998	856.9	0.4
283.15	0.2978	843.4	0.4
283.15	0.3991	830.7	0.4
283.15	0.4993	819.5	0.5
283.15	0.598	809.6	0.5
283.15	0.6991	800.5	0.5
283.15	0.7981	792.4	0.5
283.15	0.8961	784.9	0.6
283.15	0.9523	781	0.6
283.15	1	777.9	0.6
298.15	0	873.6	0.4
298.15	0.0504	865	0.4
298.15	0.099	857.1	0.4
298.15	0.1998	841.9	0.4
298.15	0.2978	828.8	0.4
298.15	0.3991	816.5	0.5
298.15	0.4993	805.7	0.5
298.15	0.598	796	0.5
298.15	0.6991	787.2	0.5
298.15	0.7981	779.3	0.6
298.15	0.8961	772	0.6
298.15	0.9523	768.2	0.6
298.15	1	765.1	0.6

System: toluene + cyclohexane; phases: Liquid
Fixed: Pressure, kPa = 101
Property: Refractive index (Na D-line) (Liquid); method: Standard Abbe refractometry
Temperature, K	Mole fraction of cyclohexane	Refractive index (Na D-line)	uncertainty
283.15	0	1.50278	0.00068
283.15	0.0484	1.4988	0.00068
283.15	0.099	1.49476	0.00068
283.15	0.1997	1.48684	0.00068
283.15	0.2973	1.47919	0.00068
283.15	0.3975	1.47167	0.00068
283.15	0.4999	1.46416	0.00068
283.15	0.5881	1.45803	0.00068
283.15	0.699	1.45054	0.00068
283.15	0.7985	1.44407	0.00068
283.15	0.8961	1.43794	0.00068
283.15	0.9497	1.43489	0.00068
298.15	0	1.49399	0.00068
298.15	0.0484	1.49021	0.00068
298.15	0.099	1.48614	0.00068
298.15	0.1997	1.47829	0.00068
298.15	0.2973	1.47073	0.00068
298.15	0.3975	1.4632	0.00068
298.15	0.4999	1.4558	0.00068
298.15	0.5881	1.44964	0.00068
298.15	0.699	1.44216	0.00068
298.15	0.7985	1.4358	0.00068
298.15	0.8961	1.42971	0.00068
298.15	0.9497	1.42663	0.00068
298.15	1	1.4236	0.00068

System: toluene + cyclohexane; phases: Liquid
Fixed: Pressure, kPa = 101
Property: Speed of sound, m/s (Liquid); method: Pulse-echo method
Temperature, K	Mole fraction of cyclohexane	Speed of sound, m/s	uncertainty
283.15	0	1371	2
283.15	0.0484	1365	2
283.15	0.099	1360	2
283.15	0.1997	1351	2
283.15	0.2973	1344	2
283.15	0.3975	1337	2
283.15	0.4999	1331	2
283.15	0.5881	1328	2
283.15	0.699	1325	2
283.15	0.7985	1324	2
283.15	0.8961	1325	2
283.15	0.9497	1327	2
283.15	1	1329	2
298.15	0	1305	2
298.15	0.0484	1300	2
298.15	0.099	1294	2
298.15	0.1997	1285	2
298.15	0.2973	1276	2
298.15	0.3975	1269	2
298.15	0.4999	1263	2
298.15	0.5881	1258	2
298.15	0.699	1254	2
298.15	0.7985	1252	2
298.15	0.8961	1252	2
298.15	0.9497	1253	2
298.15	1	1255	2

System: toluene + cyclohexane; phases: Liquid
Fixed: Pressure, kPa = 101
Property: Mass density, kg/m3 (Liquid); method: VIBTUB:UFactor:4
Temperature, K	Mole fraction of cyclohexane	Mass density, kg/m3	uncertainty
283.15	0	876.1	0.4
283.15	0.0484	871	0.4
283.15	0.099	865.8	0.4
283.15	0.1997	855.8	0.4
283.15	0.2973	846.1	0.4
283.15	0.3975	836.6	0.4
283.15	0.4999	827.3	0.4
283.15	0.5881	819.6	0.4
283.15	0.699	810.3	0.4
283.15	0.7985	802.4	0.5
283.15	0.8961	795.1	0.5
283.15	0.9497	791.3	0.5
298.15	0	862.2	0.4
298.15	0.0484	857.2	0.4
298.15	0.099	852	0.4
298.15	0.1997	842	0.4
298.15	0.2973	832.3	0.4
298.15	0.3975	822.8	0.4
298.15	0.4999	813.4	0.4
298.15	0.5881	805.7	0.4
298.15	0.699	796.4	0.5
298.15	0.7985	788.4	0.5
298.15	0.8961	781.1	0.5
298.15	0.9497	777.4	0.5
298.15	1	773.9	0.5

System: methylcyclohexane + toluene; phases: Liquid
Fixed: Pressure, kPa = 101
Property: Refractive index (Na D-line) (Liquid); method: Standard Abbe refractometry
Temperature, K	Mole fraction of methylcyclohexane	Refractive index (Na D-line)	uncertainty
283.15	0	1.50278	0.00066
283.15	0.05	1.49797	0.00066
283.15	0.0998	1.49331	0.00065
283.15	0.198	1.48436	0.00066
283.15	0.2951	1.47614	0.00065
283.15	0.3968	1.46797	0.00064
283.15	0.4959	1.46042	0.00065
283.15	0.5973	1.45319	0.00064
283.15	0.697	1.44643	0.00064
283.15	0.7954	1.44018	0.00064
283.15	0.8932	1.4342	0.00064
283.15	0.9487	1.43118	0.00063
283.15	1	1.42833	0.00063
298.15	0	1.49399	0.00066
298.15	0.05	1.48937	0.00065
298.15	0.0998	1.48481	0.00065
298.15	0.198	1.47597	0.00063
298.15	0.2951	1.4678	0.00063
298.15	0.3968	1.45982	0.00063
298.15	0.4959	1.45225	0.00063
298.15	0.5973	1.44519	0.00063
298.15	0.697	1.4385	0.00062
298.15	0.7954	1.43233	0.00063
298.15	0.8932	1.42635	0.00062
298.15	0.9487	1.42344	0.00063
298.15	1	1.42062	0.00063

System: methylcyclohexane + toluene; phases: Liquid
Fixed: Pressure, kPa = 101
Property: Speed of sound, m/s (Liquid); method: Pulse-echo method
Temperature, K	Mole fraction of methylcyclohexane	Speed of sound, m/s	uncertainty
283.15	0	1371	2
283.15	0.05	1363	2
283.15	0.0998	1356	2
283.15	0.198	1342	2
283.15	0.2951	1330	2
283.15	0.3968	1320	2
283.15	0.4959	1311	2
283.15	0.5973	1302	2
283.15	0.697	1296	2
283.15	0.7954	1290	2
283.15	0.8932	1285	2
283.15	0.9487	1283	2
283.15	1	1281	2
298.15	0	1305	2
298.15	0.05	1297	2
298.15	0.0998	1290	2
298.15	0.198	1276	2
298.15	0.2951	1264	2
298.15	0.3968	1253	2
298.15	0.4959	1244	2
298.15	0.5973	1236	2
298.15	0.697	1229	2
298.15	0.7954	1223	2
298.15	0.8932	1219	2
298.15	0.9487	1216	2
298.15	1	1215	2

System: methylcyclohexane + toluene; phases: Liquid
Fixed: Pressure, kPa = 101
Property: Mass density, kg/m3 (Liquid); method: VIBTUB:UFactor:2
Temperature, K	Mole fraction of methylcyclohexane	Mass density, kg/m3	uncertainty
283.15	0	876.1	0.3
283.15	0.05	869.8	0.3
283.15	0.0998	863.7	0.3
283.15	0.198	852	0.3
283.15	0.2951	841	0.3
283.15	0.3968	830.3	0.3
283.15	0.4959	820.3	0.3
283.15	0.5973	810.7	0.3
283.15	0.697	801.8	0.3
283.15	0.7954	793.5	0.4
283.15	0.8932	785.8	0.4
283.15	0.9487	781.6	0.4
283.15	1	777.9	0.4
298.15	0	862.2	0.3
298.15	0.05	855.9	0.3
298.15	0.0998	849.9	0.3
298.15	0.198	838.2	0.3
298.15	0.2951	827.4	0.3
298.15	0.3968	816.8	0.3
298.15	0.4959	806.9	0.3
298.15	0.5973	797.4	0.3
298.15	0.697	788.6	0.3
298.15	0.7954	780.4	0.4
298.15	0.8932	772.7	0.4
298.15	0.9487	768.6	0.4
298.15	1	765.1	0.4

System: ethylbenzene + cyclohexane; phases: Liquid
Fixed: Pressure, kPa = 101
Property: Refractive index (Na D-line) (Liquid); method: Standard Abbe refractometry
Temperature, K	Mole fraction of cyclohexane	Refractive index (Na D-line)	uncertainty
283.15	0	1.50129	0.00063
283.15	0.0476	1.49802	0.00062
283.15	0.0982	1.49455	0.00062
283.15	0.1983	1.48762	0.00063
283.15	0.2982	1.48066	0.00063
283.15	0.3973	1.47373	0.00063
283.15	0.5016	1.46641	0.00063
283.15	0.6008	1.45942	0.00064
283.15	0.6995	1.45257	0.00063
283.15	0.7998	1.44558	0.00064
283.15	0.8967	1.43898	0.00064
283.15	0.9451	1.43569	0.00064
283.15	1	1.43193	0.00064
298.15	0	1.49304	0.00063
298.15	0.0476	1.48992	0.00063
298.15	0.0982	1.48645	0.00063
298.15	0.1983	1.47947	0.00063
298.15	0.2982	1.47245	0.00063
298.15	0.3973	1.46552	0.00063
298.15	0.5016	1.45815	0.00063
298.15	0.6008	1.45116	0.00063
298.15	0.6995	1.44433	0.00063
298.15	0.7998	1.43731	0.00063
298.15	0.8967	1.43062	0.00064
298.15	0.9451	1.42735	0.00064
298.15	1	1.4236	0.00064

System: ethylbenzene + cyclohexane; phases: Liquid
Fixed: Pressure, kPa = 101
Property: Speed of sound, m/s (Liquid); method: Pulse-echo method
Temperature, K	Mole fraction of cyclohexane	Speed of sound, m/s	uncertainty
283.15	0	1382	2
283.15	0.0476	1377	2
283.15	0.0982	1372	2
283.15	0.1983	1364	2
283.15	0.2982	1356	2
283.15	0.3973	1349	2
283.15	0.5016	1342	2
283.15	0.6008	1337	2
283.15	0.6995	1332	2
283.15	0.7998	1329	2
283.15	0.8967	1328	2
283.15	0.9451	1328	2
283.15	1	1329	2
298.15	0	1319	2
298.15	0.0476	1314	2
298.15	0.0982	1309	2
298.15	0.1983	1300	2
298.15	0.2982	1291	2
298.15	0.3973	1283	2
298.15	0.5016	1275	2
298.15	0.6008	1268	2
298.15	0.6995	1263	2
298.15	0.7998	1258	2
298.15	0.8967	1255	2
298.15	0.9451	1254	2
298.15	1	1255	2

System: ethylbenzene + cyclohexane; phases: Liquid
Fixed: Pressure, kPa = 101
Property: Mass density, kg/m3 (Liquid); method: VIBTUB:UFactor:4
Temperature, K	Mole fraction of cyclohexane	Mass density, kg/m3	uncertainty
283.15	0	875.7	0.4
283.15	0.0476	871.4	0.4
283.15	0.0982	866.9	0.4
283.15	0.1983	857.9	0.4
283.15	0.2982	848.9	0.4
283.15	0.3973	840.1	0.4
283.15	0.5016	830.7	0.4
283.15	0.6008	821.8	0.4
283.15	0.6995	813.2	0.4
283.15	0.7998	804.4	0.4
283.15	0.8967	796.3	0.5
283.15	0.9451	792.3	0.5
283.15	1	787.8	0.5
298.15	0	862.5	0.4
298.15	0.0476	858.2	0.4
298.15	0.0982	853.7	0.4
298.15	0.1983	844.7	0.4
298.15	0.2982	835.6	0.4
298.15	0.3973	826.7	0.4
298.15	0.5016	817.2	0.4
298.15	0.6008	808.3	0.4
298.15	0.6995	799.5	0.5
298.15	0.7998	790.7	0.5
298.15	0.8967	782.4	0.5
298.15	0.9451	778.4	0.5
298.15	1	773.9	0.5

System: ethylbenzene + methylcyclohexane; phases: Liquid
Fixed: Pressure, kPa = 101
Property: Refractive index (Na D-line) (Liquid); method: Standard Abbe refractometry
Temperature, K	Mole fraction of methylcyclohexane	Refractive index (Na D-line)	uncertainty
283.15	0	1.50129	0.00063
283.15	0.0494	1.49728	0.00062
283.15	0.0975	1.49353	0.00062
283.15	0.1983	1.4855	0.00062
283.15	0.2981	1.47786	0.00063
283.15	0.4008	1.47018	0.00063
283.15	0.5005	1.46281	0.00063
283.15	0.6001	1.45566	0.00063
283.15	0.7006	1.44856	0.00063
283.15	0.7952	1.44194	0.00064
283.15	0.8949	1.43542	0.00063
283.15	0.9495	1.43163	0.00064
283.15	1	1.42833	0.00063
298.15	0	1.49304	0.00063
298.15	0.0494	1.48923	0.00062
298.15	0.0975	1.48542	0.00062
298.15	0.1983	1.47754	0.00062
298.15	0.2981	1.46988	0.00062
298.15	0.4008	1.46219	0.00062
298.15	0.5005	1.45484	0.00062
298.15	0.6001	1.44771	0.00063
298.15	0.7006	1.44068	0.00063
298.15	0.7952	1.43414	0.00062
298.15	0.8949	1.42751	0.00064
298.15	0.9495	1.4239	0.00063
298.15	1	1.42062	0.00063

System: ethylbenzene + methylcyclohexane; phases: Liquid
Fixed: Pressure, kPa = 101
Property: Speed of sound, m/s (Liquid); method: Pulse-echo method
Temperature, K	Mole fraction of methylcyclohexane	Speed of sound, m/s	uncertainty
283.15	0	1382	2
283.15	0.0494	1376	2
283.15	0.0975	1369	2
283.15	0.1983	1356	2
283.15	0.2981	1345	2
283.15	0.4008	1333	2
283.15	0.5005	1323	2
283.15	0.6001	1313	2
283.15	0.7006	1304	2
283.15	0.7952	1297	2
283.15	0.8949	1289	2
283.15	0.9495	1285	2
283.15	1	1281	2
298.15	0	1319	2
298.15	0.0494	1312	2
298.15	0.0975	1305	2
298.15	0.1983	1292	2
298.15	0.2981	1280	2
298.15	0.4008	1268	2
298.15	0.5005	1258	2
298.15	0.6001	1247	2
298.15	0.7006	1236	2
298.15	0.7952	1230	2
298.15	0.8949	1222	2
298.15	0.9495	1218	2
298.15	1	1215	2

System: ethylbenzene + methylcyclohexane; phases: Liquid
Fixed: Pressure, kPa = 101
Property: Mass density, kg/m3 (Liquid); method: VIBTUB:UFactor:4
Temperature, K	Mole fraction of methylcyclohexane	Mass density, kg/m3	uncertainty
283.15	0	875.7	0.4
283.15	0.0494	870.3	0.4
283.15	0.0975	865.2	0.4
283.15	0.1983	854.6	0.4
283.15	0.2981	844.4	0.4
283.15	0.4008	834.1	0.4
283.15	0.5005	824.2	0.5
283.15	0.6001	814.6	0.5
283.15	0.7006	805.2	0.5
283.15	0.7952	796.4	0.5
283.15	0.8949	787.3	0.6
283.15	0.9495	782.4	0.6
283.15	1	777.9	0.6
298.15	0	862.5	0.4
298.15	0.0494	857.2	0.4
298.15	0.0975	852.1	0.4
298.15	0.1983	841.5	0.4
298.15	0.2981	831.2	0.4
298.15	0.4008	820.9	0.5
298.15	0.5005	811	0.5
298.15	0.6001	801.4	0.5
298.15	0.7006	791.9	0.5
298.15	0.7952	783.1	0.6
298.15	0.8949	774.2	0.6
298.15	0.9495	769.3	0.6
298.15	1	765.1	0.6

System: benzene + cyclooctane; phases: Liquid
Fixed: Temperature, K = 298.15
Fixed: Pressure, kPa = 101
Property: Refractive index (Na D-line) (Liquid); method: Standard Abbe refractometry
Mole fraction of cyclooctane	Refractive index (Na D-line)	uncertainty
0	1.49774	0.00068
0.0522	1.49384	0.00068
0.102	1.49019	0.00068
0.203	1.48375	0.00068
0.3029	1.47827	0.00068
0.4033	1.47346	0.00068
0.5002	1.46955	0.00069
0.5985	1.46607	0.00069
0.7025	1.46284	0.00069
0.7983	1.4603	0.0007
0.8946	1.45808	0.0007
0.9504	1.45694	0.0007
1	1.45598	0.0007

System: benzene + cyclooctane; phases: Liquid
Fixed: Temperature, K = 298.15
Fixed: Pressure, kPa = 101
Property: Speed of sound, m/s (Liquid); method: Pulse-echo method
Mole fraction of cyclooctane	Speed of sound, m/s	uncertainty
0	1299	2
0.0522	1300	2
0.102	1301	2
0.203	1306	2
0.3029	1313	2
0.4033	1322	2
0.5002	1331	2
0.5985	1342	2
0.7025	1354	2
0.7983	1365	2
0.8946	1377	2
0.9504	1384	2
1	1391	2

System: benzene + cyclooctane; phases: Liquid
Fixed: Temperature, K = 298.15
Fixed: Pressure, kPa = 101
Property: Mass density, kg/m3 (Liquid); method: VIBTUB:UFactor:4
Mole fraction of cyclooctane	Mass density, kg/m3	uncertainty
0	873.6	0.4
0.0522	869.3	0.4
0.102	865.4	0.4
0.203	858.5	0.4
0.3029	852.8	0.4
0.4033	847.9	0.4
0.5002	843.9	0.4
0.5985	840.5	0.5
0.7025	837.5	0.5
0.7983	835.2	0.5
0.8946	833.3	0.5
0.9504	832.4	0.5
1	831.5	0.5

System: toluene + cyclooctane; phases: Liquid
Fixed: Temperature, K = 298.15
Fixed: Pressure, kPa = 101
Property: Refractive index (Na D-line) (Liquid); method: Standard Abbe refractometry
Mole fraction of cyclooctane	Refractive index (Na D-line)	uncertainty
0	1.49399	0.00068
0.0488	1.49121	0.00068
0.1031	1.48824	0.00068
0.2021	1.48313	0.00068
0.2973	1.47861	0.00068
0.4014	1.47411	0.00068
0.5	1.47026	0.00069
0.6005	1.46667	0.00069
0.6976	1.46358	0.00069
0.7981	1.46073	0.0007
0.9007	1.45814	0.0007
0.9494	1.45705	0.0007
1	1.45598	0.0007

System: toluene + cyclooctane; phases: Liquid
Fixed: Temperature, K = 298.15
Fixed: Pressure, kPa = 101
Property: Speed of sound, m/s (Liquid); method: Pulse-echo method
Mole fraction of cyclooctane	Speed of sound, m/s	uncertainty
0	1305	2
0.0488	1307	2
0.1031	1309	2
0.2021	1315	2
0.2973	1321	2
0.4014	1329	2
0.5	1337	2
0.6005	1347	2
0.6976	1356	2
0.7981	1367	2
0.9007	1378	2
0.9494	1384	2
1	1391	2

System: toluene + cyclooctane; phases: Liquid
Fixed: Temperature, K = 298.15
Fixed: Pressure, kPa = 101
Property: Mass density, kg/m3 (Liquid); method: VIBTUB:UFactor:4
Mole fraction of cyclooctane	Mass density, kg/m3	uncertainty
0	862.2	0.4
0.0488	859.8	0.4
0.1031	857	0.4
0.2021	852.5	0.4
0.2973	848.5	0.4
0.4014	844.7	0.4
0.5	841.5	0.4
0.6005	838.7	0.5
0.6976	836.4	0.5
0.7981	834.4	0.5
0.9007	832.8	0.5
0.9494	832.1	0.5
1	831.5	0.5

System: ethylbenzene + cyclooctane; phases: Liquid
Fixed: Temperature, K = 298.15
Fixed: Pressure, kPa = 101
Property: Refractive index (Na D-line) (Liquid); method: Standard Abbe refractometry
Mole fraction of cyclooctane	Refractive index (Na D-line)	uncertainty
0	1.49304	0.00068
0.0465	1.49082	0.00068
0.0962	1.48858	0.00068
0.1961	1.48405	0.00068
0.2944	1.47983	0.00068
0.3975	1.47562	0.00068
0.4959	1.47185	0.00069
0.5935	1.46828	0.00069
0.6929	1.46489	0.00069
0.7954	1.4616	0.0007
0.8899	1.45885	0.0007
0.9497	1.45726	0.0007
1	1.45598	0.0007

System: ethylbenzene + cyclooctane; phases: Liquid
Fixed: Temperature, K = 298.15
Fixed: Pressure, kPa = 101
Property: Speed of sound, m/s (Liquid); method: Pulse-echo method
Mole fraction of cyclooctane	Speed of sound, m/s	uncertainty
0	1319	2
0.0465	1321	2
0.0962	1322	2
0.1961	1327	2
0.2944	1332	2
0.3975	1339	2
0.4959	1346	2
0.5935	1353	2
0.6929	1361	2
0.7954	1370	2
0.8899	1379	2
0.9497	1385	2
1	1391	2

System: ethylbenzene + cyclooctane; phases: Liquid
Fixed: Temperature, K = 298.15
Fixed: Pressure, kPa = 101
Property: Mass density, kg/m3 (Liquid); method: VIBTUB:UFactor:4
Mole fraction of cyclooctane	Mass density, kg/m3	uncertainty
0	862.5	0.4
0.0465	860.4	0.4
0.0962	858.3	0.4
0.1961	854.1	0.4
0.2944	850.3	0.4
0.3975	846.6	0.4
0.4959	843.4	0.4
0.5935	840.4	0.5
0.6929	837.6	0.5
0.7954	835.2	0.5
0.8899	833.2	0.5
0.9497	832.1	0.5
1	831.5	0.5
