Measured thermophysical data. Solubility Comparison of Bis(2-hydroxyethyl) Ether and Tetraethylene Glycol before and after End-Group Modification by Ethyl Oxalyl Chloride in Supercritical Carbon Dioxide
Source: J. Chem. Eng. Data, 2010, 10.1021/je900802d
Compound 1: diethylene glycol, C4H10O3, InChI=1S/C4H10O3/c5-1-3-7-4-2-6/h5-6H,1-4H2
Compound 2: tetraethylene glycol, C8H18O5, InChI=1S/C8H18O5/c9-1-3-11-5-7-13-8-6-12-4-2-10/h9-10H,1-8H2
Compound 3: 2,2'-diethyl 1,1'-(oxydiethane-2,1-diyl) diethanedioate, C12H18O9, InChI=1S/C12H18O9/c1-3-18-9(13)11(15)20-7-5-17-6-8-21-12(16)10(14)19-4-2/h3-8H2,1-2H3, purity 99.99%
Compound 4: diethyl 2,16-dioxo-3,6,9,12,15-pentaoxaheptadecane-1,17-dioate, C16H26O11, InChI=1S/C16H26O11/c1-3-24-13(17)15(19)26-11-9-22-7-5-21-6-8-23-10-12-27-16(20)14(18)25-4-2/h3-12H2,1-2H3, purity 99.99%
Compound 5: carbon dioxide, CO2, InChI=1S/CO2/c2-1-3, purity 99.99%

System: diethylene glycol + carbon dioxide; phases: Gas, Liquid
Property: Mole fraction of diethylene glycol (Gas); method: Visual observation
Temperature, K	Pressure, kPa	Mole fraction of diethylene glycol	uncertainty
313	11800	0.00457	0.00049
313	13200	0.00617	0.00048
313	14900	0.00773	0.00046
313	16700	0.00917	0.00047
313	19000	0.01069	0.00051
323	13800	0.00488	0.00078
323	14700	0.00658	0.00071
323	15800	0.00816	0.00074
323	16600	0.00976	0.00077
323	17700	0.01125	0.00071
333	15700	0.00518	0.00082
333	16600	0.00696	0.00074
333	17700	0.0086	0.00071
333	18700	0.01021	0.00079
333	19600	0.0118	0.00085

System: tetraethylene glycol + carbon dioxide; phases: Gas, Liquid
Property: Mole fraction of tetraethylene glycol (Gas); method: Visual observation
Temperature, K	Pressure, kPa	Mole fraction of tetraethylene glycol	uncertainty
313	11100	0.00259	0.00037
313	12100	0.00346	0.00045
313	12700	0.00435	0.00062
313	13300	0.00523	0.00049
313	14200	0.00604	0.00044
323	13000	0.0028	0.00043
323	13900	0.00373	0.00049
323	14600	0.00465	0.00055
323	15300	0.00554	0.00049
323	16200	0.00638	0.00046
333	15000	0.00295	0.00052
333	15800	0.00395	0.00055
333	16500	0.00491	0.00062
333	17100	0.00587	0.00058
333	17900	0.00676	0.00053

System: carbon dioxide + 2,2'-diethyl 1,1'-(oxydiethane-2,1-diyl) diethanedioate; phases: Gas, Liquid
Property: Mole fraction of 2,2'-diethyl 1,1'-(oxydiethane-2,1-diyl) diethanedioate (Gas); method: Visual observation
Temperature, K	Pressure, kPa	Mole fraction of 2,2'-diethyl 1,1'-(oxydiethane-2,1-diyl) diethanedioate	uncertainty
313	9100	0.00244	0.00072
313	9400	0.00309	0.00073
313	9800	0.00369	0.00074
313	10100	0.00435	0.00075
313	10500	0.00496	0.00076
323	10800	0.0026	0.00074
323	11200	0.00336	0.00083
323	11600	0.00406	0.00062
323	11900	0.00478	0.00059
323	12600	0.00529	0.00037
333	12000	0.00289	0.00044
333	12700	0.00363	0.00047
333	13300	0.00433	0.00054
333	13800	0.00502	0.00059
333	14200	0.00574	0.00067

System: carbon dioxide + diethyl 2,16-dioxo-3,6,9,12,15-pentaoxaheptadecane-1,17-dioate; phases: Gas, Liquid
Property: Mole fraction of diethyl 2,16-dioxo-3,6,9,12,15-pentaoxaheptadecane-1,17-dioate (Gas); method: Visual observation
Temperature, K	Pressure, kPa	Mole fraction of diethyl 2,16-dioxo-3,6,9,12,15-pentaoxaheptadecane-1,17-dioate	uncertainty
313	9600	0.00169	0.00064
313	9900	0.00227	0.00047
313	10300	0.0028	0.00055
313	10800	0.00329	0.00025
313	11300	0.00378	0.00042
323	11800	0.00176	0.00047
323	12300	0.00234	0.00054
323	12700	0.00292	0.00035
323	13100	0.00347	0.00053
323	13600	0.00398	0.00044
333	13300	0.00193	0.00051
333	13800	0.00256	0.00058
333	14100	0.00321	0.00059
333	14600	0.00377	0.00042
333	15200	0.00429	0.00039
