Measured thermophysical data. Temperature Effect on the Distribution of Some Phenolic Compounds: An Experimental Measurement of 1-Octanol/Water Partition Coefficients
Source: J. Chem. Eng. Data, 2010, 10.1021/je900271h
Compound 1: 3,4-dihydroxybenzoic acid, C7H6O4, InChI=1S/C7H6O4/c8-5-2-1-4(7(10)11)3-6(5)9/h1-3,8-9H,(H,10,11), purity 97%
Compound 2: 4-hydroxy-3-methoxybenzoic acid, C8H8O4, InChI=1S/C8H8O4/c1-12-7-4-5(8(10)11)2-3-6(7)9/h2-4,9H,1H3,(H,10,11), purity 98.5%
Compound 3: vanillin, C8H8O3, InChI=1S/C8H8O3/c1-11-8-4-6(5-9)2-3-7(8)10/h2-5,10H,1H3, purity 98%
Compound 4: water, H2O, InChI=1S/H2O/h1H2
Compound 5: octan-1-ol, C8H18O, InChI=1S/C8H18O/c1-2-3-4-5-6-7-8-9/h9H,2-8H2,1H3, purity 99%

System: 3,4-dihydroxybenzoic acid + octan-1-ol + water; phases: Liquid mixture 1, Liquid
Fixed: Pressure, kPa = 101.3
Fixed: Amount concentration (molarity), mol/dm3 of 3,4-dihydroxybenzoic acid = 0
Property: Amount concentration (molarity), mol/dm3 of 3,4-dihydroxybenzoic acid (Liquid mixture 1); method: SPECTR
Temperature, K	Amount concentration (molarity), mol/dm3 of 3,4-dihydroxybenzoic acid	uncertainty
293.15	5.99	0.605
298.15	5.58	0.564
303.15	5.106	0.516
308.15	4.681	0.473
313.15	4.295	0.434
318.15	4.075	0.412

System: octan-1-ol + 4-hydroxy-3-methoxybenzoic acid + water; phases: Liquid mixture 1, Liquid
Fixed: Pressure, kPa = 101.3
Fixed: Amount concentration (molarity), mol/dm3 of 4-hydroxy-3-methoxybenzoic acid = 0
Property: Amount concentration (molarity), mol/dm3 of 4-hydroxy-3-methoxybenzoic acid (Liquid mixture 1); method: SPECTR
Temperature, K	Amount concentration (molarity), mol/dm3 of 4-hydroxy-3-methoxybenzoic acid	uncertainty
293.15	29.027	2.933
298.15	26.528	2.682
303.15	22.761	2.303
308.15	19.92	2.014
313.15	18.168	1.837
318.15	15.311	1.551

System: octan-1-ol + vanillin + water; phases: Liquid mixture 1, Liquid
Fixed: Pressure, kPa = 101.3
Fixed: Amount concentration (molarity), mol/dm3 of vanillin = 0
Property: Amount concentration (molarity), mol/dm3 of vanillin (Liquid mixture 1); method: SPECTR
Temperature, K	Amount concentration (molarity), mol/dm3 of vanillin	uncertainty
293.15	17.816	1.801
298.15	15.729	1.59
303.15	14.292	1.445
308.15	12.93	1.307
313.15	11.476	1.161
318.15	9.993	1.011
