Measured thermophysical data. Standard Enthalpies and Heat Capacities of Solution of Urea and Tetramethylurea in Water
Source: J. Chem. Eng. Data, 2010, 10.1021/je9010689
Compound 1: potassium chloride, ClK, InChI=1S/ClH.K/h1H;/q;+1/p-1
Compound 2: water, H2O, InChI=1S/H2O/h1H2
Compound 3: propan-1-ol, C3H8O, InChI=1S/C3H8O/c1-2-3-4/h4H,2-3H2,1H3
Compound 4: urea, CH4N2O, InChI=1S/CH4N2O/c2-1(3)4/h(H4,2,3,4)
Compound 5: tetramethylurea, C5H12N2O, InChI=1S/C5H12N2O/c1-6(2)5(8)7(3)4/h1-4H3

System: potassium chloride + water; phases: Liquid
Property: Molar enthalpy of solution, kJ/mol (Liquid); method: CALVET:UFactor:0.5
Temperature, K	Molality, mol/kg of potassium chloride	Pressure, kPa	Molar enthalpy of solution, kJ/mol	uncertainty
298.15	0.111	101	17.61	0.07

System: propan-1-ol + water; phases: Liquid
Property: Molar enthalpy of solution, kJ/mol (Liquid); method: OTHER:UFactor:0.5:sMethod:Ampoule calorimetery
Temperature, K	Pressure, kPa	Molality, mol/kg of propan-1-ol	Molar enthalpy of solution, kJ/mol	uncertainty
298.15	101.3	0	-10.18	0.07

System: urea + water; phases: Liquid
Fixed: Pressure, kPa = 101.3
Property: Molar enthalpy of solution, kJ/mol (Liquid); method: CALVET:UFactor:0.5
Temperature, K	Molality, mol/kg of urea	Molar enthalpy of solution, kJ/mol	uncertainty
278.15	0	15.69	0.1
278.15	0.01596	15.66	0.1
278.15	0.02936	15.67	0.1
278.15	0.02945	15.72	0.1
278.15	0.03019	15.75	0.1
278.15	0.03582	15.67	0.1
283.15	0	15.6	0.1
283.15	0.01483	15.62	0.1
283.15	0.01644	15.58	0.1
283.15	0.01834	15.55	0.1
283.15	0.02161	15.64	0.1
283.15	0.03689	15.59	0.1
288.15	0	15.48	0.18
288.15	0.0216	15.41	0.18
288.15	0.02583	15.48	0.18
288.15	0.02856	15.49	0.18
288.15	0.06849	15.55	0.18
298.15	0	15.33	0.1
298.15	0.02231	15.36	0.1
298.15	0.02533	15.33	0.1
298.15	0.02877	15.28	0.1
298.15	0.03089	15.34	0.1
298.15	0.03598	15.39	0.1
298.15	0.03872	15.29	0.1
298.15	0.04804	15.32	0.1
298.15	0.04944	15.29	0.1
298.15	0.05257	15.31	0.1
298.15	0.0527	15.34	0.1
308.15	0	15.31	0.13
308.15	0.02048	15.33	0.13
308.15	0.02197	15.26	0.13
308.15	0.04933	15.35	0.13
308.15	0.05279	15.28	0.13
318.15	0	15.43	0.18
318.15	0.02435	15.36	0.18
318.15	0.02842	15.44	0.18
318.15	0.05136	15.5	0.18
318.15	0.08118	15.4	0.18
328.15	0	15.56	0.16
328.15	0.01547	15.6	0.16
328.15	0.02356	15.59	0.16
328.15	0.05128	15.53	0.16
328.15	0.05295	15.5	0.16
338.15	0	15.66	0.13
338.15	0.0312	15.68	0.13
338.15	0.03484	15.62	0.13
338.15	0.03717	15.64	0.13
338.15	0.07253	15.7	0.13

System: tetramethylurea + water; phases: Liquid
Fixed: Pressure, kPa = 101.3
Property: Molar enthalpy of solution, kJ/mol (Liquid); method: CALVET:UFactor:0.5
Temperature, K	Molality, mol/kg of tetramethylurea	Molar enthalpy of solution, kJ/mol	uncertainty
278.15	0	-28.62	0.11
278.15	0.02303	-28.61	0.11
278.15	0.0373	-28.62	0.11
278.15	0.03927	-28.63	0.11
278.15	0.04241	-28.63	0.11
278.15	0.04511	-28.63	0.11
283.15	0	-27.53	0.13
283.15	0.02309	-27.5	0.13
283.15	0.03418	-27.57	0.13
283.15	0.03546	-27.51	0.13
283.15	0.03686	-27.52	0.13
283.15	0.03807	-27.56	0.13
288.15	0	-26.37	0.11
288.15	0.01812	-26.37	0.11
288.15	0.02115	-26.38	0.11
288.15	0.02712	-26.36	0.11
288.15	0.02945	-26.34	0.11
288.15	0.03713	-26.4	0.11
293.15	0	-25.31	0.13
293.15	0.02265	-25.27	0.13
293.15	0.0251	-25.31	0.13
293.15	0.02612	-25.34	0.13
293.15	0.02752	-25.34	0.13
293.15	0.03225	-25.3	0.13
298.15	0	-24.43	0.1
298.15	0.01917	-24.44	0.1
298.15	0.02785	-24.43	0.1
298.15	0.02933	-24.41	0.1
298.15	0.03789	-24.46	0.1
298.15	0.06223	-24.4	0.1
303.15	0	-23.45	0.1
303.15	0.02491	-23.43	0.1
303.15	0.02614	-23.43	0.1
303.15	0.03601	-23.47	0.1
303.15	0.04424	-23.45	0.1
303.15	0.05601	-23.45	0.1
308.15	0	-22.23	0.1
308.15	0.01019	-22.24	0.1
308.15	0.02043	-22.26	0.1
308.15	0.0227	-22.2	0.1
308.15	0.0504	-22.22	0.1
308.15	0.05496	-22.24	0.1
313.15	0	-21.17	0.12
313.15	0.02918	-21.19	0.12
313.15	0.03032	-21.16	0.12
313.15	0.03051	-21.15	0.12
313.15	0.05426	-21.14	0.12
313.15	0.05797	-21.21	0.12
318.15	0	-20.04	0.08
318.15	0.03031	-20.02	0.08
318.15	0.03086	-20.04	0.08
318.15	0.03211	-20.05	0.08
318.15	0.0349	-20.06	0.08
318.15	0.06247	-20.05	0.08
328.15	0	-18.14	0.07
328.15	0.03079	-18.13	0.07
328.15	0.03413	-18.13	0.07
328.15	0.03726	-18.14	0.07
328.15	0.03781	-18.16	0.07
328.15	0.06897	-18.15	0.07
338.15	0	-15.95	0.1
338.15	0.02166	-15.96	0.1
338.15	0.02838	-15.97	0.1
338.15	0.04375	-15.96	0.1
338.15	0.04753	-15.93	0.1
338.15	0.08974	-16	0.1
