Measured thermophysical data. Measurements of Binary Diffusion Coefficients for Ferrocene and 1,1'-Dimethylferrocene in Supercritical Carbon Dioxide
Source: J. Chem. Eng. Data, 2010, 10.1021/je901096d
Compound 1: ferrocene, C10H10Fe, InChI=1S/2C5H5.Fe/c2*1-2-4-5-3-1;/h2*1-5H;
Compound 2: 1,1'-dimethylferrocene, C12H14Fe, InChI=1S/2C6H7.Fe/c2*1-6-4-2-3-5-6;/h2*2-5H,1H3;/q2*-1;+2
Compound 3: carbon dioxide, CO2, InChI=1S/CO2/c2-1-3

System: ferrocene + carbon dioxide; phases: Fluid (supercritical or subcritical phases)
Fixed: Mole fraction of ferrocene = 0
Property: Binary diffusion coefficient, m2/s (Fluid (supercritical or subcritical phases)); method: Chromatographic Impulse Response (CIR)
Temperature, K	Pressure, kPa	Binary diffusion coefficient, m2/s	uncertainty
308.15	8020	1.834e-08	0.39
308.15	8230	1.579e-08	0.33
308.15	8520	1.492e-08	0.3
308.15	8720	1.429e-08	0.29
308.15	11020	1.187e-08	0.24
308.15	15020	1.001e-08	0.2
308.15	17020	9.437e-09	0.189
308.15	20020	9.118e-09	0.182
308.15	22020	8.898e-09	0.178
308.15	25020	8.431e-09	0.169
308.15	30020	7.702e-09	0.154
308.15	35020	7.294e-09	0.146
308.15	40180	6.833e-09	0.137
308.15	8520	1.505e-08	0.3
308.15	30020	7.795e-09	0.156
313.15	8020	2.908e-08	0.6
313.15	8520	2.349e-08	0.48
313.15	8720	2.061e-08	0.42
313.15	9020	1.814e-08	0.37
313.15	9220	1.719e-08	0.35
313.15	9510	1.624e-08	0.33
313.15	9520	1.586e-08	0.32
313.15	10020	1.461e-08	0.29
313.15	11020	1.384e-08	0.28
313.15	12020	1.259e-08	0.25
313.15	15020	1.105e-08	0.22
313.15	20020	1.006e-08	0.2
313.15	25030	9.257e-09	0.185
313.15	30030	8.551e-09	0.171
313.15	35080	8.237e-09	0.165
313.15	40060	7.456e-09	0.149
313.15	9220	1.742e-08	0.35
313.15	9520	1.606e-08	0.32
313.15	11020	1.374e-08	0.28
313.15	35080	8.024e-09	0.16
313.15	9220	1.73e-08	0.35
313.15	9520	1.589e-08	0.32
313.15	11020	1.379e-08	0.28
313.15	9220	1.676e-08	0.34
313.15	9520	1.577e-08	0.32
313.15	11020	1.365e-08	0.27
313.15	11020	1.376e-08	0.28
323.15	10020	2.313e-08	0.46
323.15	11020	1.923e-08	0.39
323.15	12020	1.66e-08	0.33
323.15	13020	1.537e-08	0.31
323.15	15020	1.369e-08	0.27
323.15	16020	1.27e-08	0.25
323.15	20020	1.157e-08	0.23
323.15	25020	1.021e-08	0.2
323.15	30030	9.484e-09	0.19
323.15	35020	8.798e-09	0.176
323.15	40340	8.25e-09	0.165
323.15	10020	2.35e-08	0.47
323.15	11020	1.882e-08	0.38
323.15	13020	1.545e-08	0.31
323.15	13020	1.582e-08	0.32
323.15	13020	1.569e-08	0.31

System: ferrocene + carbon dioxide; phases: Fluid (supercritical or subcritical phases)
Fixed: Mole fraction of ferrocene = 0
Property: Binary diffusion coefficient, m2/s (Fluid (supercritical or subcritical phases)); method: TAYLOR:UFactor:0.5
Temperature, K	Pressure, kPa	Binary diffusion coefficient, m2/s	uncertainty
308.15	10020	1.211e-08	0.26
308.15	10520	1.161e-08	0.25
308.15	11020	1.145e-08	0.24
308.15	12020	1.094e-08	0.23
308.15	13020	1.047e-08	0.22
308.15	16020	9.844e-09	0.21
308.15	18020	9.373e-09	0.2
308.15	20020	8.955e-09	0.191
308.15	25020	8.322e-09	0.178
308.15	30020	7.783e-09	0.166
308.15	35020	7.318e-09	0.156
308.15	40020	7.084e-09	0.151
313.15	10020	1.463e-08	0.31
313.15	10520	1.363e-08	0.29
313.15	11020	1.306e-08	0.28
313.15	12020	1.242e-08	0.26
313.15	13020	1.176e-08	0.25
313.15	15020	1.108e-08	0.24
313.15	16020	1.08e-08	0.2
313.15	17020	1.041e-08	0.22
313.15	18020	1.02e-08	0.2
313.15	19020	1.013e-08	0.22
313.15	20030	9.801e-09	0.209
313.15	22020	9.356e-09	0.2
313.15	25030	8.926e-09	0.191
313.15	28020	8.637e-09	0.184
313.15	30030	8.375e-09	0.179
313.15	34020	7.951e-09	0.17
313.15	35020	7.909e-09	0.169
313.15	40020	7.437e-09	0.159
313.15	40030	7.408e-09	0.158
313.15	10020	1.446e-08	0.31
313.15	11020	1.328e-08	0.28
313.15	22020	9.532e-09	0.203
313.15	11020	1.33e-08	0.3
323.15	20020	1.125e-08	0.24
323.15	25020	1.035e-08	0.22
323.15	30020	9.572e-09	0.204
323.15	35020	8.821e-09	0.188
323.15	40030	8.465e-09	0.181

System: carbon dioxide + 1,1'-dimethylferrocene; phases: Fluid (supercritical or subcritical phases)
Fixed: Mole fraction of 1,1'-dimethylferrocene = 0
Property: Binary diffusion coefficient, m2/s (Fluid (supercritical or subcritical phases)); method: TAYLOR:UFactor:0.5
Temperature, K	Pressure, kPa	Binary diffusion coefficient, m2/s	uncertainty
308.15	8220	1.457e-08	0.31
308.15	8510	1.379e-08	0.3
308.15	8720	1.318e-08	0.28
308.15	9020	1.245e-08	0.27
308.15	9030	1.244e-08	0.27
308.15	9520	1.181e-08	0.25
308.15	10010	1.116e-08	0.24
308.15	10020	1.144e-08	0.24
308.15	10520	1.099e-08	0.24
308.15	11020	1.051e-08	0.22
308.15	12020	1.016e-08	0.22
308.15	13020	1.007e-08	0.21
308.15	15020	9.271e-09	0.198
308.15	20020	8.43e-09	0.18
308.15	25020	7.712e-09	0.165
308.15	40120	6.629e-09	0.142
308.15	8220	1.457e-08	0.31
308.15	10520	1.105e-08	0.24
308.15	25020	7.769e-09	0.166
308.15	40120	6.613e-09	0.142
308.15	8220	1.462e-08	0.31
308.15	8220	1.465e-08	0.31
313.15	9710	1.436e-08	0.31
313.15	9720	1.438e-08	0.31
313.15	9820	1.401e-08	0.3
313.15	10010	1.314e-08	0.28
313.15	10020	1.325e-08	0.28
313.15	11020	1.211e-08	0.26
313.15	12020	1.095e-08	0.23
313.15	13020	1.052e-08	0.22
313.15	14020	1.075e-08	0.23
313.15	15020	1.028e-08	0.22
313.15	17020	9.958e-09	0.212
313.15	20020	9.021e-09	0.193
313.15	25020	8.176e-09	0.175
313.15	30020	7.653e-09	0.164
313.15	35020	7.261e-09	0.155
313.15	40020	7.002e-09	0.15
313.15	9720	1.393e-08	0.3
313.15	9820	1.407e-08	0.3
313.15	11020	1.211e-08	0.26
313.15	12020	1.145e-08	0.24
313.15	13020	1.107e-08	0.24
313.15	15020	1.024e-08	0.22
313.15	9820	1.388e-08	0.3
313.15	11020	1.198e-08	0.26
313.15	11020	1.216e-08	0.26
323.15	10020	2.127e-08	0.45
323.15	10520	1.954e-08	0.42
323.15	10720	1.845e-08	0.4
323.15	11020	1.704e-08	0.36
323.15	11030	1.724e-08	0.37
323.15	11520	1.645e-08	0.35
323.15	12020	1.551e-08	0.33
323.15	12500	1.457e-08	0.31
323.15	13020	1.385e-08	0.3
323.15	14020	1.305e-08	0.28
323.15	15020	1.249e-08	0.27
323.15	16020	1.176e-08	0.25
323.15	20020	1.065e-08	0.23
323.15	25020	9.498e-09	0.203
323.15	30020	8.64e-09	0.18
323.15	35020	8.055e-09	0.172
323.15	40020	7.854e-09	0.168
323.15	12500	1.438e-08	0.31
323.15	12500	1.434e-08	0.31
323.15	12500	1.391e-08	0.3
323.15	12500	1.41e-08	0.3
