Measured thermophysical data. Thermodynamic Properties of Propane. I. p-?-T Behavior from (265 to 500) K with Pressures to 36 MPa
Source: J. Chem. Eng. Data, 2009, 10.1021/je900124n
Compound 1: propane, C3H8, InChI=1S/C3H8/c1-3-2/h3H2,1-2H3

System: propane; phases: Liquid, Gas
Property: Vapor or sublimation pressure, kPa (Liquid); method: Derived from PVT data
Temperature, K	Vapor or sublimation pressure, kPa	uncertainty
269.997	430.71	0.16
269.998	430.73	0.16
269.998	430.74	0.16
269.999	430.74	0.16
269.999	430.74	0.16
269.999	430.73	0.16
270	430.75	0.16
279.997	581.9	0.15
279.997	581.9	0.15
279.998	581.91	0.15
279.999	581.91	0.15
280	581.94	0.15
280.001	581.94	0.15
289.998	769.26	0.16
289.998	769.26	0.16
289.999	769.28	0.16
290	769.3	0.16
290.001	769.32	0.16
299.999	997.42	0.16
299.999	997.43	0.16
300	997.45	0.16
300	997.45	0.16
300.001	997.48	0.16
309.997	1271.79	0.24
309.998	1272.28	0.24
309.998	1272.27	0.24
309.998	1271.8	0.24
309.999	1271.96	0.24
309.999	1271.99	0.24
309.999	1272.32	0.24
309.999	1271.82	0.24
310	1271.97	0.24
310	1271.99	0.24
310	1272.35	0.24
310	1271.87	0.24
310	1271.86	0.24
312.001	1333.33	0.26
312.001	1333.31	0.26
312.002	1333.37	0.26
312.003	1333.4	0.3
314	1396.09	0.27
314.001	1396.13	0.27
314.001	1396.12	0.27
314.002	1396.17	0.27
314.998	1428.23	0.27
314.998	1428.25	0.27
314.999	1428.28	0.27
315	1428.32	0.27
315	1428.29	0.27
315.999	1461.86	0.27
316	1461.72	0.27
316	1461.6	0.3
316.001	1461.47	0.27
319.997	1598.85	0.27
319.997	1598.43	0.27
319.998	1598.74	0.27
319.998	1598.7	0.27
319.998	1598.3	0.27
319.999	1598.7	0.3
319.999	1598.76	0.27
320	1598.43	0.27
320	1598.77	0.27
320	1598.76	0.27
320	1598.31	0.27
320.001	1598.45	0.27
320.002	1598.46	0.27
324.997	1782.57	0.27
324.998	1782.71	0.27
324.998	1782.59	0.27
324.999	1782.74	0.27
324.999	1782.65	0.27
325	1782.79	0.27
325	1782.69	0.27
325.001	1782.82	0.27
329.997	1982.09	0.27
329.998	1982.26	0.27
329.998	1982.12	0.27
329.999	1982.16	0.27
330	1982.33	0.27
330	1982.31	0.27
330	1982.19	0.27
330.001	1982.37	0.27
330.001	1982.35	0.27
334.996	2197.66	0.28
334.997	2197.75	0.28
334.997	2197.75	0.28
334.998	2197.9	0.3
334.999	2197.99	0.28
335	2197.83	0.28
335.001	2198.02	0.28
335.002	2198.07	0.28
335.002	2198.06	0.28
339.997	2430.87	0.28
339.997	2430.87	0.28
339.998	2430.38	0.28
339.998	2430.37	0.28
339.998	2430.39	0.28
339.998	2430.4	0.28
339.999	2430.43	0.28
340	2430.65	0.28
340	2430.7	0.3
340	2431.05	0.28
340.001	2430.74	0.28
340.001	2430.71	0.28
340.001	2431.05	0.28
340.002	2430.74	0.28
344.997	2681.46	0.28
344.998	2681.5	0.28
344.998	2681.5	0.28
345	2681.74	0.28
345	2681.72	0.28
345	2681.73	0.28
345	2681.56	0.28
345.001	2681.78	0.28
349.998	2951.27	0.28
349.999	2951.31	0.28
349.999	2951.32	0.28
350	2951.53	0.28
350	2951.38	0.28
350	2951.39	0.28
350.001	2951.57	0.28
350.001	2951.57	0.28
350.002	2951.64	0.28
354.998	3241.62	0.29
354.999	3241.63	0.29
354.999	3241.61	0.29
354.999	3241.66	0.29
355	3241.77	0.29
355	3241.78	0.29
355	3241.72	0.29
355.001	3241.82	0.29
355.002	3241.89	0.29
355.002	3241.89	0.29
359.998	3554.97	0.29
359.998	3554.97	0.29
359.999	3554.44	0.29
359.999	3554.41	0.29
359.999	3554.45	0.29
359.999	3554.47	0.29
359.999	3555.09	0.29
359.999	3555.1	0.29
359.999	3554.39	0.29
359.999	3554.44	0.29
360	3555.07	0.29
360	3554.5	0.29
360	3554.45	0.29
360.001	3554.51	0.29
361.998	3686.35	0.29
361.999	3686.37	0.29
361.999	3686.37	0.29
362.001	3686.5	0.3
363.999	3822.44	0.29
363.999	3822.43	0.29
363.999	3822.46	0.29
364	3822.47	0.29
364.998	3892	0.3
364.998	3891.97	0.3
364.998	3892.02	0.3
364.999	3892.07	0.3
364.999	3892.08	0.3
365.998	3962.93	0.3
365.999	3962.97	0.3
365.999	3962.97	0.3
366	3963.03	0.3
367.999	4108.37	0.29
368	4108.41	0.29
368.001	4108.52	0.3
368.002	4108.59	0.3
369	4182.82	0.3
369	4182.88	0.3
369	4182.95	0.3
369.001	4183.04	0.3

System: propane; phases: Fluid (supercritical or subcritical phases)
Property: Mass density, kg/m3 (Fluid (supercritical or subcritical phases)); method: Buoyancy - hydrostatic balance with magnetic suspension - two sinkers
Temperature, K	Pressure, kPa	Mass density, kg/m3	uncertainty
264.999	3771.84	545.1942	0.0657
264.999	16245.01	562.5371	0.0677
265	3766.32	545.1816	0.0657
265	8330.5	552.1205	0.0665
265	16242.24	562.5326	0.0677
265	16243.21	562.535	0.0677
265	16245.64	562.5371	0.0677
265	20184.42	567.1547	0.0683
265	30007.2	577.4567	0.0695
265	34915.29	582.091	0.07
265.001	2141.19	542.5039	0.0654
265.001	2141.37	542.5026	0.0654
265.001	2144.35	542.5097	0.0654
265.001	3759.42	545.171	0.0657
265.001	3760.53	545.1702	0.0657
265.001	12136.39	557.3435	0.0671
265.001	20184.34	567.1529	0.0683
265.001	20189.76	567.1594	0.0683
265.001	20190.77	567.1605	0.0683
265.001	24029.07	571.3683	0.0688
265.001	24030.17	571.3711	0.0688
265.002	2143.96	542.507	0.0654
265.002	2144	542.5084	0.0654
265.002	2144.83	542.509	0.0654
265.002	2144.99	542.5086	0.0654
265.002	3760.02	545.1698	0.0657
265.002	4142.55	545.7886	0.0658
265.002	4145.02	545.7943	0.0658
265.002	4150.77	545.8022	0.0658
265.002	8329.84	552.1173	0.0665
265.002	8330.71	552.1166	0.0665
265.002	8331.91	552.1209	0.0665
265.002	8332.29	552.1208	0.0665
265.002	12135.21	557.3416	0.0671
265.002	12136.95	557.3431	0.0671
265.002	20189.23	567.1571	0.0683
265.002	24030.65	571.3727	0.0688
265.002	24030.7	571.3693	0.0688
265.002	30006.69	577.4532	0.0695
265.002	30007.08	577.4548	0.0695
265.002	30009.73	577.4583	0.0695
265.002	30010.25	577.4586	0.0695
265.002	34915.56	582.091	0.07
265.002	34915.71	582.0923	0.07
265.002	34915.99	582.0905	0.07
265.003	4149.12	545.7972	0.0658
265.003	34916.2	582.0903	0.07
280.001	2010.99	522.3142	0.0631
280.001	2012.99	522.3216	0.0631
280.001	2019.97	522.3355	0.0631
280.001	12164.85	540.5677	0.0652
280.001	29900.1	563.3957	0.0678
280.002	2010.78	522.3132	0.0631
280.002	2012.25	522.3187	0.0631
280.002	2021.18	522.3378	0.0631
280.002	4078.21	526.5418	0.0636
280.002	8037.8	533.8342	0.0644
280.002	12165.59	540.5679	0.0652
280.002	16052.07	546.3005	0.0659
280.002	16052.21	546.3019	0.0659
280.002	16052.74	546.2987	0.0659
280.002	20169.29	551.856	0.0665
280.002	24174.27	556.843	0.0671
280.002	24175.39	556.8446	0.0671
280.002	24177.9	556.8476	0.0671
280.002	29900.29	563.3955	0.0678
280.002	29902.24	563.3967	0.0678
280.002	35491.02	569.2542	0.0685
280.002	35491.97	569.2554	0.0685
280.003	2016.28	522.3244	0.0631
280.003	2020.76	522.3366	0.0631
280.003	2021.27	522.3354	0.0631
280.003	2021.36	522.3372	0.0631
280.003	4077.75	526.5382	0.0636
280.003	8038.9	533.8354	0.0644
280.003	8039.63	533.8334	0.0644
280.003	8040.04	533.8357	0.0644
280.003	8040.38	533.8355	0.0644
280.003	12164.02	540.567	0.0652
280.003	12166.74	540.57	0.0652
280.003	16052.69	546.3011	0.0659
280.003	16053.98	546.3005	0.0659
280.003	20169.62	551.8566	0.0665
280.003	20171.3	551.8572	0.0665
280.003	20172.97	551.8603	0.0665
280.003	29902.07	563.3977	0.0678
280.003	35493.61	569.2553	0.0685
280.003	35495.63	569.2591	0.0685
280.004	4078.26	526.539	0.0636
280.004	4078.45	526.5391	0.0636
300	4036.46	498.4942	0.0604
300.001	2096.85	492.9175	0.0598
300.001	8038.12	508.3939	0.0615
300.001	20368.77	531.2155	0.0641
300.002	2095.93	492.9162	0.0598
300.002	2096.56	492.9196	0.0598
300.002	2096.72	492.9183	0.0598
300.002	4037.23	498.4962	0.0604
300.002	4037.32	498.4925	0.0604
300.002	4037.36	498.4942	0.0604
300.002	8037.72	508.3912	0.0615
300.002	8037.97	508.3927	0.0615
300.002	12024.33	516.7576	0.0625
300.002	12024.51	516.758	0.0625
300.002	12025.03	516.7592	0.0625
300.002	16033.15	524.1224	0.0633
300.002	23907.57	536.4736	0.0647
300.002	23907.6	536.4748	0.0647
300.002	23908.85	536.4763	0.0647
300.002	29891.33	544.5282	0.0657
300.002	35152.61	550.9181	0.0664
300.003	2096.96	492.9171	0.0598
300.003	8038.36	508.3911	0.0615
300.003	8038.71	508.3926	0.0615
300.003	16032.99	524.1226	0.0633
300.003	16034.79	524.1246	0.0633
300.003	16036.9	524.1281	0.0633
300.003	20366.13	531.21	0.0641
300.003	20369.57	531.2137	0.0641
300.003	23909.38	536.4755	0.0647
300.003	23911.26	536.4788	0.0647
300.003	29891.63	544.5292	0.0657
300.003	29891.82	544.5275	0.0657
300.003	35152.5	550.9164	0.0664
300.003	35152.82	550.9159	0.0664
300.003	35154.17	550.917	0.0664
300.004	29892.46	544.5283	0.0657
300.004	35154.17	550.9166	0.0664
310.002	760.19	14.7402	0.0041
310.002	760.25	14.7415	0.0041
310.003	261.67	4.6501	0.0029
310.003	261.68	4.6501	0.0029
310.003	460.64	8.455	0.0034
310.003	261.68	4.6502	0.0029
310.003	460.64	8.4548	0.0034
310.004	261.68	4.6501	0.0029
310.004	261.69	4.6502	0.0029
310.004	460.64	8.4549	0.0034
310.004	760.2	14.7403	0.0041
310.004	760.28	14.7419	0.0041
310.004	460.64	8.4549	0.0034
310.004	760.28	14.7421	0.0041
310.005	460.64	8.4549	0.0034
315	1306.4	27.9201	0.0071
315	1306.41	27.9221	0.0071
315.001	1306.64	27.927	0.0071
315.002	1306.48	27.9244	0.0072
315.002	1306.6	27.926	0.0071
315.003	774.95	14.7169	0.0042
315.003	774.95	14.7168	0.0042
315.004	774.96	14.7169	0.0042
315.004	774.96	14.7168	0.0042
315.005	774.96	14.7169	0.0042
319.998	10347.23	487.1088	0.0591
319.998	10347.39	487.1094	0.0591
319.998	10348.08	487.1126	0.0591
319.998	10348.19	487.1132	0.0591
319.999	10346.83	487.1057	0.0591
319.999	10347.39	487.107	0.0591
319.999	10347.61	487.1071	0.0591
319.999	35298.83	532.9435	0.0643
320	1334.26	27.7883	0.5271
320	1335.02	27.8035	0.527
320	10348.65	487.1119	0.0591
320	29986.14	525.4973	0.0635
320	35300.04	532.9452	0.0643
320.001	1333.89	27.7763	0.5271
320.001	2017.37	457.0997	0.151
320.001	2019.36	457.108	0.1512
320.001	4080.87	466.4197	0.0568
320.001	4081.35	466.4197	0.0568
320.001	12003.32	491.4402	0.0596
320.001	12003.38	491.4403	0.0596
320.001	20062.89	508.9708	0.0616
320.001	24071.57	516.1463	0.0624
320.001	24072.47	516.1478	0.0624
320.001	29981.16	525.4893	0.0635
320.001	29982.51	525.4936	0.0635
320.001	29985.48	525.4954	0.0635
320.001	35299.78	532.9428	0.0643
320.001	35301.46	532.9454	0.0643
320.002	476.69	8.4338	0.0034
320.002	789.43	14.6907	0.0041
320.002	1334.62	27.742	0.527
320.002	2018.49	457.1042	0.1511
320.002	2018.74	457.1051	0.1511
320.002	2019.28	457.1101	0.1511
320.002	2019.54	457.1101	0.1512
320.002	2019.83	457.1091	0.1512
320.002	4080.76	466.4183	0.0568
320.002	4081.04	466.4189	0.0568
320.002	8257.79	481.0654	0.0584
320.002	8258.35	481.0668	0.0584
320.002	8258.42	481.0683	0.0584
320.002	16094.5	500.9651	0.0607
320.002	16094.61	500.9667	0.0607
320.002	16094.82	500.9666	0.0607
320.002	20062.71	508.9673	0.0616
320.002	20062.75	508.9692	0.0616
320.002	24069.29	516.1427	0.0624
320.002	24072.08	516.1462	0.0624
320.002	24072.31	516.1466	0.0624
320.003	270.24	4.64	0.0029
320.003	476.69	8.4339	0.0034
320.003	789.41	14.6898	0.0041
320.003	789.43	14.6901	0.0041
320.003	1333.73	27.726	0.5271
320.003	2018.79	457.1039	0.1511
320.003	2019.1	457.105	0.1511
320.003	2019.75	457.1071	0.1512
320.003	2019.77	457.1079	0.1512
320.003	2019.79	457.108	0.1512
320.003	2019.9	457.1088	0.1512
320.003	4081.57	466.4195	0.0568
320.003	8258.09	481.0683	0.0584
320.003	12003.9	491.4398	0.0596
320.003	12004.07	491.4408	0.0596
320.003	16094.74	500.967	0.0607
320.003	20063.51	508.9691	0.0616
320.003	20064.5	508.9709	0.0616
320.003	270.24	4.6399	0.0029
320.003	476.69	8.4338	0.0034
320.004	270.24	4.6399	0.0029
320.004	476.69	8.4339	0.0034
320.004	789.42	14.69	0.0041
320.004	16095.6	500.9675	0.0607
320.004	270.24	4.6399	0.0029
320.004	476.69	8.4338	0.0034
320.005	270.24	4.6398	0.0029
320.005	789.42	14.69	0.0041
325	1341.8	27.0948	0.0324
325.001	1341.17	27.0724	0.0324
325.002	1340.56	27.0793	0.0324
325.003	1340.89	27.1015	0.0324
325.004	803.73	14.6629	0.0041
325.004	803.74	14.6631	0.0041
325.004	803.73	14.6627	0.0041
325.005	803.73	14.6626	0.0041
325.005	803.74	14.6629	0.0041
329.999	1347.29	26.4407	0.0339
330	1346.8	26.4281	0.0339
330	1347.28	26.4409	0.0339
330.001	817.86	14.6347	0.0041
330.002	492.57	8.4128	0.0033
330.002	492.58	8.4128	0.0033
330.002	817.86	14.6346	0.0041
330.002	1346.99	26.4322	0.0339
330.002	1347.23	26.4396	0.0339
330.002	1714.5	36.572	0.0386
330.002	1714.51	36.5722	0.0386
330.002	1714.52	36.5728	0.0386
330.002	1714.53	36.5732	0.0386
330.003	278.72	4.6293	0.0029
330.003	492.57	8.4127	0.0033
330.003	817.87	14.6348	0.0041
330.003	1714.55	36.5737	0.0386
330.003	278.72	4.6293	0.0029
330.004	278.72	4.6294	0.0029
330.004	492.58	8.4127	0.0033
330.004	817.85	14.6343	0.0041
330.004	817.86	14.6343	0.0041
330.004	278.72	4.6292	0.0029
330.005	278.72	4.6291	0.0029
330.005	492.58	8.4128	0.0033
335	1765.24	36.7322	0.2541
335	1765.25	36.7333	0.2541
335.001	1765.2	36.7309	0.2541
335.001	1765.26	36.7327	0.2541
335.002	1765.27	36.733	0.2541
339.996	19784.49	485.6493	0.0588
339.997	19780.7	485.6358	0.0588
339.997	19782.7	485.6425	0.0588
339.997	19783.01	485.6438	0.0588
339.997	19784.59	485.6494	0.0588
339.998	19783.93	485.6457	0.0588
339.998	19784.39	485.6469	0.0588
339.998	34961.11	514.1062	0.0622
339.998	19783.93	485.6445	0.0588
340	1352.21	25.1571	0.0321
340	1352.45	25.161	0.0321
340	1352.66	25.168	0.0321
340	1816.9	36.9173	0.0425
340	1817.07	36.9239	0.0425
340	1817.11	36.9243	0.0425
340	2355.36	55.4825	0.2693
340	2355.5	55.5083	0.2693
340	16069.07	476.2457	0.0578
340	16069.4	476.2474	0.0578
340	29812.02	505.7078	0.0612
340	34960.15	514.1041	0.0622
340.001	287.12	4.6188	0.0029
340.001	1352.37	25.1613	0.0321
340.001	2355.36	55.4906	0.2693
340.001	2355.76	55.4793	0.2693
340.001	3925.41	425.0712	0.0721
340.001	3925.49	425.0724	0.0721
340.001	3925.56	425.0729	0.0721
340.001	8053.54	448.6497	0.0549
340.001	8053.62	448.6508	0.0549
340.001	12040.08	464.0718	0.0565
340.001	12040.19	464.0722	0.0565
340.001	16069.03	476.2483	0.0578
340.001	19942.97	485.9993	0.0588
340.001	19946.32	486.0075	0.0588
340.001	19946.44	486.0085	0.0588
340.001	23980.62	494.7811	0.0599
340.001	23980.63	494.7806	0.0599
340.001	23980.83	494.7801	0.0599
340.001	29815.18	505.7135	0.0612
340.001	29815.72	505.7146	0.0612
340.001	34960.09	514.1039	0.0622
340.001	34961.4	514.1056	0.0622
340.002	508.32	8.3921	0.0033
340.002	846.05	14.5839	0.0041
340.002	846.06	14.584	0.0041
340.002	1352.44	25.1637	0.0321
340.002	1817.11	36.9239	0.0425
340.002	1817.13	36.9243	0.0425
340.002	2355.24	55.4656	0.2693
340.002	3925.37	425.0692	0.0721
340.002	3925.56	425.0708	0.0721
340.002	3925.57	425.0715	0.0721
340.002	3925.59	425.0712	0.0721
340.002	3925.67	425.0716	0.0721
340.002	8053.43	448.6485	0.0549
340.002	12040.48	464.0714	0.0565
340.002	12040.55	464.071	0.0565
340.002	16069.57	476.2479	0.0578
340.002	19945.5	486.0056	0.0588
340.002	23981	494.7797	0.0599
340.002	29815.69	505.7124	0.0612
340.002	34961.64	514.1052	0.0622
340.002	846.06	14.5839	0.0041
340.003	287.12	4.6185	0.0029
340.003	287.13	4.6186	0.0029
340.003	508.31	8.392	0.0033
340.003	3925.69	425.0721	0.0721
340.003	3925.72	425.0711	0.0721
340.003	3925.76	425.0707	0.0721
340.003	3925.81	425.0721	0.0721
340.003	8053.82	448.6491	0.0549
340.003	19946.71	486.0074	0.0588
340.003	23981.71	494.7812	0.0599
340.003	29816.79	505.7134	0.0612
340.003	508.31	8.3919	0.0033
340.004	287.13	4.6186	0.0029
340.004	508.31	8.392	0.0033
340.004	508.33	8.3921	0.0033
340.004	846.06	14.5839	0.0041
340.004	846.07	14.5839	0.0041
340.004	8054.14	448.6492	0.0549
340.004	287.13	4.6186	0.0029
344.997	2494.99	58.0845	0.0359
345	2494.9	58.0748	0.0358
345	2494.95	58.0791	0.0359
345.002	2494.94	58.0771	0.0358
345.002	2494.98	58.0787	0.0359
349.995	1942.14	37.8566	0.0445
349.995	12070.23	449.4318	0.0549
349.995	12070.94	449.4336	0.0549
349.995	24455.4	484.9922	0.0588
349.996	12069.65	449.4272	0.0549
349.996	12070.19	449.4291	0.0549
349.996	12070.21	449.4283	0.0549
349.997	12070.03	449.4263	0.0549
349.997	12070.38	449.4277	0.0549
349.997	12070.82	449.4287	0.0549
349.997	24454.91	484.9891	0.0588
349.997	24455.6	484.9923	0.0588
349.997	24456.03	484.992	0.0588
349.999	1942.13	37.8552	0.0445
350	1942.53	37.8654	0.0445
350	1942.58	37.8656	0.0445
350	2573.63	58.041	0.0491
350	3505.93	392.6614	0.5365
350	3505.97	392.6657	0.5365
350	3506.04	392.6665	0.5364
350.001	1942.52	37.8643	0.0445
350.001	2573.54	58.0372	0.0491
350.001	2573.63	58.0413	0.0491
350.001	3506.16	392.6642	0.5364
350.001	3506.29	392.6668	0.5363
350.002	2573.53	58.0366	0.0491
350.002	2844.65	70.6094	0.5303
350.002	3506.37	392.6629	0.5362
350.002	3506.4	392.6656	0.5362
350.002	3506.51	392.6665	0.5361
350.003	2573.59	58.0386	0.0491
350.003	2844.99	70.6246	0.5303
350.003	2845.06	70.6278	0.5303
350.004	2844.86	70.6242	0.5303
350.004	2845.19	70.6334	0.5303
350.004	2845.29	70.6504	0.5303
350.004	2845.35	70.6463	0.5303
350.005	2845.09	70.6365	0.5303
355.001	2650.65	57.9944	0.0611
355.001	2650.72	57.998	0.0611
355.002	3003.26	73.4588	0.0615
355.003	2650.69	57.9952	0.0611
355.003	2650.7	57.9954	0.0611
355.003	3003.26	73.458	0.0615
355.004	3003.31	73.4602	0.0615
355.005	3003.3	73.4574	0.0615
355.005	3003.33	73.4591	0.0615
355.005	3003.33	73.46	0.0615
355.006	3003.33	73.4598	0.0615
359.001	3436.4	96.2687	0.0733
359.002	3436.44	96.2618	0.0733
359.003	3435.98	96.2198	0.0733
359.003	3436.44	96.2668	0.0733
359.003	3436.48	96.2652	0.0733
359.994	15759.62	448.8172	0.0546
359.994	15760.74	448.8226	0.0546
359.996	303.73	4.597	0.0029
359.996	15761.21	448.8218	0.0546
359.996	15761.21	448.8216	0.0546
359.997	5948.06	392.1448	0.0508
359.997	15761.3	448.8199	0.0546
359.997	15761.43	448.8228	0.0546
359.997	15761.63	448.8212	0.0546
359.997	15761.74	448.8222	0.0546
359.999	1361.17	23.0769	0.0291
359.999	1361.25	23.078	0.0291
359.999	1361.37	23.0819	0.0291
360	303.73	4.5969	0.0029
360	2033.26	37.8677	0.0359
360	2725.56	57.9165	0.0454
360.001	303.73	4.5969	0.0029
360.001	1361.29	23.0792	0.0291
360.001	1361.4	23.0827	0.0291
360.001	2033.18	37.8651	0.0359
360.001	2033.46	37.8723	0.0359
360.001	2725.44	57.912	0.0454
360.001	3467.88	96.3808	0.6128
360.001	3467.95	96.381	0.6127
360.001	3467.96	96.3801	0.6127
360.001	5948.77	392.1369	0.0508
360.001	23889.72	472.6731	0.0574
360.001	35259.41	496.0723	0.0601
360.002	303.74	4.597	0.0029
360.002	2033.41	37.8707	0.0359
360.002	2033.49	37.8724	0.0359
360.002	5949.06	392.1367	0.0508
360.002	5949.39	392.1372	0.0508
360.002	5949.45	392.1403	0.0508
360.002	7930.9	409.8232	0.0507
360.002	11922.51	433.0985	0.0531
360.002	11922.96	433.1016	0.0531
360.002	16074.49	449.9119	0.0547
360.002	16074.7	449.9117	0.0547
360.002	16074.84	449.9122	0.0547
360.002	19909.65	462.1014	0.0562
360.002	19910	462.1018	0.0562
360.002	23890.29	472.6743	0.0574
360.002	23890.61	472.6741	0.0574
360.002	30126.17	486.4621	0.059
360.002	30126.25	486.462	0.059
360.002	35260.36	496.073	0.0601
360.002	303.74	4.5971	0.0029
360.003	539.36	8.3506	0.0033
360.003	2725.51	57.9157	0.0454
360.003	3467.96	96.3793	0.6125
360.003	3730.89	352.6359	0.2123
360.003	3730.91	352.6373	0.2123
360.003	5949.39	392.139	0.0508
360.003	5949.52	392.1379	0.0508
360.003	7931.22	409.8235	0.0507
360.003	11922.67	433.0997	0.0531
360.003	11923.19	433.101	0.0531
360.003	19910.01	462.1016	0.0562
360.003	19910.39	462.1015	0.0562
360.003	23890.23	472.6732	0.0574
360.003	23890.35	472.6724	0.0574
360.003	35260.13	496.0728	0.0601
360.003	35260.17	496.0722	0.0601
360.003	539.36	8.3504	0.0033
360.003	3467.96	96.3804	0.6125
360.004	539.35	8.3504	0.0033
360.004	539.36	8.3503	0.0033
360.004	901.25	14.4835	0.0041
360.004	3108.3	73.4362	0.0726
360.004	3108.34	73.4363	0.0726
360.004	3730.99	352.635	0.2123
360.004	3731.11	352.6358	0.2122
360.004	5949.72	392.1386	0.0508
360.004	7931.01	409.8206	0.0507
360.004	7931.3	409.8238	0.0507
360.004	11923.45	433.1018	0.0531
360.004	16075.2	449.9115	0.0547
360.004	16075.31	449.9119	0.0547
360.004	30126.68	486.4621	0.059
360.004	30126.9	486.4618	0.059
360.004	539.36	8.3503	0.0033
360.004	901.25	14.4836	0.0041
360.004	3108.3	73.4343	0.0726
360.004	3108.3	73.4356	0.0726
360.005	901.24	14.4832	0.0041
360.005	3108.32	73.4359	0.0726
360.005	3108.34	73.4364	0.0726
360.005	3108.36	73.4363	0.0726
360.005	35261.57	496.074	0.0601
360.005	901.24	14.4833	0.0041
360.006	901.24	14.4833	0.0041
360.006	3108.35	73.4355	0.0726
365.001	3675.58	100.8038	0.6332
365.001	4200.92	337.5323	0.5027
365.002	3675.59	100.7995	0.6332
365.002	3675.65	100.8047	0.6332
365.002	4200.88	337.5395	0.5028
365.002	4200.95	337.5368	0.5027
365.002	4201.12	337.5361	0.5025
365.003	3675.61	100.7994	0.6331
365.003	3675.64	100.8031	0.6331
365.003	4201.18	337.5345	0.5025
365.003	4201.27	337.5371	0.5024
365.003	4201.27	337.5402	0.5024
365.005	4201.52	337.5411	0.5023
369.001	4143.7	146.4485	2.0162
369.001	4197.84	281.1997	2.7752
369.002	4143.71	146.4367	2.0164
369.002	4143.74	146.4456	2.0176
369.002	4197.84	281.2058	2.7761
369.002	4197.97	281.233	2.77
369.002	4143.74	146.4443	2.0176
369.002	4143.74	146.4367	2.0178
369.002	4143.74	146.4463	2.0175
369.003	4143.77	146.4379	2.0186
369.003	4197.88	281.1452	2.7754
369.003	4198.04	281.2113	2.7686
369.003	4198.05	281.2409	2.7687
369.003	4143.77	146.4374	2.0186
369.003	4198.04	281.2217	2.7688
369.004	4198.02	281.2072	2.7722
369.82	19374.23	448.2594	0.0553
369.822	19374.83	448.2584	0.0553
369.822	19374.95	448.2606	0.0553
369.822	19375.11	448.2595	0.0553
369.822	19375.12	448.2588	0.0553
369.823	19375.29	448.2592	0.0553
369.823	19375.31	448.2595	0.0553
369.823	19375.4	448.2593	0.0553
369.825	4245.46	199.5882	0.912
369.825	4245.47	199.8899	0.9116
369.825	4245.48	199.6472	0.9119
369.825	4245.55	199.8337	0.9118
369.825	4246.56	245.5952	0.8584
369.825	4985.61	337.3713	0.0692
369.826	4186.13	146.5688	0.3946
369.826	4245.51	199.8893	0.9116
369.826	4246.6	245.0292	0.8592
369.826	4246.62	245.1419	0.8591
369.826	4246.68	245.5114	0.8588
369.826	8381.54	391.6399	0.0509
369.827	4186.17	146.5727	0.3947
369.827	4186.19	146.5679	0.3947
369.827	4245.56	200.1697	0.9113
369.827	4245.63	199.8491	0.9118
369.827	4246.8	245.2497	0.8594
369.827	4284.4	281.2164	0.9405
369.827	8381.98	391.6438	0.0509
369.827	4186.19	146.5701	0.3947
369.828	3309.26	73.3633	0.0642
369.828	3309.28	73.3643	0.0642
369.828	3309.3	73.3637	0.0642
369.828	3309.41	73.3693	0.0642
369.828	4186.21	146.5725	0.3948
369.828	4186.23	146.5691	0.3948
369.828	4186.25	146.5693	0.3948
369.828	4186.26	146.5719	0.3948
369.828	4245.65	199.9887	0.9115
369.828	4246.71	245.4358	0.8589
369.828	4246.78	245.2245	0.8594
369.828	4246.88	245.3678	0.8595
369.828	4284.48	281.2293	0.9404
369.828	4284.51	281.2171	0.9404
369.828	4985.95	337.3545	0.0692
369.828	4985.98	337.3577	0.0692
369.828	4986.09	337.3564	0.0692
369.828	8382.01	391.6424	0.0509
369.828	8382.02	391.6408	0.0509
369.828	8382.21	391.6437	0.0509
369.828	8382.36	391.6431	0.0509
369.828	4985.95	337.3567	0.0692
369.829	3309.21	73.3627	0.0642
369.829	3309.43	73.3696	0.0642
369.829	4284.57	281.2138	0.9403
369.829	4284.58	281.2287	0.9403
369.829	4284.61	281.2151	0.9403
369.829	4986.02	337.3569	0.0692
369.829	4986.07	337.3569	0.0692
369.829	4986.11	337.3558	0.0692
369.829	8382.57	391.6443	0.0509
369.829	8382.61	391.6441	0.0509
369.83	3309.36	73.3671	0.0642
369.83	4284.7	281.2193	0.9404
369.83	3309.36	73.3664	0.0642
369.83	4284.7	281.22	0.9404
369.848	4188.09	146.9059	0.2164
369.849	311.85	4.5865	0.0029
369.849	1387.44	22.6395	0.0278
369.849	2871.82	57.8298	0.0414
369.849	4241.52	177.4355	0.2018
369.85	311.86	4.5867	0.0029
369.85	1387.46	22.64	0.0278
369.85	2871.75	57.8251	0.0414
369.85	4188.24	146.9102	0.2166
369.85	4188.26	146.915	0.2166
369.851	1387.36	22.6384	0.0278
369.851	1387.42	22.6393	0.0278
369.851	2120.42	37.8405	0.0334
369.851	2871.68	57.8231	0.0414
369.851	3827.6	100.8154	0.1139
369.851	3827.62	100.8159	0.1139
369.851	4241.8	177.5264	0.2018
369.851	4241.81	177.5799	0.2018
369.851	4241.87	177.6496	0.2018
369.851	4248.16	218.4898	0.2049
369.851	4372.91	299.0858	0.0937
369.851	5012.25	338.0984	0.0461
369.851	5012.3	338.0966	0.0461
369.852	311.85	4.5866	0.0029
369.852	1387.46	22.6401	0.0278
369.852	2120.37	37.8404	0.0334
369.852	2120.4	37.8405	0.0334
369.852	3827.63	100.8161	0.1139
369.852	4188.34	146.9117	0.2168
369.852	4188.36	146.9172	0.2168
369.852	4241.82	177.5055	0.2018
369.852	4248.19	218.7486	0.205
369.852	4248.2	220.705	0.2053
369.852	4248.42	235.5127	0.208
369.852	5012.49	338.0991	0.0461
369.852	5520.15	352.2112	0.0457
369.852	311.85	4.5865	0.0029
369.852	2120.37	37.8389	0.0334
369.853	311.86	4.5867	0.0029
369.853	554.46	8.3301	0.0033
369.853	927.78	14.4328	0.0041
369.853	2120.38	37.8385	0.0334
369.853	3827.64	100.8147	0.1139
369.853	3827.67	100.8174	0.1139
369.853	4248.27	224.6858	0.206
369.853	4248.34	220.2683	0.2052
369.853	4248.44	235.4342	0.208
369.853	4258.55	265.2165	0.2164
369.853	4258.59	265.2383	0.2164
369.853	4373.01	299.0745	0.0937
369.853	4373.12	299.0885	0.0937
369.853	5012.55	338.1019	0.0461
369.853	5520.39	352.2124	0.0457
369.853	554.46	8.3303	0.0033
369.854	554.46	8.3303	0.0033
369.854	927.78	14.4326	0.0041
369.854	927.79	14.4329	0.0041
369.854	4248.57	231.5407	0.2072
369.854	4248.6	236.8982	0.2083
369.854	4258.68	265.2106	0.2164
369.854	4373.17	299.0824	0.0937
369.855	554.46	8.3303	0.0033
369.855	927.79	14.4327	0.0041
369.855	4248.66	234.5258	0.2078
369.855	4258.76	265.2509	0.2163
369.855	4258.77	265.2289	0.2163
369.855	5520.59	352.2085	0.0457
369.855	5520.64	352.2102	0.0457
369.855	554.46	8.3302	0.0033
369.856	927.79	14.4326	0.0041
369.925	4252.71	197.9992	0.9175
369.925	4252.72	197.9989	0.9175
369.925	4253.84	232.6399	0.8844
369.926	4252.73	197.7779	0.9177
369.926	4252.76	197.6589	0.9179
369.926	4253.89	232.539	0.8846
369.927	4252.84	198.1313	0.9174
369.927	4252.85	197.9013	0.9176
369.927	4255.02	244.3656	0.8763
369.927	4255.03	244.4167	0.8762
369.927	4255.04	244.6183	0.8761
369.927	4252.84	198.0481	0.9175
369.928	4252.83	197.8417	0.9176
369.928	4253.97	231.6433	0.8857
369.928	4254.01	232.1213	0.8853
369.928	4254.03	232.4415	0.885
369.928	4255.04	244.4422	0.8762
369.928	4255.11	244.5513	0.8763
369.928	4254.01	231.7383	0.8856
369.929	4254.04	231.8623	0.8856
369.929	4255.1	244.5559	0.8763
369.929	4255.17	244.5843	0.8765
369.929	4255.21	244.7001	0.8765
369.949	4248.2	177.6355	0.1826
369.949	4248.26	177.6698	0.1826
369.95	4248.27	177.6307	0.1827
369.95	4248.3	177.7068	0.1828
369.951	4248.35	177.6573	0.1829
369.951	4255.69	214.994	0.2049
369.951	4255.72	214.8122	0.2048
369.951	4255.69	213.9275	0.2042
369.952	4255.81	214.7944	0.2049
369.952	4256.27	231.7909	0.2157
369.952	4256.3	231.3423	0.2154
369.952	4256.35	233.4452	0.2167
369.953	4255.82	214.4713	0.2048
369.953	4256.25	231.3894	0.2155
369.953	4268.01	265.2093	0.265
369.953	4268.02	265.2171	0.265
369.954	4256.39	231.8174	0.2159
369.954	4268.04	265.1933	0.2646
369.955	4268.17	265.2327	0.2643
369.956	4268.19	265.215	0.2639
370.026	4259.9	197.0227	0.2936
370.026	4259.91	197.1114	0.294
370.026	4259.98	197.2797	0.2945
370.026	4263.34	244.1727	0.4662
370.026	4259.91	197.0644	0.2938
370.027	4259.97	197.162	0.2943
370.027	4260	197.1856	0.2943
370.027	4261.6	225.8271	0.3998
370.027	4261.61	225.4209	0.3983
370.027	4261.66	225.9039	0.4
370.027	4263.34	244.0961	0.4663
370.027	4259.97	197.0657	0.2939
370.027	4261.6	225.4717	0.3985
370.028	4260.06	197.2997	0.2949
370.028	4261.67	225.8091	0.4
370.028	4261.68	225.7298	0.3997
370.028	4261.75	225.9541	0.4005
370.028	4263.41	244.1495	0.4668
370.028	4263.44	244.2139	0.467
370.028	4263.49	244.3085	0.4673
370.029	4261.77	225.9375	0.4007
370.029	4263.48	244.1773	0.4672
370.029	4263.5	244.2741	0.4675
370.03	4263.58	244.2941	0.4679
370.049	4254.79	177.7117	0.0846
370.05	4254.8	177.6623	0.0845
370.05	4254.85	177.6946	0.0846
370.051	4254.93	177.7399	0.0847
370.051	4263.19	211.4056	0.0806
370.051	4263.21	211.2118	0.0805
370.052	4254.91	177.6729	0.1062
370.053	4263.35	211.4657	0.0806
370.053	4263.37	212.3061	0.0811
370.053	4264.18	229.2558	0.0908
370.053	4264.21	228.7986	0.0905
370.053	4277.48	265.2035	0.5856
370.054	4263.38	211.4288	0.0806
370.054	4264.29	229.2615	0.0908
370.054	4264.31	229.0623	0.0906
370.054	4277.5	265.2036	0.3566
370.054	4277.51	265.2063	0.3566
370.054	4277.52	265.2021	0.3566
370.054	4277.57	265.2421	0.3566
370.055	4264.35	229.2797	0.0908
370.324	4281.15	196.6357	1.2989
370.325	4281.21	196.7432	1.299
370.325	4281.24	196.797	1.2988
370.325	4281.26	196.7288	1.2982
370.325	4281.24	196.7266	1.2985
370.326	4281.19	196.6693	1.2993
370.326	4281.32	197.0333	1.2993
370.326	4284.6	220.8899	1.3821
370.326	4284.67	220.7773	1.3807
370.326	4284.68	220.8743	1.3811
370.327	4212.12	146.6889	1.3443
370.327	4212.13	146.6885	1.3444
370.327	4212.14	146.6811	1.3445
370.327	4212.17	146.6885	1.3446
370.327	4281.34	196.7723	1.2982
370.327	4284.74	220.8796	1.3809
370.327	4284.77	221.0283	1.3814
370.327	4288.5	243.7591	1.4734
370.327	4288.52	243.7445	1.4731
370.327	4288.61	243.8986	1.4732
370.327	4288.52	243.764	1.4733
370.328	4212.17	146.6807	1.3441
370.328	4284.8	221.0441	1.3816
370.328	4284.81	221.0772	1.3817
370.328	4284.86	221.1458	1.3815
370.328	4288.6	243.8662	1.4736
370.328	4288.62	243.8273	1.4732
370.328	4288.64	243.8955	1.4734
370.328	4288.6	243.807	1.4732
370.329	4212.21	146.6839	1.3436
370.329	4212.22	146.6874	1.3437
370.329	4212.21	146.6801	1.3437
370.349	4214.27	147.0286	0.3347
370.35	4214.27	147.0285	0.3345
370.35	4214.29	147.031	0.3345
370.35	4214.3	147.0327	0.3346
370.35	4274.29	177.7704	0.2964
370.351	4214.33	147.0251	0.3345
370.351	4274.33	177.7772	0.2963
370.351	4274.42	177.843	0.2961
370.352	4274.36	177.7652	0.2963
370.352	4274.41	177.8076	0.2962
370.352	4285.68	209.6322	0.2955
370.352	4287.8	228.2959	0.3125
370.352	4305.89	265.2037	0.4549
370.353	4285.66	209.4089	0.2954
370.353	4285.69	209.4962	0.2954
370.353	4285.75	209.6591	0.2954
370.353	4287.86	227.1756	0.3112
370.353	4305.96	265.2139	0.4553
370.353	4285.69	209.4273	0.2953
370.354	4287.89	227.3419	0.3114
370.354	4287.99	227.2499	0.3111
370.354	4306.03	265.1934	0.4556
370.354	4306.09	265.2224	0.4554
370.355	4306.1	265.1987	0.4561
370.356	4288.04	227.2679	0.3112
370.824	4316.62	196.6558	1.0927
370.824	4316.65	196.6714	1.0925
370.824	4316.68	196.7091	1.0924
370.825	4238.19	146.8928	1.1598
370.825	4316.68	196.6421	1.0924
370.825	4316.76	196.7993	1.0922
370.826	4238.21	146.8905	1.1597
370.826	4238.24	146.895	1.16
370.826	4316.78	196.7211	1.092
370.826	4316.81	196.767	1.0919
370.826	4316.78	196.6836	1.0919
370.827	4238.24	146.889	1.1591
370.827	4238.27	146.8992	1.1593
370.827	4238.34	146.8902	1.1603
370.827	4323.42	219.8111	0.9855
370.827	4330.89	243.6646	1.1779
370.827	4330.92	243.6563	1.1774
370.827	4330.95	243.6219	1.1767
370.827	4330.96	243.6259	1.1766
370.827	4330.99	243.6738	1.1768
370.827	4323.42	219.8047	0.9854
370.827	4330.89	243.6077	1.1772
370.828	4238.31	146.8924	1.1596
370.828	4323.38	219.7803	0.9857
370.828	4323.41	219.7922	0.9856
370.828	4323.43	219.8228	0.9857
370.828	4323.48	219.8738	0.9858
370.828	4323.49	219.908	0.9861
370.828	4323.5	219.9747	0.9868
370.828	4331.04	243.6484	1.1763
370.828	4331.07	243.6706	1.1761
370.849	4306.41	177.8624	0.2598
370.849	4306.49	177.914	0.2598
370.85	4240.77	147.3137	0.2381
370.85	4240.8	147.3138	0.2382
370.85	4240.86	147.3237	0.2383
370.85	4306.59	177.9307	0.2597
370.851	4306.53	177.8432	0.2596
370.851	4306.57	177.8737	0.2595
370.851	4322.78	208.9778	0.3239
370.851	4322.81	208.99	0.3239
370.851	4353.7	265.3603	0.2083
370.852	4322.85	208.9329	0.3238
370.852	4353.58	265.1639	0.2082
370.852	4353.72	265.1823	0.2082
370.853	4322.93	209.0157	0.3236
370.853	4322.97	209.0741	0.3236
370.853	4327.44	226.6503	0.3101
370.853	4327.5	226.6472	0.3101
370.853	4353.67	265.1384	0.2082
370.853	4353.77	265.1746	0.2082
370.853	4353.78	265.1949	0.2082
370.854	4353.77	265.1521	0.2082
370.854	4353.79	265.176	0.2082
370.855	4327.62	226.7007	0.31
370.856	4327.63	226.6727	0.31
371.824	4387.27	196.8365	0.8678
371.825	4387.26	196.7691	0.8678
371.825	4416.58	243.5654	0.9059
371.826	4293.52	147.9258	0.7453
371.826	4293.58	147.9301	0.7457
371.826	4293.69	147.9471	0.7463
371.826	4387.31	196.7844	0.8678
371.826	4387.33	196.7687	0.8677
371.826	4387.36	196.8094	0.8677
371.826	4416.64	243.624	0.9061
371.827	4293.59	147.934	0.7455
371.827	4387.37	196.793	0.8677
371.827	4387.4	196.8032	0.8677
371.827	4387.44	196.8458	0.8676
371.827	4400.79	219.5598	0.8551
371.827	4400.86	219.5743	0.855
371.827	4400.9	219.677	0.855
371.827	4400.98	219.9124	0.8551
371.827	4416.74	243.5781	0.9057
371.827	4416.75	243.5746	0.9056
371.827	4400.9	219.6415	0.855
371.827	4416.74	243.5858	0.9057
371.828	4293.65	147.9241	0.743
371.828	4293.68	147.9301	0.7432
371.828	4400.97	219.6122	0.855
371.828	4416.75	243.616	0.9053
371.828	4416.79	243.5799	0.905
371.828	4416.87	243.6047	0.9048
371.828	4400.97	219.6084	0.855
371.829	4401.01	219.6808	0.8551
371.849	4295.79	148.252	0.1629
371.849	4295.87	148.2758	0.1629
371.849	4370.35	178.0307	0.2361
371.849	4407.08	226.9258	0.19
371.85	4370.33	177.9806	0.2361
371.851	4295.88	148.252	0.1622
371.851	4370.4	177.9907	0.2361
371.851	4370.42	178.0266	0.2361
371.851	4397.09	208.8552	0.1898
371.851	4397.12	208.9074	0.1898
371.851	4450.25	265.1399	0.2512
371.852	4370.47	178.0123	0.2359
371.852	4397.16	208.8655	0.1898
371.852	4397.19	208.9291	0.1898
371.852	4450.34	265.1427	0.2511
371.853	4397.24	208.9069	0.1898
371.853	4407.2	226.5213	0.1899
371.853	4450.37	265.1245	0.251
371.853	4450.42	265.1336	0.2509
371.853	4450.37	265.1308	0.2511
371.854	4407.24	226.5105	0.1899
371.855	4407.3	226.504	0.1899
371.855	4407.3	226.4827	0.1899
372.002	4517.4	281.1973	0.7133
372.004	4517.59	281.1956	0.7131
372.004	4517.62	281.206	0.7131
372.004	4517.64	281.1965	0.713
372.004	4517.68	281.2005	0.7129
372.005	4517.69	281.2017	0.7131
372.005	4517.71	281.1961	0.713
372.005	4517.72	281.1967	0.7129
374.999	4456.11	148.366	0.0971
374.999	4456.13	148.3639	0.0971
374.999	4456.14	148.3656	0.0971
374.999	4568.89	178.196	0.1187
375	4456.15	148.3715	0.097
375	4568.9	178.1782	0.1187
375	4568.93	178.1766	0.1187
375	4568.95	178.2041	0.1187
375	4694.48	243.5942	0.4128
375.001	3980.28	100.4677	0.1403
375.001	4569	178.1852	0.1187
375.001	4609.68	197.0258	0.4408
375.001	4609.72	197.0152	0.4408
375.001	4609.8	197.0659	0.4407
375.001	4630.95	208.9793	0.0953
375.001	4630.96	208.9633	0.0953
375.001	4648.48	219.6681	0.3445
375.001	4694.46	243.5939	0.4128
375.001	4694.49	243.6022	0.4128
375.001	4761.57	265.09	0.0867
375.001	4609.72	197.0152	0.4408
375.001	4694.49	243.5832	0.4128
375.002	3980.19	100.4636	0.1402
375.002	3980.22	100.4627	0.1403
375.002	4454.98	148.0823	0.3028
375.002	4456.25	148.361	0.097
375.002	4609.77	197.0191	0.4407
375.002	4609.79	197.0143	0.4407
375.002	4609.82	197.023	0.4406
375.002	4631.02	208.9616	0.0953
375.002	4631.04	208.9906	0.0953
375.002	4648.55	219.6511	0.3445
375.002	4694.6	243.6047	0.4129
375.002	4761.66	265.0937	0.0867
375.002	5843.79	337.1606	0.0771
375.002	4454.98	148.0813	0.3028
375.003	4455.02	148.0789	0.3026
375.003	4455.03	148.084	0.3026
375.003	4455.05	148.0839	0.3026
375.003	4455.07	148.0852	0.3026
375.003	4609.82	197.0316	0.4407
375.003	4648.55	219.6465	0.3445
375.003	4648.56	219.648	0.3445
375.003	4648.59	219.6505	0.3445
375.003	4648.61	219.6474	0.3445
375.003	4648.69	219.6562	0.3444
375.003	4660.81	226.4947	0.0853
375.003	4694.62	243.6035	0.4129
375.003	4694.65	243.5889	0.4129
375.003	4761.7	265.0865	0.0867
375.003	4846.86	281.138	0.2186
375.003	5843.91	337.161	0.0771
375.003	5843.93	337.1606	0.0771
375.003	4455.02	148.0792	0.3026
375.003	4694.62	243.5902	0.4129
375.004	3980.27	100.4634	0.1402
375.004	3980.3	100.4677	0.1402
375.004	4455.08	148.0809	0.3024
375.004	4631.11	208.9721	0.0953
375.004	4648.65	219.6668	0.3443
375.004	4660.9	226.5034	0.0853
375.004	4761.83	265.0874	0.0867
375.004	4761.85	265.1011	0.0867
375.004	4846.92	281.1443	0.2186
375.004	4846.95	281.1402	0.2185
375.004	5843.99	337.1611	0.0771
375.004	5844.01	337.1586	0.0771
375.004	5844.09	337.1618	0.0771
375.004	5844.17	337.1584	0.0771
375.004	4846.92	281.1362	0.2185
375.005	4660.94	226.4826	0.0853
375.005	4661.03	226.5395	0.0853
375.005	4847.05	281.138	0.2185
375.005	4847.13	281.1432	0.2184
375.005	5844.23	337.1597	0.0771
375.006	4660.99	226.5017	0.0853
375.006	4847.08	281.1408	0.2187
375.006	4847.11	281.1389	0.2186
379.996	23098.09	447.702	0.0546
379.996	23098.12	447.7027	0.0546
379.997	23098.32	447.7043	0.0546
379.997	23098.34	447.7018	0.0546
379.997	23098.41	447.7014	0.0546
379.997	23098.62	447.7027	0.0546
379.998	320.18	4.576	0.0029
379.998	2208.84	37.8087	0.0314
379.998	23098.54	447.7027	0.0546
379.998	23098.97	447.702	0.0546
379.999	1440.99	22.71	0.0265
379.999	3020.9	57.7728	0.0381
379.999	4131.93	100.514	0.0889
379.999	4705.55	148.3588	0.0461
379.999	4879.5	178.2163	0.0682
379.999	4879.53	178.2128	0.0682
379.999	4879.56	178.2358	0.0682
379.999	4957.56	197.1271	0.0634
380	3021.13	57.7794	0.0381
380	4131.98	100.5142	0.0889
380	4705.58	148.3609	0.0343
380.001	1441.95	22.7271	0.0265
380.001	1442.59	22.7383	0.0265
380.001	2208.61	37.8027	0.0314
380.001	2208.62	37.8037	0.0314
380.001	3020.83	57.7697	0.0381
380.001	3020.97	57.7733	0.0381
380.001	4705.62	148.3583	0.0343
380.001	4705.67	148.363	0.0343
380.001	4755.7	155.495	0.2
380.001	4879.6	178.2044	0.0682
380.001	4879.62	178.2142	0.0682
380.001	4957.71	197.1167	0.0635
380.001	4957.73	197.1101	0.0635
380.001	5002.19	208.9551	0.03
380.001	4705.62	148.3597	0.0343
380.002	320.19	4.576	0.0029
380.002	1442.29	22.733	0.0265
380.002	3020.84	57.7694	0.0381
380.002	3513.22	73.3301	0.0547
380.002	3513.39	73.3336	0.0547
380.002	3513.55	73.3391	0.0547
380.002	4132.06	100.5162	0.0889
380.002	4703.79	148.0746	0.1378
380.002	4755.73	155.4934	0.2
380.002	4957.77	197.1123	0.0636
380.002	4957.78	197.1183	0.0636
380.002	4957.8	197.1153	0.0636
380.002	5002.17	208.9458	0.03
380.002	5002.19	208.9421	0.03
380.002	5041.56	219.674	0.0381
380.002	5041.59	219.68	0.0381
380.002	5067.85	226.4119	0.0319
380.002	5067.9	226.4202	0.0319
380.002	5067.93	226.4199	0.0319
380.002	5067.97	226.4268	0.0319
380.002	5141.52	243.5593	0.0361
380.002	5141.53	243.5621	0.0361
380.002	5141.54	243.5643	0.0361
380.002	5408.26	280.9894	0.0743
380.002	5408.3	280.9924	0.0743
380.002	6684.07	336.97	0.0561
380.002	6684.17	336.9719	0.0561
380.002	7975.33	360.5817	0.0472
380.002	7975.52	360.5862	0.0472
380.002	15944.95	420.9871	0.0518
380.002	15945.27	420.99	0.0518
380.002	23696.98	449.4883	0.0548
380.002	29645.21	465.2416	0.0566
380.002	29645.84	465.2422	0.0566
380.002	34343.55	475.5948	0.0578
380.002	34343.82	475.5955	0.0578
380.002	320.19	4.576	0.0029
380.002	4755.73	155.4922	0.2
380.002	5041.56	219.6748	0.0381
380.002	5041.59	219.6803	0.0381
380.002	320.19	4.576	0.0029
380.002	320.19	4.576	0.0029
380.003	569.88	8.3091	0.0033
380.003	569.89	8.3092	0.0033
380.003	1441.31	22.7154	0.0265
380.003	2208.6	37.8017	0.0314
380.003	2208.64	37.8039	0.0314
380.003	3513.59	73.3404	0.0547
380.003	3513.62	73.3402	0.0547
380.003	4132.06	100.5148	0.0889
380.003	4755.72	155.485	0.2
380.003	4755.74	155.4863	0.2
380.003	4957.81	197.1094	0.0635
380.003	4957.87	197.1195	0.0635
380.003	5001.32	208.6893	0.03
380.003	5001.5	208.7392	0.03
380.003	5002.29	208.9478	0.03
380.003	5002.3	208.9462	0.03
380.003	5141.56	243.5584	0.0361
380.003	5141.58	243.5663	0.0361
380.003	5141.6	243.5707	0.0361
380.003	5141.62	243.5591	0.0361
380.003	5268.58	264.9887	0.0413
380.003	5268.64	264.9913	0.0413
380.003	5408.27	280.985	0.0743
380.003	5408.32	280.9913	0.0743
380.003	5408.38	280.9913	0.0743
380.003	5408.41	280.9916	0.0743
380.003	5408.43	280.9918	0.0744
380.003	6684.27	336.9736	0.0561
380.003	6684.3	336.9704	0.0561
380.003	7975.38	360.5799	0.0472
380.003	7975.46	360.5808	0.0472
380.003	7975.47	360.5796	0.0472
380.003	7975.48	360.5807	0.0472
380.003	7975.51	360.5815	0.0472
380.003	7975.54	360.5825	0.0472
380.003	7975.7	360.5861	0.0472
380.003	10919.43	391.1537	0.0496
380.003	10919.47	391.1563	0.0496
380.003	10919.52	391.1555	0.0496
380.003	11880.18	398.1867	0.0492
380.003	11880.23	398.1855	0.0492
380.003	11880.6	398.1886	0.0492
380.003	15944.98	420.9873	0.0518
380.003	19819.96	436.8067	0.0534
380.003	19820.01	436.8057	0.0534
380.003	19821.09	436.811	0.0534
380.003	23696.6	449.4871	0.0548
380.003	23696.88	449.4881	0.0548
380.003	29645.18	465.2406	0.0566
380.003	34343.56	475.5934	0.0578
380.003	34344.43	475.5966	0.0578
380.003	569.88	8.3093	0.0033
380.003	5141.6	243.5628	0.0361
380.004	569.89	8.3093	0.0033
380.004	954.79	14.3809	0.0041
380.004	954.8	14.3809	0.0041
380.004	954.81	14.3809	0.0041
380.004	3513.5	73.3364	0.0547
380.004	4703.85	148.0736	0.1378
380.004	4703.88	148.0798	0.1378
380.004	4703.9	148.0782	0.1378
380.004	5041.66	219.6812	0.0381
380.004	5041.68	219.6739	0.0381
380.004	5041.69	219.6832	0.0381
380.004	5041.7	219.6782	0.0381
380.004	5068.05	226.4178	0.0319
380.004	5268.75	264.9853	0.0413
380.004	5408.39	280.9856	0.0743
380.004	6684.35	336.9739	0.0561
380.004	7975.58	360.5802	0.0472
380.004	7975.62	360.5814	0.0472
380.004	7975.65	360.5805	0.0472
380.004	7975.75	360.5838	0.0472
380.004	7975.76	360.5834	0.0472
380.004	10918.75	391.1461	0.0496
380.004	10919.68	391.1547	0.0496
380.004	10919.69	391.1558	0.0496
380.004	10919.83	391.156	0.0496
380.004	11880.59	398.1862	0.0492
380.004	19820.8	436.8084	0.0534
380.004	29646.11	465.2413	0.0566
380.004	29646.18	465.2407	0.0566
380.004	34344.61	475.5966	0.0578
380.004	569.89	8.3092	0.0033
380.004	4703.88	148.0715	0.1378
380.005	4703.89	148.0779	0.1378
380.005	5268.83	264.9953	0.0413
380.005	6684.13	336.9618	0.0561
380.005	10919.18	391.1497	0.0496
380.005	15945.5	420.9863	0.0518
380.005	19821.18	436.81	0.0534
380.005	23697.29	449.487	0.0548
380.005	23697.44	449.489	0.0548
380.006	954.8	14.3809	0.0041
380.006	954.81	14.381	0.0041
380.006	3513.66	73.3411	0.0547
380.006	5268.91	264.9894	0.0413
380.006	6684.65	336.9729	0.0561
380.006	6684.68	336.9714	0.0561
399.996	5676.62	148.4454	0.1058
399.996	5676.67	148.4459	0.1058
399.997	5676.53	148.4394	0.1059
399.997	5676.62	148.4443	0.1058
399.997	5676.68	148.4472	0.1058
399.997	5676.69	148.4496	0.1058
399.997	5676.71	148.4499	0.1058
399.997	5676.76	148.4534	0.1058
399.997	5676.77	148.452	0.1058
399.997	5676.78	148.4503	0.1058
399.997	5676.85	148.4536	0.1058
399.997	5676.87	148.4568	0.1058
399.997	5676.93	148.4582	0.1058
399.997	5676.77	148.4501	0.1058
399.998	5676.53	148.4382	0.1058
399.998	5676.56	148.437	0.1058
399.998	5676.65	148.4454	0.1058
399.998	5676.67	148.4455	0.1058
399.998	5676.73	148.447	0.1058
399.998	5676.74	148.4473	0.1058
399.998	5676.79	148.4535	0.1058
399.998	5676.82	148.4492	0.1058
399.998	5676.83	148.4542	0.1058
399.998	5676.92	148.4602	0.1058
399.998	5676.93	148.4612	0.1058
399.998	5676.99	148.4628	0.1058
399.998	5677.06	148.4644	0.1058
399.998	5677.17	148.477	0.1058
399.998	5677.39	148.487	0.1058
399.998	5677.44	148.4902	0.1058
399.998	5676.83	148.4506	0.1058
399.999	5676.67	148.4444	0.1058
399.999	5676.75	148.4466	0.1058
399.999	5676.85	148.4543	0.1058
399.999	5676.98	148.4619	0.1058
399.999	5676.99	148.4599	0.1058
399.999	5677.03	148.4676	0.1058
399.999	5677.04	148.4619	0.1058
399.999	5677.09	148.4661	0.1058
399.999	5677.21	148.4725	0.1058
399.999	5677.85	148.5089	0.1057
400	962.98	13.6116	0.004
400	6338.26	196.8757	0.1124
400	7912.87	286.8545	0.0514
400	7913.25	286.8684	0.0514
400.001	1542.08	22.7724	0.0242
400.001	1542.17	22.7738	0.0242
400.001	1542.39	22.7771	0.0242
400.001	2380.52	37.7508	0.0282
400.001	3308.6	57.6871	0.0339
400.001	3308.61	57.6864	0.0339
400.001	3308.62	57.6875	0.0339
400.001	3308.64	57.6894	0.0339
400.001	4691.9	99.4254	0.0166
400.001	5673.12	148.2325	0.0303
400.001	5673.22	148.2387	0.0303
400.001	5678.01	148.5175	0.1057
400.001	5678.03	148.5161	0.1057
400.001	5678.04	148.5166	0.1057
400.001	5678.08	148.5188	0.1057
400.001	5678.13	148.5256	0.1057
400.001	5678.18	148.5269	0.1057
400.001	5678.19	148.5264	0.1057
400.001	5678.2	148.534	0.1057
400.001	5781.59	155.3131	0.0792
400.001	7736.91	280.4439	0.0508
400.001	7736.94	280.4474	0.0508
400.001	7913.23	286.8657	0.0514
400.001	11790.59	357.3354	0.0457
400.001	15926.26	390.2331	0.0491
400.001	17450.47	398.9841	0.0497
400.001	5678.19	148.5275	0.1057
400.002	336.43	4.5554	0.0029
400.002	957.89	13.5351	0.0039
400.002	959.04	13.5529	0.0039
400.002	1542.33	22.7764	0.0242
400.002	2380.26	37.7472	0.0282
400.002	2380.34	37.7486	0.0282
400.002	4691.99	99.4292	0.0166
400.002	5668.48	147.9189	0.1065
400.002	5678.05	148.5184	0.1057
400.002	5678.19	148.5271	0.1057
400.002	5678.22	148.5291	0.1057
400.002	5678.23	148.5278	0.1057
400.002	5678.24	148.5287	0.1057
400.002	5678.26	148.5279	0.1057
400.002	5781.6	155.3126	0.0793
400.002	5781.62	155.3108	0.0793
400.002	6338.32	196.8767	0.1124
400.002	6338.35	196.879	0.1124
400.002	6338.37	196.8767	0.1124
400.002	6338.4	196.8772	0.1124
400.002	6338.42	196.8756	0.1124
400.002	6338.45	196.8803	0.1124
400.002	6630.23	219.389	0.0894
400.002	6978.61	243.19	0.0604
400.002	6978.64	243.1916	0.0604
400.002	6978.66	243.1927	0.0604
400.002	7736.99	280.4441	0.0508
400.002	7737.1	280.4488	0.0508
400.002	7913.16	286.8572	0.0514
400.002	11790.29	357.3302	0.0457
400.002	11790.66	357.3334	0.0457
400.002	11790.93	357.3376	0.0457
400.002	15925.91	390.231	0.0491
400.002	15926.26	390.2326	0.0491
400.002	17448.13	398.9706	0.0497
400.002	17449.87	398.9806	0.0497
400.002	29922.24	445.4914	0.0552
400.002	29927.02	445.5037	0.0552
400.002	35860.15	460.1227	0.0571
400.002	35868.46	460.1422	0.0571
400.002	336.43	4.5553	0.0029
400.002	5678.19	148.5272	0.1057
400.002	5678.24	148.5277	0.1057
400.002	336.43	4.5554	0.0029
400.003	336.43	4.5553	0.0029
400.003	599.95	8.2683	0.0033
400.003	957.16	13.5243	0.0039
400.003	1542.23	22.7745	0.0242
400.003	2380.48	37.7503	0.0282
400.003	3308.6	57.6872	0.0339
400.003	3901.81	73.2154	0.0426
400.003	3901.84	73.2165	0.0426
400.003	4691.91	99.4238	0.0166
400.003	4691.95	99.4251	0.0166
400.003	4691.97	99.4262	0.0166
400.003	5668.39	147.9116	0.1065
400.003	5668.47	147.9155	0.1065
400.003	5673.19	148.2336	0.0303
400.003	5673.23	148.2361	0.0303
400.003	5678.17	148.5233	0.1057
400.003	5678.19	148.5244	0.1057
400.003	5678.24	148.5277	0.1056
400.003	5678.3	148.5288	0.1056
400.003	5781.7	155.3142	0.0793
400.003	6338.48	196.8768	0.1124
400.003	6630.26	219.3864	0.0894
400.003	6630.29	219.3857	0.0894
400.003	6978.57	243.1904	0.0604
400.003	7737.1	280.4441	0.0508
400.003	7737.28	280.4487	0.0509
400.003	7913.37	286.8641	0.0515
400.003	11790.63	357.3318	0.0457
400.003	17449.17	398.9747	0.0497
400.003	29932.18	445.516	0.0552
400.003	29937.72	445.5327	0.0552
400.003	35835.58	460.0671	0.0571
400.003	35843.56	460.0861	0.0571
400.003	35851.96	460.105	0.0571
400.003	6630.29	219.3894	0.0894
400.004	336.43	4.5554	0.0029
400.004	599.96	8.2685	0.0033
400.004	956.18	13.5094	0.0039
400.004	2380.29	37.7481	0.0282
400.004	3901.82	73.2169	0.0426
400.004	3901.93	73.2188	0.0426
400.004	3902.02	73.2191	0.0426
400.004	5668.46	147.9143	0.1065
400.004	5668.48	147.9154	0.1065
400.004	5668.52	147.9188	0.1065
400.004	5668.54	147.9165	0.1065
400.004	5673.28	148.2363	0.0303
400.004	5781.73	155.3115	0.0793
400.004	6630.36	219.3893	0.0894
400.004	6630.39	219.3852	0.0894
400.004	6978.73	243.1892	0.0604
400.004	6978.74	243.1963	0.0604
400.004	6978.76	243.1903	0.0604
400.004	7737.16	280.4441	0.0508
400.004	7737.28	280.4501	0.0508
400.004	10111.87	336.2362	0.0478
400.004	10111.88	336.2354	0.0478
400.004	15926	390.2284	0.0491
400.004	15926.34	390.2303	0.0491
400.004	15926.94	390.2335	0.0491
400.004	17449.85	398.9785	0.0497
400.004	29917.95	445.4776	0.0552
400.004	599.96	8.2685	0.0033
400.004	6630.36	219.3877	0.0894
400.004	599.96	8.2685	0.0033
400.005	599.96	8.2684	0.0033
400.005	3901.82	73.215	0.0426
400.005	6630.4	219.3904	0.0894
400.005	6978.86	243.1927	0.0604
400.005	10111.9	336.232	0.0478
400.005	10111.91	336.2332	0.0478
400.005	10111.93	336.2358	0.0478
400.005	15926.18	390.2293	0.0491
400.005	15926.6	390.2331	0.0491
400.006	3901.85	73.2154	0.0426
400.006	3902	73.2198	0.0426
400.006	10112.03	336.2335	0.0478
400.006	10112.07	336.2349	0.0478
400.006	10112.16	336.236	0.0478
419.999	1638.85	22.7735	0.0223
419.999	6612.96	148.0687	0.0234
420.001	352.46	4.5346	0.0029
420.001	1638.79	22.7726	0.0223
420.001	1639.4	22.7815	0.0223
420.001	2549.78	37.6995	0.0256
420.001	3592.02	57.6554	0.0295
420.001	6613.14	148.0704	0.0234
420.001	6613.15	148.0735	0.0234
420.001	6780.5	155.1279	0.054
420.001	6780.52	155.1292	0.054
420.001	6780.54	155.129	0.054
420.001	7709.27	196.5954	0.0633
420.001	7709.5	196.6035	0.0633
420.002	352.46	4.5345	0.0029
420.002	991.11	13.2302	0.0039
420.002	992.11	13.2437	0.0039
420.002	1638.97	22.7748	0.0223
420.002	1639.37	22.7817	0.0223
420.002	2549.62	37.6977	0.0256
420.002	2549.85	37.7007	0.0256
420.002	3591.63	57.6483	0.0295
420.002	3591.97	57.6545	0.0295
420.002	3592.26	57.6606	0.0295
420.002	5253.61	99.376	0.0159
420.002	6605.79	147.7521	0.0537
420.002	8228.31	219.0411	0.0461
420.002	8848	242.7681	0.0425
420.002	10126.33	279.9332	0.0427
420.002	20930.34	389.3903	0.0503
420.002	352.46	4.5346	0.0029
420.002	352.46	4.5347	0.0029
420.003	352.47	4.5348	0.0029
420.003	993.37	13.2618	0.0039
420.003	2549.85	37.7006	0.0256
420.003	3591.77	57.649	0.0295
420.003	5253.6	99.3762	0.0159
420.003	5253.72	99.3774	0.0159
420.003	6612.87	148.0725	0.0234
420.003	6613.25	148.0711	0.0234
420.003	6780.59	155.1291	0.054
420.003	6780.6	155.1279	0.054
420.003	7709.63	196.6027	0.0633
420.003	7709.66	196.6082	0.0633
420.003	8228.43	219.0414	0.0461
420.003	8228.44	219.0432	0.0461
420.003	8847.99	242.7678	0.0425
420.003	8848.01	242.7662	0.0425
420.003	8848.05	242.7696	0.0425
420.003	10126.43	279.9331	0.0427
420.003	10126.49	279.9352	0.0427
420.003	10126.55	279.933	0.0427
420.003	20930.6	389.3909	0.0503
420.004	990.94	13.2257	0.0039
420.004	5253.68	99.3766	0.0159
420.004	5253.74	99.3783	0.0159
420.004	6605.85	147.7563	0.0536
420.004	6605.87	147.757	0.0536
420.004	6605.98	147.761	0.0536
420.004	7709.66	196.6051	0.0633
420.004	7709.72	196.6072	0.0633
420.004	7709.78	196.6069	0.0633
420.004	7709.88	196.61	0.0633
420.004	8228.5	219.0437	0.0461
420.004	8228.52	219.042	0.0461
420.004	8848.04	242.7682	0.0425
420.004	8848.06	242.7669	0.0425
420.004	8848.17	242.7722	0.0425
420.004	8848.2	242.768	0.0425
420.004	10126.67	279.936	0.0427
420.004	10126.68	279.9364	0.0427
420.004	10126.69	279.9333	0.0427
420.004	13592.57	335.5362	0.0442
420.004	20930.9	389.3927	0.0503
420.004	20931.04	389.391	0.0503
420.005	629.66	8.229	0.0033
420.005	629.67	8.2291	0.0033
420.005	994.27	13.2745	0.0039
420.005	4243.88	72.25	0.0369
420.005	4243.98	72.2514	0.0369
420.005	6605.9	147.756	0.0536
420.005	6605.97	147.7568	0.0536
420.005	8228.54	219.0426	0.0461
420.005	8228.57	219.0415	0.0461
420.005	10126.67	279.9355	0.0427
420.005	13592.78	335.5369	0.0442
420.005	13592.79	335.5382	0.0442
420.005	13592.84	335.539	0.0442
420.005	20931.42	389.3931	0.0503
420.005	629.67	8.2291	0.0033
420.005	8228.57	219.0433	0.0461
420.006	629.66	8.2291	0.0033
420.006	4243.87	72.2481	0.0369
420.006	4243.94	72.2491	0.0369
420.006	4243.97	72.2505	0.0369
420.006	4244.04	72.2532	0.0369
420.006	6606.02	147.7588	0.0536
420.006	6606.35	147.7714	0.0536
420.006	13592.9	335.5385	0.0442
420.006	13592.96	335.538	0.0442
420.006	13592.97	335.5367	0.0442
420.006	20931.25	389.3925	0.0503
420.006	20931.49	389.394	0.0503
420.006	20931.77	389.3934	0.0503
420.007	629.67	8.229	0.0033
420.007	4243.87	72.2487	0.0369
420.007	4243.99	72.2519	0.0369
420.007	13593.08	335.5379	0.0442
439.999	1733.2	22.75	0.0208
439.999	1733.36	22.752	0.0208
440	1733.23	22.7499	0.0208
440	2722.05	37.7402	0.0236
440	3865.28	57.5255	0.0268
440	3865.46	57.5266	0.0268
440	3865.67	57.532	0.0268
440.001	368.32	4.5138	0.0029
440.001	1733.08	22.7483	0.0208
440.001	1733.25	22.7504	0.0208
440.001	3865.03	57.5204	0.0268
440.001	7535.85	147.9039	0.0221
440.001	7762.51	154.9439	0.0431
440.001	7762.58	154.9446	0.0431
440.001	368.32	4.514	0.0029
440.002	368.32	4.514	0.0029
440.002	2721.49	37.7309	0.0236
440.002	2721.85	37.7372	0.0236
440.002	2721.88	37.7372	0.0236
440.002	3865.41	57.5267	0.0268
440.002	7535.89	147.9034	0.0221
440.002	7762.59	154.9435	0.0431
440.002	7762.6	154.9449	0.0431
440.002	7762.65	154.9454	0.0431
440.002	9826.56	218.701	0.0533
440.002	9826.6	218.7018	0.0533
440.002	9826.62	218.7004	0.0533
440.002	368.32	4.5139	0.0029
440.002	368.32	4.514	0.0029
440.003	5803.89	99.3306	0.0157
440.003	5803.91	99.3318	0.0157
440.003	5803.97	99.3333	0.0157
440.003	7535.97	147.9038	0.0221
440.003	9826.65	218.7006	0.0533
440.003	9826.67	218.7017	0.0533
440.003	9826.68	218.7	0.0533
440.004	1032.49	13.0703	0.0039
440.004	1032.79	13.0744	0.0039
440.004	2721.72	37.7344	0.0236
440.004	4613.05	72.2323	0.0121
440.004	5803.98	99.3338	0.0157
440.004	7535.94	147.904	0.0221
440.004	9826.67	218.701	0.0533
440.004	9826.72	218.7005	0.0533
440.005	658.93	8.1892	0.0033
440.005	658.95	8.1897	0.0033
440.005	1032.51	13.0712	0.0039
440.005	4613.06	72.2413	0.0121
440.005	4613.08	72.2418	0.0121
440.005	4613.09	72.2337	0.0121
440.005	7526.77	147.6099	0.0424
440.005	7526.78	147.6113	0.0424
440.005	7526.8	147.6112	0.0424
440.006	658.95	8.1894	0.0033
440.006	1032.45	13.0692	0.0039
440.006	1032.76	13.0752	0.0039
440.006	4613.05	72.2397	0.0121
440.006	4613.1	72.2408	0.0121
440.006	4613.12	72.2337	0.0121
440.006	7526.82	147.6126	0.0424
440.006	7526.88	147.6132	0.0424
440.007	658.93	8.1888	0.0033
440.007	658.95	8.1895	0.0033
440.007	7526.81	147.6103	0.0424
440.007	7526.83	147.6105	0.0424
440.007	7526.9	147.6118	0.0424
459.995	8731.73	154.7673	0.037
459.998	8731.87	154.7678	0.037
459.999	8731.91	154.7681	0.037
460	4123.01	57.2169	0.0247
460	4123.62	57.2271	0.0247
460	4123.75	57.2284	0.0247
460	8731.98	154.7704	0.037
460.001	1830.35	22.7747	0.0196
460.001	1830.72	22.7788	0.0196
460.001	2892.59	37.7743	0.0219
460.001	8444.98	147.7184	0.0219
460.001	8444.99	147.7184	0.0219
460.001	8445.12	147.7212	0.0219
460.001	8732.05	154.7685	0.037
460.002	1830.74	22.7791	0.0196
460.002	1830.92	22.7814	0.0196
460.002	2892.36	37.7704	0.0219
460.002	4123.1	57.2175	0.0247
460.002	4123.45	57.2232	0.0247
460.002	6345.58	99.2922	0.0157
460.002	8444.99	147.7192	0.0219
460.002	8445.02	147.7172	0.0219
460.002	11419.84	218.3537	0.0479
460.003	1830.71	22.7788	0.0196
460.003	2892.37	37.7706	0.0219
460.003	2892.47	37.7721	0.0219
460.003	6345.61	99.2934	0.0157
460.004	384.07	4.4945	0.0029
460.004	1046.52	12.5879	0.0038
460.004	2892.52	37.7722	0.0219
460.004	4978.62	72.2622	0.0121
460.004	6345.55	99.2912	0.0157
460.004	6345.57	99.2905	0.0157
460.004	11419.8	218.3506	0.0479
460.004	11419.85	218.352	0.0479
460.004	11419.87	218.353	0.0479
460.004	11419.88	218.3534	0.0479
460.004	384.07	4.4943	0.0029
460.004	11419.87	218.3509	0.0479
460.004	11419.88	218.3518	0.0479
460.005	384.07	4.4946	0.0029
460.005	687.74	8.1494	0.0033
460.005	1046.09	12.5822	0.0038
460.005	1046.36	12.585	0.0038
460.005	4978.47	72.26	0.012
460.005	11419.92	218.3518	0.0479
460.005	384.07	4.4943	0.0029
460.005	687.74	8.1494	0.0033
460.005	384.07	4.4942	0.0029
460.006	687.74	8.1493	0.0033
460.006	687.75	8.1496	0.0033
460.006	1046.59	12.591	0.0038
460.006	4978.72	72.2625	0.0121
460.006	4978.76	72.2648	0.0121
460.006	4978.88	72.2656	0.0121
460.006	4978.89	72.2671	0.0121
460.006	4978.92	72.2665	0.0121
460.007	687.75	8.1495	0.0033
460.007	1046.37	12.5877	0.0038
460.007	4978.92	72.2663	0.0121
460.007	8434.88	147.4594	0.0365
460.008	8435.06	147.4621	0.0365
460.008	8435.18	147.4636	0.0365
460.009	8435	147.4596	0.0365
460.009	8435.14	147.4636	0.0365
460.009	8435.19	147.4634	0.0365
460.009	8435.2	147.4656	0.0365
460.01	8435.08	147.461	0.0365
479.998	9689.75	154.5753	0.0338
479.998	9690.06	154.5789	0.0337
479.999	9690.19	154.5814	0.0338
480.001	1924.86	22.769	0.0184
480.001	1924.92	22.7696	0.0184
480.001	4377.56	56.955	0.0101
480.001	9690.04	154.5764	0.0338
480.002	1925.11	22.7716	0.0184
480.002	3069.46	37.9086	0.0207
480.002	3069.6	37.9115	0.0207
480.002	4377.12	56.9487	0.0101
480.002	4377.21	56.9487	0.0101
480.002	9343.83	147.5479	0.0221
480.002	9343.89	147.5489	0.0221
480.002	9343.92	147.5515	0.0221
480.002	9690.18	154.58	0.0338
480.003	716.13	8.1078	0.0033
480.003	1925.01	22.771	0.0184
480.003	3069.01	37.9021	0.0207
480.003	4376.6	56.9392	0.0101
480.003	9344.04	147.5513	0.0221
480.003	13007.13	218.0122	0.0412
480.003	716.13	8.1079	0.0033
480.004	716.13	8.108	0.0033
480.004	1925.08	22.7708	0.0184
480.004	3069.17	37.9044	0.0207
480.004	4376.8	56.9424	0.0101
480.004	5340.52	72.2831	0.0121
480.004	9330.82	147.2764	0.033
480.004	9330.87	147.2777	0.033
480.004	9344.11	147.5499	0.0221
480.004	13007.15	218.0131	0.0413
480.004	716.13	8.1078	0.0033
480.005	716.12	8.1077	0.0033
480.005	1038.11	11.8882	0.0037
480.005	3069.22	37.905	0.0207
480.005	5340.48	72.2827	0.0121
480.005	5340.57	72.285	0.0121
480.005	6880.91	99.2607	0.0159
480.005	6880.92	99.2626	0.0159
480.005	6881	99.2628	0.0159
480.005	9330.83	147.2775	0.033
480.005	9330.89	147.275	0.033
480.005	9330.97	147.2785	0.033
480.005	13007.28	218.0128	0.0412
480.005	13007.33	218.0139	0.0412
480.005	13007.37	218.0145	0.0412
480.006	399.65	4.4746	0.0029
480.006	1038.84	11.899	0.0037
480.006	1039.32	11.9056	0.0037
480.006	1041.92	11.9354	0.0037
480.006	5340.54	72.2834	0.0121
480.006	6880.91	99.2609	0.0159
480.006	9330.94	147.2768	0.033
480.006	9330.96	147.2795	0.033
480.006	9331.05	147.281	0.033
480.006	13007.51	218.0156	0.0413
480.006	399.65	4.4747	0.0029
480.006	399.65	4.4744	0.0029
480.006	399.65	4.4746	0.0029
480.006	399.65	4.4747	0.0029
480.007	1039.12	11.9024	0.0037
480.007	5340.52	72.2836	0.0121
480.007	5340.55	72.2841	0.0121
480.007	5340.59	72.2848	0.0121
480.007	6880.92	99.2601	0.0159
480.007	13007.41	218.0143	0.0413
480.007	13007.5	218.0155	0.0413
480.008	5340.55	72.2843	0.0121
499.997	10637.39	154.3777	0.0317
499.998	10637.4	154.3785	0.0317
499.999	10637.35	154.3778	0.0317
500	10637.25	154.3737	0.0317
500.001	2016.79	22.7381	0.0175
500.001	2017	22.7394	0.0175
500.001	4644.51	56.9398	0.0102
500.001	4644.65	56.941	0.0102
500.001	7408.74	99.2014	0.0159
500.001	10637.32	154.3751	0.0317
500.002	2016.68	22.7375	0.0175
500.002	4643.73	56.9284	0.0102
500.002	10233.98	147.3916	0.0224
500.003	415.04	4.4539	0.0029
500.003	2016.9	22.7385	0.0175
500.003	3243.55	38.0051	0.0195
500.003	3243.65	38.0059	0.0195
500.003	3243.88	38.0086	0.0195
500.003	4644.4	56.9376	0.0102
500.003	10218.01	147.1091	0.0309
500.003	10233.99	147.3918	0.0224
500.003	10234.02	147.3914	0.0224
500.003	14582.49	217.6486	0.0383
500.003	14582.56	217.6493	0.0383
500.004	415.05	4.454	0.0029
500.004	1058.41	11.5875	0.0037
500.004	3242.84	37.9947	0.0195
500.004	3243.73	38.0062	0.0195
500.004	4644	56.9317	0.0102
500.004	7408.7	99.1992	0.0159
500.004	7408.79	99.1996	0.0159
500.004	14582.21	217.6451	0.0383
500.005	415.04	4.454	0.0029
500.005	744.3	8.0688	0.0033
500.005	744.34	8.0689	0.0033
500.005	1058.38	11.5868	0.0037
500.005	7408.77	99.1999	0.0159
500.005	10218.33	147.1143	0.0309
500.005	10218.47	147.1144	0.0309
500.005	10218.52	147.1154	0.0309
500.005	10234.06	147.3926	0.0224
500.005	10234.13	147.3917	0.0224
500.005	14582.22	217.6444	0.0383
500.005	415.04	4.4539	0.0029
500.006	415.04	4.4539	0.0029
500.006	744.34	8.069	0.0033
500.006	1058.7	11.5888	0.0037
500.006	1059.32	11.5965	0.0037
500.006	5697.77	72.2799	0.0123
500.006	5697.78	72.2817	0.0123
500.006	5697.85	72.2822	0.0123
500.006	10218.27	147.1119	0.0309
500.006	10218.38	147.1159	0.0309
500.006	14582.09	217.6406	0.0383
500.006	14582.44	217.6445	0.0383
500.006	14582.52	217.6471	0.0383
500.006	14582.56	217.6472	0.0383
500.006	744.34	8.069	0.0033
500.007	744.35	8.069	0.0033
500.007	1058.35	11.5848	0.0037
500.007	5697.68	72.2794	0.0123
500.007	5697.73	72.2805	0.0123
500.007	5697.78	72.2813	0.0123
500.008	5697.66	72.2784	0.0123
500.008	5697.75	72.2802	0.0123
500.008	10218.66	147.1176	0.0309
500.008	10218.68	147.1164	0.0309
