Measured thermophysical data. Solubility of HFC134a (1,1,1,2-Tetrafluoroethane) in Two Dialkyl Carbonates
Source: J. Chem. Eng. Data, 2009, 10.1021/je900138j
Compound 1: dimethyl carbonate, C3H6O3, InChI=1S/C3H6O3/c1-5-3(4)6-2/h1-2H3, purity 99%
Compound 2: 1,1,1,2-tetrafluoroethane, C2H2F4, InChI=1S/C2H2F4/c3-1-2(4,5)6/h1H2, purity 99.7%
Compound 3: diethyl carbonate, C5H10O3, InChI=1S/C5H10O3/c1-3-7-5(6)8-4-2/h3-4H2,1-2H3, purity 99.5%

System: dimethyl carbonate + 1,1,1,2-tetrafluoroethane; phases: Liquid, Gas
Fixed: Pressure, kPa of 1,1,1,2-tetrafluoroethane = 101.33
Property: Mole fraction of 1,1,1,2-tetrafluoroethane (Liquid); method: Volumetric Method
Temperature, K	Mole fraction of 1,1,1,2-tetrafluoroethane	uncertainty
278.15	0.3098	0.0063
283.15	0.2514	0.0051
288.15	0.2063	0.0042
293.15	0.1729	0.0035
298.15	0.1432	0.0029
308.15	0.1125	0.0023

System: diethyl carbonate + 1,1,1,2-tetrafluoroethane; phases: Liquid, Gas
Fixed: Pressure, kPa of 1,1,1,2-tetrafluoroethane = 101.33
Property: Mole fraction of 1,1,1,2-tetrafluoroethane (Liquid); method: Volumetric Method
Temperature, K	Mole fraction of 1,1,1,2-tetrafluoroethane	uncertainty
263.15	0.5364	0.0109
268.15	0.4449	0.0091
273.15	0.3688	0.0075
278.15	0.3115	0.0063
288.15	0.2217	0.0045
298.15	0.154	0.0032
