Measured thermophysical data. Viscosity, Interfacial Tension, Density, and Refractive Index of Ionic Liquids [EMIM][MeSO3], [EMIM][MeOHPO2], [EMIM][OcSO4], and [BBIM][NTf2] in Dependence on Temperature at Atmospheric Pressure
Source: J. Chem. Eng. Data, 2009, 10.1021/je900134z
Compound 1: 1-ethyl-3-methylimidazolium methanesulfonate, C7H14N2O3S, InChI=1S/C6H11N2.CH4O3S/c1-3-8-5-4-7(2)6-8;1-5(2,3)4/h4-6H,3H2,1-2H3;1H3,(H,2,3,4)/q+1;/p-1
Compound 2: 1-ethyl-3-methylimidazolium methyl phosphonate, C7H15N2O3P, InChI=1S/C6H11N2.CH5O3P/c1-3-8-5-4-7(2)6-8;1-4-5(2)3/h4-6H,3H2,1-2H3;5H,1H3,(H,2,3)/q+1;/p-1
Compound 3: 1-ethyl-3-methylimidazolium octyl sulfate, C14H28N2O4S, InChI=1S/C8H18O4S.C6H11N2/c1-2-3-4-5-6-7-8-12-13(9,10)11;1-3-8-5-4-7(2)6-8/h2-8H2,1H3,(H,9,10,11);4-6H,3H2,1-2H3/q;+1/p-1
Compound 4: 1,3-dibutyl-1H-imidazolium bis((trifluoromethyl)sulfonyl)amide, C13H21F6N3O4S2, InChI=1S/C11H21N2.C2F6NO4S2/c1-3-5-7-12-9-10-13(11-12)8-6-4-2;3-1(4,5)14(10,11)9-15(12,13)2(6,7)8/h9-11H,3-8H2,1-2H3;/q+1;-1

System: 1-ethyl-3-methylimidazolium methanesulfonate; phases: Liquid
Fixed: Pressure, kPa = 101.325
Property: Refractive index (Na D-line) (Liquid); method: ABBE:UFactor:4
Temperature, K	Refractive index (Na D-line)	uncertainty
283.15	1.5018	0.0015
293.15	1.4996	0.0015
303.15	1.4977	0.0015
313.15	1.4949	0.0015

System: 1-ethyl-3-methylimidazolium methanesulfonate; phases: Liquid
Fixed: Pressure, kPa = 101.325
Property: Mass density, kg/m3 (Liquid); method: VIBTUB:UFactor:8
Temperature, K	Mass density, kg/m3	uncertainty
273.15	1259.14	1.56
278.15	1255.59	1.55
283.15	1252.04	1.53
288.15	1248.49	1.52
293.15	1244.96	1.51
298.15	1241.52	1.49
303.15	1238.15	1.47
308.15	1234.77	1.46
313.15	1231.4	1.45
318.15	1228.03	1.44
328.15	1221.33	1.42
333.15	1218	1.41
338.15	1214.69	1.39
343.15	1211.38	1.38
348.15	1208.09	1.37
353.15	1204.82	1.36
358.15	1201.56	1.35
363.15	1198.31	1.34

System: 1-ethyl-3-methylimidazolium methanesulfonate; phases: Liquid, Air at 1 atmosphere
Property: Surface tension liquid-gas, N/m (Liquid); method: Drop weight
Temperature, K	Surface tension liquid-gas, N/m	uncertainty
293.15	0.05072	0.00106

System: 1-ethyl-3-methylimidazolium methanesulfonate; phases: Liquid
Fixed: Pressure, kPa = 101.325
Property: Viscosity, Pa*s (Liquid); method: Surface Light Scattering
Temperature, K	Viscosity, Pa*s	uncertainty
273.15	1.1126	0.067
278.15	0.6763	0.0408
283.15	0.4355	0.0262
288.15	0.2901	0.0175
293.15	0.2052	0.0124
303.15	0.1129	0.0068
313.15	0.069	0.0042
323.15	0.0446	0.0027
333.15	0.0317	0.0019

System: 1-ethyl-3-methylimidazolium methyl phosphonate; phases: Liquid
Fixed: Pressure, kPa = 101.325
Property: Refractive index (Na D-line) (Liquid); method: ABBE:UFactor:4
Temperature, K	Refractive index (Na D-line)	uncertainty
283.15	1.4969	0.0016
293.15	1.4935	0.0016
303.15	1.4928	0.0016
313.15	1.4902	0.0016

System: 1-ethyl-3-methylimidazolium methyl phosphonate; phases: Liquid
Fixed: Pressure, kPa = 101.325
Property: Mass density, kg/m3 (Liquid); method: VIBTUB:UFactor:8
Temperature, K	Mass density, kg/m3	uncertainty
273.15	1208.75	2.2
278.15	1205.29	2.19
283.15	1201.82	2.17
288.15	1198.42	2.15
293.15	1195.12	2.13
298.15	1191.82	2.11
303.15	1188.5	2.1
308.15	1185.21	2.08
313.15	1181.92	2.06
318.15	1178.65	2.05
323.15	1175.39	2.03
328.15	1172.14	2.01
333.15	1168.89	2
338.15	1165.66	1.98
343.15	1162.45	1.97
348.15	1159.25	1.95
353.15	1156.06	1.93
358.15	1152.9	1.92
363.15	1149.73	1.91

System: 1-ethyl-3-methylimidazolium methyl phosphonate; phases: Liquid, Air at 1 atmosphere
Property: Surface tension liquid-gas, N/m (Liquid); method: Drop weight
Temperature, K	Surface tension liquid-gas, N/m	uncertainty
293.15	0.04549	0.00103

System: 1-ethyl-3-methylimidazolium methyl phosphonate; phases: Liquid
Fixed: Pressure, kPa = 101.325
Property: Viscosity, Pa*s (Liquid); method: Surface Light Scattering
Temperature, K	Viscosity, Pa*s	uncertainty
273.15	0.5639	0.0343
278.15	0.3796	0.0231
283.15	0.2666	0.0162
288.15	0.1932	0.0118
293.15	0.1431	0.0087
303.15	0.0834	0.0051
313.15	0.0539	0.0033
323.15	0.0364	0.0022
333.15	0.0274	0.0017

System: 1-ethyl-3-methylimidazolium octyl sulfate; phases: Liquid
Fixed: Pressure, kPa = 101.325
Property: Refractive index (Na D-line) (Liquid); method: ABBE:UFactor:4
Temperature, K	Refractive index (Na D-line)	uncertainty
283.15	1.4786	0.0015
293.15	1.4766	0.0015
303.15	1.4737	0.0015
313.15	1.4712	0.0015

System: 1-ethyl-3-methylimidazolium octyl sulfate; phases: Liquid
Fixed: Pressure, kPa = 101.325
Property: Mass density, kg/m3 (Liquid); method: VIBTUB:UFactor:8
Temperature, K	Mass density, kg/m3	uncertainty
273.15	1111.56	1.14
278.15	1108	1.14
283.15	1104.34	1.13
288.15	1100.82	1.1
293.15	1097.48	1.08
298.15	1094.15	1.07
303.15	1090.83	1.06
308.15	1087.52	1.05
313.15	1084.2	1.04
318.15	1080.97	1.03
328.15	1074.55	1.01
333.15	1071.34	1
338.15	1068.14	1
343.15	1064.94	0.99
348.15	1061.76	0.98
353.15	1058.59	0.97
358.15	1055.42	0.96
363.15	1052.26	0.96

System: 1-ethyl-3-methylimidazolium octyl sulfate; phases: Liquid, Air at 1 atmosphere
Property: Surface tension liquid-gas, N/m (Liquid); method: Drop weight
Temperature, K	Surface tension liquid-gas, N/m	uncertainty
293.15	0.031	0.00065

System: 1-ethyl-3-methylimidazolium octyl sulfate; phases: Liquid
Fixed: Pressure, kPa = 101.325
Property: Viscosity, Pa*s (Liquid); method: Surface Light Scattering
Temperature, K	Viscosity, Pa*s	uncertainty
273.15	3.8948	0.2347
278.15	2.4299	0.1465
283.15	1.5785	0.0951
288.15	1.0451	0.063
293.15	0.7178	0.0432
303.15	0.3681	0.0222
313.15	0.2081	0.0125
323.15	0.1262	0.0076
333.15	0.0809	0.0049

System: 1,3-dibutyl-1H-imidazolium bis((trifluoromethyl)sulfonyl)amide; phases: Liquid
Fixed: Pressure, kPa = 101.325
Property: Refractive index (Na D-line) (Liquid); method: ABBE:UFactor:4
Temperature, K	Refractive index (Na D-line)	uncertainty
283.15	1.4376	0.0016
293.15	1.4347	0.0015
303.15	1.4324	0.0015
313.15	1.4298	0.0015

System: 1,3-dibutyl-1H-imidazolium bis((trifluoromethyl)sulfonyl)amide; phases: Liquid
Fixed: Pressure, kPa = 101.325
Property: Mass density, kg/m3 (Liquid); method: VIBTUB:UFactor:8
Temperature, K	Mass density, kg/m3	uncertainty
273.15	1362.73	2
278.15	1358.06	1.98
283.15	1353.51	1.96
288.15	1349.01	1.94
293.15	1344.5	1.93
298.15	1340.01	1.91
303.15	1335.51	1.9
308.15	1331.02	1.88
313.15	1326.56	1.87
318.15	1322.09	1.85
328.15	1313.2	1.82
333.15	1308.77	1.81
338.15	1304.36	1.79
343.15	1299.99	1.78
348.15	1295.57	1.76
353.15	1291.2	1.75
358.15	1286.84	1.73
363.15	1282.5	1.72

System: 1,3-dibutyl-1H-imidazolium bis((trifluoromethyl)sulfonyl)amide; phases: Liquid, Air at 1 atmosphere
Property: Surface tension liquid-gas, N/m (Liquid); method: Drop weight
Temperature, K	Surface tension liquid-gas, N/m	uncertainty
293.15	0.02955	0.00062

System: 1,3-dibutyl-1H-imidazolium bis((trifluoromethyl)sulfonyl)amide; phases: Liquid
Fixed: Pressure, kPa = 101.325
Property: Viscosity, Pa*s (Liquid); method: Surface Light Scattering
Temperature, K	Viscosity, Pa*s	uncertainty
273.15	0.2779	0.0167
278.15	0.203	0.0122
283.15	0.1521	0.0092
288.15	0.1153	0.0069
293.15	0.0895	0.0054
303.15	0.0572	0.0034
313.15	0.0379	0.0023
323.15	0.0265	0.0016
333.15	0.0192	0.0012
