Measured thermophysical data. Solubilities of 1,1'-(Propane-1,3-diyl)-bis(pyridinium) Dihexafluorophosphate in Dimethyl Sulfoxide + Water
Source: J. Chem. Eng. Data, 2010, 10.1021/je900386p
Compound 1: 1,1'-(1,3-propanediyl)bis-pyridinium hexafluorophosphate, C13H16F12N2P2, InChI=1S/C13H16N2.2F6P/c1-3-8-14(9-4-1)12-7-13-15-10-5-2-6-11-15;2*1-7(2,3,4,5)6/h1-6,8-11H,7,12-13H2;;/q+2;2*-1, purity 99%
Compound 2: dimethyl sulfoxide, C2H6OS, InChI=1S/C2H6OS/c1-4(2)3/h1-2H3, purity 99%
Compound 3: water, H2O, InChI=1S/H2O/h1H2

System: 1,1'-(1,3-propanediyl)bis-pyridinium hexafluorophosphate; phases: Crystal, Liquid, Air at 1 atmosphere
Property: Normal melting temperature, K (Crystal); method: VISOBS
Normal melting temperature, K	uncertainty
557.7	1.44

System: dimethyl sulfoxide + water + 1,1'-(1,3-propanediyl)bis-pyridinium hexafluorophosphate; phases: Liquid, Crystal
Fixed: Pressure, kPa = 101
Property: Mole fraction of 1,1'-(1,3-propanediyl)bis-pyridinium hexafluorophosphate (Liquid); method: dynamic method
Temperature, K	Solvent: Mole fraction of water	Mole fraction of 1,1'-(1,3-propanediyl)bis-pyridinium hexafluorophosphate	uncertainty
290.85	0.1	0.04322	0.001852
296.35	0.1	0.04692	0.002009
301.55	0.1	0.04871	0.002086
306.85	0.1	0.05198	0.002232
311.65	0.1	0.05828	0.002507
316.65	0.1	0.06319	0.002723
320.95	0.1	0.07135	0.003074
326.35	0.1	0.07696	0.003311
293.25	0.2	0.02701	0.001168
299.75	0.2	0.02976	0.001287
305.35	0.2	0.03142	0.001358
313.45	0.2	0.03381	0.001463
318.65	0.2	0.03757	0.001631
322.75	0.2	0.04098	0.001777
329.55	0.2	0.04545	0.001972
333.75	0.2	0.04943	0.002148
293.15	0.3	0.00877	0.000414
298.35	0.3	0.01042	0.000465
303.65	0.3	0.01194	0.000525
309.65	0.3	0.01298	0.000569
314.55	0.3	0.01491	0.000653
318.65	0.3	0.01633	0.000717
321.55	0.3	0.01775	0.000779
327.65	0.3	0.01981	0.000925
290.45	0.4	0.00249	0.000114
300.95	0.4	0.00404	0.000182
306.45	0.4	0.00502	0.000229
310.55	0.4	0.00567	0.000253
316.15	0.4	0.00691	0.00031
320.95	0.4	0.008	0.000361
325.65	0.4	0.00942	0.000423
332.15	0.4	0.01146	0.000561
293.65	0.5	0.000404	4.1e-05
302.15	0.5	0.000768	3.8e-05
307.15	0.5	0.00107	5e-05
312.15	0.5	0.0015	7.1e-05
317.25	0.5	0.00211	9.6e-05
322.45	0.5	0.00281	0.000132
326.95	0.5	0.00377	0.000178
332.95	0.5	0.00524	0.000263
291.55	0.6	0.00032	1.6e-05
314.65	0.6	0.00117	5.7e-05
297.55	0.6	0.00045	2.2e-05
305.25	0.6	0.00069	3.3e-05
311.25	0.6	0.00096	4.7e-05
323.35	0.6	0.00185	8.9e-05
328.15	0.6	0.00236	0.000114
334.55	0.6	0.00321	0.000156
292.45	0.7	0.000207	1.1e-05
298.35	0.7	0.00032	1.6e-05
303.55	0.7	0.000442	2.2e-05
307.85	0.7	0.000581	2.9e-05
314.25	0.7	0.000811	4.1e-05
320.95	0.7	0.00113	5.7e-05
327.45	0.7	0.00143	7.1e-05
337.05	0.7	0.00201	0.0001
292.25	0.8	0.000125	7e-06
296.65	0.8	0.000165	9e-06
299.45	0.8	0.000194	1.1e-05
306.45	0.8	0.000292	1.6e-05
315.15	0.8	0.000463	2.5e-05
320.05	0.8	0.000584	3.1e-05
330.95	0.8	0.000936	5e-05
337.05	0.8	0.0012	6.4e-05
294.15	0.9	0.000106	6e-06
300.15	0.9	0.000141	8e-06
307.25	0.9	0.000191	1.1e-05
312.65	0.9	0.000241	1.4e-05
318.15	0.9	0.000299	1.8e-05
323.15	0.9	0.000379	2.3e-05
328.35	0.9	0.000467	2.8e-05
333.25	0.9	0.000575	3.4e-05
