Measured thermophysical data. Isobaric Vapor-Liquid Equilibrium for (Propan-2-ol + Water + 1-Butyl-3-methylimidazolium Tetrafluoroborate)
Source: J. Chem. Eng. Data, 2009, 10.1021/je9000922
Compound 1: 1-butyl-3-methylimidazolium tetrafluoroborate, C8H15BF4N2, InChI=1S/C8H15N2.BF4/c1-3-4-5-10-7-6-9(2)8-10;2-1(3,4)5/h6-8H,3-5H2,1-2H3;/q+1;-1, purity 98%
Compound 2: propan-2-ol, C3H8O, InChI=1S/C3H8O/c1-3(2)4/h3-4H,1-2H3
Compound 3: water, H2O, InChI=1S/H2O/h1H2

System: propan-2-ol; phases: Liquid, Gas
Property: Vapor or sublimation pressure, kPa (Liquid); method: EBULLIO:UFactor:8
Temperature, K	Vapor or sublimation pressure, kPa	uncertainty
355.65	101.32	3.05

System: propan-2-ol + water; phases: Gas, Liquid
Fixed: Pressure, kPa = 101.32
Property: Boiling temperature at pressure P, K (Gas); method: EBULLIO:UFactor:8
Mole fraction of propan-2-ol	Boiling temperature at pressure P, K	uncertainty
0	373.15	0.68
0.487	356.62	0.84
0.5	355.04	0.7
0.532	354.69	0.68
0.554	354.04	0.69
0.574	353.74	0.68
0.608	353.34	0.68
0.662	353.55	0.68
0.739	353.76	0.68
0.835	354.15	0.68
0.874	354.25	0.68
1	355.65	0.68

System: propan-2-ol + water; phases: Liquid, Gas
Fixed: Pressure, kPa = 101.32
Property: Mole fraction of propan-2-ol (Liquid); method: CHROM:UFactor:16
Mole fraction of propan-2-ol	Mole fraction of propan-2-ol	uncertainty
0.487	0.082	0.028
0.5	0.168	0.026
0.532	0.262	0.035
0.554	0.354	0.047
0.574	0.452	0.058
0.608	0.558	0.056
0.662	0.655	0.043
0.739	0.759	0.03
0.835	0.884	0.015
0.874	0.911	0.011

System: propan-2-ol + water + 1-butyl-3-methylimidazolium tetrafluoroborate; phases: Liquid, Gas
Fixed: Pressure, kPa = 101.32
Property: Boiling temperature at pressure P, K (Liquid); method: EBULLIO:UFactor:8
Solvent: Mole fraction of propan-2-ol	Mole fraction of 1-butyl-3-methylimidazolium tetrafluoroborate	Boiling temperature at pressure P, K	uncertainty
0.017	0.09951	367.98	0.76
0.035	0.19734	369.8	0.71
0.055	0.29934	370.94	0.72
0.062	0.1	364.43	0.74
0.126	0.29961	367.36	0.72
0.127	0.19801	365.23	0.7
0.142	0.10001	359.75	0.72
0.202	0.29728	363.51	0.71
0.245	0.09975	357.17	0.73
0.272	0.29915	361.06	0.69
0.285	0.09999	356.46	0.72
0.294	0.19666	361.84	0.69
0.372	0.29697	359.97	0.68
0.409	0.19702	358.56	0.69
0.451	0.10035	355.44	0.69
0.473	0.2999	359.74	0.68
0.474	0.19982	358.1	0.69
0.561	0.19961	356.46	0.69
0.562	0.29666	358.86	0.69
0.599	0.10035	355.06	0.68
0.633	0.20014	356.28	0.69
0.699	0.0994	355.07	0.68
0.705	0.19953	356.41	0.68
0.75	0.29953	358.5	0.69
0.766	0.10014	355.25	0.68
0.784	0.29834	359.15	0.71
0.863	0.19959	356.65	0.69
0.877	0.09987	355.57	0.68
0.918	0.19755	356.97	0.69
0.933	0.29922	359.34	0.69
0.946	0.09971	355.9	0.68

System: propan-2-ol + water + 1-butyl-3-methylimidazolium tetrafluoroborate; phases: Gas, Liquid
Fixed: Pressure, kPa = 101.32
Property: Mole fraction of propan-2-ol (Gas); method: CHROM:UFactor:8
Solvent: Mole fraction of propan-2-ol	Mole fraction of 1-butyl-3-methylimidazolium tetrafluoroborate	Mole fraction of propan-2-ol	uncertainty
0.017	0.09951	0.17	0.018
0.035	0.19734	0.187	0.015
0.055	0.29934	0.214	0.019
0.062	0.1	0.316	0.025
0.126	0.29961	0.382	0.029
0.127	0.19801	0.337	0.025
0.142	0.10001	0.423	0.032
0.202	0.29728	0.476	0.036
0.245	0.09975	0.524	0.036
0.272	0.29915	0.571	0.033
0.285	0.09999	0.531	0.035
0.294	0.19666	0.44	0.033
0.372	0.29697	0.655	0.027
0.409	0.19702	0.528	0.035
0.451	0.10035	0.62	0.029
0.473	0.2999	0.71	0.022
0.474	0.19982	0.586	0.031
0.561	0.19961	0.632	0.028
0.562	0.29666	0.768	0.018
0.599	0.10035	0.673	0.025
0.633	0.20014	0.698	0.023
0.699	0.0994	0.734	0.02
0.705	0.19953	0.76	0.018
0.75	0.29953	0.857	0.011
0.766	0.10014	0.787	0.016
0.784	0.29834	0.868	0.01
0.863	0.19959	0.889	0.009
0.877	0.09987	0.852	0.012
0.918	0.19755	0.932	0.007
0.933	0.29922	0.951	0.006
0.946	0.09971	0.924	0.008
