Measured thermophysical data. Measurement and thermodynamic modeling of the phase equilibrium of aqueous 2-amino-2-methyl-1-propanol solutions
Source: Fluid Phase Equilib., 2006, 10.1016/j.fluid.2006.03.014
Compound 1: 2-amino-2-methylpropan-1-ol, C4H11NO, InChI=1S/C4H11NO/c1-4(2,5)3-6/h6H,3,5H2,1-2H3, purity 99%
Compound 2: water, H2O, InChI=1S/H2O/h1H2

System: 2-amino-2-methylpropan-1-ol; phases: Liquid, Gas
Property: Vapor or sublimation pressure, kPa (Liquid); method: EBULLIO:UFactor:32
Temperature, K	Vapor or sublimation pressure, kPa	uncertainty
373.25	8	0.4
381.35	12	0.4
388.05	16	0.4
393.05	20	0.4
397.25	24	0.4
401.05	28	0.5
404.45	32	0.5
407.75	36	0.5
410.35	40	0.5
412.95	44	0.5
415.15	48	0.6
416.65	50.7	0.6
418.15	53.3	0.6
419.95	57.3	0.6
421.85	61.3	0.6
423.65	65.3	0.6
424.45	66.7	0.6
425.55	69.3	0.7
427.15	73.3	0.7
429.65	80	0.7
429.75	80	0.7
431.85	85.3	0.7
433.65	90.7	0.8
435.35	96	0.8
436.85	101.3	0.9

System: 2-amino-2-methylpropan-1-ol + water; phases: Liquid, Gas
Property: Boiling temperature at pressure P, K (Liquid); method: EBULLIO:UFactor:24
Mole fraction of 2-amino-2-methylpropan-1-ol	Pressure, kPa	Boiling temperature at pressure P, K	uncertainty
0	66.7	361.85	1.14
0	80	366.65	1.12
0	101.3	373.15	1.18
0.118	66.7	364.45	0.98
0.12	101.3	374.35	1.18
0.121	80	368.55	0.97
0.251	101.3	377.75	1.19
0.273	66.7	367.55	0.96
0.289	80	372.15	1.06
0.375	101.3	380.85	1.27
0.388	80	375.35	1.08
0.414	66.7	371.05	1.09
0.51	80	379.75	1.23
0.529	66.7	375.35	1.15
0.605	101.3	390.95	1.45
0.641	80	385.85	1.28
0.665	66.7	381.65	0.92
0.723	101.3	398.65	1.36
0.807	101.3	406.55	1.39
0.815	80	400.65	1.18
0.821	66.7	395.25	0.93
0.901	66.7	407.25	1.03
0.901	80	412.25	1.02
0.901	101.3	418.05	1.45
1	66.7	424.45	1.26
1	80	429.75	1.23
1	101.3	436.85	1.29

System: 2-amino-2-methylpropan-1-ol + water; phases: Gas, Liquid
Property: Mole fraction of 2-amino-2-methylpropan-1-ol (Gas); method: Index of refraction calibration data
Mole fraction of 2-amino-2-methylpropan-1-ol	Pressure, kPa	Mole fraction of 2-amino-2-methylpropan-1-ol	uncertainty
0	66.7	0	0.001
0	80	0	0.001
0	101.3	0	0.001
0.118	66.7	0.012	0.012
0.12	101.3	0.015	0.014
0.121	80	0.014	0.014
0.251	101.3	0.03	0.014
0.273	66.7	0.028	0.014
0.289	80	0.031	0.014
0.375	101.3	0.05	0.014
0.388	80	0.044	0.014
0.414	66.7	0.045	0.014
0.51	80	0.069	0.014
0.529	66.7	0.069	0.014
0.605	101.3	0.117	0.014
0.641	80	0.114	0.014
0.665	66.7	0.117	0.014
0.723	101.3	0.181	0.014
0.807	101.3	0.273	0.014
0.815	80	0.276	0.014
0.821	66.7	0.267	0.014
0.901	66.7	0.486	0.014
0.901	80	0.484	0.014
0.901	101.3	0.486	0.014
1	66.7	1	0.001
1	80	1	0.001
1	101.3	1	0.001
