Measured thermophysical data. Measurement and correlation of solubility of N-chlorobenzenesulfonamide sodium and N-chloro-4-toluenesulfonamide sodium in binary ethanol + propan-2-ol mixtures from 278.00 K to 323.00 K
Source: Fluid Phase Equilib., 2013, 10.1016/j.fluid.2013.02.007
Compound 1: N-chloro-4-methylbenzenesulfonamide, sodium salt (1:1), C7H7ClNNaO2S, InChI=1S/C7H7ClNO2S.Na/c1-6-2-4-7(5-3-6)12(10,11)9-8;/h2-5H,1H3;/q-1;+1, purity 99%
Compound 2: N-chlorobenzenesulfonamide, sodium salt (1:1), C6H5ClNNaO2S, InChI=1S/C6H5ClNO2S.Na/c7-8-11(9,10)6-4-2-1-3-5-6;/h1-5H;/q-1;+1, purity 99%
Compound 3: ethanol, C2H6O, InChI=1S/C2H6O/c1-2-3/h3H,2H2,1H3, purity 99.7%
Compound 4: propan-2-ol, C3H8O, InChI=1S/C3H8O/c1-3(2)4/h3-4H,1-2H3, purity 99.7%

System: ethanol + propan-2-ol + N-chlorobenzenesulfonamide, sodium salt (1:1); phases: Liquid, Crystal
Fixed: Pressure, kPa = 101
Property: Mole fraction of N-chlorobenzenesulfonamide, sodium salt (1:1) (Liquid); method: Synthetic Method
Temperature, K	Solvent: Mole fraction of ethanol	Mole fraction of N-chlorobenzenesulfonamide, sodium salt (1:1)	uncertainty
278	0	0.00185	2.2e-05
278	0.1897	0.00459	5.3e-05
278	0.3601	0.00735	8.9e-05
278	0.5292	0.00949	0.000118
278	0.659	0.01241	0.00017
278	0.7997	0.01414	0.00019
278	0.906	0.01534	0.00022
278	1	0.0164	0.00024
283	0	0.00228	2.7e-05
283	0.1897	0.00525	6.1e-05
283	0.3601	0.00815	9.8e-05
283	0.5292	0.01087	0.00014
283	0.659	0.01438	0.00019
283	0.7997	0.01643	0.00023
283	0.906	0.01785	0.00025
283	1	0.01932	0.00028
288	0	0.00287	3.5e-05
288	0.1897	0.00608	7.1e-05
288	0.3601	0.00925	0.000112
288	0.5292	0.01234	0.00016
288	0.659	0.01657	0.00022
288	0.7997	0.01895	0.00026
288	0.906	0.02065	0.00029
288	1	0.0224	0.00033
293	0	0.00383	4.6e-05
293	0.1897	0.00723	8.5e-05
293	0.3601	0.01059	0.00013
293	0.5292	0.01435	0.00018
293	0.659	0.01926	0.00026
293	0.7997	0.02215	0.00031
293	0.906	0.02408	0.00034
293	1	0.02642	0.00039
298	0	0.00481	5.6e-05
298	0.1897	0.00846	9.9e-05
298	0.3601	0.01204	0.00015
298	0.5292	0.0169	0.00022
298	0.659	0.02247	0.0003
298	0.7997	0.02596	0.00036
298	0.906	0.02813	0.0004
298	1	0.03096	0.00046
303	0	0.00585	6.7e-05
303	0.1897	0.00973	0.000113
303	0.3601	0.0136	0.00016
303	0.5292	0.0202	0.00026
303	0.659	0.02625	0.00035
303	0.7997	0.03057	0.00043
303	0.906	0.03305	0.00048
303	1	0.0364	0.00054
308	0	0.00705	8.3e-05
308	0.1897	0.01108	0.00013
308	0.3601	0.01527	0.00019
308	0.5292	0.02387	0.00031
308	0.659	0.03032	0.00041
308	0.7997	0.03563	0.0005
308	0.906	0.03845	0.00055
308	1	0.0422	0.00063
313	0	0.0091	0.000109
313	0.1897	0.01304	0.00015
313	0.3601	0.01791	0.00022
313	0.5292	0.02785	0.00036
313	0.659	0.03485	0.00047
313	0.7997	0.04096	0.00057
313	0.906	0.04411	0.00064
313	1	0.04855	0.00073
318	0	0.01169	0.00013
318	0.1897	0.01542	0.00018
318	0.3601	0.02012	0.00024
318	0.5292	0.03231	0.00041
318	0.659	0.03963	0.00052
318	0.7997	0.04745	0.00066
318	0.906	0.05077	0.00073
318	1	0.05615	0.00083
323	0	0.01195	0.00013
323	0.1897	0.01431	0.00016
323	0.3601	0.02138	0.00026
323	0.5292	0.03173	0.0004
323	0.659	0.03986	0.00053
323	0.7997	0.04695	0.00065
323	0.906	0.05134	0.00074
323	1	0.05595	0.00083

System: ethanol + propan-2-ol + N-chloro-4-methylbenzenesulfonamide, sodium salt (1:1); phases: Liquid, Crystal
Fixed: Pressure, kPa = 101
Property: Mole fraction of N-chloro-4-methylbenzenesulfonamide, sodium salt (1:1) (Liquid); method: Synthetic Method
Temperature, K	Solvent: Mole fraction of ethanol	Mole fraction of N-chloro-4-methylbenzenesulfonamide, sodium salt (1:1)	uncertainty
278	0	0.00101	1.3e-05
278	0.1987	0.00203	2.4e-05
278	0.361	0.00405	5.4e-05
278	0.5177	0.00493	6.4e-05
278	0.6551	0.00793	0.00011
278	0.7917	0.01083	0.00015
278	0.9193	0.01525	0.00023
278	1	0.01996	0.00031
283	0	0.00135	1.8e-05
283	0.1987	0.00247	3.3e-05
283	0.361	0.0046	6e-05
283	0.5177	0.00558	7.5e-05
283	0.6551	0.00899	0.000125
283	0.7917	0.01194	0.00017
283	0.9193	0.01686	0.00025
283	1	0.02205	0.00034
288	0	0.00201	3e-05
288	0.1987	0.00344	4.7e-05
288	0.361	0.00563	7.5e-05
288	0.5177	0.00665	9.1e-05
288	0.6551	0.01053	0.00015
288	0.7917	0.01311	0.00019
288	0.9193	0.01858	0.00028
288	1	0.02441	0.00038
293	0	0.00322	4.5e-05
293	0.1987	0.00481	6.8e-05
293	0.361	0.00714	9.7e-05
293	0.5177	0.0082	0.000114
293	0.6551	0.0123	0.00017
293	0.7917	0.0144	0.00021
293	0.9193	0.02041	0.00031
293	1	0.02685	0.00041
298	0	0.00464	6e-05
298	0.1987	0.00696	9.6e-05
298	0.361	0.00942	0.000128
298	0.5177	0.01055	0.00015
298	0.6551	0.01511	0.00022
298	0.7917	0.01672	0.00024
298	0.9193	0.02311	0.00035
298	1	0.02994	0.00047
303	0	0.00595	7.3e-05
303	0.1987	0.00943	0.000126
303	0.361	0.0121	0.00016
303	0.5177	0.01344	0.00019
303	0.6551	0.0183	0.00026
303	0.7917	0.0198	0.00029
303	0.9193	0.02632	0.0004
303	1	0.03396	0.00053
308	0	0.00723	8.8e-05
308	0.1987	0.01231	0.00016
308	0.361	0.01509	0.0002
308	0.5177	0.01677	0.00023
308	0.6551	0.02196	0.00031
308	0.7917	0.02353	0.00035
308	0.9193	0.03014	0.00046
308	1	0.03876	0.00061
313	0	0.00881	0.00011
313	0.1987	0.01558	0.0002
313	0.361	0.0186	0.00025
313	0.5177	0.0202	0.00028
313	0.6551	0.02584	0.00037
313	0.7917	0.02786	0.00041
313	0.9193	0.03452	0.00053
313	1	0.04408	0.0007
318	0	0.01137	0.00014
318	0.1987	0.01928	0.00025
318	0.361	0.02269	0.0003
318	0.5177	0.02409	0.00034
318	0.6551	0.03044	0.00044
318	0.7917	0.03274	0.00049
318	0.9193	0.04019	0.00062
318	1	0.04986	0.00079
323	0	0.0141	0.00017
323	0.1987	0.02437	0.00031
323	0.361	0.02753	0.00036
323	0.5177	0.02999	0.00043
323	0.6551	0.03718	0.00053
323	0.7917	0.03965	0.00061
323	0.9193	0.0487	0.00077
323	1	0.05641	0.0009
