Measured thermophysical data. New isothermal vapor liquid equilibria for the CO2 + n-nonane, and CO2 + n-undecane systems
Source: Fluid Phase Equilib., 2007, 10.1016/j.fluid.2007.04.022
Compound 1: nonane, C9H20, InChI=1S/C9H20/c1-3-5-7-9-8-6-4-2/h3-9H2,1-2H3
Compound 2: undecane, C11H24, InChI=1S/C11H24/c1-3-5-7-9-11-10-8-6-4-2/h3-11H2,1-2H3
Compound 3: carbon dioxide, CO2, InChI=1S/CO2/c2-1-3, purity 99.995%

System: nonane + carbon dioxide; phases: Liquid, Gas
Property: Vapor or sublimation pressure, kPa (Liquid); method: CCELL:UFactor:6
Mole fraction of carbon dioxide	Temperature, K	Vapor or sublimation pressure, kPa	uncertainty
0.146	418.82	2548	79
0.1472	373.28	2064	62
0.1779	344.53	2111	62
0.2008	418.82	3729	113
0.2207	315.12	2033	59
0.2379	373.28	3508	102
0.2599	418.82	5058	144
0.2987	344.53	3748	109
0.3213	373.28	4979	147
0.3254	315.12	3098	85
0.3381	418.82	6620	189
0.3978	418.82	7990	232
0.4059	373.28	6481	197
0.4149	344.53	5464	160
0.4601	315.12	4309	119
0.4657	418.82	9476	274
0.4746	373.28	7941	225
0.5127	344.53	6942	200
0.5371	418.82	11122	335
0.5698	315.12	5452	148
0.5768	373.28	9594	266
0.5889	418.82	12509	348
0.6297	344.53	8651	250
0.6465	373.28	11031	325
0.6733	418.82	14154	393
0.7085	315.12	6668	166
0.7177	344.53	10059	260
0.7306	373.28	12578	350
0.7321	418.82	15627	400
0.7878	373.28	13550	334
0.7975	315.12	7204	164
0.811	418.82	16773	391
0.8346	344.53	11236	269
0.8678	373.28	14839	401
0.8965	373.28	14970	290
0.8993	315.12	7800	181
0.9049	344.53	11989	252
0.934	315.12	8026	193

System: nonane + carbon dioxide; phases: Gas, Liquid
Property: Mole fraction of carbon dioxide (Gas); method: Chromatography
Mole fraction of carbon dioxide	Temperature, K	Mole fraction of carbon dioxide	uncertainty
0.146	418.82	0.9506	0.01
0.1472	373.28	0.9873	0.01
0.1779	344.53	0.9951	0.0049
0.2008	418.82	0.9618	0.01
0.2207	315.12	0.9987	0.0013
0.2379	373.28	0.9891	0.01
0.2599	418.82	0.9674	0.01
0.2987	344.53	0.9958	0.0042
0.3213	373.28	0.9894	0.01
0.3254	315.12	0.9986	0.0014
0.3381	418.82	0.9691	0.01
0.3978	418.82	0.9697	0.01
0.4059	373.28	0.9898	0.01
0.4149	344.53	0.9955	0.0045
0.4601	315.12	0.9986	0.0014
0.4657	418.82	0.9679	0.01
0.4746	373.28	0.9887	0.01
0.5127	344.53	0.9948	0.0052
0.5371	418.82	0.966	0.01
0.5698	315.12	0.9984	0.0016
0.5768	373.28	0.9861	0.01
0.5889	418.82	0.9613	0.01
0.6297	344.53	0.9932	0.0068
0.6465	373.28	0.9832	0.01
0.6733	418.82	0.9479	0.01
0.7085	315.12	0.9978	0.0022
0.7177	344.53	0.9875	0.01
0.7306	373.28	0.9758	0.01
0.7321	418.82	0.9297	0.01
0.7878	373.28	0.968	0.01
0.7975	315.12	0.9971	0.0029
0.811	418.82	0.8891	0.01
0.8346	344.53	0.9778	0.01
0.8678	373.28	0.9335	0.01
0.8965	373.28	0.9188	0.01
0.8993	315.12	0.996	0.004
0.9049	344.53	0.9635	0.01
0.934	315.12	0.9955	0.0045

System: carbon dioxide + undecane; phases: Liquid, Gas
Property: Vapor or sublimation pressure, kPa (Liquid); method: CCELL:UFactor:6
Mole fraction of carbon dioxide	Temperature, K	Vapor or sublimation pressure, kPa	uncertainty
0.1125	418.3	2052	68
0.1736	418.3	3570	108
0.1851	344.46	2558	75
0.2253	373.13	3468	99
0.2335	418.3	5017	146
0.2433	314.98	2373	74
0.2805	344.46	4057	116
0.293	418.3	6433	194
0.3087	314.98	3162	95
0.3282	373.13	5517	173
0.3547	418.3	8175	257
0.368	344.46	5526	153
0.3801	314.98	4010	118
0.399	373.13	7013	215
0.399	418.3	9538	289
0.4544	314.98	4920	140
0.4605	418.3	11209	306
0.4635	373.13	8527	278
0.4727	344.46	7063	202
0.5185	373.13	9955	311
0.5225	418.3	12535	341
0.5258	314.98	5698	155
0.5569	344.46	8586	252
0.5777	418.3	14000	410
0.5825	314.98	6287	171
0.5842	373.13	11613	384
0.6329	418.3	15556	467
0.6366	314.98	6879	169
0.6412	373.13	13148	409
0.6425	344.46	10052	298
0.6842	418.3	17082	492
0.7146	373.13	14840	406
0.7189	344.46	11518	290
0.7361	418.3	18390	520
0.737	314.98	7638	160
0.7624	373.13	16001	393
0.7626	418.3	19184	420
0.8419	418.3	20045	415
0.8516	344.46	12946	292
0.8705	373.13	17108	330
0.9134	314.98	8294	169
0.9161	344.46	13388	249

System: carbon dioxide + undecane; phases: Gas, Liquid
Property: Mole fraction of carbon dioxide (Gas); method: Chromatography
Mole fraction of carbon dioxide	Temperature, K	Mole fraction of carbon dioxide	uncertainty
0.1125	418.3	0.9709	0.01
0.1736	418.3	0.9849	0.01
0.1851	344.46	0.9988	0.0012
0.2253	373.13	0.9962	0.0038
0.2335	418.3	0.9859	0.01
0.2433	314.98	0.9985	0.0015
0.2805	344.46	0.9985	0.0015
0.293	418.3	0.9856	0.01
0.3087	314.98	0.9993	0.0007
0.3282	373.13	0.9965	0.0035
0.3547	418.3	0.9854	0.01
0.368	344.46	0.9985	0.0015
0.3801	314.98	0.9995	0.0005
0.399	373.13	0.9958	0.0042
0.399	418.3	0.9843	0.01
0.4544	314.98	0.9994	0.0006
0.4605	418.3	0.9818	0.01
0.4635	373.13	0.995	0.005
0.4727	344.46	0.9981	0.0019
0.5185	373.13	0.9934	0.0066
0.5225	418.3	0.9788	0.01
0.5258	314.98	0.9993	0.0007
0.5569	344.46	0.9971	0.0029
0.5777	418.3	0.9755	0.01
0.5825	314.98	0.9991	0.0009
0.5842	373.13	0.9918	0.0082
0.6329	418.3	0.9716	0.01
0.6366	314.98	0.9989	0.0011
0.6412	373.13	0.9894	0.01
0.6425	344.46	0.9958	0.0042
0.6842	418.3	0.9659	0.01
0.7146	373.13	0.9805	0.01
0.7189	344.46	0.989	0.01
0.7361	418.3	0.9539	0.01
0.737	314.98	0.9982	0.0018
0.7624	373.13	0.9595	0.01
0.7626	418.3	0.9342	0.01
0.8419	418.3	0.9063	0.01
0.8516	344.46	0.9699	0.01
0.8705	373.13	0.9321	0.01
0.9134	314.98	0.9926	0.0074
0.9161	344.46	0.9518	0.01
