Measured thermophysical data. Volumetric behavior of water methanol mixtures in the vicinity of the critical region
Source: Fluid Phase Equilib., 2006, 10.1016/j.fluid.2006.05.007
Compound 1: water, H2O, InChI=1S/H2O/h1H2
Compound 2: methanol, CH4O, InChI=1S/CH4O/c1-2/h2H,1H3, purity 99.8%

System: methanol + water; phases: Fluid (supercritical or subcritical phases)
Property: Mass density, kg/m3 (Fluid (supercritical or subcritical phases)); method: VIBTUB:UFactor:8
Temperature, K	Pressure, kPa	Mole fraction of methanol	Mass density, kg/m3	uncertainty
572.91	10085	0.3044	77.4	1.6
573.08	10068	0.4031	79.4	1.6
573.15	10080	0.5144	83.3	1.6
573.26	10081	0.59	85.5	1.7
573.31	10076	0.7905	92.4	1.7
573.34	10081	0.8802	94.8	1.7
573.35	10077	0.6896	87.7	1.7
573.43	10083	0.0997	405	3.6
573.46	11526	0.4031	107.2	1.8
573.49	10078	0.0494	679.2	3.2
573.52	11527	0.5144	108.7	1.9
573.63	11542	0.59	111.3	1.9
573.67	11523	0.6896	113.3	1.9
573.72	11537	0.0175	704.3	3.2
573.74	11532	0.7905	115.7	1.9
573.74	11535	0.8802	118.9	1.9
573.75	11533	0.007	712.1	3.1
573.78	11525	0.0997	646.8	3.5
573.78	11527	0.1971	534.3	4.2
573.78	11530	0.1484	611.5	3.7
573.79	11533	0.0494	682.1	3.3
574.29	20003	0.0997	671.8	4.2
574.34	20013	0.3044	560.2	5.2
574.34	20016	0.6896	398.6	4.8
574.35	20000	0.0494	701.9	3.9
574.37	19997	0.1484	645.8	4.4
574.37	20007	0.59	431.4	5.2
574.37	20014	0.1971	617	4.7
574.37	20019	0.4031	512.2	5.7
574.38	20012	0.7905	375.2	4.6
574.39	20005	0.5144	460.1	5.4
574.45	20012	0.8802	354.5	4.4
588.56	13757	0.3044	135.3	2.3
588.59	13753	0.5144	131.6	2.3
588.63	13755	0.4031	133	2.3
588.68	13752	0.7905	137.1	2.3
588.69	13759	0.59	132.6	2.3
588.74	13760	0.6896	134.8	2.3
588.76	13753	0.1971	409.6	4.4
588.79	13754	0.8802	139.5	2.4
588.8	13760	0.1484	563.2	4.6
588.81	13767	0.007	679.9	3.7
588.83	13755	0.0997	606.6	4.2
588.84	13753	0.0175	672.4	3.8
588.85	13755	0.0494	647.6	3.9
