Measured thermophysical data. Measurement and theoretical prediction of the vapor-liquid equilibrium, densities and interfacial tensions of the system  hexane + 2-methoxy-2-methylbutane
Source: Fluid Phase Equilib., 2011, 10.1016/j.fluid.2011.06.007
Compound 1: hexane, C6H14, InChI=1S/C6H14/c1-3-5-6-4-2/h3-6H2,1-2H3, purity 99.6%
Compound 2: 2-methoxy-2-methylbutane, C6H14O, InChI=1S/C6H14O/c1-5-6(2,3)7-4/h5H2,1-4H3

System: hexane; phases: Liquid, Gas
Property: Vapor or sublimation pressure, kPa (Liquid); method: Closed cell (Static) method
Temperature, K	Vapor or sublimation pressure, kPa	uncertainty
307.66	30.01	0.09
311.56	35.01	0.1
315.02	40.01	0.11
318.15	45.01	0.12
321.03	50.01	0.12
323.68	55.01	0.13
326.15	60.01	0.14
328.45	65.01	0.15
330.62	70.01	0.16
334.6	80.01	0.17
338.21	90.01	0.19
342.08	101.81	0.21

System: hexane + 2-methoxy-2-methylbutane; phases: Liquid, Gas
Fixed: Temperature, K = 303.15
Property: Interfacial tension, N/m (Liquid); method: maximum differential bubble pressure
Mole fraction of hexane	Interfacial tension, N/m	uncertainty
0	0.022	0.0002
0.051	0.0216	0.0002
0.1	0.02106	0.0002
0.209	0.02064	0.0002
0.305	0.02012	0.0002
0.399	0.0198	0.0002
0.506	0.01912	0.0002
0.611	0.01871	0.0002
0.714	0.01834	0.0002
0.813	0.01802	0.0002
0.914	0.01766	0.0002
0.96	0.01755	0.0002
1	0.0174	0.0002

System: hexane + 2-methoxy-2-methylbutane; phases: Liquid
Fixed: Temperature, K = 298.15
Fixed: Pressure, kPa = 101.3
Property: Mass density, kg/m3 (Liquid); method: Vibrating tube method
Mole fraction of hexane	Mass density, kg/m3	uncertainty
0	765.8	0.14
0.038	761.49	0.27
0.092	755.29	0.27
0.145	749.34	0.27
0.194	743.82	0.27
0.247	737.76	0.27
0.346	726.73	0.27
0.443	715.93	0.27
0.497	709.95	0.27
0.552	703.83	0.27
0.597	698.92	0.27
0.644	693.78	0.27
0.696	688.15	0.28
0.745	682.72	0.28
0.795	677.33	0.28
0.852	671.14	0.28
0.901	665.86	0.28
0.952	660.3	0.28
1	655.19	0.18

System: hexane + 2-methoxy-2-methylbutane; phases: Liquid
Fixed: Temperature, K = 298.15
Fixed: Pressure, kPa = 101.3
Property: Excess molar volume, m3/mol (Liquid); method: Calculated with densities of this investigation
Mole fraction of hexane	Excess molar volume, m3/mol	uncertainty
0	0	1e-08
0.038	3.1e-08	8e-09
0.092	7.7e-08	8e-09
0.145	1.16e-07	8e-09
0.194	1.38e-07	8e-09
0.247	1.8e-07	8e-09
0.346	2.13e-07	8e-09
0.443	2.34e-07	8e-09
0.497	2.39e-07	8e-09
0.552	2.34e-07	8e-09
0.597	2.28e-07	8e-09
0.644	2.19e-07	8e-09
0.696	2.02e-07	8e-09
0.745	1.9e-07	8e-09
0.795	1.53e-07	8e-09
0.852	1.19e-07	8e-09
0.901	8.3e-08	8e-09
0.952	5.3e-08	8e-09
1	0	1e-08

System: hexane + 2-methoxy-2-methylbutane; phases: Liquid, Gas
Property: Mole fraction of hexane (Liquid); method: Chromatography
Pressure, kPa	Temperature, K	Mole fraction of hexane	uncertainty
50	321.03	1	
50	321.61	0.941	0.005
50	322.21	0.886	0.005
50	322.81	0.832	0.005
50	323.38	0.781	0.005
50	323.94	0.732	0.005
50	324.59	0.68	0.005
50	325.25	0.629	0.005
50	325.94	0.578	0.005
50	326.66	0.529	0.005
50	327.44	0.478	0.005
50	328.26	0.426	0.005
50	328.98	0.383	0.005
50	329.84	0.333	0.004
50	330.69	0.288	0.004
50	331.6	0.241	0.004
50	332.64	0.192	0.004
50	333.66	0.149	0.003
50	334.79	0.103	0.003
50	336.07	0.053	0.003
50	337.67	0	
75	332.65	1	
75	333.23	0.94	0.005
75	333.87	0.885	0.005
75	334.49	0.831	0.005
75	335.08	0.781	0.005
75	335.68	0.733	0.004
75	336.36	0.679	0.004
75	337.05	0.629	0.004
75	337.77	0.578	0.004
75	338.53	0.53	0.005
75	339.33	0.476	0.005
75	340.18	0.424	0.005
75	340.91	0.382	0.005
75	341.82	0.332	0.004
75	342.7	0.287	0.004
75	343.65	0.24	0.004
75	344.71	0.192	0.003
75	345.72	0.149	0.003
75	346.9	0.103	0.003
75	348.15	0.054	0.003
75	349.76	0	
94	339.58	1	
94	340.13	0.94	0.005
94	340.79	0.885	0.004
94	341.44	0.83	0.004
94	342.05	0.78	0.004
94	342.66	0.732	0.004
94	343.37	0.677	0.005
94	344.06	0.626	0.005
94	344.81	0.576	0.005
94	345.57	0.526	0.005
94	346.39	0.475	0.005
94	347.27	0.423	0.004
94	348.02	0.38	0.004
94	348.94	0.331	0.004
94	349.84	0.287	0.004
94	350.83	0.24	0.003
94	351.88	0.191	0.003
94	352.88	0.149	0.003
94	354.07	0.103	0.003
94	355.34	0.054	0.003
94	356.96	0	

System: hexane + 2-methoxy-2-methylbutane; phases: Gas, Liquid
Property: Mole fraction of hexane (Gas); method: Chromatography
Pressure, kPa	Temperature, K	Mole fraction of hexane	uncertainty
50	321.03	1	
50	321.61	0.962	0.004
50	322.21	0.927	0.004
50	322.81	0.892	0.004
50	323.38	0.858	0.004
50	323.94	0.827	0.004
50	324.59	0.789	0.004
50	325.25	0.753	0.004
50	325.94	0.712	0.004
50	326.66	0.673	0.005
50	327.44	0.626	0.005
50	328.26	0.58	0.005
50	328.98	0.539	0.005
50	329.84	0.49	0.006
50	330.69	0.439	0.005
50	331.6	0.385	0.005
50	332.64	0.322	0.005
50	333.66	0.262	0.004
50	334.79	0.19	0.004
50	336.07	0.105	0.004
50	337.67	0	
75	332.65	1	
75	333.23	0.961	0.004
75	333.87	0.925	0.004
75	334.49	0.889	0.004
75	335.08	0.855	0.004
75	335.68	0.822	0.005
75	336.36	0.784	0.005
75	337.05	0.747	0.005
75	337.77	0.705	0.005
75	338.53	0.665	0.005
75	339.33	0.619	0.004
75	340.18	0.573	0.005
75	340.91	0.533	0.005
75	341.82	0.481	0.005
75	342.7	0.431	0.005
75	343.65	0.377	0.005
75	344.71	0.315	0.004
75	345.72	0.256	0.004
75	346.9	0.182	0.004
75	348.15	0.103	0.004
75	349.76	0	
94	339.58	1	
94	340.13	0.96	0.003
94	340.79	0.924	0.003
94	341.44	0.887	0.003
94	342.05	0.853	0.004
94	342.66	0.82	0.004
94	343.37	0.781	0.004
94	344.06	0.743	0.004
94	344.81	0.7	0.004
94	345.57	0.66	0.004
94	346.39	0.615	0.005
94	347.27	0.567	0.005
94	348.02	0.527	0.005
94	348.94	0.476	0.005
94	349.84	0.426	0.005
94	350.83	0.371	0.005
94	351.88	0.309	0.004
94	352.88	0.251	0.004
94	354.07	0.179	0.004
94	355.34	0.101	0.004
94	356.96	0	
