Measured thermophysical data. Designing eutectic mixtures for the extraction of 2-phenylethanol (PEA) from aqueous phase
Source: Fluid Phase Equilib., 2017, 10.1016/j.fluid.2017.05.014
Compound 1: 1-butyl-1-methylpyrrolidinium chloride, C9H20ClN, InChI=1S/C9H20N.ClH/c1-3-4-7-10(2)8-5-6-9-10;/h3-9H2,1-2H3;1H/q+1;/p-1, purity 99%
Compound 2: 1-butyl-1-methylpyrrolidinium bis[(trifluoromethyl)sulfonyl]imide, C11H20F6N2O4S2, InChI=1S/C9H20N.C2F6NO4S2/c1-3-4-7-10(2)8-5-6-9-10;3-1(4,5)14(10,11)9-15(12,13)2(6,7)8/h3-9H2,1-2H3;/q+1;-1, purity 98%
Compound 3: 1-hexyl-1-methylpyrrolidinium chloride, C11H24ClN, InChI=1S/C11H24N.ClH/c1-3-4-5-6-9-12(2)10-7-8-11-12;/h3-11H2,1-2H3;1H/q+1;/p-1, purity 98%
Compound 4: 1-hexyl-1-methylpyrrolidinium bis(trifluoromethanesulfonyl)imide, C13H24F6N2O4S2, InChI=1S/C11H24N.C2F6NO4S2/c1-3-4-5-6-9-12(2)10-7-8-11-12;3-1(4,5)14(10,11)9-15(12,13)2(6,7)8/h3-11H2,1-2H3;/q+1;-1, purity 98%
Compound 5: 2-phenylethanol, C8H10O, InChI=1S/C8H10O/c9-7-6-8-4-2-1-3-5-8/h1-5,9H,6-7H2, purity 99%
Compound 6: decan-1-ol, C10H22O, InChI=1S/C10H22O/c1-2-3-4-5-6-7-8-9-10-11/h11H,2-10H2,1H3, purity 99.5%
Compound 7: 2-methyl-1-butanol, C5H12O, InChI=1S/C5H12O/c1-3-5(2)4-6/h5-6H,3-4H2,1-2H3, purity 99.5%
Compound 8: 2-methylbutan-2-ol, C5H12O, InChI=1S/C5H12O/c1-4-5(2,3)6/h6H,4H2,1-3H3, purity 99.5%
Compound 9: (Z)-9-octadecenoic acid, C18H34O2, InChI=1S/C18H34O2/c1-2-3-4-5-6-7-8-9-10-11-12-13-14-15-16-17-18(19)20/h9-10H,2-8,11-17H2,1H3,(H,19,20)/b10-9-, purity 99.5%
Compound 10: water, H2O, InChI=1S/H2O/h1H2, purity 99.8%

System: 1-butyl-1-methylpyrrolidinium chloride; phases: Crystal 1, Liquid, Air at 1 atmosphere
Property: Normal melting temperature, K (Crystal 1); method: DTA
Normal melting temperature, K	uncertainty
478.2	0.4

System: 1-butyl-1-methylpyrrolidinium chloride; phases: Crystal 2, Crystal 1, Air at 1 atmosphere
Property: Triple point temperature, K (Crystal 2); method: DSC
Triple point temperature, K	uncertainty
461	0.8

System: 1-butyl-1-methylpyrrolidinium chloride; phases: Crystal 3, Crystal 2, Air at 1 atmosphere
Property: Triple point temperature, K (Crystal 3); method: DSC
Triple point temperature, K	uncertainty
339.6	0.8

System: 1-butyl-1-methylpyrrolidinium chloride; phases: Crystal 1, Liquid, Air at 1 atmosphere
Property: Molar enthalpy of transition or fusion, kJ/mol (Crystal 1); method: DSC
Molar enthalpy of transition or fusion, kJ/mol	uncertainty
7.68	0.23

System: 1-butyl-1-methylpyrrolidinium chloride; phases: Crystal 2, Crystal 1, Air at 1 atmosphere
Property: Molar enthalpy of transition or fusion, kJ/mol (Crystal 2); method: DSC
Molar enthalpy of transition or fusion, kJ/mol	uncertainty
0.641	0.103

System: 1-butyl-1-methylpyrrolidinium chloride; phases: Crystal 3, Crystal 2, Air at 1 atmosphere
Property: Molar enthalpy of transition or fusion, kJ/mol (Crystal 3); method: DSC
Molar enthalpy of transition or fusion, kJ/mol	uncertainty
1.507	0.118

System: 1-butyl-1-methylpyrrolidinium bis[(trifluoromethyl)sulfonyl]imide; phases: Crystal 1, Liquid, Air at 1 atmosphere
Property: Normal melting temperature, K (Crystal 1); method: DTA
Normal melting temperature, K	uncertainty
262.2	0.4

System: 1-butyl-1-methylpyrrolidinium bis[(trifluoromethyl)sulfonyl]imide; phases: Crystal 1, Liquid, Air at 1 atmosphere
Property: Normal melting temperature, K (Crystal 1); method: VISOBS
Normal melting temperature, K	uncertainty
260	0.4

System: 1-butyl-1-methylpyrrolidinium bis[(trifluoromethyl)sulfonyl]imide; phases: Crystal 2, Crystal 1, Air at 1 atmosphere
Property: Triple point temperature, K (Crystal 2); method: DSC
Triple point temperature, K	uncertainty
246.4	0.8

System: 1-butyl-1-methylpyrrolidinium bis[(trifluoromethyl)sulfonyl]imide; phases: Crystal 1, Liquid, Air at 1 atmosphere
Property: Molar enthalpy of transition or fusion, kJ/mol (Crystal 1); method: DSC
Molar enthalpy of transition or fusion, kJ/mol	uncertainty
13.2	0.35

System: 1-butyl-1-methylpyrrolidinium bis[(trifluoromethyl)sulfonyl]imide; phases: Crystal 2, Crystal 1, Air at 1 atmosphere
Property: Molar enthalpy of transition or fusion, kJ/mol (Crystal 2); method: DSC
Molar enthalpy of transition or fusion, kJ/mol	uncertainty
2.4	0.2

System: 1-hexyl-1-methylpyrrolidinium chloride; phases: Crystal 1, Liquid, Air at 1 atmosphere
Property: Normal melting temperature, K (Crystal 1); method: DTA
Normal melting temperature, K	uncertainty
464.2	0.4

System: 1-hexyl-1-methylpyrrolidinium chloride; phases: Crystal 2, Crystal 1, Air at 1 atmosphere
Property: Triple point temperature, K (Crystal 2); method: DSC
Triple point temperature, K	uncertainty
344.5	0.8

System: 1-hexyl-1-methylpyrrolidinium chloride; phases: Crystal 1, Liquid, Air at 1 atmosphere
Property: Molar enthalpy of transition or fusion, kJ/mol (Crystal 1); method: DSC
Molar enthalpy of transition or fusion, kJ/mol	uncertainty
6.01	0.22

System: 1-hexyl-1-methylpyrrolidinium chloride; phases: Crystal 2, Crystal 1, Air at 1 atmosphere
Property: Molar enthalpy of transition or fusion, kJ/mol (Crystal 2); method: DSC
Molar enthalpy of transition or fusion, kJ/mol	uncertainty
8.43	0.26

System: 1-hexyl-1-methylpyrrolidinium bis(trifluoromethanesulfonyl)imide; phases: Crystal, Liquid, Air at 1 atmosphere
Property: Normal melting temperature, K (Crystal); method: DTA
Normal melting temperature, K	uncertainty
277.2	0.4

System: 1-hexyl-1-methylpyrrolidinium bis(trifluoromethanesulfonyl)imide; phases: Crystal, Liquid, Air at 1 atmosphere
Property: Normal melting temperature, K (Crystal); method: VISOBS
Normal melting temperature, K	uncertainty
277.35	0.41

System: 1-hexyl-1-methylpyrrolidinium bis(trifluoromethanesulfonyl)imide; phases: Crystal 1, Liquid, Air at 1 atmosphere
Property: Molar enthalpy of transition or fusion, kJ/mol (Crystal 1); method: DSC
Molar enthalpy of transition or fusion, kJ/mol	uncertainty
1.55	0.147

System: decan-1-ol; phases: Crystal, Liquid, Air at 1 atmosphere
Property: Normal melting temperature, K (Crystal); method: DTA
Normal melting temperature, K	uncertainty
280.1	0.4

System: decan-1-ol; phases: Crystal, Liquid, Air at 1 atmosphere
Property: Normal melting temperature, K (Crystal); method: VISOBS
Normal melting temperature, K	uncertainty
280.6	0.4

System: decan-1-ol; phases: Crystal 1, Liquid, Air at 1 atmosphere
Property: Molar enthalpy of transition or fusion, kJ/mol (Crystal 1); method: DSC
Molar enthalpy of transition or fusion, kJ/mol	uncertainty
28.8	0.6

System: 2-methylbutan-2-ol; phases: Crystal, Liquid, Air at 1 atmosphere
Property: Normal melting temperature, K (Crystal); method: DTA
Normal melting temperature, K	uncertainty
265.1	0.4

System: (Z)-9-octadecenoic acid; phases: Crystal, Liquid, Air at 1 atmosphere
Property: Normal melting temperature, K (Crystal); method: DTA
Normal melting temperature, K	uncertainty
279.6	0.4

System: (Z)-9-octadecenoic acid; phases: Crystal, Liquid, Air at 1 atmosphere
Property: Normal melting temperature, K (Crystal); method: VISOBS
Normal melting temperature, K	uncertainty
286.8	0.4

System: (Z)-9-octadecenoic acid; phases: Crystal 2, Crystal 1, Air at 1 atmosphere
Property: Triple point temperature, K (Crystal 2); method: DSC
Triple point temperature, K	uncertainty
233.8	0.8

System: (Z)-9-octadecenoic acid; phases: Crystal 1, Liquid, Air at 1 atmosphere
Property: Molar enthalpy of transition or fusion, kJ/mol (Crystal 1); method: DSC
Molar enthalpy of transition or fusion, kJ/mol	uncertainty
27.29	0.61

System: (Z)-9-octadecenoic acid; phases: Crystal 2, Crystal 1, Air at 1 atmosphere
Property: Molar enthalpy of transition or fusion, kJ/mol (Crystal 2); method: DSC
Molar enthalpy of transition or fusion, kJ/mol	uncertainty
2.83	0.13

System: decan-1-ol + 1-butyl-1-methylpyrrolidinium chloride; phases: Crystal, Liquid, Crystal, Air at 1 atmosphere
Property: Eutectic temperature, K (Crystal); method: DTA
Eutectic temperature, K	uncertainty
270.5	0.5

System: decan-1-ol + 1-butyl-1-methylpyrrolidinium chloride; phases: Crystal, Liquid, Crystal, Air at 1 atmosphere
Property: Eutectic composition: mole fraction of 1-butyl-1-methylpyrrolidinium chloride (Crystal); method: Derived from phase diagram analysis
Eutectic composition: mole fraction of 1-butyl-1-methylpyrrolidinium chloride	uncertainty
0.25	0.003

System: decan-1-ol + 1-butyl-1-methylpyrrolidinium chloride; phases: Liquid, Crystal
Fixed: Pressure, kPa = 101
Property: Solid-liquid equilibrium temperature, K (Liquid); method: VISOBS
Mole fraction of 1-butyl-1-methylpyrrolidinium chloride	Solid-liquid equilibrium temperature, K	uncertainty
0.3721	323.3	0.3
0.3509	317.5	0.4
0.3404	313.6	0.4
0.3296	310.4	0.4
0.3109	304.1	0.4
0.2951	298.2	0.5
0.2875	294.2	0.6
0.2786	289.5	0.6
0.2702	285.2	0.6
0.2639	281.3	0.7
0.2574	276.5	0.8
0.2503	270.5	0.9

System: decan-1-ol + 1-butyl-1-methylpyrrolidinium chloride; phases: Liquid, Crystal
Fixed: Pressure, kPa = 101
Property: Solid-liquid equilibrium temperature, K (Liquid); method: VISOBS
Mole fraction of 1-butyl-1-methylpyrrolidinium chloride	Solid-liquid equilibrium temperature, K	uncertainty
0.2386	271.4	0.2
0.217	272.5	0.2
0.1921	273.5	0.2
0.169	274.5	0.2
0.1517	275.6	0.2
0.1303	276.6	0.2
0.0846	278.7	0.2
0.0475	278.7	0.2

System: 2-methyl-1-butanol + 1-butyl-1-methylpyrrolidinium chloride; phases: Liquid, Crystal
Fixed: Pressure, kPa = 101
Property: Solid-liquid equilibrium temperature, K (Liquid); method: VISOBS
Mole fraction of 1-butyl-1-methylpyrrolidinium chloride	Solid-liquid equilibrium temperature, K	uncertainty
0.4266	344.8	0.4
0.3797	326.8	0.5
0.3483	309.6	0.5
0.2809	282.2	0.6
0.2684	275.4	0.5
0.2545	268.6	0.5
0.2344	258.2	0.6
0.2293	254.9	0.7

System: 2-methylbutan-2-ol + 1-butyl-1-methylpyrrolidinium chloride; phases: Crystal, Liquid, Crystal, Air at 1 atmosphere
Property: Eutectic temperature, K (Crystal); method: DTA
Eutectic temperature, K	uncertainty
258.7	

System: 2-methylbutan-2-ol + 1-butyl-1-methylpyrrolidinium chloride; phases: Crystal, Liquid, Crystal, Air at 1 atmosphere
Property: Eutectic composition: mole fraction of 1-butyl-1-methylpyrrolidinium chloride (Crystal); method: Derived from phase diagram analysis
Eutectic composition: mole fraction of 1-butyl-1-methylpyrrolidinium chloride	uncertainty
0.097	0.001

System: 2-methylbutan-2-ol + 1-butyl-1-methylpyrrolidinium chloride; phases: Liquid, Crystal
Fixed: Pressure, kPa = 101
Property: Solid-liquid equilibrium temperature, K (Liquid); method: VISOBS
Mole fraction of 1-butyl-1-methylpyrrolidinium chloride	Solid-liquid equilibrium temperature, K	uncertainty
0.365	356.8	0.4
0.3147	336.4	0.5
0.2829	319	0.6
0.2626	304.9	0.6
0.2421	295.4	0.5
0.2262	289.8	0.3
0.1885	279.4	0.3
0.1646	272.7	0.3
0.1507	269	0.3
0.1349	265.2	0.3
0.119	262.7	0.2
0.1062	260.3	0.2
0.0956	258.7	0.2
0.0885	260.2	0.3

System: 2-methylbutan-2-ol + 1-butyl-1-methylpyrrolidinium chloride; phases: Liquid, Crystal
Fixed: Pressure, kPa = 101
Property: Solid-liquid equilibrium temperature, K (Liquid); method: VISOBS
Mole fraction of 1-butyl-1-methylpyrrolidinium chloride	Solid-liquid equilibrium temperature, K	uncertainty
0.0961	257.5	0.7
0.0915	260.7	0.7
0.0688	261.8	0.2
0.0526	263.1	0.2
0.0347	264.4	0.2
0.0257	264.5	0.2

System: (Z)-9-octadecenoic acid + 1-butyl-1-methylpyrrolidinium chloride; phases: Crystal, Liquid, Crystal, Air at 1 atmosphere
Property: Eutectic temperature, K (Crystal); method: DTA
Eutectic temperature, K	uncertainty
278.4	0.5

System: (Z)-9-octadecenoic acid + 1-butyl-1-methylpyrrolidinium chloride; phases: Crystal, Liquid, Crystal, Air at 1 atmosphere
Property: Eutectic composition: mole fraction of 1-butyl-1-methylpyrrolidinium chloride (Crystal); method: Derived from phase diagram analysis
Eutectic composition: mole fraction of 1-butyl-1-methylpyrrolidinium chloride	uncertainty
0.282	0.003

System: (Z)-9-octadecenoic acid + 1-butyl-1-methylpyrrolidinium chloride; phases: Liquid, Crystal
Fixed: Pressure, kPa = 101
Property: Solid-liquid equilibrium temperature, K (Liquid); method: VISOBS
Mole fraction of 1-butyl-1-methylpyrrolidinium chloride	Solid-liquid equilibrium temperature, K	uncertainty
0.4605	336	0.3
0.3999	320.7	0.3
0.3791	315.8	0.3
0.3588	310.3	0.4
0.3382	302.9	0.4
0.3171	297.7	0.4
0.3016	288.1	0.7
0.2826	275	0.7

System: (Z)-9-octadecenoic acid + 1-butyl-1-methylpyrrolidinium chloride; phases: Liquid, Crystal
Fixed: Pressure, kPa = 101
Property: Solid-liquid equilibrium temperature, K (Liquid); method: VISOBS
Mole fraction of 1-butyl-1-methylpyrrolidinium chloride	Solid-liquid equilibrium temperature, K	uncertainty
0.2823	278.4	0.4
0.2681	283.5	0.3
0.2576	285	0.2
0.2373	286.2	0.2
0.2016	284	0.2
0.1397	285.4	0.2
0.0547	286	0.2

System: decan-1-ol + 1-butyl-1-methylpyrrolidinium bis[(trifluoromethyl)sulfonyl]imide; phases: Crystal, Liquid, Crystal, Air at 1 atmosphere
Property: Eutectic temperature, K (Crystal); method: DTA
Eutectic temperature, K	uncertainty
257.5	

System: decan-1-ol + 1-butyl-1-methylpyrrolidinium bis[(trifluoromethyl)sulfonyl]imide; phases: Crystal, Liquid, Crystal, Air at 1 atmosphere
Property: Eutectic composition: mole fraction of 1-butyl-1-methylpyrrolidinium bis[(trifluoromethyl)sulfonyl]imide (Crystal); method: Derived from phase diagram analysis
Eutectic composition: mole fraction of 1-butyl-1-methylpyrrolidinium bis[(trifluoromethyl)sulfonyl]imide	uncertainty
0.955	0.001

System: decan-1-ol + 1-butyl-1-methylpyrrolidinium bis[(trifluoromethyl)sulfonyl]imide; phases: Liquid mixture 1, Liquid mixture 2
Fixed: Pressure, kPa = 101
Property: Liquid-liquid equilibrium temperature, K (Liquid mixture 1); method: VISOBS
Mole fraction of 1-butyl-1-methylpyrrolidinium bis[(trifluoromethyl)sulfonyl]imide	Liquid-liquid equilibrium temperature, K	uncertainty
0.9562	279.4	0.8
0.8865	321.8	0.4
0.7871	342.4	0.3
0.5174	366.7	0.3
0.9531	281.6	1.8
0.9469	295.1	1.1
0.9367	300.9	0.6
0.9367	300.9	0.6
0.876	324.8	0.4
0.8456	334.2	0.3
0.724	349.1	0.3
0.6729	355.1	0.3
0.638	359.3	0.3
0.5972	361.8	0.3
0.5525	364	0.3

System: decan-1-ol + 1-butyl-1-methylpyrrolidinium bis[(trifluoromethyl)sulfonyl]imide; phases: Liquid, Crystal
Fixed: Pressure, kPa = 101
Property: Solid-liquid equilibrium temperature, K (Liquid); method: VISOBS
Mole fraction of 1-butyl-1-methylpyrrolidinium bis[(trifluoromethyl)sulfonyl]imide	Solid-liquid equilibrium temperature, K	uncertainty
0.9953	257.5	0.2
0.9924	266.3	0.2
0.99	267.6	0.2
0.9871	268.1	0.2
0.9856	269.4	0.2
0.9828	270.8	0.2
0.9609	278.3	0.2
0.9585	278.8	0.2
0.9562	278.9	0.2

System: decan-1-ol + 1-butyl-1-methylpyrrolidinium bis[(trifluoromethyl)sulfonyl]imide; phases: Liquid, Crystal
Fixed: Pressure, kPa = 101
Property: Solid-liquid equilibrium temperature, K (Liquid); method: VISOBS
Mole fraction of 1-butyl-1-methylpyrrolidinium bis[(trifluoromethyl)sulfonyl]imide	Solid-liquid equilibrium temperature, K	uncertainty
0.915	280.1	0.3
0.8865	280	0.2
0.7871	279.8	0.2
0.5174	279.7	0.2
0.465	279.5	0.2
0.4215	279.7	0.2
0.3649	279.6	0.2
0.3084	279.7	0.2
0.2472	279.7	0.2
0.2006	279.8	0.2
0.053	279.9	0.2

System: 2-methyl-1-butanol + 1-butyl-1-methylpyrrolidinium bis[(trifluoromethyl)sulfonyl]imide; phases: Liquid mixture 1, Liquid mixture 2
Fixed: Pressure, kPa = 101
Property: Liquid-liquid equilibrium temperature, K (Liquid mixture 1); method: VISOBS
Mole fraction of 1-butyl-1-methylpyrrolidinium bis[(trifluoromethyl)sulfonyl]imide	Liquid-liquid equilibrium temperature, K	uncertainty
0.7694	262.2	0.2
0.7291	271	0.2
0.7009	280.8	0.2
0.6676	284.9	0.2
0.638	289.9	0.2
0.6002	294.8	0.2
0.5654	299.5	0.2
0.5277	303.4	0.2
0.4783	305.6	0.2
0.4343	314	0.2
0.3915	317.8	0.2
0.3443	323	0.2
0.2867	327	0.2
0.2366	330.7	0.2
0.2104	332.4	0.2
0.1654	333.7	0.2
0.1404	333.8	0.2
0.1243	334	0.2
0.0998	334	0.2
0.0784	333.8	0.2
0.0625	333.4	0.2
0.0493	332.5	0.2
0.0378	331.2	0.2
0.0304	329.6	0.2
0.021	325.7	0.2
0.0159	322.3	0.2
0.009	315.1	0.2

System: 2-methyl-1-butanol + 1-butyl-1-methylpyrrolidinium bis[(trifluoromethyl)sulfonyl]imide; phases: Liquid, Crystal
Fixed: Pressure, kPa = 101
Property: Solid-liquid equilibrium temperature, K (Liquid); method: VISOBS
Mole fraction of 1-butyl-1-methylpyrrolidinium bis[(trifluoromethyl)sulfonyl]imide	Solid-liquid equilibrium temperature, K	uncertainty
0.9794	259.5	0.2
0.9643	259.3	0.2
0.9236	258.2	0.2
0.8965	257.2	0.2
0.8645	256.4	0.2
0.8433	256	0.2
0.812	254.9	0.2
0.7694	251	0.2
0.7291	251	0.2
0.7009	251.1	0.2

System: 2-methylbutan-2-ol + 1-butyl-1-methylpyrrolidinium bis[(trifluoromethyl)sulfonyl]imide; phases: Crystal, Liquid, Crystal, Air at 1 atmosphere
Property: Eutectic temperature, K (Crystal); method: DTA
Eutectic temperature, K	uncertainty
249.5	0.5

System: 2-methylbutan-2-ol + 1-butyl-1-methylpyrrolidinium bis[(trifluoromethyl)sulfonyl]imide; phases: Crystal, Liquid, Crystal, Air at 1 atmosphere
Property: Eutectic composition: mole fraction of 1-butyl-1-methylpyrrolidinium bis[(trifluoromethyl)sulfonyl]imide (Crystal); method: Derived from phase diagram analysis
Eutectic composition: mole fraction of 1-butyl-1-methylpyrrolidinium bis[(trifluoromethyl)sulfonyl]imide	uncertainty
0.682	0.003

System: 2-methylbutan-2-ol + 1-butyl-1-methylpyrrolidinium bis[(trifluoromethyl)sulfonyl]imide; phases: Liquid mixture 1, Liquid mixture 2
Fixed: Pressure, kPa = 101
Property: Liquid-liquid equilibrium temperature, K (Liquid mixture 1); method: VISOBS
Mole fraction of 1-butyl-1-methylpyrrolidinium bis[(trifluoromethyl)sulfonyl]imide	Liquid-liquid equilibrium temperature, K	uncertainty
0.493	280.5	0.2
0.4263	291.7	0.2
0.3832	297	0.2
0.3419	305	0.2
0.2967	311.9	0.2
0.2532	322	0.2
0.2256	329.9	0.2
0.2092	332.3	0.2
0.1843	337.5	0.2
0.1552	344.6	0.2
0.1222	352	0.2
0.1028	355.4	0.2
0.093	356	0.2
0.0848	356.7	0.2
0.0726	357.4	0.2
0.0604	358	0.2
0.0511	358	0.2
0.0485	357.8	0.2
0.0394	356.5	0.2
0.0294	355.3	0.2
0.0229	354.7	0.2
0.0186	353.6	0.2
0.0141	350.2	0.2
0.0085	343.6	0.2
0.0062	340.1	0.2

System: 2-methylbutan-2-ol + 1-butyl-1-methylpyrrolidinium bis[(trifluoromethyl)sulfonyl]imide; phases: Liquid, Crystal
Fixed: Pressure, kPa = 101
Property: Solid-liquid equilibrium temperature, K (Liquid); method: VISOBS
Mole fraction of 1-butyl-1-methylpyrrolidinium bis[(trifluoromethyl)sulfonyl]imide	Solid-liquid equilibrium temperature, K	uncertainty
0.9907	259.4	0.2
0.9898	259.2	0.2
0.9787	257.3	0.2
0.9338	257.1	0.2
0.8905	256.5	0.2
0.8649	255.7	0.2
0.8276	255.6	0.2
0.7965	255.3	0.2
0.76	254.2	0.2
0.7292	253.1	0.2
0.7154	252.6	0.2
0.6825	249.8	0.2
0.6825	247.8	0.2

System: 2-methylbutan-2-ol + 1-butyl-1-methylpyrrolidinium bis[(trifluoromethyl)sulfonyl]imide; phases: Liquid, Crystal
Fixed: Pressure, kPa = 101
Property: Solid-liquid equilibrium temperature, K (Liquid); method: VISOBS
Mole fraction of 1-butyl-1-methylpyrrolidinium bis[(trifluoromethyl)sulfonyl]imide	Solid-liquid equilibrium temperature, K	uncertainty
0.6592	252.4	7.3
0.647	253.7	7.1
0.6194	260	3.6
0.493	264.6	0.6
0.4263	264.5	0.7
0.0186	264.6	0.2
0.0062	264.6	0.2

System: (Z)-9-octadecenoic acid + 1-butyl-1-methylpyrrolidinium bis[(trifluoromethyl)sulfonyl]imide; phases: Crystal, Liquid, Crystal, Air at 1 atmosphere
Property: Eutectic temperature, K (Crystal); method: DTA
Eutectic temperature, K	uncertainty
260.1	0.5

System: (Z)-9-octadecenoic acid + 1-butyl-1-methylpyrrolidinium bis[(trifluoromethyl)sulfonyl]imide; phases: Crystal, Liquid, Crystal, Air at 1 atmosphere
Property: Eutectic composition: mole fraction of 1-butyl-1-methylpyrrolidinium bis[(trifluoromethyl)sulfonyl]imide (Crystal); method: Derived from phase diagram analysis
Eutectic composition: mole fraction of 1-butyl-1-methylpyrrolidinium bis[(trifluoromethyl)sulfonyl]imide	uncertainty
0.999	0.001

System: (Z)-9-octadecenoic acid + 1-butyl-1-methylpyrrolidinium bis[(trifluoromethyl)sulfonyl]imide; phases: Liquid mixture 1, Liquid mixture 2
Fixed: Pressure, kPa = 101
Property: Liquid-liquid equilibrium temperature, K (Liquid mixture 1); method: VISOBS
Mole fraction of 1-butyl-1-methylpyrrolidinium bis[(trifluoromethyl)sulfonyl]imide	Liquid-liquid equilibrium temperature, K	uncertainty
0.9961	285.4	0.2
0.9953	292.5	0.2
0.995	294.7	0.2
0.9938	302.6	0.2
0.9925	311.2	0.2
0.9915	318.9	0.2
0.9882	334.3	0.2
0.9845	346.5	0.2

System: (Z)-9-octadecenoic acid + 1-butyl-1-methylpyrrolidinium bis[(trifluoromethyl)sulfonyl]imide; phases: Liquid, Crystal
Fixed: Pressure, kPa = 101
Property: Solid-liquid equilibrium temperature, K (Liquid); method: VISOBS
Mole fraction of 1-butyl-1-methylpyrrolidinium bis[(trifluoromethyl)sulfonyl]imide	Solid-liquid equilibrium temperature, K	uncertainty
0.9993	260.1	0.2
0.9993	260	0.2
0.9983	266.2	0.2

System: (Z)-9-octadecenoic acid + 1-butyl-1-methylpyrrolidinium bis[(trifluoromethyl)sulfonyl]imide; phases: Liquid, Crystal
Fixed: Pressure, kPa = 101
Property: Solid-liquid equilibrium temperature, K (Liquid); method: VISOBS
Mole fraction of 1-butyl-1-methylpyrrolidinium bis[(trifluoromethyl)sulfonyl]imide	Solid-liquid equilibrium temperature, K	uncertainty
0.9972	266	0.2
0.9972	266.5	0.2
0.9979	270.3	0.2
0.9968	272.6	0.2
0.9965	273.4	0.2
0.9961	280	0.2
0.9938	279.3	0.2
0.9845	279.4	0.2
0.9607	279.4	0.2

System: decan-1-ol + 1-hexyl-1-methylpyrrolidinium chloride; phases: Crystal, Liquid, Crystal, Air at 1 atmosphere
Property: Eutectic temperature, K (Crystal); method: DTA
Eutectic temperature, K	uncertainty
269.1	0.5

System: decan-1-ol + 1-hexyl-1-methylpyrrolidinium chloride; phases: Crystal, Liquid, Crystal, Air at 1 atmosphere
Property: Eutectic composition: mole fraction of 1-hexyl-1-methylpyrrolidinium chloride (Crystal); method: Derived from phase diagram analysis
Eutectic composition: mole fraction of 1-hexyl-1-methylpyrrolidinium chloride	uncertainty
0.237	0.002

System: decan-1-ol + 1-hexyl-1-methylpyrrolidinium chloride; phases: Liquid, Crystal
Fixed: Pressure, kPa = 101
Property: Solid-liquid equilibrium temperature, K (Liquid); method: VISOBS
Mole fraction of 1-hexyl-1-methylpyrrolidinium chloride	Solid-liquid equilibrium temperature, K	uncertainty
0.5031	355.9	0.2
0.4419	352.2	0.2
0.3988	347.3	0.2
0.3646	339.6	0.2
0.3193	324.2	0.2
0.297	311.8	0.2
0.2782	300.6	0.2
0.2662	294.4	0.2
0.2565	285.6	0.2
0.2502	280.7	0.2
0.2456	276.1	0.2
0.2417	271.5	0.2
0.2396	269.4	0.2
0.2374	269.1	0.2

System: decan-1-ol + 1-hexyl-1-methylpyrrolidinium chloride; phases: Liquid, Crystal
Fixed: Pressure, kPa = 101
Property: Solid-liquid equilibrium temperature, K (Liquid); method: VISOBS
Mole fraction of 1-hexyl-1-methylpyrrolidinium chloride	Solid-liquid equilibrium temperature, K	uncertainty
0.234	269.5	0.2
0.2283	270	0.2
0.2143	271.1	0.2
0.2031	271.7	0.2
0.1865	272.9	0.2
0.1681	273.9	0.2
0.1492	274.8	0.2
0.132	275.9	0.2
0.1176	276.6	0.2
0.1023	277.3	0.2
0.087	278.2	0.2
0.0597	279.1	0.2
0.0355	280.2	0.2
0.021	280.5	0.2

System: 2-methyl-1-butanol + 1-hexyl-1-methylpyrrolidinium chloride; phases: Liquid, Crystal
Fixed: Pressure, kPa = 101
Property: Solid-liquid equilibrium temperature, K (Liquid); method: VISOBS
Mole fraction of 1-hexyl-1-methylpyrrolidinium chloride	Solid-liquid equilibrium temperature, K	uncertainty
0.3432	351.4	0.2
0.3067	333.8	0.2
0.2759	316.2	0.2
0.2607	303.6	0.2
0.2391	291.1	0.2
0.2238	280.9	0.2
0.2079	269.4	0.2
0.1905	257.2	0.2
0.1593	245.4	0.2

System: 2-methylbutan-2-ol + 1-hexyl-1-methylpyrrolidinium chloride; phases: Crystal, Liquid, Crystal, Air at 1 atmosphere
Property: Eutectic temperature, K (Crystal); method: DTA
Eutectic temperature, K	uncertainty
264.3	0.5

System: 2-methylbutan-2-ol + 1-hexyl-1-methylpyrrolidinium chloride; phases: Crystal, Liquid, Crystal, Air at 1 atmosphere
Property: Eutectic composition: mole fraction of 1-hexyl-1-methylpyrrolidinium chloride (Crystal); method: Derived from phase diagram analysis
Eutectic composition: mole fraction of 1-hexyl-1-methylpyrrolidinium chloride	uncertainty
0.035	0.001

System: 2-methylbutan-2-ol + 1-hexyl-1-methylpyrrolidinium chloride; phases: Liquid, Crystal
Fixed: Pressure, kPa = 101
Property: Solid-liquid equilibrium temperature, K (Liquid); method: VISOBS
Mole fraction of 1-hexyl-1-methylpyrrolidinium chloride	Solid-liquid equilibrium temperature, K	uncertainty
0.235	357	0.2
0.2261	352.2	0.2
0.2063	338.2	0.2
0.1891	326.2	0.2
0.1723	316.7	0.2
0.1204	292.9	0.2
0.1097	289.1	0.2
0.0959	284.3	0.2
0.0822	280.3	0.2
0.0761	277	0.2
0.0666	273.9	0.2
0.0399	262	0.2
0.1608	310.9	0.2
0.1466	303.6	0.2
0.1345	298.2	0.2
0.0573	269.8	0.2
0.0481	266.3	0.2
0.0438	265.3	0.2

System: 2-methylbutan-2-ol + 1-hexyl-1-methylpyrrolidinium chloride; phases: Liquid, Crystal
Fixed: Pressure, kPa = 101
Property: Solid-liquid equilibrium temperature, K (Liquid); method: VISOBS
Mole fraction of 1-hexyl-1-methylpyrrolidinium chloride	Solid-liquid equilibrium temperature, K	uncertainty
0.0348	264.3	0.2
0.0306	264.7	0.2
0.0247	264.9	0.2
0.0199	265	0.2
0.0154	265.1	0.2
0.011	265.2	0.2
0.0044	263.4	0.2

System: (Z)-9-octadecenoic acid + 1-hexyl-1-methylpyrrolidinium chloride; phases: Crystal, Liquid, Crystal, Air at 1 atmosphere
Property: Eutectic temperature, K (Crystal); method: DTA
Eutectic temperature, K	uncertainty
282	0.5

System: (Z)-9-octadecenoic acid + 1-hexyl-1-methylpyrrolidinium chloride; phases: Crystal, Liquid, Crystal, Air at 1 atmosphere
Property: Eutectic composition: mole fraction of 1-hexyl-1-methylpyrrolidinium chloride (Crystal); method: Derived from phase diagram analysis
Eutectic composition: mole fraction of 1-hexyl-1-methylpyrrolidinium chloride	uncertainty
0.288	0.003

System: (Z)-9-octadecenoic acid + 1-hexyl-1-methylpyrrolidinium chloride; phases: Liquid, Crystal
Fixed: Pressure, kPa = 101
Property: Solid-liquid equilibrium temperature, K (Liquid); method: VISOBS
Mole fraction of 1-hexyl-1-methylpyrrolidinium chloride	Solid-liquid equilibrium temperature, K	uncertainty
0.5642	365.1	0.2
0.4481	341.7	0.2
0.3962	326.6	0.2
0.3826	317.1	0.2
0.3427	302.6	0.2
0.3218	292.1	0.2
0.3171	290.4	0.2
0.3094	288.1	0.2
0.2974	285.6	0.2
0.2882	282	0.2

System: (Z)-9-octadecenoic acid + 1-hexyl-1-methylpyrrolidinium chloride; phases: Liquid, Crystal
Fixed: Pressure, kPa = 101
Property: Solid-liquid equilibrium temperature, K (Liquid); method: VISOBS
Mole fraction of 1-hexyl-1-methylpyrrolidinium chloride	Solid-liquid equilibrium temperature, K	uncertainty
0.2765	282.1	0.2
0.2675	282.3	0.2
0.2517	282.5	0.2
0.2345	283	0.2
0.224	283.6	0.2
0.1929	284.5	0.2
0.1561	285.4	0.2
0.1185	286	0.2
0.0947	286.4	0.2
0.064	286.4	0.2
0.048	286.5	0.2

System: decan-1-ol + 1-hexyl-1-methylpyrrolidinium bis(trifluoromethanesulfonyl)imide; phases: Crystal, Liquid, Crystal, Air at 1 atmosphere
Property: Eutectic temperature, K (Crystal); method: DTA
Eutectic temperature, K	uncertainty
273.3	0.5

System: decan-1-ol + 1-hexyl-1-methylpyrrolidinium bis(trifluoromethanesulfonyl)imide; phases: Crystal, Liquid, Crystal, Air at 1 atmosphere
Property: Eutectic composition: mole fraction of 1-hexyl-1-methylpyrrolidinium bis(trifluoromethanesulfonyl)imide (Crystal); method: Derived from phase diagram analysis
Eutectic composition: mole fraction of 1-hexyl-1-methylpyrrolidinium bis(trifluoromethanesulfonyl)imide	uncertainty
0.976	0.001

System: decan-1-ol + 1-hexyl-1-methylpyrrolidinium bis(trifluoromethanesulfonyl)imide; phases: Liquid mixture 1, Liquid mixture 2
Fixed: Pressure, kPa = 101
Property: Liquid-liquid equilibrium temperature, K (Liquid mixture 1); method: VISOBS
Mole fraction of 1-hexyl-1-methylpyrrolidinium bis(trifluoromethanesulfonyl)imide	Liquid-liquid equilibrium temperature, K	uncertainty
0.8852	288	0.2
0.8643	296.5	0.2
0.8394	303.3	0.2
0.8196	309.3	0.2
0.797	315.6	0.2
0.7595	322	0.2
0.7473	327.1	0.2
0.7015	334.3	0.2
0.6824	337.4	0.2
0.6386	342.9	0.2
0.6002	348	0.2
0.5702	350.8	0.2
0.5108	358.2	0.2
0.4587	363.7	0.2
0.0155	357.1	0.2
0.0135	356	0.2
0.0102	352.7	0.2
0.0066	344.7	0.2
0.0044	325.3	0.2

System: decan-1-ol + 1-hexyl-1-methylpyrrolidinium bis(trifluoromethanesulfonyl)imide; phases: Liquid, Crystal
Fixed: Pressure, kPa = 101
Property: Solid-liquid equilibrium temperature, K (Liquid); method: VISOBS
Mole fraction of 1-hexyl-1-methylpyrrolidinium bis(trifluoromethanesulfonyl)imide	Solid-liquid equilibrium temperature, K	uncertainty
0.9951	276.7	0.2
0.9929	276.2	0.2

System: decan-1-ol + 1-hexyl-1-methylpyrrolidinium bis(trifluoromethanesulfonyl)imide; phases: Liquid, Crystal
Fixed: Pressure, kPa = 101
Property: Solid-liquid equilibrium temperature, K (Liquid); method: VISOBS
Mole fraction of 1-hexyl-1-methylpyrrolidinium bis(trifluoromethanesulfonyl)imide	Solid-liquid equilibrium temperature, K	uncertainty
0.9651	274.7	1.9
0.9344	276.2	0.3
0.9056	279.5	0.2
0.8852	279.7	0.2
0.8643	280.2	5.5
0.8394	280.2	4.4
0.0028	280.5	0.2

System: 2-methyl-1-butanol + 1-hexyl-1-methylpyrrolidinium bis(trifluoromethanesulfonyl)imide; phases: Liquid mixture 1, Liquid mixture 2
Fixed: Pressure, kPa = 101
Property: Liquid-liquid equilibrium temperature, K (Liquid mixture 1); method: VISOBS
Mole fraction of 1-hexyl-1-methylpyrrolidinium bis(trifluoromethanesulfonyl)imide	Liquid-liquid equilibrium temperature, K	uncertainty
0.6287	271.3	0.2
0.5608	276.6	0.2
0.5055	282.7	0.2
0.4663	286.4	0.2
0.432	290.5	0.2
0.4024	293.5	0.2
0.3766	296.4	0.2
0.304	303.4	0.2
0.2381	308.3	0.2
0.1912	310.2	0.2
0.1592	310.9	0.2
0.1237	311.3	0.2
0.0967	311.4	0.2
0.0689	311.3	0.2
0.0517	310.9	0.2
0.0392	309.9	0.2
0.0285	308	0.2
0.02	305.7	0.2
0.0137	302.9	0.2
0.0014	289.4	0.2

System: 2-methyl-1-butanol + 1-hexyl-1-methylpyrrolidinium bis(trifluoromethanesulfonyl)imide; phases: Liquid, Crystal
Fixed: Pressure, kPa = 101
Property: Solid-liquid equilibrium temperature, K (Liquid); method: VISOBS
Mole fraction of 1-hexyl-1-methylpyrrolidinium bis(trifluoromethanesulfonyl)imide	Solid-liquid equilibrium temperature, K	uncertainty
0.8854	271.2	0.2
0.8519	269.1	0.2
0.8221	268.1	0.2
0.739	265.9	0.2
0.6748	263.9	0.2

System: 2-methyl-1-butanol + 1-hexyl-1-methylpyrrolidinium bis(trifluoromethanesulfonyl)imide; phases: Liquid, Crystal
Fixed: Pressure, kPa = 101
Property: Solid-liquid equilibrium temperature, K (Liquid); method: VISOBS
Mole fraction of 1-hexyl-1-methylpyrrolidinium bis(trifluoromethanesulfonyl)imide	Solid-liquid equilibrium temperature, K	uncertainty
0.6287	263.5	0.2
0.6092	263.4	0.2
0.3766	263.2	0.2
0.0137	263.2	0.2
0.0014	263.1	0.2

System: 2-methylbutan-2-ol + 1-hexyl-1-methylpyrrolidinium bis(trifluoromethanesulfonyl)imide; phases: Crystal, Liquid, Crystal, Air at 1 atmosphere
Property: Eutectic temperature, K (Crystal); method: DTA
Eutectic temperature, K	uncertainty
257.1	0.5

System: 2-methylbutan-2-ol + 1-hexyl-1-methylpyrrolidinium bis(trifluoromethanesulfonyl)imide; phases: Crystal, Liquid, Crystal, Air at 1 atmosphere
Property: Eutectic composition: mole fraction of 1-hexyl-1-methylpyrrolidinium bis(trifluoromethanesulfonyl)imide (Crystal); method: Derived from phase diagram analysis
Eutectic composition: mole fraction of 1-hexyl-1-methylpyrrolidinium bis(trifluoromethanesulfonyl)imide	uncertainty
0.576	0.004

System: 2-methylbutan-2-ol + 1-hexyl-1-methylpyrrolidinium bis(trifluoromethanesulfonyl)imide; phases: Liquid mixture 1, Liquid mixture 2
Fixed: Pressure, kPa = 101
Property: Liquid-liquid equilibrium temperature, K (Liquid mixture 1); method: VISOBS
Mole fraction of 1-hexyl-1-methylpyrrolidinium bis(trifluoromethanesulfonyl)imide	Liquid-liquid equilibrium temperature, K	uncertainty
0.4077	271.2	0.2
0.368	277.6	0.2
0.3414	281.8	0.2
0.3001	287.6	0.2
0.2605	295	0.2
0.2179	303	0.2
0.1727	312.3	0.2
0.1447	317.9	0.2
0.1074	324.4	0.2
0.0803	326.4	0.2
0.0569	327.1	0.2
0.0399	327.2	0.2
0.0267	326.3	0.2
0.0187	324.6	0.2
0.0154	322.9	0.2

System: 2-methylbutan-2-ol + 1-hexyl-1-methylpyrrolidinium bis(trifluoromethanesulfonyl)imide; phases: Liquid, Crystal
Fixed: Pressure, kPa = 101
Property: Solid-liquid equilibrium temperature, K (Liquid); method: VISOBS
Mole fraction of 1-hexyl-1-methylpyrrolidinium bis(trifluoromethanesulfonyl)imide	Solid-liquid equilibrium temperature, K	uncertainty
0.9098	272.4	0.2
0.8867	270.5	0.2
0.8593	268.2	0.2
0.8131	264.3	0.2
0.777	264.3	0.2
0.7114	261.9	0.2
0.6359	259.5	0.2

System: 2-methylbutan-2-ol + 1-hexyl-1-methylpyrrolidinium bis(trifluoromethanesulfonyl)imide; phases: Liquid, Crystal
Fixed: Pressure, kPa = 101
Property: Solid-liquid equilibrium temperature, K (Liquid); method: VISOBS
Mole fraction of 1-hexyl-1-methylpyrrolidinium bis(trifluoromethanesulfonyl)imide	Solid-liquid equilibrium temperature, K	uncertainty
0.5599	258.1	4.6
0.5105	260.8	3
0.4769	262.6	1.6
0.434	263.9	0.9
0.4077	263.9	0.5
0.368	264.3	0.3
0.3414	264.3	0.3
0.0154	264.2	0.2

System: (Z)-9-octadecenoic acid + 1-hexyl-1-methylpyrrolidinium bis(trifluoromethanesulfonyl)imide; phases: Liquid mixture 1, Liquid mixture 2
Fixed: Pressure, kPa = 101
Property: Liquid-liquid equilibrium temperature, K (Liquid mixture 1); method: VISOBS
Mole fraction of 1-hexyl-1-methylpyrrolidinium bis(trifluoromethanesulfonyl)imide	Liquid-liquid equilibrium temperature, K	uncertainty
0.9936	297.9	0.2
0.9929	310.6	0.2
0.9905	329.8	0.2
0.9885	351.2	0.2
0.986	370.4	0.2

System: (Z)-9-octadecenoic acid + 1-hexyl-1-methylpyrrolidinium bis(trifluoromethanesulfonyl)imide; phases: Liquid, Crystal
Fixed: Pressure, kPa = 101
Property: Solid-liquid equilibrium temperature, K (Liquid); method: VISOBS
Mole fraction of 1-hexyl-1-methylpyrrolidinium bis(trifluoromethanesulfonyl)imide	Solid-liquid equilibrium temperature, K	uncertainty
0.9936	279.9	0.2
0.9696	280	0.2

System: 2-phenylethanol + water + 1-butyl-1-methylpyrrolidinium bis[(trifluoromethyl)sulfonyl]imide; phases: Liquid mixture 2, Liquid mixture 1
Fixed: Temperature, K = 308.15
Fixed: Pressure, kPa = 101
Property: Mole fraction of 2-phenylethanol (Liquid mixture 2); method: Chromatography
Property: Mole fraction of 2-phenylethanol (Liquid mixture 1); method: Chromatography
Property: Mole fraction of 1-butyl-1-methylpyrrolidinium bis[(trifluoromethyl)sulfonyl]imide (Liquid mixture 1); method: Chromatography
Mole fraction of 1-butyl-1-methylpyrrolidinium bis[(trifluoromethyl)sulfonyl]imide	Mole fraction of 2-phenylethanol	uncertainty	Mole fraction of 2-phenylethanol	uncertainty	Mole fraction of 1-butyl-1-methylpyrrolidinium bis[(trifluoromethyl)sulfonyl]imide	uncertainty
0.681	0		0		0.001	
0.678	0.014	0.014	0		0	
0.638	0.037	0.037	0.001	0.001	0	
0.54	0.12	0.1	0.001	0.001	0	
0.389	0.282	0.1	0.002	0.002	0	
0.433	0.24	0.1	0.002	0.002	0	
0.303	0.356	0.1	0.002	0.002	0	
0.231	0.381	0.1	0.003	0.003	0.003	
0.122	0.464	0.1	0.003	0.003	0	
0.12	0.445	0.1	0.003	0.003	0	
0.083	0.468	0.1	0.003	0.003	0.002	
0.138	0.429	0.101	0.003	0.003	0.003	
0	0.582	0.1	0.004	0.004	0	

System: water + 1-butyl-1-methylpyrrolidinium bis[(trifluoromethyl)sulfonyl]imide; phases: Liquid mixture 2, Liquid mixture 1
Property: Mole fraction of 1-butyl-1-methylpyrrolidinium bis[(trifluoromethyl)sulfonyl]imide (Liquid mixture 2); method: Chromatography
Temperature, K	Pressure, kPa	Mole fraction of 1-butyl-1-methylpyrrolidinium bis[(trifluoromethyl)sulfonyl]imide	uncertainty
308.15	101	0.681	

System: water + 1-butyl-1-methylpyrrolidinium bis[(trifluoromethyl)sulfonyl]imide; phases: Liquid mixture 1, Liquid mixture 2
Property: Mole fraction of 1-butyl-1-methylpyrrolidinium bis[(trifluoromethyl)sulfonyl]imide (Liquid mixture 1); method: Chromatography
Temperature, K	Pressure, kPa	Mole fraction of 1-butyl-1-methylpyrrolidinium bis[(trifluoromethyl)sulfonyl]imide	uncertainty
308.15	101	0.001	

System: 2-phenylethanol + water; phases: Liquid mixture 2, Liquid mixture 1
Property: Mole fraction of 2-phenylethanol (Liquid mixture 2); method: Chromatography
Temperature, K	Pressure, kPa	Mole fraction of 2-phenylethanol	uncertainty
308.15	101	0.582	0.1

System: 2-phenylethanol + water; phases: Liquid mixture 1, Liquid mixture 2
Property: Mole fraction of 2-phenylethanol (Liquid mixture 1); method: Chromatography
Temperature, K	Pressure, kPa	Mole fraction of 2-phenylethanol	uncertainty
308.15	101	0.004	0.004
