Measured thermophysical data. Measurement and correlation of solubility and dissolution properties of flunixin meglumine in pure and binary solvents
Source: Fluid Phase Equilib., 2015, 10.1016/j.fluid.2015.06.026
Compound 1: (2R,3R,4R,5S)-6-methylaminohexane-1,2,3,4,5-pentaol; 2-[2-methyl-3-(trifluoromethyl)anilino]pyridine-3-carboxylic acid, C21H28F3N3O7, InChI=1S/C14H11F3N2O2.C7H17NO5/c1-8-10(14(15,16)17)5-2-6-11(8)19-12-9(13(20)21)4-3-7-18-12;1-8-2-4(10)6(12)7(13)5(11)3-9/h2-7H,1H3,(H,18,19)(H,20,21);4-13H,2-3H2,1H3/t;4-,5+,6+,7+/m.0/s1, purity 98%
Compound 2: water, H2O, InChI=1S/H2O/h1H2, purity 99.8%
Compound 3: methanol, CH4O, InChI=1S/CH4O/c1-2/h2H,1H3, purity 99.5%
Compound 4: ethanol, C2H6O, InChI=1S/C2H6O/c1-2-3/h3H,2H2,1H3, purity 99.5%
Compound 5: propan-2-ol, C3H8O, InChI=1S/C3H8O/c1-3(2)4/h3-4H,1-2H3, purity 99.5%
Compound 6: acetone, C3H6O, InChI=1S/C3H6O/c1-3(2)4/h1-2H3, purity 99.5%
Compound 7: acetonitrile, C2H3N, InChI=1S/C2H3N/c1-2-3/h1H3, purity 99.5%

System: (2R,3R,4R,5S)-6-methylaminohexane-1,2,3,4,5-pentaol; 2-[2-methyl-3-(trifluoromethyl)anilino]pyridine-3-carboxylic acid; phases: Crystal, Liquid, Air at 1 atmosphere
Property: Normal melting temperature, K (Crystal); method: DTA
Normal melting temperature, K	uncertainty
411.23	1.06

System: (2R,3R,4R,5S)-6-methylaminohexane-1,2,3,4,5-pentaol; 2-[2-methyl-3-(trifluoromethyl)anilino]pyridine-3-carboxylic acid; phases: Crystal, Liquid, Air at 1 atmosphere
Property: Molar enthalpy of transition or fusion, kJ/mol (Crystal); method: DSC
Molar enthalpy of transition or fusion, kJ/mol	uncertainty
52.6	3.7

System: water + (2R,3R,4R,5S)-6-methylaminohexane-1,2,3,4,5-pentaol; 2-[2-methyl-3-(trifluoromethyl)anilino]pyridine-3-carboxylic acid; phases: Liquid, Crystal
Fixed: Pressure, kPa = 100
Property: Mole fraction of (2R,3R,4R,5S)-6-methylaminohexane-1,2,3,4,5-pentaol; 2-[2-methyl-3-(trifluoromethyl)anilino]pyridine-3-carboxylic acid (Liquid); method: Gravimetric
Temperature, K	Mole fraction of (2R,3R,4R,5S)-6-methylaminohexane-1,2,3,4,5-pentaol; 2-[2-methyl-3-(trifluoromethyl)anilino]pyridine-3-carboxylic acid	uncertainty
283.15	0.00738	0.001181
288.15	0.008861	0.001418
293.15	0.01113	0.00178
298.15	0.01513	0.00242
303.15	0.02105	0.00337
308.15	0.02863	0.00458
313.15	0.0382	0.00612
318.15	0.05037	0.00806
323.15	0.0633	0.01013
328.15	0.08071	0.01292

System: methanol + (2R,3R,4R,5S)-6-methylaminohexane-1,2,3,4,5-pentaol; 2-[2-methyl-3-(trifluoromethyl)anilino]pyridine-3-carboxylic acid; phases: Liquid, Crystal
Fixed: Pressure, kPa = 100
Property: Mole fraction of (2R,3R,4R,5S)-6-methylaminohexane-1,2,3,4,5-pentaol; 2-[2-methyl-3-(trifluoromethyl)anilino]pyridine-3-carboxylic acid (Liquid); method: Gravimetric
Temperature, K	Mole fraction of (2R,3R,4R,5S)-6-methylaminohexane-1,2,3,4,5-pentaol; 2-[2-methyl-3-(trifluoromethyl)anilino]pyridine-3-carboxylic acid	uncertainty
283.15	0.02018	0.00323
288.15	0.02398	0.00384
293.15	0.02931	0.00469
298.15	0.03486	0.00558
303.15	0.04478	0.00717
308.15	0.05467	0.00875
313.15	0.06524	0.01044
318.15	0.08004	0.01281
323.15	0.0934	0.01495
328.15	0.1112	0.0178

System: ethanol + (2R,3R,4R,5S)-6-methylaminohexane-1,2,3,4,5-pentaol; 2-[2-methyl-3-(trifluoromethyl)anilino]pyridine-3-carboxylic acid; phases: Liquid, Crystal
Fixed: Pressure, kPa = 100
Property: Mole fraction of (2R,3R,4R,5S)-6-methylaminohexane-1,2,3,4,5-pentaol; 2-[2-methyl-3-(trifluoromethyl)anilino]pyridine-3-carboxylic acid (Liquid); method: Gravimetric
Temperature, K	Mole fraction of (2R,3R,4R,5S)-6-methylaminohexane-1,2,3,4,5-pentaol; 2-[2-methyl-3-(trifluoromethyl)anilino]pyridine-3-carboxylic acid	uncertainty
283.15	0.002853	0.000457
288.15	0.003526	0.000564
293.15	0.004476	0.000717
298.15	0.005763	0.000923
303.15	0.007753	0.001242
308.15	0.01128	0.00181
313.15	0.01616	0.00259
318.15	0.02282	0.00366
323.15	0.03451	0.00553
328.15	0.05015	0.00803

System: propan-2-ol + (2R,3R,4R,5S)-6-methylaminohexane-1,2,3,4,5-pentaol; 2-[2-methyl-3-(trifluoromethyl)anilino]pyridine-3-carboxylic acid; phases: Liquid, Crystal
Fixed: Pressure, kPa = 100
Property: Mole fraction of (2R,3R,4R,5S)-6-methylaminohexane-1,2,3,4,5-pentaol; 2-[2-methyl-3-(trifluoromethyl)anilino]pyridine-3-carboxylic acid (Liquid); method: Gravimetric
Temperature, K	Mole fraction of (2R,3R,4R,5S)-6-methylaminohexane-1,2,3,4,5-pentaol; 2-[2-methyl-3-(trifluoromethyl)anilino]pyridine-3-carboxylic acid	uncertainty
283.15	0.000626	0.0001
288.15	0.000759	0.000121
293.15	0.000924	0.000148
298.15	0.001182	0.000189
303.15	0.001622	0.00026
308.15	0.001985	0.000318
313.15	0.002987	0.000479
318.15	0.004329	0.000694
323.15	0.006421	0.001029
328.15	0.009345	0.001496

System: acetone + (2R,3R,4R,5S)-6-methylaminohexane-1,2,3,4,5-pentaol; 2-[2-methyl-3-(trifluoromethyl)anilino]pyridine-3-carboxylic acid; phases: Liquid, Crystal
Fixed: Pressure, kPa = 100
Property: Mole fraction of (2R,3R,4R,5S)-6-methylaminohexane-1,2,3,4,5-pentaol; 2-[2-methyl-3-(trifluoromethyl)anilino]pyridine-3-carboxylic acid (Liquid); method: Gravimetric
Temperature, K	Mole fraction of (2R,3R,4R,5S)-6-methylaminohexane-1,2,3,4,5-pentaol; 2-[2-methyl-3-(trifluoromethyl)anilino]pyridine-3-carboxylic acid	uncertainty
283.15	0.00077	0.000123
288.15	0.000937	0.00015
293.15	0.001193	0.000191
298.15	0.001583	0.000253
303.15	0.002154	0.000345
308.15	0.002754	0.000441
313.15	0.003545	0.000568
318.15	0.004798	0.000769
323.15	0.006981	0.001118
328.15	0.01043	0.00167

System: acetonitrile + (2R,3R,4R,5S)-6-methylaminohexane-1,2,3,4,5-pentaol; 2-[2-methyl-3-(trifluoromethyl)anilino]pyridine-3-carboxylic acid; phases: Liquid, Crystal
Fixed: Pressure, kPa = 100
Property: Mole fraction of (2R,3R,4R,5S)-6-methylaminohexane-1,2,3,4,5-pentaol; 2-[2-methyl-3-(trifluoromethyl)anilino]pyridine-3-carboxylic acid (Liquid); method: Gravimetric
Temperature, K	Mole fraction of (2R,3R,4R,5S)-6-methylaminohexane-1,2,3,4,5-pentaol; 2-[2-methyl-3-(trifluoromethyl)anilino]pyridine-3-carboxylic acid	uncertainty
283.15	3.161e-05	5.06e-06
288.15	3.861e-05	6.18e-06
293.15	4.583e-05	7.34e-06
298.15	6.878e-05	1.102e-05
303.15	0.0001091	1.75e-05
308.15	0.0001735	2.78e-05
313.15	0.0002496	4e-05
318.15	0.0003497	5.6e-05
323.15	0.0005165	8.27e-05
328.15	0.0007328	0.0001173

System: ethanol + propan-2-ol + (2R,3R,4R,5S)-6-methylaminohexane-1,2,3,4,5-pentaol; 2-[2-methyl-3-(trifluoromethyl)anilino]pyridine-3-carboxylic acid; phases: Liquid, Crystal
Fixed: Pressure, kPa = 100
Property: Mole fraction of (2R,3R,4R,5S)-6-methylaminohexane-1,2,3,4,5-pentaol; 2-[2-methyl-3-(trifluoromethyl)anilino]pyridine-3-carboxylic acid (Liquid); method: Gravimetric
Temperature, K	Solvent: Mole fraction of propan-2-ol	Mole fraction of (2R,3R,4R,5S)-6-methylaminohexane-1,2,3,4,5-pentaol; 2-[2-methyl-3-(trifluoromethyl)anilino]pyridine-3-carboxylic acid	uncertainty
283.15	1	0.000626	6.3e-05
283.15	0.8735	0.000713	0.000108
283.15	0.7542	0.000855	0.000111
283.15	0.6416	0.000932	0.000121
283.15	0.535	0.001121	0.000138
283.15	0.4341	0.001244	0.000148
283.15	0.3384	0.001483	0.000168
283.15	0.2474	0.001678	0.000179
283.15	0.1609	0.001929	0.000206
283.15	0.0785	0.002445	0.000249
283.15	0	0.002853	0.000286
288.15	1	0.000759	7.6e-05
288.15	0.8735	0.000825	0.000131
288.15	0.7542	0.001048	0.000165
288.15	0.6416	0.001217	0.000166
288.15	0.535	0.001434	0.000168
288.15	0.4341	0.001557	0.000171
288.15	0.3384	0.001753	0.000193
288.15	0.2474	0.001997	0.00022
288.15	0.1609	0.002414	0.000259
288.15	0.0785	0.002983	0.000304
288.15	0	0.003526	0.000353
293.15	1	0.000924	9.3e-05
293.15	0.8735	0.00098	0.000121
293.15	0.7542	0.001122	0.000175
293.15	0.6416	0.00139	0.000201
293.15	0.535	0.001617	0.00019
293.15	0.4341	0.001773	0.000207
293.15	0.3384	0.002099	0.000241
293.15	0.2474	0.002423	0.000265
293.15	0.1609	0.002855	0.00031
293.15	0.0785	0.003676	0.000376
293.15	0	0.004476	0.000448
298.15	1	0.001182	0.000118
298.15	0.8735	0.001285	0.000167
298.15	0.7542	0.001481	0.000211
298.15	0.6416	0.001744	0.000255
298.15	0.535	0.002112	0.000284
298.15	0.4341	0.00247	0.000291
298.15	0.3384	0.002796	0.000312
298.15	0.2474	0.003217	0.000348
298.15	0.1609	0.003728	0.000396
298.15	0.0785	0.004586	0.00047
298.15	0	0.005763	0.000577
303.15	1	0.001622	0.000162
303.15	0.8735	0.001862	0.000296
303.15	0.7542	0.002273	0.000343
303.15	0.6416	0.00265	0.000372
303.15	0.535	0.003167	0.000404
303.15	0.4341	0.003621	0.00043
303.15	0.3384	0.004212	0.000481
303.15	0.2474	0.004894	0.000525
303.15	0.1609	0.005559	0.000581
303.15	0.0785	0.006598	0.000671
303.15	0	0.007753	0.000777
308.15	1	0.001985	0.000199
308.15	0.8735	0.00238	0.000409
308.15	0.7542	0.002917	0.000436
308.15	0.6416	0.003365	0.000482
308.15	0.535	0.004085	0.000537
308.15	0.4341	0.0047	0.000573
308.15	0.3384	0.005558	0.000646
308.15	0.2474	0.006506	0.000734
308.15	0.1609	0.007968	0.000852
308.15	0.0785	0.009593	0.000976
308.15	0	0.01128	0.001131
313.15	1	0.002987	0.0003
313.15	0.8735	0.003344	0.000552
313.15	0.7542	0.004225	0.000705
313.15	0.6416	0.005077	0.000726
313.15	0.535	0.005991	0.000737
313.15	0.4341	0.006728	0.00076
313.15	0.3384	0.007566	0.000898
313.15	0.2474	0.009375	0.001105
313.15	0.1609	0.01171	0.00125
313.15	0.0785	0.013831	0.001404
313.15	0	0.016155	0.00162
318.15	1	0.004329	0.000434
318.15	0.8735	0.004784	0.000688
318.15	0.7542	0.005713	0.000937
318.15	0.6416	0.007046	0.001023
318.15	0.535	0.008216	0.001086
318.15	0.4341	0.00976	0.001192
318.15	0.3384	0.011253	0.001378
318.15	0.2474	0.014096	0.001635
318.15	0.1609	0.017092	0.001805
318.15	0.0785	0.019953	0.002022
318.15	0	0.022819	0.00229
323.15	1	0.006421	0.000644
323.15	0.8735	0.00732	0.001228
323.15	0.7542	0.009183	0.001498
323.15	0.6416	0.010922	0.001619
323.15	0.535	0.013231	0.001848
323.15	0.4341	0.015871	0.001968
323.15	0.3384	0.018433	0.002186
323.15	0.2474	0.022282	0.002497
323.15	0.1609	0.026397	0.002739
323.15	0.0785	0.029585	0.002995
323.15	0	0.034515	0.003463
328.15	1	0.009345	0.000937
328.15	0.8735	0.011727	0.002296
328.15	0.7542	0.014902	0.002372
328.15	0.6416	0.017386	0.002546
328.15	0.535	0.021251	0.002792
328.15	0.4341	0.024377	0.002848
328.15	0.3384	0.027871	0.003152
328.15	0.2474	0.03243	0.00351
328.15	0.1609	0.037379	0.003889
328.15	0.0785	0.043416	0.004396
328.15	0	0.050145	0.005025
