Measured thermophysical data. Phase behaviour of I-hexyloxymethyl-3-methyl-imidazolium and  1,3-dihexyloxymethyl-imidazolium based ionic liquids with  alcohols, water, ketones and hydrocarbons: The effect of  cation and anion on solubility
Source: Fluid Phase Equilib., 2007, 10.1016/j.fluid.2006.07.005
Compound 1: 1-(hexyloxymethyl)-3-methylimidazolium bis((trifluoromethyl)sulfonyl)amide, C13H21F6N3O5S2, InChI=1S/C11H21N2O.C2F6NO4S2/c1-3-4-5-6-9-14-11-13-8-7-12(2)10-13;3-1(4,5)14(10,11)9-15(12,13)2(6,7)8/h7-8,10H,3-6,9,11H2,1-2H3;/q+1;-1
Compound 2: 1-hexyloxymethyl-3-methylimidazolium tetrafluoroborate, C11H21BF4N2O, InChI=1S/C11H21N2O.BF4/c1-3-4-5-6-9-14-11-13-8-7-12(2)10-13;2-1(3,4)5/h7-8,10H,3-6,9,11H2,1-2H3;/q+1;-1
Compound 3: 1H-Imidazolium, 1,3-bis[(hexyloxy)methyl]-, tetrafluoroborate, C17H33BF4N2O2, InChI=1S/C17H33N2O2.BF4/c1-3-5-7-9-13-20-16-18-11-12-19(15-18)17-21-14-10-8-6-4-2;2-1(3,4)5/h11-12,15H,3-10,13-14,16-17H2,1-2H3;/q+1;-1
Compound 4: 1,3-dihexyloxymethylimidazolium (bis(trifluoromethyl)sulfonyl)imide, C19H33F6N3O6S2, InChI=1S/C17H33N2O2.C2F6NO4S2/c1-3-5-7-9-13-20-16-18-11-12-19(15-18)17-21-14-10-8-6-4-2;3-1(4,5)14(10,11)9-15(12,13)2(6,7)8/h11-12,15H,3-10,13-14,16-17H2,1-2H3;/q+1;-1
Compound 5: butan-1-ol, C4H10O, InChI=1S/C4H10O/c1-2-3-4-5/h5H,2-4H2,1H3, purity 99.8%
Compound 6: hexan-1-ol, C6H14O, InChI=1S/C6H14O/c1-2-3-4-5-6-7/h7H,2-6H2,1H3, purity 99.5%
Compound 7: octan-1-ol, C8H18O, InChI=1S/C8H18O/c1-2-3-4-5-6-7-8-9/h9H,2-8H2,1H3, purity 99.7%
Compound 8: decan-1-ol, C10H22O, InChI=1S/C10H22O/c1-2-3-4-5-6-7-8-9-10-11/h11H,2-10H2,1H3, purity 99.5%
Compound 9: hexane, C6H14, InChI=1S/C6H14/c1-3-5-6-4-2/h3-6H2,1-2H3, purity 99%
Compound 10: cyclohexane, C6H12, InChI=1S/C6H12/c1-2-4-6-5-3-1/h1-6H2, purity 99%
Compound 11: water, H2O, InChI=1S/H2O/h1H2

System: 1H-Imidazolium, 1,3-bis[(hexyloxy)methyl]-, tetrafluoroborate; phases: Crystal 1, Liquid, Air at 1 atmosphere
Property: Triple point temperature, K (Crystal 1); method: DTA
Triple point temperature, K	uncertainty
309.5	6.2

System: 1H-Imidazolium, 1,3-bis[(hexyloxy)methyl]-, tetrafluoroborate; phases: Crystal 2, Crystal 1, Air at 1 atmosphere
Property: Triple point temperature, K (Crystal 2); method: DTA
Triple point temperature, K	uncertainty
243.6	4.9

System: 1H-Imidazolium, 1,3-bis[(hexyloxy)methyl]-, tetrafluoroborate; phases: Crystal 3, Crystal 2, Air at 1 atmosphere
Property: Triple point temperature, K (Crystal 3); method: DTA
Triple point temperature, K	uncertainty
142.6	2.9

System: 1H-Imidazolium, 1,3-bis[(hexyloxy)methyl]-, tetrafluoroborate; phases: Crystal 1, Liquid, Air at 1 atmosphere
Property: Molar enthalpy of transition or fusion, kJ/mol (Crystal 1); method: DSC
Molar enthalpy of transition or fusion, kJ/mol	uncertainty
12.8	0.5

System: 1H-Imidazolium, 1,3-bis[(hexyloxy)methyl]-, tetrafluoroborate; phases: Crystal 2, Crystal 1, Air at 1 atmosphere
Property: Molar enthalpy of transition or fusion, kJ/mol (Crystal 2); method: DSC
Molar enthalpy of transition or fusion, kJ/mol	uncertainty
0.7	0.3

System: 1H-Imidazolium, 1,3-bis[(hexyloxy)methyl]-, tetrafluoroborate; phases: Crystal 3, Crystal 2, Air at 1 atmosphere
Property: Molar enthalpy of transition or fusion, kJ/mol (Crystal 3); method: DSC
Molar enthalpy of transition or fusion, kJ/mol	uncertainty
2	0.3

System: 1,3-dihexyloxymethylimidazolium (bis(trifluoromethyl)sulfonyl)imide; phases: Crystal 1, Liquid, Air at 1 atmosphere
Property: Triple point temperature, K (Crystal 1); method: DTA
Triple point temperature, K	uncertainty
273.8	5.5

System: 1,3-dihexyloxymethylimidazolium (bis(trifluoromethyl)sulfonyl)imide; phases: Glass, Liquid, Air at 1 atmosphere
Property: Triple point temperature, K (Glass); method: DTA
Triple point temperature, K	uncertainty
191.8	3.9

System: 1,3-dihexyloxymethylimidazolium (bis(trifluoromethyl)sulfonyl)imide; phases: Crystal 1, Liquid, Air at 1 atmosphere
Property: Molar enthalpy of transition or fusion, kJ/mol (Crystal 1); method: DSC
Molar enthalpy of transition or fusion, kJ/mol	uncertainty
16	0.5

System: hexan-1-ol + 1-(hexyloxymethyl)-3-methylimidazolium bis((trifluoromethyl)sulfonyl)amide; phases: Liquid mixture 1, Liquid mixture 2
Fixed: Pressure, kPa = 101
Property: Liquid-liquid equilibrium temperature, K (Liquid mixture 1); method: VISOBS:UFactor:4
Mole fraction of 1-(hexyloxymethyl)-3-methylimidazolium bis((trifluoromethyl)sulfonyl)amide	Liquid-liquid equilibrium temperature, K	uncertainty
0.0198	278	0.64
0.0265	280.5	0.63
0.037	282.49	0.62
0.0485	284.04	0.62
0.0572	285.08	0.62
0.0709	285.72	0.62
0.0813	285.94	0.62
0.0974	285.97	0.62

System: hexan-1-ol + 1-(hexyloxymethyl)-3-methylimidazolium bis((trifluoromethyl)sulfonyl)amide; phases: Liquid mixture 2, Liquid mixture 1
Fixed: Pressure, kPa = 101
Property: Liquid-liquid equilibrium temperature, K (Liquid mixture 2); method: VISOBS:UFactor:4
Mole fraction of 1-(hexyloxymethyl)-3-methylimidazolium bis((trifluoromethyl)sulfonyl)amide	Liquid-liquid equilibrium temperature, K	uncertainty
0.393	277.87	0.62
0.3507	279.72	0.62
0.2984	282.05	0.62
0.2599	283.52	0.62
0.2241	284.49	0.62
0.1979	284.98	0.62
0.1643	285.47	0.62
0.1445	285.73	0.62
0.1221	285.83	0.62
0.1109	285.94	0.62
0.0974	285.97	0.62

System: octan-1-ol + 1-(hexyloxymethyl)-3-methylimidazolium bis((trifluoromethyl)sulfonyl)amide; phases: Liquid mixture 1, Liquid mixture 2
Fixed: Pressure, kPa = 101
Property: Liquid-liquid equilibrium temperature, K (Liquid mixture 1); method: VISOBS:UFactor:4
Mole fraction of 1-(hexyloxymethyl)-3-methylimidazolium bis((trifluoromethyl)sulfonyl)amide	Liquid-liquid equilibrium temperature, K	uncertainty
0.0145	297.61	0.77
0.0194	303.24	0.66
0.0311	308.15	0.63
0.0415	310.8	0.62
0.0522	312.05	0.62
0.066	313.05	0.62
0.0858	313.58	0.62
0.0919	313.65	0.62

System: octan-1-ol + 1-(hexyloxymethyl)-3-methylimidazolium bis((trifluoromethyl)sulfonyl)amide; phases: Liquid mixture 2, Liquid mixture 1
Fixed: Pressure, kPa = 101
Property: Liquid-liquid equilibrium temperature, K (Liquid mixture 2); method: VISOBS:UFactor:4
Mole fraction of 1-(hexyloxymethyl)-3-methylimidazolium bis((trifluoromethyl)sulfonyl)amide	Liquid-liquid equilibrium temperature, K	uncertainty
0.6181	301.12	0.62
0.5225	304.94	0.62
0.455	306.9	0.62
0.395	308.48	0.62
0.3305	310.05	0.62
0.2806	311.48	0.62
0.2493	312.15	0.62
0.2153	312.87	0.62
0.1735	313.3	0.62
0.1386	313.5	0.62
0.1106	313.58	0.62
0.0919	313.65	0.62

System: water + 1-(hexyloxymethyl)-3-methylimidazolium bis((trifluoromethyl)sulfonyl)amide; phases: Liquid mixture 1, Liquid mixture 2
Fixed: Pressure, kPa = 101
Property: Liquid-liquid equilibrium temperature, K (Liquid mixture 1); method: VISOBS:UFactor:4
Mole fraction of 1-(hexyloxymethyl)-3-methylimidazolium bis((trifluoromethyl)sulfonyl)amide	Liquid-liquid equilibrium temperature, K	uncertainty
0.0001	307.2	0.62
0.00015	336.55	0.62
0.00018	347.65	0.62
0.00024	362.45	0.62

System: water + 1-(hexyloxymethyl)-3-methylimidazolium bis((trifluoromethyl)sulfonyl)amide; phases: Liquid mixture 2, Liquid mixture 1
Fixed: Pressure, kPa = 101
Property: Liquid-liquid equilibrium temperature, K (Liquid mixture 2); method: VISOBS:UFactor:4
Mole fraction of 1-(hexyloxymethyl)-3-methylimidazolium bis((trifluoromethyl)sulfonyl)amide	Liquid-liquid equilibrium temperature, K	uncertainty
0.5817	312.35	0.63
0.5224	324.65	0.62
0.4961	328.35	0.62
0.465	334.75	0.62
0.4186	342.25	0.62
0.3942	348.05	0.63
0.3589	357.25	0.63
0.3289	369.95	0.64

System: butan-1-ol + 1-hexyloxymethyl-3-methylimidazolium tetrafluoroborate; phases: Liquid mixture 1, Liquid mixture 2
Fixed: Pressure, kPa = 101
Property: Liquid-liquid equilibrium temperature, K (Liquid mixture 1); method: VISOBS:UFactor:4
Mole fraction of 1-hexyloxymethyl-3-methylimidazolium tetrafluoroborate	Liquid-liquid equilibrium temperature, K	uncertainty
0.0162	288.61	0.63
0.0217	290.14	0.63
0.0279	291.07	0.62
0.0325	291.47	0.62
0.0374	291.81	0.62
0.0437	292.11	0.62
0.0503	292.24	0.62
0.0565	292.37	0.62
0.0665	292.55	0.62

System: butan-1-ol + 1-hexyloxymethyl-3-methylimidazolium tetrafluoroborate; phases: Liquid mixture 2, Liquid mixture 1
Fixed: Pressure, kPa = 101
Property: Liquid-liquid equilibrium temperature, K (Liquid mixture 2); method: VISOBS:UFactor:4
Mole fraction of 1-hexyloxymethyl-3-methylimidazolium tetrafluoroborate	Liquid-liquid equilibrium temperature, K	uncertainty
0.2419	289.23	0.62
0.1921	291.13	0.62
0.1672	291.77	0.62
0.1385	292.06	0.62
0.1215	292.21	0.62
0.1066	292.32	0.62
0.0912	292.5	0.62
0.0772	292.55	0.62

System: hexan-1-ol + 1-hexyloxymethyl-3-methylimidazolium tetrafluoroborate; phases: Liquid mixture 1, Liquid mixture 2
Fixed: Pressure, kPa = 101
Property: Liquid-liquid equilibrium temperature, K (Liquid mixture 1); method: VISOBS:UFactor:4
Mole fraction of 1-hexyloxymethyl-3-methylimidazolium tetrafluoroborate	Liquid-liquid equilibrium temperature, K	uncertainty
0.0114	300.66	0.85
0.0151	306.04	0.79
0.0178	308.51	0.64
0.0282	311.1	0.62
0.0368	311.46	0.62

System: hexan-1-ol + 1-hexyloxymethyl-3-methylimidazolium tetrafluoroborate; phases: Liquid mixture 2, Liquid mixture 1
Fixed: Pressure, kPa = 101
Property: Liquid-liquid equilibrium temperature, K (Liquid mixture 2); method: VISOBS:UFactor:4
Mole fraction of 1-hexyloxymethyl-3-methylimidazolium tetrafluoroborate	Liquid-liquid equilibrium temperature, K	uncertainty
0.5071	286.65	0.62
0.4041	297.49	0.62
0.3547	300.66	0.62
0.3011	303.71	0.62
0.2484	306.04	0.62
0.1911	307.62	0.62
0.1535	308.49	0.62
0.0985	309.99	0.62
0.0579	311.04	0.62
0.037	311.46	0.62

System: octan-1-ol + 1-hexyloxymethyl-3-methylimidazolium tetrafluoroborate; phases: Liquid mixture 1, Liquid mixture 2
Fixed: Pressure, kPa = 101
Property: Liquid-liquid equilibrium temperature, K (Liquid mixture 1); method: VISOBS:UFactor:4
Mole fraction of 1-hexyloxymethyl-3-methylimidazolium tetrafluoroborate	Liquid-liquid equilibrium temperature, K	uncertainty
0.0046	312.93	0.86
0.0058	314.71	0.86
0.0108	316.95	0.65
0.0133	318.41	0.66
0.0162	320.18	0.65
0.0208	321.98	0.64
0.0282	324.41	0.63
0.0339	324.98	0.62
0.0391	325.75	0.62
0.0477	326.61	0.62
0.0561	326.92	0.62
0.0642	327.39	0.62
0.074	327.61	0.62
0.0823	327.73	0.62
0.094	327.78	0.62
0.1055	327.87	0.62
0.1216	327.97	0.62

System: octan-1-ol + 1-hexyloxymethyl-3-methylimidazolium tetrafluoroborate; phases: Liquid mixture 2, Liquid mixture 1
Fixed: Pressure, kPa = 101
Property: Liquid-liquid equilibrium temperature, K (Liquid mixture 2); method: VISOBS:UFactor:4
Mole fraction of 1-hexyloxymethyl-3-methylimidazolium tetrafluoroborate	Liquid-liquid equilibrium temperature, K	uncertainty
0.5683	295.87	0.63
0.5468	303.21	0.62
0.485	309.22	0.62
0.4489	314.52	0.62
0.396	319.96	0.62
0.3773	321.85	0.62
0.3538	323.06	0.62
0.3294	323.93	0.62
0.3146	324.35	0.62
0.2905	325.25	0.62
0.27	325.95	0.62
0.2441	326.4	0.62
0.2232	326.75	0.62
0.2016	327.09	0.62
0.1846	327.35	0.62
0.1676	327.59	0.62
0.1542	327.8	0.62
0.143	327.87	0.62
0.1298	327.97	0.62

System: hexane + 1,3-dihexyloxymethylimidazolium (bis(trifluoromethyl)sulfonyl)imide; phases: Liquid mixture 1, Liquid mixture 2
Fixed: Pressure, kPa = 101
Property: Liquid-liquid equilibrium temperature, K (Liquid mixture 1); method: VISOBS:UFactor:8
Mole fraction of 1,3-dihexyloxymethylimidazolium (bis(trifluoromethyl)sulfonyl)imide	Liquid-liquid equilibrium temperature, K	uncertainty
0.5012	300.05	1.26
0.4885	307.75	1.27
0.4757	316.35	1.27
0.4659	324.45	1.27
0.4544	330.95	1.27
0.443	341.25	1.29

System: cyclohexane + 1,3-dihexyloxymethylimidazolium (bis(trifluoromethyl)sulfonyl)imide; phases: Liquid mixture 1, Liquid mixture 2
Fixed: Pressure, kPa = 101
Property: Liquid-liquid equilibrium temperature, K (Liquid mixture 1); method: VISOBS:UFactor:4
Mole fraction of 1,3-dihexyloxymethylimidazolium (bis(trifluoromethyl)sulfonyl)imide	Liquid-liquid equilibrium temperature, K	uncertainty
0.3704	300.65	0.65
0.3582	306.35	0.65
0.344	312.85	0.65
0.3344	317.35	0.65
0.3212	324.25	0.65
0.3053	331.45	0.64
0.2852	339.45	0.64
0.2717	345.65	0.66
0.2605	352.75	0.67

System: water + 1,3-dihexyloxymethylimidazolium (bis(trifluoromethyl)sulfonyl)imide; phases: Liquid mixture 1, Liquid mixture 2
Fixed: Pressure, kPa = 101
Property: Liquid-liquid equilibrium temperature, K (Liquid mixture 1); method: VISOBS:UFactor:4
Mole fraction of 1,3-dihexyloxymethylimidazolium (bis(trifluoromethyl)sulfonyl)imide	Liquid-liquid equilibrium temperature, K	uncertainty
0.5333	306.16	0.63
0.4933	316.74	0.63
0.4374	331.05	0.63
0.396	341.25	0.63
0.357	350.32	0.63
0.319	363.9	0.64

System: hexan-1-ol + 1H-Imidazolium, 1,3-bis[(hexyloxy)methyl]-, tetrafluoroborate; phases: Liquid, Crystal
Fixed: Pressure, kPa = 101
Property: Solid-liquid equilibrium temperature, K (Liquid); method: VISOBS:UFactor:4
Mole fraction of 1H-Imidazolium, 1,3-bis[(hexyloxy)methyl]-, tetrafluoroborate	Solid-liquid equilibrium temperature, K	uncertainty
0.0082	280.98	0.63
0.0149	282.67	0.62
0.0254	283.84	0.62
0.0365	285.01	0.62
0.0541	285.13	0.62
0.0801	285.33	0.62
0.1182	285.56	0.62
0.1883	286.04	0.62
0.2313	286.4	0.62
0.2885	287.18	0.62
0.3451	287.99	0.62
0.3904	288.83	0.62
0.4494	290.27	0.62
0.5377	292.96	0.62
0.6045	295.55	0.62
0.7147	299.26	0.62
1	309.46	0.62

System: octan-1-ol + 1H-Imidazolium, 1,3-bis[(hexyloxy)methyl]-, tetrafluoroborate; phases: Liquid, Crystal
Fixed: Pressure, kPa = 101
Property: Solid-liquid equilibrium temperature, K (Liquid); method: VISOBS:UFactor:4
Mole fraction of 1H-Imidazolium, 1,3-bis[(hexyloxy)methyl]-, tetrafluoroborate	Solid-liquid equilibrium temperature, K	uncertainty
0.0067	285.79	0.62
0.0145	287.29	0.62
0.0259	288.15	0.62
0.0425	288.37	0.62
0.0659	288.5	0.62
0.1023	288.71	0.62
0.1334	288.88	0.62
0.1638	289.11	0.62
0.1754	289.2	0.62
0.2067	289.46	0.62
0.2301	289.65	0.62
0.2719	289.87	0.62
0.2996	290.02	0.62
0.3567	290.53	0.62
0.423	291.57	0.62
0.5442	294.63	0.62
0.682	298.69	0.62
0.7943	303.35	0.62
1	309.46	0.62

System: decan-1-ol + 1H-Imidazolium, 1,3-bis[(hexyloxy)methyl]-, tetrafluoroborate; phases: Liquid, Crystal
Fixed: Pressure, kPa = 101
Property: Solid-liquid equilibrium temperature, K (Liquid); method: VISOBS:UFactor:4
Mole fraction of 1H-Imidazolium, 1,3-bis[(hexyloxy)methyl]-, tetrafluoroborate	Solid-liquid equilibrium temperature, K	uncertainty
0.006	289.63	0.67
0.0097	291.9	0.67
0.026	294.2	0.62
0.0347	294.35	0.62
0.0574	294.35	0.62
0.1075	294.39	0.62
0.1524	294.39	0.62
0.2229	294.39	0.62
0.3026	294.41	0.62
0.4023	294.97	0.62
0.5123	296.25	0.62
0.6141	298.53	0.62
0.725	301.67	0.62
0.8445	305.71	0.62
1	309.46	0.62
