Measured thermophysical data. Enhancement of the anthracene aqueous solubility by a synergistic effect of alcohols and beta-cyclodextrin
Source: Fluid Phase Equilib., 2005, 10.1016/j.fluid.2005.08.023
Compound 1: anthracene, C14H10, InChI=1S/C14H10/c1-2-6-12-10-14-8-4-3-7-13(14)9-11(12)5-1/h1-10H, purity 99%
Compound 2: methanol, CH4O, InChI=1S/CH4O/c1-2/h2H,1H3, purity 99.8%
Compound 3: propan-2-ol, C3H8O, InChI=1S/C3H8O/c1-3(2)4/h3-4H,1-2H3, purity 99.5%
Compound 4: ethanol, C2H6O, InChI=1S/C2H6O/c1-2-3/h3H,2H2,1H3, purity 99.8%
Compound 5: 2-methyl-1-propanol, C4H10O, InChI=1S/C4H10O/c1-4(2)3-5/h4-5H,3H2,1-2H3, purity 99%
Compound 6: water, H2O, InChI=1S/H2O/h1H2

System: methanol + anthracene + water; phases: Liquid, Crystal
Fixed: Pressure, kPa = 101.32
Fixed: Temperature, K = 293
Property: Mass concentration, kg/m3 of anthracene (Liquid); method: UV Spectroscopy
Solvent: Mass fraction of methanol	Mass concentration, kg/m3 of anthracene	uncertainty
0	6.2e-05	1.2e-05
0.04	0.000198	4e-05
0.1	0.000279	5.6e-05
0.2	0.000767	0.000153
0.49	0.0181	0.00362

System: ethanol + anthracene + water; phases: Liquid, Crystal
Fixed: Pressure, kPa = 101.32
Fixed: Temperature, K = 293
Property: Mass concentration, kg/m3 of anthracene (Liquid); method: UV Spectroscopy
Solvent: Mass fraction of ethanol	Mass concentration, kg/m3 of anthracene	uncertainty
0	6.2e-05	1.2e-05
0.04	0.000279	5.6e-05
0.1	0.000528	0.000106
0.2	0.00106	0.00021
0.49	0.0843	0.01686

System: propan-2-ol + anthracene + water; phases: Liquid, Crystal
Fixed: Pressure, kPa = 101.32
Fixed: Temperature, K = 293
Property: Mass concentration, kg/m3 of anthracene (Liquid); method: UV Spectroscopy
Solvent: Mass fraction of propan-2-ol	Mass concentration, kg/m3 of anthracene	uncertainty
0	6.2e-05	1.2e-05
0.04	0.000124	2.5e-05
0.1	0.000705	0.000141
0.2	0.00149	0.000298
0.49	0.0717	0.01434

System: 2-methyl-1-propanol + anthracene + water; phases: Liquid, Crystal
Fixed: Pressure, kPa = 101.32
Fixed: Temperature, K = 293
Property: Mass concentration, kg/m3 of anthracene (Liquid); method: UV Spectroscopy
Solvent: Mass fraction of 2-methyl-1-propanol	Mass concentration, kg/m3 of anthracene	uncertainty
0	6.2e-05	1.24e-05
0.04	0.000322	6.4e-05
0.1	0.000137	2.7e-05
0.2	0.000146	2.9e-05
0.49	0.000195	3.9e-05
