Measured thermophysical data. Phase equilibrium and critical point data for ethylene and chlorodifluoromethane binary mixtures using a new static-analytic apparatus
Source: Fluid Phase Equilib., 2017, 10.1016/j.fluid.2017.08.005
Compound 1: ethene, C2H4, InChI=1S/C2H4/c1-2/h1-2H2, purity 99.9%
Compound 2: carbon dioxide, CO2, InChI=1S/CO2/c2-1-3, purity 99%
Compound 3: chlorodifluoromethane, CHClF2, InChI=1S/CHClF2/c2-1(3)4/h1H, purity 99.5%

System: ethene; phases: Liquid, Gas
Property: Vapor or sublimation pressure, kPa (Liquid); method: Closed cell (Static) method
Temperature, K	Vapor or sublimation pressure, kPa	uncertainty
273.15	4094	16

System: carbon dioxide; phases: Liquid, Gas
Property: Vapor or sublimation pressure, kPa (Liquid); method: Closed cell (Static) method
Temperature, K	Vapor or sublimation pressure, kPa	uncertainty
273.15	3487	13

System: chlorodifluoromethane; phases: Liquid, Gas
Property: Vapor or sublimation pressure, kPa (Liquid); method: Closed cell (Static) method
Temperature, K	Vapor or sublimation pressure, kPa	uncertainty
273.15	498	3
293.15	911	3
313.15	1529	4
333.15	2426	5
353.15	3664	7

System: carbon dioxide + chlorodifluoromethane; phases: Gas, Liquid
Fixed: Temperature, K = 273.15
Property: Vapor or sublimation pressure, kPa (Gas); method: Closed cell (Static) method
Mole fraction of carbon dioxide	Vapor or sublimation pressure, kPa	uncertainty
0	498	3
0.02	546	12
0.049	615	12
0.09	712	13
0.168	905	13
0.222	1040	14
0.306	1254	15
0.362	1414	15
0.419	1565	16
0.486	1761	17
0.573	2012	18
0.612	2141	18
0.682	2347	19
0.722	2484	21
0.769	2645	21
0.872	3008	22
0.912	3143	24
0.955	3314	25
1	3487	16

System: carbon dioxide + chlorodifluoromethane; phases: Gas, Liquid
Fixed: Temperature, K = 273.15
Property: Mole fraction of carbon dioxide (Gas); method: Chromatography
Mole fraction of carbon dioxide	Mole fraction of carbon dioxide	uncertainty
0	0	
0.02	0.09	0.021
0.049	0.201	0.017
0.09	0.327	0.013
0.168	0.488	0.011
0.222	0.577	0.009
0.306	0.673	0.007
0.362	0.724	0.006
0.419	0.766	0.006
0.486	0.808	0.005
0.573	0.852	0.005
0.612	0.87	0.005
0.682	0.899	0.005
0.722	0.915	0.004
0.769	0.931	0.004
0.872	0.963	0.004
0.912	0.975	0.004
0.955	0.988	0.004
1	1	

System: ethene + chlorodifluoromethane; phases: Gas, Liquid
Property: Vapor or sublimation pressure, kPa (Gas); method: Closed cell (Static) method
Temperature, K	Mole fraction of ethene	Vapor or sublimation pressure, kPa	uncertainty
273.15	0	498	3
273.15	0.029	597	18
273.15	0.072	747	18
273.15	0.1	842	17
273.15	0.228	1270	17
273.15	0.337	1623	17
273.15	0.436	1945	18
273.15	0.56	2357	19
273.15	0.643	2633	20
273.15	0.742	2990	21
273.15	0.845	3382	23
273.15	0.935	3765	28
273.15	0.951	3845	29
273.15	0.984	4015	29
273.15	1	4094	14
293.15	0	911	4
293.15	0.007	945	4
293.15	0.023	1021	22
293.15	0.067	1231	24
293.15	0.146	1597	24
293.15	0.26	2124	24
293.15	0.369	2628	24
293.15	0.457	3034	25
293.15	0.539	3423	27
293.15	0.594	3694	27
293.15	0.728	4376	30
293.15	0.822	4920	34
293.15	0.863	5167	34
293.15	0.882	5266	31
293.15	0.891	5308	31
293.15	0.893	5318	29
293.15	0.896	5326	28
293.15	0.898	5329	26
313.15	0	1529	6
313.15	0.017	1640	56
313.15	0.004	1558	7
313.15	0.079	2019	30
313.15	0.144	2420	31
313.15	0.248	3056	33
313.15	0.342	3621	34
313.15	0.41	4041	32
313.15	0.467	4394	35
313.15	0.513	4691	35
313.15	0.605	5251	35
313.15	0.631	5413	34
313.15	0.658	5561	31
313.15	0.678	5654	27
313.15	0.691	5689	23
313.15	0.694	5696	23
313.15	0.697	5697	22
333.15	0	2426	8
333.15	0.006	2475	17
333.15	0.031	2669	32
333.15	0.06	2892	43
333.15	0.101	3199	39
333.15	0.146	3546	37
333.15	0.206	3994	40
333.15	0.284	4573	40
333.15	0.335	4953	39
333.15	0.344	5016	39
333.15	0.416	5502	38
333.15	0.434	5629	35
333.15	0.445	5674	28
333.15	0.45	5698	27
333.15	0.456	5722	25
333.15	0.46	5733	21
333.15	0.466	5745	20
333.15	0.478	5755	19
353.15	0	3664	12
353.15	0.024	3885	47
353.15	0.071	4308	47
353.15	0.121	4747	45
353.15	0.183	5251	43
353.15	0.206	5403	35
353.15	0.211	5435	34
353.15	0.213	5447	34
353.15	0.22	5472	30
353.15	0.224	5480	23
353.15	0.225	5480	22

System: ethene + chlorodifluoromethane; phases: Gas, Liquid
Property: Mole fraction of ethene (Gas); method: Chromatography
Temperature, K	Mole fraction of ethene	Mole fraction of ethene	uncertainty
273.15	0	0	
273.15	0.029	0.171	0.023
273.15	0.072	0.337	0.018
273.15	0.1	0.419	0.016
273.15	0.228	0.631	0.008
273.15	0.337	0.728	0.006
273.15	0.436	0.786	0.005
273.15	0.56	0.838	0.005
273.15	0.643	0.868	0.005
273.15	0.742	0.903	0.004
273.15	0.845	0.938	0.004
273.15	0.935	0.97	0.005
273.15	0.951	0.978	0.005
273.15	0.984	0.992	0.005
273.15	1	1	
293.15	0	0	
293.15	0.007	0.035	0.023
293.15	0.023	0.103	0.018
293.15	0.067	0.258	0.014
293.15	0.146	0.44	0.01
293.15	0.26	0.587	0.008
293.15	0.369	0.681	0.006
293.15	0.457	0.733	0.005
293.15	0.539	0.775	0.005
293.15	0.594	0.8	0.005
293.15	0.728	0.854	0.005
293.15	0.822	0.89	0.005
293.15	0.863	0.902	0.004
293.15	0.882	0.906	0.004
293.15	0.891	0.906	0.004
293.15	0.893	0.905	0.004
293.15	0.896	0.904	0.004
293.15	0.898	0.902	0.004
313.15	0	0	
313.15	0.017	0.061	0.02
313.15	0.004	0.015	0.015
313.15	0.079	0.237	0.012
313.15	0.144	0.363	0.009
313.15	0.248	0.498	0.008
313.15	0.342	0.58	0.007
313.15	0.41	0.628	0.006
313.15	0.467	0.659	0.006
313.15	0.513	0.683	0.006
313.15	0.605	0.715	0.005
313.15	0.631	0.72	0.005
313.15	0.658	0.723	0.005
313.15	0.678	0.719	0.005
313.15	0.691	0.714	0.005
313.15	0.694	0.71	0.006
313.15	0.697	0.707	0.006
333.15	0	0	
333.15	0.006	0.018	0.014
333.15	0.031	0.083	0.013
333.15	0.06	0.149	0.011
333.15	0.101	0.224	0.01
333.15	0.146	0.299	0.008
333.15	0.206	0.366	0.007
333.15	0.284	0.438	0.007
333.15	0.335	0.471	0.006
333.15	0.344	0.478	0.006
333.15	0.416	0.504	0.006
333.15	0.434	0.508	0.006
333.15	0.445	0.506	0.006
333.15	0.45	0.503	0.006
333.15	0.456	0.5	0.006
333.15	0.46	0.499	0.007
333.15	0.466	0.497	0.007
333.15	0.478	0.481	0.009
353.15	0	0	
353.15	0.024	0.046	0.01
353.15	0.071	0.123	0.008
353.15	0.121	0.185	0.007
353.15	0.183	0.236	0.006
353.15	0.206	0.243	0.005
353.15	0.211	0.243	0.005
353.15	0.213	0.242	0.005
353.15	0.22	0.238	0.005
353.15	0.224	0.235	0.006
353.15	0.225	0.237	0.005

System: ethene + chlorodifluoromethane; phases: Liquid, Gas
Property: Critical pressure, kPa (Liquid); method: closed cell (static) method
Mole fraction of ethene	Critical pressure, kPa	uncertainty
0.899	5330	11
0.701	5698	8
0.479	5755	7
0.23	5482	8

System: ethene + chlorodifluoromethane; phases: Liquid, Gas
Property: Critical temperature, K (Liquid); method: Visual observation in an unstirred cell
Mole fraction of ethene	Critical temperature, K	uncertainty
0.899	293.15	0.53
0.701	313.15	0.5
0.479	333.15	0.45
0.23	353.15	0.43
