Measured thermophysical data. Separation of the ethanol/water azeotropic mixture using ionic liquids and deep eutectic solvents
Source: Fluid Phase Equilib., 2016, 10.1016/j.fluid.2015.07.048
Compound 1: water, H2O, InChI=1S/H2O/h1H2, purity 99.8%
Compound 2: ethanol, C2H6O, InChI=1S/C2H6O/c1-2-3/h3H,2H2,1H3, purity 99.5%
Compound 3: 2-hydroxyethylammonium acetate, C4H11NO3, InChI=1S/C2H7NO.C2H4O2/c3-1-2-4;1-2(3)4/h4H,1-3H2;1H3,(H,3,4), purity 97%
Compound 4: 2-hydroxy ethylammonium hexanoate, C8H19NO3, InChI=1S/C6H12O2.C2H7NO/c1-2-3-4-5-6(7)8;3-1-2-4/h2-5H2,1H3,(H,7,8);4H,1-3H2, purity 97%

System: ethanol + water + 2-hydroxyethylammonium acetate; phases: Gas, Liquid
Fixed: Pressure, kPa = 101
Property: Mole fraction of water (Gas); method: Titration method
Temperature, K	Solvent: Mole fraction of ethanol	Mole fraction of water	uncertainty
351.71	0.775	0.186	0.01
351.73	0.828	0.148	0.001
351.65	0.879	0.108	0.001
351.79	0.935	0.06	0.01
351.7	0.968	0.03	0.01
351.75	0.786	0.16	0.01
352.13	0.825	0.135	0.001
352.01	0.866	0.106	0.001
352.11	0.891	0.087	0.001
351.89	0.94	0.05	0.01
351.9	0.974	0.023	0.001
352.13	0.818	0.128	0.001
351.96	0.887	0.084	0.001
352.26	0.917	0.062	0.001
352.16	0.943	0.043	0.001

System: ethanol + water + 2-hydroxy ethylammonium hexanoate; phases: Gas, Liquid
Fixed: Pressure, kPa = 101
Property: Mole fraction of water (Gas); method: Titration method
Temperature, K	Solvent: Mole fraction of ethanol	Mole fraction of water	uncertainty
351.88	0.722	0.215	0.001
351.83	0.763	0.193	0.001
351.8	0.815	0.161	0.003
351.76	0.862	0.127	0.001
351.73	0.905	0.09	0.01
351.78	0.956	0.043	0.001
351.86	0.974	0.026	0.001
352.22	0.732	0.203	0.001
352.07	0.787	0.173	0.001
352.03	0.836	0.138	0.001
351.9	0.882	0.103	0.001
352.03	0.91	0.082	0.001
351.86	0.949	0.048	0.001
351.8	0.943	0.054	0.001
352.13	0.949	0.034	0.001
352.28	0.794	0.159	0.001
351.9	0.801	0.156	0.001
352.28	0.833	0.134	0.001
352.13	0.88	0.1	0.1
352.18	0.934	0.056	0.001
352.25	0.951	0.043	0.002
352.2	0.971	0.025	0.003
