Measured thermophysical data. Separation of isopropyl acetate + isopropanol azeotropic mixture using ionic liquids with acetate anion as entrainers
Source: Fluid Phase Equilib., 2019, 10.1016/j.fluid.2019.06.016
Compound 1: 1-methylethyl ethanoate, C5H10O2, InChI=1S/C5H10O2/c1-4(2)7-5(3)6/h4H,1-3H3, purity 99%
Compound 2: propan-2-ol, C3H8O, InChI=1S/C3H8O/c1-3(2)4/h3-4H,1-2H3, purity 99%
Compound 3: 3-hexyl-1-methylimidazolium acetate, C12H22N2O2, InChI=1S/C10H19N2.C2H4O2/c1-3-4-5-6-7-12-9-8-11(2)10-12;1-2(3)4/h8-10H,3-7H2,1-2H3;1H3,(H,3,4)/q+1;/p-1, purity 98%
Compound 4: 1-methyl-3-octylimidazolium acetate, C14H26N2O2, InChI=1S/C12H23N2.C2H4O2/c1-3-4-5-6-7-8-9-14-11-10-13(2)12-14;1-2(3)4/h10-12H,3-9H2,1-2H3;1H3,(H,3,4)/q+1;/p-1, purity 98%
Compound 5: 1-decyl-3-methylimidazolium acetate, C16H30N2O2, InChI=1S/C14H27N2.C2H4O2/c1-3-4-5-6-7-8-9-10-11-16-13-12-15(2)14-16;1-2(3)4/h12-14H,3-11H2,1-2H3;1H3,(H,3,4)/q+1;/p-1, purity 98%

System: 1-methylethyl ethanoate + propan-2-ol; phases: Liquid, Gas
Fixed: Pressure, kPa = 101.3
Property: Boiling temperature at pressure P, K (Liquid); method: Ebulliometric method (Recirculating still)
Mole fraction of 1-methylethyl ethanoate	Boiling temperature at pressure P, K	uncertainty
0.02	355.18	0.1
0.045	354.95	0.1
0.096	354.52	0.1
0.141	354.21	0.09
0.217	353.85	0.09
0.306	353.67	0.09
0.407	353.7	0.09
0.511	354.01	0.09
0.637	354.85	0.1
0.744	355.94	0.1
0.845	357.45	0.1
0.9	358.57	0.11
0.94	359.69	0.11
0.974	360.65	0.11

System: 1-methylethyl ethanoate + propan-2-ol; phases: Gas, Liquid
Fixed: Pressure, kPa = 101.3
Property: Mole fraction of 1-methylethyl ethanoate (Gas); method: Chromatography
Mole fraction of 1-methylethyl ethanoate	Mole fraction of 1-methylethyl ethanoate	uncertainty
0.02	0.028	0.02
0.045	0.062	0.02
0.096	0.123	0.02
0.141	0.171	0.02
0.217	0.243	0.02
0.306	0.316	0.02
0.407	0.39	0.02
0.511	0.462	0.021
0.637	0.55	0.021
0.744	0.637	0.021
0.845	0.742	0.02
0.9	0.816	0.02
0.94	0.88	0.02
0.974	0.943	0.02

System: 1-methylethyl ethanoate + propan-2-ol + 3-hexyl-1-methylimidazolium acetate; phases: Liquid, Gas
Fixed: Pressure, kPa = 101.3
Property: Mole fraction of 3-hexyl-1-methylimidazolium acetate (Liquid); method: Chromatography
Property: Mole fraction of 3-hexyl-1-methylimidazolium acetate (Gas); method: Chromatography
Property: Mole fraction of 1-methylethyl ethanoate (Gas); method: Chromatography
Temperature, K	Mole fraction of 1-methylethyl ethanoate	Mole fraction of 3-hexyl-1-methylimidazolium acetate	uncertainty	Mole fraction of 3-hexyl-1-methylimidazolium acetate	uncertainty	Mole fraction of 1-methylethyl ethanoate	uncertainty
357.07	0.035	0.051	0.002	0		0.068	
359.87	0.855	0.047	0.002	0		0.904	
360.37	0.888	0.047	0.002	0		0.938	
356.52	0.079	0.051	0.002	0		0.143	
359.06	0.019	0.082	0.002	0		0.048	
358.39	0.056	0.082	0.002	0		0.129	
357.68	0.103	0.082	0.002	0		0.214	
357.11	0.15	0.082	0.002	0		0.289	
356.67	0.2	0.081	0.002	0		0.359	
356.36	0.256	0.081	0.002	0		0.427	
356.21	0.308	0.081	0.002	0		0.484	
355.75	0.482	0.049	0.002	0		0.569	
356.24	0.353	0.081	0.002	0		0.53	
356.35	0.397	0.08	0.002	0		0.57	
356.65	0.456	0.08	0.002	0		0.622	
356.01	0.128	0.051	0.002	0		0.216	
356.95	0.503	0.08	0.002	0		0.664	
357.25	0.546	0.08	0.002	0		0.7	
357.65	0.59	0.079	0.002	0		0.736	
358.02	0.63	0.079	0.002	0		0.77	
358.51	0.674	0.079	0.002	0		0.808	
359.04	0.72	0.078	0.002	0		0.847	
356.07	0.525	0.049	0.002	0		0.604	
359.69	0.772	0.078	0.002	0		0.891	
360.23	0.816	0.078	0.002	0		0.928	
360.85	0.861	0.077	0.002	0		0.961	
360.18	0.019	0.102	0.002	0		0.053	
355.63	0.176	0.051	0.002	0		0.278	
359.37	0.066	0.102	0.002	0		0.165	
358.9	0.102	0.102	0.002	0		0.238	
358.38	0.152	0.102	0.002	0		0.321	
357.95	0.194	0.101	0.002	0		0.383	
357.55	0.249	0.101	0.002	0		0.455	
356.44	0.572	0.049	0.002	0		0.644	
357.38	0.289	0.101	0.002	0		0.502	
357.31	0.332	0.101	0.002	0		0.549	
357.38	0.388	0.101	0.002	0		0.606	
357.51	0.435	0.1	0.002	0		0.647	
357.73	0.483	0.1	0.002	0		0.691	
355.36	0.229	0.05	0.002	0		0.338	
357.97	0.527	0.1	0.002	0		0.729	
358.25	0.574	0.1	0.002	0		0.771	
358.54	0.614	0.099	0.002	0		0.802	
358.89	0.654	0.099	0.002	0		0.835	
356.83	0.613	0.049	0.002	0		0.679	
359.32	0.697	0.099	0.002	0		0.87	
359.91	0.741	0.098	0.002	0		0.903	
360.54	0.789	0.098	0.002	0		0.938	
361.08	0.824	0.097	0.002	0		0.96	
355.2	0.279	0.05	0.002	0		0.391	
355.15	0.334	0.05	0.002	0		0.445	
355.25	0.386	0.05	0.002	0		0.492	
355.46	0.433	0.05	0.002	0		0.532	
357.31	0.659	0.048	0.002	0		0.716	
357.87	0.705	0.048	0.002	0		0.758	
358.57	0.758	0.048	0.002	0		0.808	
359.17	0.802	0.048	0.002	0		0.851	

System: 1-methylethyl ethanoate + propan-2-ol + 1-methyl-3-octylimidazolium acetate; phases: Liquid, Gas
Fixed: Pressure, kPa = 101.3
Property: Mole fraction of 1-methyl-3-octylimidazolium acetate (Liquid); method: Chromatography
Property: Mole fraction of 1-methyl-3-octylimidazolium acetate (Gas); method: Chromatography
Property: Mole fraction of 1-methylethyl ethanoate (Gas); method: Chromatography
Temperature, K	Mole fraction of 1-methylethyl ethanoate	Mole fraction of 1-methyl-3-octylimidazolium acetate	uncertainty	Mole fraction of 1-methyl-3-octylimidazolium acetate	uncertainty	Mole fraction of 1-methylethyl ethanoate	uncertainty
356.87	0.035	0.051	0.002	0		0.066	
355.54	0.482	0.05	0.002	0		0.569	
355.78	0.525	0.049	0.002	0		0.603	
356.09	0.572	0.049	0.002	0		0.643	
356.46	0.613	0.049	0.002	0		0.679	
356.94	0.658	0.049	0.002	0		0.718	
357.53	0.705	0.049	0.002	0		0.76	
358.22	0.757	0.049	0.002	0		0.809	
358.86	0.802	0.048	0.002	0		0.85	
359.71	0.852	0.048	0.002	0		0.901	
360.53	0.898	0.048	0.002	0		0.947	
356.29	0.079	0.051	0.002	0		0.14	
358.86	0.019	0.082	0.002	0		0.045	
358.11	0.056	0.082	0.002	0		0.12	
357.4	0.103	0.082	0.002	0		0.205	
356.82	0.149	0.082	0.002	0		0.279	
356.41	0.201	0.081	0.002	0		0.349	
356.13	0.256	0.081	0.002	0		0.415	
355.94	0.308	0.081	0.002	0		0.474	
355.88	0.353	0.081	0.002	0		0.522	
355.96	0.397	0.08	0.002	0		0.562	
356.22	0.456	0.08	0.002	0		0.614	
355.74	0.128	0.051	0.002	0		0.214	
356.52	0.504	0.08	0.002	0		0.657	
356.87	0.545	0.08	0.002	0		0.693	
357.27	0.59	0.079	0.002	0		0.732	
357.67	0.629	0.079	0.002	0		0.764	
358.22	0.674	0.079	0.002	0		0.802	
358.8	0.72	0.079	0.002	0		0.841	
359.46	0.762	0.078	0.002	0		0.875	
360.07	0.802	0.078	0.002	0		0.909	
360.87	0.851	0.078	0.002	0		0.95	
359.58	0.028	0.102	0.002	0		0.073	
355.41	0.175	0.051	0.002	0		0.275	
358.96	0.063	0.102	0.002	0		0.151	
358.31	0.106	0.102	0.002	0		0.233	
357.77	0.151	0.102	0.002	0		0.311	
357.36	0.193	0.101	0.002	0		0.371	
356.99	0.248	0.101	0.002	0		0.443	
356.81	0.288	0.101	0.002	0		0.491	
356.66	0.331	0.101	0.002	0		0.539	
356.57	0.388	0.1	0.002	0		0.595	
356.64	0.434	0.1	0.002	0		0.639	
356.78	0.483	0.1	0.002	0		0.683	
355.11	0.229	0.051	0.002	0		0.337	
357.03	0.527	0.1	0.002	0		0.722	
357.36	0.57	0.099	0.002	0		0.757	
358.07	0.636	0.099	0.002	0		0.812	
358.86	0.696	0.099	0.002	0		0.86	
359.62	0.744	0.099	0.002	0		0.896	
360.33	0.787	0.098	0.002	0		0.926	
361.12	0.832	0.098	0.002	0		0.958	
354.96	0.279	0.05	0.002	0		0.389	
354.95	0.334	0.05	0.002	0		0.441	
355.07	0.386	0.05	0.002	0		0.486	
355.27	0.433	0.05	0.002	0		0.527	

System: 1-methylethyl ethanoate + propan-2-ol + 1-decyl-3-methylimidazolium acetate; phases: Liquid, Gas
Fixed: Pressure, kPa = 101.3
Property: Mole fraction of 1-decyl-3-methylimidazolium acetate (Liquid); method: Chromatography
Property: Mole fraction of 1-decyl-3-methylimidazolium acetate (Gas); method: Chromatography
Property: Mole fraction of 1-methylethyl ethanoate (Gas); method: Chromatography
Temperature, K	Mole fraction of 1-methylethyl ethanoate	Mole fraction of 1-decyl-3-methylimidazolium acetate	uncertainty	Mole fraction of 1-decyl-3-methylimidazolium acetate	uncertainty	Mole fraction of 1-methylethyl ethanoate	uncertainty
356.16	0.077	0.051	0.002	0		0.128	
354.87	0.521	0.049	0.002	0		0.587	
355.23	0.574	0.049	0.002	0		0.631	
355.68	0.619	0.049	0.002	0		0.664	
356.17	0.664	0.049	0.002	0		0.701	
356.8	0.707	0.049	0.002	0		0.737	
357.51	0.753	0.049	0.002	0		0.779	
358.47	0.801	0.048	0.002	0		0.822	
359.6	0.854	0.048	0.002	0		0.88	
360.74	0.9	0.048	0.002	0		0.934	
358.86	0.026	0.082	0.002	0		0.051	
355.59	0.127	0.051	0.002	0		0.201	
358.21	0.05	0.082	0.002	0		0.096	
357.37	0.114	0.082	0.002	0		0.202	
356.82	0.162	0.081	0.002	0		0.272	
356.41	0.21	0.081	0.002	0		0.336	
356.07	0.251	0.081	0.002	0		0.386	
355.8	0.29	0.081	0.002	0		0.431	
355.61	0.32	0.081	0.002	0		0.463	
355.52	0.362	0.08	0.002	0		0.504	
355.87	0.452	0.08	0.002	0		0.589	
356.15	0.512	0.08	0.002	0		0.64	
355.21	0.174	0.051	0.002	0		0.261	
356.48	0.554	0.079	0.002	0		0.674	
357.26	0.643	0.079	0.002	0		0.75	
357.9	0.702	0.079	0.002	0		0.8	
358.67	0.753	0.078	0.002	0		0.844	
359.46	0.804	0.078	0.002	0		0.891	
360.14	0.844	0.078	0.002	0		0.928	
360.93	0.875	0.078	0.002	0		0.957	
359.72	0.023	0.102	0.002	0		0.05	
359.11	0.062	0.102	0.002	0		0.127	
358.36	0.101	0.102	0.002	0		0.198	
354.96	0.227	0.051	0.002	0		0.324	
357.74	0.15	0.101	0.002	0		0.274	
357.26	0.192	0.101	0.002	0		0.335	
356.87	0.238	0.101	0.002	0		0.396	
356.61	0.298	0.101	0.002	0		0.467	
356.42	0.35	0.1	0.002	0		0.523	
356.34	0.411	0.1	0.002	0		0.585	
356.49	0.478	0.1	0.002	0		0.647	
356.8	0.538	0.1	0.002	0		0.701	
357.09	0.597	0.1	0.002	0		0.751	
357.5	0.652	0.099	0.002	0		0.799	
354.72	0.281	0.05	0.002	0		0.379	
357.93	0.711	0.099	0.002	0		0.849	
358.48	0.752	0.099	0.002	0		0.883	
359.3	0.787	0.099	0.002	0		0.91	
360.03	0.818	0.098	0.002	0		0.935	
361.04	0.849	0.098	0.002	0		0.959	
354.54	0.33	0.05	0.002	0		0.427	
354.38	0.39	0.05	0.002	0		0.482	
354.51	0.438	0.05	0.002	0		0.523	
354.72	0.484	0.05	0.002	0		0.561	
