Measured thermophysical data. Vapor liquid equilibria for the binary mixtures of 2,3-butanediol with n-butanol, n-butyl acetate, and ethyl acetate at 101.3 kPa
Source: Fluid Phase Equilib., 2007, 10.1016/j.fluid.2007.09.001
Compound 1: 2,3-butanediol, C4H10O2, InChI=1S/C4H10O2/c1-3(5)4(2)6/h3-6H,1-2H3, purity 99.2%
Compound 2: butan-1-ol, C4H10O, InChI=1S/C4H10O/c1-2-3-4-5/h5H,2-4H2,1H3, purity 99.5%
Compound 3: butyl ethanoate, C6H12O2, InChI=1S/C6H12O2/c1-3-4-5-8-6(2)7/h3-5H2,1-2H3, purity 99.5%
Compound 4: ethyl acetate, C4H8O2, InChI=1S/C4H8O2/c1-3-6-4(2)5/h3H2,1-2H3, purity 99.5%

System: 2,3-butanediol; phases: Liquid, Gas
Property: Normal boiling temperature, K (Liquid); method: Ebulliometric method (Recirculating still)
Normal boiling temperature, K	uncertainty
454.21	0.5

System: 2,3-butanediol; phases: Liquid
Property: Refractive index (Na D-line) (Liquid); method: Standard Abbe refractometry
Temperature, K	Pressure, kPa	Refractive index (Na D-line)	uncertainty
293.15	101.325	1.4375	0.0021

System: butan-1-ol; phases: Liquid, Gas
Property: Normal boiling temperature, K (Liquid); method: Ebulliometric method (Recirculating still)
Normal boiling temperature, K	uncertainty
390.12	0.5

System: butan-1-ol; phases: Liquid
Property: Refractive index (Na D-line) (Liquid); method: Standard Abbe refractometry
Temperature, K	Pressure, kPa	Refractive index (Na D-line)	uncertainty
293.15	101.325	1.3993	0.0021

System: butyl ethanoate; phases: Liquid, Gas
Property: Normal boiling temperature, K (Liquid); method: Ebulliometric method (Recirculating still)
Normal boiling temperature, K	uncertainty
399.11	0.5

System: butyl ethanoate; phases: Liquid
Property: Refractive index (Na D-line) (Liquid); method: Standard Abbe refractometry
Temperature, K	Pressure, kPa	Refractive index (Na D-line)	uncertainty
293.15	101.325	1.3941	0.0021

System: ethyl acetate; phases: Liquid, Gas
Property: Normal boiling temperature, K (Liquid); method: Ebulliometric method (Recirculating still)
Normal boiling temperature, K	uncertainty
350.24	0.5

System: ethyl acetate; phases: Liquid
Property: Refractive index (Na D-line) (Liquid); method: Standard Abbe refractometry
Temperature, K	Pressure, kPa	Refractive index (Na D-line)	uncertainty
293.15	101.325	1.3701	0.0021

System: butan-1-ol + 2,3-butanediol; phases: Liquid, Gas
Fixed: Pressure, kPa = 101.3
Property: Boiling temperature at pressure P, K (Liquid); method: EBULLIO:UFactor:16
Mole fraction of 2,3-butanediol	Boiling temperature at pressure P, K	uncertainty
0.212	395.25	1.36
0.253	396.25	1.36
0.326	398.05	1.36
0.416	400.25	1.36
0.494	402.65	1.36
0.554	405.35	1.37
0.616	408.85	1.37
0.678	411.35	1.37
0.722	413.85	1.37
0.787	419.75	1.37
0.827	423.25	1.37
0.86	426.15	1.38
0.872	428.35	1.4
0.909	434.05	1.4
0.947	439.95	1.41
0.965	444.65	1.46
0.979	448.15	1.45

System: butan-1-ol + 2,3-butanediol; phases: Gas, Liquid
Fixed: Pressure, kPa = 101.3
Property: Mole fraction of 2,3-butanediol (Gas); method: Chromatography
Mole fraction of 2,3-butanediol	Mole fraction of 2,3-butanediol	uncertainty
0.212	0.019	0.019
0.253	0.02	0.02
0.326	0.03	0.03
0.416	0.037	0.037
0.494	0.051	0.04
0.554	0.068	0.04
0.616	0.083	0.04
0.678	0.111	0.04
0.722	0.151	0.04
0.787	0.238	0.04
0.827	0.271	0.04
0.86	0.305	0.04
0.872	0.372	0.041
0.909	0.498	0.041
0.947	0.592	0.041
0.965	0.7	0.042
0.979	0.793	0.042

System: butyl ethanoate + 2,3-butanediol; phases: Liquid, Gas
Fixed: Pressure, kPa = 101.3
Property: Boiling temperature at pressure P, K (Liquid); method: EBULLIO:UFactor:16
Mole fraction of 2,3-butanediol	Boiling temperature at pressure P, K	uncertainty
0.06	400.35	1.36
0.132	401.65	1.36
0.273	404.15	1.36
0.36	405.75	1.36
0.417	407.05	1.36
0.47	408.15	1.36
0.57	410.25	1.36
0.665	412.95	1.36
0.727	416.75	1.37
0.787	420.25	1.37
0.835	423.15	1.37
0.881	427.05	1.38
0.899	429.35	1.39
0.918	432.55	1.41
0.936	435.85	1.42
0.953	439.45	1.44
0.97	443.85	1.46

System: butyl ethanoate + 2,3-butanediol; phases: Gas, Liquid
Fixed: Pressure, kPa = 101.3
Property: Mole fraction of 2,3-butanediol (Gas); method: Chromatography
Mole fraction of 2,3-butanediol	Mole fraction of 2,3-butanediol	uncertainty
0.06	0.01	0.01
0.132	0.023	0.023
0.273	0.048	0.04
0.36	0.057	0.04
0.417	0.071	0.04
0.47	0.083	0.04
0.57	0.098	0.04
0.665	0.117	0.04
0.727	0.164	0.04
0.787	0.221	0.04
0.835	0.299	0.04
0.881	0.376	0.04
0.899	0.433	0.041
0.918	0.496	0.041
0.936	0.548	0.041
0.953	0.659	0.043
0.97	0.801	0.043

System: ethyl acetate + 2,3-butanediol; phases: Liquid, Gas
Fixed: Pressure, kPa = 101.3
Property: Boiling temperature at pressure P, K (Liquid); method: EBULLIO:UFactor:32
Mole fraction of 2,3-butanediol	Boiling temperature at pressure P, K	uncertainty
0.2	352.05	2.72
0.3	353.65	2.72
0.404	356.75	2.72
0.496	362.35	2.72
0.606	363.55	2.72
0.69	369.25	2.73
0.776	376.55	2.73
0.82	381.45	2.74
0.843	387.45	2.77
0.895	400.85	2.79
0.925	411.65	2.82
0.953	422.05	2.87
0.971	432.95	3.47
0.975	437.25	3.06
0.984	442.35	2.95

System: ethyl acetate + 2,3-butanediol; phases: Gas, Liquid
Fixed: Pressure, kPa = 101.3
Property: Mole fraction of 2,3-butanediol (Gas); method: Chromatography
Mole fraction of 2,3-butanediol	Mole fraction of 2,3-butanediol	uncertainty
0.2	0.001	0.001
0.3	0.002	0.002
0.404	0.003	0.003
0.496	0.005	0.005
0.606	0.009	0.009
0.69	0.017	0.017
0.776	0.025	0.025
0.82	0.038	0.038
0.843	0.061	0.04
0.895	0.135	0.04
0.925	0.224	0.041
0.953	0.406	0.043
0.971	0.554	0.052
0.975	0.62	0.046
0.984	0.708	0.045
