Measured thermophysical data. Experimental (solid + liquid) phase equilibria of (alkan-1-ol + benzonitrile), (amine + benzonitrile) binary mixtures, and (decan-1-ol + decylamine + benzonitrile) ternary mixtures
Source: Fluid Phase Equilib., 2007, 10.1016/j.fluid.2006.11.012
Compound 1: benzonitrile, C7H5N, InChI=1S/C7H5N/c8-6-7-4-2-1-3-5-7/h1-5H
Compound 2: octan-1-ol, C8H18O, InChI=1S/C8H18O/c1-2-3-4-5-6-7-8-9/h9H,2-8H2,1H3
Compound 3: nonan-1-ol, C9H20O, InChI=1S/C9H20O/c1-2-3-4-5-6-7-8-9-10/h10H,2-9H2,1H3
Compound 4: decan-1-ol, C10H22O, InChI=1S/C10H22O/c1-2-3-4-5-6-7-8-9-10-11/h11H,2-10H2,1H3
Compound 5: 1-undecanol, C11H24O, InChI=1S/C11H24O/c1-2-3-4-5-6-7-8-9-10-11-12/h12H,2-11H2,1H3
Compound 6: 1-hexanamine, C6H15N, InChI=1S/C6H15N/c1-2-3-4-5-6-7/h2-7H2,1H3
Compound 7: 1-octanamine, C8H19N, InChI=1S/C8H19N/c1-2-3-4-5-6-7-8-9/h2-9H2,1H3
Compound 8: 1-decanamine, C10H23N, InChI=1S/C10H23N/c1-2-3-4-5-6-7-8-9-10-11/h2-11H2,1H3
Compound 9: 1,3-propanediamine, C3H10N2, InChI=1S/C3H10N2/c4-2-1-3-5/h1-5H2

System: benzonitrile; phases: Crystal, Liquid, Air at 1 atmosphere
Property: Normal melting temperature, K (Crystal); method: VISOBS:UFactor:2
Normal melting temperature, K	uncertainty
260.67	0.31

System: octan-1-ol; phases: Crystal, Liquid, Air at 1 atmosphere
Property: Normal melting temperature, K (Crystal); method: VISOBS:UFactor:2
Normal melting temperature, K	uncertainty
258.03	0.31

System: nonan-1-ol; phases: Crystal, Liquid, Air at 1 atmosphere
Property: Normal melting temperature, K (Crystal); method: VISOBS:UFactor:2
Normal melting temperature, K	uncertainty
268.1	0.31

System: decan-1-ol; phases: Crystal, Liquid, Air at 1 atmosphere
Property: Normal melting temperature, K (Crystal); method: VISOBS:UFactor:2
Normal melting temperature, K	uncertainty
278.67	0.31

System: 1-undecanol; phases: Crystal, Liquid, Air at 1 atmosphere
Property: Normal melting temperature, K (Crystal); method: VISOBS:UFactor:4
Normal melting temperature, K	uncertainty
289.63	0.62

System: 1-hexanamine; phases: Crystal, Liquid, Air at 1 atmosphere
Property: Normal melting temperature, K (Crystal); method: VISOBS:UFactor:3
Normal melting temperature, K	uncertainty
252.15	0.46

System: 1-octanamine; phases: Crystal, Liquid, Air at 1 atmosphere
Property: Normal melting temperature, K (Crystal); method: VISOBS:UFactor:2
Normal melting temperature, K	uncertainty
273.37	0.31

System: 1-decanamine; phases: Crystal, Liquid, Air at 1 atmosphere
Property: Normal melting temperature, K (Crystal); method: VISOBS:UFactor:4
Normal melting temperature, K	uncertainty
289.16	0.62

System: 1,3-propanediamine; phases: Crystal, Liquid, Air at 1 atmosphere
Property: Normal melting temperature, K (Crystal); method: VISOBS:UFactor:4
Normal melting temperature, K	uncertainty
262.19	0.62

System: decan-1-ol + 1-decanamine; phases: Liquid, Crystal
Fixed: Pressure, kPa = 101
Property: Mole fraction of decan-1-ol (Liquid); method: OTHER::sMethod:crystallized binary mixture and third component added until equil. point of solid phase disappearance
Temperature, K	Mole fraction of decan-1-ol	uncertainty
278.15	0.977	0.023
278.15	0.802	0.0222
283.15	0.677	0.0133

System: benzonitrile + octan-1-ol; phases: Crystal, Liquid, Crystal, Air at 1 atmosphere
Property: Eutectic temperature, K (Crystal); method: Derived from phase diagram analysis
Eutectic temperature, K	uncertainty
251.27	1

System: benzonitrile + octan-1-ol; phases: Crystal, Liquid, Crystal, Air at 1 atmosphere
Property: Eutectic composition: mole fraction of octan-1-ol (Crystal); method: Derived from phase diagram analysis
Eutectic composition: mole fraction of octan-1-ol	uncertainty
0.4249	0.03

System: benzonitrile + octan-1-ol; phases: Liquid, Crystal
Fixed: Pressure, kPa = 101
Property: Solid-liquid equilibrium temperature, K (Liquid); method: VISOBS:UFactor:2
Mole fraction of octan-1-ol	Solid-liquid equilibrium temperature, K	uncertainty
0	260.67	0.31
0.0363	259.08	0.31
0.0726	257.85	0.31
0.1063	257.06	0.31
0.1311	256.56	0.31
0.1561	256.13	0.31
0.1881	255.5	0.31
0.2047	255.2	0.31
0.2178	254.9	0.31
0.2546	254.34	0.31
0.2839	253.81	0.31
0.3135	253.28	0.31
0.3488	252.62	0.31
0.3954	251.7	0.31
0.4218	251.33	0.31

System: benzonitrile + octan-1-ol; phases: Liquid, Crystal
Fixed: Pressure, kPa = 101
Property: Solid-liquid equilibrium temperature, K (Liquid); method: VISOBS:UFactor:2
Mole fraction of octan-1-ol	Solid-liquid equilibrium temperature, K	uncertainty
0.4466	251.56	0.31
0.4667	251.83	0.31
0.4963	252.09	0.31
0.5518	252.59	0.31
0.607	253.05	0.31
0.6351	253.32	0.31
0.6689	253.68	0.31
0.7037	254.01	0.31
0.7435	254.54	0.31
0.7952	255.13	0.31
0.8268	255.71	0.31
0.8523	256.06	0.31
0.8889	256.69	0.31
0.9463	257.41	0.31
1	258.03	0.31

System: benzonitrile + nonan-1-ol; phases: Crystal, Liquid, Crystal, Air at 1 atmosphere
Property: Eutectic temperature, K (Crystal); method: Derived from phase diagram analysis
Eutectic temperature, K	uncertainty
256.09	1

System: benzonitrile + nonan-1-ol; phases: Crystal, Liquid, Crystal, Air at 1 atmosphere
Property: Eutectic composition: mole fraction of nonan-1-ol (Crystal); method: Derived from phase diagram analysis
Eutectic composition: mole fraction of nonan-1-ol	uncertainty
0.1237	0.03

System: benzonitrile + nonan-1-ol; phases: Liquid, Crystal
Fixed: Pressure, kPa = 101
Property: Solid-liquid equilibrium temperature, K (Liquid); method: VISOBS:UFactor:2
Mole fraction of nonan-1-ol	Solid-liquid equilibrium temperature, K	uncertainty
0.1335	256.49	0.31
0.1613	257.29	0.31
0.2016	258.32	0.31
0.2488	258.98	0.31
0.2902	259.34	0.31
0.3495	259.84	0.31
0.4144	260.34	0.31
0.4575	260.73	0.31
0.5119	261.18	0.31
0.5539	261.54	0.31
0.5915	261.88	0.31
0.622	262.1	0.31
0.6615	262.45	0.31
0.7022	262.76	0.31
0.752	263.05	0.31
0.8044	263.56	0.31
0.8611	264.24	0.31
0.904	264.87	0.31
0.9368	265.44	0.31
0.969	266.46	0.31
1	268.1	0.31

System: benzonitrile + nonan-1-ol; phases: Liquid, Crystal
Fixed: Pressure, kPa = 101
Property: Solid-liquid equilibrium temperature, K (Liquid); method: VISOBS:UFactor:2
Mole fraction of nonan-1-ol	Solid-liquid equilibrium temperature, K	uncertainty
0	260.67	0.31
0.0236	259.32	0.31
0.038	258.62	0.31
0.0465	258.3	0.31
0.0677	257.62	0.31
0.0957	256.87	0.31
0.1118	256.43	0.31

System: benzonitrile + decan-1-ol; phases: Crystal, Liquid, Crystal, Air at 1 atmosphere
Property: Eutectic temperature, K (Crystal); method: Derived from phase diagram analysis
Eutectic temperature, K	uncertainty
257.91	1

System: benzonitrile + decan-1-ol; phases: Crystal, Liquid, Crystal, Air at 1 atmosphere
Property: Eutectic composition: mole fraction of decan-1-ol (Crystal); method: Derived from phase diagram analysis
Eutectic composition: mole fraction of decan-1-ol	uncertainty
0.0774	0.03

System: benzonitrile + decan-1-ol; phases: Liquid, Crystal
Fixed: Pressure, kPa = 101
Property: Solid-liquid equilibrium temperature, K (Liquid); method: VISOBS:UFactor:2
Mole fraction of decan-1-ol	Solid-liquid equilibrium temperature, K	uncertainty
0	260.67	0.31
0.027	259.38	0.31
0.059	258.52	0.31

System: benzonitrile + decan-1-ol; phases: Liquid, Crystal
Fixed: Pressure, kPa = 101
Property: Solid-liquid equilibrium temperature, K (Liquid); method: VISOBS:UFactor:2
Mole fraction of decan-1-ol	Solid-liquid equilibrium temperature, K	uncertainty
0.084	259.33	0.36
0.0957	261.46	0.36
0.1043	263.11	0.32
0.1337	265.41	0.32
0.1568	267.21	0.32
0.1889	268.63	0.31
0.2097	269.85	0.31
0.2401	270.94	0.31
0.2967	272.21	0.31
0.3464	272.86	0.31
0.4043	273.49	0.31
0.458	274.15	0.31
0.5414	275.04	0.31
0.6116	275.67	0.31
0.6874	276.27	0.31
0.7358	276.7	0.31
0.7905	277.12	0.31
0.8456	277.64	0.31
0.9158	278.22	0.31
0.9588	278.39	0.31
1	278.67	0.31

System: benzonitrile + decan-1-ol; phases: Liquid, Crystal
Fixed: Pressure, kPa = 101
Property: Mole fraction of decan-1-ol (Liquid); method: OTHER::sMethod:crystallized binary mixture and third component added until equil. point of solid phase disappearance
Temperature, K	Mole fraction of decan-1-ol	uncertainty
273.15	0.35	0.0115
278.15	0.915	0.04

System: benzonitrile + 1-undecanol; phases: Crystal, Liquid, Crystal, Air at 1 atmosphere
Property: Eutectic temperature, K (Crystal); method: Derived from phase diagram analysis
Eutectic temperature, K	uncertainty
259.54	1

System: benzonitrile + 1-undecanol; phases: Crystal, Liquid, Crystal, Air at 1 atmosphere
Property: Eutectic composition: mole fraction of 1-undecanol (Crystal); method: Derived from phase diagram analysis
Eutectic composition: mole fraction of 1-undecanol	uncertainty
0.0339	0.02

System: benzonitrile + 1-undecanol; phases: Liquid, Crystal
Fixed: Pressure, kPa = 101
Property: Solid-liquid equilibrium temperature, K (Liquid); method: VISOBS:UFactor:3
Mole fraction of 1-undecanol	Solid-liquid equilibrium temperature, K	uncertainty
0	260.67	0.46
0.013	260.27	0.47
0.0251	259.86	0.47

System: benzonitrile + 1-undecanol; phases: Liquid, Crystal
Fixed: Pressure, kPa = 101
Property: Solid-liquid equilibrium temperature, K (Liquid); method: VISOBS:UFactor:4
Mole fraction of 1-undecanol	Solid-liquid equilibrium temperature, K	uncertainty
0.0366	260.82	0.81
0.0439	264.6	0.71
0.0617	270.03	0.64
0.086	272.15	0.63
0.1261	276.15	0.62
0.1949	278.65	0.62
0.2804	280.15	0.62
0.3539	281.6	0.62
0.3959	282.22	0.62
0.4498	282.77	0.62
0.4996	283.24	0.62
0.549	283.54	0.62
0.6004	283.81	0.62
0.643	284.07	0.62
0.6884	284.52	0.62
0.744	284.97	0.62
0.8102	285.95	0.62
0.856	286.66	0.62
0.9097	287.56	0.62
0.9589	288.51	0.62
1	289.63	0.62

System: benzonitrile + 1-hexanamine; phases: Crystal, Liquid, Crystal, Air at 1 atmosphere
Property: Eutectic temperature, K (Crystal); method: Derived from phase diagram analysis
Eutectic temperature, K	uncertainty
239.32	1

System: benzonitrile + 1-hexanamine; phases: Crystal, Liquid, Crystal, Air at 1 atmosphere
Property: Eutectic composition: mole fraction of 1-hexanamine (Crystal); method: Derived from phase diagram analysis
Eutectic composition: mole fraction of 1-hexanamine	uncertainty
0.4302	0.03

System: benzonitrile + 1-hexanamine; phases: Liquid, Crystal
Fixed: Pressure, kPa = 101
Property: Solid-liquid equilibrium temperature, K (Liquid); method: VISOBS:UFactor:4
Mole fraction of 1-hexanamine	Solid-liquid equilibrium temperature, K	uncertainty
0	260.67	0.62
0.0221	259.44	0.62
0.0548	257.59	0.62
0.0761	255.96	0.62
0.1132	253.61	0.62
0.1397	251.91	0.62
0.1779	249.95	0.62
0.2217	248.1	0.62
0.2542	246.24	0.62
0.2858	244.78	0.62
0.3301	242.93	0.62
0.3579	241.41	0.62
0.4038	240.15	0.62

System: benzonitrile + 1-hexanamine; phases: Liquid, Crystal
Fixed: Pressure, kPa = 101
Property: Solid-liquid equilibrium temperature, K (Liquid); method: VISOBS:UFactor:3
Mole fraction of 1-hexanamine	Solid-liquid equilibrium temperature, K	uncertainty
0.4537	239.95	0.47
0.4817	240.62	0.47
0.5268	241.69	0.47
0.5716	242.85	0.47
0.6083	243.66	0.47
0.6497	244.53	0.47
0.6859	245.34	0.47
0.7227	246.12	0.47
0.781	247.36	0.47
0.8507	248.69	0.47
0.8859	249.61	0.47
0.9279	250.73	0.47
0.9621	251.2	0.47
1	252.15	0.46

System: benzonitrile + 1-octanamine; phases: Crystal, Liquid, Crystal, Air at 1 atmosphere
Property: Eutectic temperature, K (Crystal); method: Derived from phase diagram analysis
Eutectic temperature, K	uncertainty
253.15	1

System: benzonitrile + 1-octanamine; phases: Crystal, Liquid, Crystal, Air at 1 atmosphere
Property: Eutectic composition: mole fraction of 1-octanamine (Crystal); method: Derived from phase diagram analysis
Eutectic composition: mole fraction of 1-octanamine	uncertainty
0.1709	0.03

System: benzonitrile + 1-octanamine; phases: Liquid, Crystal
Fixed: Pressure, kPa = 101
Property: Solid-liquid equilibrium temperature, K (Liquid); method: VISOBS:UFactor:2
Mole fraction of 1-octanamine	Solid-liquid equilibrium temperature, K	uncertainty
0	260.67	0.31
0.0399	258.76	0.31
0.0838	256.33	0.31
0.1119	255.1	0.31
0.1448	254.08	0.31

System: benzonitrile + 1-octanamine; phases: Liquid, Crystal
Fixed: Pressure, kPa = 101
Property: Solid-liquid equilibrium temperature, K (Liquid); method: VISOBS:UFactor:2
Mole fraction of 1-octanamine	Solid-liquid equilibrium temperature, K	uncertainty
0.1888	253.83	0.31
0.218	254.87	0.31
0.251	256.21	0.31
0.2911	257.41	0.31
0.3462	259.32	0.31
0.4238	261.22	0.31
0.5021	263.26	0.31
0.5542	264.74	0.31
0.614	266.08	0.31
0.6721	267.24	0.31
0.7343	268.54	0.31
0.7819	269.33	0.31
0.8341	270.4	0.31
0.8648	271.04	0.31
0.9129	271.97	0.31
0.9646	272.85	0.31
1	273.37	0.31

System: benzonitrile + 1-decanamine; phases: Crystal, Liquid, Crystal, Air at 1 atmosphere
Property: Eutectic temperature, K (Crystal); method: Derived from phase diagram analysis
Eutectic temperature, K	uncertainty
256.28	1

System: benzonitrile + 1-decanamine; phases: Crystal, Liquid, Crystal, Air at 1 atmosphere
Property: Eutectic composition: mole fraction of 1-decanamine (Crystal); method: Derived from phase diagram analysis
Eutectic composition: mole fraction of 1-decanamine	uncertainty
0.0829	0.02

System: benzonitrile + 1-decanamine; phases: Liquid, Crystal
Fixed: Pressure, kPa = 101
Property: Solid-liquid equilibrium temperature, K (Liquid); method: VISOBS:UFactor:3
Mole fraction of 1-decanamine	Solid-liquid equilibrium temperature, K	uncertainty
0	260.67	0.46
0.0294	259.44	0.47
0.0568	257.97	0.47

System: benzonitrile + 1-decanamine; phases: Liquid, Crystal
Fixed: Pressure, kPa = 101
Property: Solid-liquid equilibrium temperature, K (Liquid); method: VISOBS:UFactor:4
Mole fraction of 1-decanamine	Solid-liquid equilibrium temperature, K	uncertainty
0.0917	258.21	0.64
0.1067	260.42	0.65
0.1219	263.94	0.64
0.1542	267.62	0.63
0.178	270.23	0.62
0.2231	272.96	0.62
0.2623	274.54	0.62
0.3166	276.78	0.62
0.3696	278.49	0.62
0.4311	280.17	0.62
0.4759	281.27	0.62
0.5248	282.75	0.62
0.573	284.17	0.62
0.6212	285.09	0.62
0.6758	286.18	0.62
0.7267	287.07	0.62
0.7859	287.76	0.62
0.8538	288.11	0.62
0.9131	288.6	0.62
0.9569	288.88	0.62
1	289.16	0.62

System: benzonitrile + 1-decanamine; phases: Liquid, Crystal
Fixed: Pressure, kPa = 101
Property: Solid-liquid equilibrium temperature, K (Liquid); method: crystallized binary mixture and third component added until equil. point of solid phase disappearance
Mole fraction of 1-decanamine	Solid-liquid equilibrium temperature, K	uncertainty
0.223	273.15	
0.35	278.15	
0.537	283.15	

System: benzonitrile + 1,3-propanediamine; phases: Crystal, Liquid, Crystal, Air at 1 atmosphere
Property: Eutectic temperature, K (Crystal); method: Derived from phase diagram analysis
Eutectic temperature, K	uncertainty
244.29	1

System: benzonitrile + 1,3-propanediamine; phases: Crystal, Liquid, Crystal, Air at 1 atmosphere
Property: Eutectic composition: mole fraction of 1,3-propanediamine (Crystal); method: Derived from phase diagram analysis
Eutectic composition: mole fraction of 1,3-propanediamine	uncertainty
0.4387	0.03

System: benzonitrile + 1,3-propanediamine; phases: Liquid, Crystal
Fixed: Pressure, kPa = 101
Property: Solid-liquid equilibrium temperature, K (Liquid); method: VISOBS:UFactor:3
Mole fraction of 1,3-propanediamine	Solid-liquid equilibrium temperature, K	uncertainty
0	260.67	0.46
0.026	259.19	0.47
0.0574	257.71	0.47
0.0928	256.27	0.47
0.1363	254.52	0.47
0.1755	253.04	0.47
0.2105	251.82	0.47
0.2515	250.15	0.47
0.2961	248.65	0.47
0.3288	247.28	0.47
0.3595	246.34	0.47
0.3863	245.49	0.47
0.4206	244.77	0.47

System: benzonitrile + 1,3-propanediamine; phases: Liquid, Crystal
Fixed: Pressure, kPa = 101
Property: Solid-liquid equilibrium temperature, K (Liquid); method: VISOBS:UFactor:4
Mole fraction of 1,3-propanediamine	Solid-liquid equilibrium temperature, K	uncertainty
0.4502	244.63	0.62
0.4877	245.62	0.62
0.5067	246.3	0.62
0.536	247.15	0.62
0.5783	248.32	0.62
0.6099	249.35	0.62
0.6302	249.89	0.62
0.6715	251.24	0.62
0.7169	252.45	0.62
0.746	253.13	0.62
0.7786	253.98	0.62
0.818	255.33	0.62
0.853	256.27	0.62
0.884	257.26	0.62
0.923	258.61	0.62
0.9517	260.09	0.62
1	262.19	0.62

System: benzonitrile + decan-1-ol + 1-decanamine; phases: Liquid, Crystal
Fixed: Pressure, kPa = 101
Property: Mole fraction of decan-1-ol (Liquid); method: crystallized binary mixture and third component added until equil. point of solid phase disappearance
Temperature, K	Mole fraction of 1-decanamine	Mole fraction of decan-1-ol	uncertainty
273.15	0	0.35	0.0115
273.15	0.063	0.6371	0.0126
273.15	0.092	0.656	0.0094
273.15	0.1172	0.6672	0.3328
273.15	0.1181	0.2104	0.0443
273.15	0.1192	0.2396	0.168
273.15	0.1195	0.1853	0.1728
273.15	0.1227	0.1502	0.0225
273.15	0.128	0.1327	0.0152
273.15	0.1354	0.3134	0.021
273.15	0.1435	0.4054	0.0244
273.15	0.1439	0.1183	0.0232
273.15	0.1573	0.1076	0.0152
273.15	0.1658	0.4841	0.0131
273.15	0.1674	0.5044	0.0132
273.15	0.1882	0.0977	0.0141
273.15	0.2199	0.1045	0.0343
273.15	0.223	0	0.0001
273.15	0.2561	0.0136	0.0136
273.15	0.258	0.0423	0.0152
273.15	0.2766	0.0813	0.0042
273.15	0.2969	0.1339	0.0024
273.15	0.317	0.1246	0.0019
273.15	0.349	0.1517	0.0034
273.15	0.1658	0.592	0.0676
278.15	0	0.915	0.04
278.15	0.023	0.977	0.023
278.15	0.198	0.802	0.0222
278.15	0.2148	0.6071	0.1511
278.15	0.2151	0.3336	0.0465
278.15	0.2159	0.7709	0.0395
278.15	0.2189	0.5068	0.0548
278.15	0.2192	0.4403	0.0543
278.15	0.2247	0.2749	0.0247
278.15	0.2249	0.4005	0.0254
278.15	0.2291	0.6906	0.0229
278.15	0.2294	0.6697	0.021
278.15	0.2335	0.2421	0.1077
278.15	0.2636	0.2168	0.0039
278.15	0.2907	0.1988	0.0063
278.15	0.35	0	0.0001
278.15	0.3534	0.1834	0.0279
278.15	0.4086	0.0359	0.0113
278.15	0.4126	0.0677	0.0127
278.15	0.426	0.2024	0.0398
278.15	0.428	0.1257	0.0398
278.15	0.486	0.2191	0.0041
278.15	0.4986	0.196	0.0029
278.15	0.5146	0.2237	0.0034
283.15	0.323	0.677	0.0133
283.15	0.3288	0.6606	0.0134
283.15	0.332	0.5913	0.0133
283.15	0.3419	0.5301	0.0113
283.15	0.3777	0.4621	0.0071
283.15	0.4067	0.4218	0.0081
283.15	0.4602	0.3786	0.0034
283.15	0.5096	0.3485	0.0047
283.15	0.537	0	0.0001
283.15	0.5962	0.3093	0.007
283.15	0.6229	0.296	0.0028
283.15	0.6427	0.2898	0.0025
283.15	0.6566	0.2854	0.0283
283.15	0.663	0.0583	0.0583
283.15	0.6642	0.1089	0.1089
283.15	0.6809	0.2506	0.029
283.15	0.6813	0.2001	0.0191
