Measured thermophysical data. Thermal conductivity of gaseous and liquid n-hexane
Source: Fluid Phase Equilib., 2018, 10.1016/j.fluid.2018.07.011
Compound 1: hexane, C6H14, InChI=1S/C6H14/c1-3-5-6-4-2/h3-6H2,1-2H3, purity 99%

System: hexane; phases: Gas, Liquid
Property: Thermal conductivity, W/m/K (Gas); method: Coaxial cylinder method
Temperature, K	Thermal conductivity, W/m/K	uncertainty
292.9	0.01103	0.00045
296.63	0.01122	0.00045
298.79	0.01151	0.00046
313.06	0.01309	0.00051
322.74	0.01428	0.00055

System: hexane; phases: Gas
Fixed: Pressure, kPa = 101
Property: Thermal conductivity, W/m/K (Gas); method: Coaxial cylinder method
Temperature, K	Thermal conductivity, W/m/K	uncertainty
342	0.01653	0.00062
349.93	0.01748	0.00065
363.76	0.01921	0.00071
376.93	0.02075	0.00076
383.4	0.02151	0.00078
389.42	0.02223	0.00081
413.19	0.02503	0.0009
425.12	0.02617	0.00094
427.26	0.02655	0.00095
427.85	0.02665	0.00095
437.32	0.02792	0.00099
438.67	0.02795	0.001
443.43	0.02855	0.00102
477.31	0.03283	0.00116
506.83	0.03677	0.00129
507.08	0.03691	0.00129
507.75	0.03703	0.0013
508.3	0.03711	0.0013
510.01	0.03731	0.0013
511.44	0.03745	0.00131
511.54	0.03752	0.00131
512.83	0.03763	0.00131
516.59	0.03815	0.00133
526.5	0.03931	0.00137
551.09	0.04231	0.00147
551.03	0.04235	0.00147
563.56	0.04382	0.00152
569.63	0.04454	0.00154
582.77	0.04615	0.0016
595.23	0.04765	0.00165
612.17	0.04972	0.00171

System: hexane; phases: Liquid
Fixed: Pressure, kPa = 101.325
Property: Thermal conductivity, W/m/K (Liquid); method: Coaxial cylinder method
Temperature, K	Thermal conductivity, W/m/K	uncertainty
301.73	0.11745	0.00297
302.39	0.1175	0.00297
303.05	0.11782	0.00297
304.91	0.11635	0.00294
305.25	0.11648	0.00295
305.26	0.11646	0.00295
308.36	0.11753	0.00297
308.36	0.11475	0.00291
309.04	0.11523	0.00292
311.26	0.11426	0.0029
312.24	0.11549	0.00293
313.84	0.11481	0.00291
314.96	0.11401	0.0029
315.12	0.11342	0.00289
315.44	0.11267	0.00287
315.91	0.1132	0.00288
316.39	0.11347	0.00288
319.7	0.11053	0.00282
321.86	0.11289	0.00287
323.27	0.112	0.00286
323.42	0.11185	0.00285
330.81	0.10676	0.00275

System: hexane; phases: Liquid
Property: Thermal conductivity, W/m/K (Liquid); method: Coaxial cylinder method
Temperature, K	Pressure, kPa	Thermal conductivity, W/m/K	uncertainty
310.66	500	0.11262	0.00287
309.21	500	0.11273	0.00287
308.86	2950	0.11805	0.00298
309.03	2240	0.11541	0.00292
309.04	1360	0.11524	0.00292
329.74	740	0.10726	0.00276
329.74	2610	0.10955	0.0028
329.74	3880	0.11073	0.00283
329.74	5740	0.11205	0.00286
329.74	6000	0.11229	0.00286
329.74	7000	0.11303	0.00288
329.74	8000	0.11352	0.00289
329.74	8740	0.11341	0.00288
329.74	10000	0.11432	0.0029
329.74	11000	0.11512	0.00292
329.74	12000	0.11541	0.00292
329.74	13000	0.116	0.00294
329.74	14000	0.11617	0.00294
329.74	14980	0.11674	0.00295
329.74	16000	0.11803	0.00298
329.74	19000	0.11966	0.00301
329.74	20000	0.11986	0.00302
329.74	21000	0.12033	0.00303
329.74	22000	0.12088	0.00304
329.74	23000	0.12126	0.00304
329.74	24000	0.12176	0.00305
329.74	25000	0.12184	0.00306
329.74	26000	0.12264	0.00307
329.74	27000	0.1227	0.00307
329.74	30000	0.12427	0.00311
329.74	31000	0.1249	0.00312
329.74	32000	0.12574	0.00314
330.54	33400	0.12619	0.00315
329.74	34000	0.12613	0.00314
329.74	35000	0.12658	0.00315
329.74	36000	0.12673	0.00316
329.74	37000	0.12753	0.00317
329.74	38000	0.12785	0.00318
329.74	39000	0.12856	0.00319
329.74	40000	0.12844	0.00319
353	740	0.0996	0.0026
353	1100	0.09983	0.00261
353	1800	0.10062	0.00262
353	3030	0.10093	0.00263
353	5030	0.10259	0.00266
353	7140	0.10409	0.00269
353	10080	0.10601	0.00273
353	12400	0.10754	0.00276
353	15070	0.10907	0.00279
353	17630	0.11011	0.00282
353	20460	0.11189	0.00285
353	23440	0.11346	0.00288
353	27320	0.11543	0.00292
353	31000	0.1185	0.00299
353	37050	0.12235	0.00307
353	37650	0.12279	0.00308
375.3	350	0.09459	0.0025
375.3	2110	0.09534	0.00252
375.3	4490	0.0969	0.00255
375.3	7050	0.09839	0.00258
375.3	7110	0.09835	0.00258
375.3	8620	0.09889	0.00259
375.3	9410	0.10047	0.00262
375.3	9720	0.10066	0.00262
375.3	10000	0.10068	0.00262
375.3	11000	0.1014	0.00264
375.3	12000	0.10213	0.00265
375.3	13000	0.10286	0.00267
375.3	14000	0.10361	0.00268
375.3	15500	0.10443	0.0027
375.3	16000	0.10468	0.00271
375.3	17000	0.10566	0.00273
375.3	18000	0.10618	0.00274
375.3	19000	0.10704	0.00275
375.3	21000	0.10792	0.00277
375.3	22000	0.10839	0.00278
375.3	23000	0.10916	0.0028
375.3	24000	0.10954	0.0028
375.3	25000	0.11011	0.00282
375.3	26000	0.11065	0.00283
375.3	27000	0.11125	0.00284
375.3	28000	0.11209	0.00286
375.3	29000	0.11239	0.00286
375.3	30000	0.11271	0.00287
375.3	31000	0.11331	0.00288
375.3	32000	0.11361	0.00289
375.3	33000	0.11452	0.00291
375.3	34000	0.1145	0.00291
375.3	35000	0.11508	0.00292
375.3	36000	0.11548	0.00293
375.3	37000	0.1157	0.00293
375.3	38000	0.11639	0.00294
375.3	39000	0.11671	0.00295
375.3	40000	0.11703	0.00296
399.8	1180	0.08885	0.00238
399.8	3000	0.09052	0.00242
399.8	4000	0.09109	0.00243
399.8	5000	0.09245	0.00246
399.8	6000	0.09304	0.00247
399.8	7000	0.09405	0.00249
399.8	8000	0.09508	0.00251
399.8	9000	0.09571	0.00252
399.8	10000	0.09635	0.00254
399.8	11000	0.09678	0.00254
399.8	12000	0.09743	0.00256
399.8	13000	0.09809	0.00257
399.8	14000	0.09876	0.00258
399.8	15000	0.09921	0.00259
399.8	16000	0.09992	0.00261
399.8	17000	0.1004	0.00262
399.8	18000	0.10087	0.00263
399.8	19000	0.10159	0.00264
399.8	20000	0.10187	0.00265
399.8	22000	0.10332	0.00268
399.8	23000	0.10406	0.00269
399.8	24000	0.10458	0.0027
399.8	25000	0.10534	0.00272
399.8	26000	0.10613	0.00273
399.8	27000	0.10666	0.00275
399.8	28000	0.10692	0.00275
399.8	29000	0.10772	0.00277
399.8	30000	0.10798	0.00277
399.8	31000	0.10825	0.00278
399.8	32000	0.10879	0.00279
399.8	33000	0.1096	0.00281
399.8	34000	0.11017	0.00282
399.8	35000	0.11075	0.00283
399.8	36000	0.11102	0.00283
399.8	37000	0.11131	0.00284
399.8	38000	0.11212	0.00286
399.8	39000	0.11216	0.00286
399.8	40000	0.11216	0.00286
424.3	1150	0.08315	0.00227
424.3	2000	0.08378	0.00228
424.3	3000	0.08476	0.0023
424.3	4000	0.08576	0.00232
424.3	5000	0.08682	0.00234
424.3	6000	0.08769	0.00236
424.3	7000	0.0884	0.00237
424.3	8000	0.08931	0.00239
424.3	9000	0.08986	0.0024
424.3	10000	0.09057	0.00242
424.3	11000	0.09132	0.00243
424.3	14170	0.09325	0.00247
424.3	15000	0.09447	0.0025
424.3	16000	0.09509	0.00251
424.3	17000	0.09571	0.00252
424.3	19000	0.09698	0.00255
424.3	20000	0.09719	0.00255
424.3	21000	0.09806	0.00257
424.3	22000	0.09872	0.00258
424.3	23000	0.09917	0.00259
424.3	24000	0.09972	0.0026
424.3	25000	0.10076	0.00263
424.3	26000	0.1011	0.00263
424.3	27000	0.10146	0.00264
424.3	28000	0.10207	0.00265
424.3	29000	0.10207	0.00265
424.3	30000	0.10313	0.00267
424.3	31000	0.10418	0.0027
424.3	32000	0.10468	0.00271
424.3	33000	0.10518	0.00272
424.3	34000	0.10543	0.00272
424.3	35000	0.10581	0.00273
424.3	36000	0.10632	0.00274
424.3	37000	0.10749	0.00276
424.3	38000	0.10708	0.00275
424.3	39020	0.10836	0.00278
424.3	40000	0.10813	0.00278
447.5	1310	0.07737	0.00215
447.5	2000	0.07865	0.00218
447.5	5000	0.08253	0.00226
447.5	6260	0.08278	0.00226
447.5	8000	0.0857	0.00232
447.5	9930	0.08693	0.00234
447.5	10000	0.08748	0.00236
447.5	12000	0.08936	0.00239
447.5	15470	0.09104	0.00243
447.5	16000	0.09181	0.00244
447.5	17000	0.09219	0.00245
447.5	19000	0.09387	0.00249
447.5	20000	0.09439	0.0025
447.5	21000	0.0952	0.00251
447.5	22000	0.09601	0.00253
447.5	23810	0.09731	0.00256
447.5	25460	0.09845	0.00258
447.5	26870	0.09932	0.0026
447.5	27950	0.09991	0.00261
447.5	28860	0.10051	0.00262
447.5	30200	0.10111	0.00263
447.5	31000	0.10159	0.00264
447.5	32000	0.1022	0.00265
447.5	33000	0.10251	0.00266
447.5	34000	0.10258	0.00266
447.5	35000	0.10352	0.00268
447.5	36000	0.10384	0.00269
447.5	37000	0.10448	0.0027
447.5	38000	0.10513	0.00271
447.5	39000	0.10579	0.00273
447.5	39460	0.10579	0.00273
472.7	4600	0.07622	0.00213
472.7	5000	0.07755	0.00216
472.7	9000	0.08203	0.00225
472.7	10000	0.08284	0.00226
472.7	11000	0.08367	0.00228
472.7	14000	0.08692	0.00234
472.7	16000	0.08888	0.00238
472.7	17000	0.08932	0.00239
472.7	18000	0.09004	0.00241
472.7	19000	0.09077	0.00242
472.7	20000	0.09133	0.00243
472.7	21000	0.09158	0.00244
472.7	22000	0.0926	0.00246
472.7	23000	0.09285	0.00246
472.7	24000	0.09336	0.00248
472.7	25000	0.09362	0.00248
472.7	26000	0.09414	0.00249
472.7	27000	0.09494	0.00251
472.7	28000	0.09574	0.00252
472.7	29000	0.09656	0.00254
472.7	30000	0.09684	0.00255
472.7	31500	0.09796	0.00257
472.7	32200	0.09824	0.00257
472.7	33600	0.09911	0.00259
472.7	35400	0.1	0.00261
472.7	36000	0.1006	0.00262
497.8	6000	0.07427	0.00209
497.8	8000	0.07724	0.00215
497.8	9770	0.08	0.0022
497.8	10450	0.08077	0.00222
497.8	13000	0.08301	0.00227
497.8	14000	0.08408	0.00229
497.8	15000	0.08453	0.0023
497.8	16000	0.08499	0.00231
497.8	17000	0.08586	0.00232
497.8	18000	0.08657	0.00234
497.8	19000	0.08748	0.00236
497.8	20000	0.08817	0.00237
497.8	21000	0.08887	0.00238
497.8	22000	0.08934	0.00239
497.8	23000	0.09005	0.00241
497.8	24000	0.09053	0.00242
497.8	25000	0.09102	0.00243
497.8	26000	0.09176	0.00244
497.8	27000	0.09252	0.00246
497.8	28000	0.09302	0.00247
497.8	29000	0.0938	0.00248
497.8	30000	0.09458	0.0025
497.8	31000	0.09511	0.00251
497.8	32000	0.09564	0.00252

System: hexane; phases: Gas
Property: Thermal conductivity, W/m/K (Gas); method: Coaxial cylinder method
Temperature, K	Pressure, kPa	Thermal conductivity, W/m/K	uncertainty
383.54	104	0.02172	0.00055
383.54	110	0.02177	0.00056
383.54	310	0.02173	0.00056
383.54	311	0.0218	0.00056
388.26	105	0.02221	0.00056
426.49	317	0.02682	0.00066
426.49	318	0.02682	0.00066
426.49	420	0.02733	0.00067
477.13	100	0.03333	0.00079
477.13	102	0.03261	0.00078
477.13	149	0.0328	0.00078
477.13	201	0.03318	0.00079
477.13	301	0.03388	0.0008
477.13	400	0.03377	0.0008
477.35	102	0.03312	0.00079
477.35	150	0.03359	0.0008
477.35	170	0.0337	0.0008
477.35	200	0.03363	0.0008
477.35	300	0.03365	0.0008
477.35	400	0.03379	0.0008
495.94	332	0.03631	0.00085
495.94	383	0.0366	0.00086
506.97	101	0.03688	0.00086
508.92	493	0.03736	0.00088
508.92	494	0.03743	0.00088
508.92	500	0.03743	0.00088
508.92	600	0.03746	0.00088
508.92	700	0.03762	0.00088
508.92	800	0.03769	0.00088
508.92	8500	0.07705	0.00176
508.92	9000	0.07765	0.00177
508.92	9500	0.07818	0.00179
508.92	10000	0.07872	0.00181
508.92	10500	0.07919	0.00182
508.92	11000	0.0797	0.00184
508.92	11500	0.08018	0.00185
508.92	12000	0.0807	0.00187
508.92	12300	0.081	0.00187
508.92	13000	0.08169	0.0019
508.92	13300	0.08199	0.00191
508.92	13500	0.08219	0.00191
508.92	14000	0.08247	0.00192
508.92	14300	0.08278	0.00193
508.92	15000	0.08346	0.00195
508.92	15400	0.08382	0.00196
508.92	15700	0.08411	0.00197
508.92	16500	0.08482	0.002
508.92	16900	0.08519	0.00201
508.92	17400	0.08561	0.00202
508.92	17900	0.0858	0.00203
508.92	19000	0.08675	0.00206
508.92	20000	0.08758	0.00209
508.92	20200	0.08771	0.0021
509.85	10000	0.07899	0.00181
509.85	10500	0.07949	0.00183
509.85	11000	0.08	0.00184
509.85	11500	0.08052	0.00186
509.85	12000	0.08109	0.00187
509.85	12400	0.08132	0.00188
509.85	13000	0.08181	0.0019
509.85	13500	0.08243	0.00192
509.85	13800	0.08266	0.00192
509.85	14300	0.08318	0.00194
509.85	14600	0.08334	0.00195
509.85	15000	0.08375	0.00196
509.85	15200	0.08395	0.00197
509.85	15400	0.08411	0.00197
509.85	15600	0.08427	0.00198
509.85	15700	0.08435	0.00198
509.85	15800	0.08442	0.00198
509.85	15900	0.08448	0.00198
509.85	16000	0.08456	0.00199
509.85	16500	0.08502	0.002
509.85	17000	0.08543	0.00201
509.85	18000	0.08624	0.00204
509.85	18400	0.08654	0.00205
509.85	18500	0.08656	0.00205
509.85	19300	0.08722	0.00208
509.85	20000	0.08778	0.0021
509.85	21000	0.0885	0.00212
509.85	22000	0.08927	0.00215
509.85	23000	0.08991	0.00217
509.85	24000	0.09066	0.0022
509.85	25000	0.09139	0.00223
509.85	26000	0.09186	0.00225
509.85	27000	0.09261	0.00228
509.85	28000	0.09331	0.0023
509.85	29000	0.09397	0.00233
509.85	30000	0.09464	0.00236
509.85	30900	0.09522	0.00238
510.36	245	0.0379	0.00089
511.55	279	0.03836	0.00089
511.55	280	0.03835	0.00089
511.55	281	0.03835	0.00089
511.55	285	0.03835	0.00089
511.55	306	0.03835	0.00089
511.55	334	0.03835	0.00089
511.55	378	0.03834	0.00089
511.55	482	0.03834	0.0009
511.55	621	0.03834	0.0009
511.55	800	0.0385	0.0009
511.55	10000	0.07902	0.00181
511.55	10500	0.07942	0.00182
511.55	10900	0.07977	0.00184
511.55	11000	0.07983	0.00184
511.55	11500	0.08034	0.00185
511.55	12000	0.08079	0.00187
511.55	13000	0.08176	0.0019
511.55	14000	0.08269	0.00193
511.55	14500	0.08315	0.00194
511.55	15000	0.08356	0.00196
511.55	15000	0.0836	0.00196
511.55	15600	0.08416	0.00197
511.55	15800	0.08432	0.00198
511.55	15900	0.08444	0.00198
511.55	16200	0.08468	0.00199
511.79	12800	0.0821	0.0019
511.79	13400	0.0827	0.00192
511.79	14000	0.08311	0.00194
513.09	9900	0.07883	0.00181
513.09	10000	0.07894	0.00181
513.09	10500	0.07947	0.00183
513.09	10650	0.07962	0.00183
513.09	10920	0.07988	0.00184
513.09	11260	0.08023	0.00185
513.09	11790	0.08077	0.00187
513.09	12000	0.08097	0.00187
513.09	12250	0.0812	0.00188
513.09	12380	0.08132	0.00188
513.09	12470	0.0814	0.00189
513.09	13000	0.08193	0.0019
513.09	13500	0.08241	0.00192
513.09	13740	0.08265	0.00192
513.09	13910	0.08281	0.00193
515.56	237	0.03853	0.0009
515.56	239	0.03853	0.0009
515.56	676	0.03834	0.0009
515.56	700	0.03843	0.0009
515.56	9100	0.07739	0.00177
515.56	9260	0.07757	0.00177
515.56	9300	0.07761	0.00178
515.56	9500	0.07783	0.00178
515.56	9830	0.07824	0.00179
515.56	9960	0.07839	0.0018
515.56	10040	0.07846	0.0018
515.56	10100	0.0785	0.0018
515.56	10300	0.07873	0.00181
515.56	10700	0.07914	0.00182
515.56	10800	0.07926	0.00182
515.56	11000	0.07945	0.00183
515.56	11210	0.07968	0.00184
515.56	11600	0.08007	0.00185
515.56	11660	0.08011	0.00185
515.56	11740	0.08019	0.00185
515.56	12070	0.0805	0.00186
515.56	12370	0.08078	0.00187
515.56	12870	0.08126	0.00189
525.42	210	0.03978	0.00092
525.42	211	0.03958	0.00092
525.42	12500	0.08071	0.00187
525.42	12700	0.08091	0.00188
525.42	13000	0.0811	0.00188
525.42	13230	0.0813	0.00189
525.42	13500	0.0815	0.0019
525.42	13640	0.08161	0.0019
525.42	13800	0.08169	0.0019
525.42	13930	0.08177	0.00191
525.42	13990	0.08189	0.00191
525.42	14000	0.08189	0.00191
525.42	14200	0.08189	0.00191
525.42	14400	0.08189	0.00191
525.42	14500	0.08229	0.00192
525.42	14710	0.08251	0.00193
525.42	14800	0.08251	0.00193
525.42	15000	0.08251	0.00193
525.42	15200	0.08271	0.00194
525.42	15500	0.08271	0.00194
525.42	15660	0.08271	0.00194
525.42	15790	0.08312	0.00195
525.42	15900	0.08312	0.00195
525.42	16000	0.08333	0.00196
525.42	16080	0.08333	0.00196
525.42	16270	0.08333	0.00196
525.42	16320	0.08353	0.00197
525.42	16420	0.08353	0.00197
525.42	16500	0.08353	0.00197
525.42	16580	0.08353	0.00197
525.42	16610	0.08374	0.00197
525.42	16750	0.08374	0.00197
525.42	16850	0.08375	0.00198
525.42	16880	0.08396	0.00198
525.42	17000	0.08396	0.00198
525.42	17200	0.08396	0.00198
525.42	17280	0.08396	0.00198
525.42	17300	0.08402	0.00199
525.42	17500	0.08402	0.00199
525.42	17590	0.08444	0.002
525.42	17660	0.08444	0.002
525.42	18220	0.08486	0.00201
553	439	0.04295	0.00099
553	500	0.04295	0.00099
553	560	0.04295	0.00099
553	598	0.04307	0.00099
553	668	0.04319	0.001
553	777	0.04319	0.001
553	890	0.04342	0.001
553	15000	0.08151	0.00191
553	15500	0.08187	0.00192
553	16000	0.08231	0.00194
553	16500	0.08272	0.00195
553	17000	0.08313	0.00196
553	17500	0.08351	0.00198
553	18000	0.08393	0.00199
553	18280	0.08414	0.002
553	18800	0.08456	0.00201
553	20000	0.08543	0.00204
553	20500	0.08578	0.00206
553	21000	0.08618	0.00207
553	23500	0.0879	0.00213
553	24000	0.08827	0.00215
553	24500	0.08855	0.00216
553	25000	0.08883	0.00217
553	25500	0.08919	0.00218
553	26000	0.08952	0.0022
553	26500	0.08986	0.00221
553	27000	0.09015	0.00222
553	27500	0.09049	0.00223
553	28000	0.09083	0.00225
553	29500	0.09172	0.00228
553	30000	0.09202	0.00229
553	31000	0.09258	0.00232
553	32000	0.09309	0.00234
553	33000	0.09361	0.00236
595.23	126	0.04822	0.0011
595.23	556	0.0483	0.0011
595.23	1416	0.04835	0.00111
595.23	1970	0.0486	0.00111
595.23	3030	0.04961	0.00114
595.23	4120	0.05203	0.0012
595.23	6480	0.05925	0.00136
595.23	7230	0.06245	0.00144
595.23	8490	0.06637	0.00153
595.23	9000	0.06803	0.00157
595.23	10150	0.07067	0.00163
595.23	11220	0.07305	0.00169
595.23	12350	0.07483	0.00174
595.23	13370	0.07657	0.00179
595.23	14630	0.07795	0.00183
595.23	15290	0.07838	0.00184
595.23	16090	0.07906	0.00187
595.23	17110	0.08027	0.0019
595.23	18810	0.08233	0.00196
595.23	19950	0.08324	0.00199
595.23	21980	0.08453	0.00204
595.23	24910	0.08644	0.00211
595.23	26720	0.08763	0.00216
595.23	29550	0.08943	0.00223
595.23	32360	0.09113	0.0023
595.23	36120	0.09303	0.00238
595.23	36980	0.09363	0.00241
595.23	39790	0.09528	0.00248
595.23	42270	0.09635	0.00253
595.23	43890	0.09735	0.00258
595.23	45030	0.09794	0.0026
595.23	46190	0.09874	0.00264
595.23	47780	0.09983	0.00268
595.23	50090	0.10182	0.00276
595.23	52040	0.10262	0.00281
595.23	54030	0.10317	0.00285
