Measured thermophysical data. Measurement and correlation of liquid-liquid equilibrium for the ternary system 2,2,3,3,4,4,5,5-octafluoro-1-pentanol +  methanol + water at (298.15, 308.15, and 318.15) K
Source: Fluid Phase Equilib., 2016, 10.1016/j.fluid.2015.10.039
Compound 1: 2,2,3,3,4,4,5,5-octafluoro-1-pentanol, C5H4F8O, InChI=1S/C5H4F8O/c6-2(7)4(10,11)5(12,13)3(8,9)1-14/h2,14H,1H2, purity 99.5%
Compound 2: methanol, CH4O, InChI=1S/CH4O/c1-2/h2H,1H3, purity 99.5%
Compound 3: water, H2O, InChI=1S/H2O/h1H2, purity 99.8%

System: methanol + 2,2,3,3,4,4,5,5-octafluoro-1-pentanol + water; phases: Liquid mixture 1, Liquid mixture 2
Fixed: Pressure, kPa = 101
Property: Mole fraction of 2,2,3,3,4,4,5,5-octafluoro-1-pentanol (Liquid mixture 1); method: Chromatography
Property: Mole fraction of methanol (Liquid mixture 2); method: Chromatography
Property: Mole fraction of 2,2,3,3,4,4,5,5-octafluoro-1-pentanol (Liquid mixture 2); method: Chromatography
Temperature, K	Mole fraction of methanol	Mole fraction of 2,2,3,3,4,4,5,5-octafluoro-1-pentanol	uncertainty	Mole fraction of methanol	uncertainty	Mole fraction of 2,2,3,3,4,4,5,5-octafluoro-1-pentanol	uncertainty
298.15	0	0.0017	0.0012	0		0.5999	
298.15	0.2076	0.0078	0.0013	0.3225	0.0026	0.1466	
298.15	0.2299	0.0212	0.0014	0.289	0.0025	0.0873	
308.15	0	0.0018	0.0012	0		0.5952	
308.15	0.0245	0.0022	0.0012	0.0734	0.0017	0.523	
308.15	0.044	0.0028	0.0012	0.1266	0.0019	0.4668	
308.15	0.0552	0.0027	0.0012	0.1525	0.002	0.4353	
308.15	0.0784	0.0039	0.0012	0.1987	0.0021	0.3886	
308.15	0.1014	0.0038	0.0012	0.2365	0.0022	0.3378	
308.15	0.1271	0.0048	0.0012	0.2722	0.0023	0.2894	
308.15	0.1506	0.0059	0.0012	0.2954	0.0024	0.2215	
298.15	0.0244	0.0021	0.0012	0.0661	0.0018	0.5432	
308.15	0.1792	0.0094	0.0012	0.3011	0.0024	0.1694	
308.15	0.2048	0.015	0.0013	0.2886	0.0024	0.109	
308.15	0.1914	0.0108	0.0012	0.3017	0.0025	0.1489	
318.15	0	0.0019	0.0012	0		0.5994	
318.15	0.0129	0.0022	0.0012	0.0429	0.0019	0.5655	
318.15	0.0224	0.002	0.0012	0.072	0.0017	0.5374	
318.15	0.0441	0.0032	0.0012	0.1276	0.0018	0.4763	
318.15	0.0658	0.0035	0.0012	0.173	0.0019	0.4084	
318.15	0.0886	0.0048	0.0012	0.2121	0.0021	0.354	
318.15	0.1139	0.0044	0.0012	0.2422	0.0022	0.3015	
298.15	0.0358	0.003	0.0012	0.1011	0.0018	0.5017	
318.15	0.137	0.0057	0.0012	0.2733	0.0023	0.2512	
318.15	0.1682	0.0046	0.0012	0.2843	0.0023	0.1896	
318.15	0.1874	0.0135	0.0013	0.2801	0.0023	0.1454	
298.15	0.0583	0.0032	0.0012	0.1518	0.0019	0.4495	
298.15	0.0803	0.0032	0.0012	0.1945	0.0021	0.3972	
298.15	0.1061	0.0036	0.0012	0.2352	0.0022	0.3461	
298.15	0.134	0.0041	0.0012	0.2721	0.0024	0.2873	
298.15	0.1568	0.0048	0.0012	0.3026	0.0025	0.2369	
298.15	0.1772	0.0047	0.0012	0.3161	0.0025	0.2043	
