Measured thermophysical data. Effect of anion species on infinite dilution activity coefficients of epoxides in imidazolium-based ionic liquids
Source: Fluid Phase Equilib., 2010, 10.1016/j.fluid.2010.01.007
Compound 1: 1-butyl-3-methylimidazolium tetrafluoroborate, C8H15BF4N2, InChI=1S/C8H15N2.BF4/c1-3-4-5-10-7-6-9(2)8-10;2-1(3,4)5/h6-8H,3-5H2,1-2H3;/q+1;-1
Compound 2: 1-butyl-3-methylimidazolium hexafluorophosphate, C8H15F6N2P, InChI=1S/C8H15N2.F6P/c1-3-4-5-10-7-6-9(2)8-10;1-7(2,3,4,5)6/h6-8H,3-5H2,1-2H3;/q+1;-1
Compound 3: methyloxirane, C3H6O, InChI=1S/C3H6O/c1-3-2-4-3/h3H,2H2,1H3
Compound 4: ethyloxirane, C4H8O, InChI=1S/C4H8O/c1-2-4-3-5-4/h4H,2-3H2,1H3
Compound 5: 2,2-dimethyloxirane, C4H8O, InChI=1S/C4H8O/c1-4(2)3-5-4/h3H2,1-2H3
Compound 6: 1,2-epoxyhexane, C6H12O, InChI=1S/C6H12O/c1-2-3-4-6-5-7-6/h6H,2-5H2,1H3

System: methyloxirane + 1-butyl-3-methylimidazolium tetrafluoroborate; phases: Liquid, Gas
Fixed: Mole fraction of methyloxirane = 0
Property: Activity coefficient of methyloxirane (Liquid); method: Chromatography
Temperature, K	Activity coefficient of methyloxirane	uncertainty
325.2	1.35	0.04
334.8	1.33	0.04
344.3	1.27	0.03
353.9	1.32	0.04
363.4	1.41	0.04

System: methyloxirane + 1-butyl-3-methylimidazolium tetrafluoroborate; phases: Liquid
Property: Partial molar enthalpy, kJ/mol of methyloxirane (Liquid); method: Derived from infinite dilution activity coefficient data
Temperature, K	Pressure, kPa	Mole fraction of methyloxirane	Partial molar enthalpy, kJ/mol of methyloxirane	uncertainty
363.4	101.325	0	-0.75	0.01

System: ethyloxirane + 1-butyl-3-methylimidazolium tetrafluoroborate; phases: Liquid, Gas
Fixed: Mole fraction of ethyloxirane = 0
Property: Activity coefficient of ethyloxirane (Liquid); method: Chromatography
Temperature, K	Activity coefficient of ethyloxirane	uncertainty
325.2	2.62	0.09
334.8	2.14	0.08
344.3	2.08	0.07
353.9	2.05	0.07
363.4	2.1	0.07

System: ethyloxirane + 1-butyl-3-methylimidazolium tetrafluoroborate; phases: Liquid
Property: Partial molar enthalpy, kJ/mol of ethyloxirane (Liquid); method: Derived from infinite dilution activity coefficient data
Temperature, K	Pressure, kPa	Mole fraction of ethyloxirane	Partial molar enthalpy, kJ/mol of ethyloxirane	uncertainty
363.4	101.325	0	2	0.01

System: 2,2-dimethyloxirane + 1-butyl-3-methylimidazolium tetrafluoroborate; phases: Liquid, Gas
Fixed: Mole fraction of 2,2-dimethyloxirane = 0
Property: Activity coefficient of 2,2-dimethyloxirane (Liquid); method: Chromatography
Temperature, K	Activity coefficient of 2,2-dimethyloxirane	uncertainty
325.2	2.19	0.08
334.8	2.13	0.07
344.3	2.11	0.07
353.9	2.06	0.07
363.4	2.18	0.08

System: 2,2-dimethyloxirane + 1-butyl-3-methylimidazolium tetrafluoroborate; phases: Liquid
Property: Partial molar enthalpy, kJ/mol of 2,2-dimethyloxirane (Liquid); method: Derived from infinite dilution activity coefficient data
Temperature, K	Pressure, kPa	Mole fraction of 2,2-dimethyloxirane	Partial molar enthalpy, kJ/mol of 2,2-dimethyloxirane	uncertainty
363.4	101.325	0	0.48	0.01

System: 1,2-epoxyhexane + 1-butyl-3-methylimidazolium tetrafluoroborate; phases: Liquid, Gas
Fixed: Mole fraction of 1,2-epoxyhexane = 0
Property: Activity coefficient of 1,2-epoxyhexane (Liquid); method: Chromatography
Temperature, K	Activity coefficient of 1,2-epoxyhexane	uncertainty
325.2	5.7	0.2
334.8	5.31	0.19
344.3	5.3	0.19
353.9	5.14	0.18
363.4	5.2	0.18

System: 1,2-epoxyhexane + 1-butyl-3-methylimidazolium tetrafluoroborate; phases: Liquid
Property: Partial molar enthalpy, kJ/mol of 1,2-epoxyhexane (Liquid); method: Derived from infinite dilution activity coefficient data
Temperature, K	Pressure, kPa	Mole fraction of 1,2-epoxyhexane	Partial molar enthalpy, kJ/mol of 1,2-epoxyhexane	uncertainty
363.4	101.325	0	2.26	0.01

System: methyloxirane + 1-butyl-3-methylimidazolium hexafluorophosphate; phases: Liquid, Gas
Fixed: Mole fraction of methyloxirane = 0
Property: Activity coefficient of methyloxirane (Liquid); method: Chromatography
Temperature, K	Activity coefficient of methyloxirane	uncertainty
334.8	0.838	0.021
344.3	0.828	0.021
353.9	0.893	0.021
363.4	0.872	0.024

System: methyloxirane + 1-butyl-3-methylimidazolium hexafluorophosphate; phases: Liquid
Property: Partial molar enthalpy, kJ/mol of methyloxirane (Liquid); method: Derived from infinite dilution activity coefficient data
Temperature, K	Pressure, kPa	Mole fraction of methyloxirane	Partial molar enthalpy, kJ/mol of methyloxirane	uncertainty
363.4	101.325	0	-2.08	0.01

System: ethyloxirane + 1-butyl-3-methylimidazolium hexafluorophosphate; phases: Liquid, Gas
Fixed: Mole fraction of ethyloxirane = 0
Property: Activity coefficient of ethyloxirane (Liquid); method: Chromatography
Temperature, K	Activity coefficient of ethyloxirane	uncertainty
334.8	1.13	0.03
344.3	1.13	0.03
353.9	1.19	0.03
363.4	1.16	0.03

System: ethyloxirane + 1-butyl-3-methylimidazolium hexafluorophosphate; phases: Liquid
Property: Partial molar enthalpy, kJ/mol of ethyloxirane (Liquid); method: Derived from infinite dilution activity coefficient data
Temperature, K	Pressure, kPa	Mole fraction of ethyloxirane	Partial molar enthalpy, kJ/mol of ethyloxirane	uncertainty
363.4	101.325	0	-1.4	0.01

System: 2,2-dimethyloxirane + 1-butyl-3-methylimidazolium hexafluorophosphate; phases: Liquid, Gas
Fixed: Mole fraction of 2,2-dimethyloxirane = 0
Property: Activity coefficient of 2,2-dimethyloxirane (Liquid); method: Chromatography
Temperature, K	Activity coefficient of 2,2-dimethyloxirane	uncertainty
334.8	1.09	0.03
344.3	1.12	0.03
353.9	1.21	0.03
363.4	1.19	0.04

System: 2,2-dimethyloxirane + 1-butyl-3-methylimidazolium hexafluorophosphate; phases: Liquid
Property: Partial molar enthalpy, kJ/mol of 2,2-dimethyloxirane (Liquid); method: Derived from infinite dilution activity coefficient data
Temperature, K	Pressure, kPa	Mole fraction of 2,2-dimethyloxirane	Partial molar enthalpy, kJ/mol of 2,2-dimethyloxirane	uncertainty
363.4	101.325	0	-3.64	0.01

System: 1,2-epoxyhexane + 1-butyl-3-methylimidazolium hexafluorophosphate; phases: Liquid, Gas
Fixed: Mole fraction of 1,2-epoxyhexane = 0
Property: Activity coefficient of 1,2-epoxyhexane (Liquid); method: Chromatography
Temperature, K	Activity coefficient of 1,2-epoxyhexane	uncertainty
334.8	1.94	0.07
344.3	2.19	0.08
353.9	2.2	0.08
363.4	2.14	0.08

System: 1,2-epoxyhexane + 1-butyl-3-methylimidazolium hexafluorophosphate; phases: Liquid
Property: Partial molar enthalpy, kJ/mol of 1,2-epoxyhexane (Liquid); method: Derived from infinite dilution activity coefficient data
Temperature, K	Pressure, kPa	Mole fraction of 1,2-epoxyhexane	Partial molar enthalpy, kJ/mol of 1,2-epoxyhexane	uncertainty
363.4	101.325	0	-3.25	0.01
