Measured thermophysical data. Experimental isobaric vapor-liquid equilibrium at atmospheric and sub-atmospheric pressures, excess molar volumes and deviations in molar refractivity from 293.15 K to 318.15 K of diisopropyl ether with methanol and isopropyl alcohol.
Source: Fluid Phase Equilib., 2014, 10.1016/j.fluid.2014.09.014
Compound 1: methanol, CH4O, InChI=1S/CH4O/c1-2/h2H,1H3, purity 99.8%
Compound 2: diisopropyl ether, C6H14O, InChI=1S/C6H14O/c1-5(2)7-6(3)4/h5-6H,1-4H3, purity 98.5%
Compound 3: propan-2-ol, C3H8O, InChI=1S/C3H8O/c1-3(2)4/h3-4H,1-2H3, purity 99.8%

System: methanol; phases: Liquid
Property: Mass density, kg/m3 (Liquid); method: mechanical oscillator
Temperature, K	Pressure, kPa	Mass density, kg/m3	uncertainty
298.15	101.325	786.62	0.12

System: methanol; phases: Liquid
Property: Refractive index (Na D-line) (Liquid); method: Standard Abbe refractometry
Temperature, K	Pressure, kPa	Refractive index (Na D-line)	uncertainty
298.15	101.325	1.32666	0.00033

System: methanol; phases: Liquid, Gas
Property: Boiling temperature at pressure P, K (Liquid); method: Ebulliometric method (Recirculating still)
Pressure, kPa	Boiling temperature at pressure P, K	uncertainty
26.55	306.91	0.29
29.52	309.1	0.31
32.46	311.09	0.31
35.65	313.08	0.32
37.8	314.34	0.32
40.63	315.91	0.33
43.23	317.27	0.33
44.63	317.98	0.32
48.35	319.77	0.34
51.4	321.15	0.34
53.97	322.26	0.34
56.89	323.47	0.34
59.55	324.53	0.34
62.25	325.56	0.35
64.9	326.54	0.35
67.5	327.47	0.35
70.07	328.36	0.35
72.95	329.32	0.35
75.66	330.2	0.36
78.35	331.05	0.36
81.05	331.87	0.36
83.76	332.67	0.36
86.46	333.45	0.35
96.35	336.15	0.39

System: diisopropyl ether; phases: Liquid
Property: Mass density, kg/m3 (Liquid); method: mechanical oscillator
Temperature, K	Pressure, kPa	Mass density, kg/m3	uncertainty
298.15	101.325	718.3	0.24

System: diisopropyl ether; phases: Liquid
Property: Refractive index (Na D-line) (Liquid); method: Standard Abbe refractometry
Temperature, K	Pressure, kPa	Refractive index (Na D-line)	uncertainty
298.15	101.325	1.3653	0.0005

System: propan-2-ol; phases: Liquid
Property: Mass density, kg/m3 (Liquid); method: mechanical oscillator
Temperature, K	Pressure, kPa	Mass density, kg/m3	uncertainty
298.15	101.325	782.45	0.11

System: propan-2-ol; phases: Liquid
Property: Refractive index (Na D-line) (Liquid); method: Standard Abbe refractometry
Temperature, K	Pressure, kPa	Refractive index (Na D-line)	uncertainty
298.15	101.325	1.37522	0.00033

System: propan-2-ol; phases: Liquid, Gas
Property: Boiling temperature at pressure P, K (Liquid); method: Ebulliometric method (Recirculating still)
Pressure, kPa	Boiling temperature at pressure P, K	uncertainty
14.02	312.63	0.27
16.09	315.22	0.28
18.94	318.35	0.29
21.65	320.97	0.3
24.56	323.46	0.3
26.99	325.36	0.3
29.69	327.3	0.31
32.53	329.19	0.31
36.08	331.35	0.32
38.28	332.6	0.32
40.49	333.8	0.32
43.63	335.42	0.33
45.88	336.52	0.32
48.77	337.86	0.33
51.47	339.06	0.33
54.24	340.23	0.33
56.82	341.27	0.33
59.59	342.35	0.34
62.14	343.3	0.34
65.69	344.58	0.35
67.6	345.24	0.34
70.27	346.13	0.34
73.16	347.08	0.35
75.65	347.87	0.35
78.35	348.7	0.35
81.05	349.51	0.35
83.8	350.31	0.36
86.4	351.05	0.34
96.28	353.69	0.38

System: propan-2-ol + diisopropyl ether; phases: Liquid, Gas
Property: Boiling temperature at pressure P, K (Liquid); method: Ebulliometric method (Recirculating still)
Pressure, kPa	Mole fraction of diisopropyl ether	Boiling temperature at pressure P, K	uncertainty
53.33	0	340.05	0.32
53.33	0.051	334.17	1.33
53.33	0.072	330.55	0.7
53.33	0.153	326.5	0.49
53.33	0.203	326.01	0.31
53.33	0.245	325.27	0.38
53.33	0.297	323.81	0.48
53.33	0.307	323.45	0.48
53.33	0.398	322.32	0.37
53.33	0.461	321.47	0.36
53.33	0.543	321.84	0.37
53.33	0.637	321.65	0.38
53.33	0.701	321.2	0.36
53.33	0.754	321.07	0.39
53.33	0.791	320.37	0.32
53.33	0.89	321	0.37
53.33	0.911	320.87	0.43
53.33	0.955	322.18	0.4
53.33	0.977	321.73	0.39
53.33	1	322.9	0.39
66.67	0	345.25	0.36
66.67	0.051	339.15	1.5
66.67	0.072	334.24	0.61
66.67	0.153	332.59	0.43
66.67	0.245	329.75	0.42
66.67	0.307	328.57	0.39
66.67	0.398	327.97	0.42
66.67	0.461	327.66	0.42
66.67	0.543	327.58	0.41
66.67	0.637	327.71	0.42
66.67	0.701	326.98	0.43
66.67	0.754	327.05	0.42
66.67	0.791	325.95	0.45
66.67	0.83	325.56	0.4
66.67	0.886	326.87	0.48
66.67	0.911	327.29	0.46
66.67	0.955	327.61	0.4
66.67	0.977	327.87	0.61
66.67	1	329.1	0.44
79.99	0	349.5	0.4
79.99	0.051	341.61	0.9
79.99	0.153	335.32	0.59
79.99	0.194	335.17	0.33
79.99	0.3	334.1	0.42
79.99	0.307	333.32	0.42
79.99	0.398	333.24	0.45
79.99	0.461	332.49	0.45
79.99	0.543	332.56	0.42
79.99	0.637	332.64	0.43
79.99	0.701	332.22	0.45
79.99	0.754	331.65	0.45
79.99	0.791	331.03	0.43
79.99	0.83	330.57	0.45
79.99	0.886	332.15	0.47
79.99	0.911	332.41	0.42
79.99	0.955	332.32	0.46
79.99	1	334.3	0.49
94.79	0	354.5	0.48
94.79	0.051	345.39	1.63
94.79	0.072	343.55	0.57
94.79	0.153	340.38	0.62
94.79	0.194	339.23	0.45
94.79	0.3	338.04	0.43
94.79	0.398	338.38	0.48
94.79	0.461	338.17	0.54
94.79	0.543	337.4	0.5
94.79	0.637	337.63	0.46
94.79	0.701	337.1	0.49
94.79	0.754	336.9	0.5
94.79	0.791	335.19	0.51
94.79	0.83	335.5	0.51
94.79	0.886	336.46	0.45
94.79	0.911	336.83	0.43
94.79	0.955	337.05	0.69
94.79	1	340.4	0.59

System: propan-2-ol + diisopropyl ether; phases: Liquid, Gas
Property: Azeotropic temperature, K (Liquid); method: By X=Y
Pressure, kPa	Azeotropic temperature, K	uncertainty
53.33	320.5	0.3
66.67	325.56	0.3
79.99	330.57	0.3
98.49	335.5	0.3

System: propan-2-ol + diisopropyl ether; phases: Liquid, Gas
Property: Azeotropic composition: mole fraction of diisopropyl ether (Liquid); method: By X=Y
Pressure, kPa	Azeotropic composition: mole fraction of diisopropyl ether	uncertainty
53.33	0.791	0.004
66.67	0.767	0.004
79.99	0.73	0.01
98.49	0.73	0.01

System: propan-2-ol + diisopropyl ether; phases: Liquid
Fixed: Pressure, kPa = 101
Property: Mass density, kg/m3 (Liquid); method: mechanical oscillator
Temperature, K	Mole fraction of diisopropyl ether	Mass density, kg/m3	uncertainty
293.15	0	786.91	0.21
293.15	0.0277	784.54	0.21
293.15	0.0507	783.14	0.21
293.15	0.051	783.12	0.21
293.15	0.0717	781.73	0.21
293.15	0.1528	775.51	0.21
293.15	0.1938	772.05	0.21
293.15	0.2029	771.28	0.21
293.15	0.245	767.66	0.21
293.15	0.3068	762.42	0.21
293.15	0.398	755.24	0.22
293.15	0.4609	750.87	0.22
293.15	0.5434	745.99	0.22
293.15	0.6032	743.03	0.23
293.15	0.6371	741.54	0.23
293.15	0.701	738.99	0.24
293.15	0.754	737.02	0.25
293.15	0.8296	734.1	0.26
293.15	0.8903	731.31	0.28
293.15	0.9113	730.18	0.28
293.15	0.9547	727.49	0.29
293.15	0.973	726.17	0.29
293.15	0.9771	725.86	0.29
293.15	1	723.86	0.3
298.15	0	782.45	0.21
298.15	0.0277	780.15	0.21
298.15	0.0507	778.52	0.21
298.15	0.0717	776.95	0.21
298.15	0.1528	770.53	0.21
298.15	0.2029	766.41	0.21
298.15	0.245	762.95	0.21
298.15	0.297	758.78	0.21
298.15	0.3068	758.01	0.22
298.15	0.398	751.23	0.22
298.15	0.4609	747.02	0.22
298.15	0.5434	742.15	0.23
298.15	0.6032	739.05	0.23
298.15	0.6371	737.43	0.24
298.15	0.754	732.28	0.25
298.15	0.791	730.68	0.26
298.15	0.8296	728.95	0.26
298.15	0.8903	725.97	0.28
298.15	0.9113	724.83	0.28
298.15	0.9547	722.2	0.29
298.15	0.973	720.98	0.29
298.15	0.9771	720.69	0.29
298.15	1	718.3	0.3
303.15	0	777.84	0.21
303.15	0.0277	775.28	0.21
303.15	0.0507	773.7	0.21
303.15	0.051	773.67	0.21
303.15	0.0717	772.14	0.21
303.15	0.1528	765.48	0.21
303.15	0.1938	761.88	0.21
303.15	0.2029	761.07	0.21
303.15	0.245	757.34	0.21
303.15	0.297	752.77	0.22
303.15	0.3068	751.96	0.22
303.15	0.398	744.62	0.22
303.15	0.4609	740.13	0.23
303.15	0.5434	735.09	0.23
303.15	0.6032	732	0.24
303.15	0.6371	730.43	0.24
303.15	0.754	725.68	0.25
303.15	0.791	724.25	0.26
303.15	0.8296	722.69	0.26
303.15	0.8903	719.93	0.28
303.15	0.9113	718.84	0.28
303.15	0.9547	716.27	0.29
303.15	0.973	715.03	0.29
303.15	0.9771	714.73	0.29
303.15	1	712.68	0.3
308.15	0	773.13	0.21
308.15	0.0277	770.51	0.21
308.15	0.0507	769.05	0.21
308.15	0.051	769.05	0.21
308.15	0.0717	767.56	0.21
308.15	0.1528	760.84	0.21
308.15	0.1938	757.06	0.21
308.15	0.2029	756.2	0.21
308.15	0.245	752.2	0.21
308.15	0.297	747.3	0.21
308.15	0.3068	746.39	0.21
308.15	0.398	738.38	0.22
308.15	0.4609	733.51	0.22
308.15	0.5434	728.12	0.23
308.15	0.6032	724.92	0.23
308.15	0.6371	723.33	0.23
308.15	0.754	718.81	0.25
308.15	0.791	717.51	0.25
308.15	0.8296	716.11	0.26
308.15	0.8903	713.61	0.27
308.15	0.9113	712.6	0.27
308.15	0.9547	710.18	0.28
308.15	0.973	708.99	0.29
308.15	0.9771	708.7	0.29
308.15	1	707.06	0.29
313.15	0	768.47	0.21
313.15	0.0277	766.2	0.21
313.15	0.0507	764.54	0.21
313.15	0.051	764.52	0.21
313.15	0.0717	762.92	0.21
313.15	0.1528	756.03	0.21
313.15	0.2029	751.49	0.21
313.15	0.245	747.64	0.21
313.15	0.297	742.94	0.21
313.15	0.3068	742.11	0.21
313.15	0.398	734.56	0.21
313.15	0.4609	729.95	0.22
313.15	0.5434	724.76	0.22
313.15	0.6032	721.58	0.22
313.15	0.6371	719.96	0.23
313.15	0.754	715.06	0.24
313.15	0.791	713.58	0.25
313.15	0.8296	711.97	0.26
313.15	0.8903	709.12	0.27
313.15	0.9113	707.99	0.27
313.15	0.9547	705.35	0.28
313.15	0.973	704.08	0.28
313.15	0.9771	703.78	0.29
313.15	1	701.5	0.29
318.15	0	763.79	0.21
318.15	0.0507	759.23	0.21
318.15	0.051	759.21	0.21
318.15	0.0717	757.56	0.21
318.15	0.1528	750.75	0.21
318.15	0.2029	746.41	0.21
318.15	0.245	742.79	0.21
318.15	0.297	738.39	0.21
318.15	0.3068	737.61	0.21
318.15	0.398	730.51	0.21
318.15	0.4609	726.09	0.22
318.15	0.5434	720.95	0.22
318.15	0.6032	717.67	0.23
318.15	0.6371	715.94	0.23
318.15	0.754	710.5	0.24
318.15	0.791	708.82	0.25
318.15	0.8296	707.02	0.26
318.15	0.8903	703.97	0.27
318.15	0.9113	702.81	0.27
318.15	0.9547	700.18	0.28
318.15	0.973	698.96	0.28
318.15	0.9771	698.67	0.28
318.15	1	696.98	0.29

System: propan-2-ol + diisopropyl ether; phases: Liquid
Fixed: Pressure, kPa = 101
Fixed: Wavelength, nm = 404.7
Property: Refractive index (other wavelength) (Liquid); method: Standard Abbe refractometry
Temperature, K	Mole fraction of diisopropyl ether	Refractive index (other wavelength)	uncertainty
293.5	0	1.3883	0.00032
293.5	0.0277	1.388	0.00032
293.5	0.0507	1.3879	0.00032
293.5	0.051	1.38799	0.00032
293.5	0.0717	1.38774	0.00032
293.5	0.1528	1.38719	0.00032
293.5	0.1553	1.38719	0.00032
293.5	0.1938	1.38688	0.00033
293.5	0.2029	1.38669	0.00033
293.5	0.245	1.3865	0.00033
293.5	0.2973	1.38627	0.00034
293.5	0.297	1.38605	0.00034
293.5	0.3068	1.38571	0.00034
293.5	0.398	1.38461	0.00035
293.5	0.4609	1.38404	0.00035
293.5	0.5434	1.38333	0.00036
293.5	0.6032	1.38277	0.00037
293.5	0.6371	1.3824	0.00038
293.5	0.701	1.38179	0.00039
293.5	0.754	1.38141	0.00039
293.5	0.791	1.38107	0.0004
293.5	0.8296	1.38071	0.00041
293.5	0.8864	1.38051	0.00042
293.5	0.8903	1.38011	0.00042
293.5	0.9113	1.37989	0.00042
293.5	0.9547	1.37948	0.00043
293.5	0.973	1.37918	0.00043
293.5	0.9771	1.37921	0.00043
293.5	1	1.37888	0.00044
298.15	0	1.3861	0.00032
298.15	0.0277	1.38582	0.00032
298.15	0.0507	1.38573	0.00032
298.15	0.051	1.38574	0.00032
298.15	0.0717	1.38551	0.00032
298.15	0.1528	1.38491	0.00032
298.15	0.1553	1.38491	0.00032
298.15	0.1938	1.38463	0.00033
298.15	0.2029	1.38436	0.00033
298.15	0.245	1.38392	0.00033
298.15	0.2973	1.38372	0.00034
298.15	0.297	1.38349	0.00034
298.15	0.3068	1.38326	0.00034
298.15	0.398	1.38211	0.00035
298.15	0.4609	1.3815	0.00035
298.15	0.5434	1.38067	0.00036
298.15	0.6032	1.3801	0.00037
298.15	0.6371	1.37972	0.00038
298.15	0.701	1.37906	0.00039
298.15	0.754	1.37868	0.00039
298.15	0.791	1.3783	0.0004
298.15	0.8296	1.37799	0.00041
298.15	0.8864	1.37775	0.00042
298.15	0.8903	1.37734	0.00042
298.15	0.9113	1.37711	0.00042
298.15	0.9547	1.37676	0.00043
298.15	0.973	1.37634	0.00043
298.15	0.9771	1.37629	0.00043
298.15	1	1.37607	0.00044
303.15	0	1.38379	0.00032
303.15	0.0277	1.38362	0.00032
303.15	0.0507	1.38359	0.00032
303.15	0.051	1.38351	0.00032
303.15	0.0717	1.38322	0.00032
303.15	0.1528	1.38258	0.00032
303.15	0.1553	1.38258	0.00032
303.15	0.1938	1.38229	0.00033
303.15	0.2029	1.38193	0.00033
303.15	0.245	1.38148	0.00033
303.15	0.2973	1.38111	0.00034
303.15	0.297	1.38091	0.00034
303.15	0.3068	1.38076	0.00034
303.15	0.398	1.37951	0.00035
303.15	0.4609	1.37885	0.00035
303.15	0.5434	1.37802	0.00036
303.15	0.6032	1.37738	0.00037
303.15	0.6371	1.37701	0.00038
303.15	0.701	1.37631	0.00039
303.15	0.754	1.37593	0.00039
303.15	0.791	1.37553	0.0004
303.15	0.8296	1.37518	0.00041
303.15	0.8864	1.37495	0.00042
303.15	0.8903	1.37451	0.00042
303.15	0.9113	1.37428	0.00042
303.15	0.9547	1.37382	0.00043
303.15	0.973	1.37347	0.00043
303.15	0.9771	1.37338	0.00043
303.15	1	1.37321	0.00044
308.15	0	1.38152	0.00032
308.15	0.0277	1.38135	0.00032
308.15	0.0507	1.3813	0.00032
308.15	0.051	1.38124	0.00032
308.15	0.0717	1.38092	0.00032
308.15	0.1528	1.38023	0.00032
308.15	0.1553	1.38023	0.00032
308.15	0.1938	1.37994	0.00033
308.15	0.2029	1.3793	0.00033
308.15	0.245	1.37901	0.00033
308.15	0.2973	1.37852	0.00034
308.15	0.297	1.37832	0.00034
308.15	0.3068	1.37823	0.00034
308.15	0.398	1.37692	0.00035
308.15	0.4609	1.37625	0.00035
308.15	0.5434	1.37535	0.00036
308.15	0.6032	1.37466	0.00037
308.15	0.6371	1.37427	0.00038
308.15	0.701	1.37352	0.00039
308.15	0.754	1.37312	0.00039
308.15	0.791	1.37271	0.0004
308.15	0.8296	1.37234	0.00041
308.15	0.8864	1.37212	0.00042
308.15	0.8903	1.37167	0.00042
308.15	0.9113	1.37142	0.00042
308.15	0.9547	1.37095	0.00043
308.15	0.973	1.37062	0.00043
308.15	0.9771	1.37048	0.00043
308.15	1	1.37035	0.00044
313.15	0	1.37921	0.00032
313.15	0.0277	1.37904	0.00032
313.15	0.0507	1.37898	0.00032
313.15	0.051	1.37891	0.00032
313.15	0.0717	1.37855	0.00032
313.15	0.1528	1.37787	0.00032
313.15	0.1553	1.37787	0.00032
313.15	0.1938	1.37761	0.00033
313.15	0.2029	1.37706	0.00033
313.15	0.245	1.37653	0.00033
313.15	0.2973	1.37596	0.00034
313.15	0.297	1.37571	0.00034
313.15	0.3068	1.37567	0.00034
313.15	0.398	1.37428	0.00035
313.15	0.4609	1.37355	0.00035
313.15	0.5434	1.37263	0.00036
313.15	0.6032	1.37187	0.00037
313.15	0.6371	1.37152	0.00038
313.15	0.701	1.37074	0.00039
313.15	0.754	1.3703	0.00039
313.15	0.791	1.36988	0.0004
313.15	0.8296	1.36948	0.00041
313.15	0.8864	1.36937	0.00042
313.15	0.8903	1.3688	0.00042
313.15	0.9113	1.36853	0.00042
313.15	0.9547	1.36805	0.00043
313.15	0.973	1.36771	0.00043
313.15	0.9771	1.36756	0.00043
313.15	1	1.3674	0.00044
318.15	0	1.37691	0.00032
318.15	0.0277	1.37668	0.00032
318.15	0.0507	1.37662	0.00032
318.15	0.051	1.37654	0.00032
318.15	0.0717	1.37616	0.00032
318.15	0.1528	1.3755	0.00032
318.15	0.1553	1.3755	0.00032
318.15	0.1938	1.37525	0.00033
318.15	0.2029	1.37457	0.00033
318.15	0.245	1.374	0.00033
318.15	0.2973	1.37334	0.00034
318.15	0.297	1.37308	0.00034
318.15	0.3068	1.37306	0.00034
318.15	0.398	1.37184	0.00035
318.15	0.4609	1.37087	0.00035
318.15	0.5434	1.36988	0.00036
318.15	0.6032	1.36911	0.00037
318.15	0.6371	1.36872	0.00038
318.15	0.701	1.36791	0.00039
318.15	0.754	1.36743	0.00039
318.15	0.791	1.36699	0.0004
318.15	0.8296	1.36655	0.00041
318.15	0.8864	1.36644	0.00042
318.15	0.8903	1.36584	0.00042
318.15	0.9113	1.36554	0.00042
318.15	0.9547	1.3651	0.00043
318.15	0.973	1.3647	0.00043
318.15	0.9771	1.36468	0.00043
318.15	1	1.36447	0.00044

System: propan-2-ol + diisopropyl ether; phases: Liquid
Fixed: Pressure, kPa = 101
Fixed: Wavelength, nm = 435.8
Property: Refractive index (other wavelength) (Liquid); method: Standard Abbe refractometry
Temperature, K	Mole fraction of diisopropyl ether	Refractive index (other wavelength)	uncertainty
293.5	0	1.38525	0.00032
293.5	0.0277	1.38493	0.00032
293.5	0.0507	1.38485	0.00032
293.5	0.051	1.38492	0.00032
293.5	0.0717	1.38468	0.00032
293.5	0.1528	1.38413	0.00032
293.5	0.1553	1.38413	0.00032
293.5	0.1938	1.38381	0.00033
293.5	0.2029	1.38364	0.00033
293.5	0.245	1.38325	0.00033
293.5	0.2973	1.3832	0.00034
293.5	0.297	1.383	0.00034
293.5	0.3068	1.38264	0.00034
293.5	0.398	1.38154	0.00035
293.5	0.4609	1.38098	0.00035
293.5	0.5434	1.38026	0.00036
293.5	0.6032	1.37972	0.00037
293.5	0.6371	1.37934	0.00038
293.5	0.701	1.37873	0.00039
293.5	0.754	1.37834	0.00039
293.5	0.791	1.37802	0.0004
293.5	0.8296	1.37766	0.00041
293.5	0.8864	1.37747	0.00042
293.5	0.8903	1.37706	0.00042
293.5	0.9113	1.37684	0.00042
293.5	0.9547	1.37645	0.00043
293.5	0.973	1.37614	0.00043
293.5	0.9771	1.37617	0.00043
293.5	1	1.37585	0.00044
298.15	0	1.38307	0.00032
298.15	0.0277	1.38277	0.00032
298.15	0.0507	1.38268	0.00032
298.15	0.051	1.38276	0.00032
298.15	0.0717	1.38247	0.00032
298.15	0.1528	1.38186	0.00032
298.15	0.1553	1.38186	0.00032
298.15	0.1938	1.38158	0.00033
298.15	0.2029	1.38132	0.00033
298.15	0.245	1.38088	0.00033
298.15	0.2973	1.38067	0.00034
298.15	0.297	1.38044	0.00034
298.15	0.3068	1.38023	0.00034
298.15	0.398	1.37907	0.00035
298.15	0.4609	1.37845	0.00035
298.15	0.5434	1.37764	0.00036
298.15	0.6032	1.37707	0.00037
298.15	0.6371	1.37669	0.00038
298.15	0.701	1.37604	0.00039
298.15	0.754	1.37567	0.00039
298.15	0.791	1.37529	0.0004
298.15	0.8296	1.37498	0.00041
298.15	0.8864	1.37471	0.00042
298.15	0.8903	1.37434	0.00042
298.15	0.9113	1.37411	0.00042
298.15	0.9547	1.37367	0.00043
298.15	0.973	1.37334	0.00043
298.15	0.9771	1.3733	0.00043
298.15	1	1.37308	0.00044
303.15	0	1.38078	0.00032
303.15	0.0277	1.3806	0.00032
303.15	0.0507	1.38056	0.00032
303.15	0.051	1.38049	0.00032
303.15	0.0717	1.3802	0.00032
303.15	0.1528	1.37956	0.00032
303.15	0.1553	1.37956	0.00032
303.15	0.1938	1.37926	0.00033
303.15	0.2029	1.37892	0.00033
303.15	0.245	1.37846	0.00033
303.15	0.2973	1.37809	0.00034
303.15	0.297	1.37798	0.00034
303.15	0.3068	1.37775	0.00034
303.15	0.398	1.3765	0.00035
303.15	0.4609	1.37585	0.00035
303.15	0.5434	1.37503	0.00036
303.15	0.6032	1.3744	0.00037
303.15	0.6371	1.37401	0.00038
303.15	0.701	1.37333	0.00039
303.15	0.754	1.37295	0.00039
303.15	0.791	1.37254	0.0004
303.15	0.8296	1.37221	0.00041
303.15	0.8864	1.37197	0.00042
303.15	0.8903	1.37154	0.00042
303.15	0.9113	1.37131	0.00042
303.15	0.9547	1.37084	0.00043
303.15	0.973	1.3705	0.00043
303.15	0.9771	1.3704	0.00043
303.15	1	1.37022	0.00044
308.15	0	1.37851	0.00032
308.15	0.0277	1.37835	0.00032
308.15	0.0507	1.3783	0.00032
308.15	0.051	1.37824	0.00032
308.15	0.0717	1.37792	0.00032
308.15	0.1528	1.37724	0.00032
308.15	0.1553	1.37724	0.00032
308.15	0.1938	1.37695	0.00033
308.15	0.2029	1.37665	0.00033
308.15	0.245	1.37603	0.00033
308.15	0.2973	1.37554	0.00034
308.15	0.297	1.37533	0.00034
308.15	0.3068	1.37525	0.00034
308.15	0.398	1.37394	0.00035
308.15	0.4609	1.37325	0.00035
308.15	0.5434	1.37238	0.00036
308.15	0.6032	1.3717	0.00037
308.15	0.6371	1.37131	0.00038
308.15	0.701	1.37059	0.00039
308.15	0.754	1.37017	0.00039
308.15	0.791	1.36974	0.0004
308.15	0.8296	1.36938	0.00041
308.15	0.8864	1.36915	0.00042
308.15	0.8903	1.36871	0.00042
308.15	0.9113	1.36847	0.00042
308.15	0.9547	1.36796	0.00043
308.15	0.973	1.36766	0.00043
308.15	0.9771	1.36752	0.00043
308.15	1	1.36739	0.00044
313.15	0	1.37624	0.00032
313.15	0.0277	1.37606	0.00032
313.15	0.0507	1.376	0.00032
313.15	0.051	1.37594	0.00032
313.15	0.0717	1.37558	0.00032
313.15	0.1528	1.3749	0.00032
313.15	0.1553	1.3749	0.00032
313.15	0.1938	1.37465	0.00033
313.15	0.2029	1.37411	0.00033
313.15	0.245	1.37358	0.00033
313.15	0.2973	1.37298	0.00034
313.15	0.297	1.37276	0.00034
313.15	0.3068	1.37271	0.00034
313.15	0.398	1.37134	0.00035
313.15	0.4609	1.3706	0.00035
313.15	0.5434	1.36967	0.00036
313.15	0.6032	1.36891	0.00037
313.15	0.6371	1.36856	0.00038
313.15	0.701	1.36779	0.00039
313.15	0.754	1.36737	0.00039
313.15	0.791	1.36694	0.0004
313.15	0.8296	1.36655	0.00041
313.15	0.8864	1.36643	0.00042
313.15	0.8903	1.36585	0.00042
313.15	0.9113	1.3656	0.00042
313.15	0.9547	1.36513	0.00043
313.15	0.973	1.36481	0.00043
313.15	0.9771	1.36465	0.00043
313.15	1	1.36447	0.00044
318.15	0	1.37397	0.00032
318.15	0.0277	1.37373	0.00032
318.15	0.0507	1.37367	0.00032
318.15	0.051	1.3736	0.00032
318.15	0.0717	1.37322	0.00032
318.15	0.1528	1.37255	0.00032
318.15	0.1553	1.37255	0.00032
318.15	0.1938	1.37231	0.00033
318.15	0.2029	1.37164	0.00033
318.15	0.245	1.37107	0.00033
318.15	0.2973	1.3704	0.00034
318.15	0.297	1.37014	0.00034
318.15	0.3068	1.37013	0.00034
318.15	0.398	1.36891	0.00035
318.15	0.4609	1.36796	0.00035
318.15	0.5434	1.36693	0.00036
318.15	0.6032	1.36618	0.00037
318.15	0.6371	1.36578	0.00038
318.15	0.701	1.36501	0.00039
318.15	0.754	1.36453	0.00039
318.15	0.791	1.36408	0.0004
318.15	0.8296	1.36364	0.00041
318.15	0.8864	1.36355	0.00042
318.15	0.8903	1.36294	0.00042
318.15	0.9113	1.36264	0.00042
318.15	0.9547	1.36222	0.00043
318.15	0.973	1.36182	0.00043
318.15	0.9771	1.36178	0.00043
318.15	1	1.36157	0.00044

System: propan-2-ol + diisopropyl ether; phases: Liquid
Fixed: Pressure, kPa = 101
Fixed: Wavelength, nm = 486.1
Property: Refractive index (other wavelength) (Liquid); method: Standard Abbe refractometry
Temperature, K	Mole fraction of diisopropyl ether	Refractive index (other wavelength)	uncertainty
293.5	0	1.38179	0.00032
293.5	0.0277	1.38147	0.00032
293.5	0.0507	1.38137	0.00032
293.5	0.051	1.38146	0.00032
293.5	0.0717	1.38121	0.00032
293.5	0.1528	1.38066	0.00032
293.5	0.1553	1.38066	0.00032
293.5	0.1938	1.38034	0.00033
293.5	0.2029	1.38016	0.00033
293.5	0.245	1.37977	0.00033
293.5	0.2973	1.37973	0.00034
293.5	0.297	1.37951	0.00034
293.5	0.3068	1.37919	0.00034
293.5	0.398	1.37808	0.00035
293.5	0.4609	1.37753	0.00035
293.5	0.5434	1.37682	0.00036
293.5	0.6032	1.37624	0.00037
293.5	0.6371	1.37588	0.00038
293.5	0.701	1.37528	0.00039
293.5	0.754	1.3749	0.00039
293.5	0.791	1.37455	0.0004
293.5	0.8296	1.37423	0.00041
293.5	0.8864	1.374	0.00042
293.5	0.8903	1.37363	0.00042
293.5	0.9113	1.37339	0.00042
293.5	0.9547	1.37301	0.00043
293.5	0.973	1.37271	0.00043
293.5	0.9771	1.37274	0.00043
293.5	1	1.37241	0.00044
298.15	0	1.37963	0.00032
298.15	0.0277	1.37932	0.00032
298.15	0.0507	1.37925	0.00032
298.15	0.051	1.37929	0.00032
298.15	0.0717	1.37903	0.00032
298.15	0.1528	1.37841	0.00032
298.15	0.1553	1.37841	0.00032
298.15	0.1938	1.37814	0.00033
298.15	0.2029	1.37787	0.00033
298.15	0.245	1.37746	0.00033
298.15	0.2973	1.37725	0.00034
298.15	0.297	1.377	0.00034
298.15	0.3068	1.37678	0.00034
298.15	0.398	1.37562	0.00035
298.15	0.4609	1.37502	0.00035
298.15	0.5434	1.3742	0.00036
298.15	0.6032	1.37364	0.00037
298.15	0.6371	1.37328	0.00038
298.15	0.701	1.37261	0.00039
298.15	0.754	1.37225	0.00039
298.15	0.791	1.37188	0.0004
298.15	0.8296	1.37154	0.00041
298.15	0.8864	1.37132	0.00042
298.15	0.8903	1.3709	0.00042
298.15	0.9113	1.37068	0.00042
298.15	0.9547	1.37025	0.00043
298.15	0.973	1.36994	0.00043
298.15	0.9771	1.36986	0.00043
298.15	1	1.36965	0.00044
303.15	0	1.37738	0.00032
303.15	0.0277	1.37718	0.00032
303.15	0.0507	1.37714	0.00032
303.15	0.051	1.37707	0.00032
303.15	0.0717	1.37678	0.00032
303.15	0.1528	1.37614	0.00032
303.15	0.1553	1.37614	0.00032
303.15	0.1938	1.37584	0.00033
303.15	0.2029	1.37549	0.00033
303.15	0.245	1.37506	0.00033
303.15	0.2973	1.37467	0.00034
303.15	0.297	1.37446	0.00034
303.15	0.3068	1.37433	0.00034
303.15	0.398	1.37309	0.00035
303.15	0.4609	1.37245	0.00035
303.15	0.5434	1.37161	0.00036
303.15	0.6032	1.37096	0.00037
303.15	0.6371	1.37059	0.00038
303.15	0.701	1.36992	0.00039
303.15	0.754	1.36954	0.00039
303.15	0.791	1.36913	0.0004
303.15	0.8296	1.3688	0.00041
303.15	0.8864	1.36856	0.00042
303.15	0.8903	1.36813	0.00042
303.15	0.9113	1.36791	0.00042
303.15	0.9547	1.36747	0.00043
303.15	0.973	1.36711	0.00043
303.15	0.9771	1.36702	0.00043
303.15	1	1.36687	0.00043
308.15	0	1.37512	0.00032
308.15	0.0277	1.37495	0.00032
308.15	0.0507	1.37488	0.00032
308.15	0.051	1.37483	0.00032
308.15	0.0717	1.37451	0.00032
308.15	0.1528	1.37384	0.00032
308.15	0.1553	1.37384	0.00032
308.15	0.1938	1.37356	0.00033
308.15	0.2029	1.37311	0.00033
308.15	0.245	1.37266	0.00033
308.15	0.2973	1.37215	0.00034
308.15	0.297	1.37193	0.00034
308.15	0.3068	1.3718	0.00034
308.15	0.398	1.37056	0.00035
308.15	0.4609	1.36987	0.00035
308.15	0.5434	1.36896	0.00036
308.15	0.6032	1.3683	0.00037
308.15	0.6371	1.36792	0.00038
308.15	0.701	1.36722	0.00039
308.15	0.754	1.36681	0.00039
308.15	0.791	1.36638	0.0004
308.15	0.8296	1.36604	0.00041
308.15	0.8864	1.3658	0.00042
308.15	0.8903	1.36535	0.00042
308.15	0.9113	1.36511	0.00042
308.15	0.9547	1.36465	0.00043
308.15	0.973	1.36431	0.00043
308.15	0.9771	1.36417	0.00043
308.15	1	1.36407	0.00044
313.15	0	1.37288	0.00032
313.15	0.0277	1.37269	0.00032
313.15	0.0507	1.37262	0.00032
313.15	0.051	1.37256	0.00032
313.15	0.0717	1.37221	0.00032
313.15	0.1528	1.3715	0.00032
313.15	0.1553	1.3715	0.00032
313.15	0.1938	1.37126	0.00033
313.15	0.2029	1.37068	0.00033
313.15	0.245	1.37022	0.00033
313.15	0.2973	1.36959	0.00034
313.15	0.297	1.36938	0.00034
313.15	0.3068	1.36934	0.00034
313.15	0.398	1.36798	0.00035
313.15	0.4609	1.36724	0.00035
313.15	0.5434	1.36633	0.00036
313.15	0.6032	1.36561	0.00037
313.15	0.6371	1.36522	0.00038
313.15	0.701	1.36447	0.00039
313.15	0.754	1.36403	0.00039
313.15	0.791	1.36363	0.0004
313.15	0.8296	1.36322	0.00041
313.15	0.8864	1.36308	0.00042
313.15	0.8903	1.36252	0.00042
313.15	0.9113	1.36228	0.00042
313.15	0.9547	1.3618	0.00043
313.15	0.973	1.36145	0.00043
313.15	0.9771	1.36134	0.00043
313.15	1	1.36119	0.00044
318.15	0	1.37061	0.00032
318.15	0.0277	1.37036	0.00032
318.15	0.0507	1.3703	0.00032
318.15	0.051	1.37024	0.00032
318.15	0.0717	1.36986	0.00032
318.15	0.1528	1.36919	0.00032
318.15	0.1553	1.36919	0.00032
318.15	0.1938	1.36894	0.00033
318.15	0.2029	1.36826	0.00033
318.15	0.245	1.36775	0.00033
318.15	0.2973	1.36706	0.00034
318.15	0.297	1.36682	0.00034
318.15	0.3068	1.36679	0.00034
318.15	0.398	1.36558	0.00035
318.15	0.4609	1.36464	0.00035
318.15	0.5434	1.36363	0.00036
318.15	0.6032	1.36282	0.00037
318.15	0.6371	1.36247	0.00038
318.15	0.701	1.36166	0.00039
318.15	0.754	1.36123	0.00039
318.15	0.791	1.3608	0.0004
318.15	0.8296	1.36034	0.00041
318.15	0.8864	1.36022	0.00042
318.15	0.8903	1.35967	0.00042
318.15	0.9113	1.3594	0.00042
318.15	0.9547	1.35891	0.00043
318.15	0.973	1.35854	0.00043
318.15	0.9771	1.35849	0.00043
318.15	1	1.35832	0.00044

System: propan-2-ol + diisopropyl ether; phases: Liquid
Fixed: Pressure, kPa = 101
Fixed: Wavelength, nm = 546.1
Property: Refractive index (other wavelength) (Liquid); method: Standard Abbe refractometry
Temperature, K	Mole fraction of diisopropyl ether	Refractive index (other wavelength)	uncertainty
293.5	0	1.37892	0.00032
293.5	0.0277	1.3786	0.00032
293.5	0.0507	1.3785	0.00032
293.5	0.051	1.37859	0.00032
293.5	0.0717	1.37834	0.00032
293.5	0.1528	1.37779	0.00032
293.5	0.1553	1.37779	0.00032
293.5	0.1938	1.37747	0.00033
293.5	0.2029	1.3773	0.00033
293.5	0.245	1.37692	0.00033
293.5	0.2973	1.37687	0.00034
293.5	0.297	1.37666	0.00034
293.5	0.3068	1.37631	0.00034
293.5	0.398	1.37522	0.00035
293.5	0.4609	1.37466	0.00035
293.5	0.5434	1.37395	0.00036
293.5	0.6032	1.3734	0.00037
293.5	0.6371	1.37304	0.00038
293.5	0.701	1.37243	0.00039
293.5	0.754	1.37205	0.00039
293.5	0.791	1.37172	0.0004
293.5	0.8296	1.37135	0.00041
293.5	0.8864	1.37116	0.00042
293.5	0.8903	1.37076	0.00042
293.5	0.9113	1.37055	0.00042
293.5	0.9547	1.37015	0.00043
293.5	0.973	1.36984	0.00043
293.5	0.9771	1.36988	0.00043
293.5	1	1.36955	0.00044
298.15	0	1.37678	0.00032
298.15	0.0277	1.37648	0.00032
298.15	0.0507	1.37639	0.00032
298.15	0.051	1.37644	0.00032
298.15	0.0717	1.37618	0.00032
298.15	0.1528	1.37557	0.00032
298.15	0.1553	1.37557	0.00032
298.15	0.1938	1.3753	0.00033
298.15	0.2029	1.37502	0.00033
298.15	0.245	1.37462	0.00033
298.15	0.2973	1.37439	0.00034
298.15	0.297	1.37426	0.00034
298.15	0.3068	1.37394	0.00034
298.15	0.398	1.37278	0.00035
298.15	0.4609	1.37217	0.00035
298.15	0.5434	1.37135	0.00036
298.15	0.6032	1.3708	0.00037
298.15	0.6371	1.37042	0.00038
298.15	0.701	1.36978	0.00039
298.15	0.754	1.3694	0.00039
298.15	0.791	1.36903	0.0004
298.15	0.8296	1.36872	0.00041
298.15	0.8864	1.36847	0.00042
298.15	0.8903	1.36807	0.00042
298.15	0.9113	1.36785	0.00042
298.15	0.9547	1.36742	0.00043
298.15	0.973	1.3671	0.00043
298.15	0.9771	1.36704	0.00043
298.15	1	1.36683	0.00044
303.15	0	1.37453	0.00032
303.15	0.0277	1.37435	0.00032
303.15	0.0507	1.3743	0.00032
303.15	0.051	1.37423	0.00032
303.15	0.0717	1.37395	0.00032
303.15	0.1528	1.37331	0.00032
303.15	0.1553	1.37331	0.00032
303.15	0.1938	1.37303	0.00033
303.15	0.2029	1.37266	0.00033
303.15	0.245	1.37223	0.00033
303.15	0.2973	1.37184	0.00034
303.15	0.297	1.37163	0.00034
303.15	0.3068	1.37149	0.00034
303.15	0.398	1.37025	0.00035
303.15	0.4609	1.3696	0.00035
303.15	0.5434	1.36879	0.00036
303.15	0.6032	1.36815	0.00037
303.15	0.6371	1.36779	0.00038
303.15	0.701	1.36711	0.00039
303.15	0.754	1.36673	0.00039
303.15	0.791	1.36633	0.0004
303.15	0.8296	1.36599	0.00041
303.15	0.8864	1.36576	0.00042
303.15	0.8903	1.36533	0.00042
303.15	0.9113	1.36511	0.00042
303.15	0.9547	1.36465	0.00043
303.15	0.973	1.3643	0.00043
303.15	0.9771	1.36421	0.00043
303.15	1	1.36406	0.00043
308.15	0	1.3723	0.00032
308.15	0.0277	1.37214	0.00032
308.15	0.0507	1.37207	0.00032
308.15	0.051	1.37202	0.00032
308.15	0.0717	1.3717	0.00032
308.15	0.1528	1.371	0.00032
308.15	0.1553	1.371	0.00032
308.15	0.1938	1.37072	0.00033
308.15	0.2029	1.37028	0.00033
308.15	0.245	1.36984	0.00033
308.15	0.2973	1.36932	0.00034
308.15	0.297	1.36911	0.00034
308.15	0.3068	1.36857	0.00034
308.15	0.398	1.36775	0.00035
308.15	0.4609	1.36707	0.00035
308.15	0.5434	1.3662	0.00036
308.15	0.6032	1.3655	0.00037
308.15	0.6371	1.36515	0.00038
308.15	0.701	1.36441	0.00039
308.15	0.754	1.36401	0.00039
308.15	0.791	1.36358	0.0004
308.15	0.8296	1.36323	0.00041
308.15	0.8864	1.363	0.00042
308.15	0.8903	1.36256	0.00042
308.15	0.9113	1.36232	0.00042
308.15	0.9547	1.36187	0.00043
308.15	0.973	1.36152	0.00043
308.15	0.9771	1.36139	0.00043
308.15	1	1.36127	0.00043
313.15	0	1.37005	0.00032
313.15	0.0277	1.36987	0.00032
313.15	0.0507	1.3698	0.00032
313.15	0.051	1.36974	0.00032
313.15	0.0717	1.36939	0.00032
313.15	0.1528	1.36872	0.00032
313.15	0.1553	1.36872	0.00032
313.15	0.1938	1.36846	0.00033
313.15	0.2029	1.36791	0.00033
313.15	0.245	1.36743	0.00033
313.15	0.2973	1.36682	0.00034
313.15	0.297	1.36658	0.00034
313.15	0.3068	1.36655	0.00034
313.15	0.398	1.3652	0.00035
313.15	0.4609	1.36445	0.00035
313.15	0.5434	1.36354	0.00036
313.15	0.6032	1.36281	0.00037
313.15	0.6371	1.36243	0.00038
313.15	0.701	1.36168	0.00039
313.15	0.754	1.36126	0.00039
313.15	0.791	1.36084	0.0004
313.15	0.8296	1.36045	0.00041
313.15	0.8864	1.36035	0.00042
313.15	0.8903	1.35976	0.00042
313.15	0.9113	1.35952	0.00042
313.15	0.9547	1.35904	0.00043
313.15	0.973	1.35868	0.00043
313.15	0.9771	1.35856	0.00043
313.15	1	1.35842	0.00044
318.15	0	1.36782	0.00032
318.15	0.0277	1.36758	0.00032
318.15	0.0507	1.36752	0.00032
318.15	0.051	1.36745	0.00032
318.15	0.0717	1.36708	0.00032
318.15	0.1528	1.36641	0.00032
318.15	0.1553	1.36641	0.00032
318.15	0.1938	1.36618	0.00033
318.15	0.2029	1.36546	0.00033
318.15	0.245	1.36498	0.00033
318.15	0.2973	1.36427	0.00034
318.15	0.297	1.36402	0.00034
318.15	0.3068	1.36402	0.00034
318.15	0.398	1.36283	0.00034
318.15	0.4609	1.36184	0.00035
318.15	0.5434	1.36086	0.00036
318.15	0.6032	1.36011	0.00037
318.15	0.6371	1.35971	0.00038
318.15	0.701	1.35892	0.00039
318.15	0.754	1.35847	0.00039
318.15	0.791	1.35802	0.0004
318.15	0.8296	1.3576	0.00041
318.15	0.8864	1.35745	0.00042
318.15	0.8903	1.35689	0.00042
318.15	0.9113	1.35663	0.00042
318.15	0.9547	1.35618	0.00043
318.15	0.973	1.3558	0.00043
318.15	0.9771	1.35575	0.00043
318.15	1	1.35556	0.00044

System: propan-2-ol + diisopropyl ether; phases: Liquid
Fixed: Pressure, kPa = 101
Fixed: Wavelength, nm = 587.6
Property: Refractive index (other wavelength) (Liquid); method: Standard Abbe refractometry
Temperature, K	Mole fraction of diisopropyl ether	Refractive index (other wavelength)	uncertainty
293.5	0	1.37742	0.00032
293.5	0.0277	1.37708	0.00032
293.5	0.0507	1.37699	0.00032
293.5	0.051	1.37708	0.00032
293.5	0.0717	1.37683	0.00032
293.5	0.1528	1.37629	0.00032
293.5	0.1553	1.37629	0.00032
293.5	0.1938	1.37597	0.00033
293.5	0.2029	1.3758	0.00033
293.5	0.245	1.37541	0.00033
293.5	0.2973	1.37535	0.00034
293.5	0.297	1.37514	0.00034
293.5	0.3068	1.37481	0.00034
293.5	0.398	1.37371	0.00035
293.5	0.4609	1.37315	0.00035
293.5	0.5434	1.37246	0.00036
293.5	0.6032	1.37188	0.00037
293.5	0.6371	1.37152	0.00038
293.5	0.701	1.37093	0.00039
293.5	0.754	1.37055	0.00039
293.5	0.791	1.37022	0.0004
293.5	0.8296	1.36987	0.00041
293.5	0.8864	1.36966	0.00042
293.5	0.8903	1.36928	0.00042
293.5	0.9113	1.36905	0.00042
293.5	0.9547	1.36866	0.00043
293.5	0.973	1.36836	0.00043
293.5	0.9771	1.36839	0.00043
293.5	1	1.36806	0.00044
298.15	0	1.37527	0.00032
298.15	0.0277	1.37498	0.00032
298.15	0.0507	1.37488	0.00032
298.15	0.051	1.37491	0.00032
298.15	0.0717	1.37468	0.00032
298.15	0.1528	1.37406	0.00032
298.15	0.1553	1.37406	0.00032
298.15	0.1938	1.37379	0.00033
298.15	0.2029	1.37351	0.00033
298.15	0.245	1.37311	0.00033
298.15	0.2973	1.37289	0.00034
298.15	0.297	1.37265	0.00034
298.15	0.3068	1.37243	0.00034
298.15	0.398	1.37127	0.00035
298.15	0.4609	1.37067	0.00035
298.15	0.5434	1.36987	0.00036
298.15	0.6032	1.3693	0.00037
298.15	0.6371	1.36894	0.00038
298.15	0.701	1.36828	0.00039
298.15	0.754	1.36792	0.00039
298.15	0.791	1.36756	0.0004
298.15	0.8296	1.36723	0.00041
298.15	0.8864	1.367	0.00042
298.15	0.8903	1.36659	0.00042
298.15	0.9113	1.3667	0.00042
298.15	0.9547	1.36596	0.00043
298.15	0.973	1.3656	0.00043
298.15	0.9771	1.36557	0.00043
298.15	1	1.36535	0.00044
303.15	0	1.37304	0.00032
303.15	0.0277	1.37285	0.00032
303.15	0.0507	1.3728	0.00032
303.15	0.051	1.37273	0.00032
303.15	0.0717	1.37244	0.00032
303.15	0.1528	1.37181	0.00032
303.15	0.1553	1.37181	0.00032
303.15	0.1938	1.37153	0.00033
303.15	0.2029	1.37116	0.00033
303.15	0.245	1.37075	0.00033
303.15	0.2973	1.37036	0.00034
303.15	0.297	1.37013	0.00034
303.15	0.3068	1.37001	0.00034
303.15	0.398	1.36877	0.00035
303.15	0.4609	1.36818	0.00035
303.15	0.5434	1.36731	0.00036
303.15	0.6032	1.36667	0.00037
303.15	0.6371	1.36631	0.00038
303.15	0.701	1.36564	0.00039
303.15	0.754	1.36525	0.00039
303.15	0.791	1.36485	0.0004
303.15	0.8296	1.36453	0.00041
303.15	0.8864	1.3643	0.00042
303.15	0.8903	1.36386	0.00042
303.15	0.9113	1.36365	0.00042
303.15	0.9547	1.36319	0.00043
303.15	0.973	1.36285	0.00043
303.15	0.9771	1.36275	0.00043
303.15	1	1.3626	0.00043
308.15	0	1.3708	0.00032
308.15	0.0277	1.37065	0.00032
308.15	0.0507	1.37059	0.00032
308.15	0.051	1.37053	0.00032
308.15	0.0717	1.37072	0.00032
308.15	0.1528	1.36953	0.00032
308.15	0.1553	1.36953	0.00032
308.15	0.1938	1.36925	0.00033
308.15	0.2029	1.3688	0.00033
308.15	0.245	1.36837	0.00033
308.15	0.2973	1.36785	0.00034
308.15	0.297	1.36764	0.00034
308.15	0.3068	1.36754	0.00034
308.15	0.398	1.36628	0.00035
308.15	0.4609	1.3656	0.00035
308.15	0.5434	1.36473	0.00036
308.15	0.6032	1.36404	0.00037
308.15	0.6371	1.36369	0.00038
308.15	0.701	1.36297	0.00039
308.15	0.754	1.36256	0.00039
308.15	0.791	1.36215	0.0004
308.15	0.8296	1.36178	0.00041
308.15	0.8864	1.36156	0.00042
308.15	0.8903	1.36111	0.00042
308.15	0.9113	1.36088	0.00042
308.15	0.9547	1.36041	0.00043
308.15	0.973	1.36008	0.00043
308.15	0.9771	1.35994	0.00043
308.15	1	1.35975	0.00043
313.15	0	1.36857	0.00032
313.15	0.0277	1.3684	0.00032
313.15	0.0507	1.36833	0.00032
313.15	0.051	1.36828	0.00032
313.15	0.0717	1.36792	0.00032
313.15	0.1528	1.36724	0.00032
313.15	0.1553	1.36724	0.00032
313.15	0.1938	1.36699	0.00033
313.15	0.2029	1.36645	0.00033
313.15	0.245	1.36596	0.00033
313.15	0.2973	1.36535	0.00034
313.15	0.297	1.36512	0.00034
313.15	0.3068	1.36509	0.00034
313.15	0.398	1.36376	0.00035
313.15	0.4609	1.36302	0.00035
313.15	0.5434	1.36211	0.00036
313.15	0.6032	1.36136	0.00037
313.15	0.6371	1.36099	0.00038
313.15	0.701	1.36025	0.00039
313.15	0.754	1.35981	0.00039
313.15	0.791	1.35941	0.0004
313.15	0.8296	1.35902	0.00041
313.15	0.8864	1.3589	0.00042
313.15	0.8903	1.35833	0.00042
313.15	0.9113	1.35809	0.00042
313.15	0.9547	1.35761	0.00043
313.15	0.973	1.35727	0.00043
313.15	0.9771	1.35715	0.00043
313.15	1	1.357	0.00043
318.15	0	1.36635	0.00032
318.15	0.0277	1.36611	0.00032
318.15	0.0507	1.36604	0.00032
318.15	0.051	1.36598	0.00032
318.15	0.0717	1.36563	0.00032
318.15	0.1528	1.36495	0.00032
318.15	0.1553	1.36495	0.00032
318.15	0.1938	1.3647	0.00033
318.15	0.2029	1.36403	0.00033
318.15	0.245	1.36354	0.00033
318.15	0.2973	1.36283	0.00034
318.15	0.297	1.36259	0.00034
318.15	0.3068	1.3626	0.00034
318.15	0.398	1.36139	0.00034
318.15	0.4609	1.36044	0.00035
318.15	0.5434	1.35943	0.00036
318.15	0.6032	1.35865	0.00037
318.15	0.6371	1.35829	0.00038
318.15	0.701	1.35749	0.00039
318.15	0.754	1.35706	0.00039
318.15	0.791	1.35663	0.0004
318.15	0.8296	1.35619	0.00041
318.15	0.8864	1.35605	0.00042
318.15	0.8903	1.35548	0.00042
318.15	0.9113	1.35521	0.00042
318.15	0.9547	1.35475	0.00043
318.15	0.973	1.35439	0.00043
318.15	0.9771	1.35433	0.00043
318.15	1	1.35416	0.00044

System: propan-2-ol + diisopropyl ether; phases: Liquid
Fixed: Pressure, kPa = 101
Fixed: Wavelength, nm = 589.3
Property: Refractive index (other wavelength) (Liquid); method: Standard Abbe refractometry
Temperature, K	Mole fraction of diisopropyl ether	Refractive index (other wavelength)	uncertainty
293.5	0	1.37736	0.00032
293.5	0.0277	1.37703	0.00032
293.5	0.0507	1.37693	0.00032
293.5	0.051	1.37702	0.00032
293.5	0.0717	1.37678	0.00032
293.5	0.1528	1.37623	0.00032
293.5	0.1553	1.37623	0.00032
293.5	0.1938	1.37591	0.00033
293.5	0.2029	1.37574	0.00033
293.5	0.245	1.37536	0.00033
293.5	0.2973	1.3753	0.00034
293.5	0.297	1.37509	0.00034
293.5	0.3068	1.37475	0.00034
293.5	0.398	1.37366	0.00035
293.5	0.4609	1.3731	0.00035
293.5	0.5434	1.3724	0.00036
293.5	0.6032	1.37182	0.00037
293.5	0.6371	1.37146	0.00038
293.5	0.701	1.37087	0.00039
293.5	0.754	1.37049	0.00039
293.5	0.791	1.37016	0.0004
293.5	0.8296	1.36982	0.00041
293.5	0.8864	1.36961	0.00042
293.5	0.8903	1.36922	0.00042
293.5	0.9113	1.369	0.00042
293.5	0.9547	1.36861	0.00043
293.5	0.973	1.3683	0.00043
293.5	0.9771	1.36834	0.00043
293.5	1	1.36801	0.00044
298.15	0	1.37522	0.00032
298.15	0.0277	1.37492	0.00032
298.15	0.0507	1.37483	0.00032
298.15	0.051	1.37489	0.00032
298.15	0.0717	1.37462	0.00032
298.15	0.1528	1.37401	0.00032
298.15	0.1553	1.37401	0.00032
298.15	0.1938	1.37373	0.00033
298.15	0.2029	1.37346	0.00033
298.15	0.245	1.37306	0.00033
298.15	0.2973	1.37284	0.00034
298.15	0.297	1.37259	0.00034
298.15	0.3068	1.37238	0.00034
298.15	0.398	1.37122	0.00035
298.15	0.4609	1.37063	0.00035
298.15	0.5434	1.36981	0.00036
298.15	0.6032	1.36925	0.00037
298.15	0.6371	1.36889	0.00038
298.15	0.701	1.36823	0.00039
298.15	0.754	1.36786	0.00039
298.15	0.791	1.3675	0.0004
298.15	0.8296	1.36717	0.00041
298.15	0.8864	1.36695	0.00042
298.15	0.8903	1.36653	0.00042
298.15	0.9113	1.36631	0.00042
298.15	0.9547	1.36587	0.00043
298.15	0.973	1.36557	0.00043
298.15	0.9771	1.36551	0.00043
298.15	1	1.3653	0.00044
303.15	0	1.37299	0.00032
303.15	0.0277	1.37279	0.00032
303.15	0.0507	1.37274	0.00032
303.15	0.051	1.37268	0.00032
303.15	0.0717	1.37238	0.00032
303.15	0.1528	1.37176	0.00032
303.15	0.1553	1.37176	0.00032
303.15	0.1938	1.37147	0.00033
303.15	0.2029	1.37111	0.00033
303.15	0.245	1.37069	0.00033
303.15	0.2973	1.37031	0.00034
303.15	0.297	1.37008	0.00034
303.15	0.3068	1.36996	0.00034
303.15	0.398	1.36872	0.00035
303.15	0.4609	1.36807	0.00035
303.15	0.5434	1.36726	0.00036
303.15	0.6032	1.36661	0.00037
303.15	0.6371	1.36626	0.00038
303.15	0.701	1.36559	0.00039
303.15	0.754	1.36519	0.00039
303.15	0.791	1.3648	0.0004
303.15	0.8296	1.36447	0.00041
303.15	0.8864	1.36424	0.00042
303.15	0.8903	1.36381	0.00042
303.15	0.9113	1.3636	0.00042
303.15	0.9547	1.36314	0.00043
303.15	0.973	1.36279	0.00043
303.15	0.9771	1.3627	0.00043
303.15	1	1.36255	0.00043
308.15	0	1.37075	0.00032
308.15	0.0277	1.37059	0.00032
308.15	0.0507	1.37053	0.00032
308.15	0.051	1.37047	0.00032
308.15	0.0717	1.37014	0.00032
308.15	0.1528	1.36947	0.00032
308.15	0.1553	1.36947	0.00032
308.15	0.1938	1.36919	0.00033
308.15	0.2029	1.36875	0.00033
308.15	0.245	1.36832	0.00033
308.15	0.2973	1.3678	0.00034
308.15	0.297	1.36759	0.00034
308.15	0.3068	1.36751	0.00034
308.15	0.398	1.36623	0.00035
308.15	0.4609	1.36554	0.00035
308.15	0.5434	1.36467	0.00036
308.15	0.6032	1.36398	0.00037
308.15	0.6371	1.36363	0.00038
308.15	0.701	1.36292	0.00039
308.15	0.754	1.36251	0.00039
308.15	0.791	1.36209	0.0004
308.15	0.8296	1.36173	0.00041
308.15	0.8864	1.36151	0.00042
308.15	0.8903	1.36106	0.00042
308.15	0.9113	1.36082	0.00042
308.15	0.9547	1.36036	0.00043
308.15	0.973	1.36002	0.00043
308.15	0.9771	1.35989	0.00043
308.15	1	1.35983	0.00043
313.15	0	1.36852	0.00032
313.15	0.0277	1.36835	0.00032
313.15	0.0507	1.36828	0.00032
313.15	0.051	1.36822	0.00032
313.15	0.0717	1.36787	0.00032
313.15	0.1528	1.36718	0.00032
313.15	0.1553	1.36718	0.00032
313.15	0.1938	1.36694	0.00033
313.15	0.2029	1.3664	0.00033
313.15	0.245	1.36591	0.00033
313.15	0.2973	1.36529	0.00034
313.15	0.297	1.36507	0.00034
313.15	0.3068	1.36504	0.00034
313.15	0.398	1.3637	0.00035
313.15	0.4609	1.36297	0.00035
313.15	0.5434	1.36206	0.00036
313.15	0.6032	1.3613	0.00037
313.15	0.6371	1.36094	0.00038
313.15	0.701	1.36019	0.00039
313.15	0.754	1.35976	0.00039
313.15	0.791	1.35936	0.0004
313.15	0.8296	1.35897	0.00041
313.15	0.8864	1.35885	0.00042
313.15	0.8903	1.35827	0.00042
313.15	0.9113	1.35802	0.00042
313.15	0.9547	1.35756	0.00043
313.15	0.973	1.35722	0.00043
313.15	0.9771	1.3571	0.00043
313.15	1	1.35694	0.00044
318.15	0	1.36629	0.00032
318.15	0.0277	1.36605	0.00032
318.15	0.0507	1.36598	0.00032
318.15	0.051	1.36592	0.00032
318.15	0.0717	1.36557	0.00032
318.15	0.1528	1.36489	0.00032
318.15	0.1553	1.36489	0.00032
318.15	0.1938	1.36465	0.00033
318.15	0.2029	1.36398	0.00033
318.15	0.245	1.36348	0.00033
318.15	0.2973	1.36278	0.00034
318.15	0.297	1.36254	0.00034
318.15	0.3068	1.36255	0.00034
318.15	0.398	1.36134	0.00034
318.15	0.4609	1.36036	0.00035
318.15	0.5434	1.35938	0.00036
318.15	0.6032	1.3586	0.00037
318.15	0.6371	1.35824	0.00038
318.15	0.701	1.35743	0.00039
318.15	0.754	1.357	0.00039
318.15	0.791	1.35658	0.0004
318.15	0.8296	1.35614	0.00041
318.15	0.8864	1.35599	0.00042
318.15	0.8903	1.35543	0.00042
318.15	0.9113	1.35515	0.00042
318.15	0.9547	1.35469	0.00043
318.15	0.973	1.35433	0.00043
318.15	0.9771	1.35427	0.00043
318.15	1	1.35411	0.00044

System: propan-2-ol + diisopropyl ether; phases: Liquid
Fixed: Pressure, kPa = 101
Fixed: Wavelength, nm = 632.8
Property: Refractive index (other wavelength) (Liquid); method: Standard Abbe refractometry
Temperature, K	Mole fraction of diisopropyl ether	Refractive index (other wavelength)	uncertainty
293.5	0	1.37605	0.00032
293.5	0.0277	1.37572	0.00032
293.5	0.0507	1.37562	0.00032
293.5	0.051	1.3757	0.00032
293.5	0.0717	1.37545	0.00032
293.5	0.1528	1.37492	0.00032
293.5	0.1553	1.37492	0.00032
293.5	0.1938	1.37461	0.00033
293.5	0.2029	1.37443	0.00033
293.5	0.245	1.37405	0.00033
293.5	0.2973	1.374	0.00034
293.5	0.297	1.37378	0.00034
293.5	0.3068	1.37345	0.00034
293.5	0.398	1.37236	0.00035
293.5	0.4609	1.3718	0.00035
293.5	0.5434	1.37111	0.00036
293.5	0.6032	1.37052	0.00037
293.5	0.6371	1.37017	0.00038
293.5	0.701	1.36958	0.00039
293.5	0.754	1.3692	0.00039
293.5	0.791	1.36887	0.0004
293.5	0.8296	1.36854	0.00041
293.5	0.8864	1.36832	0.00042
293.5	0.8903	1.36795	0.00042
293.5	0.9113	1.36771	0.00042
293.5	0.9547	1.36732	0.00043
293.5	0.973	1.36703	0.00043
293.5	0.9771	1.36706	0.00043
293.5	1	1.36674	0.00044
298.15	0	1.37392	0.00032
298.15	0.0277	1.3736	0.00032
298.15	0.0507	1.37352	0.00032
298.15	0.051	1.37358	0.00032
298.15	0.0717	1.37331	0.00032
298.15	0.1528	1.3727	0.00032
298.15	0.1553	1.3727	0.00032
298.15	0.1938	1.37243	0.00033
298.15	0.2029	1.37215	0.00033
298.15	0.245	1.37177	0.00033
298.15	0.2973	1.37156	0.00034
298.15	0.297	1.3713	0.00034
298.15	0.3068	1.37108	0.00034
298.15	0.398	1.36993	0.00035
298.15	0.4609	1.36933	0.00035
298.15	0.5434	1.36853	0.00036
298.15	0.6032	1.36797	0.00037
298.15	0.6371	1.36762	0.00038
298.15	0.701	1.36695	0.00039
298.15	0.754	1.36659	0.00039
298.15	0.791	1.36623	0.0004
298.15	0.8296	1.36589	0.00041
298.15	0.8864	1.36567	0.00042
298.15	0.8903	1.36526	0.00042
298.15	0.9113	1.36504	0.00042
298.15	0.9547	1.36459	0.00043
298.15	0.973	1.3643	0.00043
298.15	0.9771	1.36423	0.00043
298.15	1	1.36402	0.00043
303.15	0	1.3717	0.00032
303.15	0.0277	1.37149	0.00032
303.15	0.0507	1.37145	0.00032
303.15	0.051	1.37138	0.00032
303.15	0.0717	1.37109	0.00032
303.15	0.1528	1.37047	0.00032
303.15	0.1553	1.37047	0.00032
303.15	0.1938	1.37018	0.00033
303.15	0.2029	1.36981	0.00033
303.15	0.245	1.36941	0.00033
303.15	0.2973	1.36902	0.00034
303.15	0.297	1.3688	0.00034
303.15	0.3068	1.36867	0.00034
303.15	0.398	1.36744	0.00035
303.15	0.4609	1.3668	0.00035
303.15	0.5434	1.36598	0.00036
303.15	0.6032	1.36533	0.00037
303.15	0.6371	1.36497	0.00038
303.15	0.701	1.36431	0.00039
303.15	0.754	1.36391	0.00039
303.15	0.791	1.36352	0.0004
303.15	0.8296	1.3632	0.00041
303.15	0.8864	1.36297	0.00042
303.15	0.8903	1.36254	0.00042
303.15	0.9113	1.36233	0.00042
303.15	0.9547	1.36187	0.00043
303.15	0.973	1.36153	0.00043
303.15	0.9771	1.36145	0.00043
303.15	1	1.3613	0.00043
308.15	0	1.36946	0.00032
308.15	0.0277	1.36929	0.00032
308.15	0.0507	1.36924	0.00032
308.15	0.051	1.36917	0.00032
308.15	0.0717	1.36886	0.00032
308.15	0.1528	1.3682	0.00032
308.15	0.1553	1.3682	0.00032
308.15	0.1938	1.36792	0.00033
308.15	0.2029	1.36748	0.00033
308.15	0.245	1.36706	0.00033
308.15	0.2973	1.36653	0.00034
308.15	0.297	1.36631	0.00034
308.15	0.3068	1.36624	0.00034
308.15	0.398	1.36496	0.00035
308.15	0.4609	1.36427	0.00035
308.15	0.5434	1.36338	0.00036
308.15	0.6032	1.36271	0.00037
308.15	0.6371	1.36235	0.00038
308.15	0.701	1.36166	0.00039
308.15	0.754	1.36125	0.00039
308.15	0.791	1.36085	0.0004
308.15	0.8296	1.36048	0.00041
308.15	0.8864	1.36026	0.00042
308.15	0.8903	1.35981	0.00042
308.15	0.9113	1.35957	0.00042
308.15	0.9547	1.3591	0.00043
308.15	0.973	1.35877	0.00043
308.15	0.9771	1.35864	0.00043
308.15	1	1.35853	0.00043
313.15	0	1.36726	0.00032
313.15	0.0277	1.36708	0.00032
313.15	0.0507	1.367	0.00032
313.15	0.051	1.36696	0.00032
313.15	0.0717	1.36659	0.00032
313.15	0.1528	1.3659	0.00032
313.15	0.1553	1.3659	0.00032
313.15	0.1938	1.36566	0.00033
313.15	0.2029	1.36512	0.00033
313.15	0.245	1.36465	0.00033
313.15	0.2973	1.36401	0.00034
313.15	0.297	1.36381	0.00034
313.15	0.3068	1.36377	0.00034
313.15	0.398	1.36244	0.00035
313.15	0.4609	1.36172	0.00035
313.15	0.5434	1.36081	0.00036
313.15	0.6032	1.36007	0.00037
313.15	0.6371	1.3597	0.00038
313.15	0.701	1.35895	0.00039
313.15	0.754	1.35851	0.00039
313.15	0.791	1.35812	0.0004
313.15	0.8296	1.35772	0.00041
313.15	0.8864	1.35758	0.00042
313.15	0.8903	1.35704	0.00042
313.15	0.9113	1.35679	0.00042
313.15	0.9547	1.35631	0.00043
313.15	0.973	1.35599	0.00043
313.15	0.9771	1.35587	0.00043
313.15	1	1.35572	0.00043
318.15	0	1.36502	0.00032
318.15	0.0277	1.36479	0.00032
318.15	0.0507	1.36472	0.00032
318.15	0.051	1.36464	0.00032
318.15	0.0717	1.36428	0.00032
318.15	0.1528	1.36364	0.00032
318.15	0.1553	1.36364	0.00032
318.15	0.1938	1.36338	0.00033
318.15	0.2029	1.36273	0.00033
318.15	0.245	1.36223	0.00033
318.15	0.2973	1.36153	0.00034
318.15	0.297	1.36131	0.00034
318.15	0.3068	1.36129	0.00034
318.15	0.398	1.36008	0.00034
318.15	0.4609	1.35912	0.00035
318.15	0.5434	1.35814	0.00036
318.15	0.6032	1.35735	0.00037
318.15	0.6371	1.35701	0.00038
318.15	0.701	1.35619	0.00039
318.15	0.754	1.35577	0.00039
318.15	0.791	1.35537	0.0004
318.15	0.8296	1.35491	0.00041
318.15	0.8864	1.35478	0.00042
318.15	0.8903	1.35421	0.00042
318.15	0.9113	1.35395	0.00042
318.15	0.9547	1.35346	0.00043
318.15	0.973	1.35311	0.00043
318.15	0.9771	1.35304	0.00043
318.15	1	1.3529	0.00043

System: propan-2-ol + diisopropyl ether; phases: Liquid
Fixed: Pressure, kPa = 101
Fixed: Wavelength, nm = 644
Property: Refractive index (other wavelength) (Liquid); method: Standard Abbe refractometry
Temperature, K	Mole fraction of diisopropyl ether	Refractive index (other wavelength)	uncertainty
293.5	0	1.37574	0.00032
293.5	0.0277	1.37541	0.00032
293.5	0.0507	1.37531	0.00032
293.5	0.051	1.37539	0.00032
293.5	0.0717	1.37515	0.00032
293.5	0.1528	1.37461	0.00032
293.5	0.1553	1.37461	0.00032
293.5	0.1938	1.3743	0.00033
293.5	0.2029	1.37411	0.00033
293.5	0.245	1.37374	0.00033
293.5	0.2973	1.3737	0.00034
293.5	0.297	1.37347	0.00034
293.5	0.3068	1.37314	0.00034
293.5	0.398	1.37206	0.00035
293.5	0.4609	1.3715	0.00035
293.5	0.5434	1.37078	0.00036
293.5	0.6032	1.37023	0.00037
293.5	0.6371	1.36988	0.00038
293.5	0.701	1.36928	0.00039
293.5	0.754	1.36891	0.00039
293.5	0.791	1.36857	0.0004
293.5	0.8296	1.36824	0.00041
293.5	0.8864	1.36802	0.00042
293.5	0.8903	1.36765	0.00042
293.5	0.9113	1.36741	0.00042
293.5	0.9547	1.36702	0.00043
293.5	0.973	1.36673	0.00043
293.5	0.9771	1.36675	0.00043
293.5	1	1.36644	0.00044
298.15	0	1.37361	0.00032
298.15	0.0277	1.37329	0.00032
298.15	0.0507	1.37322	0.00032
298.15	0.051	1.37327	0.00032
298.15	0.0717	1.373	0.00032
298.15	0.1528	1.3724	0.00032
298.15	0.1553	1.3724	0.00032
298.15	0.1938	1.37213	0.00033
298.15	0.2029	1.37185	0.00033
298.15	0.245	1.37147	0.00033
298.15	0.2973	1.37126	0.00034
298.15	0.297	1.371	0.00034
298.15	0.3068	1.37078	0.00034
298.15	0.398	1.36964	0.00035
298.15	0.4609	1.36903	0.00035
298.15	0.5434	1.36823	0.00036
298.15	0.6032	1.36767	0.00037
298.15	0.6371	1.36731	0.00038
298.15	0.701	1.36666	0.00039
298.15	0.754	1.36629	0.00039
298.15	0.791	1.36593	0.0004
298.15	0.8296	1.36559	0.00041
298.15	0.8864	1.36537	0.00042
298.15	0.8903	1.36497	0.00042
298.15	0.9113	1.36475	0.00042
298.15	0.9547	1.3643	0.00043
298.15	0.973	1.364	0.00043
298.15	0.9771	1.36393	0.00043
298.15	1	1.36373	0.00043
303.15	0	1.3714	0.00032
303.15	0.0277	1.37119	0.00032
303.15	0.0507	1.37115	0.00032
303.15	0.051	1.37107	0.00032
303.15	0.0717	1.37079	0.00032
303.15	0.1528	1.37018	0.00032
303.15	0.1553	1.37018	0.00032
303.15	0.1938	1.36988	0.00033
303.15	0.2029	1.36952	0.00033
303.15	0.245	1.36911	0.00033
303.15	0.2973	1.36872	0.00034
303.15	0.297	1.3685	0.00034
303.15	0.3068	1.36837	0.00034
303.15	0.398	1.36715	0.00035
303.15	0.4609	1.3665	0.00035
303.15	0.5434	1.36567	0.00036
303.15	0.6032	1.36504	0.00037
303.15	0.6371	1.36466	0.00038
303.15	0.701	1.36401	0.00039
303.15	0.754	1.36362	0.00039
303.15	0.791	1.36323	0.0004
303.15	0.8296	1.3629	0.00041
303.15	0.8864	1.36267	0.00042
303.15	0.8903	1.36225	0.00042
303.15	0.9113	1.36203	0.00042
303.15	0.9547	1.36157	0.00043
303.15	0.973	1.36123	0.00043
303.15	0.9771	1.36115	0.00043
303.15	1	1.361	0.00043
308.15	0	1.36917	0.00032
308.15	0.0277	1.36899	0.00032
308.15	0.0507	1.36894	0.00032
308.15	0.051	1.36887	0.00032
308.15	0.0717	1.36856	0.00032
308.15	0.1528	1.3679	0.00032
308.15	0.1553	1.3679	0.00032
308.15	0.1938	1.36761	0.00033
308.15	0.2029	1.36718	0.00033
308.15	0.245	1.36676	0.00033
308.15	0.2973	1.36623	0.00034
308.15	0.297	1.36601	0.00034
308.15	0.3068	1.36594	0.00034
308.15	0.398	1.36466	0.00035
308.15	0.4609	1.36397	0.00035
308.15	0.5434	1.36309	0.00036
308.15	0.6032	1.36241	0.00037
308.15	0.6371	1.36205	0.00038
308.15	0.701	1.36135	0.00039
308.15	0.754	1.36096	0.00039
308.15	0.791	1.36054	0.0004
308.15	0.8296	1.36018	0.00041
308.15	0.8864	1.35996	0.00042
308.15	0.8903	1.35952	0.00042
308.15	0.9113	1.35928	0.00042
308.15	0.9547	1.3588	0.00043
308.15	0.973	1.35847	0.00043
308.15	0.9771	1.35835	0.00043
308.15	1	1.35823	0.00043
313.15	0	1.36696	0.00032
313.15	0.0277	1.36678	0.00032
313.15	0.0507	1.3667	0.00032
313.15	0.051	1.36665	0.00032
313.15	0.0717	1.36629	0.00032
313.15	0.1528	1.36561	0.00032
313.15	0.1553	1.36561	0.00032
313.15	0.1938	1.36537	0.00033
313.15	0.2029	1.36482	0.00033
313.15	0.245	1.36436	0.00033
313.15	0.2973	1.36372	0.00034
313.15	0.297	1.36351	0.00034
313.15	0.3068	1.36347	0.00034
313.15	0.398	1.36213	0.00035
313.15	0.4609	1.36142	0.00035
313.15	0.5434	1.36051	0.00036
313.15	0.6032	1.35977	0.00037
313.15	0.6371	1.3594	0.00038
313.15	0.701	1.35865	0.00039
313.15	0.754	1.35821	0.00039
313.15	0.791	1.35782	0.0004
313.15	0.8296	1.35742	0.00041
313.15	0.8864	1.35729	0.00042
313.15	0.8903	1.35674	0.00042
313.15	0.9113	1.3565	0.00042
313.15	0.9547	1.35601	0.00043
313.15	0.973	1.3557	0.00043
313.15	0.9771	1.35587	0.00043
313.15	1	1.35543	0.00043
318.15	0	1.36473	0.00032
318.15	0.0277	1.36448	0.00032
318.15	0.0507	1.36443	0.00032
318.15	0.051	1.36435	0.00032
318.15	0.0717	1.36398	0.00032
318.15	0.1528	1.36335	0.00032
318.15	0.1553	1.36335	0.00032
318.15	0.1938	1.36309	0.00033
318.15	0.2029	1.36243	0.00033
318.15	0.245	1.36194	0.00033
318.15	0.2973	1.36123	0.00034
318.15	0.297	1.36101	0.00034
318.15	0.3068	1.36098	0.00034
318.15	0.398	1.35978	0.00034
318.15	0.4609	1.35883	0.00035
318.15	0.5434	1.35784	0.00036
318.15	0.6032	1.35707	0.00037
318.15	0.6371	1.35671	0.00038
318.15	0.701	1.35591	0.00039
318.15	0.754	1.35547	0.00039
318.15	0.791	1.35507	0.0004
318.15	0.8296	1.35461	0.00041
318.15	0.8864	1.35448	0.00042
318.15	0.8903	1.35391	0.00042
318.15	0.9113	1.35366	0.00042
318.15	0.9547	1.35317	0.00043
318.15	0.973	1.35281	0.00043
318.15	0.9771	1.35276	0.00043
318.15	1	1.35259	0.00044

System: propan-2-ol + diisopropyl ether; phases: Liquid
Fixed: Pressure, kPa = 101
Fixed: Wavelength, nm = 706.5
Property: Refractive index (other wavelength) (Liquid); method: Standard Abbe refractometry
Temperature, K	Mole fraction of diisopropyl ether	Refractive index (other wavelength)	uncertainty
293.5	0	1.37424	0.00032
293.5	0.0277	1.37391	0.00032
293.5	0.0507	1.37381	0.00032
293.5	0.051	1.37389	0.00032
293.5	0.0717	1.37366	0.00032
293.5	0.1528	1.37313	0.00032
293.5	0.1553	1.37313	0.00032
293.5	0.1938	1.37281	0.00033
293.5	0.2029	1.37263	0.00033
293.5	0.245	1.37227	0.00033
293.5	0.2973	1.37222	0.00034
293.5	0.297	1.372	0.00034
293.5	0.3068	1.37167	0.00034
293.5	0.398	1.37061	0.00035
293.5	0.4609	1.37005	0.00035
293.5	0.5434	1.36934	0.00036
293.5	0.6032	1.36879	0.00037
293.5	0.6371	1.36844	0.00038
293.5	0.701	1.36784	0.00039
293.5	0.754	1.36746	0.00039
293.5	0.791	1.36713	0.0004
293.5	0.8296	1.3668	0.00041
293.5	0.8864	1.36658	0.00042
293.5	0.8903	1.3662	0.00042
293.5	0.9113	1.36598	0.00042
293.5	0.9547	1.36559	0.00043
293.5	0.973	1.36529	0.00043
293.5	0.9771	1.36532	0.00043
293.5	1	1.36501	0.00044
298.15	0	1.37214	0.00032
298.15	0.0277	1.37183	0.00032
298.15	0.0507	1.37174	0.00032
298.15	0.051	1.37179	0.00032
298.15	0.0717	1.37152	0.00032
298.15	0.1528	1.37093	0.00032
298.15	0.1553	1.37093	0.00032
298.15	0.1938	1.37068	0.00033
298.15	0.2029	1.37039	0.00033
298.15	0.245	1.37002	0.00033
298.15	0.2973	1.3698	0.00034
298.15	0.297	1.36955	0.00034
298.15	0.3068	1.36933	0.00034
298.15	0.398	1.36819	0.00035
298.15	0.4609	1.36758	0.00035
298.15	0.5434	1.36678	0.00036
298.15	0.6032	1.36623	0.00037
298.15	0.6371	1.36587	0.00038
298.15	0.701	1.36523	0.00039
298.15	0.754	1.36485	0.00039
298.15	0.791	1.3645	0.0004
298.15	0.8296	1.36417	0.00041
298.15	0.8864	1.36394	0.00042
298.15	0.8903	1.36354	0.00042
298.15	0.9113	1.36332	0.00042
298.15	0.9547	1.36289	0.00043
298.15	0.973	1.36258	0.00043
298.15	0.9771	1.36281	0.00043
298.15	1	1.36237	0.00043
303.15	0	1.36993	0.00032
303.15	0.0277	1.36973	0.00032
303.15	0.0507	1.36969	0.00032
303.15	0.051	1.36962	0.00032
303.15	0.0717	1.36934	0.00032
303.15	0.1528	1.36872	0.00032
303.15	0.1553	1.36872	0.00032
303.15	0.1938	1.36843	0.00033
303.15	0.2029	1.36807	0.00033
303.15	0.245	1.36767	0.00033
303.15	0.2973	1.36727	0.00034
303.15	0.297	1.36705	0.00034
303.15	0.3068	1.36692	0.00034
303.15	0.398	1.3657	0.00035
303.15	0.4609	1.36501	0.00035
303.15	0.5434	1.36425	0.00036
303.15	0.6032	1.36362	0.00037
303.15	0.6371	1.36326	0.00038
303.15	0.701	1.36259	0.00039
303.15	0.754	1.36221	0.00039
303.15	0.791	1.36182	0.0004
303.15	0.8296	1.36148	0.00041
303.15	0.8864	1.36126	0.00042
303.15	0.8903	1.36083	0.00042
303.15	0.9113	1.36061	0.00042
303.15	0.9547	1.36016	0.00043
303.15	0.973	1.35983	0.00043
303.15	0.9771	1.35972	0.00043
303.15	1	1.3596	0.00043
308.15	0	1.36772	0.00032
308.15	0.0277	1.36755	0.00032
308.15	0.0507	1.36748	0.00032
308.15	0.051	1.36742	0.00032
308.15	0.0717	1.36711	0.00032
308.15	0.1528	1.36646	0.00032
308.15	0.1553	1.36646	0.00032
308.15	0.1938	1.36617	0.00033
308.15	0.2029	1.36573	0.00033
308.15	0.245	1.36532	0.00033
308.15	0.2973	1.3648	0.00034
308.15	0.297	1.36457	0.00034
308.15	0.3068	1.36451	0.00034
308.15	0.398	1.36323	0.00035
308.15	0.4609	1.36254	0.00035
308.15	0.5434	1.36168	0.00036
308.15	0.6032	1.361	0.00037
308.15	0.6371	1.36064	0.00038
308.15	0.701	1.35993	0.00039
308.15	0.754	1.35954	0.00039
308.15	0.791	1.35911	0.0004
308.15	0.8296	1.35877	0.00041
308.15	0.8864	1.35855	0.00042
308.15	0.8903	1.3581	0.00042
308.15	0.9113	1.35786	0.00042
308.15	0.9547	1.35741	0.00043
308.15	0.973	1.35707	0.00043
308.15	0.9771	1.35694	0.00043
308.15	1	1.35683	0.00043
313.15	0	1.36551	0.00032
313.15	0.0277	1.36533	0.00032
313.15	0.0507	1.36524	0.00032
313.15	0.051	1.3652	0.00032
313.15	0.0717	1.36485	0.00032
313.15	0.1528	1.36418	0.00032
313.15	0.1553	1.36418	0.00032
313.15	0.1938	1.36394	0.00033
313.15	0.2029	1.36337	0.00033
313.15	0.245	1.36294	0.00033
313.15	0.2973	1.3623	0.00034
313.15	0.297	1.36209	0.00034
313.15	0.3068	1.36204	0.00034
313.15	0.398	1.36071	0.00034
313.15	0.4609	1.35999	0.00035
313.15	0.5434	1.35908	0.00036
313.15	0.6032	1.35834	0.00037
313.15	0.6371	1.358	0.00038
313.15	0.701	1.35723	0.00039
313.15	0.754	1.35681	0.00039
313.15	0.791	1.35641	0.0004
313.15	0.8296	1.35602	0.00041
313.15	0.8864	1.35589	0.00042
313.15	0.8903	1.35534	0.00042
313.15	0.9113	1.3551	0.00042
313.15	0.9547	1.3546	0.00043
313.15	0.973	1.35426	0.00043
313.15	0.9771	1.35416	0.00043
313.15	1	1.35401	0.00043
318.15	0	1.36329	0.00032
318.15	0.0277	1.36305	0.00032
318.15	0.0507	1.363	0.00032
318.15	0.051	1.36292	0.00032
318.15	0.0717	1.36256	0.00032
318.15	0.1528	1.3619	0.00032
318.15	0.1553	1.3619	0.00032
318.15	0.1938	1.36166	0.00033
318.15	0.2029	1.361	0.00033
318.15	0.245	1.36053	0.00033
318.15	0.2973	1.35982	0.00034
318.15	0.297	1.35958	0.00034
318.15	0.3068	1.35954	0.00034
318.15	0.398	1.35836	0.00034
318.15	0.4609	1.3574	0.00035
318.15	0.5434	1.35643	0.00036
318.15	0.6032	1.35568	0.00037
318.15	0.6371	1.35531	0.00038
318.15	0.701	1.35452	0.00038
318.15	0.754	1.35407	0.00039
318.15	0.791	1.35364	0.0004
318.15	0.8296	1.3532	0.00041
318.15	0.8864	1.35309	0.00042
318.15	0.8903	1.35251	0.00042
318.15	0.9113	1.35225	0.00042
318.15	0.9547	1.3518	0.00043
318.15	0.973	1.35143	0.00043
318.15	0.9771	1.35139	0.00043
318.15	1	1.3512	0.00043

System: methanol + diisopropyl ether; phases: Liquid, Gas
Property: Boiling temperature at pressure P, K (Liquid); method: Ebulliometric method (Recirculating still)
Pressure, kPa	Mole fraction of methanol	Boiling temperature at pressure P, K	uncertainty
53.33	0	322.92	0.39
53.33	0.042	318.72	0.95
53.33	0.082	315.65	0.63
53.33	0.117	314.85	0.42
53.33	0.183	313.85	0.37
53.33	0.251	313.02	0.33
53.33	0.33	312.8	0.32
53.33	0.358	313.15	0.34
53.33	0.429	312.95	0.32
53.33	0.522	313.37	0.33
53.33	0.554	313.75	0.33
53.33	0.653	313.8	0.32
53.33	0.7	313.43	0.29
53.33	0.75	313.75	0.33
53.33	0.807	313.58	0.31
53.33	0.873	313.65	0.36
53.33	0.9	313.85	0.65
53.33	0.953	317.79	0.86
53.33	0.977	320.22	1.19
53.33	0.989	321.96	0.92
53.33	1	322.2	0.32
66.67	0	329.1	0.44
66.67	0.05	323.65	0.82
66.67	0.117	321.02	0.51
66.67	0.183	319.45	0.44
66.67	0.251	318.3	0.4
66.67	0.33	318.15	0.4
66.67	0.358	318.37	0.37
66.67	0.4	318.15	0.4
66.67	0.429	318.18	0.41
66.67	0.45	318.97	0.41
66.67	0.522	318.7	0.37
66.67	0.554	318.9	0.39
66.67	0.609	318.41	0.37
66.67	0.653	318.8	0.38
66.67	0.7	318.31	0.39
66.67	0.75	318.84	0.4
66.67	0.804	318.71	0.39
66.67	0.825	318.85	0.4
66.67	0.873	319.56	0.43
66.67	0.9	320.15	0.57
66.67	0.923	321.85	0.78
66.67	0.953	322.7	0.82
66.67	0.977	326.27	1
66.67	1	327.4	0.37
79.99	0	334.35	0.45
79.99	0.117	325.13	0.74
79.99	0.183	323.95	0.43
79.99	0.251	323.12	0.49
79.99	0.33	323.09	0.41
79.99	0.358	322.83	0.41
79.99	0.4	323.33	0.46
79.99	0.429	323	0.4
79.99	0.45	323.72	0.39
79.99	0.522	322.97	0.39
79.99	0.566	323.72	0.38
79.99	0.609	323.39	0.4
79.99	0.653	323.68	0.39
79.99	0.7	323.55	0.43
79.99	0.75	324.09	0.4
79.99	0.837	323.82	0.38
79.99	0.873	324.14	0.38
79.99	0.9	323.79	0.4
79.99	0.953	325.39	0.9
79.99	1	331.8	0.37
94.79	0	339.4	0.49
94.79	0.117	330.64	0.89
94.79	0.183	328.6	0.55
94.79	0.251	329.59	0.54
94.79	0.33	327.63	0.54
94.79	0.4	328.65	0.44
94.79	0.429	327.38	0.5
94.79	0.45	327.98	0.39
94.79	0.522	327.64	0.47
94.79	0.609	327.73	0.42
94.79	0.653	327.75	0.41
94.79	0.75	328.22	0.37
94.79	0.837	327.7	0.41
94.79	0.873	328.29	0.4
94.79	0.9	328.27	0.74
94.79	0.925	331.06	0.91
94.79	0.989	335.42	0.65
94.79	1	335.98	0.41

System: methanol + diisopropyl ether; phases: Liquid, Gas
Property: Azeotropic temperature, K (Liquid); method: By X=Y
Pressure, kPa	Azeotropic temperature, K	uncertainty
53.33	313.15	0.3
66.67	318.85	0.3
79.99	322.95	0.3
98.49	327.6	0.3

System: methanol + diisopropyl ether; phases: Liquid, Gas
Property: Azeotropic composition: mole fraction of diisopropyl ether (Liquid); method: By X=Y
Pressure, kPa	Azeotropic composition: mole fraction of diisopropyl ether	uncertainty
53.33	0.476	0.007
66.67	0.481	0.007
79.99	0.5225	0.0067
98.49	0.545	0.006

System: methanol + diisopropyl ether; phases: Liquid
Fixed: Pressure, kPa = 101
Property: Mass density, kg/m3 (Liquid); method: mechanical oscillator
Temperature, K	Mole fraction of methanol	Mass density, kg/m3	uncertainty
293.15	0	723.86	0.3
293.15	0.0423	725.34	0.29
293.15	0.0424	725.34	0.29
293.15	0.082	727.36	0.28
293.15	0.0822	727.37	0.28
293.15	0.1171	729.04	0.27
293.15	0.1271	729.5	0.27
293.15	0.1827	731.99	0.26
293.15	0.2162	733.44	0.25
293.15	0.251	734.94	0.25
293.15	0.3298	738.41	0.24
293.15	0.3577	739.69	0.23
293.15	0.4525	744.38	0.23
293.15	0.522	748.28	0.22
293.15	0.5543	750.25	0.22
293.15	0.609	753.85	0.22
293.15	0.6529	756.99	0.22
293.15	0.7504	764.78	0.22
293.15	0.804	769.56	0.22
293.15	0.807	769.84	0.22
293.15	0.8727	776.23	0.22
293.15	0.9253	781.7	0.21
293.15	0.9527	784.68	0.21
293.15	0.9773	787.42	0.21
293.15	1	791.62	0.21
298.15	0	718.3	0.3
298.15	0.0423	720.12	0.29
298.15	0.0424	720.13	0.29
298.15	0.082	722.06	0.28
298.15	0.0822	722.07	0.28
298.15	0.1171	723.73	0.27
298.15	0.1271	724.19	0.27
298.15	0.1827	726.76	0.26
298.15	0.2162	728.28	0.25
298.15	0.251	729.84	0.25
298.15	0.3298	733.39	0.24
298.15	0.4525	739.19	0.23
298.15	0.5543	744.6	0.22
298.15	0.609	747.88	0.22
298.15	0.6529	750.75	0.22
298.15	0.7504	758.11	0.22
298.15	0.804	762.86	0.21
298.15	0.807	763.14	0.22
298.15	0.8727	769.84	0.21
298.15	0.9253	775.96	0.21
298.15	0.9527	779.45	0.21
298.15	0.9773	782.77	0.21
298.15	0.989	784.41	0.21
298.15	1	786.62	0.21
303.15	0	712.68	0.3
303.15	0.0424	714.26	0.29
303.15	0.082	716.26	0.28
303.15	0.0822	716.27	0.28
303.15	0.1171	717.96	0.27
303.15	0.1271	718.43	0.27
303.15	0.1827	720.98	0.26
303.15	0.2162	722.47	0.25
303.15	0.251	723.99	0.25
303.15	0.3298	727.46	0.24
303.15	0.3577	728.71	0.24
303.15	0.445	733.04	0.23
303.15	0.4525	733.18	0.23
303.15	0.522	736.82	0.22
303.15	0.5543	738.65	0.22
303.15	0.609	742.01	0.22
303.15	0.6529	744.97	0.22
303.15	0.7504	752.58	0.21
303.15	0.804	757.48	0.21
303.15	0.807	757.78	0.21
303.15	0.8727	764.66	0.21
303.15	0.9253	770.89	0.21
303.15	0.9527	774.42	0.21
303.15	0.9773	777.76	0.21
303.15	0.989	779.41	0.21
303.15	1	781.54	0.21
308.15	0	707.06	0.29
308.15	0.0423	708.61	0.28
308.15	0.0424	708.63	0.28
308.15	0.082	710.51	0.28
308.15	0.0822	710.52	0.28
308.15	0.1171	712.26	0.27
308.15	0.1271	712.74	0.27
308.15	0.1827	715.35	0.26
308.15	0.2162	716.86	0.25
308.15	0.251	718.4	0.25
308.15	0.3298	721.88	0.24
308.15	0.3577	723.14	0.23
308.15	0.4525	727.64	0.23
308.15	0.522	731.34	0.22
308.15	0.5543	733.22	0.22
308.15	0.609	736.67	0.22
308.15	0.6529	739.73	0.22
308.15	0.7504	747.61	0.21
308.15	0.804	752.69	0.21
308.15	0.8727	760.14	0.21
308.15	0.9253	766.58	0.21
308.15	0.9527	770.23	0.21
308.15	0.9773	773.67	0.21
308.15	0.989	775.36	0.21
308.15	0.9964	776.46	0.21
308.15	1	776.5	0.21
313.15	0	701.5	0.29
313.15	0.0423	702.92	0.28
313.15	0.0424	702.94	0.28
313.15	0.082	704.95	0.27
313.15	0.0822	704.96	0.27
313.15	0.1171	706.79	0.27
313.15	0.1271	707.29	0.27
313.15	0.1827	709.93	0.26
313.15	0.2162	711.42	0.25
313.15	0.251	712.93	0.25
313.15	0.3298	716.3	0.24
313.15	0.3577	717.52	0.23
313.15	0.4525	721.96	0.22
313.15	0.522	725.66	0.22
313.15	0.5543	727.56	0.22
313.15	0.609	731.07	0.22
313.15	0.6529	734.2	0.22
313.15	0.7504	742.24	0.21
313.15	0.807	747.67	0.21
313.15	0.8727	754.77	0.21
313.15	0.9253	761.06	0.21
313.15	0.9527	764.57	0.21
313.15	0.9773	767.86	0.21
313.15	0.989	769.46	0.21
313.15	0.9964	770.49	0.21
313.15	1	771.53	0.21
318.15	0	696.98	0.29
318.15	0.0423	698.39	0.28
318.15	0.0424	698.41	0.28
318.15	0.082	699.97	0.27
318.15	0.0822	699.98	0.27
318.15	0.1171	701.61	0.27
318.15	0.1271	702.07	0.26
318.15	0.1827	704.6	0.25
318.15	0.2162	706.1	0.25
318.15	0.251	707.66	0.24
318.15	0.3298	711.24	0.23
318.15	0.3577	712.55	0.23
318.15	0.4525	717.21	0.22
318.15	0.522	720.99	0.22
318.15	0.5543	722.88	0.22
318.15	0.609	726.33	0.21
318.15	0.6529	729.37	0.21
318.15	0.7504	737.12	0.21
318.15	0.807	742.4	0.21
318.15	0.8727	749.37	0.21
318.15	0.9253	755.7	0.21
318.15	0.9527	759.3	0.21
318.15	0.9773	762.7	0.21
318.15	0.989	764.38	0.21
318.15	1	766.6	0.21

System: methanol + diisopropyl ether; phases: Liquid
Fixed: Pressure, kPa = 101
Fixed: Wavelength, nm = 40.47
Property: Refractive index (other wavelength) (Liquid); method: Standard Abbe refractometry
Temperature, K	Mole fraction of methanol	Refractive index (other wavelength)	uncertainty
293.15	0	1.37888	0.00043
293.15	0.0423	1.37892	0.00043
293.15	0.0424	1.37884	0.00043
293.15	0.082	1.37887	0.00042
293.15	0.0822	1.37872	0.00042
293.15	0.1171	1.37858	0.00041
293.15	0.1271	1.37862	0.00041
293.15	0.1827	1.37814	0.0004
293.15	0.2162	1.37791	0.0004
293.15	0.251	1.37812	0.0004
293.15	0.3298	1.37709	0.00038
293.15	0.3577	1.37556	0.00038
293.15	0.4497	1.37463	0.00037
293.15	0.4525	1.37517	0.00037
293.15	0.522	1.37278	0.00036
293.15	0.5543	1.37252	0.00035
293.15	0.609	1.36927	0.00035
293.15	0.6529	1.36767	0.00034
293.15	0.7504	1.36362	0.00033
293.15	0.804	1.35916	0.00033
293.15	0.807	1.35902	0.00033
293.15	0.8727	1.35351	0.00032
293.15	0.9233	1.34636	0.00033
293.15	0.9253	1.34824	0.00033
293.15	0.9527	1.34496	0.00032
293.15	0.9773	1.34138	0.00032
293.15	0.989	1.34018	0.00032
293.15	0.9964	1.33872	0.00032
293.15	1	1.33767	0.00032
298.15	0	1.37607	0.00044
298.15	0.0423	1.37664	0.00043
298.15	0.0424	1.37602	0.00043
298.15	0.082	1.37599	0.00042
298.15	0.0822	1.37598	0.00042
298.15	0.1171	1.3758	0.00041
298.15	0.1271	1.37584	0.00041
298.15	0.1827	1.37543	0.0004
298.15	0.2162	1.37664	0.0004
298.15	0.251	1.37352	0.00039
298.15	0.3298	1.37448	0.00038
298.15	0.3577	1.37299	0.00037
298.15	0.4497	1.37205	0.00037
298.15	0.4525	1.37262	0.00037
298.15	0.522	1.37025	0.00035
298.15	0.5543	1.3698	0.00035
298.15	0.609	1.36677	0.00034
298.15	0.6529	1.36523	0.00034
298.15	0.7504	1.36122	0.00033
298.15	0.804	1.35681	0.00033
298.15	0.807	1.3567	0.00033
298.15	0.8727	1.35132	0.00032
298.15	0.9233	1.34416	0.00033
298.15	0.9253	1.34607	0.00033
298.15	0.9527	1.34281	0.00032
298.15	0.9773	1.33922	0.00032
298.15	0.989	1.33798	0.00032
298.15	0.9964	1.33656	0.00031
298.15	1	1.33564	0.00032
303.15	0	1.37321	0.00044
303.15	0.0423	1.37316	0.00043
303.15	0.0424	1.37317	0.00043
303.15	0.082	1.3731	0.00042
303.15	0.0822	1.37318	0.00042
303.15	0.1171	1.37301	0.00041
303.15	0.1271	1.37303	0.00041
303.15	0.1827	1.37268	0.0004
303.15	0.2162	1.37251	0.0004
303.15	0.251	1.3735	0.00039
303.15	0.3298	1.37186	0.00038
303.15	0.3577	1.37205	0.00037
303.15	0.4497	1.3695	0.00037
303.15	0.4525	1.37001	0.00037
303.15	0.522	1.3677	0.00035
303.15	0.5543	1.36716	0.00035
303.15	0.609	1.36428	0.00034
303.15	0.6529	1.36277	0.00034
303.15	0.7504	1.35877	0.00033
303.15	0.804	1.35438	0.00033
303.15	0.807	1.35432	0.00033
303.15	0.8727	1.34909	0.00032
303.15	0.9233	1.34198	0.00033
303.15	0.9253	1.34381	0.00033
303.15	0.9527	1.34063	0.00032
303.15	0.9773	1.33704	0.00032
303.15	0.989	1.33587	0.00032
303.15	0.9964	1.33483	0.00032
303.15	1	1.33357	0.00032
308.15	0	1.37035	0.00044
308.15	0.0423	1.37024	0.00043
308.15	0.0424	1.37025	0.00043
308.15	0.082	1.37021	0.00042
308.15	0.0822	1.37037	0.00042
308.15	0.1171	1.37018	0.00041
308.15	0.1271	1.37021	0.00041
308.15	0.1827	1.36993	0.0004
308.15	0.2162	1.36973	0.0004
308.15	0.251	1.36934	0.0004
308.15	0.3298	1.36925	0.00038
308.15	0.3577	1.36902	0.00038
308.15	0.4497	1.36699	0.00037
308.15	0.4525	1.36743	0.00037
308.15	0.522	1.36511	0.00035
308.15	0.5543	1.36433	0.00035
308.15	0.609	1.36183	0.00034
308.15	0.6529	1.36027	0.00034
308.15	0.7504	1.35626	0.00033
308.15	0.804	1.35193	0.00033
308.15	0.807	1.3517	0.00033
308.15	0.8727	1.34787	0.00032
308.15	0.9233	1.33956	0.00033
308.15	0.9253	1.34157	0.00033
308.15	0.9527	1.33839	0.00032
308.15	0.9773	1.33485	0.00032
308.15	0.989	1.33356	0.00032
308.15	0.9964	1.33249	0.00032
308.15	1	1.33153	0.00032
313.15	0	1.3674	0.00044
313.15	0.0423	1.36734	0.00043
313.15	0.0424	1.3674	0.00043
313.15	0.082	1.36731	0.00042
313.15	0.0822	1.3675	0.00042
313.15	0.1171	1.36734	0.00041
313.15	0.1271	1.36736	0.00041
313.15	0.1827	1.36712	0.0004
313.15	0.2162	1.36696	0.0004
313.15	0.251	1.36648	0.00039
313.15	0.3298	1.36657	0.00038
313.15	0.3577	1.36568	0.00038
313.15	0.4497	1.36434	0.00037
313.15	0.4525	1.36476	0.00037
313.15	0.522	1.36255	0.00035
313.15	0.5543	1.36165	0.00035
313.15	0.609	1.35929	0.00034
313.15	0.6529	1.35769	0.00034
313.15	0.7504	1.35369	0.00033
313.15	0.804	1.34918	0.00033
313.15	0.807	1.34928	0.00033
313.15	0.8727	1.3456	0.00032
313.15	0.9233	1.33747	0.00033
313.15	0.9253	1.33918	0.00033
313.15	0.9527	1.33616	0.00032
313.15	0.9773	1.33271	0.00032
313.15	0.989	1.33146	0.00032
313.15	0.9964	1.33048	0.00032
313.15	1	1.32947	0.00032
318.15	0	1.36447	0.00044
318.15	0.0423	1.36444	0.00043
318.15	0.0424	1.3644	0.00043
318.15	0.082	1.36442	0.00042
318.15	0.0822	1.36413	0.00042
318.15	0.1171	1.36444	0.00041
318.15	0.1271	1.36445	0.00041
318.15	0.1827	1.36427	0.0004
318.15	0.2162	1.36415	0.0004
318.15	0.251	1.3636	0.00039
318.15	0.3298	1.36408	0.00038
318.15	0.3577	1.36296	0.00038
318.15	0.4497	1.36174	0.00038
318.15	0.4525	1.36248	0.00038
318.15	0.522	1.35999	0.00035
318.15	0.5543	1.35901	0.00035
318.15	0.609	1.35666	0.00034
318.15	0.6529	1.35514	0.00034
318.15	0.7504	1.35095	0.00034
318.15	0.804	1.34473	0.00035
318.15	0.807	1.3465	0.00035
318.15	0.8727	1.34338	0.00033
318.15	0.9233	1.33515	0.00033
318.15	0.9253	1.33682	0.00033
318.15	0.9527	1.33369	0.00032
318.15	0.9773	1.33062	0.00032
318.15	0.989	1.32932	0.00032
318.15	0.9964	1.32844	0.00032
318.15	1	1.32742	0.00032

System: methanol + diisopropyl ether; phases: Liquid
Fixed: Pressure, kPa = 101
Fixed: Wavelength, nm = 435.8
Property: Refractive index (other wavelength) (Liquid); method: Standard Abbe refractometry
Temperature, K	Mole fraction of methanol	Refractive index (other wavelength)	uncertainty
293.15	0	1.37585	0.00043
293.15	0.0423	1.37589	0.00043
293.15	0.0424	1.37583	0.00043
293.15	0.082	1.37585	0.00042
293.15	0.0822	1.37569	0.00042
293.15	0.1171	1.37556	0.00041
293.15	0.1271	1.3756	0.00041
293.15	0.1827	1.37514	0.0004
293.15	0.2162	1.37492	0.0004
293.15	0.251	1.37513	0.00039
293.15	0.3298	1.37411	0.00038
293.15	0.3577	1.37264	0.00038
293.15	0.4497	1.3717	0.00037
293.15	0.4525	1.37223	0.00037
293.15	0.522	1.36987	0.00036
293.15	0.5543	1.36963	0.00035
293.15	0.609	1.3664	0.00035
293.15	0.6529	1.36484	0.00034
293.15	0.7504	1.36086	0.00033
293.15	0.804	1.35647	0.00033
293.15	0.807	1.35632	0.00033
293.15	0.8727	1.35088	0.00032
293.15	0.9233	1.34384	0.00033
293.15	0.9253	1.34571	0.00033
293.15	0.9527	1.34296	0.00032
293.15	0.9773	1.33894	0.00032
293.15	0.989	1.33775	0.00032
293.15	0.9964	1.33631	0.00032
293.15	1	1.3353	0.00032
298.15	0	1.37308	0.00043
298.15	0.0423	1.37305	0.00043
298.15	0.0424	1.37303	0.00043
298.15	0.082	1.373	0.00042
298.15	0.0822	1.373	0.00042
298.15	0.1171	1.37283	0.00041
298.15	0.1271	1.37286	0.00041
298.15	0.1827	1.37246	0.0004
298.15	0.2162	1.37305	0.0004
298.15	0.251	1.37234	0.00039
298.15	0.3298	1.37153	0.00038
298.15	0.3577	1.37006	0.00037
298.15	0.4497	1.36914	0.00037
298.15	0.4525	1.36969	0.00037
298.15	0.522	1.36737	0.00035
298.15	0.5543	1.36692	0.00035
298.15	0.609	1.36396	0.00034
298.15	0.6529	1.36244	0.00034
298.15	0.7504	1.35846	0.00033
298.15	0.804	1.35412	0.00033
298.15	0.807	1.35401	0.00033
298.15	0.8727	1.34872	0.00032
298.15	0.9233	1.34165	0.00033
298.15	0.9253	1.34355	0.00033
298.15	0.9527	1.34033	0.00032
298.15	0.9773	1.3368	0.00032
298.15	0.989	1.3356	0.00032
298.15	0.9964	1.3342	0.00032
298.15	1	1.3333	0.00032
303.15	0	1.37022	0.00044
303.15	0.0423	1.37019	0.00044
303.15	0.0424	1.37022	0.00043
303.15	0.082	1.37014	0.00042
303.15	0.0822	1.37022	0.00042
303.15	0.1171	1.37006	0.00041
303.15	0.1271	1.37006	0.00041
303.15	0.1827	1.36973	0.0004
303.15	0.2162	1.36956	0.0004
303.15	0.251	1.36955	0.00039
303.15	0.3298	1.36893	0.00038
303.15	0.3577	1.36912	0.00037
303.15	0.4497	1.36661	0.00037
303.15	0.4525	1.36711	0.00037
303.15	0.522	1.36484	0.00035
303.15	0.5543	1.36432	0.00035
303.15	0.609	1.36149	0.00034
303.15	0.6529	1.35999	0.00034
303.15	0.7504	1.35604	0.00033
303.15	0.804	1.35174	0.00033
303.15	0.807	1.35168	0.00033
303.15	0.8727	1.34651	0.00032
303.15	0.9233	1.3395	0.00033
303.15	0.9253	1.34132	0.00033
303.15	0.9527	1.33817	0.00032
303.15	0.9773	1.33466	0.00032
303.15	0.989	1.33351	0.00032
303.15	0.9964	1.33219	0.00032
303.15	1	1.33126	0.00032
308.15	0	1.36739	0.00044
308.15	0.0423	1.36297	0.00043
308.15	0.0424	1.36729	0.00043
308.15	0.082	1.36727	0.00042
308.15	0.0822	1.36742	0.00042
308.15	0.1171	1.36725	0.00041
308.15	0.1271	1.36728	0.00041
308.15	0.1827	1.367	0.0004
308.15	0.2162	1.36681	0.0004
308.15	0.251	1.36642	0.00039
308.15	0.3298	1.36633	0.00038
308.15	0.3577	1.36611	0.00038
308.15	0.4497	1.36412	0.00037
308.15	0.4525	1.36455	0.00037
308.15	0.522	1.3623	0.00035
308.15	0.5543	1.36152	0.00035
308.15	0.609	1.35906	0.00034
308.15	0.6529	1.35752	0.00034
308.15	0.7504	1.35356	0.00033
308.15	0.804	1.34931	0.00033
308.15	0.807	1.34907	0.00033
308.15	0.8727	1.3453	0.00032
308.15	0.9233	1.33712	0.00033
308.15	0.9253	1.33909	0.00033
308.15	0.9527	1.33598	0.00032
308.15	0.9773	1.3325	0.00032
308.15	0.989	1.33124	0.00032
308.15	0.9964	1.33018	0.00032
308.15	1	1.32926	0.00032
313.15	0	1.36447	0.00044
313.15	0.0423	1.36444	0.00042
313.15	0.0424	1.36447	0.00043
313.15	0.082	1.3644	0.00042
313.15	0.0822	1.36459	0.00042
313.15	0.1171	1.36445	0.00041
313.15	0.1271	1.36445	0.00041
313.15	0.1827	1.36423	0.0004
313.15	0.2162	1.36405	0.0004
313.15	0.251	1.36361	0.00039
313.15	0.3298	1.36371	0.00038
313.15	0.3577	1.36268	0.00038
313.15	0.4497	1.36152	0.00037
313.15	0.4525	1.36193	0.00037
313.15	0.522	1.35976	0.00035
313.15	0.5543	1.35887	0.00035
313.15	0.609	1.35654	0.00034
313.15	0.6529	1.35496	0.00034
313.15	0.7504	1.35104	0.00033
313.15	0.804	1.34656	0.00033
313.15	0.807	1.34668	0.00033
313.15	0.8727	1.34306	0.00032
313.15	0.9233	1.33508	0.00033
313.15	0.9253	1.33674	0.00033
313.15	0.9527	1.33377	0.00032
313.15	0.9773	1.3304	0.00032
313.15	0.989	1.32916	0.00032
313.15	0.9964	1.3282	0.00032
313.15	1	1.32722	0.00032
318.15	0	1.36157	0.00044
318.15	0.0423	1.36155	0.00043
318.15	0.0424	1.36152	0.00043
318.15	0.082	1.36153	0.00042
318.15	0.0822	1.36167	0.00042
318.15	0.1171	1.36159	0.00041
318.15	0.1271	1.36158	0.00041
318.15	0.1827	1.3614	0.0004
318.15	0.2162	1.36132	0.0004
318.15	0.251	1.36074	0.00039
318.15	0.3298	1.36122	0.00038
318.15	0.3577	1.36012	0.00038
318.15	0.4497	1.35893	0.00038
318.15	0.4525	1.35967	0.00038
318.15	0.522	1.3572	0.00035
318.15	0.5543	1.35624	0.00035
318.15	0.609	1.35398	0.00034
318.15	0.6529	1.35244	0.00034
318.15	0.7504	1.34832	0.00034
318.15	0.804	1.34218	0.00035
318.15	0.807	1.34393	0.00035
318.15	0.8727	1.34082	0.00033
318.15	0.9233	1.33279	0.00033
318.15	0.9253	1.33442	0.00032
318.15	0.9527	1.33136	0.00032
318.15	0.9773	1.32834	0.00032
318.15	0.989	1.32708	0.00032
318.15	0.9964	1.32617	0.00032
318.15	1	1.32518	0.00032

System: methanol + diisopropyl ether; phases: Liquid
Fixed: Pressure, kPa = 101
Fixed: Wavelength, nm = 486.1
Property: Refractive index (other wavelength) (Liquid); method: Standard Abbe refractometry
Temperature, K	Mole fraction of methanol	Refractive index (other wavelength)	uncertainty
293.15	0	1.37241	0.00043
293.15	0.0423	1.37246	0.00043
293.15	0.0424	1.37238	0.00043
293.15	0.082	1.37242	0.00042
293.15	0.0822	1.37228	0.00042
293.15	0.1171	1.37214	0.00041
293.15	0.1271	1.37217	0.00041
293.15	0.1827	1.37173	0.0004
293.15	0.2162	1.37149	0.0004
293.15	0.251	1.37172	0.00039
293.15	0.3298	1.37071	0.00038
293.15	0.3577	1.36925	0.00038
293.15	0.4497	1.36834	0.00037
293.15	0.4525	1.36886	0.00037
293.15	0.522	1.36658	0.00036
293.15	0.5543	1.36633	0.00035
293.15	0.609	1.36316	0.00035
293.15	0.6529	1.36161	0.00034
293.15	0.7504	1.35769	0.00033
293.15	0.804	1.35338	0.00033
293.15	0.807	1.35323	0.00033
293.15	0.8727	1.34784	0.00032
293.15	0.9233	1.34087	0.00033
293.15	0.9253	1.34275	0.00033
293.15	0.9527	1.33953	0.00032
293.15	0.9773	1.33601	0.00032
293.15	0.989	1.33487	0.00032
293.15	0.9964	1.33342	0.00032
293.15	1	1.3324	0.00032
298.15	0	1.36965	0.00043
298.15	0.0423	1.36963	0.00042
298.15	0.0424	1.36961	0.00043
298.15	0.082	1.36958	0.00042
298.15	0.0822	1.36957	0.00042
298.15	0.1171	1.36942	0.00041
298.15	0.1271	1.36944	0.00041
298.15	0.1827	1.36905	0.0004
298.15	0.2162	1.36963	0.0004
298.15	0.251	1.36895	0.00039
298.15	0.3298	1.36815	0.00038
298.15	0.3577	1.36672	0.00037
298.15	0.4497	1.36584	0.00037
298.15	0.4525	1.36637	0.00037
298.15	0.522	1.36409	0.00035
298.15	0.5543	1.36368	0.00035
298.15	0.609	1.3673	0.00034
298.15	0.6529	1.35923	0.00034
298.15	0.7504	1.35533	0.00033
298.15	0.804	1.35108	0.00033
298.15	0.807	1.35096	0.00033
298.15	0.8727	1.34572	0.00032
298.15	0.9233	1.33873	0.00033
298.15	0.9253	1.3406	0.00033
298.15	0.9527	1.3374	0.00032
298.15	0.9773	1.3339	0.00032
298.15	0.989	1.3327	0.00032
298.15	0.9964	1.33128	0.00032
298.15	1	1.3304	0.00032
303.15	0	1.36687	0.00043
303.15	0.0423	1.36963	0.00043
303.15	0.0424	1.36682	0.00043
303.15	0.082	1.36677	0.00042
303.15	0.0822	1.36685	0.00042
303.15	0.1171	1.36669	0.00041
303.15	0.1271	1.36672	0.00041
303.15	0.1827	1.36639	0.0004
303.15	0.2162	1.36618	0.0004
303.15	0.251	1.36621	0.00039
303.15	0.3298	1.36561	0.00038
303.15	0.3577	1.36581	0.00037
303.15	0.4497	1.36334	0.00037
303.15	0.4525	1.36382	0.00037
303.15	0.522	1.36159	0.00035
303.15	0.5543	1.36106	0.00035
303.15	0.609	1.35828	0.00036
303.15	0.6529	1.35681	0.00034
303.15	0.7504	1.35295	0.00033
303.15	0.804	1.34869	0.00033
303.15	0.807	1.34861	0.00033
303.15	0.8727	1.34352	0.00032
303.15	0.9233	1.33657	0.00033
303.15	0.9253	1.33839	0.00033
303.15	0.9527	1.33525	0.00032
303.15	0.9773	1.33174	0.00032
303.15	0.989	1.33062	0.00032
303.15	0.9964	1.32929	0.00032
303.15	1	1.32839	0.00032
308.15	0	1.36407	0.00044
308.15	0.0423	1.36395	0.00043
308.15	0.0424	1.36404	0.00043
308.15	0.082	1.36394	0.00042
308.15	0.0822	1.36409	0.00042
308.15	0.1171	1.36394	0.00041
308.15	0.1271	1.36394	0.00041
308.15	0.1827	1.36368	0.0004
308.15	0.2162	1.36351	0.0004
308.15	0.251	1.36312	0.00039
308.15	0.3298	1.36304	0.00038
308.15	0.3577	1.36275	0.00038
308.15	0.4497	1.36085	0.00037
308.15	0.4525	1.36128	0.00037
308.15	0.522	1.35907	0.00035
308.15	0.5543	1.35831	0.00035
308.15	0.609	1.35589	0.00034
308.15	0.6529	1.35437	0.00034
308.15	0.7504	1.35046	0.00033
308.15	0.804	1.34626	0.00033
308.15	0.807	1.34606	0.00033
308.15	0.8727	1.34228	0.00032
308.15	0.9233	1.33421	0.00033
308.15	0.9253	1.33616	0.00033
308.15	0.9527	1.33306	0.00032
308.15	0.9773	1.3296	0.00032
308.15	0.989	1.32836	0.00032
308.15	0.9964	1.32731	0.00032
308.15	1	1.32637	0.00032
313.15	0	1.36119	0.00044
313.15	0.0423	1.36111	0.00043
313.15	0.0424	1.36115	0.00043
313.15	0.082	1.36108	0.00042
313.15	0.0822	1.36126	0.00042
313.15	0.1171	1.36113	0.00041
313.15	0.1271	1.36113	0.00041
313.15	0.1827	1.36091	0.0004
313.15	0.2162	1.36077	0.0004
313.15	0.251	1.36031	0.00039
313.15	0.3298	1.36044	0.00038
313.15	0.3577	1.35958	0.00038
313.15	0.4497	1.3583	0.00037
313.15	0.4525	1.35868	0.00037
313.15	0.522	1.35655	0.00035
313.15	0.5543	1.35569	0.00035
313.15	0.609	1.3534	0.00034
313.15	0.6529	1.35191	0.00034
313.15	0.7504	1.34795	0.00033
313.15	0.804	1.34353	0.00033
313.15	0.807	1.34363	0.00033
313.15	0.8727	1.34009	0.00032
313.15	0.9233	1.33213	0.00033
313.15	0.9253	1.3338	0.00033
313.15	0.9527	1.33085	0.00032
313.15	0.9773	1.32749	0.00032
313.15	0.989	1.32628	0.00032
313.15	0.9964	1.32531	0.00032
313.15	1	1.32434	0.00032
318.15	0	1.35832	0.00044
318.15	0.0423	1.35829	0.00043
318.15	0.0424	1.35828	0.00043
318.15	0.082	1.35827	0.00042
318.15	0.0822	1.35838	0.00042
318.15	0.1171	1.35824	0.00041
318.15	0.1271	1.35832	0.00041
318.15	0.1827	1.35814	0.0004
318.15	0.2162	1.35804	0.0004
318.15	0.251	1.35753	0.00039
318.15	0.3298	1.358	0.00038
318.15	0.3577	1.35689	0.00038
318.15	0.4497	1.35572	0.00038
318.15	0.4525	1.35631	0.00037
318.15	0.522	1.35398	0.00035
318.15	0.5543	1.35305	0.00035
318.15	0.609	1.35085	0.00034
318.15	0.6529	1.34936	0.00034
318.15	0.7504	1.34529	0.00034
318.15	0.804	1.33919	0.00035
318.15	0.807	1.34094	0.00035
318.15	0.8727	1.3379	0.00033
318.15	0.9233	1.32983	0.00033
318.15	0.9253	1.33151	0.00032
318.15	0.9527	1.32842	0.00032
318.15	0.9773	1.32541	0.00032
318.15	0.989	1.3242	0.00032
318.15	0.9964	1.32328	0.00032
318.15	1	1.32234	0.00032

System: methanol + diisopropyl ether; phases: Liquid
Fixed: Pressure, kPa = 101
Fixed: Wavelength, nm = 546.1
Property: Refractive index (other wavelength) (Liquid); method: Standard Abbe refractometry
Temperature, K	Mole fraction of methanol	Refractive index (other wavelength)	uncertainty
293.15	0	1.36955	0.00043
293.15	0.0423	1.3696	0.00043
293.15	0.0424	1.36953	0.00043
293.15	0.082	1.36956	0.00042
293.15	0.0822	1.36942	0.00042
293.15	0.1171	1.3693	0.00041
293.15	0.1271	1.36933	0.00041
293.15	0.1827	1.36889	0.0004
293.15	0.2162	1.36867	0.0004
293.15	0.251	1.36888	0.00039
293.15	0.3298	1.36792	0.00038
293.15	0.3577	1.36647	0.00038
293.15	0.4497	1.36558	0.00037
293.15	0.4525	1.36609	0.00037
293.15	0.522	1.36382	0.00036
293.15	0.5543	1.36357	0.00035
293.15	0.609	1.3644	0.00035
293.15	0.6529	1.35891	0.00035
293.15	0.7504	1.35503	0.00033
293.15	0.804	1.35075	0.00033
293.15	0.807	1.3506	0.00033
293.15	0.8727	1.34528	0.00032
293.15	0.9233	1.33839	0.00033
293.15	0.9253	1.34023	0.00033
293.15	0.9527	1.33705	0.00032
293.15	0.9773	1.33356	0.00032
293.15	0.989	1.33242	0.00032
293.15	0.9964	1.33098	0.00031
293.15	1	1.32991	0.00031
298.15	0	1.36683	0.00043
298.15	0.0423	1.36681	0.00042
298.15	0.0424	1.36679	0.00043
298.15	0.082	1.36677	0.00042
298.15	0.0822	1.36678	0.00042
298.15	0.1171	1.36661	0.00041
298.15	0.1271	1.36664	0.00041
298.15	0.1827	1.36626	0.0004
298.15	0.2162	1.36681	0.0004
298.15	0.251	1.36616	0.00039
298.15	0.3298	1.36537	0.00038
298.15	0.3577	1.36396	0.00037
298.15	0.4497	1.36306	0.00037
298.15	0.4525	1.3636	0.00037
298.15	0.522	1.36134	0.00035
298.15	0.5543	1.36093	0.00035
298.15	0.609	1.35803	0.00035
298.15	0.6529	1.35655	0.00034
298.15	0.7504	1.3527	0.00033
298.15	0.804	1.34846	0.00033
298.15	0.807	1.34834	0.00033
298.15	0.8727	1.34316	0.00032
298.15	0.9233	1.33624	0.00033
298.15	0.9253	1.33811	0.00033
298.15	0.9527	1.33494	0.00032
298.15	0.9773	1.33146	0.00032
298.15	0.989	1.33028	0.00032
298.15	0.9964	1.32888	0.00032
298.15	1	1.328	0.00031
303.15	0	1.36406	0.00043
303.15	0.0423	1.36681	0.00043
303.15	0.0424	1.36403	0.00043
303.15	0.082	1.36396	0.00042
303.15	0.0822	1.36406	0.00042
303.15	0.1171	1.36389	0.00041
303.15	0.1271	1.36392	0.00041
303.15	0.1827	1.36258	0.0004
303.15	0.2162	1.36341	0.0004
303.15	0.251	1.36343	0.00039
303.15	0.3298	1.36283	0.00038
303.15	0.3577	1.36302	0.00037
303.15	0.4497	1.36058	0.00037
303.15	0.4525	1.36107	0.00037
303.15	0.522	1.35886	0.00035
303.15	0.5543	1.35836	0.00035
303.15	0.609	1.35561	0.00034
303.15	0.6529	1.35414	0.00034
303.15	0.7504	1.35029	0.00033
303.15	0.804	1.34608	0.00033
303.15	0.807	1.34603	0.00033
303.15	0.8727	1.34092	0.00032
303.15	0.9233	1.33409	0.00033
303.15	0.9253	1.3359	0.00033
303.15	0.9527	1.33279	0.00032
303.15	0.9773	1.32933	0.00032
303.15	0.989	1.3282	0.00032
303.15	0.9964	1.32688	0.00032
303.15	1	1.32597	0.00032
308.15	0	1.36127	0.00043
308.15	0.0423	1.36116	0.00043
308.15	0.0424	1.36107	0.00043
308.15	0.082	1.36114	0.00042
308.15	0.0822	1.3613	0.00042
308.15	0.1171	1.36113	0.00041
308.15	0.1271	1.36115	0.00041
308.15	0.1827	1.3609	0.0004
308.15	0.2162	1.36071	0.0004
308.15	0.251	1.36037	0.00039
308.15	0.3298	1.36029	0.00038
308.15	0.3577	1.36006	0.00038
308.15	0.4497	1.35815	0.00037
308.15	0.4525	1.35854	0.00037
308.15	0.522	1.35635	0.00035
308.15	0.5543	1.35561	0.00035
308.15	0.609	1.35321	0.00034
308.15	0.6529	1.35171	0.00034
308.15	0.7504	1.34787	0.00033
308.15	0.804	1.34371	0.00033
308.15	0.807	1.3435	0.00033
308.15	0.8727	1.33978	0.00032
308.15	0.9233	1.33175	0.00033
308.15	0.9253	1.33368	0.00033
308.15	0.9527	1.33062	0.00032
308.15	0.9773	1.32717	0.00032
308.15	0.989	1.32594	0.00032
308.15	0.9964	1.32489	0.00032
308.15	1	1.32397	0.00032
313.15	0	1.35842	0.00044
313.15	0.0423	1.35837	0.00043
313.15	0.0424	1.35839	0.00043
313.15	0.082	1.35823	0.00042
313.15	0.0822	1.35853	0.00042
313.15	0.1171	1.35838	0.00041
313.15	0.1271	1.35841	0.00041
313.15	0.1827	1.35818	0.0004
313.15	0.2162	1.35802	0.0004
313.15	0.251	1.35759	0.00039
313.15	0.3298	1.3577	0.00038
313.15	0.3577	1.35686	0.00038
313.15	0.4497	1.35561	0.00037
313.15	0.4525	1.35599	0.00037
313.15	0.522	1.35386	0.00035
313.15	0.5543	1.353	0.00035
313.15	0.609	1.35074	0.00034
313.15	0.6529	1.34921	0.00034
313.15	0.7504	1.34538	0.00033
313.15	0.804	1.341	0.00033
313.15	0.807	1.34112	0.00033
313.15	0.8727	1.33757	0.00032
313.15	0.9233	1.3297	0.00033
313.15	0.9253	1.33136	0.00032
313.15	0.9527	1.32843	0.00032
313.15	0.9773	1.32509	0.00032
313.15	0.989	1.32387	0.00032
313.15	0.9964	1.32292	0.00032
313.15	1	1.32196	0.00032
318.15	0	1.35556	0.00044
318.15	0.0423	1.35556	0.00043
318.15	0.0424	1.35551	0.00043
318.15	0.082	1.35551	0.00042
318.15	0.0822	1.35565	0.00042
318.15	0.1171	1.35556	0.00041
318.15	0.1271	1.35557	0.00041
318.15	0.1827	1.35541	0.0004
318.15	0.2162	1.35526	0.0004
318.15	0.251	1.35479	0.00039
318.15	0.3298	1.35528	0.00038
318.15	0.3577	1.35419	0.00038
318.15	0.4497	1.35303	0.00038
318.15	0.4525	1.3537	0.00038
318.15	0.522	1.35136	0.00035
318.15	0.5543	1.35042	0.00035
318.15	0.609	1.34818	0.00034
318.15	0.6529	1.34672	0.00034
318.15	0.7504	1.34271	0.00034
318.15	0.804	1.33675	0.00035
318.15	0.807	1.33842	0.00034
318.15	0.8727	1.33543	0.00033
318.15	0.9233	1.32743	0.00033
318.15	0.9253	1.32907	0.00032
318.15	0.9527	1.32601	0.00032
318.15	0.9773	1.32301	0.00032
318.15	0.989	1.32177	0.00032
318.15	0.9964	1.3209	0.00032
318.15	1	1.31993	0.00032

System: methanol + diisopropyl ether; phases: Liquid
Fixed: Pressure, kPa = 101
Fixed: Wavelength, nm = 587.6
Property: Refractive index (other wavelength) (Liquid); method: Standard Abbe refractometry
Temperature, K	Mole fraction of methanol	Refractive index (other wavelength)	uncertainty
293.15	0	1.36806	0.00043
293.15	0.0423	1.36811	0.00043
293.15	0.0424	1.36803	0.00043
293.15	0.082	1.36807	0.00042
293.15	0.0822	1.36795	0.00042
293.15	0.1171	1.36783	0.00041
293.15	0.1271	1.36784	0.00041
293.15	0.1827	1.36741	0.0004
293.15	0.2162	1.36719	0.0004
293.15	0.251	1.36741	0.00039
293.15	0.3298	1.36645	0.00038
293.15	0.3577	1.365	0.00038
293.15	0.4497	1.36412	0.00037
293.15	0.4525	1.36462	0.00037
293.15	0.522	1.36239	0.00036
293.15	0.5543	1.36214	0.00035
293.15	0.609	1.35903	0.00035
293.15	0.6529	1.35751	0.00034
293.15	0.7504	1.35365	0.00033
293.15	0.804	1.34938	0.00033
293.15	0.807	1.34924	0.00033
293.15	0.8727	1.34394	0.00032
293.15	0.9233	1.33708	0.00033
293.15	0.9253	1.33891	0.00033
293.15	0.9527	1.33574	0.00032
293.15	0.9773	1.33228	0.00032
293.15	0.989	1.33114	0.00032
293.15	0.9964	1.3297	0.00032
293.15	1	1.32869	0.00031
298.15	0	1.36535	0.00043
298.15	0.0423	1.36534	0.00042
298.15	0.0424	1.36531	0.00043
298.15	0.082	1.36528	0.00042
298.15	0.0822	1.3653	0.00042
298.15	0.1171	1.36514	0.00041
298.15	0.1271	1.36515	0.00041
298.15	0.1827	1.36478	0.0004
298.15	0.2162	1.36534	0.0004
298.15	0.251	1.3647	0.00039
298.15	0.3298	1.36391	0.00038
298.15	0.3577	1.36251	0.00037
298.15	0.4497	1.36163	0.00037
298.15	0.4525	1.36217	0.00037
298.15	0.522	1.35991	0.00035
298.15	0.5543	1.35952	0.00035
298.15	0.609	1.35663	0.00034
298.15	0.6529	1.35515	0.00034
298.15	0.7504	1.3513	0.00033
298.15	0.804	1.3471	0.00033
298.15	0.807	1.34699	0.00033
298.15	0.8727	1.34182	0.00032
298.15	0.9233	1.33495	0.00033
298.15	0.9253	1.33679	0.00033
298.15	0.9527	1.33364	0.00032
298.15	0.9773	1.33017	0.00032
298.15	0.989	1.329	0.00032
298.15	0.9964	1.32759	0.00032
298.15	1	1.32671	0.00031
303.15	0	1.3626	0.00043
303.15	0.0423	1.36534	0.00043
303.15	0.0424	1.36256	0.00043
303.15	0.082	1.3625	0.00042
303.15	0.0822	1.36261	0.00042
303.15	0.1171	1.36245	0.00041
303.15	0.1271	1.36246	0.00041
303.15	0.1827	1.36214	0.0004
303.15	0.2162	1.36196	0.0004
303.15	0.251	1.36198	0.00039
303.15	0.3298	1.3614	0.00038
303.15	0.3577	1.36159	0.00037
303.15	0.4497	1.35917	0.00037
303.15	0.4525	1.35964	0.00037
303.15	0.522	1.35746	0.00035
303.15	0.5543	1.35695	0.00035
303.15	0.609	1.35421	0.00034
303.15	0.6529	1.35275	0.00034
303.15	0.7504	1.34898	0.00033
303.15	0.804	1.34474	0.00033
303.15	0.807	1.34467	0.00033
303.15	0.8727	1.33965	0.00032
303.15	0.9233	1.33279	0.00033
303.15	0.9253	1.33458	0.00033
303.15	0.9527	1.3315	0.00032
303.15	0.9773	1.32803	0.00032
303.15	0.989	1.32693	0.00032
303.15	0.9964	1.32561	0.00032
303.15	1	1.32471	0.00031
308.15	0	1.36127	0.00043
308.15	0.0423	1.35972	0.00043
308.15	0.0424	1.35977	0.00043
308.15	0.082	1.35971	0.00042
308.15	0.0822	1.35986	0.00042
308.15	0.1171	1.3597	0.00041
308.15	0.1271	1.35972	0.00041
308.15	0.1827	1.35947	0.0004
308.15	0.2162	1.35928	0.0004
308.15	0.251	1.35892	0.00039
308.15	0.3298	1.35886	0.00038
308.15	0.3577	1.35865	0.00038
308.15	0.4497	1.35673	0.00037
308.15	0.4525	1.35714	0.00037
308.15	0.522	1.35495	0.00035
308.15	0.5543	1.35422	0.00035
308.15	0.609	1.35182	0.00034
308.15	0.6529	1.35032	0.00034
308.15	0.7504	1.34649	0.00033
308.15	0.804	1.34236	0.00033
308.15	0.807	1.34213	0.00033
308.15	0.8727	1.33843	0.00032
308.15	0.9233	1.33046	0.00033
308.15	0.9253	1.33239	0.00033
308.15	0.9527	1.32932	0.00032
308.15	0.9773	1.32591	0.00032
308.15	0.989	1.32469	0.00032
308.15	0.9964	1.32366	0.00032
308.15	1	1.32274	0.00031
313.15	0	1.357	0.00044
313.15	0.0423	1.35693	0.00043
313.15	0.0424	1.35696	0.00043
313.15	0.082	1.35691	0.00042
313.15	0.0822	1.3571	0.00042
313.15	0.1171	1.35696	0.00041
313.15	0.1271	1.35696	0.00041
313.15	0.1827	1.35676	0.0004
313.15	0.2162	1.35661	0.0004
313.15	0.251	1.35617	0.00039
313.15	0.3298	1.35627	0.00038
313.15	0.3577	1.35545	0.00038
313.15	0.4497	1.35419	0.00037
313.15	0.4525	1.35459	0.00037
313.15	0.522	1.35246	0.00035
313.15	0.5543	1.3516	0.00035
313.15	0.609	1.34934	0.00034
313.15	0.6529	1.34786	0.00034
313.15	0.7504	1.34401	0.00033
313.15	0.804	1.33965	0.00033
313.15	0.807	1.33975	0.00033
313.15	0.8727	1.33626	0.00032
313.15	0.9233	1.3284	0.00033
313.15	0.9253	1.33006	0.00032
313.15	0.9527	1.32712	0.00032
313.15	0.9773	1.32383	0.00032
313.15	0.989	1.32263	0.00032
313.15	0.9964	1.32167	0.00032
313.15	1	1.32073	0.00032
318.15	0	1.35416	0.00044
318.15	0.0423	1.35414	0.00043
318.15	0.0424	1.3541	0.00043
318.15	0.082	1.35411	0.00042
318.15	0.0822	1.35423	0.00042
318.15	0.1171	1.35417	0.00041
318.15	0.1271	1.35415	0.00041
318.15	0.1827	1.354	0.0004
318.15	0.2162	1.35387	0.0004
318.15	0.251	1.35338	0.00039
318.15	0.3298	1.35387	0.00038
318.15	0.3577	1.35274	0.00038
318.15	0.4497	1.35162	0.00038
318.15	0.4525	1.35228	0.00038
318.15	0.522	1.34995	0.00035
318.15	0.5543	1.34905	0.00035
318.15	0.609	1.34684	0.00034
318.15	0.6529	1.34534	0.00034
318.15	0.7504	1.34138	0.00034
318.15	0.804	1.33541	0.00035
318.15	0.807	1.33709	0.00034
318.15	0.8727	1.33411	0.00033
318.15	0.9233	1.32614	0.00032
318.15	0.9253	1.32777	0.00032
318.15	0.9527	1.32474	0.00032
318.15	0.9773	1.32177	0.00032
318.15	0.989	1.32052	0.00032
318.15	0.9964	1.31967	0.00032
318.15	1	1.31874	0.00031

System: methanol + diisopropyl ether; phases: Liquid
Fixed: Pressure, kPa = 101
Fixed: Wavelength, nm = 589.3
Property: Refractive index (other wavelength) (Liquid); method: Standard Abbe refractometry
Temperature, K	Mole fraction of methanol	Refractive index (other wavelength)	uncertainty
293.15	0	1.36801	0.00043
293.15	0.0423	1.36806	0.00043
293.15	0.0424	1.36798	0.00043
293.15	0.082	1.36802	0.00042
293.15	0.0822	1.36789	0.00042
293.15	0.1171	1.36777	0.00041
293.15	0.1271	1.36779	0.00041
293.15	0.1827	1.36736	0.0004
293.15	0.2162	1.36713	0.0004
293.15	0.251	1.36735	0.00039
293.15	0.3298	1.3664	0.00038
293.15	0.3577	1.36494	0.00038
293.15	0.4497	1.36407	0.00037
293.15	0.4525	1.36457	0.00037
293.15	0.522	1.36233	0.00036
293.15	0.5543	1.36209	0.00035
293.15	0.609	1.35897	0.00035
293.15	0.6529	1.35746	0.00034
293.15	0.7504	1.3536	0.00033
293.15	0.804	1.34933	0.00033
293.15	0.807	1.34919	0.00033
293.15	0.8727	1.34389	0.00032
293.15	0.9233	1.33703	0.00033
293.15	0.9253	1.33886	0.00033
293.15	0.9527	1.33569	0.00032
293.15	0.9773	1.33223	0.00032
293.15	0.989	1.3311	0.00032
293.15	0.9964	1.32965	0.00032
293.15	1	1.32864	0.00031
298.15	0	1.3653	0.00043
298.15	0.0423	1.36528	0.00042
298.15	0.0424	1.36525	0.00043
298.15	0.082	1.36523	0.00042
298.15	0.0822	1.36524	0.00042
298.15	0.1171	1.36508	0.00041
298.15	0.1271	1.3651	0.00041
298.15	0.1827	1.36473	0.0004
298.15	0.2162	1.36528	0.0004
298.15	0.251	1.36465	0.00039
298.15	0.3298	1.36386	0.00038
298.15	0.3577	1.36246	0.00037
298.15	0.4497	1.36158	0.00037
298.15	0.4525	1.36212	0.00037
298.15	0.522	1.35986	0.00035
298.15	0.5543	1.35947	0.00035
298.15	0.609	1.35658	0.00034
298.15	0.6529	1.3551	0.00034
298.15	0.7504	1.35125	0.00033
298.15	0.804	1.34706	0.00033
298.15	0.807	1.34694	0.00033
298.15	0.8727	1.34177	0.00032
298.15	0.9233	1.3349	0.00033
298.15	0.9253	1.33674	0.00033
298.15	0.9527	1.33359	0.00032
298.15	0.9773	1.33012	0.00032
298.15	0.989	1.32895	0.00032
298.15	0.9964	1.32754	0.00032
298.15	1	1.32666	0.00031
303.15	0	1.36255	0.00043
303.15	0.0423	1.36528	0.00043
303.15	0.0424	1.36251	0.00043
303.15	0.082	1.36245	0.00042
303.15	0.0822	1.36256	0.00042
303.15	0.1171	1.3624	0.00041
303.15	0.1271	1.3624	0.00041
303.15	0.1827	1.36209	0.0004
303.15	0.2162	1.36191	0.0004
303.15	0.251	1.36193	0.00039
303.15	0.3298	1.36134	0.00038
303.15	0.3577	1.36153	0.00037
303.15	0.4497	1.35912	0.00037
303.15	0.4525	1.35959	0.00037
303.15	0.522	1.35741	0.00035
303.15	0.5543	1.3569	0.00035
303.15	0.609	1.35416	0.00034
303.15	0.6529	1.35269	0.00034
303.15	0.7504	1.34888	0.00033
303.15	0.804	1.34469	0.00033
303.15	0.807	1.34462	0.00033
303.15	0.8727	1.3396	0.00032
303.15	0.9233	1.33274	0.00033
303.15	0.9253	1.33453	0.00033
303.15	0.9527	1.33145	0.00032
303.15	0.9773	1.32799	0.00032
303.15	0.989	1.32688	0.00032
303.15	0.9964	1.32557	0.00032
303.15	1	1.32467	0.00031
308.15	0	1.35983	0.00043
308.15	0.0423	1.35967	0.00043
308.15	0.0424	1.35973	0.00043
308.15	0.082	1.35966	0.00042
308.15	0.0822	1.3598	0.00042
308.15	0.1171	1.35965	0.00041
308.15	0.1271	1.35966	0.00041
308.15	0.1827	1.35942	0.0004
308.15	0.2162	1.35923	0.0004
308.15	0.251	1.35889	0.00039
308.15	0.3298	1.35881	0.00038
308.15	0.3577	1.35856	0.00038
308.15	0.4497	1.35668	0.00037
308.15	0.4525	1.35709	0.00037
308.15	0.522	1.3549	0.00035
308.15	0.5543	1.35417	0.00035
308.15	0.609	1.35177	0.00034
308.15	0.6529	1.35027	0.00034
308.15	0.7504	1.34644	0.00033
308.15	0.804	1.34231	0.00033
308.15	0.807	1.34208	0.00033
308.15	0.8727	1.33838	0.00032
308.15	0.9233	1.33042	0.00033
308.15	0.9253	1.33234	0.00033
308.15	0.9527	1.32928	0.00032
308.15	0.9773	1.32586	0.00032
308.15	0.989	1.32465	0.00032
308.15	0.9964	1.32361	0.00032
308.15	1	1.32269	0.00031
313.15	0	1.35694	0.00044
313.15	0.0423	1.35688	0.00043
313.15	0.0424	1.3569	0.00043
313.15	0.082	1.35685	0.00042
313.15	0.0822	1.35704	0.00042
313.15	0.1171	1.3569	0.00041
313.15	0.1271	1.35691	0.00041
313.15	0.1827	1.35671	0.0004
313.15	0.2162	1.35656	0.0004
313.15	0.251	1.35622	0.00039
313.15	0.3298	1.35621	0.00038
313.15	0.3577	1.3559	0.00038
313.15	0.4497	1.35414	0.00037
313.15	0.4525	1.35454	0.00037
313.15	0.522	1.35241	0.00035
313.15	0.5543	1.35155	0.00035
313.15	0.609	1.34929	0.00034
313.15	0.6529	1.34781	0.00034
313.15	0.7504	1.34396	0.00033
313.15	0.804	1.3396	0.00035
313.15	0.807	1.3409	0.00033
313.15	0.8727	1.33609	0.00032
313.15	0.9233	1.32835	0.00033
313.15	0.9253	1.33001	0.00032
313.15	0.9527	1.32708	0.00032
313.15	0.9773	1.32378	0.00032
313.15	0.989	1.32259	0.00032
313.15	0.9964	1.32163	0.00032
313.15	1	1.32068	0.00031
318.15	0	1.35411	0.00044
318.15	0.0423	1.35409	0.00043
318.15	0.0424	1.35405	0.00043
318.15	0.082	1.35406	0.00042
318.15	0.0822	1.35418	0.00042
318.15	0.1171	1.35412	0.00041
318.15	0.1271	1.3541	0.00041
318.15	0.1827	1.35395	0.0004
318.15	0.2162	1.35382	0.0004
318.15	0.251	1.35333	0.00039
318.15	0.3298	1.35292	0.00038
318.15	0.3577	1.35269	0.00038
318.15	0.4497	1.35157	0.00038
318.15	0.4525	1.35223	0.00038
318.15	0.522	1.34989	0.00035
318.15	0.5543	1.349	0.00035
318.15	0.609	1.3468	0.00034
318.15	0.6529	1.34529	0.00034
318.15	0.7504	1.34133	0.00034
318.15	0.804	1.33536	0.00037
318.15	0.807	1.33777	0.00036
318.15	0.8727	1.33406	0.00033
318.15	0.9233	1.3261	0.00032
318.15	0.9253	1.32772	0.00032
318.15	0.9527	1.32469	0.00032
318.15	0.9773	1.32173	0.00032
318.15	0.989	1.32048	0.00032
318.15	0.9964	1.31963	0.00032
318.15	1	1.3187	0.00031

System: methanol + diisopropyl ether; phases: Liquid
Fixed: Pressure, kPa = 101
Fixed: Wavelength, nm = 632.8
Property: Refractive index (other wavelength) (Liquid); method: Standard Abbe refractometry
Temperature, K	Mole fraction of methanol	Refractive index (other wavelength)	uncertainty
293.15	0	1.36674	0.00043
293.15	0.0423	1.36678	0.00043
293.15	0.0424	1.3667	0.00043
293.15	0.082	1.36674	0.00042
293.15	0.0822	1.36663	0.00042
293.15	0.1171	1.36649	0.00041
293.15	0.1271	1.36651	0.00041
293.15	0.1827	1.36608	0.0004
293.15	0.2162	1.36585	0.0004
293.15	0.251	1.36609	0.00039
293.15	0.3298	1.36512	0.00038
293.15	0.3577	1.36367	0.00038
293.15	0.4497	1.3628	0.00037
293.15	0.4525	1.3633	0.00037
293.15	0.522	1.36109	0.00036
293.15	0.5543	1.36085	0.00035
293.15	0.609	1.35774	0.00035
293.15	0.6529	1.35624	0.00034
293.15	0.7504	1.3524	0.00033
293.15	0.804	1.34816	0.00033
293.15	0.807	1.34801	0.00033
293.15	0.8727	1.34273	0.00032
293.15	0.9233	1.3359	0.00033
293.15	0.9253	1.33772	0.00033
293.15	0.9527	1.33457	0.00032
293.15	0.9773	1.33112	0.00032
293.15	0.989	1.33	0.00032
293.15	0.9964	1.32856	0.00032
293.15	1	1.32754	0.00031
298.15	0	1.36402	0.00043
298.15	0.0423	1.364	0.00042
298.15	0.0424	1.36397	0.00043
298.15	0.082	1.36395	0.00042
298.15	0.0822	1.36396	0.00042
298.15	0.1171	1.36381	0.00041
298.15	0.1271	1.36381	0.00041
298.15	0.1827	1.36346	0.0004
298.15	0.2162	1.364	0.0004
298.15	0.251	1.36338	0.00039
298.15	0.3298	1.3626	0.00038
298.15	0.3577	1.36121	0.00037
298.15	0.4497	1.36034	0.00037
298.15	0.4525	1.36087	0.00037
298.15	0.522	1.35863	0.00035
298.15	0.5543	1.35812	0.00035
298.15	0.609	1.35536	0.00034
298.15	0.6529	1.35389	0.00034
298.15	0.7504	1.35005	0.00033
298.15	0.804	1.3459	0.00033
298.15	0.807	1.34578	0.00033
298.15	0.8727	1.34062	0.00032
298.15	0.9233	1.33379	0.00033
298.15	0.9253	1.33564	0.00033
298.15	0.9527	1.33248	0.00032
298.15	0.9773	1.32903	0.00032
298.15	0.989	1.32786	0.00032
298.15	0.9964	1.32645	0.00032
298.15	1	1.32558	0.00031
303.15	0	1.3613	0.00043
303.15	0.0423	1.364	0.00043
303.15	0.0424	1.36124	0.00043
303.15	0.082	1.3612	0.00042
303.15	0.0822	1.36129	0.00042
303.15	0.1171	1.36114	0.00041
303.15	0.1271	1.36116	0.00041
303.15	0.1827	1.36085	0.0004
303.15	0.2162	1.36065	0.0004
303.15	0.251	1.36068	0.00039
303.15	0.3298	1.36011	0.00038
303.15	0.3577	1.36029	0.00037
303.15	0.4497	1.35789	0.00037
303.15	0.4525	1.35835	0.00037
303.15	0.522	1.35619	0.00035
303.15	0.5543	1.35568	0.00035
303.15	0.609	1.35295	0.00034
303.15	0.6529	1.3515	0.00034
303.15	0.7504	1.34771	0.00033
303.15	0.804	1.34354	0.00033
303.15	0.807	1.34346	0.00033
303.15	0.8727	1.33846	0.00032
303.15	0.9233	1.33164	0.00033
303.15	0.9253	1.33342	0.00033
303.15	0.9527	1.33035	0.00032
303.15	0.9773	1.32689	0.00032
303.15	0.989	1.32579	0.00032
303.15	0.9964	1.32451	0.00031
303.15	1	1.3236	0.00031
308.15	0	1.35853	0.00043
308.15	0.0423	1.35842	0.00043
308.15	0.0424	1.35859	0.00043
308.15	0.082	1.35842	0.00042
308.15	0.0822	1.35855	0.00042
308.15	0.1171	1.35843	0.00041
308.15	0.1271	1.35843	0.00041
308.15	0.1827	1.35818	0.0004
308.15	0.2162	1.35801	0.0004
308.15	0.251	1.35764	0.00039
308.15	0.3298	1.35757	0.00038
308.15	0.3577	1.35731	0.00038
308.15	0.4497	1.35545	0.00037
308.15	0.4525	1.35586	0.00037
308.15	0.522	1.3537	0.00035
308.15	0.5543	1.35297	0.00035
308.15	0.609	1.35057	0.00034
308.15	0.6529	1.34908	0.00034
308.15	0.7504	1.34527	0.00033
308.15	0.804	1.34115	0.00033
308.15	0.807	1.34093	0.00033
308.15	0.8727	1.33724	0.00032
308.15	0.9233	1.32933	0.00033
308.15	0.9253	1.33125	0.00033
308.15	0.9527	1.32818	0.00032
308.15	0.9773	1.32479	0.00031
308.15	0.989	1.32358	0.00032
308.15	0.9964	1.32256	0.00032
308.15	1	1.32163	0.00031
313.15	0	1.35572	0.00043
313.15	0.0423	1.35563	0.00043
313.15	0.0424	1.35568	0.00043
313.15	0.082	1.35562	0.00042
313.15	0.0822	1.35581	0.00042
313.15	0.1171	1.35567	0.00041
313.15	0.1271	1.35566	0.00041
313.15	0.1827	1.35548	0.0004
313.15	0.2162	1.35535	0.0004
313.15	0.251	1.35489	0.00039
313.15	0.3298	1.35494	0.00038
313.15	0.3577	1.35417	0.00038
313.15	0.4497	1.35292	0.00037
313.15	0.4525	1.35331	0.00037
313.15	0.522	1.3512	0.00035
313.15	0.5543	1.35036	0.00035
313.15	0.609	1.3481	0.00034
313.15	0.6529	1.34667	0.00034
313.15	0.7504	1.34279	0.00033
313.15	0.804	1.33846	0.00033
313.15	0.807	1.33854	0.00033
313.15	0.8727	1.33509	0.00032
313.15	0.9233	1.32726	0.00033
313.15	0.9253	1.32891	0.00032
313.15	0.9527	1.32598	0.00032
313.15	0.9773	1.32372	0.00032
313.15	0.989	1.32154	0.00032
313.15	0.9964	1.32058	0.00032
313.15	1	1.31965	0.00031
318.15	0	1.3529	0.00043
318.15	0.0423	1.35285	0.00043
318.15	0.0424	1.35283	0.00043
318.15	0.082	1.35285	0.00042
318.15	0.0822	1.35295	0.00042
318.15	0.1171	1.3529	0.00041
318.15	0.1271	1.35289	0.00041
318.15	0.1827	1.35273	0.0004
318.15	0.2162	1.35262	0.0004
318.15	0.251	1.35213	0.00039
318.15	0.3298	1.35259	0.00038
318.15	0.3577	1.35147	0.00038
318.15	0.4497	1.35038	0.00038
318.15	0.4525	1.35098	0.00038
318.15	0.522	1.34869	0.00035
318.15	0.5543	1.34779	0.00035
318.15	0.609	1.34566	0.00034
318.15	0.6529	1.34413	0.00034
318.15	0.7504	1.34018	0.00034
318.15	0.804	1.33421	0.00035
318.15	0.807	1.33591	0.00034
318.15	0.8727	1.33294	0.00033
318.15	0.9233	1.32501	0.00032
318.15	0.9253	1.32665	0.00032
318.15	0.9527	1.32362	0.00032
318.15	0.9773	1.32066	0.00032
318.15	0.989	1.31944	0.00032
318.15	0.9964	1.31859	0.00032
318.15	1	1.31768	0.00031

System: methanol + diisopropyl ether; phases: Liquid
Fixed: Pressure, kPa = 101
Fixed: Wavelength, nm = 644
Property: Refractive index (other wavelength) (Liquid); method: Standard Abbe refractometry
Temperature, K	Mole fraction of methanol	Refractive index (other wavelength)	uncertainty
293.15	0	1.36644	0.00043
293.15	0.0423	1.36648	0.00043
293.15	0.0424	1.3664	0.00043
293.15	0.082	1.36644	0.00042
293.15	0.0822	1.36633	0.00042
293.15	0.1171	1.36619	0.00041
293.15	0.1271	1.36622	0.00041
293.15	0.1827	1.36579	0.0004
293.15	0.2162	1.36556	0.0004
293.15	0.251	1.36579	0.00039
293.15	0.3298	1.36482	0.00038
293.15	0.3577	1.36338	0.00038
293.15	0.4497	1.36251	0.00037
293.15	0.4525	1.36301	0.00037
293.15	0.522	1.3679	0.00037
293.15	0.5543	1.36055	0.00036
293.15	0.609	1.35745	0.00035
293.15	0.6529	1.35595	0.00034
293.15	0.7504	1.35211	0.00033
293.15	0.804	1.34788	0.00033
293.15	0.807	1.34773	0.00033
293.15	0.8727	1.34246	0.00032
293.15	0.9233	1.33564	0.00033
293.15	0.9253	1.33746	0.00033
293.15	0.9527	1.33431	0.00032
293.15	0.9773	1.33086	0.00032
293.15	0.989	1.32975	0.00032
293.15	0.9964	1.32831	0.00032
293.15	1	1.3273	0.00031
298.15	0	1.36373	0.00043
298.15	0.0423	1.3637	0.00042
298.15	0.0424	1.36367	0.00043
298.15	0.082	1.36365	0.00042
298.15	0.0822	1.36367	0.00042
298.15	0.1171	1.36352	0.00041
298.15	0.1271	1.36352	0.00041
298.15	0.1827	1.36317	0.0004
298.15	0.2162	1.3637	0.0004
298.15	0.251	1.36308	0.00039
298.15	0.3298	1.36231	0.00038
298.15	0.3577	1.36091	0.00037
298.15	0.4497	1.36004	0.00037
298.15	0.4525	1.36057	0.00037
298.15	0.522	1.35833	0.00037
298.15	0.5543	1.35777	0.00035
298.15	0.609	1.35507	0.00034
298.15	0.6529	1.3536	0.00034
298.15	0.7504	1.34978	0.00033
298.15	0.804	1.34562	0.00033
298.15	0.807	1.3455	0.00033
298.15	0.8727	1.34036	0.00032
298.15	0.9233	1.33353	0.00033
298.15	0.9253	1.33535	0.00033
298.15	0.9527	1.33222	0.00032
298.15	0.9773	1.32879	0.00032
298.15	0.989	1.32761	0.00032
298.15	0.9964	1.32621	0.00032
298.15	1	1.32535	0.00031
303.15	0	1.361	0.00043
303.15	0.0423	1.3637	0.00043
303.15	0.0424	1.36094	0.00043
303.15	0.082	1.3609	0.00042
303.15	0.0822	1.36099	0.00042
303.15	0.1171	1.36084	0.00041
303.15	0.1271	1.36086	0.00041
303.15	0.1827	1.36055	0.0004
303.15	0.2162	1.36036	0.0004
303.15	0.251	1.36039	0.00039
303.15	0.3298	1.35981	0.00038
303.15	0.3577	1.35999	0.00037
303.15	0.4497	1.3576	0.00037
303.15	0.4525	1.35805	0.00037
303.15	0.522	1.3559	0.00035
303.15	0.5543	1.35539	0.00035
303.15	0.609	1.35266	0.00034
303.15	0.6529	1.35122	0.00034
303.15	0.7504	1.34743	0.00033
303.15	0.804	1.34327	0.00033
303.15	0.807	1.3432	0.00033
303.15	0.8727	1.3382	0.00032
303.15	0.9233	1.33139	0.00033
303.15	0.9253	1.33317	0.00033
303.15	0.9527	1.33009	0.00032
303.15	0.9773	1.32665	0.00032
303.15	0.989	1.32555	0.00032
303.15	0.9964	1.32427	0.00031
303.15	1	1.32336	0.00031
308.15	0	1.35823	0.00043
308.15	0.0423	1.35813	0.00043
308.15	0.0424	1.35825	0.00043
308.15	0.082	1.35812	0.00042
308.15	0.0822	1.35825	0.00042
308.15	0.1171	1.35814	0.00041
308.15	0.1271	1.35813	0.00041
308.15	0.1827	1.35788	0.0004
308.15	0.2162	1.35771	0.0004
308.15	0.251	1.35735	0.00039
308.15	0.3298	1.35728	0.00038
308.15	0.3577	1.35703	0.00038
308.15	0.4497	1.35516	0.00037
308.15	0.4525	1.35557	0.00037
308.15	0.522	1.35341	0.00035
308.15	0.5543	1.35268	0.00035
308.15	0.609	1.35028	0.00034
308.15	0.6529	1.34881	0.00034
308.15	0.7504	1.345	0.00033
308.15	0.804	1.34088	0.00033
308.15	0.807	1.34066	0.00033
308.15	0.8727	1.33698	0.00032
308.15	0.9233	1.32908	0.00033
308.15	0.9253	1.331	0.00033
308.15	0.9527	1.32794	0.00032
308.15	0.9773	1.32455	0.00032
308.15	0.989	1.32334	0.00032
308.15	0.9964	1.32232	0.00032
308.15	1	1.32138	0.00031
313.15	0	1.35543	0.00043
313.15	0.0423	1.35534	0.00043
313.15	0.0424	1.3554	0.00043
313.15	0.082	1.35532	0.00042
313.15	0.0822	1.35552	0.00042
313.15	0.1171	1.35538	0.00041
313.15	0.1271	1.35538	0.00041
313.15	0.1827	1.35518	0.0004
313.15	0.2162	1.35505	0.0004
313.15	0.251	1.3546	0.00039
313.15	0.3298	1.35463	0.00038
313.15	0.3577	1.35388	0.00038
313.15	0.4497	1.35264	0.00037
313.15	0.4525	1.35302	0.00037
313.15	0.522	1.35091	0.00035
313.15	0.5543	1.35008	0.00035
313.15	0.609	1.34783	0.00034
313.15	0.6529	1.34638	0.00034
313.15	0.7504	1.34252	0.00033
313.15	0.804	1.33821	0.00033
313.15	0.807	1.33829	0.00033
313.15	0.8727	1.33482	0.00032
313.15	0.9233	1.32702	0.00033
313.15	0.9253	1.32867	0.00032
313.15	0.9527	1.32574	0.00032
313.15	0.9773	1.32248	0.00032
313.15	0.989	1.3213	0.00032
313.15	0.9964	1.32034	0.00032
313.15	1	1.31942	0.00031
318.15	0	1.35259	0.00044
318.15	0.0423	1.35256	0.00043
318.15	0.0424	1.35253	0.00043
318.15	0.082	1.35255	0.00042
318.15	0.0822	1.35267	0.00042
318.15	0.1171	1.35259	0.00041
318.15	0.1271	1.3526	0.00041
318.15	0.1827	1.35243	0.0004
318.15	0.2162	1.35233	0.0004
318.15	0.251	1.35185	0.00039
318.15	0.3298	1.35229	0.00038
318.15	0.3577	1.3512	0.00038
318.15	0.4497	1.3501	0.00038
318.15	0.4525	1.35071	0.00038
318.15	0.522	1.34842	0.00035
318.15	0.5543	1.34751	0.00035
318.15	0.609	1.34538	0.00034
318.15	0.6529	1.34386	0.00034
318.15	0.7504	1.3399	0.00034
318.15	0.804	1.33396	0.00035
318.15	0.807	1.33566	0.00034
318.15	0.8727	1.33269	0.00033
318.15	0.9233	1.32477	0.00032
318.15	0.9253	1.32641	0.00032
318.15	0.9527	1.32339	0.00032
318.15	0.9773	1.32042	0.00032
318.15	0.989	1.31921	0.00032
318.15	0.9964	1.31836	0.00032
318.15	1	1.31744	0.00031

System: methanol + diisopropyl ether; phases: Liquid
Fixed: Pressure, kPa = 101
Fixed: Wavelength, nm = 706.5
Property: Refractive index (other wavelength) (Liquid); method: Standard Abbe refractometry
Temperature, K	Mole fraction of methanol	Refractive index (other wavelength)	uncertainty
293.15	0	1.36501	0.00043
293.15	0.0423	1.36504	0.00043
293.15	0.0424	1.36476	0.00043
293.15	0.082	1.365	0.00042
293.15	0.0822	1.36487	0.00042
293.15	0.1171	1.36476	0.00041
293.15	0.1271	1.36479	0.00041
293.15	0.1827	1.36436	0.0004
293.15	0.2162	1.36414	0.0004
293.15	0.251	1.36436	0.00039
293.15	0.3298	1.3634	0.00038
293.15	0.3577	1.36197	0.00038
293.15	0.4497	1.3611	0.00037
293.15	0.4525	1.3616	0.00037
293.15	0.522	1.35939	0.00036
293.15	0.5543	1.35915	0.00035
293.15	0.609	1.35606	0.00035
293.15	0.6529	1.35456	0.00034
293.15	0.7504	1.3573	0.00034
293.15	0.804	1.34652	0.00033
293.15	0.807	1.34638	0.00033
293.15	0.8727	1.34113	0.00032
293.15	0.9233	1.33435	0.00033
293.15	0.9253	1.33617	0.00033
293.15	0.9527	1.33303	0.00034
293.15	0.9773	1.32963	0.00032
293.15	0.989	1.32951	0.00032
293.15	0.9964	1.32708	0.00032
293.15	1	1.3261	0.00031
298.15	0	1.36237	0.00043
298.15	0.0423	1.36228	0.00042
298.15	0.0424	1.36226	0.00043
298.15	0.082	1.36224	0.00042
298.15	0.0822	1.36226	0.00042
298.15	0.1171	1.3621	0.00041
298.15	0.1271	1.36211	0.00041
298.15	0.1827	1.36175	0.0004
298.15	0.2162	1.36228	0.0004
298.15	0.251	1.36166	0.00039
298.15	0.3298	1.36089	0.00038
298.15	0.3577	1.35951	0.00037
298.15	0.4497	1.35863	0.00037
298.15	0.4525	1.35916	0.00037
298.15	0.522	1.35694	0.00035
298.15	0.5543	1.35655	0.00035
298.15	0.609	1.35369	0.00034
298.15	0.6529	1.35223	0.00034
298.15	0.7504	1.34842	0.00035
298.15	0.804	1.34426	0.00033
298.15	0.807	1.34415	0.00033
298.15	0.8727	1.33906	0.00032
298.15	0.9233	1.33225	0.00033
298.15	0.9253	1.33407	0.00033
298.15	0.9527	1.3397	0.00032
298.15	0.9773	1.32755	0.00032
298.15	0.989	1.32641	0.00032
298.15	0.9964	1.32502	0.00032
298.15	1	1.32415	0.00031
303.15	0	1.3596	0.00043
303.15	0.0423	1.36228	0.00043
303.15	0.0424	1.35954	0.00043
303.15	0.082	1.35948	0.00042
303.15	0.0822	1.35685	0.00042
303.15	0.1171	1.35943	0.00041
303.15	0.1271	1.35944	0.00041
303.15	0.1827	1.35913	0.0004
303.15	0.2162	1.35895	0.0004
303.15	0.251	1.35898	0.00039
303.15	0.3298	1.35839	0.00038
303.15	0.3577	1.35898	0.00037
303.15	0.4497	1.35619	0.00037
303.15	0.4525	1.35666	0.00037
303.15	0.522	1.3545	0.00035
303.15	0.5543	1.35399	0.00035
303.15	0.609	1.35129	0.00034
303.15	0.6529	1.34985	0.00034
303.15	0.7504	1.34608	0.00033
303.15	0.804	1.34193	0.00033
303.15	0.807	1.34186	0.00033
303.15	0.8727	1.33691	0.00032
303.15	0.9233	1.33015	0.00033
303.15	0.9253	1.3319	0.00033
303.15	0.9527	1.32886	0.00034
303.15	0.9773	1.32546	0.00032
303.15	0.989	1.32216	0.00032
303.15	0.9964	1.32308	0.00031
303.15	1	1.32219	0.00031
308.15	0	1.35683	0.00043
308.15	0.0423	1.35672	0.00043
308.15	0.0424	1.35677	0.00043
308.15	0.082	1.35671	0.00042
308.15	0.0822	1.35685	0.00042
308.15	0.1171	1.35672	0.00041
308.15	0.1271	1.35672	0.00041
308.15	0.1827	1.35648	0.0004
308.15	0.2162	1.35631	0.0004
308.15	0.251	1.35595	0.00039
308.15	0.3298	1.35588	0.00038
308.15	0.3577	1.35565	0.00038
308.15	0.4497	1.35375	0.00037
308.15	0.4525	1.35416	0.00037
308.15	0.522	1.35202	0.00035
308.15	0.5543	1.35129	0.00035
308.15	0.609	1.34894	0.00034
308.15	0.6529	1.34745	0.00034
308.15	0.7504	1.34368	0.00033
308.15	0.804	1.33959	0.00033
308.15	0.807	1.33939	0.00033
308.15	0.8727	1.33572	0.00032
308.15	0.9233	1.32789	0.00033
308.15	0.9253	1.32976	0.00033
308.15	0.9527	1.32672	0.00032
308.15	0.9773	1.32336	0.00032
308.15	0.989	1.32216	0.00031
308.15	0.9964	1.32114	0.00031
308.15	1	1.32021	0.00031
313.15	0	1.35401	0.00043
313.15	0.0423	1.35395	0.00043
313.15	0.0424	1.35398	0.00043
313.15	0.082	1.35392	0.00042
313.15	0.0822	1.35411	0.00042
313.15	0.1171	1.35398	0.00041
313.15	0.1271	1.35399	0.00041
313.15	0.1827	1.35378	0.0004
313.15	0.2162	1.35364	0.0004
313.15	0.251	1.35322	0.00039
313.15	0.3298	1.35329	0.00038
313.15	0.3577	1.35251	0.00038
313.15	0.4497	1.35124	0.00037
313.15	0.4525	1.35165	0.00037
313.15	0.522	1.34954	0.00035
313.15	0.5543	1.3587	0.00035
313.15	0.609	1.34648	0.00035
313.15	0.6529	1.34501	0.00034
313.15	0.7504	1.34121	0.00033
313.15	0.804	1.33693	0.00033
313.15	0.807	1.33702	0.00033
313.15	0.8727	1.33354	0.00032
313.15	0.9233	1.32582	0.00032
313.15	0.9253	1.32745	0.00032
313.15	0.9527	1.32454	0.00032
313.15	0.9773	1.32131	0.00032
313.15	0.989	1.32103	0.00032
313.15	0.9964	1.31919	0.00032
313.15	1	1.31825	0.00031
318.15	0	1.3512	0.00043
318.15	0.0423	1.35117	0.00043
318.15	0.0424	1.35116	0.00043
318.15	0.082	1.35115	0.00042
318.15	0.0822	1.35128	0.00042
318.15	0.1171	1.3512	0.00041
318.15	0.1271	1.35122	0.00041
318.15	0.1827	1.35105	0.0004
318.15	0.2162	1.3594	0.0004
318.15	0.251	1.3545	0.00039
318.15	0.3298	1.35092	0.00038
318.15	0.3577	1.34984	0.00038
318.15	0.4497	1.34871	0.00038
318.15	0.4525	1.34936	0.00038
318.15	0.522	1.34709	0.00035
318.15	0.5543	1.34616	0.00043
318.15	0.609	1.34405	0.00034
318.15	0.6529	1.34255	0.00034
318.15	0.7504	1.33858	0.00034
318.15	0.804	1.33271	0.00035
318.15	0.807	1.33438	0.00034
318.15	0.8727	1.33146	0.00033
318.15	0.9233	1.3236	0.00032
318.15	0.9253	1.32521	0.00032
318.15	0.9527	1.32222	0.00032
318.15	0.9773	1.3193	0.00032
318.15	0.989	1.31807	0.00032
318.15	0.9964	1.31724	0.00032
318.15	1	1.31631	0.00031
