Measured thermophysical data. Ammonium ionic liquids as green solvents for drugs
Source: Fluid Phase Equilib., 2013, 10.1016/j.fluid.2012.11.029
Compound 1: Didecyldimethylammonium nitrate, C22H48N2O3, InChI=1S/C22H48N.NO3/c1-5-7-9-11-13-15-17-19-21-23(3,4)22-20-18-16-14-12-10-8-6-2;2-1(3)4/h5-22H2,1-4H3;/q+1;-1, purity 98%
Compound 2: Benzyllauryldimethylammonium nitrate, C21H38N2O3, InChI=1S/C21H38N.NO3/c1-4-5-6-7-8-9-10-11-12-16-19-22(2,3)20-21-17-14-13-15-18-21;2-1(3)4/h13-15,17-18H,4-12,16,19-20H2,1-3H3;/q+1;-1, purity 99%
Compound 3: (Benzyl)(dimethyl)(tetradecyl)ammonium nitrate, C23H42N2O3, InChI=1S/C23H42N.NO3/c1-4-5-6-7-8-9-10-11-12-13-14-18-21-24(2,3)22-23-19-16-15-17-20-23;2-1(3)4/h15-17,19-20H,4-14,18,21-22H2,1-3H3;/q+1;-1, purity 99%
Compound 4: isonicotinic acid hydrazide, C6H7N3O, InChI=1S/C6H7N3O/c7-9-6(10)5-1-3-8-4-2-5/h1-4H,7H2,(H,9,10), purity 99%
Compound 5: pyrazinecarboxamide, C5H5N3O, InChI=1S/C5H5N3O/c6-5(9)4-3-7-1-2-8-4/h1-3H,(H2,6,9), purity 98%
Compound 6: ethyl(2-hydroxyethyl)dimethylammonium bis{(trifluomethyl)sulfonyl}imide, C8H16F6N2O5S2, InChI=1S/C6H16NO.C2F6NO4S2/c1-4-7(2,3)5-6-8;3-1(4,5)14(10,11)9-15(12,13)2(6,7)8/h8H,4-6H2,1-3H3;/q+1;-1, purity 98%

System: Didecyldimethylammonium nitrate; phases: Crystal, Liquid, Air at 1 atmosphere
Property: Normal melting temperature, K (Crystal); method: DTA
Normal melting temperature, K	uncertainty
304.8	1.06

System: Didecyldimethylammonium nitrate; phases: Crystal, Liquid, Air at 1 atmosphere
Property: Molar enthalpy of transition or fusion, kJ/mol (Crystal); method: DSC
Molar enthalpy of transition or fusion, kJ/mol	uncertainty
9.76	0.328

System: isonicotinic acid hydrazide; phases: Crystal, Liquid, Air at 1 atmosphere
Property: Normal melting temperature, K (Crystal); method: DTA
Normal melting temperature, K	uncertainty
445.84	1.06

System: isonicotinic acid hydrazide; phases: Crystal, Liquid, Air at 1 atmosphere
Property: Molar enthalpy of transition or fusion, kJ/mol (Crystal); method: DSC
Molar enthalpy of transition or fusion, kJ/mol	uncertainty
27.912	0.795

System: pyrazinecarboxamide; phases: Crystal, Liquid, Air at 1 atmosphere
Property: Normal melting temperature, K (Crystal); method: DTA
Normal melting temperature, K	uncertainty
461.42	1.06

System: pyrazinecarboxamide; phases: Crystal, Liquid, Air at 1 atmosphere
Property: Molar enthalpy of transition or fusion, kJ/mol (Crystal); method: DSC
Molar enthalpy of transition or fusion, kJ/mol	uncertainty
28.135	0.803

System: ethyl(2-hydroxyethyl)dimethylammonium bis{(trifluomethyl)sulfonyl}imide; phases: Crystal 1, Liquid, Air at 1 atmosphere
Property: Normal melting temperature, K (Crystal 1); method: DTA
Normal melting temperature, K	uncertainty
279.16	1.06

System: ethyl(2-hydroxyethyl)dimethylammonium bis{(trifluomethyl)sulfonyl}imide; phases: Crystal 2, Crystal 1, Air at 1 atmosphere
Property: Triple point temperature, K (Crystal 2); method: DTA
Triple point temperature, K	uncertainty
262.48	1.06

System: ethyl(2-hydroxyethyl)dimethylammonium bis{(trifluomethyl)sulfonyl}imide; phases: Crystal 3, Crystal 2, Air at 1 atmosphere
Property: Triple point temperature, K (Crystal 3); method: DTA
Triple point temperature, K	uncertainty
233.02	1.06

System: ethyl(2-hydroxyethyl)dimethylammonium bis{(trifluomethyl)sulfonyl}imide; phases: Crystal, Liquid, Air at 1 atmosphere
Property: Molar enthalpy of transition or fusion, kJ/mol (Crystal); method: DSC
Molar enthalpy of transition or fusion, kJ/mol	uncertainty
2.79	0.17

System: ethyl(2-hydroxyethyl)dimethylammonium bis{(trifluomethyl)sulfonyl}imide; phases: Crystal 2, Crystal 1, Air at 1 atmosphere
Property: Molar enthalpy of transition or fusion, kJ/mol (Crystal 2); method: DSC
Molar enthalpy of transition or fusion, kJ/mol	uncertainty
0.82	0.14

System: ethyl(2-hydroxyethyl)dimethylammonium bis{(trifluomethyl)sulfonyl}imide; phases: Crystal 3, Crystal 2, Air at 1 atmosphere
Property: Molar enthalpy of transition or fusion, kJ/mol (Crystal 3); method: DSC
Molar enthalpy of transition or fusion, kJ/mol	uncertainty
9.98	2.01

System: isonicotinic acid hydrazide + Didecyldimethylammonium nitrate; phases: Liquid, Crystal
Fixed: Pressure, kPa = 101
Property: Solid-liquid equilibrium temperature, K (Liquid); method: VISOBS
Mole fraction of isonicotinic acid hydrazide	Solid-liquid equilibrium temperature, K	uncertainty
0.0452	308.36	0.68
0.0591	317.52	0.64
0.075	326.83	0.47
0.0993	335.51	0.42
0.1183	343.61	0.37
0.1488	352.63	0.31
0.1749	358.84	0.28
0.2032	365.18	0.28
0.2353	372.77	0.28
0.2727	381.26	0.27
0.3098	389.27	0.26
0.354	398.31	0.24
0.4114	407.64	0.21
0.4927	418.48	0.2

System: isonicotinic acid hydrazide + Benzyllauryldimethylammonium nitrate + (Benzyl)(dimethyl)(tetradecyl)ammonium nitrate; phases: Liquid, Crystal
Fixed: Pressure, kPa = 101
Fixed: Solvent: Mass fraction of Benzyllauryldimethylammonium nitrate = 0.4
Property: Solid-liquid equilibrium temperature, K (Liquid); method: VISOBS
Mole fraction of isonicotinic acid hydrazide	Solid-liquid equilibrium temperature, K	uncertainty
0.0429	321.38	0.63
0.0616	332.82	0.55
0.079	340.37	0.42
0.1065	350.31	0.37
0.1327	358.63	0.33
0.1674	368	0.31
0.1897	373.78	0.31
0.2217	382.3	0.29
0.2518	389.14	0.27
0.2831	396.23	0.26
0.3254	404.41	0.25
0.3817	415.71	0.25

System: isonicotinic acid hydrazide + ethyl(2-hydroxyethyl)dimethylammonium bis{(trifluomethyl)sulfonyl}imide; phases: Liquid, Crystal
Fixed: Pressure, kPa = 101
Property: Solid-liquid equilibrium temperature, K (Liquid); method: VISOBS
Mole fraction of isonicotinic acid hydrazide	Solid-liquid equilibrium temperature, K	uncertainty
0.0167	292.15	1.18
0.0235	300.13	1.02
0.0368	312.7	0.93
0.0497	324.24	0.71
0.0604	328.97	0.42
0.0772	334.93	0.43
0.099	344.42	0.44
0.1305	356.78	0.35
0.1918	373.99	0.29
0.2485	385.26	0.27
0.3236	402.51	0.28

System: pyrazinecarboxamide + Didecyldimethylammonium nitrate; phases: Liquid, Crystal
Fixed: Pressure, kPa = 101
Property: Solid-liquid equilibrium temperature, K (Liquid); method: VISOBS
Mole fraction of pyrazinecarboxamide	Solid-liquid equilibrium temperature, K	uncertainty
0.0343	320.3	0.68
0.0504	330.99	0.61
0.066	339.13	0.48
0.0786	343.63	0.38
0.0908	347.73	0.32
0.1026	350.4	0.32
0.1309	358.91	0.31
0.1598	365.57	0.3
0.1989	376.39	0.28
0.2349	382.89	0.23
0.2765	390.03	0.21
0.3326	396.77	0.2
0.3912	403.83	0.2

System: pyrazinecarboxamide + Benzyllauryldimethylammonium nitrate + (Benzyl)(dimethyl)(tetradecyl)ammonium nitrate; phases: Liquid, Crystal
Fixed: Pressure, kPa = 101
Fixed: Solvent: Mass fraction of Benzyllauryldimethylammonium nitrate = 0.4
Property: Solid-liquid equilibrium temperature, K (Liquid); method: VISOBS
Mole fraction of pyrazinecarboxamide	Solid-liquid equilibrium temperature, K	uncertainty
0.0168	319.63	2.52
0.0196	326.66	1.3
0.0264	332.82	0.78
0.0386	341.38	0.73
0.044	345.4	0.64
0.054	351	0.57
0.0664	357.73	0.52
0.078	362.93	0.46
0.0915	368.73	0.43
0.1045	373.67	0.34
0.1388	383.3	0.31
0.1695	391.12	0.23
0.2414	401.32	0.21

System: pyrazinecarboxamide + ethyl(2-hydroxyethyl)dimethylammonium bis{(trifluomethyl)sulfonyl}imide; phases: Liquid, Crystal
Fixed: Pressure, kPa = 101
Property: Solid-liquid equilibrium temperature, K (Liquid); method: VISOBS
Mole fraction of pyrazinecarboxamide	Solid-liquid equilibrium temperature, K	uncertainty
0.0068	293.19	1.4
0.0165	306.65	1.2
0.0361	328.36	0.84
0.0627	345.42	0.65
0.0988	368.24	0.45
0.129	373.18	0.26
0.1882	386.31	0.25
0.249	397.02	0.22
0.3375	409.67	0.21

System: Benzyllauryldimethylammonium nitrate + (Benzyl)(dimethyl)(tetradecyl)ammonium nitrate; phases: Liquid, Crystal 1
Property: Solid-liquid equilibrium temperature, K (Liquid); method: DTA
Mass fraction of Benzyllauryldimethylammonium nitrate	Pressure, kPa	Solid-liquid equilibrium temperature, K	uncertainty
0.4	101	310.7	1.1
