Measured thermophysical data. Solid-liquid equilibria and thermo-physical properties of liquid electrolyte systems for lithium ion batteries
Source: Fluid Phase Equilib., 2018, 10.1016/j.fluid.2018.05.033
Compound 1: dimethyl carbonate, C3H6O3, InChI=1S/C3H6O3/c1-5-3(4)6-2/h1-2H3
Compound 2: ethyl methyl carbonate, C4H8O3, InChI=1S/C4H8O3/c1-3-7-4(5)6-2/h3H2,1-2H3
Compound 3: ethylene carbonate, C3H4O3, InChI=1S/C3H4O3/c4-3-5-1-2-6-3/h1-2H2
Compound 4: 1,3,2-dioxathiolane, 2-oxide, C2H4O3S, InChI=1S/C2H4O3S/c3-6-4-1-2-5-6/h1-2H2
Compound 5: .gamma.-butyrolactone, C4H6O2, InChI=1S/C4H6O2/c5-4-2-1-3-6-4/h1-3H2

System: dimethyl carbonate; phases: Liquid
Property: Mass density, kg/m3 (Liquid); method: Vibrating tube method
Temperature, K	Pressure, kPa	Mass density, kg/m3	uncertainty
298.15	101.325	1060.87	0.14

System: dimethyl carbonate; phases: Liquid
Property: Refractive index (Na D-line) (Liquid); method: Standard Abbe refractometry
Temperature, K	Pressure, kPa	Refractive index (Na D-line)	uncertainty
298.15	101.325	1.3662	0.0004

System: dimethyl carbonate; phases: Crystal, Liquid, Air at 1 atmosphere
Property: Normal melting temperature, K (Crystal); method: Phase equilibration
Normal melting temperature, K	uncertainty
277.52	0.77

System: ethyl methyl carbonate; phases: Liquid
Property: Mass density, kg/m3 (Liquid); method: Vibrating tube method
Temperature, K	Pressure, kPa	Mass density, kg/m3	uncertainty
298.15	101.325	1006.88	0.13

System: ethyl methyl carbonate; phases: Liquid
Property: Refractive index (Na D-line) (Liquid); method: Standard Abbe refractometry
Temperature, K	Pressure, kPa	Refractive index (Na D-line)	uncertainty
298.15	101.325	1.3754	0.0004

System: ethyl methyl carbonate; phases: Crystal, Liquid, Air at 1 atmosphere
Property: Normal melting temperature, K (Crystal); method: Phase equilibration
Normal melting temperature, K	uncertainty
221.68	0.77

System: ethylene carbonate; phases: Liquid
Property: Mass density, kg/m3 (Liquid); method: Vibrating tube method
Temperature, K	Pressure, kPa	Mass density, kg/m3	uncertainty
318.15	101.325	1315.7	0.2

System: ethylene carbonate; phases: Liquid
Property: Refractive index (Na D-line) (Liquid); method: Standard Abbe refractometry
Temperature, K	Pressure, kPa	Refractive index (Na D-line)	uncertainty
318.15	101.325	1.4172	0.0004

System: ethylene carbonate; phases: Crystal, Liquid, Air at 1 atmosphere
Property: Normal melting temperature, K (Crystal); method: Phase equilibration
Normal melting temperature, K	uncertainty
310.56	0.77

System: 1,3,2-dioxathiolane, 2-oxide; phases: Liquid
Property: Mass density, kg/m3 (Liquid); method: Vibrating tube method
Temperature, K	Pressure, kPa	Mass density, kg/m3	uncertainty
298.15	101.325	1432.17	0.23

System: 1,3,2-dioxathiolane, 2-oxide; phases: Liquid
Property: Refractive index (Na D-line) (Liquid); method: Standard Abbe refractometry
Temperature, K	Pressure, kPa	Refractive index (Na D-line)	uncertainty
298.15	101.325	1.4449	0.0004

System: 1,3,2-dioxathiolane, 2-oxide; phases: Crystal, Liquid, Air at 1 atmosphere
Property: Normal melting temperature, K (Crystal); method: Phase equilibration
Normal melting temperature, K	uncertainty
256.14	0.77

System: .gamma.-butyrolactone; phases: Liquid
Property: Mass density, kg/m3 (Liquid); method: Vibrating tube method
Temperature, K	Pressure, kPa	Mass density, kg/m3	uncertainty
298.15	101.325	1124.97	0.15

System: .gamma.-butyrolactone; phases: Liquid
Property: Refractive index (Na D-line) (Liquid); method: Standard Abbe refractometry
Temperature, K	Pressure, kPa	Refractive index (Na D-line)	uncertainty
298.15	101.325	1.4349	0.0004

System: .gamma.-butyrolactone; phases: Crystal, Liquid, Air at 1 atmosphere
Property: Normal melting temperature, K (Crystal); method: Phase equilibration
Normal melting temperature, K	uncertainty
231.28	0.77

System: dimethyl carbonate + 1,3,2-dioxathiolane, 2-oxide; phases: Liquid, Crystal
Fixed: Pressure, kPa = 101.3
Property: Mole fraction of dimethyl carbonate (Liquid); method: Phase equilibration
Temperature, K	Mole fraction of dimethyl carbonate	uncertainty
256.14	0	
252.2	0.0501	0.0017
249.02	0.1	0.0019
242.95	0.1997	0.0019
235.78	0.3	0.0019
232.53	0.35	0.002

System: dimethyl carbonate + 1,3,2-dioxathiolane, 2-oxide; phases: Liquid, Crystal
Fixed: Pressure, kPa = 101.3
Property: Mole fraction of dimethyl carbonate (Liquid); method: Phase equilibration
Temperature, K	Mole fraction of dimethyl carbonate	uncertainty
237.92	0.4	0.0018
246.47	0.5	0.0019
254.18	0.5995	0.0021
261.12	0.6987	0.0024
267.08	0.7987	0.0027
272.39	0.8999	0.0029
274.87	0.95	0.003
277.52	1	

System: dimethyl carbonate + 1,3,2-dioxathiolane, 2-oxide; phases: Liquid
Fixed: Pressure, kPa = 101.3
Fixed: Temperature, K = 298.15
Property: Mass density, kg/m3 (Liquid); method: Vibrating tube method
Mole fraction of dimethyl carbonate	Mass density, kg/m3	uncertainty
0.0499	1412.39	0.46
0.0997	1392.6	0.45
0.2002	1353.25	0.44
0.2999	1314.96	0.43
0.4	1277.01	0.42
0.4997	1239.88	0.41
0.6004	1202.89	0.4
0.6998	1166.91	0.4
0.8009	1130.5	0.39
0.9002	1095.66	0.38
0.9505	1078.06	0.38

System: dimethyl carbonate + 1,3,2-dioxathiolane, 2-oxide; phases: Liquid
Fixed: Pressure, kPa = 101.3
Fixed: Temperature, K = 298.15
Property: Refractive index (Na D-line) (Liquid); method: Standard Abbe refractometry
Mole fraction of dimethyl carbonate	Refractive index (Na D-line)	uncertainty
0.0499	1.4407	0.0004
0.0997	1.4365	0.0004
0.2002	1.4283	0.0004
0.2999	1.4202	0.0004
0.4	1.4123	0.0004
0.4997	1.4044	0.0004
0.6004	1.3965	0.0004
0.6998	1.3889	0.0004
0.8009	1.3811	0.0004
0.9002	1.3737	0.0004
0.9505	1.37	0.0004

System: ethyl methyl carbonate + 1,3,2-dioxathiolane, 2-oxide; phases: Liquid, Crystal
Fixed: Pressure, kPa = 101.3
Property: Mole fraction of ethyl methyl carbonate (Liquid); method: Phase equilibration
Temperature, K	Mole fraction of ethyl methyl carbonate	uncertainty
256.14	0	
251.69	0.0502	0.0017
248.95	0.1	0.0022
244.01	0.1998	0.0022
238.48	0.2999	0.0022
233.15	0.4007	0.0022
227.05	0.5	0.0021
219.49	0.6001	0.002
209.92	0.7	0.0021

System: ethyl methyl carbonate + 1,3,2-dioxathiolane, 2-oxide; phases: Liquid, Crystal
Fixed: Pressure, kPa = 101.3
Property: Mole fraction of ethyl methyl carbonate (Liquid); method: Phase equilibration
Temperature, K	Mole fraction of ethyl methyl carbonate	uncertainty
210.8	0.73	0.004
212.76	0.7998	0.0034
216.73	0.8999	0.0031
219.36	0.9498	0.003
221.68	1	

System: ethyl methyl carbonate + 1,3,2-dioxathiolane, 2-oxide; phases: Liquid
Fixed: Pressure, kPa = 101.3
Fixed: Temperature, K = 298.15
Property: Mass density, kg/m3 (Liquid); method: Vibrating tube method
Mole fraction of ethyl methyl carbonate	Mass density, kg/m3	uncertainty
0.0498	1404.65	0.58
0.0994	1378	0.56
0.1993	1326.76	0.54
0.2998	1278.43	0.5
0.3996	1233.17	0.47
0.5008	1189.88	0.45
0.5995	1149.94	0.42
0.7001	1111.21	0.4
0.8002	1074.73	0.38
0.8995	1040.17	0.37
0.9501	1023.08	0.36

System: ethyl methyl carbonate + 1,3,2-dioxathiolane, 2-oxide; phases: Liquid
Fixed: Pressure, kPa = 101.3
Fixed: Temperature, K = 298.15
Property: Refractive index (Na D-line) (Liquid); method: Standard Abbe refractometry
Mole fraction of ethyl methyl carbonate	Refractive index (Na D-line)	uncertainty
0.0498	1.4405	0.0004
0.0994	1.4361	0.0004
0.1993	1.4279	0.0004
0.2998	1.42	0.0004
0.3996	1.4127	0.0004
0.5008	1.4056	0.0004
0.5995	1.3991	0.0004
0.7001	1.3927	0.0004
0.8002	1.3867	0.0004
0.8995	1.381	0.0004
0.9501	1.3782	0.0004

System: ethylene carbonate + 1,3,2-dioxathiolane, 2-oxide; phases: Liquid, Crystal
Fixed: Pressure, kPa = 101.3
Property: Mole fraction of ethylene carbonate (Liquid); method: Phase equilibration
Temperature, K	Mole fraction of ethylene carbonate	uncertainty
256.14	0	
251.92	0.0503	0.0018
249.36	0.1002	0.0021
246.6	0.1502	0.0021
243.75	0.2009	0.0022
241.93	0.2402	0.0024

System: ethylene carbonate + 1,3,2-dioxathiolane, 2-oxide; phases: Liquid, Crystal
Fixed: Pressure, kPa = 101.3
Property: Mole fraction of ethylene carbonate (Liquid); method: Phase equilibration
Temperature, K	Mole fraction of ethylene carbonate	uncertainty
245.05	0.26	0.0014
246.36	0.2702	0.0013
248.01	0.2797	0.0013
252.11	0.3004	0.0014
264.22	0.4	0.0016
273.16	0.4999	0.0018
281.73	0.5987	0.002
289.56	0.6999	0.0022
296.68	0.8	0.0024
303.35	0.9	0.0026
306.46	0.9501	0.0026
310.56	1	

System: ethylene carbonate + 1,3,2-dioxathiolane, 2-oxide; phases: Liquid
Fixed: Pressure, kPa = 101.3
Fixed: Temperature, K = 318.15
Property: Mass density, kg/m3 (Liquid); method: Vibrating tube method
Mole fraction of ethylene carbonate	Mass density, kg/m3	uncertainty
0.0492	1403.48	0.24
0.0998	1399.66	0.24
0.2011	1391.76	0.23
0.3	1383.61	0.23
0.4024	1374.81	0.23
0.5005	1366.04	0.23
0.5994	1356.86	0.23
0.6997	1347.14	0.23
0.8005	1337	0.23
0.8996	1326.62	0.23
0.9494	1321.21	0.23

System: ethylene carbonate + 1,3,2-dioxathiolane, 2-oxide; phases: Liquid
Fixed: Pressure, kPa = 101.3
Fixed: Temperature, K = 318.15
Property: Refractive index (Na D-line) (Liquid); method: Standard Abbe refractometry
Mole fraction of ethylene carbonate	Refractive index (Na D-line)	uncertainty
0.0492	1.4358	0.0004
0.0998	1.435	0.0004
0.2011	1.4333	0.0004
0.3	1.4315	0.0004
0.4024	1.4297	0.0004
0.5005	1.4278	0.0004
0.5994	1.4259	0.0004
0.6997	1.4238	0.0004
0.8005	1.4217	0.0004
0.8996	1.4196	0.0004
0.9494	1.4185	0.0004

System: .gamma.-butyrolactone + 1,3,2-dioxathiolane, 2-oxide; phases: Liquid, Crystal
Fixed: Pressure, kPa = 101.3
Property: Mole fraction of .gamma.-butyrolactone (Liquid); method: Phase equilibration
Temperature, K	Mole fraction of .gamma.-butyrolactone	uncertainty
256.14	0	
252.33	0.0526	0.0019
250.04	0.0997	0.0019
243.02	0.2002	0.0018
236.19	0.2962	0.0018
227.87	0.4002	0.0018
220.05	0.4998	0.0019
210.96	0.5987	0.0019

System: .gamma.-butyrolactone + 1,3,2-dioxathiolane, 2-oxide; phases: Liquid, Crystal
Fixed: Pressure, kPa = 101.3
Property: Mole fraction of .gamma.-butyrolactone (Liquid); method: Phase equilibration
Temperature, K	Mole fraction of .gamma.-butyrolactone	uncertainty
215	0.6989	0.0023
221.79	0.7993	0.0027
226.15	0.8999	0.0032
228.28	0.9496	0.003
231.28	1	

System: .gamma.-butyrolactone + 1,3,2-dioxathiolane, 2-oxide; phases: Liquid
Fixed: Pressure, kPa = 101.3
Fixed: Temperature, K = 298.15
Property: Mass density, kg/m3 (Liquid); method: Vibrating tube method
Mole fraction of .gamma.-butyrolactone	Mass density, kg/m3	uncertainty
0.0501	1417.36	0.39
0.1008	1401.19	0.39
0.2006	1369.54	0.38
0.2991	1338.59	0.37
0.4102	1303.97	0.37
0.4994	1276.38	0.36
0.5998	1245.54	0.35
0.701	1214.73	0.35
0.7995	1184.91	0.34
0.9002	1154.7	0.34
0.9495	1139.97	0.34

System: .gamma.-butyrolactone + 1,3,2-dioxathiolane, 2-oxide; phases: Liquid
Fixed: Pressure, kPa = 101.3
Fixed: Temperature, K = 298.15
Property: Refractive index (Na D-line) (Liquid); method: Standard Abbe refractometry
Mole fraction of .gamma.-butyrolactone	Refractive index (Na D-line)	uncertainty
0.0501	1.4443	0.0004
0.1008	1.4437	0.0004
0.2006	1.4425	0.0004
0.2991	1.4414	0.0004
0.4102	1.4402	0.0004
0.4994	1.4392	0.0004
0.5998	1.4382	0.0004
0.701	1.4373	0.0004
0.7995	1.4365	0.0004
0.9002	1.4356	0.0004
0.9495	1.4353	0.0004
