Measured thermophysical data. Density and refractive index measurements of critical mixture 1,4-dioxane + water + saturated KCl in homogenous phase region
Source: Fluid Phase Equilib., 2010, 10.1016/j.fluid.2010.02.018
Compound 1: 1,4-dioxane, C4H8O2, InChI=1S/C4H8O2/c1-2-6-4-3-5-1/h1-4H2
Compound 2: water, H2O, InChI=1S/H2O/h1H2, purity 99.9%
Compound 3: potassium chloride, ClK, InChI=1S/ClH.K/h1H;/q;+1/p-1

System: 1,4-dioxane + potassium chloride + water; phases: Liquid
Fixed: Pressure, kPa = 101
Property: Refractive index (Na D-line) (Liquid); method: Standard Abbe refractometry
Temperature, K	Molality, mol/kg of potassium chloride	Mass fraction of water	Refractive index (Na D-line)	uncertainty
298.15	1.446	0.5	1.389	0.0005
298.151	0.47	0.2	1.4106	0.0007
298.153	0.792	0.4	1.3954	0.0005
298.158	0.488	0.25	1.4065	0.0005
298.205	0.55	0.328	1.3967	0.0006
298.243	1.154	0.45	1.392	0.0005
298.662	0.47	0.2	1.4105	0.0007
298.685	1.154	0.45	1.3919	0.0005
298.706	0.488	0.25	1.4064	0.0005
298.752	0.792	0.4	1.3953	0.0005
298.802	1.446	0.5	1.3889	0.0005
298.827	0.55	0.328	1.3966	0.0006
299.086	0.47	0.2	1.4104	0.0007
299.16	0.792	0.4	1.3953	0.0005
299.162	0.488	0.25	1.4063	0.0005
299.26	1.446	0.5	1.3889	0.0005
299.31	1.154	0.45	1.3918	0.0005
299.311	0.55	0.328	1.3965	0.0006
299.585	0.47	0.2	1.4103	0.0007
299.653	0.792	0.4	1.3952	0.0005
299.66	0.488	0.25	1.4062	0.0005
299.783	1.446	0.5	1.3888	0.0005
299.82	0.55	0.328	1.3964	0.0006
300.132	1.154	0.45	1.3918	0.0005
300.144	0.47	0.2	1.4102	0.0007
300.151	0.792	0.4	1.3951	0.0005
300.153	0.488	0.25	1.406	0.0005
300.194	1.771	0.55	1.386	0.0005
300.283	1.446	0.5	1.3888	0.0005
300.294	0.55	0.328	1.3963	0.0006
300.632	1.154	0.45	1.3917	0.0005
300.662	1.771	0.55	1.386	0.0005
300.676	0.47	0.2	1.4101	0.0007
300.69	0.792	0.4	1.395	0.0005
300.76	1.446	0.5	1.3887	0.0005
300.83	0.55	0.328	1.3962	0.0006
300.902	0.488	0.25	1.4058	0.0005
301.113	1.154	0.45	1.3916	0.0005
301.173	1.771	0.55	1.3859	0.0005
301.174	0.47	0.2	1.4099	0.0007
301.28	1.446	0.5	1.3887	0.0005
301.322	0.792	0.4	1.3949	0.0005
301.565	0.488	0.25	1.4057	0.0005
301.576	1.154	0.45	1.3916	0.0005
301.59	0.55	0.328	1.3961	0.0006
301.674	0.47	0.2	1.4098	0.0007
301.754	1.446	0.5	1.3886	0.0005
301.77	1.771	0.55	1.3859	0.0005
301.82	0.792	0.4	1.3949	0.0005
301.986	0.55	0.328	1.396	0.0006
302.102	1.154	0.45	1.3915	0.0005
302.165	0.47	0.2	1.4097	0.0007
302.167	0.792	0.4	1.3948	0.0005
302.22	1.906	0.57	1.3842	0.0005
302.255	1.446	0.5	1.3886	0.0005
302.28	1.771	0.55	1.3859	0.0005
302.305	0.488	0.25	1.4056	0.0005
302.48	0.55	0.328	1.3959	0.0006
302.641	0.47	0.2	1.4095	0.0007
302.654	1.154	0.45	1.3915	0.0005
302.674	0.792	0.4	1.3948	0.0005
302.772	1.446	0.5	1.3886	0.0005
302.786	1.771	0.55	1.3858	0.0005
302.954	0.488	0.25	1.4053	0.0005
302.968	0.55	0.328	1.3958	0.0006
302.973	0.792	0.4	1.3947	0.0005
303.037	0.47	0.2	1.4094	0.0007
303.142	1.154	0.45	1.3914	0.0005
303.166	1.906	0.57	1.3841	0.0005
303.256	1.771	0.55	1.3858	0.0005
303.258	1.446	0.5	1.3885	0.0005
303.436	0.488	0.25	1.4052	0.0005
303.444	0.792	0.4	1.3947	0.0005
303.505	0.55	0.328	1.3957	0.0006
303.608	1.154	0.45	1.3914	0.0005
303.64	0.47	0.2	1.4093	0.0007
303.749	1.446	0.5	1.3885	0.0005
303.759	1.771	0.55	1.3858	0.0005
303.843	0.792	0.4	1.3946	0.0005
304.066	0.55	0.328	1.3956	0.0006
304.07	0.47	0.2	1.4092	0.0007
304.153	0.792	0.4	1.3945	0.0005
304.167	0.488	0.25	1.4051	0.0005
304.202	1.154	0.45	1.3913	0.0005
304.213	1.906	0.57	1.384	0.0005
304.248	1.771	0.55	1.3857	0.0005
304.305	1.446	0.5	1.3884	0.0005
304.49	0.55	0.328	1.3955	0.0006
304.597	0.47	0.2	1.409	0.0007
304.686	1.154	0.45	1.3912	0.0005
304.713	0.792	0.4	1.3944	0.0005
304.758	1.771	0.55	1.3857	0.0005
304.772	1.446	0.5	1.3884	0.0005
304.852	0.488	0.25	1.4051	0.0005
305.07	0.792	0.4	1.3944	0.0005
305.155	0.55	0.328	1.3954	0.0006
305.16	1.906	0.57	1.3839	0.0005
305.163	0.488	0.25	1.4049	0.0005
305.172	0.47	0.2	1.4089	0.0007
305.271	1.771	0.55	1.3857	0.0005
305.274	1.154	0.45	1.3911	0.0005
305.29	1.446	0.5	1.3883	0.0005
305.355	0.792	0.4	1.3943	0.0005
305.615	0.55	0.328	1.3953	0.0006
305.653	0.47	0.2	1.4088	0.0007
305.674	1.154	0.45	1.3911	0.0005
305.696	0.488	0.25	1.4048	0.0005
305.758	1.771	0.55	1.3856	0.0005
305.771	1.446	0.5	1.3883	0.0005
305.921	0.792	0.4	1.3943	0.0005
306.012	0.55	0.328	1.3952	0.0006
306.05	1.906	0.57	1.3839	0.0005
306.16	1.446	0.5	1.3882	0.0005
306.176	0.47	0.2	1.4086	0.0007
306.19	0.792	0.4	1.3942	0.0005
306.19	1.154	0.45	1.391	0.0005
306.231	1.771	0.55	1.3856	0.0005
306.255	0.488	0.25	1.4046	0.0005
306.274	0.55	0.328	1.3952	0.0006
306.35	2.039	0.6	1.3816	0.0005
306.636	0.792	0.4	1.3942	0.0005
306.662	0.47	0.2	1.4085	0.0007
306.701	0.55	0.328	1.3951	0.0006
306.703	1.154	0.45	1.391	0.0005
306.757	1.446	0.5	1.3882	0.0005
306.771	1.771	0.55	1.3856	0.0005
306.812	0.488	0.25	1.4045	0.0005
307.01	0.55	0.328	1.395	0.0006
307.151	0.488	0.25	1.4044	0.0005
307.152	0.47	0.2	1.4084	0.0007
307.181	1.154	0.45	1.3909	0.0005
307.209	0.792	0.4	1.3941	0.0005
307.251	1.446	0.5	1.3881	0.0005
307.259	2.039	0.6	1.3816	0.0005
307.272	1.771	0.55	1.3855	0.0005
307.285	1.906	0.57	1.3838	0.0005
307.31	0.55	0.328	1.395	0.0006
307.545	1.771	0.55	1.3855	0.0005
307.56	1.154	0.45	1.3909	0.0005
307.647	0.55	0.328	1.3949	0.0006
307.653	0.488	0.25	1.4043	0.0005
307.73	0.792	0.4	1.394	0.0005
307.758	0.47	0.2	1.4082	0.0007
307.762	1.446	0.5	1.3881	0.0005
307.972	1.771	0.55	1.3855	0.0005
307.975	0.55	0.328	1.3949	0.0006
307.992	1.154	0.45	1.3908	0.0005
308.092	0.792	0.4	1.394	0.0005
308.154	0.488	0.25	1.4042	0.0005
308.179	1.906	0.57	1.3837	0.0005
308.246	2.039	0.6	1.3815	0.0005
308.267	1.446	0.5	1.388	0.0005
308.283	0.55	0.328	1.3948	0.0006
308.287	0.47	0.2	1.4081	0.0007
308.287	1.771	0.55	1.3854	0.0005
308.343	1.154	0.45	1.3908	0.0005
308.48	1.446	0.5	1.388	0.0005
308.52	0.55	0.328	1.3948	0.0006
308.541	1.154	0.45	1.3907	0.0005
308.683	0.792	0.4	1.3939	0.0005
308.708	1.771	0.55	1.3854	0.0005
308.76	0.47	0.2	1.4079	0.0007
308.806	0.55	0.328	1.3947	0.0006
308.814	0.488	0.25	1.4041	0.0005
308.843	1.446	0.5	1.3879	0.0005
308.882	1.906	0.57	1.3837	0.0005
308.97	1.154	0.45	1.3907	0.0005
309.04	0.55	0.328	1.3946	0.0006
309.102	1.771	0.55	1.3854	0.0005
309.17	0.488	0.25	1.4039	0.0005
309.215	1.154	0.45	1.3907	0.0005
309.23	0.47	0.2	1.4078	0.0007
309.264	2.039	0.6	1.3814	0.0005
309.275	0.55	0.328	1.3946	0.0006
309.281	0.792	0.4	1.3938	0.0005
309.282	1.446	0.5	1.3879	0.0005
309.501	1.154	0.45	1.3906	0.0005
309.52	0.55	0.328	1.3945	0.0006
309.586	1.771	0.55	1.3854	0.0005
309.611	0.792	0.4	1.3937	0.0005
309.68	0.488	0.25	1.4038	0.0005
309.683	1.446	0.5	1.3879	0.0005
309.8	0.55	0.328	1.3945	0.0006
309.814	0.47	0.2	1.4077	0.0007
309.841	1.154	0.45	1.3906	0.0005
309.86	1.906	0.57	1.3836	0.0005
309.917	1.771	0.55	1.3853	0.0005
309.96	0.792	0.4	1.3936	0.0005
310.043	0.55	0.328	1.3944	0.0006
310.065	1.154	0.45	1.3905	0.0005
310.137	1.446	0.5	1.3878	0.0005
310.15	0.792	0.4	1.3936	0.0005
310.164	0.488	0.25	1.4037	0.0005
310.278	1.771	0.55	1.3853	0.0005
310.32	0.55	0.328	1.3944	0.0006
310.358	0.47	0.2	1.4076	0.0007
310.392	2.039	0.6	1.3814	0.0005
310.563	1.771	0.55	1.3853	0.0005
310.613	0.792	0.4	1.3935	0.0005
310.615	1.446	0.5	1.3878	0.0005
310.618	1.154	0.45	1.3904	0.0005
310.731	0.47	0.2	1.4075	0.0007
310.843	0.488	0.25	1.4036	0.0005
310.86	1.906	0.57	1.3835	0.0005
310.934	1.154	0.45	1.3904	0.0005
310.95	1.446	0.5	1.3877	0.0005
310.958	1.771	0.55	1.3853	0.0005
311.11	0.792	0.4	1.3935	0.0005
311.151	0.488	0.25	1.4035	0.0005
311.202	1.771	0.55	1.3852	0.0005
311.239	0.47	0.2	1.4073	0.0007
311.252	2.039	0.6	1.3813	0.0005
311.274	1.154	0.45	1.3903	0.0005
311.365	1.446	0.5	1.3877	0.0005
311.565	1.154	0.45	1.3903	0.0005
311.581	0.47	0.2	1.4072	0.0007
311.59	1.771	0.55	1.3852	0.0005
311.68	0.488	0.25	1.4034	0.0005
311.72	1.446	0.5	1.3876	0.0005
311.829	1.154	0.45	1.3903	0.0005
311.835	1.906	0.57	1.3835	0.0005
311.921	1.154	0.45	1.3902	0.0005
311.921	1.771	0.55	1.3852	0.0005
311.923	0.47	0.2	1.4072	0.0007
312.048	2.039	0.6	1.3813	0.0005
312.12	1.446	0.5	1.3876	0.0005
312.2	1.771	0.55	1.3852	0.0005
312.223	0.488	0.25	1.4033	0.0005
312.274	0.47	0.2	1.4071	0.0007
312.32	1.154	0.45	1.3902	0.0005
312.51	1.446	0.5	1.3875	0.0005
312.519	0.47	0.2	1.407	0.0006
312.59	1.771	0.55	1.3851	0.0005
312.758	2.039	0.6	1.3812	0.0005
312.834	1.906	0.57	1.3834	0.0005
312.881	1.771	0.55	1.3851	0.0005
312.898	0.47	0.2	1.4069	0.0006
312.952	1.446	0.5	1.3875	0.0005
313.22	1.771	0.55	1.3851	0.0005
313.226	1.446	0.5	1.3875	0.0005
313.227	0.47	0.2	1.4068	0.0006
313.428	0.47	0.2	1.4068	0.0006
313.499	2.039	0.6	1.3812	0.0005
313.529	1.446	0.5	1.3874	0.0005
313.548	1.771	0.55	1.385	0.0005
313.648	1.446	0.5	1.3874	0.0005
313.67	0.47	0.2	1.4067	0.0006
313.853	1.906	0.57	1.3833	0.0005
313.913	1.446	0.5	1.3874	0.0005
313.965	1.771	0.55	1.385	0.0005
314.207	2.039	0.6	1.3811	0.0005
314.305	1.771	0.55	1.385	0.0005
314.58	1.771	0.55	1.385	0.0005
314.754	1.906	0.57	1.3833	0.0005
314.85	1.771	0.55	1.3849	0.0005
314.859	2.039	0.6	1.3811	0.0005
315.231	1.771	0.55	1.3849	0.0005
315.467	2.039	0.6	1.381	0.0005
315.552	1.771	0.55	1.3849	0.0005
315.766	1.906	0.57	1.3832	0.0005
315.86	1.771	0.55	1.3848	0.0005
316.217	2.039	0.6	1.381	0.0005
316.231	1.771	0.55	1.3848	0.0005
316.51	1.771	0.55	1.3848	0.0005
316.628	1.906	0.57	1.3831	0.0005
316.883	2.039	0.6	1.381	0.0005
316.896	1.771	0.55	1.3847	0.0005
317.485	1.771	0.55	1.3847	0.0005
317.486	2.039	0.6	1.3809	0.0005
317.632	1.906	0.57	1.3831	0.0005
318.166	2.039	0.6	1.3809	0.0005
318.87	1.906	0.57	1.383	0.0005
318.972	2.039	0.6	1.3808	0.0005
319.59	2.039	0.6	1.3808	0.0005
319.86	1.906	0.57	1.3829	0.0005
320.04	2.039	0.6	1.3808	0.0005
320.502	2.039	0.6	1.3807	0.0005
320.825	1.906	0.57	1.3828	0.0005
321.091	2.039	0.6	1.3807	0.0005
321.62	2.039	0.6	1.3807	0.0005
321.75	1.906	0.57	1.3828	0.0005
322.27	2.039	0.6	1.3806	0.0005
322.5	1.906	0.57	1.3827	0.0005
322.76	2.039	0.6	1.3806	0.0005
323.123	1.906	0.57	1.3827	0.0005
323.248	2.039	0.6	1.3805	0.0005
323.72	2.039	0.6	1.3805	0.0005
324.101	2.039	0.6	1.3805	0.0005
324.197	1.906	0.57	1.3826	0.0005
324.721	2.039	0.6	1.3804	0.0005
325.31	2.039	0.6	1.3804	0.0005
325.705	2.039	0.6	1.3804	0.0005
326.028	2.039	0.6	1.3803	0.0005
326.351	2.039	0.6	1.3803	0.0005
326.75	2.039	0.6	1.3803	0.0005
327.06	2.039	0.6	1.3803	0.0005

System: 1,4-dioxane + potassium chloride + water; phases: Liquid
Fixed: Pressure, kPa = 101
Property: Mass density, kg/m3 (Liquid); method: Vibrating tube method
Temperature, K	Molality, mol/kg of potassium chloride	Mass fraction of water	Mass density, kg/m3	uncertainty
298.15	1.446	0.5	1084.2	0.5
298.151	0.47	0.2	1039.4	1.1
298.153	0.792	0.4	1065.1	0.2
298.158	0.488	0.25	1048.5	0.4
298.205	0.55	0.328	1057.5	0.3
298.243	1.154	0.45	1078.8	0.3
298.662	0.47	0.2	1038.8	1.1
298.685	1.154	0.45	1078.5	0.3
298.706	0.488	0.25	1047.9	0.4
298.752	0.792	0.4	1064.6	0.2
298.802	1.446	0.5	1083.8	0.5
298.827	0.55	0.328	1056.9	0.3
299.086	0.47	0.2	1038.4	1.1
299.16	0.792	0.4	1064.3	0.2
299.162	0.488	0.25	1047.4	0.4
299.26	1.446	0.5	1083.4	0.4
299.31	1.154	0.45	1077.9	0.3
299.311	0.55	0.328	1056.5	0.3
299.585	0.47	0.2	1037.7	1.1
299.653	0.792	0.4	1063.8	0.2
299.66	0.488	0.25	1046.9	0.4
299.783	1.446	0.5	1083.1	0.4
299.82	0.55	0.328	1056.1	0.3
300.132	1.154	0.45	1077.3	0.3
300.144	0.47	0.2	1037.1	1.1
300.151	0.792	0.4	1063.4	0.2
300.153	0.488	0.25	1046.4	0.4
300.194	1.771	0.55	1090.3	0.4
300.283	1.446	0.5	1082.7	0.4
300.294	0.55	0.328	1055.5	0.3
300.632	1.154	0.45	1076.9	0.3
300.662	1.771	0.55	1089.9	0.4
300.676	0.47	0.2	1036.5	1.1
300.69	0.792	0.4	1063.1	0.2
300.76	1.446	0.5	1082.4	0.4
300.83	0.55	0.328	1055.1	0.3
300.902	0.488	0.25	1045.6	0.4
301.113	1.154	0.45	1076.6	0.3
301.173	1.771	0.55	1089.6	0.3
301.174	0.47	0.2	1035.7	1.1
301.28	1.446	0.5	1082.1	0.4
301.322	0.792	0.4	1062.4	0.2
301.565	0.488	0.25	1044.9	0.5
301.576	1.154	0.45	1076.2	0.3
301.59	0.55	0.328	1054.4	0.3
301.674	0.47	0.2	1035.1	1.1
301.754	1.446	0.5	1081.7	0.4
301.77	1.771	0.55	1089.3	0.4
301.82	0.792	0.4	1061.9	0.2
301.986	0.55	0.328	1054.1	0.3
302.102	1.154	0.45	1075.8	0.3
302.165	0.47	0.2	1034.6	1.1
302.167	0.792	0.4	1061.7	0.2
302.22	1.906	0.57	1096.3	0.4
302.255	1.446	0.5	1081.3	0.4
302.28	1.771	0.55	1088.9	0.3
302.305	0.488	0.25	1044.1	0.5
302.48	0.55	0.328	1053.5	0.3
302.641	0.47	0.2	1034.1	1.1
302.654	1.154	0.45	1075.4	0.3
302.674	0.792	0.4	1061.2	0.2
302.772	1.446	0.5	1080.9	0.4
302.786	1.771	0.55	1088.6	0.4
302.954	0.488	0.25	1043.4	0.5
302.968	0.55	0.328	1053.1	0.3
302.973	0.792	0.4	1060.9	0.2
303.037	0.47	0.2	1033.6	1.1
303.142	1.154	0.45	1075	1
303.166	1.906	0.57	1095.8	0.4
303.256	1.771	0.55	1088.3	0.4
303.258	1.446	0.5	1080.6	0.4
303.436	0.488	0.25	1042.9	0.4
303.444	0.792	0.4	1060.6	0.2
303.505	0.55	0.328	1052.6	0.3
303.608	1.154	0.45	1074.7	0.3
303.64	0.47	0.2	1033.1	1.1
303.749	1.446	0.5	1080.3	0.4
303.759	1.771	0.55	1088.1	0.4
303.843	0.792	0.4	1060.3	0.3
304.066	0.55	0.328	1052	0.3
304.07	0.47	0.2	1032.7	1.1
304.153	0.792	0.4	1059.9	0.2
304.167	0.488	0.25	1042.1	0.4
304.202	1.154	0.45	1074.3	0.3
304.213	1.906	0.57	1095.1	0.4
304.248	1.771	0.55	1087.7	0.3
304.305	1.446	0.5	1079.8	0.4
304.49	0.55	0.328	1051.6	0.3
304.597	0.47	0.2	1032.1	1.1
304.686	1.154	0.45	1073.8	0.3
304.713	0.792	0.4	1059.5	0.3
304.758	1.771	0.55	1087.4	0.4
304.772	1.446	0.5	1079.6	0.4
304.852	0.488	0.25	1041.4	0.4
305.07	0.792	0.4	1059.2	0.3
305.155	0.55	0.328	1051	0.3
305.16	1.906	0.57	1094.6	0.4
305.163	0.488	0.25	1041.1	0.5
305.172	0.47	0.2	1031.3	1.1
305.271	1.771	0.55	1087.1	0.4
305.274	1.154	0.45	1073.5	0.3
305.29	1.446	0.5	1079.2	0.4
305.355	0.792	0.4	1058.9	0.2
305.615	0.55	0.328	1050.6	0.3
305.653	0.47	0.2	1030.8	1.1
305.674	1.154	0.45	1073.2	0.3
305.696	0.488	0.25	1040.5	0.5
305.758	1.771	0.55	1086.7	0.4
305.771	1.446	0.5	1078.8	0.4
305.921	0.792	0.4	1058.5	0.3
306.012	0.55	0.328	1050.2	0.3
306.05	1.906	0.57	1094	0.4
306.16	1.446	0.5	1078.6	0.3
306.176	0.47	0.2	1030.2	1.1
306.19	0.792	0.4	1058.2	0.3
306.19	1.154	0.45	1072.6	0.3
306.231	1.771	0.55	1086.5	0.4
306.255	0.488	0.25	1039.9	0.5
306.274	0.55	0.328	1049.9	0.3
306.35	2.039	0.6	1102.8	0.3
306.636	0.792	0.4	1057.8	0.3
306.662	0.47	0.2	1029.6	1.1
306.701	0.55	0.328	1049.6	0.3
306.703	1.154	0.45	1072.4	0.3
306.757	1.446	0.5	1078.2	0.4
306.771	1.771	0.55	1086.1	0.4
306.812	0.488	0.25	1039.3	0.5
307.01	0.55	0.328	1049.3	0.3
307.151	0.488	0.25	1038.9	0.5
307.152	0.47	0.2	1028.9	1.1
307.181	1.154	0.45	1071.9	0.3
307.209	0.792	0.4	1057.4	0.3
307.251	1.446	0.5	1077.9	0.4
307.259	2.039	0.6	1102.3	0.3
307.272	1.771	0.55	1085.8	0.4
307.285	1.906	0.57	1093.2	0.4
307.31	0.55	0.328	1048.9	0.3
307.545	1.771	0.55	1085.6	0.4
307.56	1.154	0.45	1071.7	0.3
307.647	0.55	0.328	1048.7	0.3
307.653	0.488	0.25	1038.4	0.5
307.73	0.792	0.4	1057.1	0.3
307.758	0.47	0.2	1028.3	1.2
307.762	1.446	0.5	1077.5	0.4
307.972	1.771	0.55	1085.4	0.4
307.975	0.55	0.328	1048.4	0.3
307.992	1.154	0.45	1071.4	0.3
308.092	0.792	0.4	1056.7	0.3
308.154	0.488	0.25	1037.9	0.5
308.179	1.906	0.57	1092.7	0.4
308.246	2.039	0.6	1101.7	0.3
308.267	1.446	0.5	1077.1	0.4
308.283	0.55	0.328	1048.1	0.3
308.287	0.47	0.2	1027.7	1.2
308.287	1.771	0.55	1085.2	0.4
308.343	1.154	0.45	1071.1	0.3
308.48	1.446	0.5	1076.9	0.3
308.52	0.55	0.328	1047.9	0.3
308.541	1.154	0.45	1071	0.3
308.683	0.792	0.4	1056.2	0.3
308.708	1.771	0.55	1084.9	0.3
308.76	0.47	0.2	1027.2	1.2
308.806	0.55	0.328	1047.6	0.3
308.814	0.488	0.25	1037.2	0.5
308.843	1.446	0.5	1076.7	0.3
308.882	1.906	0.57	1092.4	0.4
308.97	1.154	0.45	1070.6	0.3
309.04	0.55	0.328	1047.4	0.3
309.102	1.771	0.55	1084.6	0.4
309.17	0.488	0.25	1036.8	0.5
309.215	1.154	0.45	1070.4	0.3
309.23	0.47	0.2	1026.6	1.2
309.264	2.039	0.6	1101.1	0.3
309.275	0.55	0.328	1047.2	0.3
309.281	0.792	0.4	1055.6	0.3
309.282	1.446	0.5	1076.4	0.4
309.501	1.154	0.45	1070.2	0.3
309.52	0.55	0.328	1046.9	0.3
309.586	1.771	0.55	1084.3	0.4
309.611	0.792	0.4	1055.4	0.3
309.68	0.488	0.25	1036.3	0.5
309.683	1.446	0.5	1076.1	0.3
309.8	0.55	0.328	1046.7	0.3
309.814	0.47	0.2	1025.9	1.2
309.841	1.154	0.45	1069.8	0.3
309.86	1.906	0.57	1091.7	0.4
309.917	1.771	0.55	1084.1	0.4
309.96	0.792	0.4	1055.1	0.3
310.043	0.55	0.328	1046.5	0.3
310.065	1.154	0.45	1069.8	0.3
310.137	1.446	0.5	1075.8	0.3
310.15	0.792	0.4	1054.9	0.3
310.164	0.488	0.25	1035.7	0.5
310.278	1.771	0.55	1083.9	0.4
310.32	0.55	0.328	1046.2	0.3
310.358	0.47	0.2	1025.3	1.2
310.392	2.039	0.6	1100.5	0.3
310.563	1.771	0.55	1083.7	0.3
310.613	0.792	0.4	1054.5	0.3
310.615	1.446	0.5	1075.5	0.4
310.618	1.154	0.45	1069.4	0.3
310.731	0.47	0.2	1024.9	1.2
310.843	0.488	0.25	1035	0.5
310.86	1.906	0.57	1091.3	0.4
310.934	1.154	0.45	1069.2	0.3
310.95	1.446	0.5	1075.2	0.4
310.958	1.771	0.55	1083.5	0.3
311.11	0.792	0.4	1054	0.3
311.151	0.488	0.25	1034.7	0.5
311.202	1.771	0.55	1083.3	0.4
311.239	0.47	0.2	1024.1	1.2
311.252	2.039	0.6	1100	0.3
311.274	1.154	0.45	1068.8	0.3
311.365	1.446	0.5	1074.9	0.3
311.565	1.154	0.45	1068.6	0.3
311.581	0.47	0.2	1023.8	1.2
311.59	1.771	0.55	1082.9	0.3
311.68	0.488	0.25	1034.2	0.5
311.72	1.446	0.5	1074.7	0.3
311.829	1.154	0.45	1068.4	0.3
311.835	1.906	0.57	1090.6	0.3
311.921	1.154	0.45	1068.4	0.3
311.921	1.771	0.55	1082.7	0.4
311.923	0.47	0.2	1023.5	1.2
312.048	2.039	0.6	1099.6	0.3
312.12	1.446	0.5	1074.4	0.4
312.2	1.771	0.55	1082.6	0.4
312.223	0.488	0.25	1033.6	0.5
312.274	0.47	0.2	1023.1	1.2
312.32	1.154	0.45	1068.1	0.3
312.51	1.446	0.5	1074.1	0.3
312.519	0.47	0.2	1022.7	1.2
312.59	1.771	0.55	1082.4	0.4
312.758	2.039	0.6	1099.1	0.3
312.834	1.906	0.57	1090	0.4
312.881	1.771	0.55	1082.3	0.4
312.898	0.47	0.2	1022.3	1.2
312.952	1.446	0.5	1073.8	0.3
313.22	1.771	0.55	1082.1	0.4
313.226	1.446	0.5	1073.6	0.3
313.227	0.47	0.2	1022.1	1.2
313.428	0.47	0.2	1021.7	1.2
313.499	2.039	0.6	1098.7	0.3
313.529	1.446	0.5	1073.4	0.3
313.548	1.771	0.55	1081.9	0.3
313.648	1.446	0.5	1073.3	0.3
313.67	0.47	0.2	1021.4	1.2
313.853	1.906	0.57	1089.5	0.4
313.913	1.446	0.5	1073.1	0.3
313.965	1.771	0.55	1081.6	0.3
314.207	2.039	0.6	1098.3	0.3
314.305	1.771	0.55	1081.4	0.4
314.58	1.771	0.55	1081.2	0.4
314.754	1.906	0.57	1088.9	0.4
314.85	1.771	0.55	1081.1	0.4
314.859	2.039	0.6	1098.1	0.3
315.231	1.771	0.55	1080.8	0.4
315.467	2.039	0.6	1097.6	0.3
315.552	1.771	0.55	1080.5	0.3
315.766	1.906	0.57	1088.4	0.3
315.86	1.771	0.55	1080.4	0.4
316.217	2.039	0.6	1097.4	0.3
316.231	1.771	0.55	1080.1	0.4
316.51	1.771	0.55	1079.9	0.4
316.628	1.906	0.57	1087.8	0.4
316.883	2.039	0.6	1097	0.3
316.896	1.771	0.55	1079.7	0.4
317.485	1.771	0.55	1079.4	0.4
317.486	2.039	0.6	1096.7	0.3
317.632	1.906	0.57	1087.3	0.4
318.166	2.039	0.6	1096.4	0.3
318.87	1.906	0.57	1086.7	0.4
318.972	2.039	0.6	1095.9	0.3
319.59	2.039	0.6	1095.6	0.3
319.86	1.906	0.57	1086.1	0.3
320.04	2.039	0.6	1095.4	0.3
320.502	2.039	0.6	1095.2	0.3
320.825	1.906	0.57	1085.6	0.3
321.091	2.039	0.6	1094.9	0.3
321.62	2.039	0.6	1094.6	0.3
321.75	1.906	0.57	1085	0.3
322.27	2.039	0.6	1094.3	0.3
322.5	1.906	0.57	1084.7	0.3
322.76	2.039	0.6	1093.9	0.3
323.123	1.906	0.57	1084.3	0.3
323.248	2.039	0.6	1093.8	0.3
323.72	2.039	0.6	1093.5	0.3
324.101	2.039	0.6	1093.3	0.3
324.197	1.906	0.57	1083.6	0.3
324.721	2.039	0.6	1092.9	0.3
325.31	2.039	0.6	1092.7	0.3
325.705	2.039	0.6	1092.5	0.3
326.028	2.039	0.6	1092.3	0.3
326.351	2.039	0.6	1092.2	2.1
326.75	2.039	0.6	1091.9	2.1
327.06	2.039	0.6	1091.8	2.1
