Measured thermophysical data. Experimental determination and theoretical modeling of the vapor-liquid equilibrium and surface tensions of hexane + tetrahydro-2H-pyran
Source: Fluid Phase Equilib., 2012, 10.1016/j.fluid.2011.12.007
Compound 1: hexane, C6H14, InChI=1S/C6H14/c1-3-5-6-4-2/h3-6H2,1-2H3, purity 99.9%
Compound 2: tetrahydropyran, C5H10O, InChI=1S/C5H10O/c1-2-4-6-5-3-1/h1-5H2, purity 99.8%

System: hexane; phases: Liquid
Property: Refractive index (Na D-line) (Liquid); method: Standard Abbe refractometry
Temperature, K	Pressure, kPa	Refractive index (Na D-line)	uncertainty
298.15	101.325	1.37374	0.00031

System: hexane; phases: Liquid, Gas
Property: Boiling temperature at pressure P, K (Liquid); method: Ebulliometric method (Recirculating still)
Pressure, kPa	Boiling temperature at pressure P, K	uncertainty
101.33	341.94	0.04

System: hexane; phases: Liquid
Property: Mass density, kg/m3 (Liquid); method: Vibrating tube method
Temperature, K	Pressure, kPa	Mass density, kg/m3	uncertainty
298.15	101.325	655.19	0.17

System: tetrahydropyran; phases: Liquid
Property: Refractive index (Na D-line) (Liquid); method: Standard Abbe refractometry
Temperature, K	Pressure, kPa	Refractive index (Na D-line)	uncertainty
298.15	101.325	1.42	0.00031

System: tetrahydropyran; phases: Liquid, Gas
Property: Boiling temperature at pressure P, K (Liquid); method: Ebulliometric method (Recirculating still)
Pressure, kPa	Boiling temperature at pressure P, K	uncertainty
101.33	361.36	0.04

System: tetrahydropyran; phases: Liquid
Property: Mass density, kg/m3 (Liquid); method: Vibrating tube method
Temperature, K	Pressure, kPa	Mass density, kg/m3	uncertainty
298.15	101.325	879.03	0.09

System: tetrahydropyran; phases: Liquid, Gas
Property: Surface tension liquid-gas, N/m (Liquid); method: Maximal bubble pressure
Temperature, K	Surface tension liquid-gas, N/m	uncertainty
283.15	0.02961	0.00028
288.15	0.02915	0.00028
293.15	0.02856	0.00028
298.15	0.028	0.00028
303.15	0.02714	0.00027
308.15	0.0265	0.00027
313.15	0.02555	0.00027
318.15	0.02525	0.00027
323.15	0.02423	0.00027
328.15	0.0236	0.00026
333.15	0.02275	0.00026

System: hexane + tetrahydropyran; phases: Liquid, Gas
Fixed: Temperature, K = 303.15
Property: Surface tension liquid-gas, N/m (Liquid); method: Maximal bubble pressure
Mole fraction of hexane	Surface tension liquid-gas, N/m	uncertainty
0	0.0271	0.00027
0.045	0.02647	0.00027
0.09	0.02564	0.00027
0.181	0.02439	0.00027
0.282	0.02317	0.00026
0.383	0.02203	0.00026
0.487	0.02113	0.00026
0.589	0.02039	0.00026
0.674	0.01947	0.00025
0.786	0.01877	0.00025
0.899	0.01812	0.00025
0.964	0.01746	0.00025
1	0.0174	0.00025

System: hexane + tetrahydropyran; phases: Liquid, Gas
Property: Boiling temperature at pressure P, K (Liquid); method: Ebulliometric method (Recirculating still)
Mole fraction of hexane	Pressure, kPa	Boiling temperature at pressure P, K	uncertainty
0	50	339.33	0.12
0	75	351.53	0.15
0	94	358.85	0.16
0.041	75	349.63	0.18
0.042	50	337.38	0.15
0.043	94	356.39	0.18
0.085	94	354.78	0.17
0.086	50	335.21	0.14
0.086	75	347.45	0.18
0.111	94	353.96	0.17
0.113	75	346.64	0.16
0.117	50	334.32	0.14
0.156	94	352.27	0.17
0.157	50	332.83	0.13
0.157	75	345.04	0.16
0.195	94	351.11	0.16
0.198	75	343.86	0.16
0.203	50	331.63	0.13
0.241	94	349.92	0.16
0.243	50	330.6	0.13
0.244	75	342.67	0.16
0.29	50	329.54	0.13
0.29	75	341.57	0.16
0.291	94	348.76	0.16
0.334	75	340.34	0.16
0.335	50	328.26	0.13
0.335	94	347.61	0.17
0.381	75	339.54	0.15
0.382	94	346.69	0.16
0.383	50	327.38	0.12
0.428	94	345.86	0.16
0.43	75	338.7	0.15
0.433	50	326.67	0.12
0.482	94	345.01	0.16
0.483	75	337.86	0.15
0.49	50	325.86	0.12
0.543	94	344.14	0.16
0.546	75	336.95	0.15
0.548	50	325.1	0.12
0.599	94	343.38	0.16
0.606	75	336.15	0.15
0.607	50	324.31	0.12
0.662	94	342.61	0.15
0.663	50	323.75	0.12
0.663	75	335.54	0.15
0.716	75	334.97	0.15
0.716	94	342.02	0.15
0.718	50	323.17	0.12
0.773	50	322.76	0.12
0.773	75	334.46	0.15
0.773	94	341.43	0.15
0.818	94	340.97	0.15
0.819	75	334.04	0.14
0.821	50	322.34	0.12
0.867	75	333.63	0.14
0.867	94	340.54	0.15
0.868	50	321.95	0.12
0.924	94	340.06	0.15
0.926	50	321.49	0.11
0.926	75	333.13	0.14
1	50	321.03	0.11
1	75	332.65	0.14
1	94	339.57	0.15

System: hexane + tetrahydropyran; phases: Gas, Liquid
Property: Mole fraction of hexane (Gas); method: Chromatography
Mole fraction of hexane	Pressure, kPa	Mole fraction of hexane	uncertainty
0	50	0	
0	75	0	
0	94	0	
0.041	75	0.099	0.005
0.042	50	0.108	0.005
0.043	94	0.103	0.005
0.085	94	0.188	0.005
0.086	50	0.204	0.005
0.086	75	0.196	0.005
0.111	94	0.231	0.004
0.113	75	0.243	0.004
0.117	50	0.26	0.005
0.156	94	0.303	0.005
0.157	50	0.33	0.005
0.157	75	0.312	0.005
0.195	94	0.359	0.005
0.198	75	0.371	0.005
0.203	50	0.388	0.005
0.241	94	0.413	0.005
0.243	50	0.432	0.005
0.244	75	0.425	0.005
0.29	50	0.483	0.005
0.29	75	0.473	0.005
0.291	94	0.468	0.005
0.334	75	0.515	0.005
0.335	50	0.526	0.005
0.335	94	0.511	0.005
0.381	75	0.555	0.005
0.382	94	0.551	0.005
0.383	50	0.569	0.005
0.428	94	0.594	0.004
0.43	75	0.596	0.004
0.433	50	0.608	0.004
0.482	94	0.633	0.004
0.483	75	0.639	0.004
0.49	50	0.651	0.004
0.543	94	0.679	0.004
0.546	75	0.686	0.004
0.548	50	0.693	0.004
0.599	94	0.72	0.003
0.606	75	0.728	0.003
0.607	50	0.733	0.003
0.662	94	0.763	0.003
0.663	50	0.77	0.003
0.663	75	0.765	0.003
0.716	75	0.802	0.003
0.716	94	0.799	0.003
0.718	50	0.806	0.003
0.773	50	0.842	0.003
0.773	75	0.839	0.003
0.773	94	0.838	0.003
0.818	94	0.869	0.003
0.819	75	0.871	0.003
0.821	50	0.873	0.003
0.867	75	0.904	0.003
0.867	94	0.902	0.003
0.868	50	0.905	0.003
0.924	94	0.943	0.003
0.926	50	0.946	0.003
0.926	75	0.945	0.003
1	50	1	
1	75	1	
1	94	1	
