Measured thermophysical data. The measurement of solid-liquid equilibria data of binary and ternary organic systems for imidacloprid + 2-nitroaminoimidazoline+ NMP by DSC
Source: Fluid Phase Equilib., 2011, 10.1016/j.fluid.2010.09.015
Compound 1: imidacloprid, C9H10ClN5O2, InChI=1S/C9H10ClN5O2/c10-8-2-1-7(5-12-8)6-14-4-3-11-9(14)13-15(16)17/h1-2,5H,3-4,6H2,(H,11,13)
Compound 2: 4,5-dihydro-N-nitro-1H-Imidazol-2-amine, C3H6N4O2, InChI=1S/C3H6N4O2/c8-7(9)6-3-4-1-2-5-3/h1-2H2,(H2,4,5,6)
Compound 3: 1,1'-(2,5-pyridinediyl)bis[4,5-dihydro-N-nitro-1H-imidazol-2-amine, C11H13N9O4, InChI=1S/C11H13N9O4/c21-19(22)15-10-12-3-5-17(10)8-1-2-9(14-7-8)18-6-4-13-11(18)16-20(23)24/h1-2,7H,3-6H2,(H,12,15)(H,13,16)

System: imidacloprid; phases: Crystal, Liquid, Air at 1 atmosphere
Property: Normal melting temperature, K (Crystal); method: DTA
Normal melting temperature, K	uncertainty
416.8	2.03

System: imidacloprid; phases: Crystal, Liquid, Gas
Property: Molar enthalpy of transition or fusion, kJ/mol (Crystal); method: DSC
Molar enthalpy of transition or fusion, kJ/mol	uncertainty
24.73	0.72

System: 4,5-dihydro-N-nitro-1H-Imidazol-2-amine; phases: Crystal, Liquid, Air at 1 atmosphere
Property: Normal melting temperature, K (Crystal); method: DTA
Normal melting temperature, K	uncertainty
495.13	2.03

System: 4,5-dihydro-N-nitro-1H-Imidazol-2-amine; phases: Crystal, Liquid, Gas
Property: Molar enthalpy of transition or fusion, kJ/mol (Crystal); method: DSC
Molar enthalpy of transition or fusion, kJ/mol	uncertainty
34.24	1.53

System: 1,1'-(2,5-pyridinediyl)bis[4,5-dihydro-N-nitro-1H-imidazol-2-amine; phases: Crystal, Liquid, Air at 1 atmosphere
Property: Normal melting temperature, K (Crystal); method: DTA
Normal melting temperature, K	uncertainty
423.85	2.03

System: 1,1'-(2,5-pyridinediyl)bis[4,5-dihydro-N-nitro-1H-imidazol-2-amine; phases: Crystal, Liquid, Gas
Property: Molar enthalpy of transition or fusion, kJ/mol (Crystal); method: DSC
Molar enthalpy of transition or fusion, kJ/mol	uncertainty
22.22	1

System: 4,5-dihydro-N-nitro-1H-Imidazol-2-amine + imidacloprid; phases: Crystal, Crystal, Liquid, Air at 1 atmosphere
Property: Eutectic temperature, K (Crystal); method: DTA
Eutectic temperature, K	uncertainty
402.48	2.03

System: 4,5-dihydro-N-nitro-1H-Imidazol-2-amine + imidacloprid; phases: Crystal, Liquid
Fixed: Pressure, kPa = 101
Property: Solid-liquid equilibrium temperature, K (Crystal); method: DTA
Mole fraction of imidacloprid	Solid-liquid equilibrium temperature, K	uncertainty
0.4962	402.41	2.03
0.5971	405.32	2.03
0.6894	407.42	2.03
0.7977	410.76	2.03
0.8809	412.88	2.03
0.9497	415.22	2.03
1	416.8	2.03

System: 4,5-dihydro-N-nitro-1H-Imidazol-2-amine + imidacloprid; phases: Crystal, Liquid
Fixed: Pressure, kPa = 101
Property: Solid-liquid equilibrium temperature, K (Crystal); method: DTA
Mole fraction of imidacloprid	Solid-liquid equilibrium temperature, K	uncertainty
0	495.13	2.03
0.0212	478.73	2.03
0.03	465.18	2.03
0.0979	434.13	2.03
0.1512	419.23	2.03
0.2496	412.8	2.03
0.3057	410.11	2.03
0.4081	405.39	2.03
0.4506	404.3	2.03

System: 4,5-dihydro-N-nitro-1H-Imidazol-2-amine + 1,1'-(2,5-pyridinediyl)bis[4,5-dihydro-N-nitro-1H-imidazol-2-amine; phases: Crystal, Crystal, Liquid, Air at 1 atmosphere
Property: Eutectic temperature, K (Crystal); method: DTA
Eutectic temperature, K	uncertainty
407.47	0.39

System: 4,5-dihydro-N-nitro-1H-Imidazol-2-amine + 1,1'-(2,5-pyridinediyl)bis[4,5-dihydro-N-nitro-1H-imidazol-2-amine; phases: Crystal, Liquid
Fixed: Pressure, kPa = 101
Property: Solid-liquid equilibrium temperature, K (Crystal); method: DTA
Mole fraction of 1,1'-(2,5-pyridinediyl)bis[4,5-dihydro-N-nitro-1H-imidazol-2-amine	Solid-liquid equilibrium temperature, K	uncertainty
0	495.13	2.03
0.0202	458.79	2.03
0.03	449.68	2.03
0.0586	436.18	2.03
0.1003	418.07	2.03
0.1455	415.88	2.03
0.2375	418.07	2.03
0.2986	415.88	2.03

System: 4,5-dihydro-N-nitro-1H-Imidazol-2-amine + 1,1'-(2,5-pyridinediyl)bis[4,5-dihydro-N-nitro-1H-imidazol-2-amine; phases: Crystal, Liquid
Fixed: Pressure, kPa = 101
Property: Solid-liquid equilibrium temperature, K (Crystal); method: DTA
Mole fraction of 1,1'-(2,5-pyridinediyl)bis[4,5-dihydro-N-nitro-1H-imidazol-2-amine	Solid-liquid equilibrium temperature, K	uncertainty
0.4229	407.46	2.03
0.5	408.77	2.03
0.5656	410.58	2.03
0.6637	413.58	2.03
0.7672	416.66	2.03
0.8485	418.21	2.03
0.9487	420.99	2.03
0.9782	422.29	2.03
1	423.85	2.03

System: imidacloprid + 1,1'-(2,5-pyridinediyl)bis[4,5-dihydro-N-nitro-1H-imidazol-2-amine; phases: Crystal, Crystal, Liquid, Air at 1 atmosphere
Property: Eutectic temperature, K (Crystal); method: DTA
Eutectic temperature, K	uncertainty
383.1	0.39

System: imidacloprid + 1,1'-(2,5-pyridinediyl)bis[4,5-dihydro-N-nitro-1H-imidazol-2-amine; phases: Crystal, Liquid
Fixed: Pressure, kPa = 101
Property: Solid-liquid equilibrium temperature, K (Crystal); method: DTA
Mole fraction of imidacloprid	Solid-liquid equilibrium temperature, K	uncertainty
0.5506	383.13	2.03
0.6016	384.3	2.03
0.6987	391.44	2.03
0.8015	398.17	2.03
0.8995	406.03	2.03
0.9513	409.08	2.03
0.9857	413.27	2.03
1	416.8	2.03

System: imidacloprid + 1,1'-(2,5-pyridinediyl)bis[4,5-dihydro-N-nitro-1H-imidazol-2-amine; phases: Crystal, Liquid
Fixed: Pressure, kPa = 101
Property: Solid-liquid equilibrium temperature, K (Crystal); method: DTA
Mole fraction of imidacloprid	Solid-liquid equilibrium temperature, K	uncertainty
0	423.85	2.03
0.0207	424.02	2.03
0.0305	423.37	2.03
0.0516	422.69	2.03
0.103	421.25	2.03
0.1997	416.17	2.03
0.2998	409.63	2.03
0.4082	400.89	2.03
0.4564	395.07	2.03
0.5058	389.1	2.03
