Measured thermophysical data. Speed of sound, density and derivative properties of diisopropyl ether under high pressure
Source: Fluid Phase Equilib., 2017, 10.1016/j.fluid.2017.06.024
Compound 1: diisopropyl ether, C6H14O, InChI=1S/C6H14O/c1-5(2)7-6(3)4/h5-6H,1-4H3, purity 99.5%

System: diisopropyl ether; phases: Liquid
Fixed: Frequency, MHz = 3
Property: Speed of sound, m/s (Liquid); method: Pulse-echo method
Pressure, kPa	Temperature, K	Speed of sound, m/s	uncertainty
100	293.15	1019.71	2.35
20000	293.15	1161.24	2.51
40000	293.15	1274.5	2.72
60000	293.15	1369.29	2.91
80000	293.15	1454.22	3.07
100000	293.15	1528.73	3.22
100	303.15	974.32	2.26
20000	303.15	1122.56	2.48
40000	303.15	1240.38	2.68
60000	303.15	1337.63	2.86
80000	303.15	1423.43	3.02
100000	303.15	1501.88	3.17
100	313.15	930.24	2.17
20000	313.15	1086.83	2.4
40000	313.15	1207.91	2.61
60000	313.15	1308.13	2.8
80000	313.15	1396.71	2.96
100000	313.15	1474.97	3.11
100	323.15	887.83	2.08
20000	323.15	1051.9	2.33
40000	323.15	1177.1	2.55
60000	323.15	1278.96	2.73
80000	323.15	1368.68	2.9
100000	323.15	1448.65	3.06
100	333.15	847.29	2
20000	333.15	1017.78	2.26
40000	333.15	1146.81	2.49
60000	333.15	1252.38	2.67
80000	333.15	1343.16	2.85
100000	333.15	1423.5	3
20000	343.15	984.53	2.19
40000	343.15	1117.79	2.42
60000	343.15	1226.4	2.62
80000	343.15	1318.72	2.8
100000	343.15	1400.75	2.95
20000	353.15	953.14	2.13
40000	353.15	1090.71	2.41
60000	353.15	1200.36	2.59
80000	353.15	1294.59	2.76
100000	353.15	1378.37	2.91

System: diisopropyl ether; phases: Liquid
Property: Mass density, kg/m3 (Liquid); method: Vibrating tube method
Pressure, kPa	Temperature, K	Mass density, kg/m3	uncertainty
100	293.15	723.5	0.6
10000	293.15	734.6	0.6
20000	293.15	744.5	0.6
30000	293.15	753.3	0.7
40000	293.15	761.3	0.7
50000	293.15	768.6	0.8
60000	293.15	775.4	0.8
70000	293.15	781.7	0.9
80000	293.15	787.6	0.9
90000	293.15	793.2	0.9
100000	293.15	798.5	1
110000	293.15	803.5	1
120000	293.15	808.4	1.1
130000	293.15	813	1.1
140000	293.15	817.4	1.1
100	303.15	712.9	0.6
10000	303.15	725.2	0.6
20000	303.15	735.9	0.6
30000	303.15	745.3	0.7
40000	303.15	753.8	0.7
50000	303.15	761.5	0.8
60000	303.15	768.5	0.8
70000	303.15	775.1	0.9
80000	303.15	781.2	0.9
90000	303.15	787	1
100000	303.15	792.4	1
110000	303.15	797.6	1.1
120000	303.15	802.5	1.1
130000	303.15	807.3	1.1
140000	303.15	811.8	1.2
100	313.15	702.2	0.6
10000	313.15	715.5	0.6
20000	313.15	726.9	0.6
30000	313.15	736.9	0.7
40000	313.15	745.7	0.7
50000	313.15	753.8	0.8
60000	313.15	761.1	0.8
70000	313.15	768.1	0.9
80000	313.15	774.3	0.9
90000	313.15	780.3	1
100000	313.15	786	1
110000	313.15	791.5	1.1
120000	313.15	796.4	1.1
130000	313.15	801.4	1.2
140000	313.15	805.9	1.2
100	323.15	691.5	0.6
10000	323.15	706	0.6
20000	323.15	718	0.6
30000	323.15	728.5	0.7
40000	323.15	737.8	0.7
50000	323.15	746.2	0.8
60000	323.15	753.9	0.8
70000	323.15	761	0.9
80000	323.15	767.5	0.9
90000	323.15	773.7	1
100000	323.15	779.5	1
110000	323.15	785	1.1
120000	323.15	790.3	1.1
130000	323.15	795.2	1.2
140000	323.15	800	1.2
100	333.15	680.6	0.6
10000	333.15	696.3	0.6
20000	333.15	709.3	0.6
30000	333.15	720.5	0.7
40000	333.15	730.3	0.7
50000	333.15	739.1	0.8
60000	333.15	747.1	0.9
70000	333.15	754.5	0.9
80000	333.15	761.4	1
90000	333.15	767.8	1
100000	333.15	773.8	1.1
110000	333.15	779.4	1.1
120000	333.15	784.8	1.2
130000	333.15	789.9	1.2
140000	333.15	794.7	1.3
10000	343.15	686	0.6
20000	343.15	700	0.6
30000	343.15	711.8	0.7
40000	343.15	722.2	0.8
50000	343.15	731.4	0.8
60000	343.15	739.7	0.9
70000	343.15	747.3	0.9
80000	343.15	754.4	1
90000	343.15	761	1
100000	343.15	767.2	1.1
110000	343.15	773.2	1.1
120000	343.15	778.6	1.2
130000	343.15	784	1.2
140000	343.15	788.9	1.3
10000	353.15	676.2	0.6
20000	353.15	691.2	0.7
30000	353.15	703.7	0.7
40000	353.15	714.6	0.8
50000	353.15	724.2	0.8
60000	353.15	733	0.9
70000	353.15	740.9	0.9
80000	353.15	748.2	1
90000	353.15	755.1	1.1
100000	353.15	761.4	1.1
110000	353.15	767.3	1.2
120000	353.15	773	1.2
130000	353.15	778.4	1.3
140000	353.15	783.5	1.3
10000	363.15	666.1	0.6
20000	363.15	682.3	0.7
30000	363.15	695.6	0.7
40000	363.15	707	0.8
50000	363.15	717.1	0.8
60000	363.15	726.1	0.9
70000	363.15	734.4	1
80000	363.15	742	1
90000	363.15	749	1.1
100000	363.15	755.5	1.1
110000	363.15	761.7	1.2
120000	363.15	767.5	1.2
130000	363.15	773	1.3
140000	363.15	778.3	1.4
10000	373.15	655.9	0.6
20000	373.15	673.3	0.7
30000	373.15	687.4	0.7
40000	373.15	699.4	0.8
50000	373.15	709.9	0.8
60000	373.15	719.3	0.9
70000	373.15	728	1
80000	373.15	735.7	1
90000	373.15	743.1	1.1
100000	373.15	749.8	1.1
110000	373.15	756.2	1.2
120000	373.15	762.2	1.3
130000	373.15	767.8	1.3
140000	373.15	773.1	1.4
10000	383.15	645.3	0.6
20000	383.15	664	0.7
30000	383.15	679	0.7
40000	383.15	691.8	0.8
50000	383.15	702.8	0.9
60000	383.15	712.5	0.9
70000	383.15	721.4	1
80000	383.15	729.5	1.1
90000	383.15	737	1.1
100000	383.15	743.9	1.2
110000	383.15	750.4	1.2
120000	383.15	756.6	1.3
130000	383.15	762.4	1.4
140000	383.15	767.9	1.4
10000	393.15	634.8	0.6
20000	393.15	654.9	0.7
30000	393.15	670.7	0.7
40000	393.15	684	0.8
50000	393.15	695.4	0.9
60000	393.15	705.6	0.9
70000	393.15	714.8	1
80000	393.15	722.9	1.1
90000	393.15	730.8	1.1
100000	393.15	738	1.2
110000	393.15	744.6	1.3
120000	393.15	750.9	1.3
130000	393.15	756.8	1.4
140000	393.15	762.3	1.4

System: diisopropyl ether; phases: Liquid
Fixed: Pressure, kPa = 100
Property: Molar heat capacity at constant pressure, J/K/mol (Liquid); method: DSC
Temperature, K	Molar heat capacity at constant pressure, J/K/mol	uncertainty
290.5	210.58218036	8.58267984
295.44	212.42132604	8.58267984
300.38	214.46482124	8.6848546
305.32	216.50831644	8.78702936
310.26	218.55181164	8.88920412
315.19	220.59530684	8.99137888
320.13	222.63880204	9.09355364
325.07	224.68229724	9.09355364
330.01	226.93014196	9.1957284
334.95	229.07581192	9.29790316
339.89	231.22148188	9.40007792
