Measured thermophysical data. Measurement of vapor.liquid equilibria (VLE) and excess enthalpies (HE) of binary systems with 1-alkyl-3-methylimidazolium bis(trifluoromethylsulfonyl)imide and prediction of these properties and A using modified UNIFAC (Dortmund)
Source: Fluid Phase Equilib., 2007, 10.1016/j.fluid.2007.06.001
Compound 1: 1-ethyl-3-methylimidazolium bis((trifluoromethyl)sulfonyl)imide, C8H11F6N3O4S2, InChI=1S/C6H11N2.C2F6NO4S2/c1-3-8-5-4-7(2)6-8;3-1(4,5)14(10,11)9-15(12,13)2(6,7)8/h4-6H,3H2,1-2H3;/q+1;-1
Compound 2: 1-butyl-3-methylimidazolium bis(trifluoromethylsulfonyl)imide, C10H15F6N3O4S2, InChI=1S/C8H15N2.C2F6NO4S2/c1-3-4-5-10-7-6-9(2)8-10;3-1(4,5)14(10,11)9-15(12,13)2(6,7)8/h6-8H,3-5H2,1-2H3;/q+1;-1
Compound 3: 1-hexyl-3-methylimidazolium bis[(trifluoromethyl)sulfonyl]imide, C12H19F6N3O4S2, InChI=1S/C10H19N2.C2F6NO4S2/c1-3-4-5-6-7-12-9-8-11(2)10-12;3-1(4,5)14(10,11)9-15(12,13)2(6,7)8/h8-10H,3-7H2,1-2H3;/q+1;-1
Compound 4: 1-octyl-3-methylimidazolium bis[(trifluoromethyl)sulfonyl]imide, C14H23F6N3O4S2, InChI=1S/C12H23N2.C2F6NO4S2/c1-3-4-5-6-7-8-9-14-11-10-13(2)12-14;3-1(4,5)14(10,11)9-15(12,13)2(6,7)8/h10-12H,3-9H2,1-2H3;/q+1;-1
Compound 5: hexane, C6H14, InChI=1S/C6H14/c1-3-5-6-4-2/h3-6H2,1-2H3
Compound 6: octane, C8H18, InChI=1S/C8H18/c1-3-5-7-8-6-4-2/h3-8H2,1-2H3
Compound 7: nonane, C9H20, InChI=1S/C9H20/c1-3-5-7-9-8-6-4-2/h3-9H2,1-2H3
Compound 8: oct-1-ene, C8H16, InChI=1S/C8H16/c1-3-5-7-8-6-4-2/h3H,1,4-8H2,2H3
Compound 9: acetone, C3H6O, InChI=1S/C3H6O/c1-3(2)4/h1-2H3
Compound 10: butanone, C4H8O, InChI=1S/C4H8O/c1-3-4(2)5/h3H2,1-2H3
Compound 11: pentan-3-one, C5H10O, InChI=1S/C5H10O/c1-3-5(6)4-2/h3-4H2,1-2H3
Compound 12: ethanol, C2H6O, InChI=1S/C2H6O/c1-2-3/h3H,2H2,1H3
Compound 13: propan-1-ol, C3H8O, InChI=1S/C3H8O/c1-2-3-4/h4H,2-3H2,1H3
Compound 14: benzene, C6H6, InChI=1S/C6H6/c1-2-4-6-5-3-1/h1-6H
Compound 15: toluene, C7H8, InChI=1S/C7H8/c1-7-5-3-2-4-6-7/h2-6H,1H3
Compound 16: methylcyclohexane, C7H14, InChI=1S/C7H14/c1-7-5-3-2-4-6-7/h7H,2-6H2,1H3
Compound 17: water, H2O, InChI=1S/H2O/h1H2

System: octane; phases: Liquid, Gas
Property: Vapor or sublimation pressure, kPa (Liquid); method: CCELL:UFactor:8
Temperature, K	Vapor or sublimation pressure, kPa	uncertainty
353.15	23.16	0.9

System: nonane; phases: Liquid, Gas
Property: Vapor or sublimation pressure, kPa (Liquid); method: CCELL::UFactor:8
Temperature, K	Vapor or sublimation pressure, kPa	uncertainty
353.15	9.65	0.469

System: oct-1-ene; phases: Liquid, Gas
Property: Vapor or sublimation pressure, kPa (Liquid); method: CCELL::UFactor:8
Temperature, K	Vapor or sublimation pressure, kPa	uncertainty
363.15	38.51	1.39

System: hexane + 1-hexyl-3-methylimidazolium bis[(trifluoromethyl)sulfonyl]imide; phases: Liquid
Fixed: Pressure, kPa = 101
Fixed: Temperature, K = 363.15
Property: Excess molar enthalpy (molar enthalpy of mixing), kJ/mol (Liquid); method: FLOW:UFactor:4
Mole fraction of hexane	Excess molar enthalpy (molar enthalpy of mixing), kJ/mol	uncertainty
0.02	0.0519	0.0047
0.0501	0.1463	0.0076
0.1002	0.3054	0.013
0.1503	0.4342	0.0174
0.2003	0.5167	0.0203
0.3003	0.527	0.0206
0.4004	0.4469	0.0179
0.5004	0.3672	0.0151
0.6004	0.2974	0.0127
0.7003	0.2138	0.0099
0.8002	0.1373	0.0074
0.9001	0.0657	0.0051
0.9501	0.0335	0.0041

System: hexane + 1-hexyl-3-methylimidazolium bis[(trifluoromethyl)sulfonyl]imide; phases: Liquid, Gas
Fixed: Temperature, K = 353.15
Property: Vapor or sublimation pressure, kPa (Liquid); method: CCELL:UFactor:8
Mole fraction of hexane	Vapor or sublimation pressure, kPa	uncertainty
0.0112	9.561	0.476
0.0243	20.22	0.83
0.0436	35.92	1.35
0.0578	46.98	1.72
0.0839	66.92	2.38
0.138	102.6	3.6
0.1944	133	4.5

System: hexane + 1-octyl-3-methylimidazolium bis[(trifluoromethyl)sulfonyl]imide; phases: Liquid, Gas
Fixed: Temperature, K = 353.15
Property: Vapor or sublimation pressure, kPa (Liquid); method: CCELL:UFactor:8
Mole fraction of hexane	Vapor or sublimation pressure, kPa	uncertainty
0.0154	9.398	0.47
0.0337	19.96	0.82
0.0513	30.07	1.16
0.0704	40.38	1.5
0.0893	50.66	1.84
0.1595	86.09	3.01
0.2257	114.4	3.9
0.305	139.8	4.7

System: octane + 1-butyl-3-methylimidazolium bis(trifluoromethylsulfonyl)imide; phases: Liquid, Gas
Fixed: Temperature, K = 353.15
Property: Vapor or sublimation pressure, kPa (Liquid); method: CCELL:UFactor:8
Mole fraction of octane	Vapor or sublimation pressure, kPa	uncertainty
0.0065	3.15	0.26
0.0134	6.07	0.36
0.0194	8.613	0.444
0.0323	13.53	0.61
0.0498	19.79	0.82
1	23.16	0.9

System: nonane + 1-butyl-3-methylimidazolium bis(trifluoromethylsulfonyl)imide; phases: Liquid, Gas
Fixed: Temperature, K = 353.15
Property: Vapor or sublimation pressure, kPa (Liquid); method: CCELL:UFactor:8
Mole fraction of nonane	Vapor or sublimation pressure, kPa	uncertainty
0.0047	1.462	0.207
0.0096	2.732	0.249
0.0145	3.962	0.289
0.0262	6.736	0.381
1	9.65	0.469

System: oct-1-ene + 1-butyl-3-methylimidazolium bis(trifluoromethylsulfonyl)imide; phases: Liquid, Gas
Fixed: Temperature, K = 363.15
Property: Vapor or sublimation pressure, kPa (Liquid); method: CCELL:UFactor:8
Mole fraction of oct-1-ene	Vapor or sublimation pressure, kPa	uncertainty
0.0107	4.741	0.315
0.0186	7.939	0.421
0.0274	11.54	0.54
0.0419	17.07	0.73
0.0635	24.72	0.98
0.0941	33.87	1.28
1	38.51	1.39

System: toluene + 1-butyl-3-methylimidazolium bis(trifluoromethylsulfonyl)imide; phases: Liquid
Fixed: Pressure, kPa = 101
Fixed: Temperature, K = 363.15
Property: Excess molar enthalpy (molar enthalpy of mixing), kJ/mol (Liquid); method: FLOW:UFactor:4
Mole fraction of toluene	Excess molar enthalpy (molar enthalpy of mixing), kJ/mol	uncertainty
0.0653	-0.09609	0.00609
0.1255	-0.1821	0.0088
0.1811	-0.2612	0.0115
0.2325	-0.3229	0.0136
0.2803	-0.38	0.0156
0.3249	-0.4224	0.017
0.4054	-0.5085	0.02
0.4761	-0.5558	0.0216
0.5389	-0.5799	0.0225
0.6451	-0.5648	0.0219
0.7317	-0.4519	0.018
0.8035	-0.3446	0.0143
0.8911	-0.1872	0.0089
0.9608	-0.07158	0.00532

System: toluene + 1-butyl-3-methylimidazolium bis(trifluoromethylsulfonyl)imide; phases: Liquid, Gas
Fixed: Temperature, K = 363.15
Property: Vapor or sublimation pressure, kPa (Liquid); method: CCELL:UFactor:8
Mole fraction of toluene	Vapor or sublimation pressure, kPa	uncertainty
0.0245	1.823	0.219
0.034	2.541	0.243
0.0408	3.077	0.26
0.0528	4.01	0.291
0.0656	4.953	0.322
0.0773	5.856	0.352
0.0899	6.804	0.383
0.101	7.667	0.411
0.1166	8.897	0.452
0.1617	12.47	0.57
0.221	17.24	0.72
0.3151	24.99	0.98
0.4485	36.03	1.33
0.6306	49.56	1.76

System: water + 1-hexyl-3-methylimidazolium bis[(trifluoromethyl)sulfonyl]imide; phases: Liquid, Gas
Fixed: Temperature, K = 353.15
Property: Vapor or sublimation pressure, kPa (Liquid); method: CCELL:UFactor:8
Mole fraction of water	Vapor or sublimation pressure, kPa	uncertainty
0.1016	12.18	0.56
0.1708	20.02	0.82
0.2122	24.66	0.97
0.2971	33.32	1.25
0.3997	43.08	1.56

System: hexane + 1-ethyl-3-methylimidazolium bis((trifluoromethyl)sulfonyl)imide; phases: Liquid
Fixed: Temperature, K = 353.15
Fixed: Pressure, kPa = 101.3
Property: Excess molar enthalpy (molar enthalpy of mixing), kJ/mol (Liquid); method: FLOW:UFactor:4
Mole fraction of hexane	Excess molar enthalpy (molar enthalpy of mixing), kJ/mol	uncertainty
0.0239	0.1244	0.007
0.0472	0.2238	0.0102
0.07	0.2763	0.012
0.0923	0.3294	0.0138
0.1354	0.3164	0.0134
0.2162	0.288	0.0124
0.3916	0.218	0.01
0.6588	0.1207	0.0068
0.8528	0.0522	0.0047

System: ethanol + 1-ethyl-3-methylimidazolium bis((trifluoromethyl)sulfonyl)imide; phases: Liquid
Fixed: Temperature, K = 323.15
Fixed: Pressure, kPa = 101.3
Property: Excess molar enthalpy (molar enthalpy of mixing), kJ/mol (Liquid); method: FLOW:UFactor:4
Mole fraction of ethanol	Excess molar enthalpy (molar enthalpy of mixing), kJ/mol	uncertainty
0.0529	0.3803	0.0156
0.1017	0.6836	0.026
0.1885	1.243	0.045
0.3291	1.937	0.069
0.5246	2.451	0.087
0.7259	2.196	0.078
0.8436	1.608	0.058
0.9687	0.439	0.0176

System: propan-1-ol + 1-ethyl-3-methylimidazolium bis((trifluoromethyl)sulfonyl)imide; phases: Liquid
Fixed: Temperature, K = 323.15
Fixed: Pressure, kPa = 101.3
Property: Excess molar enthalpy (molar enthalpy of mixing), kJ/mol (Liquid); method: FLOW:UFactor:4
Mole fraction of propan-1-ol	Excess molar enthalpy (molar enthalpy of mixing), kJ/mol	uncertainty
0.0418	0.321	0.0135
0.0812	0.6257	0.024
0.1536	1.131	0.042
0.277	1.889	0.068
0.4629	2.619	0.093
0.6741	2.608	0.093
0.8082	2.04	0.073
0.9602	0.6323	0.0243

System: hexane + 1-butyl-3-methylimidazolium bis(trifluoromethylsulfonyl)imide; phases: Liquid
Fixed: Temperature, K = 363.15
Fixed: Pressure, kPa = 101.3
Property: Excess molar enthalpy (molar enthalpy of mixing), kJ/mol (Liquid); method: FLOW:UFactor:4
Mole fraction of hexane	Excess molar enthalpy (molar enthalpy of mixing), kJ/mol	uncertainty
0.02	0.0559	0.0049
0.0501	0.1479	0.0077
0.1002	0.2881	0.0124
0.1503	0.3972	0.0162
0.2003	0.4549	0.0181
0.3004	0.3938	0.016
0.5004	0.277	0.012
0.7004	0.1592	0.008
0.9002	0.0487	0.0046

System: benzene + 1-butyl-3-methylimidazolium bis(trifluoromethylsulfonyl)imide; phases: Liquid
Fixed: Pressure, kPa = 101.3
Property: Excess molar enthalpy (molar enthalpy of mixing), kJ/mol (Liquid); method: FLOW:UFactor:4
Temperature, K	Mole fraction of benzene	Excess molar enthalpy (molar enthalpy of mixing), kJ/mol	uncertainty
363.15	0.0498	-0.0982	0.0062
363.15	0.0997	-0.1886	0.009
363.15	0.1495	-0.2838	0.0123
363.15	0.1994	-0.3662	0.0151
363.15	0.2992	-0.5295	0.0207
363.15	0.4491	-0.7358	0.0278
363.15	0.5991	-0.8637	0.0323
363.15	0.6992	-0.8299	0.0311
363.15	0.7994	-0.6131	0.0236
363.15	0.8495	-0.4701	0.0187
363.15	0.8997	-0.2995	0.0128
363.15	0.9498	-0.1476	0.0077
413.15	0.1462	-0.288	0.0124
413.15	0.2087	-0.3993	0.0162
413.15	0.2654	-0.5004	0.0197
413.15	0.3172	-0.5941	0.023
413.15	0.3647	-0.6956	0.0265
413.15	0.4485	-0.8203	0.0308
413.15	0.5202	-0.885	0.033
413.15	0.5823	-0.9202	0.0342
413.15	0.6844	-0.9097	0.0339
413.15	0.7648	-0.7786	0.0293
413.15	0.8299	-0.5956	0.023
413.15	0.907	-0.3315	0.0139
413.15	0.967	-0.131	0.0072

System: methylcyclohexane + 1-butyl-3-methylimidazolium bis(trifluoromethylsulfonyl)imide; phases: Liquid
Fixed: Pressure, kPa = 101.3
Fixed: Temperature, K = 363.15
Property: Excess molar enthalpy (molar enthalpy of mixing), kJ/mol (Liquid); method: FLOW:UFactor:4
Mole fraction of methylcyclohexane	Excess molar enthalpy (molar enthalpy of mixing), kJ/mol	uncertainty
0.1067	0.4638	0.0185
0.2014	0.6197	0.0238
0.2449	0.5999	0.0232
0.286	0.5741	0.0223
0.3621	0.516	0.0203
0.4308	0.4634	0.0184
0.4932	0.4143	0.0167
0.6022	0.3234	0.0136
0.6942	0.2454	0.0109
0.773	0.1838	0.0088
0.872	0.1081	0.0064

System: acetone + 1-butyl-3-methylimidazolium bis(trifluoromethylsulfonyl)imide; phases: Liquid
Fixed: Pressure, kPa = 101
Fixed: Temperature, K = 353.15
Property: Excess molar enthalpy (molar enthalpy of mixing), kJ/mol (Liquid); method: FLOW:UFactor:4
Mole fraction of acetone	Excess molar enthalpy (molar enthalpy of mixing), kJ/mol	uncertainty
0.05	-0.1299	0.0071
0.0999	-0.2545	0.0113
0.1499	-0.3849	0.0157
0.1999	-0.512	0.0201
0.2998	-0.7302	0.0277
0.4498	-1.037	0.038
0.5998	-1.217	0.045
0.6998	-1.239	0.045
0.7999	-1.11	0.041
0.8499	-0.9846	0.0365
0.8999	-0.7782	0.0293
0.95	-0.4925	0.0194

System: butanone + 1-butyl-3-methylimidazolium bis(trifluoromethylsulfonyl)imide; phases: Liquid
Fixed: Pressure, kPa = 101
Fixed: Temperature, K = 353.15
Property: Excess molar enthalpy (molar enthalpy of mixing), kJ/mol (Liquid); method: FLOW:UFactor:4
Mole fraction of butanone	Excess molar enthalpy (molar enthalpy of mixing), kJ/mol	uncertainty
0.0508	-0.122	0.0069
0.1015	-0.2475	0.011
0.1521	-0.379	0.0155
0.2026	-0.4919	0.0194
0.3035	-0.7214	0.0274
0.4541	-1.002	0.037
0.6039	-1.179	0.043
0.7034	-1.208	0.044
0.8026	-1.082	0.04
0.8521	-0.9585	0.0356
0.9015	-0.7589	0.0286
0.9508	-0.4707	0.0187

System: oct-1-ene + 1-hexyl-3-methylimidazolium bis[(trifluoromethyl)sulfonyl]imide; phases: Liquid
Fixed: Pressure, kPa = 101
Fixed: Temperature, K = 413.15
Property: Excess molar enthalpy (molar enthalpy of mixing), kJ/mol (Liquid); method: FLOW:UFactor:4
Mole fraction of oct-1-ene	Excess molar enthalpy (molar enthalpy of mixing), kJ/mol	uncertainty
0.0504	0.1689	0.0083
0.0982	0.3051	0.013
0.1437	0.4269	0.0172
0.1869	0.5467	0.0213
0.2281	0.5961	0.023
0.2675	0.5884	0.0228
0.3409	0.543	0.0212
0.4082	0.4844	0.0192
0.47	0.4295	0.0173
0.5797	0.341	0.0142
0.6742	0.2582	0.0114
0.7563	0.1973	0.0093
0.8613	0.114	0.0066

System: toluene + 1-hexyl-3-methylimidazolium bis[(trifluoromethyl)sulfonyl]imide; phases: Liquid
Fixed: Pressure, kPa = 101
Fixed: Temperature, K = 363.15
Property: Excess molar enthalpy (molar enthalpy of mixing), kJ/mol (Liquid); method: FLOW:UFactor:4
Mole fraction of toluene	Excess molar enthalpy (molar enthalpy of mixing), kJ/mol	uncertainty
0.0501	-0.0914	0.0059
0.1001	-0.1844	0.0089
0.1501	-0.2697	0.0118
0.2002	-0.3622	0.015
0.3002	-0.5231	0.0205
0.4503	-0.7074	0.0269
0.6003	-0.7654	0.0289
0.7002	-0.6855	0.0261
0.8002	-0.4874	0.0193
0.8501	-0.363	0.015
0.9001	-0.239	0.0107
0.9501	-0.1203	0.0068

System: benzene + 1-hexyl-3-methylimidazolium bis[(trifluoromethyl)sulfonyl]imide; phases: Liquid
Fixed: Pressure, kPa = 101
Fixed: Temperature, K = 363.15
Property: Excess molar enthalpy (molar enthalpy of mixing), kJ/mol (Liquid); method: FLOW:UFactor:4
Mole fraction of benzene	Excess molar enthalpy (molar enthalpy of mixing), kJ/mol	uncertainty
0.0854	-0.1581	0.008
0.1608	-0.2919	0.0125
0.2279	-0.4153	0.0168
0.288	-0.5028	0.0198
0.3421	-0.5932	0.0229
0.3912	-0.6813	0.026
0.4765	-0.7982	0.03
0.5482	-0.8794	0.0328
0.6094	-0.8973	0.0334
0.7082	-0.8621	0.0322
0.7845	-0.7655	0.0289
0.8452	-0.5762	0.0223
0.9161	-0.2856	0.0123
0.9704	-0.08875	0.00585

System: ethanol + 1-hexyl-3-methylimidazolium bis[(trifluoromethyl)sulfonyl]imide; phases: Liquid
Fixed: Pressure, kPa = 101
Fixed: Temperature, K = 353.15
Property: Excess molar enthalpy (molar enthalpy of mixing), kJ/mol (Liquid); method: FLOW:UFactor:4
Mole fraction of ethanol	Excess molar enthalpy (molar enthalpy of mixing), kJ/mol	uncertainty
0.0506	0.2709	0.0118
0.1012	0.5515	0.0215
0.1517	0.8463	0.0317
0.2022	1.127	0.041
0.4534	2.133	0.076
0.6033	2.305	0.082
0.9012	1.074	0.04
0.9506	0.5778	0.0224

System: butanone + 1-hexyl-3-methylimidazolium bis[(trifluoromethyl)sulfonyl]imide; phases: Liquid
Fixed: Pressure, kPa = 101
Fixed: Temperature, K = 353.15
Property: Excess molar enthalpy (molar enthalpy of mixing), kJ/mol (Liquid); method: FLOW:UFactor:4
Mole fraction of butanone	Excess molar enthalpy (molar enthalpy of mixing), kJ/mol	uncertainty
0.02	-0.0524	0.0047
0.05	-0.1238	0.007
0.1	-0.242	0.0108
0.15	-0.3775	0.0155
0.2001	-0.502	0.0198
0.3001	-0.7133	0.0271
0.4001	-0.9003	0.0335
0.5001	-1.047	0.039
0.6001	-1.145	0.042
0.7001	-1.165	0.043
0.8001	-1.067	0.039
0.9	-0.7576	0.0286
0.95	-0.4785	0.019

System: pentan-3-one + 1-hexyl-3-methylimidazolium bis[(trifluoromethyl)sulfonyl]imide; phases: Liquid
Fixed: Pressure, kPa = 101
Fixed: Temperature, K = 353.15
Property: Excess molar enthalpy (molar enthalpy of mixing), kJ/mol (Liquid); method: FLOW:UFactor:4
Mole fraction of pentan-3-one	Excess molar enthalpy (molar enthalpy of mixing), kJ/mol	uncertainty
0.0503	-0.1035	0.0063
0.1005	-0.2205	0.0101
0.1507	-0.3324	0.0139
0.2009	-0.4482	0.0179
0.3011	-0.6539	0.025
0.4013	-0.829	0.0311
0.5013	-1.006	0.037
0.6013	-1.113	0.041
0.7011	-1.155	0.042
0.8009	-1.042	0.038
0.9005	-0.7415	0.028
0.9503	-0.4548	0.0181

System: acetone + 1-hexyl-3-methylimidazolium bis[(trifluoromethyl)sulfonyl]imide; phases: Liquid
Fixed: Pressure, kPa = 101
Fixed: Temperature, K = 353.15
Property: Excess molar enthalpy (molar enthalpy of mixing), kJ/mol (Liquid); method: FLOW:UFactor:4
Mole fraction of acetone	Excess molar enthalpy (molar enthalpy of mixing), kJ/mol	uncertainty
0.02	-0.0448	0.00451
0.0499	-0.1059	0.0064
0.0999	-0.2144	0.0099
0.1498	-0.3328	0.0139
0.1998	-0.4443	0.0178
0.2997	-0.6613	0.0253
0.3996	-0.8462	0.0317
0.4996	-0.9985	0.0369
0.5996	-1.088	0.04
0.6997	-1.123	0.041
0.7998	-1.045	0.039
0.8999	-0.7603	0.0287
0.9499	-0.4886	0.0193
