Measured thermophysical data. Experimental measurements and modelling of volumetric properties, refractive index and viscosity of binary systems of ethyl lactate with methyl ethyl ketone, toluene and n-methyl-2-pirrolidone at 288.15 323.15 K and atmospheric pressure. New UNIFAC VISCO and ASOG VISCO interaction parameters
Source: Fluid Phase Equilib., 2015, 10.1016/j.fluid.2015.04.017
Compound 1: DL-ethyl lactate, C5H10O3, InChI=1S/C5H10O3/c1-3-8-5(7)4(2)6/h4,6H,3H2,1-2H3, purity 99%
Compound 2: butanone, C4H8O, InChI=1S/C4H8O/c1-3-4(2)5/h3H2,1-2H3, purity 99.5%
Compound 3: toluene, C7H8, InChI=1S/C7H8/c1-7-5-3-2-4-6-7/h2-6H,1H3, purity 99.5%
Compound 4: N-methylpyrrolidone, C5H9NO, InChI=1S/C5H9NO/c1-6-4-2-3-5(6)7/h2-4H2,1H3, purity 99.5%

System: DL-ethyl lactate; phases: Liquid
Property: Mass density, kg/m3 (Liquid); method: Vibrating tube method
Temperature, K	Pressure, kPa	Mass density, kg/m3	uncertainty
298.15	101.325	1028.392	0.252

System: DL-ethyl lactate; phases: Liquid
Property: Refractive index (Na D-line) (Liquid); method: Standard Abbe refractometry
Temperature, K	Pressure, kPa	Refractive index (Na D-line)	uncertainty
298.15	101.325	1.41076	0.00037

System: DL-ethyl lactate; phases: Liquid
Property: Viscosity, Pa*s (Liquid); method: Concentric cylinders viscometry
Temperature, K	Pressure, kPa	Viscosity, Pa*s	uncertainty
298.15	101.325	0.0023902	2.48e-05

System: butanone; phases: Liquid
Property: Mass density, kg/m3 (Liquid); method: Vibrating tube method
Temperature, K	Pressure, kPa	Mass density, kg/m3	uncertainty
298.15	101.325	800.872	0.143

System: butanone; phases: Liquid
Property: Refractive index (Na D-line) (Liquid); method: Standard Abbe refractometry
Temperature, K	Pressure, kPa	Refractive index (Na D-line)	uncertainty
298.15	101.325	1.37662	0.00033

System: butanone; phases: Liquid
Property: Viscosity, Pa*s (Liquid); method: Concentric cylinders viscometry
Temperature, K	Pressure, kPa	Viscosity, Pa*s	uncertainty
298.15	101.325	0.00038885	5.67e-06

System: toluene; phases: Liquid
Property: Mass density, kg/m3 (Liquid); method: Vibrating tube method
Temperature, K	Pressure, kPa	Mass density, kg/m3	uncertainty
298.15	101.325	862.206	0.124

System: toluene; phases: Liquid
Property: Refractive index (Na D-line) (Liquid); method: Standard Abbe refractometry
Temperature, K	Pressure, kPa	Refractive index (Na D-line)	uncertainty
298.15	101.325	1.49299	0.00033

System: toluene; phases: Liquid
Property: Viscosity, Pa*s (Liquid); method: Concentric cylinders viscometry
Temperature, K	Pressure, kPa	Viscosity, Pa*s	uncertainty
298.15	101.325	0.00056703	7e-06

System: N-methylpyrrolidone; phases: Liquid
Property: Mass density, kg/m3 (Liquid); method: Vibrating tube method
Temperature, K	Pressure, kPa	Mass density, kg/m3	uncertainty
298.15	101.325	1030.451	0.099

System: N-methylpyrrolidone; phases: Liquid
Property: Refractive index (Na D-line) (Liquid); method: Standard Abbe refractometry
Temperature, K	Pressure, kPa	Refractive index (Na D-line)	uncertainty
298.15	101.325	1.468696	0.000326

System: N-methylpyrrolidone; phases: Liquid
Property: Viscosity, Pa*s (Liquid); method: Concentric cylinders viscometry
Temperature, K	Pressure, kPa	Viscosity, Pa*s	uncertainty
298.15	101.325	0.001757	1.7e-05

System: butanone + DL-ethyl lactate; phases: Liquid
Fixed: Pressure, kPa = 101
Property: Mass density, kg/m3 (Liquid); method: Vibrating tube method
Temperature, K	Mole fraction of DL-ethyl lactate	Mass density, kg/m3	uncertainty
288.15	0	811.324	0.139
288.15	0.0999	840.096	0.148
288.15	0.1999	868.347	0.147
288.15	0.3001	894.852	0.149
288.15	0.4001	919.605	0.153
288.15	0.5	942.723	0.159
288.15	0.5998	964.577	0.169
288.15	0.6999	985.434	0.181
288.15	0.8	1005.128	0.199
288.15	0.9001	1023.303	0.23
288.15	1	1039.275	0.261
293.15	0	806.111	0.14
293.15	0.0999	834.849	0.15
293.15	0.1999	863.068	0.149
293.15	0.3001	889.537	0.15
293.15	0.4001	914.27	0.154
293.15	0.5	937.369	0.161
293.15	0.5998	959.204	0.17
293.15	0.6999	980.043	0.181
293.15	0.8	999.721	0.196
293.15	0.9001	1017.885	0.226
293.15	1	1033.844	0.256
298.15	0	800.872	0.142
298.15	0.0999	829.575	0.151
298.15	0.1999	857.764	0.15
298.15	0.3001	884.198	0.152
298.15	0.4001	908.905	0.155
298.15	0.5	931.98	0.162
298.15	0.5998	953.795	0.17
298.15	0.6999	974.621	0.182
298.15	0.8	994.289	0.196
298.15	0.9001	1012.446	0.222
298.15	1	1028.392	0.252
303.15	0	795.603	0.143
303.15	0.0999	824.277	0.153
303.15	0.1999	852.434	0.152
303.15	0.3001	878.836	0.153
303.15	0.4001	903.522	0.156
303.15	0.5	926.577	0.162
303.15	0.5998	948.373	0.171
303.15	0.6999	969.181	0.183
303.15	0.8	988.835	0.196
303.15	0.9001	1006.985	0.218
303.15	1	1022.918	0.248
308.15	0	790.3	0.145
308.15	0.0999	818.947	0.154
308.15	0.1999	847.072	0.153
308.15	0.3001	873.449	0.154
308.15	0.4001	898.112	0.157
308.15	0.5	921.146	0.163
308.15	0.5998	942.923	0.172
308.15	0.6999	963.714	0.183
308.15	0.8	983.356	0.197
308.15	0.9001	1001.497	0.214
308.15	1	1017.42	0.243
313.15	0	784.965	0.147
313.15	0.0999	813.582	0.155
313.15	0.1999	841.677	0.154
313.15	0.3001	868.027	0.155
313.15	0.4001	892.67	0.159
313.15	0.5	915.688	0.164
313.15	0.5998	937.45	0.173
313.15	0.6999	958.226	0.184
313.15	0.8	977.854	0.197
313.15	0.9001	995.984	0.213
313.15	1	1011.902	0.239
318.15	0	779.589	0.149
318.15	0.0999	808.184	0.157
318.15	0.1999	836.25	0.156
318.15	0.3001	862.576	0.157
318.15	0.4001	887.197	0.16
318.15	0.5	910.198	0.165
318.15	0.5998	931.944	0.174
318.15	0.6999	952.707	0.184
318.15	0.8	972.323	0.198
318.15	0.9001	990.445	0.213
318.15	1	1006.358	0.235
323.15	0	774.175	0.15
323.15	0.0999	802.753	0.159
323.15	0.1999	830.788	0.158
323.15	0.3001	857.09	0.158
323.15	0.4001	881.694	0.161
323.15	0.5	904.683	0.167
323.15	0.5998	926.419	0.175
323.15	0.6999	947.168	0.185
323.15	0.8	966.77	0.198
323.15	0.9001	984.879	0.214
323.15	1	1000.789	0.23

System: butanone + DL-ethyl lactate; phases: Liquid
Fixed: Pressure, kPa = 101
Property: Refractive index (Na D-line) (Liquid); method: Standard Abbe refractometry
Temperature, K	Mole fraction of DL-ethyl lactate	Refractive index (Na D-line)	uncertainty
288.15	0	1.3817	0.00033
288.15	0.0999	1.3864	0.00033
288.15	0.1999	1.39058	0.00033
288.15	0.3001	1.39458	0.00034
288.15	0.4001	1.39808	0.00034
288.15	0.5	1.40142	0.00034
288.15	0.5998	1.40472	0.00035
288.15	0.6999	1.40745	0.00035
288.15	0.8	1.41049	0.00036
288.15	0.9001	1.41285	0.00036
288.15	1	1.41571	0.00037
293.15	0	1.37918	0.00033
293.15	0.0999	1.38393	0.00033
293.15	0.1999	1.38819	0.00033
293.15	0.3001	1.39209	0.00034
293.15	0.4001	1.39574	0.00034
293.15	0.5	1.39914	0.00034
293.15	0.5998	1.40234	0.00035
293.15	0.6999	1.40537	0.00035
293.15	0.8	1.40818	0.00036
293.15	0.9001	1.41078	0.00036
293.15	1	1.41307	0.00037
298.15	0	1.37662	0.00033
298.15	0.0999	1.38138	0.00033
298.15	0.1999	1.38566	0.00033
298.15	0.3001	1.38959	0.00034
298.15	0.4001	1.3933	0.00034
298.15	0.5	1.39673	0.00034
298.15	0.5998	1.39997	0.00035
298.15	0.6999	1.40302	0.00035
298.15	0.8	1.40585	0.00036
298.15	0.9001	1.40846	0.00036
298.15	1	1.41076	0.00037
303.15	0	1.37402	0.00033
303.15	0.0999	1.37882	0.00033
303.15	0.1999	1.38314	0.00033
303.15	0.3001	1.38712	0.00034
303.15	0.4001	1.39082	0.00034
303.15	0.5	1.39428	0.00034
303.15	0.5998	1.39754	0.00035
303.15	0.6999	1.40061	0.00035
303.15	0.8	1.40346	0.00036
303.15	0.9001	1.4061	0.00036
303.15	1	1.40843	0.00037
308.15	0	1.37138	0.00033
308.15	0.0999	1.37622	0.00033
308.15	0.1999	1.38055	0.00033
308.15	0.3001	1.38457	0.00034
308.15	0.4001	1.38833	0.00034
308.15	0.5	1.39183	0.00034
308.15	0.5998	1.39511	0.00035
308.15	0.6999	1.39819	0.00035
308.15	0.8	1.40105	0.00036
308.15	0.9001	1.40371	0.00036
308.15	1	1.4061	0.00037
313.15	0	1.36871	0.00033
313.15	0.0999	1.37361	0.00033
313.15	0.1999	1.37791	0.00033
313.15	0.3001	1.38199	0.00034
313.15	0.4001	1.38577	0.00034
313.15	0.5	1.38931	0.00034
313.15	0.5998	1.39263	0.00035
313.15	0.6999	1.39575	0.00035
313.15	0.8	1.39864	0.00036
313.15	0.9001	1.40133	0.00036
313.15	1	1.40374	0.00037
318.15	0	1.36615	0.00033
318.15	0.0999	1.37092	0.00033
318.15	0.1999	1.37524	0.00033
318.15	0.3001	1.37932	0.00034
318.15	0.4001	1.38316	0.00034
318.15	0.5	1.38671	0.00034
318.15	0.5998	1.39001	0.00035
318.15	0.6999	1.39312	0.00035
318.15	0.8	1.396	0.00036
318.15	0.9001	1.39886	0.00036
318.15	1	1.40136	0.00037
323.15	0	1.36338	0.00033
323.15	0.0999	1.36811	0.00033
323.15	0.1999	1.3724	0.00033
323.15	0.3001	1.3765	0.00034
323.15	0.4001	1.38033	0.00034
323.15	0.5	1.38393	0.00034
323.15	0.5998	1.38737	0.00035
323.15	0.6999	1.39051	0.00035
323.15	0.8	1.39348	0.00036
323.15	0.9001	1.39642	0.00036
323.15	1	1.39898	0.00037

System: butanone + DL-ethyl lactate; phases: Liquid
Fixed: Pressure, kPa = 101
Property: Viscosity, Pa*s (Liquid); method: Concentric cylinders viscometry
Temperature, K	Mole fraction of DL-ethyl lactate	Viscosity, Pa*s	uncertainty
288.15	0	0.00042171	5.9e-06
288.15	0.0999	0.00051268	6.61e-06
288.15	0.1999	0.00061569	7.46e-06
288.15	0.3001	0.00075776	8.67e-06
288.15	0.4001	0.00092039	1.013e-05
288.15	0.5	0.0011285	1.2e-05
288.15	0.5998	0.0013837	1.45e-05
288.15	0.6999	0.0017068	1.76e-05
288.15	0.8	0.002113	2.17e-05
288.15	0.9001	0.0026297	2.69e-05
288.15	1	0.0032069	3.28e-05
293.15	0	0.00040542	5.79e-06
293.15	0.0999	0.00048857	6.43e-06
293.15	0.1999	0.00058235	7.19e-06
293.15	0.3001	0.00070859	8.26e-06
293.15	0.4001	0.00085321	9.54e-06
293.15	0.5	0.0010348	1.12e-05
293.15	0.5998	0.0012535	1.33e-05
293.15	0.6999	0.0015267	1.59e-05
293.15	0.8	0.0018622	1.93e-05
293.15	0.9001	0.0022868	2.36e-05
293.15	1	0.002752	2.84e-05
298.15	0	0.00038885	5.67e-06
298.15	0.0999	0.00046512	6.25e-06
298.15	0.1999	0.00055136	6.94e-06
298.15	0.3001	0.00066425	7.89e-06
298.15	0.4001	0.00079374	9.03e-06
298.15	0.5	0.00095258	1.048e-05
298.15	0.5998	0.001141	1.23e-05
298.15	0.6999	0.0013752	1.45e-05
298.15	0.8	0.0016578	1.73e-05
298.15	0.9001	0.0020074	2.09e-05
298.15	1	0.0023902	2.48e-05
303.15	0	0.00037116	5.54e-06
303.15	0.0999	0.00044287	6.08e-06
303.15	0.1999	0.00052138	6.71e-06
303.15	0.3001	0.00062286	7.55e-06
303.15	0.4001	0.00073975	8.57e-06
303.15	0.5	0.00088155	9.86e-06
303.15	0.5998	0.0010462	1.14e-05
303.15	0.6999	0.001248	1.33e-05
303.15	0.8	0.0014887	1.57e-05
303.15	0.9001	0.0017831	1.87e-05
303.15	1	0.0020968	2.2e-05
308.15	0	0.00035423	5.42e-06
308.15	0.0999	0.00042111	5.92e-06
308.15	0.1999	0.00049393	6.49e-06
308.15	0.3001	0.00058477	7.25e-06
308.15	0.4001	0.00069095	8.16e-06
308.15	0.5	0.00081746	9.3e-06
308.15	0.5998	0.00096237	1.065e-05
308.15	0.6999	0.0011376	1.23e-05
308.15	0.8	0.0013448	1.44e-05
308.15	0.9001	0.0015946	1.69e-05
308.15	1	0.0018576	1.96e-05
313.15	0	0.00033681	5.3e-06
313.15	0.0999	0.00040012	5.77e-06
313.15	0.1999	0.00046711	6.29e-06
313.15	0.3001	0.00054922	6.96e-06
313.15	0.4001	0.00064631	7.79e-06
313.15	0.5	0.00076022	8.81e-06
313.15	0.5998	0.00088835	9.99e-06
313.15	0.6999	0.0010424	1.15e-05
313.15	0.8	0.0012216	1.32e-05
313.15	0.9001	0.0014356	1.54e-05
313.15	1	0.0016584	1.77e-05
318.15	0	0.00031937	5.18e-06
318.15	0.0999	0.00037977	5.62e-06
318.15	0.1999	0.00044154	6.1e-06
318.15	0.3001	0.0005165	6.7e-06
318.15	0.4001	0.00060516	7.45e-06
318.15	0.5	0.00070901	8.37e-06
318.15	0.5998	0.00082287	9.42e-06
318.15	0.6999	0.00095889	1.071e-05
318.15	0.8	0.0011156	1.22e-05
318.15	0.9001	0.0013001	1.41e-05
318.15	1	0.0014906	1.61e-05
323.15	0	0.00030356	5.08e-06
323.15	0.0999	0.0003598	5.48e-06
323.15	0.1999	0.00042119	5.94e-06
323.15	0.3001	0.0004897	6.49e-06
323.15	0.4001	0.0005699	7.16e-06
323.15	0.5	0.00066493	8e-06
323.15	0.5998	0.00076732	8.93e-06
323.15	0.6999	0.00088725	1.006e-05
323.15	0.8	0.0010279	1.14e-05
323.15	0.9001	0.0011933	1.31e-05
323.15	1	0.0013487	1.47e-05

System: DL-ethyl lactate + toluene; phases: Liquid
Fixed: Pressure, kPa = 101
Property: Mass density, kg/m3 (Liquid); method: Vibrating tube method
Temperature, K	Mole fraction of DL-ethyl lactate	Mass density, kg/m3	uncertainty
288.15	0	871.501	0.12
288.15	0.1001	887.622	0.128
288.15	0.2001	904.719	0.132
288.15	0.3	921.906	0.138
288.15	0.4	939.168	0.145
288.15	0.4998	956.144	0.154
288.15	0.6001	973.156	0.166
288.15	0.7	990.077	0.179
288.15	0.7999	1006.732	0.199
288.15	0.9	1023.311	0.23
288.15	1	1039.275	0.261
293.15	0	866.859	0.121
293.15	0.1001	882.811	0.129
293.15	0.2001	899.769	0.133
293.15	0.3	916.845	0.139
293.15	0.4	934.015	0.146
293.15	0.4998	950.923	0.155
293.15	0.6001	967.906	0.166
293.15	0.7	984.738	0.179
293.15	0.7999	1001.357	0.196
293.15	0.9	1017.912	0.226
293.15	1	1033.844	0.256
298.15	0	862.206	0.123
298.15	0.1001	877.99	0.13
298.15	0.2001	894.808	0.134
298.15	0.3	911.77	0.14
298.15	0.4	928.847	0.147
298.15	0.4998	945.727	0.156
298.15	0.6001	962.633	0.167
298.15	0.7	979.381	0.18
298.15	0.7999	995.963	0.195
298.15	0.9	1012.473	0.222
298.15	1	1028.392	0.252
303.15	0	857.541	0.124
303.15	0.1001	873.16	0.131
303.15	0.2001	889.833	0.136
303.15	0.3	906.687	0.141
303.15	0.4	923.666	0.148
303.15	0.4998	940.433	0.157
303.15	0.6001	957.336	0.168
303.15	0.7	974.002	0.181
303.15	0.7999	990.547	0.195
303.15	0.9	1007.142	0.218
303.15	1	1022.918	0.248
308.15	0	852.861	0.126
308.15	0.1001	868.317	0.133
308.15	0.2001	884.843	0.137
308.15	0.3	901.583	0.142
308.15	0.4	918.463	0.149
308.15	0.4998	935.187	0.158
308.15	0.6001	952.011	0.169
308.15	0.7	968.604	0.181
308.15	0.7999	985.109	0.196
308.15	0.9	1001.528	0.214
308.15	1	1017.42	0.243
313.15	0	848.164	0.127
313.15	0.1001	863.457	0.134
313.15	0.2001	879.836	0.138
313.15	0.3	896.465	0.144
313.15	0.4	913.246	0.15
313.15	0.4998	929.878	0.159
313.15	0.6001	946.664	0.169
313.15	0.7	963.183	0.182
313.15	0.7999	979.648	0.196
313.15	0.9	996.054	0.213
313.15	1	1011.902	0.239
318.15	0	843.444	0.128
318.15	0.1001	858.58	0.135
318.15	0.2001	874.813	0.139
318.15	0.3	891.323	0.145
318.15	0.4	908.008	0.152
318.15	0.4998	924.579	0.16
318.15	0.6001	941.286	0.17
318.15	0.7	957.74	0.182
318.15	0.7999	974.163	0.197
318.15	0.9	990.49	0.213
318.15	1	1006.358	0.235
323.15	0	838.707	0.13
323.15	0.1001	853.686	0.136
323.15	0.2001	869.771	0.141
323.15	0.3	886.165	0.146
323.15	0.4	902.749	0.153
323.15	0.4998	919.234	0.161
323.15	0.6001	935.886	0.171
323.15	0.7	952.282	0.183
323.15	0.7999	968.653	0.197
323.15	0.9	984.965	0.213
323.15	1	1000.789	0.23

System: DL-ethyl lactate + toluene; phases: Liquid
Fixed: Pressure, kPa = 101
Property: Refractive index (Na D-line) (Liquid); method: Standard Abbe refractometry
Temperature, K	Mole fraction of DL-ethyl lactate	Refractive index (Na D-line)	uncertainty
288.15	0	1.49883	0.00033
288.15	0.1001	1.48891	0.00033
288.15	0.2001	1.47943	0.00033
288.15	0.3	1.47043	0.00034
288.15	0.4	1.46159	0.00034
288.15	0.4998	1.45318	0.00034
288.15	0.6001	1.44507	0.00035
288.15	0.7	1.43735	0.00035
288.15	0.7999	1.42997	0.00036
288.15	0.9	1.42267	0.00036
288.15	1	1.41537	0.00037
293.15	0	1.49592	0.00033
293.15	0.1001	1.48604	0.00033
293.15	0.2001	1.47659	0.00033
293.15	0.3	1.46764	0.00034
293.15	0.4	1.45886	0.00034
293.15	0.4998	1.45051	0.00034
293.15	0.6001	1.44249	0.00035
293.15	0.7	1.43485	0.00035
293.15	0.7999	1.42751	0.00036
293.15	0.9	1.42032	0.00036
293.15	1	1.41307	0.00037
298.15	0	1.49299	0.00033
298.15	0.1001	1.48316	0.00033
298.15	0.2001	1.47373	0.00033
298.15	0.3	1.46482	0.00034
298.15	0.4	1.45613	0.00034
298.15	0.4998	1.44784	0.00034
298.15	0.6001	1.43988	0.00035
298.15	0.7	1.43231	0.00035
298.15	0.7999	1.42508	0.00036
298.15	0.9	1.41794	0.00036
298.15	1	1.41076	0.00037
303.15	0	1.49012	0.00033
303.15	0.1001	1.4803	0.00033
303.15	0.2001	1.47091	0.00033
303.15	0.3	1.46199	0.00034
303.15	0.4	1.45336	0.00034
303.15	0.4998	1.44515	0.00034
303.15	0.6001	1.43728	0.00035
303.15	0.7	1.4298	0.00035
303.15	0.7999	1.42263	0.00036
303.15	0.9	1.41555	0.00036
303.15	1	1.40843	0.00037
308.15	0	1.48731	0.00033
308.15	0.1001	1.47745	0.00033
308.15	0.2001	1.46812	0.00033
308.15	0.3	1.45914	0.00034
308.15	0.4	1.45069	0.00034
308.15	0.4998	1.44254	0.00034
308.15	0.6001	1.43474	0.00035
308.15	0.7	1.42731	0.00035
308.15	0.7999	1.42018	0.00036
308.15	0.9	1.41313	0.00036
308.15	1	1.4061	0.00037
313.15	0	1.48454	0.00033
313.15	0.1001	1.47462	0.00033
313.15	0.2001	1.46532	0.00033
313.15	0.3	1.45628	0.00034
313.15	0.4	1.44801	0.00034
313.15	0.4998	1.4399	0.00034
313.15	0.6001	1.43218	0.00035
313.15	0.7	1.4248	0.00035
313.15	0.7999	1.41773	0.00036
313.15	0.9	1.4107	0.00036
313.15	1	1.40374	0.00037
318.15	0	1.48195	0.00033
318.15	0.1001	1.47184	0.00033
318.15	0.2001	1.46262	0.00033
318.15	0.3	1.45368	0.00034
318.15	0.4	1.44558	0.00034
318.15	0.4998	1.4376	0.00034
318.15	0.6001	1.42987	0.00035
318.15	0.7	1.42243	0.00035
318.15	0.7999	1.41531	0.00036
318.15	0.9	1.40819	0.00036
318.15	1	1.40136	0.00037
323.15	0	1.47928	0.00033
323.15	0.1001	1.46909	0.00033
323.15	0.2001	1.45995	0.00033
323.15	0.3	1.45131	0.00034
323.15	0.4	1.44313	0.00034
323.15	0.4998	1.43523	0.00034
323.15	0.6001	1.42752	0.00035
323.15	0.7	1.42006	0.00035
323.15	0.7999	1.41291	0.00036
323.15	0.9	1.40578	0.00036
323.15	1	1.39898	0.00037

System: DL-ethyl lactate + toluene; phases: Liquid
Fixed: Pressure, kPa = 101
Property: Viscosity, Pa*s (Liquid); method: Concentric cylinders viscometry
Temperature, K	Mole fraction of DL-ethyl lactate	Viscosity, Pa*s	uncertainty
288.15	0	0.00062506	7.46e-06
288.15	0.1001	0.00068971	8.01e-06
288.15	0.2001	0.00078945	8.88e-06
288.15	0.3	0.00091358	9.99e-06
288.15	0.4	0.0010598	1.13e-05
288.15	0.4998	0.0012584	1.32e-05
288.15	0.6001	0.0014929	1.55e-05
288.15	0.7	0.0017951	1.84e-05
288.15	0.7999	0.0021739	2.22e-05
288.15	0.9	0.0026368	2.69e-05
288.15	1	0.0032069	3.28e-05
293.15	0	0.0005961	7.23e-06
293.15	0.1001	0.00065018	7.69e-06
293.15	0.2001	0.00074043	8.47e-06
293.15	0.3	0.00084675	9.42e-06
293.15	0.4	0.00097651	1.061e-05
293.15	0.4998	0.0011409	1.22e-05
293.15	0.6001	0.0013443	1.41e-05
293.15	0.7	0.0015973	1.66e-05
293.15	0.7999	0.001911	1.97e-05
293.15	0.9	0.00229	2.36e-05
293.15	1	0.0027502	2.84e-05
298.15	0	0.00056703	7e-06
298.15	0.1001	0.00061478	7.41e-06
298.15	0.2001	0.00068965	8.06e-06
298.15	0.3	0.00078647	8.91e-06
298.15	0.4	0.00090113	9.95e-06
298.15	0.4998	0.0010432	1.13e-05
298.15	0.6001	0.0012198	1.3e-05
298.15	0.7	0.0014343	1.51e-05
298.15	0.7999	0.0016954	1.77e-05
298.15	0.9	0.0020102	2.09e-05
298.15	1	0.0023902	2.48e-05
303.15	0	0.00054003	6.79e-06
303.15	0.1001	0.00058142	7.15e-06
303.15	0.2001	0.00064877	7.72e-06
303.15	0.3	0.00073447	8.47e-06
303.15	0.4	0.00083427	9.38e-06
303.15	0.4998	0.00095856	1.053e-05
303.15	0.6001	0.0011115	1.2e-05
303.15	0.7	0.0012952	1.38e-05
303.15	0.7999	0.0015168	1.6e-05
303.15	0.9	0.0017821	1.87e-05
303.15	1	0.0020968	2.2e-05
308.15	0	0.00051279	6.58e-06
308.15	0.1001	0.00055125	6.91e-06
308.15	0.2001	0.00061219	7.43e-06
308.15	0.3	0.00068764	8.08e-06
308.15	0.4	0.00077559	8.88e-06
308.15	0.4998	0.00088416	9.88e-06
308.15	0.6001	0.0010173	1.11e-05
308.15	0.7	0.0011763	1.27e-05
308.15	0.7999	0.0013665	1.46e-05
308.15	0.9	0.0015918	1.69e-05
308.15	1	0.0018576	1.96e-05
313.15	0	0.00048657	6.39e-06
313.15	0.1001	0.00052176	6.68e-06
313.15	0.2001	0.00057607	7.14e-06
313.15	0.3	0.00064388	7.72e-06
313.15	0.4	0.00072247	8.43e-06
313.15	0.4998	0.00081816	9.31e-06
313.15	0.6001	0.00093495	1.041e-05
313.15	0.7	0.0010734	1.17e-05
313.15	0.7999	0.0012388	1.34e-05
313.15	0.9	0.0014317	1.53e-05
313.15	1	0.0016584	1.77e-05
318.15	0	0.00046203	6.2e-06
318.15	0.1001	0.00049431	6.47e-06
318.15	0.2001	0.00054335	6.88e-06
318.15	0.3	0.00060423	7.4e-06
318.15	0.4	0.00067441	8.02e-06
318.15	0.4998	0.00075994	8.8e-06
318.15	0.6001	0.00086331	9.77e-06
318.15	0.7	0.00098496	1.094e-05
318.15	0.7999	0.0011295	1.24e-05
318.15	0.9	0.001296	1.41e-05
318.15	1	0.0014906	1.61e-05
323.15	0	0.00044354	6.06e-06
323.15	0.1001	0.00047115	6.29e-06
323.15	0.2001	0.00051627	6.67e-06
323.15	0.3	0.00057179	7.14e-06
323.15	0.4	0.00063426	7.69e-06
323.15	0.4998	0.00071153	8.39e-06
323.15	0.6001	0.00080377	9.25e-06
323.15	0.7	0.00091196	1.028e-05
323.15	0.7999	0.0010385	1.15e-05
323.15	0.9	0.0011864	1.3e-05
323.15	1	0.0013487	1.47e-05

System: DL-ethyl lactate + N-methylpyrrolidone; phases: Liquid
Fixed: Pressure, kPa = 101
Property: Mass density, kg/m3 (Liquid); method: Vibrating tube method
Temperature, K	Mole fraction of DL-ethyl lactate	Mass density, kg/m3	uncertainty
288.15	0	1039.404	0.101
288.15	0.0999	1040.679	0.112
288.15	0.2	1041.699	0.125
288.15	0.3001	1042.781	0.139
288.15	0.4	1043.426	0.154
288.15	0.4997	1043.891	0.17
288.15	0.6	1043.933	0.186
288.15	0.7002	1043.557	0.204
288.15	0.7999	1042.821	0.222
288.15	0.8997	1041.57	0.241
288.15	1	1039.275	0.261
293.15	0	1034.924	0.099
293.15	0.0999	1036.167	0.11
293.15	0.2	1037.144	0.123
293.15	0.3001	1038.17	0.137
293.15	0.4	1038.746	0.151
293.15	0.4997	1039.123	0.167
293.15	0.6	1039.058	0.183
293.15	0.7002	1038.559	0.201
293.15	0.7999	1037.681	0.219
293.15	0.8997	1036.282	0.237
293.15	1	1033.844	0.256
298.15	0	1030.451	0.096
298.15	0.0999	1031.66	0.108
298.15	0.2	1032.594	0.12
298.15	0.3001	1033.56	0.134
298.15	0.4	1034.063	0.148
298.15	0.4997	1034.35	0.164
298.15	0.6	1034.173	0.18
298.15	0.7002	1033.55	0.197
298.15	0.7999	1032.533	0.215
298.15	0.8997	1030.981	0.233
298.15	1	1028.392	0.252
303.15	0	1025.987	0.094
303.15	0.0999	1027.156	0.106
303.15	0.2	1028.045	0.118
303.15	0.3001	1028.951	0.131
303.15	0.4	1029.379	0.146
303.15	0.4997	1029.573	0.161
303.15	0.6	1029.285	0.177
303.15	0.7002	1028.531	0.194
303.15	0.7999	1027.373	0.211
303.15	0.8997	1025.668	0.229
303.15	1	1022.918	0.248
308.15	0	1021.524	0.092
308.15	0.0999	1022.659	0.103
308.15	0.2	1023.497	0.116
308.15	0.3001	1024.338	0.129
308.15	0.4	1024.689	0.143
308.15	0.4997	1024.786	0.158
308.15	0.6	1024.385	0.174
308.15	0.7002	1023.503	0.19
308.15	0.7999	1022.196	0.208
308.15	0.8997	1020.34	0.225
308.15	1	1017.42	0.243
313.15	0	1017.069	0.09
313.15	0.0999	1018.162	0.101
313.15	0.2	1018.949	0.113
313.15	0.3001	1019.722	0.126
313.15	0.4	1019.994	0.14
313.15	0.4997	1019.996	0.155
313.15	0.6	1019.476	0.171
313.15	0.7002	1018.459	0.187
313.15	0.7999	1017.011	0.204
313.15	0.8997	1014.997	0.221
313.15	1	1011.902	0.239
318.15	0	1012.612	0.088
318.15	0.0999	1013.665	0.099
318.15	0.2	1014.399	0.111
318.15	0.3001	1015.101	0.124
318.15	0.4	1015.292	0.137
318.15	0.4997	1015.189	0.152
318.15	0.6	1014.554	0.167
318.15	0.7002	1013.404	0.184
318.15	0.7999	1011.809	0.2
318.15	0.8997	1009.642	0.217
318.15	1	1006.358	0.235
323.15	0	1008.16	0.086
323.15	0.0999	1009.168	0.097
323.15	0.2	1009.846	0.108
323.15	0.3001	1010.475	0.121
323.15	0.4	1010.583	0.135
323.15	0.4997	1010.376	0.149
323.15	0.6	1009.623	0.164
323.15	0.7002	1008.34	0.18
323.15	0.7999	1006.603	0.197
323.15	0.8997	1004.284	0.214
323.15	1	1000.789	0.23

System: DL-ethyl lactate + N-methylpyrrolidone; phases: Liquid
Fixed: Pressure, kPa = 101
Property: Refractive index (Na D-line) (Liquid); method: Standard Abbe refractometry
Temperature, K	Mole fraction of DL-ethyl lactate	Refractive index (Na D-line)	uncertainty
288.15	0	1.47305	0.00033
288.15	0.0999	1.46662	0.00033
288.15	0.2	1.46071	0.00033
288.15	0.3001	1.45507	0.00034
288.15	0.4	1.44952	0.00034
288.15	0.4997	1.44392	0.00034
288.15	0.6	1.43817	0.00035
288.15	0.7002	1.43232	0.00035
288.15	0.7999	1.42648	0.00036
288.15	0.8997	1.42076	0.00036
288.15	1	1.41537	0.00037
293.15	0	1.47088	0.00033
293.15	0.0999	1.46449	0.00033
293.15	0.2	1.45857	0.00033
293.15	0.3001	1.4529	0.00034
293.15	0.4	1.44734	0.00034
293.15	0.4997	1.44172	0.00034
293.15	0.6	1.43597	0.00035
293.15	0.7002	1.43014	0.00035
293.15	0.7999	1.4243	0.00036
293.15	0.8997	1.41855	0.00036
293.15	1	1.41307	0.00037
298.15	0	1.4687	0.00033
298.15	0.0999	1.46235	0.00033
298.15	0.2	1.45645	0.00033
298.15	0.3001	1.45078	0.00034
298.15	0.4	1.4452	0.00034
298.15	0.4997	1.43956	0.00034
298.15	0.6	1.4338	0.00035
298.15	0.7002	1.42795	0.00035
298.15	0.7999	1.42209	0.00036
298.15	0.8997	1.41631	0.00036
298.15	1	1.41076	0.00037
303.15	0	1.46651	0.00033
303.15	0.0999	1.46021	0.00033
303.15	0.2	1.45431	0.00033
303.15	0.3001	1.44863	0.00034
303.15	0.4	1.44302	0.00034
303.15	0.4997	1.43738	0.00034
303.15	0.6	1.43161	0.00035
303.15	0.7002	1.42575	0.00035
303.15	0.7999	1.41988	0.00036
303.15	0.8997	1.41406	0.00036
303.15	1	1.40843	0.00037
308.15	0	1.46434	0.00033
308.15	0.0999	1.45809	0.00033
308.15	0.2	1.45218	0.00033
308.15	0.3001	1.44646	0.00034
308.15	0.4	1.44084	0.00034
308.15	0.4997	1.43516	0.00034
308.15	0.6	1.42939	0.00035
308.15	0.7002	1.42354	0.00035
308.15	0.7999	1.41768	0.00036
308.15	0.8997	1.41183	0.00036
308.15	1	1.4061	0.00037
313.15	0	1.46211	0.00033
313.15	0.0999	1.45594	0.00033
313.15	0.2	1.45005	0.00033
313.15	0.3001	1.44428	0.00034
313.15	0.4	1.43859	0.00034
313.15	0.4997	1.43288	0.00034
313.15	0.6	1.4271	0.00035
313.15	0.7002	1.42126	0.00035
313.15	0.7999	1.41542	0.00036
313.15	0.8997	1.40957	0.00036
313.15	1	1.40374	0.00037
318.15	0	1.45998	0.00033
318.15	0.0999	1.45386	0.00033
318.15	0.2	1.44796	0.00033
318.15	0.3001	1.44218	0.00034
318.15	0.4	1.43648	0.00034
318.15	0.4997	1.43073	0.00034
318.15	0.6	1.4249	0.00035
318.15	0.7002	1.41902	0.00035
318.15	0.7999	1.41312	0.00036
318.15	0.8997	1.40722	0.00036
318.15	1	1.40136	0.00037
323.15	0	1.45783	0.00033
323.15	0.0999	1.45178	0.00033
323.15	0.2	1.44586	0.00033
323.15	0.3001	1.44006	0.00034
323.15	0.4	1.43431	0.00034
323.15	0.4997	1.42854	0.00034
323.15	0.6	1.42269	0.00035
323.15	0.7002	1.41679	0.00035
323.15	0.7999	1.41086	0.00036
323.15	0.8997	1.40492	0.00036
323.15	1	1.39898	0.00037

System: DL-ethyl lactate + N-methylpyrrolidone; phases: Liquid
Fixed: Pressure, kPa = 101
Property: Viscosity, Pa*s (Liquid); method: Concentric cylinders viscometry
Temperature, K	Mole fraction of DL-ethyl lactate	Viscosity, Pa*s	uncertainty
288.15	0	0.0020883	1.99e-05
288.15	0.0999	0.00234	2.23e-05
288.15	0.2	0.002601	2.48e-05
288.15	0.3001	0.0028896	2.76e-05
288.15	0.4	0.003122	3e-05
288.15	0.4997	0.0033524	3.24e-05
288.15	0.6	0.0035083	3.42e-05
288.15	0.7002	0.0035814	3.53e-05
288.15	0.7999	0.0035672	3.55e-05
288.15	0.8997	0.0034563	3.48e-05
288.15	1	0.0032069	3.28e-05
293.15	0	0.0019103	1.84e-05
293.15	0.0999	0.0021251	2.04e-05
293.15	0.2	0.0023465	2.25e-05
293.15	0.3001	0.0025849	2.48e-05
293.15	0.4	0.0027717	2.68e-05
293.15	0.4997	0.0029517	2.87e-05
293.15	0.6	0.0030659	3.01e-05
293.15	0.7002	0.0031097	3.08e-05
293.15	0.7999	0.0030796	3.09e-05
293.15	0.8997	0.0029753	3.02e-05
293.15	1	0.0027502	2.84e-05
298.15	0	0.001757	1.7e-05
298.15	0.0999	0.0019409	1.88e-05
298.15	0.2	0.0021318	2.06e-05
298.15	0.3001	0.0023307	2.26e-05
298.15	0.4	0.0024817	2.41e-05
298.15	0.4997	0.0026239	2.57e-05
298.15	0.6	0.0027056	2.67e-05
298.15	0.7002	0.0027264	2.72e-05
298.15	0.7999	0.0026921	2.71e-05
298.15	0.8997	0.0025913	2.65e-05
298.15	1	0.0023902	2.48e-05
303.15	0	0.0016231	1.59e-05
303.15	0.0999	0.0017848	1.74e-05
303.15	0.2	0.0019466	1.89e-05
303.15	0.3001	0.0021133	2.06e-05
303.15	0.4	0.002235	2.19e-05
303.15	0.4997	0.0023485	2.31e-05
303.15	0.6	0.0024103	2.39e-05
303.15	0.7002	0.0024159	2.42e-05
303.15	0.7999	0.0023777	2.41e-05
303.15	0.8997	0.0022838	2.35e-05
303.15	1	0.0020968	2.2e-05
308.15	0	0.0015051	1.48e-05
308.15	0.0999	0.0016465	1.62e-05
308.15	0.2	0.0017865	1.75e-05
308.15	0.3001	0.0019267	1.89e-05
308.15	0.4	0.0020257	2e-05
308.15	0.4997	0.0021163	2.1e-05
308.15	0.6	0.0021597	2.16e-05
308.15	0.7002	0.0021562	2.18e-05
308.15	0.7999	0.0021145	2.16e-05
308.15	0.8997	0.0020264	2.1e-05
308.15	1	0.0018576	1.96e-05
313.15	0	0.0014006	1.39e-05
313.15	0.0999	0.0015247	1.51e-05
313.15	0.2	0.001646	1.63e-05
313.15	0.3001	0.0017649	1.75e-05
313.15	0.4	0.001845	1.83e-05
313.15	0.4997	0.0019181	1.92e-05
313.15	0.6	0.0019485	1.97e-05
313.15	0.7002	0.0019373	1.97e-05
313.15	0.7999	0.001896	1.96e-05
313.15	0.8997	0.0018156	1.9e-05
313.15	1	0.0016584	1.77e-05
318.15	0	0.0013072	1.31e-05
318.15	0.0999	0.0014171	1.42e-05
318.15	0.2	0.001523	1.52e-05
318.15	0.3001	0.0016245	1.62e-05
318.15	0.4	0.0016889	1.69e-05
318.15	0.4997	0.001748	1.76e-05
318.15	0.6	0.0017683	1.8e-05
318.15	0.7002	0.0017513	1.8e-05
318.15	0.7999	0.0017122	1.78e-05
318.15	0.8997	0.0016356	1.73e-05
318.15	1	0.0014906	1.61e-05
323.15	0	0.0012312	1.25e-05
323.15	0.0999	0.0013285	1.34e-05
323.15	0.2	0.0014219	1.43e-05
323.15	0.3001	0.0015122	1.52e-05
323.15	0.4	0.0015629	1.58e-05
323.15	0.4997	0.001615	1.64e-05
323.15	0.6	0.0016202	1.66e-05
323.15	0.7002	0.0016022	1.66e-05
323.15	0.7999	0.0015677	1.65e-05
323.15	0.8997	0.0014924	1.59e-05
323.15	1	0.0013487	1.47e-05
