Measured thermophysical data. High-pressure phase equilibrium data for carbon dioxide p dichloromethane p acetone and carbon dioxide p dichloromethane p acetone p N-acetylcysteine (NAC)
Source: Fluid Phase Equilib., 2018, 10.1016/j.fluid.2018.06.008
Compound 1: dichloromethane, CH2Cl2, InChI=1S/CH2Cl2/c2-1-3/h1H2, purity 99.8%
Compound 2: acetone, C3H6O, InChI=1S/C3H6O/c1-3(2)4/h1-2H3, purity 99.8%
Compound 3: carbon dioxide, CO2, InChI=1S/CO2/c2-1-3, purity 99.9%

System: carbon dioxide + dichloromethane + acetone; phases: Liquid, Gas
Fixed: Mass ratio of solute to solvent of dichloromethane = 1.5
Property: Vapor or sublimation pressure, kPa (Liquid); method: Phase equilibration
Mass fraction of carbon dioxide	Temperature, K	Vapor or sublimation pressure, kPa	uncertainty
0.6029	308	5190	410
0.6029	318	6050	480
0.6029	328	6940	540
0.6944	308	5930	470
0.6944	318	6880	540
0.6944	328	7770	610
0.8091	308	6380	510
0.8091	318	7550	590
0.8091	328	8510	670
0.8519	308	6720	530
0.8519	318	7770	610
0.8519	328	8880	700
0.8907	308	7020	550
0.8907	318	8090	640
0.8907	328	9170	720
0.9107	308	7140	560
0.9107	318	8270	650
0.9107	328	9380	730
0.9315	308	7380	580
0.9315	318	8500	670
0.9315	328	9610	750
0.95	308	7590	600
0.95	318	8680	680
0.9754	308	7730	610

System: carbon dioxide + dichloromethane + acetone; phases: Gas, Liquid
Fixed: Mass ratio of solute to solvent of dichloromethane = 1.5
Property: Vapor or sublimation pressure, kPa (Gas); method: Phase equilibration
Mass fraction of carbon dioxide	Temperature, K	Vapor or sublimation pressure, kPa	uncertainty
0.95	328	9580	750
0.9754	318	8480	660
0.9754	328	9390	730
