Measured thermophysical data. Determination and correlation of solubilities of 1,2-bis(2-oxo-5,5-dimethyl-1,3,2-dioxyphosphacyclohexyl-2-imino) ethane in selected solvents
Source: Fluid Phase Equilib., 2013, 10.1016/j.fluid.2013.09.058
Compound 1: 1,2-bis(2-oxo-5,5-dimethyl-1,3,2-dioxyphosphacyclohexyl-2-imino) ethane, C12H26N2O6P2, InChI=1S/C12H26N2O6P2/c1-11(2)7-17-21(15,18-8-11)13-5-6-14-22(16)19-9-12(3,4)10-20-22/h5-10H2,1-4H3,(H,13,15)(H,14,16)
Compound 2: methanol, CH4O, InChI=1S/CH4O/c1-2/h2H,1H3, purity 99.5%
Compound 3: tetrahydrofuran, C4H8O, InChI=1S/C4H8O/c1-2-4-5-3-1/h1-4H2, purity 99.8%
Compound 4: propan-2-ol, C3H8O, InChI=1S/C3H8O/c1-3(2)4/h3-4H,1-2H3, purity 99.8%
Compound 5: 1,2-dichloroethane, C2H4Cl2, InChI=1S/C2H4Cl2/c3-1-2-4/h1-2H2, purity 99.5%
Compound 6: butanone, C4H8O, InChI=1S/C4H8O/c1-3-4(2)5/h3H2,1-2H3, purity 99.5%
Compound 7: diethyl ether, C4H10O, InChI=1S/C4H10O/c1-3-5-4-2/h3-4H2,1-2H3, purity 99.5%
Compound 8: acetonitrile, C2H3N, InChI=1S/C2H3N/c1-2-3/h1H3, purity 99.5%
Compound 9: ethyl methanoate, C3H6O2, InChI=1S/C3H6O2/c1-2-5-3-4/h3H,2H2,1H3, purity 99.8%

System: 1,2-bis(2-oxo-5,5-dimethyl-1,3,2-dioxyphosphacyclohexyl-2-imino) ethane; phases: Crystal, Liquid, Air at 1 atmosphere
Property: Normal melting temperature, K (Crystal); method: DTA
Normal melting temperature, K	uncertainty
564.69	0.63

System: 1,2-bis(2-oxo-5,5-dimethyl-1,3,2-dioxyphosphacyclohexyl-2-imino) ethane; phases: Crystal, Liquid, Air at 1 atmosphere
Property: Molar enthalpy of transition or fusion, kJ/mol (Crystal); method: DSC
Molar enthalpy of transition or fusion, kJ/mol	uncertainty
56.21	1.17

System: methanol + 1,2-bis(2-oxo-5,5-dimethyl-1,3,2-dioxyphosphacyclohexyl-2-imino) ethane; phases: Liquid, Crystal
Fixed: Pressure, kPa = 100
Property: Solid-liquid equilibrium temperature, K (Liquid); method: gravimetric
Mole fraction of 1,2-bis(2-oxo-5,5-dimethyl-1,3,2-dioxyphosphacyclohexyl-2-imino) ethane	Solid-liquid equilibrium temperature, K	uncertainty
0.0003942	293.15	0.12
0.0005312	298.15	0.13
0.0007176	303.15	0.12
0.0012466	313.15	0.15
0.0016091	318.15	0.14
0.0020492	323.15	0.15
0.0025777	328.15	0.16

System: tetrahydrofuran + 1,2-bis(2-oxo-5,5-dimethyl-1,3,2-dioxyphosphacyclohexyl-2-imino) ethane; phases: Liquid, Crystal
Fixed: Pressure, kPa = 100
Property: Solid-liquid equilibrium temperature, K (Liquid); method: gravimetric
Mole fraction of 1,2-bis(2-oxo-5,5-dimethyl-1,3,2-dioxyphosphacyclohexyl-2-imino) ethane	Solid-liquid equilibrium temperature, K	uncertainty
0.0005282	293.15	0.13
0.0006905	298.15	0.13
0.0009393	303.15	0.13
0.0012119	308.15	0.14
0.001571	313.15	0.14
0.0019942	318.15	0.14
0.0025304	323.15	0.15

System: propan-2-ol + 1,2-bis(2-oxo-5,5-dimethyl-1,3,2-dioxyphosphacyclohexyl-2-imino) ethane; phases: Liquid, Crystal
Fixed: Pressure, kPa = 100
Property: Solid-liquid equilibrium temperature, K (Liquid); method: gravimetric
Mole fraction of 1,2-bis(2-oxo-5,5-dimethyl-1,3,2-dioxyphosphacyclohexyl-2-imino) ethane	Solid-liquid equilibrium temperature, K	uncertainty
0.0002318	293.15	0.12
0.0004185	303.15	0.13
0.0007419	313.15	0.13
0.0012975	323.15	0.14
0.0020989	333.15	0.15
0.0027006	338.15	0.14
0.0034747	343.15	0.15

System: 1,2-dichloroethane + 1,2-bis(2-oxo-5,5-dimethyl-1,3,2-dioxyphosphacyclohexyl-2-imino) ethane; phases: Liquid, Crystal
Fixed: Pressure, kPa = 100
Property: Solid-liquid equilibrium temperature, K (Liquid); method: gravimetric
Mole fraction of 1,2-bis(2-oxo-5,5-dimethyl-1,3,2-dioxyphosphacyclohexyl-2-imino) ethane	Solid-liquid equilibrium temperature, K	uncertainty
0.000151	293.15	0.12
0.0002077	298.15	0.13
0.0002716	303.15	0.13
0.0004628	313.15	0.13
0.0007819	323.15	0.15
0.0010039	328.15	0.14
0.0012692	333.15	0.16

System: butanone + 1,2-bis(2-oxo-5,5-dimethyl-1,3,2-dioxyphosphacyclohexyl-2-imino) ethane; phases: Liquid, Crystal
Fixed: Pressure, kPa = 100
Property: Solid-liquid equilibrium temperature, K (Liquid); method: gravimetric
Mole fraction of 1,2-bis(2-oxo-5,5-dimethyl-1,3,2-dioxyphosphacyclohexyl-2-imino) ethane	Solid-liquid equilibrium temperature, K	uncertainty
0.0013207	293.15	0.12
0.0022206	303.15	0.14
0.0036343	313.15	0.14
0.0059731	323.15	0.15
0.0090827	333.15	0.16
0.0112986	338.15	0.15
0.0141245	343.15	0.16

System: diethyl ether + 1,2-bis(2-oxo-5,5-dimethyl-1,3,2-dioxyphosphacyclohexyl-2-imino) ethane; phases: Liquid, Crystal
Fixed: Pressure, kPa = 100
Property: Solid-liquid equilibrium temperature, K (Liquid); method: gravimetric
Mole fraction of 1,2-bis(2-oxo-5,5-dimethyl-1,3,2-dioxyphosphacyclohexyl-2-imino) ethane	Solid-liquid equilibrium temperature, K	uncertainty
0.0006821	288.15	0.11
0.0011874	293.15	0.11
0.0016345	296.15	0.11
0.0020697	298.15	0.11
0.0027937	301.15	0.11
0.0034959	303.15	0.11
0.0042566	305.15	0.11

System: acetonitrile + 1,2-bis(2-oxo-5,5-dimethyl-1,3,2-dioxyphosphacyclohexyl-2-imino) ethane; phases: Liquid, Crystal
Fixed: Pressure, kPa = 100
Property: Solid-liquid equilibrium temperature, K (Liquid); method: gravimetric
Mole fraction of 1,2-bis(2-oxo-5,5-dimethyl-1,3,2-dioxyphosphacyclohexyl-2-imino) ethane	Solid-liquid equilibrium temperature, K	uncertainty
6.58e-05	293.15	0.11
0.0001415	303.15	0.12
0.0002882	313.15	0.12
0.0005777	323.15	0.12
0.001063	333.15	0.13
0.0014711	338.15	0.13
0.0019534	343.15	0.14

System: ethyl methanoate + 1,2-bis(2-oxo-5,5-dimethyl-1,3,2-dioxyphosphacyclohexyl-2-imino) ethane; phases: Liquid, Crystal
Fixed: Pressure, kPa = 100
Property: Solid-liquid equilibrium temperature, K (Liquid); method: gravimetric
Mole fraction of 1,2-bis(2-oxo-5,5-dimethyl-1,3,2-dioxyphosphacyclohexyl-2-imino) ethane	Solid-liquid equilibrium temperature, K	uncertainty
0.0006624	293.15	0.12
0.0008903	298.15	0.13
0.0011921	303.15	0.13
0.0015616	308.15	0.14
0.0020381	313.15	0.14
0.0026741	318.15	0.13
0.0035454	323.15	0.14
