Measured thermophysical data. Preferential solvation and mixing behaviour of the essential oil 1,8-cineole with short-chain hydrocarbons
Source: Fluid Phase Equilib., 2016, 10.1016/j.fluid.2016.08.035
Compound 1: hexane, C6H14, InChI=1S/C6H14/c1-3-5-6-4-2/h3-6H2,1-2H3, purity 99%
Compound 2: octane, C8H18, InChI=1S/C8H18/c1-3-5-7-8-6-4-2/h3-8H2,1-2H3, purity 99.5%
Compound 3: decane, C10H22, InChI=1S/C10H22/c1-3-5-7-9-10-8-6-4-2/h3-10H2,1-2H3, purity 99%
Compound 4: 1,3,3-trimethyl-2-oxabicyclo[2.2.2]octane, C10H18O, InChI=1S/C10H18O/c1-9(2)8-4-6-10(3,11-9)7-5-8/h8H,4-7H2,1-3H3, purity 99%

System: hexane + 1,3,3-trimethyl-2-oxabicyclo[2.2.2]octane; phases: Liquid
Fixed: Pressure, kPa = 101
Property: Mass density, kg/m3 (Liquid); method: Vibrating tube method
Temperature, K	Mole fraction of 1,3,3-trimethyl-2-oxabicyclo[2.2.2]octane	Mass density, kg/m3	uncertainty
278.15	0	673.1	0.25
278.15	0.1043	708.22	0.25
278.15	0.2069	740.59	0.25
278.15	0.2965	767.3	0.25
278.15	0.4005	796.7	0.24
278.15	0.4991	823.02	0.24
278.15	0.5999	848.56	0.24
278.15	0.6995	872.46	0.24
278.15	0.8005	895.28	0.23
278.15	0.8985	916.39	0.23
278.15	1	937.25	0.23
298.15	0	655.3	0.25
298.15	0.1043	690.43	0.25
298.15	0.2069	722.9	0.25
298.15	0.2965	749.7	0.25
298.15	0.4005	779.19	0.24
298.15	0.4991	805.59	0.24
298.15	0.5999	831.19	0.24
298.15	0.6995	855.13	0.24
298.15	0.8005	878	0.24
298.15	0.8985	899.14	0.23
298.15	1	920.04	0.23
318.15	0	636.71	0.25
318.15	0.1043	672.12	0.26
318.15	0.2069	704.78	0.25
318.15	0.2965	731.74	0.25
318.15	0.4005	761.37	0.25
318.15	0.4991	787.91	0.24
318.15	0.5999	813.62	0.24
318.15	0.6995	837.67	0.24
318.15	0.8005	860.63	0.24
318.15	0.8985	881.86	0.23
318.15	1	902.84	0.23
338.15	0	617.44	0.26
338.15	0.1043	653.14	0.26
338.15	0.2069	685.99	0.25
338.15	0.2965	713.31	0.25
338.15	0.4005	743.17	0.25
338.15	0.4991	769.91	0.24
338.15	0.5999	795.8	0.24
338.15	0.6995	819.99	0.24
338.15	0.8005	843.1	0.24
338.15	0.8985	864.46	0.24
338.15	1	885.57	0.23

System: hexane + 1,3,3-trimethyl-2-oxabicyclo[2.2.2]octane; phases: Liquid
Fixed: Pressure, kPa = 101
Property: Viscosity, Pa*s (Liquid); method: Falling or rolling sphere viscometry
Temperature, K	Mole fraction of 1,3,3-trimethyl-2-oxabicyclo[2.2.2]octane	Viscosity, Pa*s	uncertainty
278.15	0	0.00039	4e-05
278.15	0.1043	0.00047	4e-05
278.15	0.2069	0.00057	4e-05
278.15	0.2965	0.00068	4e-05
278.15	0.4005	0.00083	4e-05
278.15	0.4991	0.00103	4e-05
278.15	0.5999	0.00128	4e-05
278.15	0.6995	0.00166	4e-05
278.15	0.8005	0.00219	4e-05
278.15	0.8985	0.00293	5e-05
278.15	1	0.00421	5e-05
298.15	0	0.00034	4e-05
298.15	0.1043	0.00039	4e-05
298.15	0.2069	0.00046	4e-05
298.15	0.2965	0.00053	4e-05
298.15	0.4005	0.00064	4e-05
298.15	0.4991	0.00077	4e-05
298.15	0.5999	0.00093	4e-05
298.15	0.6995	0.00116	4e-05
298.15	0.8005	0.00148	4e-05
298.15	0.8985	0.0019	4e-05
298.15	1	0.0026	5e-05
318.15	0	0.0003	4e-05
318.15	0.1043	0.00034	4e-05
318.15	0.2069	0.00038	4e-05
318.15	0.2965	0.00043	4e-05
318.15	0.4005	0.00051	4e-05
318.15	0.4991	0.0006	4e-05
318.15	0.5999	0.00071	4e-05
318.15	0.6995	0.00086	4e-05
318.15	0.8005	0.00106	4e-05
318.15	0.8985	0.00132	4e-05
318.15	1	0.00173	4e-05
338.15	0	0.00026	4e-05
338.15	0.1043	0.0003	4e-05
338.15	0.2069	0.00034	4e-05
338.15	0.2965	0.00038	4e-05
338.15	0.4005	0.00043	4e-05
338.15	0.4991	0.00049	4e-05
338.15	0.5999	0.00057	4e-05
338.15	0.6995	0.00068	4e-05
338.15	0.8005	0.00082	4e-05
338.15	0.8985	0.00099	4e-05
338.15	1	0.00127	4e-05

System: hexane + 1,3,3-trimethyl-2-oxabicyclo[2.2.2]octane; phases: Liquid
Fixed: Pressure, kPa = 101
Property: Speed of sound, m/s (Liquid); method: Sing-around technique in a fixed-path interferometer
Temperature, K	Mole fraction of 1,3,3-trimethyl-2-oxabicyclo[2.2.2]octane	Speed of sound, m/s	uncertainty
278.15	0	1169.04	1.52
278.15	0.1043	1188.85	1.52
278.15	0.2069	1208.44	1.53
278.15	0.2965	1225.82	1.53
278.15	0.4005	1246.13	1.53
278.15	0.4991	1265.27	1.53
278.15	0.5999	1284.84	1.54
278.15	0.6995	1303.99	1.54
278.15	0.8005	1322.78	1.54
278.15	0.8985	1340.96	1.54
278.15	1	1359.61	1.55
298.15	0	1078.25	1.51
298.15	0.1043	1099.9	1.51
298.15	0.2069	1121.2	1.52
298.15	0.2965	1139.77	1.52
298.15	0.4005	1161.36	1.52
298.15	0.4991	1181.47	1.52
298.15	0.5999	1201.82	1.53
298.15	0.6995	1221.64	1.53
298.15	0.8005	1241.32	1.53
298.15	0.8985	1260.03	1.53
298.15	1	1278.39	1.54
318.15	0	988.59	1.5
318.15	0.1043	1012.59	1.5
318.15	0.2069	1035.91	1.51
318.15	0.2965	1055.88	1.51
318.15	0.4005	1078.83	1.51
318.15	0.4991	1100.17	1.51
318.15	0.5999	1121.53	1.52
318.15	0.6995	1142.21	1.52
318.15	0.8005	1162.85	1.52
318.15	0.8985	1182.43	1.52
318.15	1	1200.99	1.53
338.15	0	901.09	1.49
338.15	0.1043	926.7	1.49
338.15	0.2069	952.68	1.5
338.15	0.2965	974.13	1.5
338.15	0.4005	998.9	1.5
338.15	0.4991	1021.49	1.5
338.15	0.5999	1044.07	1.51
338.15	0.6995	1065.65	1.51
338.15	0.8005	1086.96	1.51
338.15	0.8985	1107.18	1.51
338.15	1	1126.65	1.52

System: hexane + 1,3,3-trimethyl-2-oxabicyclo[2.2.2]octane; phases: Liquid
Fixed: Pressure, kPa = 101
Property: Molar heat capacity at constant pressure, J/K/mol (Liquid); method: DSC
Temperature, K	Mole fraction of 1,3,3-trimethyl-2-oxabicyclo[2.2.2]octane	Molar heat capacity at constant pressure, J/K/mol	uncertainty
278.15	0	188.32	7.29
278.15	0.1043	194.63	7.54
278.15	0.2069	200.97	7.78
278.15	0.2965	206.77	8.01
278.15	0.4005	213.53	8.27
278.15	0.4991	220.18	8.53
278.15	0.5999	227.2	8.8
278.15	0.6995	234.25	9.07
278.15	0.8005	241.41	9.35
278.15	0.8985	248.64	9.63
278.15	1	256.14	9.92
298.15	0	194.96	7.55
298.15	0.1043	201.78	7.81
298.15	0.2069	208.67	8.08
298.15	0.2965	214.95	8.32
298.15	0.4005	222.29	8.61
298.15	0.4991	229.41	8.89
298.15	0.5999	236.9	9.18
298.15	0.6995	244.43	9.47
298.15	0.8005	252.03	9.76
298.15	0.8985	259.73	10.06
298.15	1	267.69	10.37
318.15	0	201.96	7.82
318.15	0.1043	209.13	8.1
318.15	0.2069	216.45	8.38
318.15	0.2965	223.08	8.64
318.15	0.4005	230.81	8.94
318.15	0.4991	238.36	9.23
318.15	0.5999	246.29	9.54
318.15	0.6995	254.22	9.85
318.15	0.8005	262.24	10.16
318.15	0.8985	270.35	10.47
318.15	1	278.65	10.79
338.15	0	208.99	8.09
338.15	0.1043	216.81	8.4
338.15	0.2069	224.63	8.7
338.15	0.2965	231.59	8.97
338.15	0.4005	239.8	9.29
338.15	0.4991	247.71	9.59
338.15	0.5999	256.09	9.92
338.15	0.6995	264.46	10.24
338.15	0.8005	272.99	10.57
338.15	0.8985	281.61	10.91
338.15	1	290.33	11.24

System: octane + 1,3,3-trimethyl-2-oxabicyclo[2.2.2]octane; phases: Liquid
Fixed: Pressure, kPa = 101
Property: Mass density, kg/m3 (Liquid); method: Vibrating tube method
Temperature, K	Mole fraction of 1,3,3-trimethyl-2-oxabicyclo[2.2.2]octane	Mass density, kg/m3	uncertainty
278.15	0	714.55	0.17
278.15	0.1046	738.47	0.17
278.15	0.199	759.76	0.17
278.15	0.2987	782.16	0.17
278.15	0.4008	805.03	0.18
278.15	0.4955	826.13	0.18
278.15	0.5939	847.98	0.19
278.15	0.6971	870.82	0.19
278.15	0.7985	893.16	0.2
278.15	0.8939	914.06	0.22
278.15	1	937.25	0.23
298.15	0	698.51	0.17
298.15	0.1046	722.35	0.18
298.15	0.199	743.56	0.18
298.15	0.2987	765.86	0.18
298.15	0.4008	788.62	0.18
298.15	0.4955	809.62	0.18
298.15	0.5939	831.35	0.19
298.15	0.6971	854.05	0.2
298.15	0.7985	876.24	0.21
298.15	0.8939	897.03	0.22
298.15	1	920.04	0.23
318.15	0	682.19	0.18
318.15	0.1046	705.93	0.18
318.15	0.199	727.08	0.18
318.15	0.2987	749.32	0.18
318.15	0.4008	772.01	0.18
318.15	0.4955	792.93	0.19
318.15	0.5939	814.56	0.19
318.15	0.6971	837.17	0.2
318.15	0.7985	859.26	0.21
318.15	0.8939	879.92	0.22
318.15	1	902.84	0.23
338.15	0	665.43	0.18
338.15	0.1046	689.16	0.19
338.15	0.199	710.27	0.19
338.15	0.2987	732.46	0.19
338.15	0.4008	755.1	0.19
338.15	0.4955	775.96	0.19
338.15	0.5939	797.55	0.19
338.15	0.6971	820.1	0.2
338.15	0.7985	842.12	0.21
338.15	0.8939	862.72	0.22
338.15	1	885.57	0.23

System: octane + 1,3,3-trimethyl-2-oxabicyclo[2.2.2]octane; phases: Liquid
Fixed: Pressure, kPa = 101
Property: Viscosity, Pa*s (Liquid); method: Falling or rolling sphere viscometry
Temperature, K	Mole fraction of 1,3,3-trimethyl-2-oxabicyclo[2.2.2]octane	Viscosity, Pa*s	uncertainty
278.15	0	0.00068	4e-05
278.15	0.1046	0.00077	4e-05
278.15	0.199	0.00087	4e-05
278.15	0.2987	0.001	4e-05
278.15	0.4008	0.00117	4e-05
278.15	0.4955	0.00136	4e-05
278.15	0.5939	0.00162	4e-05
278.15	0.6971	0.00199	4e-05
278.15	0.7985	0.00249	5e-05
278.15	0.8939	0.00314	5e-05
278.15	1	0.00421	5e-05
298.15	0	0.00053	4e-05
298.15	0.1046	0.0006	4e-05
298.15	0.199	0.00066	4e-05
298.15	0.2987	0.00075	4e-05
298.15	0.4008	0.00086	4e-05
298.15	0.4955	0.00098	4e-05
298.15	0.5939	0.00114	4e-05
298.15	0.6971	0.00137	4e-05
298.15	0.7985	0.00165	4e-05
298.15	0.8939	0.00202	4e-05
298.15	1	0.0026	5e-05
318.15	0	0.00043	4e-05
318.15	0.1046	0.00048	4e-05
318.15	0.199	0.00053	4e-05
318.15	0.2987	0.00058	4e-05
318.15	0.4008	0.00066	4e-05
318.15	0.4955	0.00074	4e-05
318.15	0.5939	0.00085	4e-05
318.15	0.6971	0.001	4e-05
318.15	0.7985	0.00118	4e-05
318.15	0.8939	0.0014	4e-05
318.15	1	0.00173	4e-05
338.15	0	0.00037	4e-05
338.15	0.1046	0.00041	4e-05
338.15	0.199	0.00044	4e-05
338.15	0.2987	0.00048	4e-05
338.15	0.4008	0.00054	4e-05
338.15	0.4955	0.0006	4e-05
338.15	0.5939	0.00068	4e-05
338.15	0.6971	0.00078	4e-05
338.15	0.7985	0.0009	4e-05
338.15	0.8939	0.00105	4e-05
338.15	1	0.00127	4e-05

System: octane + 1,3,3-trimethyl-2-oxabicyclo[2.2.2]octane; phases: Liquid
Fixed: Pressure, kPa = 101
Property: Speed of sound, m/s (Liquid); method: Sing-around technique in a fixed-path interferometer
Temperature, K	Mole fraction of 1,3,3-trimethyl-2-oxabicyclo[2.2.2]octane	Speed of sound, m/s	uncertainty
278.15	0	1256.65	1.26
278.15	0.1046	1263.76	1.29
278.15	0.199	1270.81	1.31
278.15	0.2987	1279.14	1.33
278.15	0.4008	1288.48	1.36
278.15	0.4955	1297.82	1.39
278.15	0.5939	1308.36	1.42
278.15	0.6971	1320.12	1.45
278.15	0.7985	1332.5	1.48
278.15	0.8939	1344.94	1.51
278.15	1	1359.61	1.55
298.15	0	1172.69	1.25
298.15	0.1046	1180.9	1.27
298.15	0.199	1188.55	1.3
298.15	0.2987	1197.5	1.32
298.15	0.4008	1207.27	1.35
298.15	0.4955	1216.87	1.38
298.15	0.5939	1227.66	1.4
298.15	0.6971	1239.84	1.44
298.15	0.7985	1252.37	1.47
298.15	0.8939	1264.88	1.5
298.15	1	1278.39	1.54
318.15	0	1090.71	1.24
318.15	0.1046	1099.65	1.26
318.15	0.199	1108.14	1.28
318.15	0.2987	1117.88	1.31
318.15	0.4008	1128.3	1.34
318.15	0.4955	1138.35	1.36
318.15	0.5939	1149.5	1.39
318.15	0.6971	1162.28	1.43
318.15	0.7985	1175.57	1.46
318.15	0.8939	1188.32	1.49
318.15	1	1200.99	1.53
338.15	0	1010.72	1.23
338.15	0.1046	1020.2	1.25
338.15	0.199	1029.62	1.27
338.15	0.2987	1040.27	1.3
338.15	0.4008	1051.6	1.33
338.15	0.4955	1062.26	1.35
338.15	0.5939	1073.84	1.38
338.15	0.6971	1087.43	1.42
338.15	0.7985	1101.37	1.45
338.15	0.8939	1114.47	1.48
338.15	1	1126.65	1.52

System: octane + 1,3,3-trimethyl-2-oxabicyclo[2.2.2]octane; phases: Liquid
Fixed: Pressure, kPa = 101
Property: Molar heat capacity at constant pressure, J/K/mol (Liquid); method: DSC
Temperature, K	Mole fraction of 1,3,3-trimethyl-2-oxabicyclo[2.2.2]octane	Molar heat capacity at constant pressure, J/K/mol	uncertainty
278.15	0	246.17	9.53
278.15	0.1046	246.2	9.54
278.15	0.199	246.45	9.54
278.15	0.2987	246.89	9.56
278.15	0.4008	247.59	9.59
278.15	0.4955	248.46	9.62
278.15	0.5939	249.62	9.67
278.15	0.6971	250.95	9.72
278.15	0.7985	252.64	9.78
278.15	0.8939	254.3	9.85
278.15	1	256.14	9.92
298.15	0	253.89	9.83
298.15	0.1046	254.53	9.86
298.15	0.199	255.32	9.89
298.15	0.2987	256.22	9.92
298.15	0.4008	257.36	9.97
298.15	0.4955	258.59	10.02
298.15	0.5939	260.07	10.07
298.15	0.6971	261.75	10.14
298.15	0.7985	263.66	10.21
298.15	0.8939	265.57	10.29
298.15	1	267.69	10.37
318.15	0	262.16	10.15
318.15	0.1046	263.19	10.19
318.15	0.199	264.31	10.24
318.15	0.2987	265.53	10.28
318.15	0.4008	267	10.34
318.15	0.4955	268.51	10.4
318.15	0.5939	270.26	10.47
318.15	0.6971	272.14	10.54
318.15	0.7985	274.24	10.62
318.15	0.8939	276.39	10.7
318.15	1	278.65	10.79
338.15	0	270.96	10.49
338.15	0.1046	272.35	10.55
338.15	0.199	273.81	10.6
338.15	0.2987	275.37	10.67
338.15	0.4008	277.18	10.74
338.15	0.4955	278.93	10.8
338.15	0.5939	280.96	10.88
338.15	0.6971	283.13	10.97
338.15	0.7985	285.45	11.06
338.15	0.8939	287.81	11.15
338.15	1	290.33	11.24

System: decane + 1,3,3-trimethyl-2-oxabicyclo[2.2.2]octane; phases: Liquid
Fixed: Pressure, kPa = 101
Property: Mass density, kg/m3 (Liquid); method: Vibrating tube method
Temperature, K	Mole fraction of 1,3,3-trimethyl-2-oxabicyclo[2.2.2]octane	Mass density, kg/m3	uncertainty
278.15	0	741.18	0.24
278.15	0.1066	758.86	0.24
278.15	0.2007	775.04	0.24
278.15	0.2965	792.05	0.24
278.15	0.4063	812.26	0.24
278.15	0.5005	830.26	0.24
278.15	0.5959	849.15	0.24
278.15	0.7007	870.67	0.24
278.15	0.7989	891.66	0.23
278.15	0.8956	913.12	0.23
278.15	1	937.25	0.23
298.15	0	726.11	0.24
298.15	0.1066	743.66	0.24
298.15	0.2007	759.71	0.24
298.15	0.2965	776.57	0.24
298.15	0.4063	796.58	0.24
298.15	0.5005	814.39	0.24
298.15	0.5959	833.07	0.24
298.15	0.7007	854.34	0.24
298.15	0.7989	875.07	0.24
298.15	0.8956	896.24	0.23
298.15	1	920.04	0.23
318.15	0	710.89	0.24
318.15	0.1066	728.29	0.24
318.15	0.2007	744.21	0.24
318.15	0.2965	760.92	0.24
318.15	0.4063	780.75	0.24
318.15	0.5005	798.4	0.24
318.15	0.5959	816.88	0.24
318.15	0.7007	837.92	0.24
318.15	0.7989	858.42	0.24
318.15	0.8956	879.33	0.24
318.15	1	902.84	0.23
338.15	0	695.42	0.25
338.15	0.1066	712.7	0.25
338.15	0.2007	728.49	0.24
338.15	0.2965	745.06	0.24
338.15	0.4063	764.73	0.24
338.15	0.5005	782.2	0.24
338.15	0.5959	800.51	0.24
338.15	0.7007	821.36	0.24
338.15	0.7989	841.62	0.24
338.15	0.8956	862.32	0.24
338.15	1	885.57	0.23

System: decane + 1,3,3-trimethyl-2-oxabicyclo[2.2.2]octane; phases: Liquid
Fixed: Pressure, kPa = 101
Property: Viscosity, Pa*s (Liquid); method: Falling or rolling sphere viscometry
Temperature, K	Mole fraction of 1,3,3-trimethyl-2-oxabicyclo[2.2.2]octane	Viscosity, Pa*s	uncertainty
278.15	0	0.00119	4e-05
278.15	0.1066	0.00129	4e-05
278.15	0.2007	0.00139	4e-05
278.15	0.2965	0.0015	4e-05
278.15	0.4063	0.00166	4e-05
278.15	0.5005	0.00182	4e-05
278.15	0.5959	0.00205	4e-05
278.15	0.7007	0.00239	5e-05
278.15	0.7989	0.00286	5e-05
278.15	0.8956	0.00341	5e-05
278.15	1	0.00421	5e-05
298.15	0	0.00086	4e-05
298.15	0.1066	0.00093	4e-05
298.15	0.2007	0.001	4e-05
298.15	0.2965	0.00107	4e-05
298.15	0.4063	0.00116	4e-05
298.15	0.5005	0.00126	4e-05
298.15	0.5959	0.00141	4e-05
298.15	0.7007	0.00161	4e-05
298.15	0.7989	0.00186	4e-05
298.15	0.8956	0.00216	4e-05
298.15	1	0.0026	5e-05
318.15	0	0.00066	4e-05
318.15	0.1066	0.00071	4e-05
318.15	0.2007	0.00075	4e-05
318.15	0.2965	0.00081	4e-05
318.15	0.4063	0.00087	4e-05
318.15	0.5005	0.00093	4e-05
318.15	0.5959	0.00102	4e-05
318.15	0.7007	0.00114	4e-05
318.15	0.7989	0.00129	4e-05
318.15	0.8956	0.00148	4e-05
318.15	1	0.00173	4e-05
338.15	0	0.00054	4e-05
338.15	0.1066	0.00058	4e-05
338.15	0.2007	0.0006	4e-05
338.15	0.2965	0.00064	4e-05
338.15	0.4063	0.00069	4e-05
338.15	0.5005	0.00073	4e-05
338.15	0.5959	0.00079	4e-05
338.15	0.7007	0.00088	4e-05
338.15	0.7989	0.00098	4e-05
338.15	0.8956	0.0011	4e-05
338.15	1	0.00127	4e-05

System: decane + 1,3,3-trimethyl-2-oxabicyclo[2.2.2]octane; phases: Liquid
Fixed: Pressure, kPa = 101
Property: Speed of sound, m/s (Liquid); method: Sing-around technique in a fixed-path interferometer
Temperature, K	Mole fraction of 1,3,3-trimethyl-2-oxabicyclo[2.2.2]octane	Speed of sound, m/s	uncertainty
278.15	0	1315.03	1.54
278.15	0.1066	1315.48	1.54
278.15	0.2007	1316.57	1.54
278.15	0.2965	1318.25	1.54
278.15	0.4063	1321.18	1.54
278.15	0.5005	1324.7	1.54
278.15	0.5959	1328.99	1.54
278.15	0.7007	1334.99	1.54
278.15	0.7989	1341.75	1.54
278.15	0.8956	1349.46	1.55
278.15	1	1359.61	1.55
298.15	0	1234.74	1.53
298.15	0.1066	1235.6	1.53
298.15	0.2007	1237.05	1.53
298.15	0.2965	1239.08	1.53
298.15	0.4063	1242.26	1.53
298.15	0.5005	1245.7	1.53
298.15	0.5959	1249.97	1.53
298.15	0.7007	1255.63	1.53
298.15	0.7989	1261.91	1.53
298.15	0.8956	1269.3	1.53
298.15	1	1278.39	1.54
318.15	0	1156.56	1.52
318.15	0.1066	1157.5	1.52
318.15	0.2007	1159.52	1.52
318.15	0.2965	1162.02	1.52
318.15	0.4063	1165.49	1.52
318.15	0.5005	1169.11	1.52
318.15	0.5959	1173.38	1.52
318.15	0.7007	1178.99	1.52
318.15	0.7989	1184.93	1.52
318.15	0.8956	1192.3	1.52
318.15	1	1200.99	1.53
338.15	0	1080.51	1.51
338.15	0.1066	1081.85	1.51
338.15	0.2007	1083.94	1.51
338.15	0.2965	1087.11	1.51
338.15	0.4063	1091.2	1.51
338.15	0.5005	1094.9	1.51
338.15	0.5959	1099.34	1.51
338.15	0.7007	1105.28	1.51
338.15	0.7989	1111.29	1.51
338.15	0.8956	1118.52	1.51
338.15	1	1126.65	1.52

System: decane + 1,3,3-trimethyl-2-oxabicyclo[2.2.2]octane; phases: Liquid
Fixed: Pressure, kPa = 101
Property: Molar heat capacity at constant pressure, J/K/mol (Liquid); method: DSC
Temperature, K	Mole fraction of 1,3,3-trimethyl-2-oxabicyclo[2.2.2]octane	Molar heat capacity at constant pressure, J/K/mol	uncertainty
278.15	0	305.94	11.85
278.15	0.1066	299.16	11.59
278.15	0.2007	293.5	11.37
278.15	0.2965	287.99	11.15
278.15	0.4063	282.04	10.92
278.15	0.5005	277.25	10.74
278.15	0.5959	272.59	10.56
278.15	0.7007	267.96	10.38
278.15	0.7989	263.81	10.22
278.15	0.8956	259.87	10.06
278.15	1	256.14	9.92
298.15	0	314.4	12.18
298.15	0.1066	308.32	11.94
298.15	0.2007	303.12	11.74
298.15	0.2965	298.17	11.55
298.15	0.4063	292.62	11.33
298.15	0.5005	288.12	11.16
298.15	0.5959	283.78	10.99
298.15	0.7007	279.2	10.81
298.15	0.7989	275.24	10.66
298.15	0.8956	271.44	10.51
298.15	1	267.69	10.37
318.15	0	323.94	12.55
318.15	0.1066	318.26	12.33
318.15	0.2007	313.35	12.14
318.15	0.2965	308.63	11.95
318.15	0.4063	303.32	11.75
318.15	0.5005	298.96	11.58
318.15	0.5959	294.7	11.41
318.15	0.7007	290.19	11.24
318.15	0.7989	286.17	11.08
318.15	0.8956	282.47	10.94
318.15	1	278.65	10.79
338.15	0	334.32	12.95
338.15	0.1066	328.92	12.74
338.15	0.2007	324.19	12.56
338.15	0.2965	319.65	12.38
338.15	0.4063	314.6	12.18
338.15	0.5005	310.38	12.02
338.15	0.5959	306.21	11.86
338.15	0.7007	301.78	11.69
338.15	0.7989	297.82	11.53
338.15	0.8956	294.23	11.4
338.15	1	290.33	11.24
