Measured thermophysical data. Separation of azeotropic mixtures (ethanol and water) enhanced by deep eutectic solvents
Source: Fluid Phase Equilib., 2017, 10.1016/j.fluid.2017.03.010
Compound 1: water, H2O, InChI=1S/H2O/h1H2
Compound 2: ethanol, C2H6O, InChI=1S/C2H6O/c1-2-3/h3H,2H2,1H3
Compound 3: urea, CH4N2O, InChI=1S/CH4N2O/c2-1(3)4/h(H4,2,3,4)
Compound 4: choline chloride, C5H14ClNO, InChI=1S/C5H14NO.ClH/c1-6(2,3)4-5-7;/h7H,4-5H2,1-3H3;1H/q+1;/p-1

System: water; phases: Liquid, Gas
Property: Normal boiling temperature, K (Liquid); method: Othmer still
Normal boiling temperature, K	uncertainty
373.15	1.55

System: water; phases: Liquid
Property: Mass density, kg/m3 (Liquid); method: Vibrating tube method
Temperature, K	Pressure, kPa	Mass density, kg/m3	uncertainty
298.15	101.325	997.8	0.2

System: ethanol; phases: Liquid, Gas
Property: Normal boiling temperature, K (Liquid); method: othmer still
Normal boiling temperature, K	uncertainty
351.45	1.55

System: ethanol; phases: Liquid
Property: Mass density, kg/m3 (Liquid); method: Vibrating tube method
Temperature, K	Pressure, kPa	Mass density, kg/m3	uncertainty
298.15	101.325	785.1	0.2

System: urea + choline chloride + water; phases: Liquid, Gas
Fixed: Pressure, kPa = 101.32
Property: Mole fraction of choline chloride (Liquid); method: Chromatography
Temperature, K	Solvent: Mole fraction of urea	Mole fraction of choline chloride	uncertainty
373.15	0	0	
373.3	0.007	0.003	0.001
373.76	0.015	0.008	0.001
374.26	0.025	0.012	0.001
374.77	0.034	0.017	0.001
375.27	0.043	0.022	0.001
375.73	0.055	0.027	0.001
376.49	0.067	0.034	0.001
377.2	0.081	0.041	0.001
378.01	0.097	0.049	0.001
379.03	0.115	0.058	0.001
380.07	0.135	0.068	0.001
381.52	0.159	0.079	0.001
383.36	0.186	0.093	0.001
385.54	0.218	0.109	0.001
388.29	0.255	0.127	0.001
390.73	0.287	0.143	0.002
395.33	0.337	0.169	0.002

System: urea + ethanol + choline chloride; phases: Liquid, Gas
Fixed: Pressure, kPa = 101.32
Property: Mole fraction of choline chloride (Liquid); method: Chromatography
Temperature, K	Solvent: Mole fraction of urea	Mole fraction of choline chloride	uncertainty
351.45	0	0	
352.16	0.02	0.01	0.01
352.63	0.04	0.02	0.01
353.13	0.06	0.03	0.01
353.48	0.08	0.04	0.01
354.04	0.11	0.05	0.01
354.34	0.12	0.06	0.01
354.9	0.15	0.07	0.01
355.35	0.18	0.09	0.01
355.82	0.21	0.11	0.01
356.23	0.23	0.12	0.01
356.84	0.26	0.13	0.01
357.55	0.3	0.15	0.01

System: ethanol + water; phases: Liquid, Gas
Fixed: Pressure, kPa = 101.32
Property: Boiling temperature at pressure P, K (Liquid); method: Othmer still
Mole fraction of ethanol	Boiling temperature at pressure P, K	uncertainty
0	373.15	1.55
0.018	368.38	1.61
0.028	367.05	1.57
0.051	363.9	1.57
0.081	360.69	1.56
0.125	358.51	1.55
0.169	357.03	1.55
0.228	355.92	1.55
0.335	354.25	1.55
0.474	353.07	1.55
0.556	352.51	1.55
0.664	351.87	1.55
0.756	351.48	1.55
0.893	351.31	1.55
0.922	351.4	1.55
0.961	351.41	1.55
1	351.45	1.55

System: ethanol + water; phases: Gas, Liquid
Fixed: Pressure, kPa = 101.32
Property: Mole fraction of ethanol (Gas); method: Chromatography
Mole fraction of ethanol	Mole fraction of ethanol	uncertainty
0	0	
0.018	0.165	0.016
0.028	0.221	0.01
0.051	0.321	0.008
0.081	0.403	0.006
0.125	0.474	0.005
0.169	0.513	0.005
0.228	0.551	0.005
0.335	0.609	0.004
0.474	0.646	0.004
0.556	0.683	0.004
0.664	0.732	0.003
0.756	0.792	0.003
0.893	0.892	0.003
0.922	0.911	0.003
0.961	0.954	0.003
1	1	
