Measured thermophysical data. Experimental study of the isochoric heat capacity of tert-butanol in the critical and supercritical regions
Source: Fluid Phase Equilib., 2011, 10.1016/j.fluid.2011.07.004
Compound 1: 2-methylpropan-2-ol, C4H10O, InChI=1S/C4H10O/c1-4(2,3)5/h5H,1-3H3, purity 99.94%

System: 2-methylpropan-2-ol; phases: Liquid, Gas
Property: Critical temperature, K (Liquid); method: Derived from heat capacity data
Critical temperature, K	uncertainty
506.35	0.4

System: 2-methylpropan-2-ol; phases: Liquid, Gas
Property: Critical density, kg/m3 (Liquid); method: Derived from heat capacity data
Critical density, kg/m3	uncertainty
268.1	4

System: 2-methylpropan-2-ol; phases: Fluid (supercritical or subcritical phases)
Fixed: Mass density, kg/m3 = 270
Property: Molar heat capacity at constant volume, J/K/mol (Fluid (supercritical or subcritical phases)); method: Cu2O-jacketed adiabatic calorimeter
Temperature, K	Molar heat capacity at constant volume, J/K/mol	uncertainty
504.25	442.5800736	26.536274016
504.44	447.0273696	26.8320192
504.63	451.3264224	27.053642784
504.82	456.218448	27.3508704
505.01	457.1820288	27.424992
505.2	466.5213504	28.0179648
505.39	466.8178368	28.0179648
505.58	480.0856032	28.8333024
505.77	491.2779648	29.575259616
505.96	509.956608	30.835326816
506.15	535.899168	32.3911392

System: 2-methylpropan-2-ol; phases: Liquid
Fixed: Mass density, kg/m3 = 270
Property: Molar heat capacity at constant volume, J/K/mol (Liquid); method: Cu2O-jacketed adiabatic calorimeter
Temperature, K	Molar heat capacity at constant volume, J/K/mol	uncertainty
506.34	448.1391936	27.6473568
506.91	324.0596352	20.2351968
507.09	317.0922048	19.0492512
507.47	307.60464	18.4562784
507.66	304.9362624	18.3080352
507.85	304.3432896	18.2339136
508.42	294.3368736	17.6409408
509.74	282.1809312	16.9738464
509.93	279.2901888	16.750740384
510.12	278.697216	16.750740384
510.31	277.956	16.67736
514.27	273.508704	16.3808736
520.28	267.5048544	16.083645984
520.47	266.096544	15.936144
520.65	266.3189088	16.0102656

System: 2-methylpropan-2-ol; phases: Fluid (supercritical or subcritical phases)
Property: Molar heat capacity at constant volume, J/K/mol (Fluid (supercritical or subcritical phases)); method: Cu2O-jacketed adiabatic calorimeter
Mass density, kg/m3	Temperature, K	Molar heat capacity at constant volume, J/K/mol	uncertainty
355.5	498.29	359.5638816	7.1897952
355.5	498.48	360.0827328	7.1897952
355.5	499.05	364.0852992	7.2639168
355.5	499.24	364.2335424	7.2639168
355.5	499.43	366.6795552	7.3380384
355.5	500	368.6067168	7.41216
355.5	500.19	371.4974592	7.41216
355.5	500.38	373.7211072	7.4862816
355.5	500.57	377.8719168	7.5604032
355.5	500.76	378.8354976	7.5604032
355.5	500.95	379.2061056	7.5604032
355.5	501.14	379.3543488	7.5604032
355.5	501.33	382.096848	7.6345248
355.5	501.51	382.6898208	7.6345248
355.5	501.7	384.6169824	7.7086464
355.5	502.08	382.0227264	7.6345248
355.5	502.27	382.7639424	7.7086464
355.5	502.46	375.7223904	7.5604032
355.5	502.56	375.7223904	7.5604032
404.8	494.87	336.5861856	6.7450656
404.8	495.07	335.6226048	6.7450656
404.8	495.45	338.2168608	6.7450656
404.8	495.64	338.0686176	6.7450656
404.8	495.83	339.10632	6.8191872
404.8	496.02	339.6251712	6.8191872
404.8	496.21	340.95936	6.8191872
404.8	496.4	341.6264544	6.8191872
404.8	496.59	341.5523328	6.8191872
404.8	496.78	343.3312512	6.8933088
404.8	497.16	344.4430752	6.8933088
404.8	497.35	343.3312512	6.8933088
404.8	497.54	345.3325344	6.8933088
404.8	497.73	345.7031424	6.8933088
404.8	497.92	345.8513856	6.8933088
404.8	498.11	345.4807776	6.8933088
440	465.11	297.598224	5.929728
440	478.17	308.4940992	6.1520928
440	488.19	318.72288	6.373716384
440	488.38	318.72288	6.373716384
440	488.57	318.6487584	6.373716384
440	488.77	318.9452448	6.373716384
440	488.96	320.57592	6.449320416
440	489.15	319.6123392	6.373716384
440	489.53	322.3548384	6.449320416
440	489.72	323.9855136	6.449320416
440	489.91	324.8008512	6.5227008
440	490.1	325.3197024	6.5227008
440	490.3	325.0973376	6.5227008
440	490.49	325.8385536	6.5227008
440	490.68	328.5069312	6.5968224
440	490.87	327.0244992	6.5227008
440	491.06	327.6915936	6.5227008
440	491.44	328.2104448	6.5968224
440	491.63	327.3209856	6.5227008
440	491.82	326.2832832	6.5227008
440	492.02	325.8385536	6.5227008
511.1	458.01	296.5605216	5.929728
511.1	458.21	295.6710624	5.929728
511.1	458.41	297.227616	5.929728
511.1	458.61	296.1899136	5.929728
511.1	465.9	304.1209248	6.0779712
511.1	466.09	303.9726816	6.0779712
511.1	466.29	303.9726816	6.0779712
511.1	466.48	304.4174112	6.0779712
511.1	466.68	304.4174112	6.0779712
511.1	466.88	304.269168	6.0779712
511.1	467.07	304.3432896	6.0779712
511.1	467.27	304.4174112	6.0779712
511.1	470.4	304.3432896	6.2262144
511.1	470.59	304.4915328	6.2262144
511.1	470.79	304.5656544	6.1520928
511.1	470.98	304.7138976	6.1520928
511.1	471.18	304.7880192	6.0779712
511.1	471.37	304.8621408	6.0779712
511.1	471.57	305.2327488	6.0779712
511.1	471.96	305.380992	6.0779712
511.1	472.15	306.2704512	6.1520928
511.1	472.35	306.492816	6.1520928
511.1	472.54	306.7151808	6.1520928
511.1	472.74	306.863424	6.1520928
511.1	472.79	306.9375456	6.1520928
514.6	469.81	294.4109952	6.0038496
514.6	470.01	296.4864	6.0779712
514.6	470.2	295.2263328	6.0779712
514.6	470.4	297.6723456	6.0779712
514.6	470.59	297.8205888	6.0038496
514.6	470.79	298.33944	6.0038496
514.6	470.98	298.8582912	6.0779712
514.6	471.18	303.7503168	6.0779712
517.15	459	300.1183584	6.0038496
517.15	459.2	300.7854528	6.0038496
517.15	459.4	301.0078176	6.0038496
517.15	459.59	301.3784256	6.0038496
517.15	459.79	301.304304	6.0038496
517.15	462.95	301.304304	6.0038496
517.15	463.14	301.4525472	6.0038496
517.15	465.11	301.304304	6.0038496
517.15	465.31	301.0819392	6.0038496
517.15	465.5	301.2301824	6.0038496
517.15	465.7	301.6007904	6.0038496
517.15	465.9	301.4525472	6.0038496
517.15	466.29	301.5266688	6.0038496
517.15	466.48	301.6007904	6.0038496
517.15	466.68	301.6007904	6.0038496
517.15	466.88	301.674912	6.0038496
517.15	467.07	301.7490336	6.0779712
517.15	467.46	301.8231552	6.0779712
517.15	468.05	301.9713984	6.0779712
517.15	468.25	301.9713984	6.0779712
517.15	468.44	302.04552	6.0779712
517.15	468.64	302.04552	6.0779712
517.15	468.83	302.1196416	6.0779712
517.15	468.88	302.1937632	6.0779712
560.1	443.04	290.4825504	5.780743584
560.1	443.24	291.297888	5.856347616
560.1	443.45	290.2601856	5.780743584
560.1	443.65	290.556672	5.780743584
560.1	444.65	291.3720096	5.856347616
560.1	444.85	291.5202528	5.856347616
560.1	445.05	290.4084288	5.780743584
560.1	445.86	291.7426176	5.856347616
560.1	446.66	294.262752	5.929728
560.1	446.86	293.6697792	5.856347616
560.1	447.06	294.63336	5.929728
560.1	451.06	296.115792	5.929728
560.1	451.26	295.8934272	5.929728
560.1	451.46	294.63336	5.929728
560.1	451.66	295.6710624	5.929728
560.1	451.86	296.1899136	5.929728
560.1	452.06	296.0416704	5.929728
560.1	452.25	296.5605216	5.929728
560.1	452.45	295.2263328	5.929728
560.1	452.65	296.115792	5.929728
560.1	452.85	296.0416704	5.929728
560.1	453.05	296.4864	5.929728
560.1	453.25	295.5228192	5.929728
560.1	453.45	296.2640352	5.929728
560.1	453.65	296.1899136	5.929728
560.1	453.85	296.2640352	5.929728
560.1	454.05	296.3381568	5.929728
560.1	454.74	296.5605216	5.929728
647.29	387.78	268.0237056	5.4108768
647.29	388	267.949584	5.4108768
647.29	388.21	269.5061376	5.4108768
647.29	388.43	268.5425568	5.4108768
647.29	388.65	267.3566112	5.3367552
647.29	388.86	267.5048544	5.4108768
647.29	401.72	275.5841088	5.4849984
647.29	402.15	275.8064736	5.4849984
647.29	402.36	275.8805952	5.4849984
647.29	402.57	275.9547168	5.4849984
647.29	402.78	276.10296	5.55912
647.29	403	275.8064736	5.4849984
647.29	403.63	275.8805952	5.4849984
647.29	403.84	275.8805952	5.4849984
647.29	404.05	276.10296	5.55912
647.29	404.27	276.3253248	5.55912
647.29	404.48	276.6218112	5.55912
647.29	404.69	276.844176	5.55912
647.29	404.9	277.8818784	5.6332416
647.29	405	278.1042432	5.6332416
667.1	384.96	278.2524864	5.55912
667.1	385.61	276.844176	5.55912
667.1	385.83	280.3278912	5.6332416
667.1	386.04	279.067824	5.55912
667.1	386.26	278.2524864	5.6332416
667.1	386.48	279.438432	5.6332416
667.1	386.69	278.4748512	5.55912
667.1	386.91	279.5866752	5.6332416
667.1	387.13	277.956	5.55912
667.1	387.35	279.1419456	5.6332416
667.1	387.56	279.3643104	5.6332416
667.1	387.78	279.067824	5.6332416
667.1	388	280.1055264	5.6332416
667.1	388.43	280.6243776	5.6332416
667.1	388.65	279.9572832	5.6332416
667.1	388.86	281.291472	5.6332416
667.1	389.08	282.1809312	5.7073632
667.1	389.29	282.403296	5.7073632
667.1	389.51	279.9572832	5.6332416
667.1	389.73	281.66208	5.6332416
667.1	389.94	281.5138368	5.6332416
667.1	390.16	280.9949856	5.6332416
667.1	390.37	281.7362016	5.6332416
667.1	390.59	281.4397152	5.6332416
667.1	390.81	281.4397152	5.6332416
667.1	391.02	280.920864	5.6332416
667.1	391.24	281.66208	5.6332416
667.1	391.53	282.2550528	5.6332416
667.1	391.67	282.032688	5.6332416
667.1	391.88	282.5515392	5.6332416
667.1	392.53	284.3304576	5.856347616
667.1	392.75	282.9962688	7.3380384
667.1	392.96	269.5802592	7.9310112
667.1	393.07	274.9170144	6.449320416
678.4	382.77	271.5815424	5.4108768
678.4	382.99	271.8780288	5.4849984
678.4	383.21	271.8780288	5.4849984
678.4	383.43	272.1003936	5.4849984
678.4	383.65	272.2486368	5.4849984
678.4	384.08	272.6192448	5.4849984
678.4	384.52	272.767488	5.4849984
678.4	384.63	272.9157312	5.4849984
711.4	296.24	206.2062912	4.1508096
711.4	296.75	205.316832	4.1508096
711.4	297.01	204.946224	4.076688
711.4	297.26	204.205008	4.076688
711.4	297.52	204.205008	4.076688
711.4	297.77	203.0190624	4.076688
711.4	298.28	207.3181152	4.1508096
711.4	298.54	204.575616	4.076688
711.4	298.79	203.7602784	4.076688
711.4	299.3	204.205008	4.076688
711.4	299.56	206.8733856	4.1508096
711.4	299.81	206.2062912	4.1508096
711.4	300.57	205.1685888	4.076688
711.4	323.84	232.1488512	4.6696608
711.4	324.08	236.7443904	4.7437824
711.4	324.33	233.112432	4.6696608
711.4	324.57	237.18912	4.7437824
711.4	324.81	234.8913504	4.7437824
711.4	325.05	234.594864	4.6696608
711.4	325.29	235.4102016	4.7437824
711.4	344.25	250.3086432	13.1195232
711.4	344.48	253.86648	14.897700384
711.4	344.72	256.6089792	14.973304416
711.4	344.95	256.3124928	15.6396576
711.4	345.18	256.3124928	16.0102656
711.4	345.41	256.831344	16.083645984
711.4	357.83	257.8690464	5.189253216
711.4	358.05	261.27864	5.3367552
711.4	358.28	264.0952608	5.55912
711.4	358.51	264.243504	5.6332416
711.4	358.73	264.3176256	5.780743584
711.4	358.96	264.3917472	5.780743584
711.4	359.19	264.4658688	5.4108768
711.4	359.42	264.5399904	5.4108768
711.4	359.64	264.614112	5.4108768
711.4	359.87	264.614112	5.4108768
711.4	360.1	264.6882336	5.4108768
711.4	360.21	264.7623552	5.4108768
713	344.02	225.6261504	13.5642528
713	344.48	226.2932448	15.3431712
713	344.72	227.7756768	16.3808736
713	344.95	227.3309472	16.083645984
713	345.18	227.7015552	16.0102656
713	345.41	228.2204064	15.7879008
713	345.65	229.4804736	15.8620224
713	345.88	228.8133792	16.083645984
713	346.11	229.9252032	16.0102656
713	346.34	229.3322304	15.936144
713	347.5	233.4089184	4.6696608
713	347.73	233.9277696	4.7437824
713	347.96	233.4089184	4.6696608
713	348.2	233.7054048	4.6696608
713	348.43	236.818512	4.7437824
713	348.66	235.8549312	4.7437824
713	348.89	237.3373632	4.7437824
713	349.12	237.7079712	4.7437824
713	349.35	237.7820928	4.7437824
713	349.58	237.930336	4.7437824
713	349.81	238.7456736	4.7437824
713	351.42	242.3035104	4.817904
713	352.11	244.1565504	4.8920256
713	352.34	243.2670912	4.8920256
713	352.57	244.4530368	4.8920256
713	352.8	243.2670912	4.8920256
713	353.03	243.9341856	4.8920256
713	353.26	244.0824288	4.8920256
713	353.49	246.6766848	4.9661472
713	354.18	246.6025632	4.9661472
713	354.63	246.9731712	4.9661472
713	354.86	247.195536	4.9661472
713	355.09	247.4920224	4.9661472
713	355.78	248.677968	4.9661472
713	356	249.3450624	4.9661472
713	356.23	249.4933056	4.9661472
713	356.46	249.6415488	4.9661472
713	356.69	250.531008	6.449320416
713	356.92	249.7156704	6.5227008
713	357.14	250.6051296	5.0402688
713	357.37	249.8639136	5.113649184
713	358.05	258.4620192	5.929728
713	358.28	258.6102624	6.5227008
713	358.51	258.684384	5.7073632
713	358.73	258.9067488	5.55912
713	358.96	260.0185728	5.7073632
713	359.08	262.6128288	5.2626336
763.98	304.36	210.3571008	4.2249312
763.98	304.61	210.7277088	4.2249312
763.98	304.86	211.6912896	4.2249312
763.98	305.11	212.5807488	4.2249312
763.98	305.36	212.6548704	4.2249312
763.98	312.09	221.1788544	4.447296
763.98	312.34	221.3270976	4.447296
763.98	313.33	221.4753408	4.447296
763.98	313.83	221.994192	5.856347616
763.98	314.07	229.1098656	4.6696608
763.98	314.32	237.2632416	4.9661472
763.98	314.44	245.1201312	5.0402688
763.98	314.56	214.95264	4.520676384
763.98	314.81	214.6561536	4.6696608
763.98	315.06	214.5079104	5.55912
763.98	315.55	214.2855456	4.2990528
763.98	315.8	214.1373024	4.2990528
763.98	316.53	213.840816	4.3731744
763.98	317.76	208.5781824	4.2990528
763.98	325.05	216.3609504	4.3731744
763.98	325.29	217.546896	4.3731744
763.98	325.77	218.0657472	4.3731744
763.98	326.02	222.3648	4.447296
763.98	326.26	221.4012192	4.447296
763.98	326.5	223.6248672	4.447296
763.98	326.74	222.8836512	4.447296
763.98	327.22	219.8446656	4.3731744
763.98	327.46	219.9187872	4.3731744
763.98	327.7	222.2165568	4.447296
763.98	327.94	222.1424352	4.447296
763.98	336.04	224.588448	4.520676384
763.98	336.27	224.8108128	4.520676384
763.98	336.51	224.1437184	4.447296
763.98	336.75	224.959056	4.520676384

System: 2-methylpropan-2-ol; phases: Liquid
Property: Molar heat capacity at constant volume, J/K/mol (Liquid); method: Cu2O-jacketed adiabatic calorimeter
Mass density, kg/m3	Temperature, K	Molar heat capacity at constant volume, J/K/mol	uncertainty
355.5	502.65	267.6530976	5.4108768
355.5	502.84	256.7572224	5.189253216
355.5	503.03	256.9795872	5.189253216
355.5	503.21	254.0888448	5.113649184
355.5	503.4	254.5335744	5.113649184
355.5	503.59	254.237088	5.113649184
355.5	503.78	253.125264	5.0402688
355.5	503.97	251.272224	5.0402688
355.5	504.16	251.272224	5.0402688
355.5	504.35	250.2345216	5.0402688
355.5	508.86	247.4920224	4.9661472
355.5	509.05	246.45432	4.9661472
355.5	509.24	247.4179008	4.9661472
355.5	509.42	246.3060768	4.8920256
355.5	509.61	246.0095904	4.8920256
404.8	498.29	289.5189696	6.966689184
404.8	498.48	246.3060768	5.7073632
404.8	499.05	246.7508064	4.9661472
404.8	499.24	245.8613472	4.8920256
404.8	499.43	244.8977664	4.8920256
404.8	499.62	244.971888	4.8920256
404.8	500.57	239.6351328	4.817904
404.8	500.76	242.8964832	4.8920256
404.8	500.95	239.8574976	4.817904
404.8	501.14	239.783376	4.817904
404.8	511.11	237.2632416	4.7437824
404.8	511.3	237.3373632	4.7437824
404.8	511.49	237.7079712	4.7437824
404.8	511.67	237.4114848	4.7437824
404.8	511.86	238.0044576	4.7437824
404.8	514.1	236.7443904	4.7437824
404.8	514.29	236.7443904	4.7437824
404.8	514.48	235.8549312	4.7437824
404.8	514.66	234.4466208	4.6696608
404.8	514.85	236.077296	4.7437824
404.8	523.77	232.8159456	4.6696608
404.8	523.96	233.48304	4.6696608
404.8	524.14	232.6677024	4.6696608
440	492.21	276.3994464	5.55912
440	492.4	237.6338496	4.7437824
440	492.59	236.818512	4.7437824
440	492.78	236.818512	4.7437824
440	492.97	235.6325664	4.7437824
440	493.92	232.8159456	4.6696608
440	494.11	233.48304	4.6696608
440	494.3	232.5935808	4.6696608
440	494.49	231.3335136	4.6696608
440	494.68	231.7782432	4.6696608
440	494.87	231.7041216	4.6696608
440	503.78	231.9264864	4.6696608
440	503.97	231.63	4.6696608
440	504.16	231.1852704	4.596280416
440	504.35	232.741824	4.6696608
440	504.54	231.259392	4.596280416
511.1	472.93	248.9003328	4.9661472
511.1	495.26	239.1162816	4.817904
511.1	495.45	231.7041216	4.6696608
511.1	495.64	231.7782432	4.6696608
511.1	495.83	231.7041216	4.6696608
511.1	496.02	232.5194592	4.6696608
511.1	496.21	233.112432	4.6696608
511.1	511.3	231.0370272	4.596280416
511.1	511.49	229.9993248	4.596280416
511.1	511.67	232.000608	4.6696608
511.1	511.86	231.9264864	4.6696608
511.1	512.24	233.853648	4.6696608
511.1	512.42	232.8900672	4.6696608
514.6	471.96	245.342496	6.0038496
514.6	472.15	237.559728	5.55912
514.6	472.54	235.706688	5.189253216
514.6	472.74	235.6325664	5.2626336
514.6	473.32	235.33608	5.2626336
514.6	473.52	234.8913504	5.113649184
514.6	473.71	234.0760128	5.189253216
514.6	484.16	229.9252032	4.596280416
514.6	484.35	229.035744	4.596280416
514.6	484.54	230.147568	4.596280416
517.15	469.03	256.3866144	5.3367552
517.15	478.56	255.5712768	5.113649184
517.15	478.75	255.0524256	5.113649184
560.1	454.44	252.01344	7.1897952
560.1	455.04	227.9980416	5.189253216
560.1	455.24	229.1098656	4.596280416
560.1	455.44	228.7392576	4.596280416
560.1	455.63	229.5545952	4.596280416
560.1	455.83	229.3322304	4.596280416
647.29	405.11	240.153984	4.817904
647.29	405.32	240.153984	4.817904
647.29	405.54	240.0798624	4.817904
647.29	405.75	239.9316192	4.817904
667.1	393.18	229.9993248	4.596280416
667.1	393.39	231.3335136	4.7437824
667.1	393.61	229.9993248	4.6696608
667.1	393.82	228.7392576	4.6696608
667.1	394.03	230.888784	4.596280416
667.1	394.25	230.6664192	4.7437824
667.1	394.46	230.9629056	4.596280416
667.1	394.68	231.4076352	4.596280416
667.1	394.89	231.4076352	4.596280416
667.1	395.11	231.259392	4.6696608
667.1	402.15	239.4868896	4.817904
667.1	402.36	241.1916864	4.817904
667.1	402.57	239.04216	4.817904
667.1	402.78	239.4868896	4.817904
667.1	413.52	235.9290528	4.7437824
667.1	413.73	234.7431072	4.7437824
667.1	413.94	235.0395936	4.7437824
667.1	434.95	230.9629056	4.817904
667.1	435.15	229.2581088	4.817904
678.4	384.74	233.7054048	4.6696608
678.4	384.96	233.6312832	4.6696608
678.4	385.17	233.5571616	4.6696608
678.4	385.39	233.5571616	4.6696608
678.4	385.61	233.5571616	4.6696608
678.4	386.04	233.48304	4.6696608
678.4	386.48	233.48304	4.6696608
711.4	360.32	229.035744	9.1910784
711.4	360.55	228.9616224	9.1910784
711.4	360.77	228.8875008	9.1910784
711.4	361	228.8133792	4.596280416
711.4	361.23	228.7392576	4.596280416
711.4	361.45	228.5910144	4.596280416
711.4	361.91	228.5168928	4.596280416
711.4	362.13	228.5168928	4.596280416
711.4	362.81	228.4427712	4.6696608
711.4	363.71	225.9967584	4.520676384
711.4	363.93	225.9967584	4.596280416
711.4	364.16	225.7743936	4.520676384
711.4	371.09	234.0018912	4.6696608
711.4	371.32	235.33608	4.7437824
711.4	371.54	234.3724992	4.7437824
711.4	371.76	234.594864	4.6696608
711.4	371.98	235.5584448	4.817904
713	359.19	211.4689248	4.447296
713	359.42	212.8772352	8.0792544
713	359.64	213.470208	8.0792544
713	359.87	214.2855456	8.3016192
