Measured thermophysical data. The Solubility of ammonia in ethanol between 277.35 K and 328.15 K
Source: Fluid Phase Equilib., 2011, 10.1016/j.fluid.2011.01.006
Compound 1: ammonia, H3N, InChI=1S/H3N/h1H3, purity 99.98%
Compound 2: ethanol, C2H6O, InChI=1S/C2H6O/c1-2-3/h3H,2H2,1H3, purity 99.8%
Compound 3: water, H2O, InChI=1S/H2O/h1H2, purity 99.8%

System: ammonia + water; phases: Liquid, Gas
Property: Mole fraction of ammonia (Liquid); method: Chromatography
Temperature, K	Pressure, kPa	Mole fraction of ammonia	uncertainty
293.15	12	0.1192	0.0047
293.15	34	0.2193	0.0037
293.15	70	0.3067	0.0033
293.15	108	0.3695	0.0034
293.15	151	0.4282	0.0038
313.15	33	0.1194	0.0025
313.15	80	0.2166	0.0026
313.15	156	0.3139	0.003
313.15	229	0.3705	0.0031
313.15	315	0.4228	0.0035

System: ethanol + ammonia; phases: Liquid, Gas
Fixed: Mole fraction of ammonia = 0
Property: Henry's Law constant (mole fraction scale), kPa of ammonia (Liquid); method: Chromatography
Temperature, K	Henry's Law constant (mole fraction scale), kPa of ammonia	uncertainty
277.35	302.1	12.2
288.65	391	15.9
298.15	530.9	22.2
308.75	1010.7	42.3
318.25	1735.7	70.7
328.15	2186.9	88.3

System: ethanol + ammonia; phases: Liquid, Gas
Property: Vapor or sublimation pressure, kPa (Liquid); method: OTHER
Mole fraction of ammonia	Temperature, K	Vapor or sublimation pressure, kPa	uncertainty
0.0143	328.15	69	2
0.018	308.75	32	1
0.0214	298.15	19	1
0.0221	318.25	62	1
0.0285	288.65	15	1
0.0367	277.35	13	1
0.0467	328.15	140	2
0.0469	308.75	61	1
0.0491	298.15	33	1
0.0596	318.25	129	2
0.0691	288.65	31	1
0.078	308.75	93	2
0.095	328.15	243	2
0.1016	298.15	62	2
0.1068	277.35	34	1
0.1085	308.75	122	2
0.1109	318.25	220	2
0.1336	328.15	338	2
0.1381	288.65	59	1
0.144	298.15	84	2
0.1653	318.25	315	2
0.1701	328.15	417	2
0.1734	298.15	103	2
0.1769	288.65	74	1
0.181	277.35	57	1
0.2019	328.15	484	3
0.2076	308.75	228	4
0.2221	328.15	533	3
0.2259	318.25	404	3
0.2334	288.65	95	2
0.2359	328.15	572	3
0.2451	277.35	78	1
0.2641	328.15	627	3
0.2665	318.25	488	3
0.2819	298.15	208	2
0.2893	288.65	157	2
0.2911	308.75	312	3
0.2969	318.25	559	4
0.3006	328.15	716	3
0.3054	277.35	105	1
0.3181	318.25	610	3
0.3322	318.25	645	7
0.3401	288.65	209	2
0.3447	318.25	679	7
0.3577	308.75	390	4
0.3593	277.35	167	2
0.3668	298.15	298	2
0.3898	288.65	260	2
0.405	277.35	212	2
0.4085	308.75	463	3
0.4284	298.15	375	2
0.4346	288.65	307	2
0.4462	277.35	250	2
0.4539	308.75	537	3
0.4688	288.65	347	2
0.4784	298.15	449	3
0.4788	308.75	581	3
0.4889	277.35	295	2
0.4967	288.65	383	2
0.4983	308.75	618	3
0.5132	298.15	505	3
0.5162	277.35	330	2
0.5191	308.75	656	3
0.5243	288.65	419	2
0.5392	298.15	549	3
0.5398	277.35	362	2
0.5563	277.35	388	2
0.5605	298.15	583	3

System: ethanol + ammonia; phases: Gas, Liquid
Property: Mole fraction of ammonia (Gas); method: OTHER
Mole fraction of ammonia	Temperature, K	Mole fraction of ammonia	uncertainty
0.0143	328.15	0.458	0.0041
0.018	308.75	0.5677	0.0029
0.0214	298.15	0.5869	0.0024
0.0221	318.25	0.6298	0.0029
0.0285	288.65	0.7201	0.0025
0.0367	277.35	0.843	0.0021
0.0467	328.15	0.7379	0.0029
0.0469	308.75	0.7787	0.002
0.0491	298.15	0.7682	0.002
0.0596	318.25	0.8264	0.0013
0.0691	288.65	0.87	0.0009
0.078	308.75	0.8589	0.0009
0.095	328.15	0.8537	0.0011
0.1016	298.15	0.8829	0.0009
0.1068	277.35	0.9441	0.0006
0.1085	308.75	0.8957	0.0005
0.1109	318.25	0.9003	0.0006
0.1336	328.15	0.8974	0.0008
0.1381	288.65	0.9366	0.0006
0.144	298.15	0.9174	0.0005
0.1653	318.25	0.9328	0.0005
0.1701	328.15	0.9192	0.0006
0.1734	298.15	0.9348	0.0004
0.1769	288.65	0.9516	0.0005
0.181	277.35	0.9693	0.0005
0.2019	328.15	0.9321	0.0005
0.2076	308.75	0.9497	0.0004
0.2221	328.15	0.9393	0.0005
0.2259	318.25	0.9516	0.0005
0.2334	288.65	0.9648	0.0004
0.2359	328.15	0.9441	0.0005
0.2451	277.35	0.9793	0.0005
0.2641	328.15	0.9503	0.0005
0.2665	318.25	0.9613	0.0005
0.2819	298.15	0.9715	0.0004
0.2893	288.65	0.9801	0.0004
0.2911	308.75	0.9668	0.0004
0.2969	318.25	0.9671	0.0004
0.3006	328.15	0.9579	0.0005
0.3054	277.35	0.9858	0.0004
0.3181	318.25	0.9705	0.0005
0.3322	318.25	0.9724	0.0004
0.3401	288.65	0.9861	0.0004
0.3447	318.25	0.9741	0.0004
0.3577	308.75	0.9757	0.0004
0.3593	277.35	0.9916	0.0004
0.3668	298.15	0.9823	0.0004
0.3898	288.65	0.9896	0.0004
0.405	277.35	0.9938	0.0004
0.4085	308.75	0.981	0.0004
0.4284	298.15	0.9871	0.0004
0.4346	288.65	0.9918	0.0004
0.4462	277.35	0.9951	0.0004
0.4539	308.75	0.9847	0.0004
0.4688	288.65	0.9931	0.0004
0.4784	298.15	0.9901	0.0004
0.4788	308.75	0.9865	0.0004
0.4889	277.35	0.9961	0.0004
0.4967	288.65	0.9941	0.0004
0.4983	308.75	0.9877	0.0004
0.5132	298.15	0.9917	0.0004
0.5162	277.35	0.9967	0.0004
0.5191	308.75	0.9888	0.0004
0.5243	288.65	0.9949	0.0004
0.5392	298.15	0.9927	0.0004
0.5398	277.35	0.9971	0.0004
0.5563	277.35	0.9974	0.0004
0.5605	298.15	0.9934	0.0004
