Measured thermophysical data. CO2 absorption and physical properties of tributyloctylphosphonium benzotriazolate
Source: Fluid Phase Equilib., 2019, 10.1016/j.fluid.2019.04.025
Compound 1: tributyloctylphosphonium benzotriazolide, C26H48N3P, InChI=1S/C20H44P.C6H4N3/c1-5-9-13-14-15-16-20-21(17-10-6-2,18-11-7-3)19-12-8-4;1-2-4-6-5(3-1)7-9-8-6/h5-20H2,1-4H3;1-4H/q+1;-1
Compound 2: carbon dioxide, CO2, InChI=1S/CO2/c2-1-3, purity 99.99%

System: tributyloctylphosphonium benzotriazolide; phases: Liquid
Fixed: Pressure, kPa = 101
Property: Mass density, kg/m3 (Liquid); method: Vibrating tube method
Temperature, K	Mass density, kg/m3	uncertainty
273.15	981.45	1
278.15	978.44	1
283.15	975.45	1
288.15	972.45	0.99
293.15	969.47	0.99
298.15	966.48	0.99
303.15	963.53	0.99
313.15	957.61	0.98
323.15	951.72	0.97
333.15	945.83	0.97
343.15	939.95	0.96
353.15	934.12	0.96
363.15	928.33	0.95

System: tributyloctylphosphonium benzotriazolide; phases: Liquid
Fixed: Pressure, kPa = 101
Property: Viscosity, Pa*s (Liquid); method: Concentric cylinders viscometry
Temperature, K	Viscosity, Pa*s	uncertainty
273.15	10.26	0.738
278.15	5.766	0.371
283.15	3.409	0.195
288.15	2.103	0.107
293.15	1.346	0.061
298.15	0.896	0.0369
303.15	0.605	0.0224
313.15	0.3036	0.0093
323.15	0.166	0.0042
333.15	0.09792	0.00219
343.15	0.06154	0.00128
353.15	0.04077	0.00085
363.15	0.02828	0.00059

System: tributyloctylphosphonium benzotriazolide; phases: Liquid
Fixed: Pressure, kPa = 101
Property: Electrical conductivity, S/m (Liquid); method: Alternating current cell with electrodes
Temperature, K	Electrical conductivity, S/m	uncertainty
273.15	0.0005112	1.03e-05
278.15	0.0008826	1.78e-05
283.15	0.001459	2.9e-05
288.15	0.002318	4.7e-05
293.15	0.003556	7.1e-05
298.15	0.005296	0.000106
303.15	0.007644	0.000153
313.15	0.01486	0.0003
323.15	0.02649	0.00053
333.15	0.04394	0.00088
343.15	0.06866	0.00137
353.15	0.102	0.00204

System: tributyloctylphosphonium benzotriazolide + carbon dioxide; phases: Liquid, Gas
Property: Molar volume, m3/mol (Liquid); method: measuring volume with cathetometer
Temperature, K	Pressure, kPa	Molar volume, m3/mol	uncertainty
298.15	36.8	0.0004492	8.1e-06
298.15	70.1	0.000443	8e-06
298.15	135.6	0.0004306	7.8e-06
298.15	328.8	0.000402	7.2e-06
298.15	668.6	0.0003615	6.5e-06
298.15	1949.2	0.0002736	4.9e-06
298.15	3461.7	0.000218	3.9e-06
313.15	39.7	0.0004487	8.1e-06
313.15	75.2	0.0004434	8e-06
313.15	146.5	0.0004347	7.8e-06
313.15	355.3	0.0004133	7.4e-06
313.15	722	0.0003802	6.8e-06
313.15	2109.4	0.0003019	5.4e-06
313.15	3781.9	0.0002469	4.4e-06
333.15	41.4	0.0004508	8.1e-06
333.15	80.3	0.0004474	8.1e-06
333.15	158.1	0.0004463	8e-06
333.15	384.8	0.0004292	7.7e-06
333.15	783.9	0.000402	7.2e-06
333.15	2306.2	0.0003319	6e-06
333.15	4187.3	0.0002778	5e-06

System: tributyloctylphosphonium benzotriazolide + carbon dioxide; phases: Liquid, Gas
Property: Mole fraction of carbon dioxide (Liquid); method: Volumetric method
Temperature, K	Pressure, kPa	Mole fraction of carbon dioxide	uncertainty
298.15	36.8	0.011	0.011
298.15	70.1	0.025	0.016
298.15	135.6	0.054	0.016
298.15	328.8	0.12	0.016
298.15	668.6	0.214	0.016
298.15	1949.2	0.421	0.016
298.15	3461.7	0.556	0.016
313.15	39.7	0.007	0.007
313.15	75.2	0.019	0.016
313.15	146.5	0.039	0.016
313.15	355.3	0.09	0.016
313.15	722	0.167	0.016
313.15	2109.4	0.356	0.016
313.15	3781.9	0.494	0.016
333.15	41.4	0.01	0.01
333.15	80.3	0.018	0.016
333.15	158.1	0.032	0.016
333.15	384.8	0.071	0.016
333.15	783.9	0.133	0.016
333.15	2306.2	0.297	0.016
333.15	4187.3	0.43	0.016
