Measured thermophysical data. Solubility of caprolactam in different organic solvents
Source: Fluid Phase Equilib., 2012, 10.1016/j.fluid.2011.12.004
Compound 1: 1-aza-2-cycloheptanone, C6H11NO, InChI=1S/C6H11NO/c8-6-4-2-1-3-5-7-6/h1-5H2,(H,7,8), purity 99.9%
Compound 2: 2-methoxy-2-methylpropane, C5H12O, InChI=1S/C5H12O/c1-5(2,3)6-4/h1-4H3, purity 99%
Compound 3: diisopropyl ether, C6H14O, InChI=1S/C6H14O/c1-5(2)7-6(3)4/h5-6H,1-4H3, purity 99%
Compound 4: propan-1-ol, C3H8O, InChI=1S/C3H8O/c1-2-3-4/h4H,2-3H2,1H3, purity 99%
Compound 5: propan-2-ol, C3H8O, InChI=1S/C3H8O/c1-3(2)4/h3-4H,1-2H3, purity 99%
Compound 6: butan-1-ol, C4H10O, InChI=1S/C4H10O/c1-2-3-4-5/h5H,2-4H2,1H3, purity 99%

System: 1-aza-2-cycloheptanone + 2-methoxy-2-methylpropane; phases: Liquid
Fixed: Pressure, kPa = 101
Fixed: Temperature, K = 298.15
Property: Refractive index (Na D-line) (Liquid); method: Standard Abbe refractometry
Mole fraction of 1-aza-2-cycloheptanone	Refractive index (Na D-line)	uncertainty
0	1.3664	0.0004
0.005	1.3674	0.0004
0.01	1.3683	0.0004
0.0149	1.3691	0.0004
0.0198	1.37	0.0004
0.0246	1.3709	0.0004
0.0294	1.3718	0.0004

System: 1-aza-2-cycloheptanone + 2-methoxy-2-methylpropane; phases: Liquid, Crystal
Fixed: Pressure, kPa = 101
Property: Mole fraction of 1-aza-2-cycloheptanone (Liquid); method: Index of refraction calibration data
Temperature, K	Mole fraction of 1-aza-2-cycloheptanone	uncertainty
278.15	0.0716	0.0029
283.15	0.0823	0.0033
288.15	0.0934	0.0038
293.15	0.1053	0.0042
298.15	0.1253	0.005
303.15	0.1555	0.0063
308.15	0.1747	0.007
313.15	0.2248	0.0091

System: 1-aza-2-cycloheptanone + diisopropyl ether; phases: Liquid, Crystal
Fixed: Pressure, kPa = 101
Property: Mole fraction of 1-aza-2-cycloheptanone (Liquid); method: Index of refraction calibration data
Temperature, K	Mole fraction of 1-aza-2-cycloheptanone	uncertainty
278.15	0.0314	0.0013
283.15	0.0381	0.0015
288.15	0.0463	0.0019
293.15	0.056	0.0023
298.15	0.0656	0.0026
303.15	0.0758	0.003
308.15	0.095	0.0038
313.15	0.1135	0.0046

System: propan-1-ol + 1-aza-2-cycloheptanone; phases: Liquid, Crystal
Fixed: Pressure, kPa = 101
Property: Mole fraction of 1-aza-2-cycloheptanone (Liquid); method: Index of refraction calibration data
Temperature, K	Mole fraction of 1-aza-2-cycloheptanone	uncertainty
278.15	0.2503	0.0101
283.15	0.2623	0.0106
288.15	0.2739	0.0111
293.15	0.2863	0.0116
298.15	0.294	0.0119
303.15	0.3048	0.0123
308.15	0.3217	0.013
313.15	0.3376	0.0137

System: propan-2-ol + 1-aza-2-cycloheptanone; phases: Liquid, Crystal
Fixed: Pressure, kPa = 101
Property: Mole fraction of 1-aza-2-cycloheptanone (Liquid); method: Index of refraction calibration data
Temperature, K	Mole fraction of 1-aza-2-cycloheptanone	uncertainty
278.15	0.2041	0.0082
283.15	0.2209	0.0089
288.15	0.2343	0.0095
293.15	0.2474	0.01
298.15	0.2612	0.0105
303.15	0.2829	0.0114
308.15	0.3079	0.0125
313.15	0.3394	0.0137

System: butan-1-ol + 1-aza-2-cycloheptanone; phases: Liquid, Crystal
Fixed: Pressure, kPa = 101
Property: Mole fraction of 1-aza-2-cycloheptanone (Liquid); method: Index of refraction calibration data
Temperature, K	Mole fraction of 1-aza-2-cycloheptanone	uncertainty
278.15	0.1881	0.0076
283.15	0.1977	0.008
288.15	0.2125	0.0085
293.15	0.232	0.0093
298.15	0.2572	0.0104
303.15	0.2731	0.011
308.15	0.3003	0.0121
313.15	0.3243	0.0131
