Measured thermophysical data. Solubility of 1,1-diamino-2,2-dinitroethylene in different pure solvents and binary mixtures (dimethyl sulfoxide p water) and (N,N-dimethylformamide p water) at different temperatures
Source: Fluid Phase Equilib., 2018, 10.1016/j.fluid.2017.12.035
Compound 1: 1,1-diamino-2,2-dinitroethene, C2H4N4O4, InChI=1S/C2H4N4O4/c3-1(4)2(5(7)8)6(9)10/h3-4H2, purity 99.29%
Compound 2: dimethyl sulfoxide, C2H6OS, InChI=1S/C2H6OS/c1-4(2)3/h1-2H3, purity 99.46%
Compound 3: N-methylpyrrolidone, C5H9NO, InChI=1S/C5H9NO/c1-6-4-2-3-5(6)7/h2-4H2,1H3, purity 99%
Compound 4: dimethylformamide, C3H7NO, InChI=1S/C3H7NO/c1-4(2)3-5/h3H,1-2H3, purity 99.5%
Compound 5: N,N-diethylformamide, C5H11NO, InChI=1S/C5H11NO/c1-3-6(4-2)5-7/h5H,3-4H2,1-2H3, purity 99%
Compound 6: .gamma.-butyrolactone, C4H6O2, InChI=1S/C4H6O2/c5-4-2-1-3-6-4/h1-3H2, purity 97%
Compound 7: cyclohexanone, C6H10O, InChI=1S/C6H10O/c7-6-4-2-1-3-5-6/h1-5H2, purity 99.5%
Compound 8: ethyl acetate, C4H8O2, InChI=1S/C4H8O2/c1-3-6-4(2)5/h3H2,1-2H3, purity 99.5%
Compound 9: 1,4-dioxane, C4H8O2, InChI=1S/C4H8O2/c1-2-6-4-3-5-1/h1-4H2, purity 99.5%
Compound 10: water, H2O, InChI=1S/H2O/h1H2, purity 99.8%

System: 1,1-diamino-2,2-dinitroethene + dimethyl sulfoxide; phases: Liquid, Crystal
Fixed: Pressure, kPa = 101
Property: Mole fraction of 1,1-diamino-2,2-dinitroethene (Liquid); method: polythermal methed
Temperature, K	Mole fraction of 1,1-diamino-2,2-dinitroethene	uncertainty
293.75	0.1829	0.0022
303.85	0.1882	0.0023
312.15	0.1934	0.0027
319.15	0.2037	0.003
328.65	0.2137	0.0027
339.85	0.2235	0.0026
350.15	0.233	0.0027
354.15	0.2377	0.0029
358.15	0.2423	0.0039
367.15	0.2607	0.0042

System: 1,1-diamino-2,2-dinitroethene + N-methylpyrrolidone; phases: Liquid, Crystal
Fixed: Pressure, kPa = 101
Property: Mole fraction of 1,1-diamino-2,2-dinitroethene (Liquid); method: polythermal methed
Temperature, K	Mole fraction of 1,1-diamino-2,2-dinitroethene	uncertainty
295.05	0.1634	0.0027
318.15	0.1856	0.0026
344.45	0.2067	0.0026
363.85	0.2266	0.0032
371.75	0.2456	0.0048

System: 1,1-diamino-2,2-dinitroethene + dimethylformamide; phases: Liquid, Crystal
Fixed: Pressure, kPa = 101
Property: Mole fraction of 1,1-diamino-2,2-dinitroethene (Liquid); method: polythermal methed
Temperature, K	Mole fraction of 1,1-diamino-2,2-dinitroethene	uncertainty
297.15	0.0946	0.0027
310.75	0.1087	0.0026
327.85	0.1223	0.0026
340.15	0.1355	0.0028
352.75	0.1484	0.003
361.05	0.1608	0.004
365.15	0.1729	0.0057

System: 1,1-diamino-2,2-dinitroethene + N,N-diethylformamide; phases: Liquid, Crystal
Fixed: Pressure, kPa = 101
Property: Mole fraction of 1,1-diamino-2,2-dinitroethene (Liquid); method: polythermal methed
Temperature, K	Mole fraction of 1,1-diamino-2,2-dinitroethene	uncertainty
298.35	0.0702	0.0024
314.15	0.0824	0.0025
324.95	0.0914	0.0024
340.15	0.1017	0.0025
349.85	0.1117	0.0038
367.45	0.1498	0.0044

System: 1,1-diamino-2,2-dinitroethene + .gamma.-butyrolactone; phases: Liquid, Crystal
Fixed: Pressure, kPa = 101
Property: Mole fraction of 1,1-diamino-2,2-dinitroethene (Liquid); method: polythermal methed
Temperature, K	Mole fraction of 1,1-diamino-2,2-dinitroethene	uncertainty
300.15	0.0064	0.0021
304.15	0.0077	0.0021
324.55	0.0128	0.0021
332.55	0.0153	0.0021
336.45	0.0178	0.0022
343.45	0.0202	0.0022
346.25	0.0227	0.0023
350.85	0.0252	0.0024
357.85	0.0313	0.0023
368.55	0.0373	0.0022

System: 1,1-diamino-2,2-dinitroethene + cyclohexanone; phases: Liquid, Crystal
Fixed: Pressure, kPa = 101
Property: Mole fraction of 1,1-diamino-2,2-dinitroethene (Liquid); method: polythermal methed
Temperature, K	Mole fraction of 1,1-diamino-2,2-dinitroethene	uncertainty
291.95	0.00244	0.002
320.85	0.00434	0.002
330.95	0.00521	0.00201
335.65	0.0061	0.00202
343.15	0.00693	0.00202
360.85	0.01036	0.00205
370.35	0.01376	0.0021

System: 1,1-diamino-2,2-dinitroethene + ethyl acetate; phases: Liquid, Crystal
Fixed: Pressure, kPa = 101
Property: Mole fraction of 1,1-diamino-2,2-dinitroethene (Liquid); method: polythermal methed
Temperature, K	Mole fraction of 1,1-diamino-2,2-dinitroethene	uncertainty
296.15	0.000116	0.000116
304.95	0.000187	0.000187
314.75	0.00027	0.00027
318.15	0.000282	0.000282
324.35	0.000332	0.000332
326.55	0.000368	0.000368
334.15	0.000444	0.000444
344.65	0.000544	0.000544

System: 1,1-diamino-2,2-dinitroethene + 1,4-dioxane; phases: Liquid, Crystal
Fixed: Pressure, kPa = 101
Property: Mole fraction of 1,1-diamino-2,2-dinitroethene (Liquid); method: polythermal methed
Temperature, K	Mole fraction of 1,1-diamino-2,2-dinitroethene	uncertainty
298.15	7.2e-05	7.2e-05
314.15	0.000102	0.000102
326.85	0.000143	0.000143
339.65	0.000215	0.000215
341.45	0.000257	0.000257
347.55	0.000315	0.000315
358.35	0.000357	0.000357

System: 1,1-diamino-2,2-dinitroethene + water; phases: Liquid, Crystal
Fixed: Pressure, kPa = 101
Property: Mole fraction of 1,1-diamino-2,2-dinitroethene (Liquid); method: polythermal methed
Temperature, K	Mole fraction of 1,1-diamino-2,2-dinitroethene	uncertainty
296.15	2e-05	2e-05
303.45	3.5e-05	3.5e-05
310.75	6e-05	6e-05
318.65	0.000122	0.000122
326.15	0.000154	0.000154
328.55	0.000198	0.000198
337.95	0.000277	0.000277
343.15	0.000365	0.000365
348.75	0.000504	0.000504

System: 1,1-diamino-2,2-dinitroethene + dimethyl sulfoxide + water; phases: Liquid, Crystal
Fixed: Pressure, kPa = 101
Property: Mole fraction of 1,1-diamino-2,2-dinitroethene (Liquid); method: polythermal method
Solvent: Mole fraction of dimethyl sulfoxide	Temperature, K	Mole fraction of 1,1-diamino-2,2-dinitroethene	uncertainty
0.1125	306.65	0.000203	0.000203
0.1125	314.15	0.000405	0.000405
0.1125	322.15	0.000811	0.000811
0.1125	337.55	0.00162	0.00162
0.1125	348.25	0.002428	0.002012
0.1125	352.65	0.003234	0.002027
0.1125	357.75	0.004039	0.002028
0.2022	297.15	0.000639	0.000639
0.2022	305.15	0.000969	0.000969
0.2022	317.75	0.002419	0.002021
0.2022	327.45	0.003864	0.002023
0.2022	336.55	0.004826	0.002073
0.2022	339.35	0.005785	0.002062
0.2022	343.15	0.006743	0.002064
0.2022	347.55	0.007699	0.00227
0.2022	350.15	0.008653	0.002022
0.2022	357.95	0.011977	0.002149
0.3364	300.75	0.009611	0.00204
0.3364	312.05	0.011985	0.002054
0.3364	318.65	0.014347	0.002114
0.3364	325.05	0.016699	0.00215
0.3364	330.35	0.019031	0.002187
0.3364	335.25	0.021369	0.002209
0.3364	343.15	0.025994	0.002516
0.3364	348.15	0.030575	0.002289
0.3364	354.65	0.035114	0.002393
0.4319	297.15	0.01496	0.00208
0.4319	308.15	0.0203	0.00244
0.4319	319.15	0.02688	0.00236
0.4319	328.15	0.03338	0.00281
0.4319	334.15	0.03978	0.00281
0.4319	340.55	0.04611	0.00237
0.4319	353.75	0.05235	0.00275
0.4319	361.95	0.06459	0.00374
0.6395	297.55	0.08058	0.00234
0.6395	308.65	0.08793	0.00252
0.6395	316.45	0.09516	0.00256
0.6395	326.65	0.1023	0.0026
0.6395	332.45	0.1093	0.0027
0.6395	341.65	0.1162	0.0027
0.6395	347.35	0.123	0.0032
0.6395	356.95	0.1363	0.0028
0.828	298.15	0.1433	0.0023
0.828	314.15	0.1509	0.0024
0.828	321.15	0.1583	0.0026
0.828	331.65	0.1657	0.0026
0.828	338.15	0.1729	0.0031
0.828	348.65	0.187	0.0032
0.828	358.65	0.2005	0.0032

System: 1,1-diamino-2,2-dinitroethene + dimethylformamide + water; phases: Liquid, Crystal
Fixed: Pressure, kPa = 101
Property: Mole fraction of 1,1-diamino-2,2-dinitroethene (Liquid); method: polythermal method
Solvent: Mole fraction of dimethylformamide	Temperature, K	Mole fraction of 1,1-diamino-2,2-dinitroethene	uncertainty
0.1042	303.65	0.000208	0.000208
0.1042	311.15	0.00041	0.00041
0.1042	322.15	0.000834	0.000834
0.1042	330.45	0.001236	0.001236
0.1042	335.15	0.001655	0.001655
0.1042	342.65	0.002045	0.002006
0.1042	347.15	0.002459	0.002015
0.1042	349.45	0.002872	0.002029
0.1887	298.15	0.000614	0.000614
0.1887	310.35	0.001477	0.001477
0.1887	323.05	0.00295	0.002022
0.1887	329.15	0.00344	0.002011
0.1887	331.05	0.003929	0.002021
0.1887	338.05	0.004907	0.002032
0.1887	341.75	0.005882	0.002053
0.1887	349.65	0.007828	0.002052
0.3175	300.35	0.003729	0.002106
0.3175	309.65	0.006199	0.002125
0.3175	317.15	0.008658	0.002078
0.3175	326.25	0.01111	0.002109
0.3175	336.25	0.015355	0.002154
0.3175	343.95	0.01837	0.003486
0.3175	345.85	0.021366	0.002274
0.3175	353.25	0.024344	0.002167
0.411	296.15	0.01021	0.00204
0.411	303.15	0.01133	0.00207
0.411	316.15	0.01689	0.00217
0.411	324.45	0.02103	0.00228
0.411	334.95	0.02784	0.00235
0.411	345.15	0.03456	0.00252
0.411	354.15	0.04382	0.00272
0.6195	298.15	0.0374	0.00213
0.6195	311.15	0.04421	0.0023
0.6195	323.15	0.05259	0.00241
0.6195	334.15	0.06082	0.0025
0.6195	343.15	0.06891	0.0029
0.6195	355.15	0.08468	0.00313
0.8155	297.15	0.06697	0.00217
0.8155	301.65	0.06892	0.00227
0.8155	307.65	0.0728	0.00252
0.8155	318.15	0.08234	0.00249
0.8155	331.15	0.09169	0.00257
0.8155	339.15	0.10085	0.00324
0.8155	350.65	0.11863	0.00346
