Measured thermophysical data. Application of the ionic liquid tributylmethylammonium bis(trifluoromethylsulfonyl)imide as solvent for the extraction of benzene from octane and decane at T = 298.15 K and atmospheric pressure
Source: Fluid Phase Equilib., 2016, 10.1016/j.fluid.2016.02.028
Compound 1: tributylmethylammonium bis((trifluoromethyl)sulfonyl)imide, C15H30F6N2O4S2, InChI=1S/C13H30N.C2F6NO4S2/c1-5-8-11-14(4,12-9-6-2)13-10-7-3;3-1(4,5)14(10,11)9-15(12,13)2(6,7)8/h5-13H2,1-4H3;/q+1;-1, purity 99%
Compound 2: benzene, C6H6, InChI=1S/C6H6/c1-2-4-6-5-3-1/h1-6H, purity 99%
Compound 3: octane, C8H18, InChI=1S/C8H18/c1-3-5-7-8-6-4-2/h3-8H2,1-2H3, purity 99%
Compound 4: decane, C10H22, InChI=1S/C10H22/c1-3-5-7-9-10-8-6-4-2/h3-10H2,1-2H3, purity 99%

System: tributylmethylammonium bis((trifluoromethyl)sulfonyl)imide; phases: Liquid
Property: Mass density, kg/m3 (Liquid); method: Vibrating tube method
Temperature, K	Pressure, kPa	Mass density, kg/m3	uncertainty
298.15	101.325	1261.65	6.01

System: benzene; phases: Liquid
Property: Mass density, kg/m3 (Liquid); method: Vibrating tube method
Temperature, K	Pressure, kPa	Mass density, kg/m3	uncertainty
298.15	101.325	873.71	2.01

System: octane; phases: Liquid
Property: Mass density, kg/m3 (Liquid); method: Vibrating tube method
Temperature, K	Pressure, kPa	Mass density, kg/m3	uncertainty
298.15	101.325	698.86	2.01

System: decane; phases: Liquid
Property: Mass density, kg/m3 (Liquid); method: Vibrating tube method
Temperature, K	Pressure, kPa	Mass density, kg/m3	uncertainty
298.15	101.325	726.15	2.01

System: benzene + octane + tributylmethylammonium bis((trifluoromethyl)sulfonyl)imide; phases: Liquid mixture 1, Liquid mixture 2
Fixed: Temperature, K = 298.15
Fixed: Pressure, kPa = 101
Property: Mole fraction of octane (Liquid mixture 1); method: Density calibration data
Property: Mole fraction of octane (Liquid mixture 2); method: Density calibration data
Property: Mole fraction of benzene (Liquid mixture 2); method: Density calibration data
Mole fraction of benzene	Mole fraction of octane	uncertainty	Mole fraction of octane	uncertainty	Mole fraction of benzene	uncertainty
0.067	0.933	0.006	0.087	0.018	0.171	
0.167	0.833	0.009	0.104	0.018	0.281	
0.273	0.727	0.01	0.091	0.018	0.405	
0.373	0.627	0.012	0.08	0.018	0.499	
0.48	0.52	0.013	0.063	0.018	0.592	
0.599	0.401	0.012	0.058	0.018	0.644	
0.729	0.271	0.01	0.049	0.018	0.708	
0.862	0.138	0.009	0.035	0.018	0.77	
0.932	0.068	0.006	0.025	0.018	0.812	

System: benzene + decane + tributylmethylammonium bis((trifluoromethyl)sulfonyl)imide; phases: Liquid mixture 1, Liquid mixture 2
Fixed: Temperature, K = 298.15
Fixed: Pressure, kPa = 101
Property: Mole fraction of decane (Liquid mixture 1); method: Density calibration data
Property: Mole fraction of decane (Liquid mixture 2); method: Density calibration data
Property: Mole fraction of benzene (Liquid mixture 2); method: Density calibration data
Mole fraction of benzene	Mole fraction of decane	uncertainty	Mole fraction of decane	uncertainty	Mole fraction of benzene	uncertainty
0.095	0.905	0.006	0.086	0.018	0.084	
0.161	0.839	0.009	0.093	0.018	0.177	
0.255	0.745	0.01	0.061	0.018	0.329	
0.354	0.646	0.011	0.061	0.018	0.435	
0.475	0.525	0.013	0.046	0.018	0.545	
0.593	0.407	0.012	0.032	0.018	0.635	
0.71	0.29	0.01	0.022	0.018	0.703	
0.844	0.156	0.009	0.016	0.016	0.774	
0.921	0.079	0.006	0.012	0.012	0.814	
