Measured thermophysical data. The density, viscosity, vapor pressure, melting point and flash point of a liquid propellant: 1-(2-azidoethyl) pyrrolidine
Source: Fluid Phase Equilib., 2016, 10.1016/j.fluid.2016.08.022
Compound 1: 1-(2-azidoethyl)pyrrolidine, C6H12N4, InChI=1S/C6H12N4/c7-9-8-3-6-10-4-1-2-5-10/h1-6H2, purity 98%
Compound 2: ethanol, C2H6O, InChI=1S/C2H6O/c1-2-3/h3H,2H2,1H3, purity 98%

System: 1-(2-azidoethyl)pyrrolidine; phases: Crystal, Liquid, Air at 1 atmosphere
Property: Normal melting temperature, K (Crystal); method: DTA
Normal melting temperature, K	uncertainty
140.79	0.39

System: 1-(2-azidoethyl)pyrrolidine; phases: Liquid
Fixed: Pressure, kPa = 101.325
Property: Mass density, kg/m3 (Liquid); method: Pycnometric method
Temperature, K	Mass density, kg/m3	uncertainty
273.15	1018.9	19.8
283.15	1009.6	19.6
293.15	1000.3	19.4
303.85	991.4	19.3
313.15	982.2	19.1
323.15	973	18.9
333.15	963.8	18.7
343.85	954.4	18.5
353.15	944.9	18.4
363.15	935.6	18.2
373.15	927.5	18

System: 1-(2-azidoethyl)pyrrolidine; phases: Liquid
Fixed: Pressure, kPa = 101.325
Property: Viscosity, Pa*s (Liquid); method: Capillary tube (Ostwald; Ubbelohde) method
Temperature, K	Viscosity, Pa*s	uncertainty
273.15	0.0020391	7.51e-05
283.15	0.0016904	6.23e-05
293.75	0.001425	5.25e-05
303.15	0.0012212	4.5e-05
313.15	0.0010633	3.92e-05
323.15	0.0009375	3.46e-05
333.15	0.0008349	3.08e-05
343.15	0.0007516	2.77e-05
353.15	0.000683	2.52e-05
363.15	0.000611	2.26e-05
373.15	0.0005761	2.13e-05

System: 1-(2-azidoethyl)pyrrolidine; phases: Liquid, Gas
Property: Vapor or sublimation pressure, kPa (Liquid); method: Closed cell (Static) method
Temperature, K	Vapor or sublimation pressure, kPa	uncertainty
311.75	1.59	0.03
318.75	2.17	0.04
322.65	2.52	0.04
329.55	3.3	0.06
332.55	3.65	0.06
338.65	4.61	0.08
343.25	5.54	0.09
354.25	7.91	0.13
358.45	9.02	0.15
363.15	10.32	0.17
368.55	11.94	0.2
372.65	13.25	0.22
378.65	14.83	0.25
383.15	16.39	0.27
389.15	18.51	0.31
393.65	20.72	0.34
399.15	23.22	0.38
402.15	25.48	0.42
409.65	29.1	0.48
412.65	31.54	0.52
418.15	34.47	0.57

System: ethanol; phases: Liquid
Fixed: Pressure, kPa = 101.325
Property: Mass density, kg/m3 (Liquid); method: Pycnometric method
Temperature, K	Mass density, kg/m3	uncertainty
293.15	788.7	0.9
313.15	771.9	0.9
333.15	753.7	0.9

System: ethanol; phases: Liquid
Fixed: Pressure, kPa = 101.325
Property: Viscosity, Pa*s (Liquid); method: Capillary tube (Ostwald; Ubbelohde) method
Temperature, K	Viscosity, Pa*s	uncertainty
293.15	0.0011608	1.38e-05
313.15	0.0008137	9.8e-06
333.15	0.0005849	7.2e-06

System: ethanol; phases: Liquid, Gas
Property: Vapor or sublimation pressure, kPa (Liquid); method: Closed cell (Static) method
Temperature, K	Vapor or sublimation pressure, kPa	uncertainty
293.15	5.893	0.069
313.15	17.918	0.14
333.15	46.87	0.29
