Measured thermophysical data. Solubility study at high phosphorus pentoxide concentration in ternary system CaCO3+P2O5+H2O at 25, 35 and 70 deg.C
Source: Fluid Phase Equilib., 2018, 10.1016/j.fluid.2018.09.006
Compound 1: water, H2O, InChI=1S/H2O/h1H2, purity 99.9%
Compound 2: diphosphorus pentaoxide, O5P2, InChI=1S/O5P2/c1-6(2)5-7(3)4, purity 99%
Compound 3: calcium monoxide, CaO, InChI=1S/Ca.O/q+2;-2, purity 98%

System: calcium monoxide + diphosphorus pentaoxide + water; phases: Liquid, Crystal of intercomponent compound 1
Fixed: Pressure, kPa = 100
Fixed: Temperature, K = 298.15
Property: Mass fraction of diphosphorus pentaoxide (Liquid); method: Electric conduction
Mass fraction of calcium monoxide	Mass fraction of diphosphorus pentaoxide	uncertainty
0.0041	0.5507	0.0015
0.0035	0.5707	0.0016
0.0032	0.5889	0.0016

System: calcium monoxide + diphosphorus pentaoxide + water; phases: Liquid, Crystal of intercomponent compound 2, Crystal of intercomponent compound 1
Property: Mass fraction of diphosphorus pentaoxide (Liquid); method: Electric conduction
Mass fraction of calcium monoxide	Temperature, K	Mass fraction of diphosphorus pentaoxide	uncertainty
0.0028	298.15	0.6134	0.0016

System: calcium monoxide + diphosphorus pentaoxide + water; phases: Liquid, Crystal of intercomponent compound 2, Crystal of intercomponent compound 1
Property: Mass fraction of diphosphorus pentaoxide (Liquid); method: Electric conduction
Mass fraction of calcium monoxide	Pressure, kPa	Mass fraction of diphosphorus pentaoxide	uncertainty
0.0028	100	0.6134	0.0016

System: calcium monoxide + diphosphorus pentaoxide + water; phases: Liquid, Crystal of intercomponent compound 1
Fixed: Pressure, kPa = 100
Fixed: Temperature, K = 298.15
Property: Mass fraction of diphosphorus pentaoxide (Liquid); method: Electric conduction
Mass fraction of calcium monoxide	Mass fraction of diphosphorus pentaoxide	uncertainty
0.0027	0.6281	0.0017
0.0024	0.6858	0.0018
0.0023	0.6943	0.0018

System: calcium monoxide + diphosphorus pentaoxide + water; phases: Liquid, Crystal of intercomponent compound 1, Crystal of intercomponent compound 2
Fixed: Temperature, K = 298.15
Property: Mass fraction of diphosphorus pentaoxide (Liquid); method: Electric conduction
Mass fraction of calcium monoxide	Mass fraction of diphosphorus pentaoxide	uncertainty
0.0026	0.635	0.0017
0.0023	0.6762	0.0017

System: calcium monoxide + diphosphorus pentaoxide + water; phases: Liquid, Crystal of intercomponent compound 1, Crystal of intercomponent compound 2
Fixed: Pressure, kPa = 100
Property: Mass fraction of diphosphorus pentaoxide (Liquid); method: Electric conduction
Mass fraction of calcium monoxide	Mass fraction of diphosphorus pentaoxide	uncertainty
0.0026	0.635	0.0017
0.0023	0.6762	0.0017

System: calcium monoxide + diphosphorus pentaoxide + water; phases: Liquid, Crystal of intercomponent compound 1, Crystal of intercomponent compound 2
Property: Mass fraction of diphosphorus pentaoxide (Liquid); method: Electric conduction
Mass fraction of calcium monoxide	Temperature, K	Mass fraction of diphosphorus pentaoxide	uncertainty
0.0021	298.15	0.7107	0.0018

System: calcium monoxide + diphosphorus pentaoxide + water; phases: Liquid, Crystal of intercomponent compound 1, Crystal of intercomponent compound 2
Property: Mass fraction of diphosphorus pentaoxide (Liquid); method: Electric conduction
Mass fraction of calcium monoxide	Pressure, kPa	Mass fraction of diphosphorus pentaoxide	uncertainty
0.0021	100	0.7107	0.0018

System: calcium monoxide + diphosphorus pentaoxide + water; phases: Liquid, Crystal of intercomponent compound 1
Fixed: Pressure, kPa = 100
Fixed: Temperature, K = 308.15
Property: Mass fraction of diphosphorus pentaoxide (Liquid); method: Electric conduction
Mass fraction of calcium monoxide	Mass fraction of diphosphorus pentaoxide	uncertainty
0.0049	0.0136	0.0029
0.009	0.0249	0.004
0.0103	0.0365	0.007
0.012	0.046	0.0057

System: calcium monoxide + diphosphorus pentaoxide + water; phases: Liquid, Crystal of intercomponent compound 1, Crystal of intercomponent compound 2
Property: Mass fraction of diphosphorus pentaoxide (Liquid); method: Electric conduction
Mass fraction of calcium monoxide	Temperature, K	Mass fraction of diphosphorus pentaoxide	uncertainty
0.0197	308.15	0.0826	0.001

System: calcium monoxide + diphosphorus pentaoxide + water; phases: Liquid, Crystal of intercomponent compound 1, Crystal of intercomponent compound 2
Property: Mass fraction of diphosphorus pentaoxide (Liquid); method: Electric conduction
Mass fraction of calcium monoxide	Pressure, kPa	Mass fraction of diphosphorus pentaoxide	uncertainty
0.0197	100	0.0826	0.001

System: calcium monoxide + diphosphorus pentaoxide + water; phases: Liquid, Crystal of intercomponent compound 1
Fixed: Pressure, kPa = 100
Fixed: Temperature, K = 308.15
Property: Mass fraction of diphosphorus pentaoxide (Liquid); method: Electric conduction
Mass fraction of calcium monoxide	Mass fraction of diphosphorus pentaoxide	uncertainty
0.0234	0.1002	0.0093
0.0252	0.1169	0.0045
0.0302	0.1321	0.004
0.0343	0.1525	0.0055
0.0391	0.1797	0.0047
0.0437	0.1957	0.0044
0.0459	0.2095	0.0066
0.0475	0.2203	0.0039
0.0505	0.2277	0.0027
0.0511	0.2337	0.0039

System: calcium monoxide + diphosphorus pentaoxide + water; phases: Liquid, Crystal of intercomponent compound 1, Crystal of intercomponent compound 2
Property: Mass fraction of diphosphorus pentaoxide (Liquid); method: Electric conduction
Mass fraction of calcium monoxide	Temperature, K	Mass fraction of diphosphorus pentaoxide	uncertainty
0.0587	308.15	0.2625	0.0011

System: calcium monoxide + diphosphorus pentaoxide + water; phases: Liquid, Crystal of intercomponent compound 1, Crystal of intercomponent compound 2
Property: Mass fraction of diphosphorus pentaoxide (Liquid); method: Electric conduction
Mass fraction of calcium monoxide	Pressure, kPa	Mass fraction of diphosphorus pentaoxide	uncertainty
0.0587	100	0.2625	0.0011

System: calcium monoxide + diphosphorus pentaoxide + water; phases: Liquid, Crystal of intercomponent compound 1
Fixed: Pressure, kPa = 100
Fixed: Temperature, K = 308.15
Property: Mass fraction of diphosphorus pentaoxide (Liquid); method: Electric conduction
Mass fraction of calcium monoxide	Mass fraction of diphosphorus pentaoxide	uncertainty
0.0571	0.2707	0.0036
0.0535	0.2828	0.0041
0.0486	0.3035	0.0043
0.0413	0.3328	0.0045
0.0351	0.3623	0.0047
0.0297	0.3858	0.0053
0.0232	0.4234	0.0059
0.0192	0.4456	0.0055
0.0147	0.469	0.0061
0.0111	0.4937	0.0065
0.0067	0.5199	0.0061
0.0066	0.5414	0.0107
0.0065	0.5552	0.0135
0.0064	0.5786	0.0181

System: calcium monoxide + diphosphorus pentaoxide + water; phases: Liquid, Crystal of intercomponent compound 1, Crystal of intercomponent compound 2
Property: Mass fraction of diphosphorus pentaoxide (Liquid); method: Electric conduction
Mass fraction of calcium monoxide	Temperature, K	Mass fraction of diphosphorus pentaoxide	uncertainty
0.0066	308.15	0.6103	0.0016

System: calcium monoxide + diphosphorus pentaoxide + water; phases: Liquid, Crystal of intercomponent compound 1, Crystal of intercomponent compound 2
Property: Mass fraction of diphosphorus pentaoxide (Liquid); method: Electric conduction
Mass fraction of calcium monoxide	Pressure, kPa	Mass fraction of diphosphorus pentaoxide	uncertainty
0.0066	100	0.6103	0.0016

System: calcium monoxide + diphosphorus pentaoxide + water; phases: Liquid, Crystal of intercomponent compound 1
Fixed: Pressure, kPa = 100
Fixed: Temperature, K = 308.15
Property: Mass fraction of diphosphorus pentaoxide (Liquid); method: Electric conduction
Mass fraction of calcium monoxide	Mass fraction of diphosphorus pentaoxide	uncertainty
0.0065	0.6242	0.0017
0.0064	0.6493	0.0017
0.0065	0.6867	0.0018

System: calcium monoxide + diphosphorus pentaoxide + water; phases: Liquid, Crystal of intercomponent compound 1, Crystal of intercomponent compound 2
Property: Mass fraction of diphosphorus pentaoxide (Liquid); method: Electric conduction
Mass fraction of calcium monoxide	Temperature, K	Mass fraction of diphosphorus pentaoxide	uncertainty
0.0067	308.15	0.7193	0.0018

System: calcium monoxide + diphosphorus pentaoxide + water; phases: Liquid, Crystal of intercomponent compound 1, Crystal of intercomponent compound 2
Property: Mass fraction of diphosphorus pentaoxide (Liquid); method: Electric conduction
Mass fraction of calcium monoxide	Pressure, kPa	Mass fraction of diphosphorus pentaoxide	uncertainty
0.0067	100	0.7193	0.0018

System: calcium monoxide + diphosphorus pentaoxide + water; phases: Liquid, Crystal of intercomponent compound 1
Property: Mass fraction of diphosphorus pentaoxide (Liquid); method: Electric conduction
Mass fraction of calcium monoxide	Pressure, kPa	Temperature, K	Mass fraction of diphosphorus pentaoxide	uncertainty
0.0074	100	343.15	0.5792	0.0016

System: calcium monoxide + diphosphorus pentaoxide + water; phases: Liquid, Crystal of intercomponent compound 1, Crystal of intercomponent compound 2
Property: Mass fraction of diphosphorus pentaoxide (Liquid); method: Electric conduction
Mass fraction of calcium monoxide	Temperature, K	Mass fraction of diphosphorus pentaoxide	uncertainty
0.0073	343.15	0.5881	0.0016

System: calcium monoxide + diphosphorus pentaoxide + water; phases: Liquid, Crystal of intercomponent compound 1, Crystal of intercomponent compound 2
Property: Mass fraction of diphosphorus pentaoxide (Liquid); method: Electric conduction
Mass fraction of calcium monoxide	Pressure, kPa	Mass fraction of diphosphorus pentaoxide	uncertainty
0.0073	100	0.5881	0.0016

System: calcium monoxide + diphosphorus pentaoxide + water; phases: Liquid, Crystal of intercomponent compound 1
Fixed: Pressure, kPa = 100
Fixed: Temperature, K = 343.15
Property: Mass fraction of diphosphorus pentaoxide (Liquid); method: Electric conduction
Mass fraction of calcium monoxide	Mass fraction of diphosphorus pentaoxide	uncertainty
0.0071	0.6312	0.0017
0.0072	0.6675	0.0017
0.0073	0.6961	0.0018

System: calcium monoxide + diphosphorus pentaoxide + water; phases: Liquid, Crystal of intercomponent compound 1
Fixed: Pressure, kPa = 100
Fixed: Temperature, K = 343.15
Property: Mass fraction of diphosphorus pentaoxide (Liquid); method: Schreinemaker�s method
Mass fraction of calcium monoxide	Mass fraction of diphosphorus pentaoxide	uncertainty
0.009	0.611	0.019
0.005	0.654	0.031
0.006	0.705	0.009
