Measured thermophysical data. Measurements and correlation of liquid-liquid equilibria of 4-methyl-2-pentanone + ethanol + water and  4-methyl-2-pentanone + n-butanol + water ternary systems between 283.2 and 323.2 K
Source: Fluid Phase Equilib., 2012, 10.1016/j.fluid.2012.01.009
Compound 1: 4-methylpentan-2-one, C6H12O, InChI=1S/C6H12O/c1-5(2)4-6(3)7/h5H,4H2,1-3H3, purity 99.5%
Compound 2: butan-1-ol, C4H10O, InChI=1S/C4H10O/c1-2-3-4-5/h5H,2-4H2,1H3, purity 99%
Compound 3: ethanol, C2H6O, InChI=1S/C2H6O/c1-2-3/h3H,2H2,1H3, purity 99.8%
Compound 4: water, H2O, InChI=1S/H2O/h1H2

System: butan-1-ol + 4-methylpentan-2-one + water; phases: Liquid mixture 1, Liquid mixture 2
Fixed: Pressure, kPa = 101
Property: Mole fraction of butan-1-ol (Liquid mixture 1); method: Chromatography
Property: Mole fraction of 4-methylpentan-2-one (Liquid mixture 2); method: Chromatography
Property: Mole fraction of butan-1-ol (Liquid mixture 2); method: Chromatography
Temperature, K	Mole fraction of 4-methylpentan-2-one	Mole fraction of butan-1-ol	uncertainty	Mole fraction of 4-methylpentan-2-one	uncertainty	Mole fraction of butan-1-ol	uncertainty
283.2	0.8957	0		0.0043	0.0004	0	
283.2	0.7696	0.0866	0.0008	0.0052	0.0004	0.0042	
283.2	0.6422	0.1591	0.0013	0.0037	0.0004	0.0073	
283.2	0.4767	0.2492	0.0019	0.0031	0.0004	0.0101	
283.2	0.3772	0.3027	0.0024	0.0029	0.0004	0.012	
283.2	0.3063	0.3373	0.0026	0.0028	0.0004	0.0135	
283.2	0.2252	0.3783	0.0029	0.0024	0.0004	0.0156	
283.2	0.1813	0.3979	0.0031	0.0023	0.0004	0.0165	
283.2	0.1388	0.42	0.0033	0.0017	0.0004	0.0181	
283.2	0.0769	0.4545	0.0035	0.0012	0.0004	0.0202	
283.2	0.049	0.4678	0.0036	0.0008	0.0004	0.0213	
283.2	0	0.5004	0.0039	0		0.024	
323.2	0.8788	0		0.0032	0.0004	0	
323.2	0.7155	0.087	0.0008	0.0027	0.0004	0.0022	
323.2	0.6175	0.1611	0.0013	0.0022	0.0004	0.0041	
323.2	0.4568	0.2508	0.002	0.0018	0.0004	0.006	
323.2	0.3627	0.3029	0.0024	0.0017	0.0004	0.0074	
323.2	0.2967	0.3347	0.0026	0.0019	0.0004	0.0086	
323.2	0.2304	0.3928	0.0031	0.0015	0.0004	0.01	
323.2	0.1784	0.3966	0.0031	0.0014	0.0004	0.0107	
323.2	0.1368	0.4186	0.0032	0.0012	0.0004	0.0118	
323.2	0.0742	0.4426	0.0034	0.0008	0.0004	0.0138	
323.2	0.0467	0.4513	0.0035	0		0.0147	
323.2	0	0.4838	0.0037	0		0.0168	

System: ethanol + 4-methylpentan-2-one + water; phases: Liquid mixture 2, Liquid mixture 1
Fixed: Pressure, kPa = 101
Property: Mole fraction of ethanol (Liquid mixture 2); method: Chromatography
Property: Mole fraction of ethanol (Liquid mixture 1); method: Chromatography
Property: Mole fraction of 4-methylpentan-2-one (Liquid mixture 1); method: Chromatography
Temperature, K	Mole fraction of 4-methylpentan-2-one	Mole fraction of ethanol	uncertainty	Mole fraction of ethanol	uncertainty	Mole fraction of 4-methylpentan-2-one	uncertainty
283.2	0.0042	0		0		0.9106	
283.2	0.0062	0.0204	0.0204	0.0264	0.0005	0.8696	
283.2	0.0053	0.0413	0.0413	0.0597	0.0006	0.815	
283.2	0.0053	0.0599	0.0543	0.0961	0.0008	0.7501	
283.2	0.0057	0.0766	0.0564	0.1365	0.0011	0.6756	
283.2	0.006	0.0873	0.0581	0.1666	0.0013	0.6193	
283.2	0.0067	0.0926	0.0618	0.181	0.0014	0.5852	
283.2	0.0067	0.0976	0.0621	0.1942	0.0015	0.5581	
283.2	0.0082	0.1068	0.0218	0.2182	0.0017	0.4951	
283.2	0.0084	0.1136	0.0141	0.2332	0.0018	0.4539	
283.2	0.0138	0.1371	0.0057	0.2675	0.0021	0.3084	
283.2	0.0214	0.1562	0.0043	0.2677	0.0025	0.2231	
298.2	0.8676	0		0		0.0025	
298.2	0.8137	0.0305	0.0093	0.0044	0.0044	0.0024	
298.2	0.7884	0.0674	0.0086	0.0354	0.0277	0.0041	
298.2	0.7167	0.1082	0.0068	0.0531	0.0263	0.0045	
298.2	0.685	0.1255	0.0063	0.0598	0.0267	0.005	
298.2	0.5952	0.1696	0.006	0.0764	0.0203	0.0061	
298.2	0.4647	0.2219	0.005	0.0908	0.0142	0.0073	
298.2	0.3636	0.2505	0.0025	0.1141	0.0067	0.0107	
298.2	0.4881	0.2151	0.0056	0.0943	0.0143	0.0075	
298.2	0.1768	0.2485	0.0021	0.1576	0.0024	0.0299	
298.2	0.5142	0.2032	0.0058	0.0886	0.0172	0.007	
298.2	0.2925	0.2607	0.0022	0.1274	0.005	0.0142	
323.2	0.0027	0		0		0.8753	
323.2	0.0029	0.0137	0.0137	0.0377	0.0006	0.8121	
323.2	0.0034	0.0303	0.0284	0.0833	0.0008	0.7345	
323.2	0.0042	0.0379	0.0198	0.1081	0.0009	0.7091	
323.2	0.0048	0.0518	0.0202	0.1472	0.0012	0.6184	
323.2	0.0056	0.0675	0.0188	0.1882	0.0015	0.5298	
323.2	0.0025	0		0		0.8665	
323.2	0.0079	0.0835	0.0079	0.2248	0.0017	0.4212	
323.2	0.0081	0.0872	0.0061	0.2289	0.0018	0.3999	
323.2	0.0132	0.1082	0.0031	0.2478	0.0019	0.2904	
323.2	0.0227	0.1312	0.0025	0.2405	0.0019	0.198	
323.2	0.0027	0		0		0.8753	
