Measured thermophysical data. Measurement and correlation of liquid liquid equilibria for ternary systems {cyclooctane + aromatic hydrocarbon + 1-ethyl-3-methylpyridinium ethylsulfate} at T = 298.15 K and atmospheric pressure
Source: Fluid Phase Equilib., 2010, 10.1016/j.fluid.2009.12.019
Compound 1: cyclooctane, C8H16, InChI=1S/C8H16/c1-2-4-6-8-7-5-3-1/h1-8H2, purity 99%
Compound 2: benzene, C6H6, InChI=1S/C6H6/c1-2-4-6-5-3-1/h1-6H, purity 99.9%
Compound 3: toluene, C7H8, InChI=1S/C7H8/c1-7-5-3-2-4-6-7/h2-6H,1H3, purity 99.9%
Compound 4: ethylbenzene, C8H10, InChI=1S/C8H10/c1-2-8-6-4-3-5-7-8/h3-7H,2H2,1H3, purity 99.8%
Compound 5: 1-ethyl-3-methylpyridinium ethylsulfate, C10H17NO4S, InChI=1S/C8H12N.C2H6O4S/c1-3-9-6-4-5-8(2)7-9;1-2-6-7(3,4)5/h4-7H,3H2,1-2H3;2H2,1H3,(H,3,4,5)/q+1;/p-1

System: 1-ethyl-3-methylpyridinium ethylsulfate; phases: Liquid
Property: Refractive index (Na D-line) (Liquid); method: Standard Abbe refractometry
Temperature, K	Pressure, kPa	Refractive index (Na D-line)	uncertainty
298.15	101.325	1.50591	0.00071

System: 1-ethyl-3-methylpyridinium ethylsulfate; phases: Liquid
Property: Mass density, kg/m3 (Liquid); method: Vibrating tube method
Temperature, K	Pressure, kPa	Mass density, kg/m3	uncertainty
298.15	101.325	1219.61	0.42

System: benzene + cyclooctane; phases: Liquid
Fixed: Pressure, kPa = 101
Fixed: Temperature, K = 298.15
Property: Mass density, kg/m3 (Liquid); method: Vibrating tube method
Mole fraction of cyclooctane	Mass density, kg/m3	uncertainty
0	873.57	0.13
0.0522	869.32	0.81
0.102	865.41	0.72
0.203	858.54	0.64
0.3029	852.85	0.55
0.4033	847.9	0.48
0.5002	843.91	0.41
0.5985	840.53	0.36
0.7025	837.52	0.32
0.7983	835.24	0.3
0.8946	833.31	0.28
0.9504	832.46	0.29
1	831.47	0.24

System: toluene + cyclooctane; phases: Liquid
Fixed: Pressure, kPa = 101
Fixed: Temperature, K = 298.15
Property: Mass density, kg/m3 (Liquid); method: Vibrating tube method
Mole fraction of cyclooctane	Mass density, kg/m3	uncertainty
0	862.17	0.13
0.0488	859.8	0.51
0.1031	857.06	0.49
0.2021	852.54	0.46
0.2973	848.53	0.42
0.4014	844.74	0.38
0.5	841.57	0.34
0.6005	838.71	0.31
0.6976	836.42	0.28
0.7981	834.45	0.27
0.9007	832.83	0.26
0.9494	832.18	0.26
1	831.47	0.24

System: ethylbenzene + cyclooctane; phases: Liquid
Fixed: Pressure, kPa = 101
Fixed: Temperature, K = 298.15
Property: Mass density, kg/m3 (Liquid); method: Vibrating tube method
Mole fraction of cyclooctane	Mass density, kg/m3	uncertainty
0	862.51	0.13
0.0465	860.4	0.45
0.0962	858.35	0.44
0.1961	854.12	0.43
0.2944	850.33	0.4
0.3975	846.61	0.38
0.4959	843.45	0.36
0.5935	840.42	0.34
0.6929	837.64	0.32
0.7954	835.27	0.3
0.8899	833.29	0.3
0.9497	832.1	0.28
1	831.47	0.24

System: benzene + cyclooctane + 1-ethyl-3-methylpyridinium ethylsulfate; phases: Liquid mixture 1, Liquid mixture 2
Fixed: Temperature, K = 298.15
Fixed: Pressure, kPa = 101.3
Property: Mole fraction of benzene (Liquid mixture 1); method: Titration method
Mole fraction of cyclooctane	Mole fraction of benzene	uncertainty
0	0.591	0.015
0.001	0.545	0.016
0.003	0.513	0.017
0.004	0.506	0.017
0.008	0.293	0.013
0.008	0.391	0.015
0.008	0.424	0.016
0.009	0.214	0.012
0.01	0.195	0.011
0.012	0.095	0.01
0.014	0.049	0.01
0.015	0	0.001

System: benzene + cyclooctane + 1-ethyl-3-methylpyridinium ethylsulfate; phases: Liquid mixture 1, Liquid mixture 2
Fixed: Temperature, K = 298.15
Fixed: Pressure, kPa = 101.3
Property: Mole fraction of cyclooctane (Liquid mixture 1); method: Density calibration data
Property: Mole fraction of cyclooctane (Liquid mixture 2); method: Density calibration data
Property: Mole fraction of benzene (Liquid mixture 2); method: Density calibration data
Mole fraction of benzene	Mole fraction of cyclooctane	uncertainty	Mole fraction of cyclooctane	uncertainty	Mole fraction of benzene	uncertainty
0.097	0.903	0.014	0.009	0.009	0.069	
0.155	0.845	0.014	0.009	0.009	0.107	
0.209	0.791	0.014	0.009	0.009	0.142	
0.268	0.732	0.014	0.009	0.009	0.178	
0.267	0.733	0.014	0.009	0.009	0.178	
0.325	0.675	0.014	0.009	0.009	0.217	
0.447	0.553	0.014	0.009	0.009	0.274	
0.566	0.434	0.014	0.009	0.009	0.336	
0.698	0.302	0.014	0.008	0.008	0.401	
0.825	0.175	0.014	0.006	0.006	0.467	

System: toluene + cyclooctane + 1-ethyl-3-methylpyridinium ethylsulfate; phases: Liquid mixture 1, Liquid mixture 2
Fixed: Temperature, K = 298.15
Fixed: Pressure, kPa = 101.3
Property: Mole fraction of toluene (Liquid mixture 1); method: Titration method
Mole fraction of cyclooctane	Mole fraction of toluene	uncertainty
0	0.307	0.013
0.003	0.218	0.012
0.006	0.193	0.011
0.006	0.22	0.012
0.008	0.153	0.011
0.011	0.116	0.011
0.012	0.05	0.01
0.012	0.103	0.01
0.012	0.076	0.01
0.015	0	0.001

System: toluene + cyclooctane + 1-ethyl-3-methylpyridinium ethylsulfate; phases: Liquid mixture 1, Liquid mixture 2
Fixed: Temperature, K = 298.15
Fixed: Pressure, kPa = 101.3
Property: Mole fraction of cyclooctane (Liquid mixture 1); method: Density calibration data
Property: Mole fraction of cyclooctane (Liquid mixture 2); method: Density calibration data
Property: Mole fraction of toluene (Liquid mixture 2); method: Density calibration data
Mole fraction of toluene	Mole fraction of cyclooctane	uncertainty	Mole fraction of cyclooctane	uncertainty	Mole fraction of toluene	uncertainty
0.094	0.906	0.014	0.014	0.01	0.032	
0.169	0.831	0.014	0.014	0.01	0.053	
0.233	0.767	0.014	0.012	0.01	0.075	
0.292	0.708	0.014	0.012	0.01	0.094	
0.348	0.652	0.014	0.01	0.01	0.118	
0.481	0.519	0.014	0.007	0.007	0.163	
0.619	0.381	0.014	0.005	0.005	0.202	
0.745	0.255	0.014	0.003	0.003	0.244	
0.74	0.26	0.014	0.003	0.003	0.243	
0.877	0.123	0.014	0.001	0.001	0.291	

System: ethylbenzene + cyclooctane + 1-ethyl-3-methylpyridinium ethylsulfate; phases: Liquid mixture 1, Liquid mixture 2
Fixed: Temperature, K = 298.15
Fixed: Pressure, kPa = 101.3
Property: Mole fraction of ethylbenzene (Liquid mixture 1); method: Titration method
Mole fraction of cyclooctane	Mole fraction of ethylbenzene	uncertainty
0	0.168	0.011
0.003	0.157	0.011
0.005	0.109	0.01
0.006	0.09	0.01
0.008	0.078	0.01
0.009	0.039	0.01
0.009	0.035	0.01
0.009	0.078	0.01
0.013	0.058	0.01
0.015	0	0.001
0.016	0.024	0.01

System: ethylbenzene + cyclooctane + 1-ethyl-3-methylpyridinium ethylsulfate; phases: Liquid mixture 1, Liquid mixture 2
Fixed: Temperature, K = 298.15
Fixed: Pressure, kPa = 101.3
Property: Mole fraction of cyclooctane (Liquid mixture 1); method: Density calibration data
Property: Mole fraction of cyclooctane (Liquid mixture 2); method: Density calibration data
Property: Mole fraction of ethylbenzene (Liquid mixture 2); method: Density calibration data
Mole fraction of ethylbenzene	Mole fraction of cyclooctane	uncertainty	Mole fraction of cyclooctane	uncertainty	Mole fraction of ethylbenzene	uncertainty
0.127	0.873	0.014	0.012	0.01	0.029	
0.255	0.745	0.014	0.01	0.01	0.054	
0.387	0.613	0.014	0.008	0.008	0.079	
0.51	0.49	0.014	0.007	0.007	0.101	
0.651	0.349	0.014	0.005	0.005	0.112	
0.646	0.354	0.014	0.005	0.005	0.111	
0.913	0.087	0.014	0.002	0.002	0.144	
