Measured thermophysical data. Isothermal vapor liquid equilibrium at 333.15K and excess molar volumes and refractive indices at 298.15K for the mixtures of di-methyl carbonate, ethanol and 2,2,4-trimethylpentane
Source: Fluid Phase Equilib., 2009, 10.1016/j.fluid.2008.11.001
Compound 1: dimethyl carbonate, C3H6O3, InChI=1S/C3H6O3/c1-5-3(4)6-2/h1-2H3
Compound 2: 2,2,4-trimethylpentane, C8H18, InChI=1S/C8H18/c1-7(2)6-8(3,4)5/h7H,6H2,1-5H3
Compound 3: ethanol, C2H6O, InChI=1S/C2H6O/c1-2-3/h3H,2H2,1H3

System: dimethyl carbonate; phases: Liquid
Property: Refractive index (Na D-line) (Liquid); method: REFRACT
Temperature, K	Pressure, kPa	Refractive index (Na D-line)	uncertainty
298.15	101.325	1.36654	0.00014

System: dimethyl carbonate; phases: Liquid
Property: Mass density, kg/m3 (Liquid); method: Vibrating tube method
Pressure, kPa	Temperature, K	Mass density, kg/m3	uncertainty
101	298.15	1063.04	0.06

System: 2,2,4-trimethylpentane; phases: Liquid
Property: Refractive index (Na D-line) (Liquid); method: REFRACT
Temperature, K	Pressure, kPa	Refractive index (Na D-line)	uncertainty
298.15	101.325	1.38898	0.00014

System: 2,2,4-trimethylpentane; phases: Liquid
Property: Mass density, kg/m3 (Liquid); method: Vibrating tube method
Pressure, kPa	Temperature, K	Mass density, kg/m3	uncertainty
101	298.15	688.18	0.15

System: ethanol; phases: Liquid
Property: Refractive index (Na D-line) (Liquid); method: REFRACT
Temperature, K	Pressure, kPa	Refractive index (Na D-line)	uncertainty
298.15	101.325	1.35933	0.00014

System: ethanol; phases: Liquid
Property: Mass density, kg/m3 (Liquid); method: Vibrating tube method
Pressure, kPa	Temperature, K	Mass density, kg/m3	uncertainty
101	298.15	785.33	0.12

System: ethanol + dimethyl carbonate; phases: Liquid
Fixed: Pressure, kPa = 101
Fixed: Temperature, K = 298.15
Property: Refractive index (Na D-line) (Liquid); method: REFRACT
Mole fraction of dimethyl carbonate	Refractive index (Na D-line)	uncertainty
0	1.35933	0.00014
0.051	1.36039	0.00014
0.1	1.3606	0.00014
0.1999	1.36122	0.00014
0.2998	1.36186	0.00014
0.4005	1.36241	0.00014
0.5008	1.36301	0.00014
0.6011	1.36375	0.00014
0.6993	1.36439	0.00014
0.8002	1.36504	0.00014
0.9008	1.36576	0.00014
0.9514	1.36614	0.00014
1	1.36654	0.00014

System: ethanol + dimethyl carbonate; phases: Liquid
Fixed: Pressure, kPa = 101
Fixed: Temperature, K = 298.15
Property: Mass density, kg/m3 (Liquid); method: Vibrating tube method
Mole fraction of dimethyl carbonate	Mass density, kg/m3	uncertainty
0	785.33	0.12
0.051	805.05	0.11
0.1	823.15	0.11
0.1999	857.92	0.11
0.2998	889.9	0.12
0.4005	919.86	0.13
0.5008	947.72	0.15
0.6011	973.66	0.11
0.6993	997.55	0.08
0.8002	1020.67	0.07
0.9008	1042.49	0.06
0.9514	1053.11	0.06
1	1063.04	0.06

System: 2,2,4-trimethylpentane + dimethyl carbonate; phases: Liquid
Fixed: Pressure, kPa = 101
Fixed: Temperature, K = 298.15
Property: Refractive index (Na D-line) (Liquid); method: REFRACT
Mole fraction of dimethyl carbonate	Refractive index (Na D-line)	uncertainty
0	1.38898	0.00014
0.0508	1.38814	0.00014
0.1017	1.38716	0.00014
0.1995	1.38504	0.00014
0.3007	1.38275	0.00014
0.4002	1.38062	0.00014
0.5002	1.37889	0.00014
0.5996	1.37642	0.00014
0.7005	1.37408	0.00014
0.8002	1.37109	0.00014
0.9011	1.36879	0.00014
0.9504	1.36722	0.00014
1	1.36654	0.00014

System: 2,2,4-trimethylpentane + dimethyl carbonate; phases: Liquid
Fixed: Pressure, kPa = 101
Fixed: Temperature, K = 298.15
Property: Mass density, kg/m3 (Liquid); method: Vibrating tube method
Mole fraction of dimethyl carbonate	Mass density, kg/m3	uncertainty
0	688.18	0.15
0.0508	697.25	0.15
0.1017	706.78	0.15
0.1995	727.06	0.15
0.3007	751.06	0.15
0.4002	778.05	0.17
0.5002	809.37	0.2
0.5996	845.17	0.18
0.7005	887.53	0.16
0.8002	936.46	0.12
0.9011	994.92	0.07
0.9504	1027.38	0.06
1	1063.04	0.06

System: ethanol + 2,2,4-trimethylpentane; phases: Gas, Liquid
Fixed: Temperature, K = 333.15
Property: Mole fraction of ethanol (Gas); method: Chromatography
Mole fraction of ethanol	Mole fraction of ethanol	uncertainty
0.0196	0.3315	0.004
0.0589	0.4679	0.0056
0.0791	0.4999	0.006
0.1189	0.5346	0.0056
0.1676	0.5531	0.0054
0.2292	0.5666	0.0052
0.2904	0.5764	0.0051
0.3486	0.5842	0.005
0.4102	0.5912	0.0049
0.4702	0.5993	0.0048
0.5303	0.6066	0.0047
0.5897	0.6084	0.0047
0.6499	0.6103	0.0047
0.7099	0.6292	0.0045
0.7705	0.6428	0.0043
0.83	0.6723	0.004
0.8803	0.7105	0.0035
0.9198	0.7526	0.003
0.9399	0.7989	0.0024
0.9602	0.8486	0.0018
0.9799	0.926	0.0009

System: ethanol + 2,2,4-trimethylpentane + dimethyl carbonate; phases: Liquid
Fixed: Pressure, kPa = 101
Fixed: Temperature, K = 298.15
Property: Refractive index (Na D-line) (Liquid); method: REFRACT
Mole fraction of dimethyl carbonate	Mole fraction of ethanol	Refractive index (Na D-line)	uncertainty
0.0193	0.1809	1.38607	0.00014
0.0198	0.8	1.36916	0.00014
0.0296	0.7003	1.37238	0.00014
0.0305	0.071	1.38757	0.00014
0.0309	0.2706	1.38431	0.00014
0.0396	0.6003	1.37578	0.00014
0.0404	0.3604	1.38201	0.00014
0.0498	0.4497	1.3797	0.00014
0.0594	0.54	1.37698	0.00014
0.0701	0.8999	1.36171	0.00014
0.0892	0.21	1.38383	0.00014
0.0902	0.7	1.37026	0.00014
0.1002	0.8001	1.36529	0.00014
0.1004	0.1009	1.38562	0.00014
0.1193	0.2801	1.38163	0.00014
0.1196	0.6004	1.37287	0.00014
0.1499	0.7	1.36781	0.00014
0.1501	0.1509	1.38338	0.00014
0.1502	0.3496	1.3792	0.00014
0.1502	0.4993	1.37499	0.00014
0.18	0.4201	1.37654	0.00014
0.2	0.6002	1.36993	0.00014
0.2008	0.199	1.38124	0.00014
0.2099	0.6999	1.36551	0.00014
0.2107	0.0903	1.38359	0.00014
0.2497	0.5005	1.37164	0.00014
0.25	0.2503	1.37888	0.00014
0.2798	0.6001	1.36687	0.00014
0.2799	0.1204	1.38102	0.00014
0.2999	0.4004	1.37335	0.00014
0.3001	0.3001	1.37629	0.00014
0.3496	0.1496	1.37856	0.00014
0.3502	0.4999	1.3683	0.00014
0.3593	0.0405	1.38065	0.00014
0.42	0.3999	1.36938	0.00014
0.5401	0.4	1.36571	0.00014

System: ethanol + 2,2,4-trimethylpentane + dimethyl carbonate; phases: Liquid
Fixed: Pressure, kPa = 101
Fixed: Temperature, K = 298.15
Property: Mass density, kg/m3 (Liquid); method: Vibrating tube method
Mole fraction of dimethyl carbonate	Mole fraction of ethanol	Mass density, kg/m3	uncertainty
0.0193	0.1809	697.69	0.15
0.0198	0.8	751.99	0.13
0.0296	0.7003	741.34	0.14
0.0305	0.071	695.73	0.15
0.0309	0.2706	704.62	0.15
0.0396	0.6003	732.56	0.15
0.0404	0.3604	712.36	0.15
0.0498	0.4497	721.75	0.15
0.0594	0.54	733.08	0.16
0.0701	0.8999	803.65	0.12
0.0892	0.21	714.56	0.15
0.0902	0.7	766.97	0.15
0.1002	0.8001	794.04	0.13
0.1004	0.1009	710.9	0.15
0.1193	0.2801	726.97	0.15
0.1196	0.6004	762.86	0.15
0.1499	0.7	796.42	0.15
0.1501	0.1509	725.21	0.15
0.1502	0.3496	742.1	0.15
0.1502	0.4993	759.8	0.16
0.18	0.4201	759.92	0.15
0.2	0.6002	798.82	0.18
0.2008	0.199	742.19	0.15
0.2099	0.6999	830.17	0.17
0.2107	0.0903	735.69	0.15
0.2497	0.5005	800.97	0.18
0.25	0.2503	762.02	0.15
0.2798	0.6001	840.99	0.2
0.2799	0.1204	756.62	0.15
0.2999	0.4004	802.77	0.19
0.3001	0.3001	785.57	0.16
0.3496	0.1496	780.9	0.17
0.3502	0.4999	850.61	0.22
0.3593	0.0405	770.75	0.16
0.42	0.3999	859.13	0.25
0.5401	0.4	930.77	0.29

System: ethanol + 2,2,4-trimethylpentane + dimethyl carbonate; phases: Gas, Liquid
Fixed: Temperature, K = 333.15
Property: Mole fraction of ethanol (Gas); method: Chromatography
Mole fraction of dimethyl carbonate	Mole fraction of ethanol	Mole fraction of ethanol	uncertainty
0.0194	0.8002	0.6687	0.004
0.0208	0.1804	0.513	0.0059
0.0294	0.2705	0.5422	0.0055
0.0295	0.071	0.4204	0.0051
0.0298	0.9	0.75	0.003
0.0306	0.6995	0.6277	0.0045
0.0402	0.6002	0.5955	0.0049
0.0405	0.3596	0.5525	0.0054
0.0491	0.4512	0.566	0.0052
0.0607	0.5396	0.5746	0.0051
0.0696	0.0286	0.2717	0.0033
0.0901	0.2099	0.4771	0.0057
0.0906	0.6993	0.6009	0.0048
0.1001	0.0996	0.3934	0.0047
0.1199	0.5999	0.5659	0.0052
0.12	0.2805	0.4901	0.0059
0.1494	0.15	0.4146	0.005
0.1499	0.4998	0.5318	0.0056
0.1798	0.4204	0.5062	0.0059
0.1803	0.0179	0.1439	0.0017
0.1995	0.6008	0.5485	0.0054
0.2006	0.1996	0.4179	0.005
0.2102	0.0908	0.33	0.004
0.2493	0.251	0.4289	0.0052
0.2507	0.4995	0.5144	0.0058
0.2696	0.0293	0.1656	0.002
0.2795	0.1211	0.3361	0.004
0.2996	0.4002	0.4742	0.0057
0.3496	0.1495	0.3408	0.0041
0.3596	0.0403	0.1769	0.0021

System: ethanol + 2,2,4-trimethylpentane + dimethyl carbonate; phases: Gas, Liquid
Fixed: Temperature, K = 333.15
Property: Mole fraction of dimethyl carbonate (Gas); method: Chromatography
Mole fraction of dimethyl carbonate	Mole fraction of ethanol	Mole fraction of dimethyl carbonate	uncertainty
0.0194	0.8002	0.0282	0.0003
0.0208	0.1804	0.0303	0.0004
0.0294	0.2705	0.0397	0.0005
0.0295	0.071	0.0525	0.0006
0.0298	0.9	0.0487	0.0006
0.0306	0.6995	0.0403	0.0005
0.0402	0.6002	0.0526	0.0006
0.0405	0.3596	0.0508	0.0006
0.0491	0.4512	0.0615	0.0007
0.0607	0.5396	0.0745	0.0009
0.0696	0.0286	0.1397	0.0017
0.0901	0.2099	0.1111	0.0013
0.0906	0.6993	0.1044	0.0013
0.1001	0.0996	0.1393	0.0017
0.1199	0.5999	0.125	0.0015
0.12	0.2805	0.1316	0.0016
0.1494	0.15	0.1743	0.0021
0.1499	0.4998	0.1477	0.0018
0.1798	0.4204	0.1684	0.002
0.1803	0.0179	0.3011	0.0036
0.1995	0.6008	0.1833	0.0022
0.2006	0.1996	0.2006	0.0024
0.2102	0.0908	0.2425	0.0029
0.2493	0.251	0.223	0.0027
0.2507	0.4995	0.2078	0.0025
0.2696	0.0293	0.3498	0.0042
0.2795	0.1211	0.2737	0.0033
0.2996	0.4002	0.2305	0.0028
0.3496	0.1495	0.2994	0.0036
0.3596	0.0403	0.3856	0.0046
