Measured thermophysical data. Experimental and statistical mechanical studies of heats of dilution of alkanols in pyridine derivatives based on ab initio calculations of hydrogen bonding energies
Source: Fluid Phase Equilib., 2006, 10.1016/j.fluid.2006.07.004
Compound 1: methanol, CH4O, InChI=1S/CH4O/c1-2/h2H,1H3, purity 99.8%
Compound 2: 2-methylpropan-2-ol, C4H10O, InChI=1S/C4H10O/c1-4(2,3)5/h5H,1-3H3, purity 99.7%
Compound 3: 2,6-di-tert-butylpyridine, C13H21N, InChI=1S/C13H21N/c1-12(2,3)10-8-7-9-11(14-10)13(4,5)6/h7-9H,1-6H3, purity 97.5%

System: methanol + 2,6-di-tert-butylpyridine; phases: Liquid
Fixed: Temperature, K = 298.15
Fixed: Pressure, kPa = 101
Property: Molar enthalpy of solution, kJ/mol (Liquid); method: TITRC:UFactor:2
Mole fraction of methanol	Molar enthalpy of solution, kJ/mol	uncertainty
0.0019	14.595	0.292
0.0056	13.388	0.268
0.0092	11.744	0.235
0.0129	10.54	0.211
0.0165	9.41	0.188
0.0201	8.46	0.169
0.0237	7.604	0.152
0.0272	6.933	0.139
0.0307	6.444	0.129
0.0342	5.928	0.119
0.0377	5.481	0.11

System: 2-methylpropan-2-ol + 2,6-di-tert-butylpyridine; phases: Liquid
Fixed: Temperature, K = 298.15
Fixed: Pressure, kPa = 101
Property: Molar enthalpy of solution, kJ/mol (Liquid); method: TITRC:UFactor:2
Mole fraction of 2-methylpropan-2-ol	Molar enthalpy of solution, kJ/mol	uncertainty
0.0018	16.063	0.321
0.0054	15.078	0.302
0.009	14.093	0.282
0.0125	13.223	0.265
0.016	12.419	0.248
0.0195	11.497	0.23
0.023	10.734	0.215
0.0264	10.092	0.202
0.0298	9.417	0.188
0.0332	8.809	0.176
0.0366	8.296	0.166
