Measured thermophysical data. Binary solid liquid gas equilibrium of the tripalmitin/CO2 and ubiquinone/CO2 systems
Source: Fluid Phase Equilib., 2006, 10.1016/j.fluid.2005.12.017
Compound 1: carbon dioxide, CO2, InChI=1S/CO2/c2-1-3
Compound 2: 1,2,3-propanetriyl tri(hexadecanoate), C51H98O6, InChI=1S/C51H98O6/c1-4-7-10-13-16-19-22-25-28-31-34-37-40-43-49(52)55-46-48(57-51(54)45-42-39-36-33-30-27-24-21-18-15-12-9-6-3)47-56-50(53)44-41-38-35-32-29-26-23-20-17-14-11-8-5-2/h48H,4-47H2,1-3H3
Compound 3: Coenzyme Q10, C59H90O4, InChI=1S/C59H90O4/c1-44(2)24-15-25-45(3)26-16-27-46(4)28-17-29-47(5)30-18-31-48(6)32-19-33-49(7)34-20-35-50(8)36-21-37-51(9)38-22-39-52(10)40-23-41-53(11)42-43-55-54(12)56(60)58(62-13)59(63-14)57(55)61/h24,26,28,30,32,34,36,38,40,42H,15-23,25,27,29,31,33,35,37,39,41,43H2,1-14H3/b45-26+,46-28+,47-30+,48-32+,49-34+,50-36+,51-38+,52-40+,53-42+

System: 1,2,3-propanetriyl tri(hexadecanoate); phases: Crystal, Liquid, Air at 1 atmosphere
Property: Molar enthalpy of transition or fusion, kJ/mol (Crystal); method: DSC
Molar enthalpy of transition or fusion, kJ/mol	uncertainty
121	2

System: 1,2,3-propanetriyl tri(hexadecanoate); phases: Crystal, Liquid, Air at 1 atmosphere
Property: Normal melting temperature, K (Crystal); method: DTA
Normal melting temperature, K	uncertainty
337.4	0.5

System: 1,2,3-propanetriyl tri(hexadecanoate); phases: Crystal
Property: Molar volume, m3/mol (Crystal); method: Pycnometric method
Temperature, K	Pressure, kPa	Molar volume, m3/mol	uncertainty
338.15	101.325	0.00087	1e-05

System: 1,2,3-propanetriyl tri(hexadecanoate); phases: Liquid
Property: Molar volume, m3/mol (Liquid); method: Pycnometric method
Temperature, K	Pressure, kPa	Molar volume, m3/mol	uncertainty
338.15	101.325	0.00093	1e-05

System: Coenzyme Q10; phases: Crystal, Liquid, Air at 1 atmosphere
Property: Molar enthalpy of transition or fusion, kJ/mol (Crystal); method: DSC
Molar enthalpy of transition or fusion, kJ/mol	uncertainty
82	2

System: Coenzyme Q10; phases: Crystal, Liquid, Air at 1 atmosphere
Property: Normal melting temperature, K (Crystal); method: DTA
Normal melting temperature, K	uncertainty
322.5	0.5

System: Coenzyme Q10; phases: Crystal
Property: Molar volume, m3/mol (Crystal); method: Pycnometric method
Temperature, K	Pressure, kPa	Molar volume, m3/mol	uncertainty
323.15	101.325	0.0009	1e-05

System: Coenzyme Q10; phases: Liquid
Property: Molar volume, m3/mol (Liquid); method: Pycnometric method
Temperature, K	Pressure, kPa	Molar volume, m3/mol	uncertainty
323.15	101.325	0.00095	1e-05

System: carbon dioxide + 1,2,3-propanetriyl tri(hexadecanoate); phases: Liquid, Gas, Crystal
Property: Vapor or sublimation pressure, kPa (Liquid); method: Closed cell (Static) method
Temperature, K	Vapor or sublimation pressure, kPa	uncertainty
0.1	337400	1300
1.98	334300	1300
3.19	332700	1300
4.61	329600	1300
5.96	327400	1200
7.39	326000	1200
8.7	323700	1200
9.28	322900	1200
10.87	322700	1200
13.65	322700	1200
16.15	322500	1200
18.29	322400	1200
19.67	322500	1200

System: carbon dioxide + Coenzyme Q10; phases: Liquid, Gas, Crystal
Property: Vapor or sublimation pressure, kPa (Liquid); method: Closed cell (Static) method
Temperature, K	Vapor or sublimation pressure, kPa	uncertainty
0.1	322500	1200
0.71	321500	1200
1.8	319400	1300
2.84	316000	1200
4.16	314200	1200
5.15	312700	1200
5.86	310300	1400
6.11	308400	1300
7.03	306300	1200
7.41	305400	1100
8.93	305800	1100
10.45	306200	1100
12.4	306300	1100
15	306700	1100
17.65	306900	1100
19.2	307200	1100
