Measured thermophysical data. Conductivity in MnSO4-saccharide-water solutions at 298.15 K
Source: Fluid Phase Equilib., 2013, 10.1016/j.fluid.2013.05.006
Compound 1: D-glucose, C6H12O6, InChI=1S/C6H12O6/c7-1-3(9)5(11)6(12)4(10)2-8/h1,3-6,8-12H,2H2/t3-,4+,5+,6+/m0/s1, purity 99%
Compound 2: (+)-galactose, C6H12O6, InChI=1S/C6H12O6/c7-1-3(9)5(11)6(12)4(10)2-8/h1,3-6,8-12H,2H2/t3-,4+,5+,6-/m0/s1, purity 99%
Compound 3: D-fructose, C6H12O6, InChI=1S/C6H12O6/c7-1-3(9)5(11)6(12)4(10)2-8/h3,5-9,11-12H,1-2H2/t3-,5-,6-/m1/s1, purity 99%
Compound 4: water, H2O, InChI=1S/H2O/h1H2, purity 99.8%
Compound 5: manganese(II) sulfate, MnO4S, InChI=1S/Mn.H2O4S/c;1-5(2,3)4/h;(H2,1,2,3,4)/q+2;/p-2, purity 99.97%

System: D-glucose + water; phases: Liquid
Fixed: Temperature, K = 298.15
Fixed: Pressure, kPa = 101.3
Property: Mass density, kg/m3 (Liquid); method: Vibrating tube method
Molality, mol/kg of D-glucose	Mass density, kg/m3	uncertainty
0.2	1010.37	0.07
0.4	1021.93	0.07
0.6	1033.5	0.08
0.8	1045.06	0.09
1	1056.63	0.09
1.2	1068.19	0.1

System: D-glucose + water; phases: Liquid
Fixed: Temperature, K = 298.15
Fixed: Pressure, kPa = 101.3
Property: Viscosity, Pa*s (Liquid); method: Capillary tube (Ostwald; Ubbelohde) method
Molality, mol/kg of D-glucose	Viscosity, Pa*s	uncertainty
0.2	0.000975	6e-06
0.4	0.001066	7e-06
0.6	0.001166	7e-06
0.8	0.001272	8e-06
1	0.001395	9e-06
1.2	0.001528	9e-06

System: (+)-galactose + water; phases: Liquid
Fixed: Temperature, K = 298.15
Fixed: Pressure, kPa = 101.3
Property: Mass density, kg/m3 (Liquid); method: Vibrating tube method
Molality, mol/kg of (+)-galactose	Mass density, kg/m3	uncertainty
0.2	1010.67	0.07
0.4	1023.68	0.08
0.6	1036.12	0.08
0.8	1048	0.09
1	1059.36	0.09
1.2	1070.22	0.1

System: (+)-galactose + water; phases: Liquid
Fixed: Temperature, K = 298.15
Fixed: Pressure, kPa = 101.3
Property: Viscosity, Pa*s (Liquid); method: Capillary tube (Ostwald; Ubbelohde) method
Molality, mol/kg of (+)-galactose	Viscosity, Pa*s	uncertainty
0.2	0.000973	6e-06
0.4	0.001062	7e-06
0.6	0.00116	7e-06
0.8	0.001268	8e-06
1	0.001384	9e-06
1.2	0.001511	9e-06

System: D-fructose + water; phases: Liquid
Fixed: Temperature, K = 298.15
Fixed: Pressure, kPa = 101.3
Property: Mass density, kg/m3 (Liquid); method: Vibrating tube method
Molality, mol/kg of D-fructose	Mass density, kg/m3	uncertainty
0.2	1010.62	0.07
0.4	1023.58	0.08
0.6	1035.94	0.08
0.8	1047.76	0.09
1	1059.08	0.09
1.2	1069.91	0.1

System: D-fructose + water; phases: Liquid
Fixed: Temperature, K = 298.15
Fixed: Pressure, kPa = 101.3
Property: Viscosity, Pa*s (Liquid); method: Capillary tube (Ostwald; Ubbelohde) method
Molality, mol/kg of D-fructose	Viscosity, Pa*s	uncertainty
0.2	0.000969	6e-06
0.4	0.001055	7e-06
0.6	0.00115	7e-06
0.8	0.001252	8e-06
1	0.001362	8e-06
1.2	0.001483	9e-06

System: D-glucose + water + manganese(II) sulfate; phases: Liquid
Fixed: Temperature, K = 298.15
Fixed: Pressure, kPa = 101
Property: Molar conductivity, S*m2/mol (Liquid); method: Alternating current cell with electrodes
Solvent: Molality, mol/kg of D-glucose	Amount concentration (molarity), mol/dm3 of manganese(II) sulfate	Molar conductivity, S*m2/mol	uncertainty
0.2	0.9683	0.01166	3e-05
0.2	2.1709	0.01131	3e-05
0.2	3.0781	0.01111	3e-05
0.2	3.9353	0.01094	3e-05
0.2	4.9562	0.01078	3e-05
0.2	6.0705	0.01062	3e-05
0.2	7.2263	0.01046	3e-05
0.4	1.0707	0.01058	3e-05
0.4	2.1603	0.01032	3e-05
0.4	3.1522	0.01009	3e-05
0.4	4.1561	0.00989	3e-05
0.4	5.1189	0.00973	3e-05
0.4	6.232	0.00956	2e-05
0.4	7.4206	0.00942	2e-05
0.6	1.0329	0.00987	3e-05
0.6	2.9503	0.00942	2e-05
0.6	3.9162	0.00925	2e-05
0.6	4.7711	0.00911	2e-05
0.6	5.7415	0.00898	2e-05
0.6	6.7806	0.00887	2e-05
0.6	8.2669	0.0087	2e-05
0.8	1.0604	0.00915	2e-05
0.8	2.2745	0.00885	2e-05
0.8	3.45	0.00863	2e-05
0.8	4.7996	0.00844	2e-05
0.8	6.2007	0.00826	2e-05
0.8	7.5889	0.0081	2e-05
0.8	8.8512	0.00798	2e-05
1	1.1792	0.00836	2e-05
1	2.258	0.00813	2e-05
1	3.3931	0.00794	2e-05
1	4.6285	0.00775	2e-05
1	6.1996	0.00758	2e-05
1	7.9762	0.00741	2e-05
1	9.6873	0.00726	2e-05
1.2	1.272	0.0077	2e-05
1.2	2.7125	0.0074	2e-05
1.2	4.0083	0.0072	2e-05
1.2	5.392	0.00702	2e-05
1.2	6.941	0.00687	2e-05
1.2	8.7032	0.00673	2e-05
1.2	10.65	0.0066	2e-05

System: (+)-galactose + water + manganese(II) sulfate; phases: Liquid
Fixed: Temperature, K = 298.15
Fixed: Pressure, kPa = 101
Property: Molar conductivity, S*m2/mol (Liquid); method: Alternating current cell with electrodes
Solvent: Molality, mol/kg of (+)-galactose	Amount concentration (molarity), mol/dm3 of manganese(II) sulfate	Molar conductivity, S*m2/mol	uncertainty
0.2	1.1913	0.01176	3e-05
0.2	2.0433	0.01152	3e-05
0.2	2.8272	0.01132	3e-05
0.2	3.6509	0.01114	3e-05
0.2	4.4521	0.011	3e-05
0.2	5.2803	0.01085	3e-05
0.2	6.0663	0.01073	3e-05
0.2	6.8339	0.01061	3e-05
0.2	7.6945	0.0105	3e-05
0.2	8.6354	0.01039	3e-05
0.4	0.8061	0.01103	3e-05
0.4	1.8939	0.01068	3e-05
0.4	2.8898	0.01044	3e-05
0.4	3.8663	0.01026	3e-05
0.4	4.5082	0.01014	3e-05
0.4	5.2837	0.01002	3e-05
0.4	6.3194	0.00987	3e-05
0.4	7.2241	0.00975	3e-05
0.4	8.2028	0.00962	2e-05
0.4	9.3976	0.00949	2e-05
0.6	1.0139	0.01007	3e-05
0.6	1.9413	0.00981	3e-05
0.6	2.8511	0.00961	2e-05
0.6	3.856	0.00942	2e-05
0.6	4.8174	0.00926	2e-05
0.6	5.7225	0.00913	2e-05
0.6	6.6239	0.00901	2e-05
0.6	7.5907	0.0089	2e-05
0.6	8.7936	0.00876	2e-05
0.6	10.0861	0.00863	2e-05
0.8	0.943	0.00933	2e-05
0.8	1.9829	0.00906	2e-05
0.8	2.9415	0.00885	2e-05
0.8	4.1797	0.00864	2e-05
0.8	5.0248	0.00851	2e-05
0.8	6.2597	0.00835	2e-05
0.8	7.3878	0.00823	2e-05
0.8	8.4328	0.00812	2e-05
0.8	9.6143	0.00801	2e-05
0.8	10.9705	0.00789	2e-05
1	0.9891	0.00862	2e-05
1	2.1455	0.00834	2e-05
1	3.152	0.00814	2e-05
1	4.258	0.00796	2e-05
1	5.417	0.00781	2e-05
1	6.6116	0.00767	2e-05
1	7.5786	0.00757	2e-05
1	8.8664	0.00744	2e-05
1	10.3303	0.00732	2e-05
1	11.53	0.00723	2e-05
1.2	1.6036	0.0078	2e-05
1.2	2.6692	0.00758	2e-05
1.2	3.7537	0.00741	2e-05
1.2	4.8374	0.00727	2e-05
1.2	6.7124	0.00705	2e-05
1.2	7.7152	0.00695	2e-05
1.2	8.8583	0.00686	2e-05
1.2	9.8463	0.00677	2e-05
1.2	11.0175	0.00669	2e-05
1.2	12.3275	0.0066	2e-05

System: D-fructose + water + manganese(II) sulfate; phases: Liquid
Fixed: Temperature, K = 298.15
Fixed: Pressure, kPa = 101
Property: Molar conductivity, S*m2/mol (Liquid); method: Alternating current cell with electrodes
Solvent: Molality, mol/kg of D-fructose	Amount concentration (molarity), mol/dm3 of manganese(II) sulfate	Molar conductivity, S*m2/mol	uncertainty
0.2	0.8784	0.01192	3e-05
0.2	1.7289	0.01164	3e-05
0.2	2.5831	0.0114	3e-05
0.2	3.3845	0.01123	3e-05
0.2	4.1045	0.01108	3e-05
0.2	4.7895	0.01098	3e-05
0.2	5.8086	0.01082	3e-05
0.2	6.5829	0.0107	3e-05
0.2	7.4602	0.01058	3e-05
0.2	8.5103	0.01044	3e-05
0.4	0.914	0.011	3e-05
0.4	1.9472	0.01061	3e-05
0.4	2.8539	0.01041	3e-05
0.4	3.7529	0.01024	3e-05
0.4	4.4154	0.01012	3e-05
0.4	5.3891	0.00998	3e-05
0.4	6.3755	0.00984	3e-05
0.4	7.2361	0.00973	3e-05
0.4	8.1339	0.00963	2e-05
0.4	9.248	0.0095	2e-05
0.6	1.0173	0.01016	3e-05
0.6	1.9505	0.00988	3e-05
0.6	2.8743	0.00968	2e-05
0.6	3.8143	0.0095	2e-05
0.6	4.8131	0.00934	2e-05
0.6	5.7955	0.00918	2e-05
0.6	6.723	0.00906	2e-05
0.6	7.774	0.00894	2e-05
0.6	8.9057	0.00881	2e-05
0.6	10.1393	0.00869	2e-05
0.8	1.0044	0.00944	2e-05
0.8	2.3425	0.00908	2e-05
0.8	3.4392	0.00887	2e-05
0.8	4.4969	0.00869	2e-05
0.8	5.5635	0.00854	2e-05
0.8	6.3567	0.00843	2e-05
0.8	7.2269	0.00831	2e-05
0.8	8.4287	0.00818	2e-05
0.8	9.5679	0.00807	2e-05
0.8	10.9354	0.00796	2e-05
1	1.0602	0.00872	2e-05
1	2.2653	0.00842	2e-05
1	3.4501	0.0082	2e-05
1	4.4644	0.00803	2e-05
1	5.6225	0.00787	2e-05
1	6.8059	0.00774	2e-05
1	7.8567	0.00762	2e-05
1	9.0463	0.00751	2e-05
1	10.3944	0.00739	2e-05
1	12.0478	0.00726	2e-05
1.2	1.0059	0.00806	2e-05
1.2	2.3671	0.00774	2e-05
1.2	3.9207	0.00748	2e-05
1.2	5.1583	0.00732	2e-05
1.2	6.336	0.00719	2e-05
1.2	7.7714	0.00704	2e-05
1.2	8.8733	0.00693	2e-05
1.2	10.2934	0.00682	2e-05
1.2	11.5855	0.00673	2e-05
1.2	13.3051	0.00661	2e-05
