Measured thermophysical data. Measurement and correlation of vapor liquid equilibria of binary systems containing the ionic liquids [EMIM][(CF3SO2)2N], [BMIM][(CF3SO2)2N], [MMIM][(CH3)2PO4] and oxygenated organic compounds respectively water
Source: Fluid Phase Equilib., 2005, 10.1016/j.fluid.2005.01.002
Compound 1: acetone, C3H6O, InChI=1S/C3H6O/c1-3(2)4/h1-2H3
Compound 2: propan-2-ol, C3H8O, InChI=1S/C3H8O/c1-3(2)4/h3-4H,1-2H3
Compound 3: tetrahydrofuran, C4H8O, InChI=1S/C4H8O/c1-2-4-5-3-1/h1-4H2
Compound 4: water, H2O, InChI=1S/H2O/h1H2
Compound 5: 1-ethyl-3-methylimidazolium bis((trifluoromethyl)sulfonyl)imide, C8H11F6N3O4S2, InChI=1S/C6H11N2.C2F6NO4S2/c1-3-8-5-4-7(2)6-8;3-1(4,5)14(10,11)9-15(12,13)2(6,7)8/h4-6H,3H2,1-2H3;/q+1;-1
Compound 6: 1-butyl-3-methylimidazolium bis(trifluoromethylsulfonyl)imide, C10H15F6N3O4S2, InChI=1S/C8H15N2.C2F6NO4S2/c1-3-4-5-10-7-6-9(2)8-10;3-1(4,5)14(10,11)9-15(12,13)2(6,7)8/h6-8H,3-5H2,1-2H3;/q+1;-1
Compound 7: ethanol, C2H6O, InChI=1S/C2H6O/c1-2-3/h3H,2H2,1H3
Compound 8: methanol, CH4O, InChI=1S/CH4O/c1-2/h2H,1H3
Compound 9: 1,3-dimethylimidazolium dimethylphosphate, C7H15N2O4P, InChI=1S/C5H9N2.C2H7O4P/c1-6-3-4-7(2)5-6;1-5-7(3,4)6-2/h3-5H,1-2H3;1-2H3,(H,3,4)/q+1;/p-1

System: acetone; phases: Liquid, Gas
Fixed: Temperature, K = 353.15
Property: Vapor or sublimation pressure, kPa (Liquid); method: CCELL:UFactor:2
Vapor or sublimation pressure, kPa	uncertainty
215.16	1.4
215.04	1.4
216.82	5.51

System: propan-2-ol; phases: Liquid, Gas
Fixed: Temperature, K = 353.15
Property: Vapor or sublimation pressure, kPa (Liquid); method: CCELL:UFactor:2
Vapor or sublimation pressure, kPa	uncertainty
92.26	0.62
91.99	0.61

System: tetrahydrofuran; phases: Liquid, Gas
Fixed: Temperature, K = 353.15
Property: Vapor or sublimation pressure, kPa (Liquid); method: CCELL:UFactor:2
Vapor or sublimation pressure, kPa	uncertainty
155.92	1.02
157.86	1.03

System: water; phases: Liquid, Gas
Fixed: Temperature, K = 353.15
Property: Vapor or sublimation pressure, kPa (Liquid); method: CCELL:UFactor:2
Vapor or sublimation pressure, kPa	uncertainty
47.37	0.58
47.82	0.58

System: ethanol; phases: Liquid, Gas
Property: Vapor or sublimation pressure, kPa (Liquid); method: CCELL:UFactor:2
Temperature, K	Vapor or sublimation pressure, kPa	uncertainty
353.15	109.08	0.72

System: methanol; phases: Liquid, Gas
Property: Vapor or sublimation pressure, kPa (Liquid); method: CCELL::UFactor:2
Temperature, K	Vapor or sublimation pressure, kPa	uncertainty
353.15	182.61	1.19

System: methanol + 1,3-dimethylimidazolium dimethylphosphate; phases: Liquid
Property: Activity coefficient of methanol (Liquid); method: Static method
Temperature, K	Mole fraction of methanol	Pressure, kPa	Activity coefficient of methanol	uncertainty
353.15	0	101.325	0.029	0.01

System: methanol + 1,3-dimethylimidazolium dimethylphosphate; phases: Liquid, Gas
Fixed: Temperature, K = 353.15
Property: Vapor or sublimation pressure, kPa (Liquid); method: CCELL:UFactor:2
Mole fraction of methanol	Vapor or sublimation pressure, kPa	uncertainty
0.107	0.66	0.05
0.172	1.27	0.06
0.243	1.92	0.06
0.305	2.89	0.06
0.375	3.92	0.07
0.494	7.26	0.08
0.58	12.08	0.11
0.658	19.13	0.15
0.715	29.97	0.22
0.762	45.75	0.32
0.803	65.18	0.45
0.836	85.44	0.58
0.862	104.28	0.7
0.883	120.14	0.8
0.883	120.13	0.8
0.883	120.13	0.8
0.89	129.65	0.86
0.92	147.35	0.97
0.944	160.66	1.05
0.962	169.12	1.11
0.975	174.63	1.14
0.985	178.13	1.16
0.992	180.57	1.18
0.996	181.46	1.18
0.997	181.96	1.19
0.998	182.14	1.19
0.999	182.38	1.19
1	182.61	1.19

System: ethanol + 1,3-dimethylimidazolium dimethylphosphate; phases: Liquid
Property: Activity coefficient of ethanol (Liquid); method: Static method
Temperature, K	Mole fraction of ethanol	Pressure, kPa	Activity coefficient of ethanol	uncertainty
353.15	0	101.325	0.115	0.01

System: ethanol + 1,3-dimethylimidazolium dimethylphosphate; phases: Liquid, Gas
Fixed: Temperature, K = 353.15
Property: Vapor or sublimation pressure, kPa (Liquid); method: CCELL:UFactor:2
Mole fraction of ethanol	Vapor or sublimation pressure, kPa	uncertainty
0.034	0.53	0.04
0.066	0.98	0.05
0.097	1.44	0.05
0.135	2.07	0.06
0.172	2.7	0.06
0.272	4.82	0.07
0.367	7.55	0.08
0.455	11.07	0.1
0.539	15.97	0.13
0.618	22.96	0.18
0.685	31.98	0.24
0.709	35.94	0.26
0.709	35.93	0.26
0.709	35.91	0.26
0.739	42.46	0.3
0.757	46.05	0.32
0.783	53.3	0.37
0.804	58.53	0.4
0.818	63.37	0.43
0.818	63.37	0.43
0.818	63.37	0.43
0.849	72.14	0.49
0.889	84.68	0.57
0.922	94.16	0.63
0.947	100.09	0.67
0.965	103.75	0.69
0.979	106.09	0.7
0.99	107.66	0.71
0.994	108.24	0.72
0.997	108.58	0.72
0.998	108.74	0.72
0.999	108.9	0.72
1	109.08	0.72

System: acetone + 1,3-dimethylimidazolium dimethylphosphate; phases: Liquid
Property: Activity coefficient of acetone (Liquid); method: Static method
Temperature, K	Mole fraction of acetone	Pressure, kPa	Activity coefficient of acetone	uncertainty
353.15	0	101.325	0.98	0.01

System: acetone + 1,3-dimethylimidazolium dimethylphosphate; phases: Liquid, Gas
Fixed: Temperature, K = 353.15
Property: Vapor or sublimation pressure, kPa (Liquid); method: CCELL:UFactor:8
Mole fraction of acetone	Vapor or sublimation pressure, kPa	uncertainty
0.046	10.11	0.38
0.08	19.13	0.6
0.127	28.27	0.83
0.164	37.47	1.06
0.193	46.11	1.27
0.308	80.35	2.12
0.388	112.72	2.93
0.462	142.77	3.67
0.535	169.57	4.34
0.602	190.77	4.86
0.634	205.92	5.24
0.634	205.82	5.24
0.634	205.73	5.23
0.684	212.47	5.4
0.733	214.98	5.46
0.78	215.99	5.49
0.823	215.99	5.49
0.868	215.85	5.48
0.896	215.74	5.48
0.917	215.65	5.48
0.933	215.56	5.48
0.946	215.48	5.47
0.969	216.68	5.5
0.992	215.47	5.47
0.993	216.74	5.5
0.995	215.45	5.47
0.996	216.84	5.51
0.997	215.47	5.47
0.998	216.9	5.5
0.998	215.43	5.47
0.999	216.93	5.51
1	216.82	5.51

System: tetrahydrofuran + 1,3-dimethylimidazolium dimethylphosphate; phases: Liquid
Property: Activity coefficient of tetrahydrofuran (Liquid); method: Static method
Temperature, K	Mole fraction of tetrahydrofuran	Pressure, kPa	Activity coefficient of tetrahydrofuran	uncertainty
353.15	0	101.325	3.21	0.05

System: tetrahydrofuran + 1,3-dimethylimidazolium dimethylphosphate; phases: Liquid, Gas
Fixed: Temperature, K = 353.15
Property: Vapor or sublimation pressure, kPa (Liquid); method: CCELL:UFactor:2
Mole fraction of tetrahydrofuran	Vapor or sublimation pressure, kPa	uncertainty
0.021	9.67	0.09
0.051	21.2	0.17
0.077	32.28	0.24
0.103	41.64	0.3
0.139	56.74	0.4
0.23	97.54	0.67
0.291	124.04	0.84
0.359	150.34	1.01
0.435	157.67	1.05
0.512	157.75	1.05
0.585	157.78	1.05
0.634	157.88	1.04
0.634	157.87	1.04
0.634	157.87	1.04
0.651	157.8	1.04
0.689	157.85	1.04
0.705	157.82	1.04
0.745	157.85	1.04
0.75	157.83	1.04
0.75	157.82	1.04
0.75	157.81	1.04
0.8	157.84	1.04
0.85	157.83	1.04
0.893	157.83	1.04
0.926	157.82	1.04
0.951	157.83	1.03
0.97	157.84	1.03
0.984	157.85	1.03
0.992	157.84	1.03
0.995	157.84	1.03
0.997	157.83	1.03
0.998	157.84	1.03
1	157.86	1.03

System: water + 1,3-dimethylimidazolium dimethylphosphate; phases: Liquid
Property: Activity coefficient of water (Liquid); method: Static method
Temperature, K	Mole fraction of water	Pressure, kPa	Activity coefficient of water	uncertainty
353.15	0	101.325	0.028	0.01

System: water + 1,3-dimethylimidazolium dimethylphosphate; phases: Liquid, Gas
Fixed: Temperature, K = 353.15
Property: Vapor or sublimation pressure, kPa (Liquid); method: CCELL:UFactor:2
Mole fraction of water	Vapor or sublimation pressure, kPa	uncertainty
0.037	0.09	0.04
0.078	0.14	0.04
0.113	0.2	0.04
0.182	0.33	0.04
0.273	0.59	0.05
0.432	1.57	0.06
0.555	3.45	0.07
0.656	6.74	0.09
0.738	11.56	0.14
0.804	17.78	0.21
0.851	24.19	0.28
0.885	29.84	0.35
0.886	30.72	0.36
0.909	34.41	0.4
0.91	34.28	0.4
0.927	37.59	0.44
0.929	37.99	0.45
0.947	41.07	0.49
0.962	43.45	0.52
0.974	45.09	0.54
0.983	46.16	0.56
0.989	46.71	0.57
0.993	47.24	0.57
0.996	47.48	0.58
0.998	47.75	0.58
0.999	47.77	0.58
0.999	47.78	0.58
0.999	47.81	0.58
1	47.82	0.58

System: acetone + 1-ethyl-3-methylimidazolium bis((trifluoromethyl)sulfonyl)imide; phases: Liquid
Property: Activity coefficient of acetone (Liquid); method: Static method
Temperature, K	Mole fraction of acetone	Pressure, kPa	Activity coefficient of acetone	uncertainty
353.15	0	101.325	0.438	0.01

System: acetone + 1-ethyl-3-methylimidazolium bis((trifluoromethyl)sulfonyl)imide; phases: Liquid, Gas
Fixed: Temperature, K = 353.15
Property: Vapor or sublimation pressure, kPa (Liquid); method: CCELL:UFactor:2
Mole fraction of acetone	Vapor or sublimation pressure, kPa	uncertainty
0.013	1.14	0.05
0.038	3.48	0.06
0.054	4.83	0.07
0.068	6.07	0.08
0.095	8.51	0.09
0.152	14.88	0.13
0.208	21.66	0.17
0.273	30.11	0.23
0.339	39.81	0.29
0.402	50.26	0.36
0.465	61.86	0.43
0.525	74.28	0.51
0.584	87.87	0.6
0.637	101.46	0.68
0.685	114.73	0.77
0.726	127.22	0.84
0.763	138.75	0.92
0.795	149.16	0.98
0.822	158.37	1.04
0.846	166.29	1.09
0.865	173.07	1.13
0.897	183.74	1.2
0.938	196.92	1.28
0.967	205.8	1.34
0.984	210.74	1.37
0.993	213.25	1.39
0.997	214.4	1.39
0.999	214.94	1.4
1	215.16	1.4

System: propan-2-ol + 1-ethyl-3-methylimidazolium bis((trifluoromethyl)sulfonyl)imide; phases: Liquid
Property: Activity coefficient of propan-2-ol (Liquid); method: Static method
Temperature, K	Mole fraction of propan-2-ol	Pressure, kPa	Activity coefficient of propan-2-ol	uncertainty
353.15	0	101.325	1.42	0.02

System: propan-2-ol + 1-ethyl-3-methylimidazolium bis((trifluoromethyl)sulfonyl)imide; phases: Liquid, Gas
Fixed: Temperature, K = 353.15
Property: Vapor or sublimation pressure, kPa (Liquid); method: CCELL:UFactor:2
Mole fraction of propan-2-ol	Vapor or sublimation pressure, kPa	uncertainty
0.012	1.73	0.06
0.024	3.21	0.06
0.036	4.84	0.07
0.049	6.5	0.08
0.061	8.08	0.09
0.095	12.54	0.11
0.135	17.88	0.15
0.185	24.43	0.19
0.239	31.42	0.23
0.295	38.61	0.28
0.354	45.94	0.33
0.412	52.86	0.37
0.475	59.81	0.42
0.533	65.84	0.45
0.587	70.9	0.49
0.636	74.96	0.51
0.679	78.22	0.53
0.718	80.81	0.55
0.74	82.08	0.56
0.752	82.82	0.56
0.782	84.38	0.57
0.802	85.29	0.58
0.809	85.62	0.58
0.859	87.57	0.59
0.904	89.04	0.6
0.936	89.96	0.6
0.96	90.64	0.61
0.975	91.14	0.61
0.986	91.52	0.61
0.992	91.86	0.61
0.996	92.05	0.62
0.998	92.16	0.62
0.999	92.21	0.62
1	92.26	0.62

System: tetrahydrofuran + 1-ethyl-3-methylimidazolium bis((trifluoromethyl)sulfonyl)imide; phases: Liquid
Property: Activity coefficient of tetrahydrofuran (Liquid); method: Static method
Temperature, K	Mole fraction of tetrahydrofuran	Pressure, kPa	Activity coefficient of tetrahydrofuran	uncertainty
353.15	0	101.325	0.8	0.01

System: tetrahydrofuran + 1-ethyl-3-methylimidazolium bis((trifluoromethyl)sulfonyl)imide; phases: Liquid, Gas
Fixed: Temperature, K = 353.15
Property: Vapor or sublimation pressure, kPa (Liquid); method: CCELL:UFactor:2
Mole fraction of tetrahydrofuran	Vapor or sublimation pressure, kPa	uncertainty
0.013	1.94	0.06
0.026	3.69	0.06
0.039	5.45	0.07
0.054	7.43	0.08
0.074	10.06	0.1
0.11	15.11	0.13
0.149	20.67	0.16
0.198	27.9	0.21
0.248	35.53	0.26
0.301	43.78	0.31
0.356	52.68	0.37
0.411	62.01	0.43
0.471	72.37	0.5
0.527	82.5	0.56
0.585	93.14	0.63
0.64	103.66	0.7
0.691	113.37	0.76
0.722	118.9	0.79
0.735	121.58	0.81
0.776	129.09	0.86
0.778	129.13	0.86
0.813	135.47	0.9
0.834	138.7	0.92
0.844	140.56	0.93
0.88	145.35	0.96
0.916	149.59	0.98
0.947	152.31	1
0.964	153.53	1.01
0.974	154.16	1.01
0.983	154.64	1.01
0.988	154.97	1.02
0.992	155.23	1.02
0.995	155.47	1.02
0.997	155.64	1.02
0.999	155.76	1.02
0.999	155.83	1.02
1	155.92	1.02

System: water + 1-ethyl-3-methylimidazolium bis((trifluoromethyl)sulfonyl)imide; phases: Liquid
Property: Activity coefficient of water (Liquid); method: Static method
Temperature, K	Mole fraction of water	Pressure, kPa	Activity coefficient of water	uncertainty
353.15	0	101.325	2.32	0.04

System: water + 1-ethyl-3-methylimidazolium bis((trifluoromethyl)sulfonyl)imide; phases: Liquid, Gas
Fixed: Temperature, K = 353.15
Property: Vapor or sublimation pressure, kPa (Liquid); method: CCELL:UFactor:2
Mole fraction of water	Vapor or sublimation pressure, kPa	uncertainty
0.029	3.19	0.06
0.06	6.45	0.08
0.089	9.54	0.1
0.145	15.3	0.14
0.193	20.15	0.17
0.27	27.38	0.23
0.351	34.27	0.3
0.439	40.72	0.36
0.52	45.5	0.42
0.596	47.33	0.46
0.66	47.35	0.48
0.716	47.35	0.49
0.768	47.36	0.51
0.81	47.36	0.52
0.843	47.36	0.53
0.87	47.36	0.54
0.892	47.37	0.54
0.91	47.37	0.55
0.924	47.38	0.55
0.935	47.38	0.56
0.945	47.39	0.56
0.967	47.38	0.57
0.98	47.38	0.57
0.989	47.37	0.57
0.994	47.38	0.57
1	47.37	0.58

System: acetone + 1-butyl-3-methylimidazolium bis(trifluoromethylsulfonyl)imide; phases: Liquid
Property: Activity coefficient of acetone (Liquid); method: Static method
Temperature, K	Mole fraction of acetone	Pressure, kPa	Activity coefficient of acetone	uncertainty
353.15	0	101.325	0.406	0.01

System: acetone + 1-butyl-3-methylimidazolium bis(trifluoromethylsulfonyl)imide; phases: Liquid, Gas
Fixed: Temperature, K = 353.15
Property: Vapor or sublimation pressure, kPa (Liquid); method: CCELL:UFactor:2
Mole fraction of acetone	Vapor or sublimation pressure, kPa	uncertainty
0.056	4.92	0.07
0.089	7.27	0.08
0.146	12.82	0.11
0.196	18.59	0.15
0.241	24.18	0.19
0.34	36.46	0.27
0.422	49.81	0.35
0.504	65.45	0.45
0.575	80.91	0.55
0.638	96.67	0.65
0.693	112.26	0.75
0.741	126.6	0.84
0.783	140.78	0.93
0.819	153.05	1.01
0.848	163.69	1.07
0.865	170.13	1.12
0.872	172.53	1.13
0.892	179.77	1.18
0.907	185.16	1.21
0.909	185.73	1.21
0.922	190.54	1.24
0.934	194.48	1.27
0.941	196.86	1.28
0.943	197.64	1.29
0.95	199.85	1.3
0.955	201.6	1.31
0.973	207	1.35
0.99	211.93	1.38
0.996	213.96	1.39
0.999	214.72	1.4
1	215.04	1.4

System: propan-2-ol + 1-butyl-3-methylimidazolium bis(trifluoromethylsulfonyl)imide; phases: Liquid
Property: Activity coefficient of propan-2-ol (Liquid); method: Static method
Temperature, K	Mole fraction of propan-2-ol	Pressure, kPa	Activity coefficient of propan-2-ol	uncertainty
353.15	0	101.325	1.1	0.01

System: propan-2-ol + 1-butyl-3-methylimidazolium bis(trifluoromethylsulfonyl)imide; phases: Liquid, Gas
Fixed: Temperature, K = 353.15
Property: Vapor or sublimation pressure, kPa (Liquid); method: CCELL:UFactor:2
Mole fraction of propan-2-ol	Vapor or sublimation pressure, kPa	uncertainty
0.037	3.85	0.06
0.074	7.25	0.08
0.115	11.58	0.11
0.149	15.65	0.13
0.18	19.24	0.16
0.262	28.28	0.21
0.34	37.42	0.27
0.424	47.22	0.34
0.505	56.32	0.39
0.58	64.08	0.44
0.644	70.28	0.48
0.699	75.21	0.51
0.75	79.2	0.54
0.792	82.15	0.56
0.827	84.29	0.57
0.856	85.84	0.58
0.862	86.25	0.58
0.879	86.98	0.58
0.898	87.83	0.59
0.905	88.12	0.59
0.914	88.52	0.59
0.927	89	0.6
0.937	89.41	0.6
0.94	89.44	0.6
0.945	89.72	0.6
0.951	89.93	0.6
0.957	90.16	0.6
0.972	90.6	0.61
0.989	91.33	0.61
0.996	91.71	0.61
0.999	91.92	0.61
1	91.99	0.61

System: water + 1-butyl-3-methylimidazolium bis(trifluoromethylsulfonyl)imide; phases: Liquid
Property: Activity coefficient of water (Liquid); method: Static method
Temperature, K	Mole fraction of water	Pressure, kPa	Activity coefficient of water	uncertainty
353.15	0	101.325	2.27	0.03

System: water + 1-butyl-3-methylimidazolium bis(trifluoromethylsulfonyl)imide; phases: Liquid, Gas
Fixed: Temperature, K = 353.15
Property: Vapor or sublimation pressure, kPa (Liquid); method: CCELL:UFactor:2
Mole fraction of water	Vapor or sublimation pressure, kPa	uncertainty
0.049	5.32	0.07
0.097	10.18	0.1
0.192	20.07	0.17
0.264	27	0.23
0.341	34.49	0.3
0.458	43.68	0.39
0.563	46.31	0.44
0.657	46.66	0.47
0.733	46.82	0.49
0.793	46.94	0.51
0.839	47	0.52
0.874	47.05	0.53
0.902	47.07	0.54
0.923	47.09	0.55
0.939	47.11	0.55
0.95	47.12	0.56
0.96	47.13	0.56
0.967	47.15	0.56
0.972	47.15	0.56
0.977	47.16	0.57
