Measured thermophysical data. High-pressure liquid densities of fatty acid methyl esters: Measurement and prediction with the PC-SAFT equation of state
Source: Fluid Phase Equilib., 2018, 10.1016/j.fluid.2018.04.024
Compound 1: methyl butanoate, C5H10O2, InChI=1S/C5H10O2/c1-3-4-5(6)7-2/h3-4H2,1-2H3, purity 99%
Compound 2: methyl pentanoate, C6H12O2, InChI=1S/C6H12O2/c1-3-4-5-6(7)8-2/h3-5H2,1-2H3, purity 99%
Compound 3: methyl hexanoate, C7H14O2, InChI=1S/C7H14O2/c1-3-4-5-6-7(8)9-2/h3-6H2,1-2H3, purity 99%
Compound 4: methyl heptanoate, C8H16O2, InChI=1S/C8H16O2/c1-3-4-5-6-7-8(9)10-2/h3-7H2,1-2H3, purity 99%
Compound 5: methyl octanoate, C9H18O2, InChI=1S/C9H18O2/c1-3-4-5-6-7-8-9(10)11-2/h3-8H2,1-2H3, purity 99%
Compound 6: methyl nonanoate, C10H20O2, InChI=1S/C10H20O2/c1-3-4-5-6-7-8-9-10(11)12-2/h3-9H2,1-2H3, purity 99%

System: methyl butanoate; phases: Liquid
Property: Mass density, kg/m3 (Liquid); method: Vibrating tube method
Temperature, K	Pressure, kPa	Mass density, kg/m3	uncertainty
293.15	100	898.42	0.92
293.15	1000	898.68	0.92
293.15	3000	900.65	0.93
293.15	5000	902.15	0.93
293.15	10000	906.55	0.94
293.15	15000	910.63	0.95
293.15	20000	914.51	0.95
293.15	25000	918.33	0.96
293.15	30000	921.95	0.97
293.15	35000	925.38	0.97
293.15	40000	928.67	0.98
293.15	50000	935.38	0.99
293.15	60000	941.12	1
303.15	100	886.68	0.91
303.15	1000	887.75	0.91
303.15	3000	889.67	0.92
303.15	5000	891.54	0.92
303.15	10000	895.99	0.93
303.15	15000	900.35	0.94
303.15	20000	904.45	0.95
303.15	25000	908.4	1
303.15	30000	912.18	0.96
303.15	35000	915.86	0.97
303.15	40000	919.34	0.98
303.15	50000	926.18	0.99
303.15	60000	932.54	1
313.15	100	875.83	0.9
313.15	1000	876.3	0.9
313.15	3000	878.42	0.91
313.15	5000	880.45	0.91
313.15	10000	885.34	0.92
313.15	15000	889.92	0.93
313.15	20000	894.25	0.94
313.15	25000	898.53	0.95
313.15	30000	902.47	0.96
313.15	35000	906.46	0.96
313.15	40000	910.02	0.97
313.15	50000	917.24	0.98
313.15	60000	923.73	1
323.15	100	864.35	0.89
323.15	1000	865.42	0.89
323.15	3000	867.62	0.9
323.15	5000	869.76	0.9
323.15	10000	875.02	0.91
323.15	15000	879.93	0.92
323.15	20000	884.63	0.93
323.15	25000	888.92	0.94
323.15	30000	893.19	0.95
323.15	35000	897.21	0.96
323.15	40000	901.15	0.97
323.15	50000	908.62	0.98
323.15	60000	915.65	1
333.15	100	853.11	0.88
333.15	1000	854.08	0.88
333.15	3000	856.55	0.89
333.15	5000	858.82	0.89
333.15	10000	864.28	0.9
333.15	15000	869.44	0.91
333.15	20000	874.46	0.93
333.15	25000	879.2	0.9
333.15	30000	883.56	0.95
333.15	35000	887.79	0.95
333.15	40000	892.1	0.96
333.15	50000	899.8	0.98
333.15	60000	906.96	0.99
343.15	100	841.05	0.87
343.15	1000	842.4	0.9
343.15	3000	844.95	0.88
343.15	5000	847.57	0.88
343.15	10000	853.35	0.89
343.15	15000	858.9	0.9
343.15	20000	864.31	0.92
343.15	25000	869.1	0.9
343.15	30000	873.89	0.94
343.15	35000	878.44	0.95
343.15	40000	882.65	0.96
343.15	50000	890.89	0.98
343.15	60000	898.16	0.99
353.15	100	829.58	0.86
353.15	1000	830.8	0.9
353.15	3000	833.71	0.87
353.15	5000	836.31	0.87
353.15	10000	842.65	0.89
353.15	15000	848.71	0.9
353.15	20000	854.19	0.91
353.15	25000	859.51	0.92
353.15	30000	864.51	0.94
353.15	35000	869.35	0.95
353.15	40000	873.76	0.96
353.15	50000	882.24	0.98
353.15	60000	890.18	1
363.15	100	817.31	0.85
363.15	1000	818.87	0.85
363.15	3000	821.94	0.86
363.15	5000	824.91	0.86
363.15	10000	831.48	0.88
363.15	15000	838.19	0.89
363.15	20000	843.84	0.91
363.15	25000	849.26	0.92
363.15	30000	854.68	0.93
363.15	35000	859.76	0.94
363.15	40000	864.61	0.95
363.15	50000	873.56	0.98
363.15	60000	881.85	1

System: methyl pentanoate; phases: Liquid
Property: Mass density, kg/m3 (Liquid); method: Vibrating tube method
Temperature, K	Pressure, kPa	Mass density, kg/m3	uncertainty
293.15	100	890.18	0.92
293.15	1000	890.39	0.92
293.15	3000	892.23	0.92
293.15	5000	893.59	0.92
293.15	10000	897.77	0.93
293.15	15000	901.59	0.94
293.15	20000	905.28	0.95
293.15	25000	908.91	0.95
293.15	30000	912.4	0.96
293.15	35000	915.63	0.97
293.15	40000	918.78	0.97
293.15	50000	925.12	0.99
293.15	60000	930.63	1
303.15	100	879.57	0.91
303.15	1000	880.52	0.91
303.15	3000	882.29	0.91
303.15	5000	884.05	0.91
303.15	10000	888.3	0.92
303.15	15000	892.37	0.93
303.15	20000	896.14	0.94
303.15	25000	899.89	0.95
303.15	30000	903.55	0.96
303.15	35000	906.97	0.96
303.15	40000	910.27	0.97
303.15	50000	916.73	0.98
303.15	60000	922.74	1
313.15	100	869.49	0.9
313.15	1000	869.89	0.9
313.15	3000	871.87	0.9
313.15	5000	873.76	0.91
313.15	10000	878.33	0.92
313.15	15000	882.44	0.92
313.15	20000	886.62	0.93
313.15	25000	890.61	0.94
313.15	30000	894.38	0.95
313.15	35000	898.09	0.96
313.15	40000	901.45	0.97
313.15	50000	908.24	0.98
313.15	60000	914.32	1
323.15	100	858.83	0.89
323.15	1000	859.81	0.89
323.15	3000	861.81	0.89
323.15	5000	863.85	0.9
323.15	10000	868.67	0.91
323.15	15000	873.18	0.92
323.15	20000	877.67	0.93
323.15	25000	881.64	0.94
323.15	30000	885.65	0.95
323.15	35000	889.44	0.96
323.15	40000	893.13	0.96
323.15	50000	900.12	0.98
323.15	60000	906.77	0.99
333.15	100	848.52	0.88
333.15	1000	849.45	0.88
333.15	3000	851.71	0.88
333.15	5000	853.79	0.89
333.15	10000	858.86	0.9
333.15	15000	863.66	0.91
333.15	20000	868.26	0.92
333.15	25000	872.72	0.93
333.15	30000	876.79	0.94
333.15	35000	880.79	0.95
333.15	40000	884.78	0.96
333.15	50000	892.02	0.98
333.15	60000	898.8	0.99
343.15	100	837.8	0.87
343.15	1000	839.04	0.87
343.15	3000	841.41	0.87
343.15	5000	843.76	0.88
343.15	10000	849.05	0.89
343.15	15000	854.23	0.9
343.15	20000	859.25	0.91
343.15	25000	863.69	0.93
343.15	30000	868.17	0.94
343.15	35000	872.41	0.95
343.15	40000	876.28	0.96
343.15	50000	884.03	0.98
343.15	60000	890.84	0.99
353.15	100	827.35	0.86
353.15	1000	828.43	0.86
353.15	3000	831.13	0.86
353.15	5000	833.48	0.87
353.15	10000	839.27	0.88
353.15	15000	844.84	0.9
353.15	20000	849.86	0.91
353.15	25000	854.79	0.92
353.15	30000	859.45	0.93
353.15	35000	863.9	0.94
353.15	40000	868	0.96
353.15	50000	875.94	0.98
353.15	60000	883.37	1
363.15	100	816.63	0.85
363.15	1000	817.89	0.85
363.15	3000	820.7	0.86
363.15	5000	823.32	0.86
363.15	10000	829.23	0.88
363.15	15000	835.46	0.89
363.15	20000	840.59	0.9
363.15	25000	845.61	0.92
363.15	30000	850.57	0.93
363.15	35000	855.31	0.94
363.15	40000	859.8	0.95
363.15	50000	868.09	0.98
363.15	60000	875.9	1

System: methyl hexanoate; phases: Liquid
Property: Mass density, kg/m3 (Liquid); method: Vibrating tube method
Temperature, K	Pressure, kPa	Mass density, kg/m3	uncertainty
293.15	100	884.48	0.91
293.15	1000	884.65	0.91
293.15	3000	886.42	0.91
293.15	5000	887.67	0.92
293.15	10000	891.64	0.93
293.15	15000	895.33	0.93
293.15	20000	898.81	0.94
293.15	25000	902.28	0.95
293.15	30000	905.55	0.96
293.15	35000	908.69	0.96
293.15	40000	911.73	0.97
293.15	50000	917.83	0.98
293.15	60000	923.06	1
303.15	100	874.56	0.9
303.15	1000	875.42	0.9
303.15	3000	877.13	0.91
303.15	5000	878.76	0.91
303.15	10000	882.75	0.92
303.15	15000	886.63	0.93
303.15	20000	890.21	0.94
303.15	25000	893.78	0.94
303.15	30000	897.24	0.95
303.15	35000	900.52	0.96
303.15	40000	903.67	0.97
303.15	50000	909.79	0.98
303.15	60000	915.57	1
313.15	100	865.26	0.89
313.15	1000	865.64	0.89
313.15	3000	867.5	0.9
313.15	5000	869.26	0.9
313.15	10000	873.55	0.91
313.15	15000	877.59	0.92
313.15	20000	881.48	0.93
313.15	25000	885.29	0.94
313.15	30000	888.86	0.95
313.15	35000	892.33	0.96
313.15	40000	895.54	0.96
313.15	50000	901.99	0.98
313.15	60000	907.83	0.99
323.15	100	855.18	0.88
323.15	1000	856.16	0.88
323.15	3000	858.01	0.89
323.15	5000	859.89	0.89
323.15	10000	864.44	0.9
323.15	15000	868.76	0.91
323.15	20000	872.98	0.92
323.15	25000	876.76	0.93
323.15	30000	880.55	0.94
323.15	35000	884.15	0.95
323.15	40000	887.68	0.96
323.15	50000	894.33	0.98
323.15	60000	900.65	0.99
333.15	100	845.43	0.87
333.15	1000	846.26	0.88
333.15	3000	848.43	0.88
333.15	5000	850.38	0.88
333.15	10000	855.15	0.9
333.15	15000	859.63	0.91
333.15	20000	864	0.92
333.15	25000	868.18	0.93
333.15	30000	871.99	0.94
333.15	35000	875.8	0.95
333.15	40000	879.63	0.96
333.15	50000	886.48	0.98
333.15	60000	892.97	0.99
343.15	100	835.2	0.86
343.15	1000	836.39	0.87
343.15	3000	838.54	0.87
343.15	5000	840.78	0.88
343.15	10000	845.7	0.89
343.15	15000	850.49	0.9
343.15	20000	855.28	0.91
343.15	25000	859.46	0.92
343.15	30000	863.7	0.93
343.15	35000	867.75	0.95
343.15	40000	871.46	0.96
343.15	50000	878.77	0.98
343.15	60000	885.3	1
353.15	100	825.57	0.85
353.15	1000	826.5	0.86
353.15	3000	828.96	0.86
353.15	5000	831.13	0.87
353.15	10000	836.55	0.88
353.15	15000	841.75	0.89
353.15	20000	846.44	0.91
353.15	25000	851.08	0.92
353.15	30000	855.46	0.93
353.15	35000	859.68	0.94
353.15	40000	863.59	0.95
353.15	50000	871.08	0.98
353.15	60000	878.16	1
363.15	100	815.64	0.85
363.15	1000	816.87	0.85
363.15	3000	819.47	0.85
363.15	5000	821.87	0.86
363.15	10000	827.32	0.87
363.15	15000	833.11	0.89
363.15	20000	837.93	0.9
363.15	25000	842.64	0.91
363.15	30000	847.27	0.93
363.15	35000	851.7	0.94
363.15	40000	856.02	0.95
363.15	50000	863.88	0.98
363.15	60000	871.24	1

System: methyl heptanoate; phases: Liquid
Property: Mass density, kg/m3 (Liquid); method: Vibrating tube method
Temperature, K	Pressure, kPa	Mass density, kg/m3	uncertainty
293.15	100	880.16	0.91
293.15	1000	880.29	0.91
293.15	3000	881.98	0.91
293.15	5000	883.19	0.91
293.15	10000	886.99	0.92
293.15	15000	890.49	0.93
293.15	20000	893.86	0.94
293.15	25000	897.18	0.95
293.15	30000	900.36	0.95
293.15	35000	903.34	0.96
293.15	40000	906.22	0.97
293.15	50000	912.14	0.98
293.15	60000	917.16	1
303.15	100	870.66	0.9
303.15	1000	871.46	0.9
303.15	3000	873.07	0.9
303.15	5000	874.66	0.91
303.15	10000	878.5	0.92
303.15	15000	882.18	0.92
303.15	20000	885.64	0.93
303.15	25000	889.08	0.94
303.15	30000	892.3	0.95
303.15	35000	895.46	0.96
303.15	40000	898.49	0.97
303.15	50000	904.43	0.98
303.15	60000	909.95	0.99
313.15	100	861.82	0.89
313.15	1000	862.16	0.89
313.15	3000	863.9	0.89
313.15	5000	865.62	0.9
313.15	10000	869.71	0.91
313.15	15000	873.55	0.92
313.15	20000	877.29	0.93
313.15	25000	880.89	0.94
313.15	30000	884.32	0.95
313.15	35000	887.66	0.95
313.15	40000	890.73	0.96
313.15	50000	896.98	0.98
313.15	60000	902.59	0.99
323.15	100	852.25	0.88
323.15	1000	853.12	0.88
323.15	3000	854.89	0.89
323.15	5000	856.64	0.89
323.15	10000	860.97	0.9
323.15	15000	865.07	0.91
323.15	20000	869.08	0.92
323.15	25000	872.69	0.93
323.15	30000	876.31	0.94
323.15	35000	879.74	0.95
323.15	40000	883.15	0.96
323.15	50000	889.53	0.98
323.15	60000	895.63	0.99
333.15	100	843.03	0.87
333.15	1000	843.81	0.87
333.15	3000	845.84	0.88
333.15	5000	847.68	0.88
333.15	10000	852.16	0.89
333.15	15000	856.43	0.9
333.15	20000	860.63	0.92
333.15	25000	864.64	0.93
333.15	30000	868.31	0.94
333.15	35000	871.91	0.95
333.15	40000	875.61	0.96
333.15	50000	882.2	0.98
333.15	60000	888.39	1
343.15	100	833.48	0.86
343.15	1000	834.64	0.86
343.15	3000	836.7	0.87
343.15	5000	838.79	0.87
343.15	10000	843.47	0.89
343.15	15000	848.02	0.9
343.15	20000	852.59	0.91
343.15	25000	856.55	0.92
343.15	30000	860.57	0.93
343.15	35000	864.43	0.94
343.15	40000	867.96	0.96
343.15	50000	875	0.98
343.15	60000	881.19	1
353.15	100	824.35	0.85
353.15	1000	825.27	0.86
353.15	3000	827.61	0.86
353.15	5000	829.66	0.87
353.15	10000	834.76	0.88
353.15	15000	839.63	0.89
353.15	20000	844.11	0.9
353.15	25000	848.48	0.92
353.15	30000	852.65	0.93
353.15	35000	856.65	0.94
353.15	40000	860.37	0.95
353.15	50000	867.57	0.98
353.15	60000	874.32	1
363.15	100	815.19	0.84
363.15	1000	816.36	0.85
363.15	3000	818.75	0.85
363.15	5000	821	0.86
363.15	10000	826.14	0.87
363.15	15000	831.57	0.89
363.15	20000	836.11	0.9
363.15	25000	840.56	0.91
363.15	30000	845.01	0.93
363.15	35000	849.23	0.94
363.15	40000	853.33	0.95
363.15	50000	860.82	0.98
363.15	60000	867.91	1

System: methyl octanoate; phases: Liquid
Property: Mass density, kg/m3 (Liquid); method: Vibrating tube method
Temperature, K	Pressure, kPa	Mass density, kg/m3	uncertainty
293.15	100	876.9	0.9
293.15	1000	877.02	0.9
293.15	3000	878.65	0.91
293.15	5000	879.78	0.91
293.15	10000	883.45	0.92
293.15	15000	886.82	0.93
293.15	20000	890.07	0.94
293.15	25000	893.28	0.94
293.15	30000	896.35	0.95
293.15	35000	899.25	0.96
293.15	40000	902.05	0.97
293.15	50000	907.81	0.98
293.15	60000	912.62	0.99
303.15	100	867.63	0.89
303.15	1000	868.42	0.9
303.15	3000	869.93	0.9
303.15	5000	871.47	0.9
303.15	10000	875.12	0.91
303.15	15000	878.71	0.92
303.15	20000	882.04	0.93
303.15	25000	885.35	0.94
303.15	30000	888.57	0.95
303.15	35000	891.59	0.96
303.15	40000	894.49	0.96
303.15	50000	900.27	0.98
303.15	60000	905.64	0.99
313.15	100	859.3	0.89
313.15	1000	859.59	0.89
313.15	3000	861.28	0.89
313.15	5000	862.89	0.9
313.15	10000	866.8	0.91
313.15	15000	870.52	0.92
313.15	20000	874.1	0.92
313.15	25000	877.59	0.93
313.15	30000	880.87	0.94
313.15	35000	884.11	0.95
313.15	40000	887.04	0.96
313.15	50000	893.07	0.98
313.15	60000	898.5	0.99
323.15	100	850.11	0.88
323.15	1000	850.91	0.88
323.15	3000	852.59	0.88
323.15	5000	854.3	0.89
323.15	10000	858.46	0.9
323.15	15000	862.36	0.91
323.15	20000	866.24	0.92
323.15	25000	869.67	0.93
323.15	30000	873.15	0.94
323.15	35000	876.46	0.95
323.15	40000	879.75	0.96
323.15	50000	885.93	0.98
323.15	60000	891.84	0.99
333.15	100	841.41	0.87
333.15	1000	842.13	0.87
333.15	3000	844.08	0.88
333.15	5000	845.82	0.88
333.15	10000	850.11	0.89
333.15	15000	854.18	0.9
333.15	20000	858.22	0.91
333.15	25000	862.06	0.92
333.15	30000	865.57	0.94
333.15	35000	869.05	0.95
333.15	40000	872.61	0.96
333.15	50000	878.98	0.98
333.15	60000	884.95	1
343.15	100	832.2	0.86
343.15	1000	833.32	0.86
343.15	3000	835.25	0.87
343.15	5000	837.24	0.87
343.15	10000	841.71	0.88
343.15	15000	846.06	0.9
343.15	20000	850.39	0.91
343.15	25000	854.17	0.92
343.15	30000	858.07	0.93
343.15	35000	861.81	0.94
343.15	40000	865.19	0.95
343.15	50000	872.01	0.98
343.15	60000	877.98	1
353.15	100	823.55	0.85
353.15	1000	824.37	0.85
353.15	3000	826.59	0.86
353.15	5000	828.51	0.86
353.15	10000	833.34	0.88
353.15	15000	838.05	0.89
353.15	20000	842.32	0.9
353.15	25000	846.49	0.92
353.15	30000	850.48	0.93
353.15	35000	854.32	0.94
353.15	40000	857.88	0.95
353.15	50000	864.82	0.98
353.15	60000	871.35	1
363.15	100	814.86	0.84
363.15	1000	815.91	0.85
363.15	3000	818.18	0.85
363.15	5000	820.31	0.86
363.15	10000	825.1	0.87
363.15	15000	830.33	0.89
363.15	20000	834.62	0.9
363.15	25000	838.84	0.91
363.15	30000	843.09	0.93
363.15	35000	847.13	0.94
363.15	40000	851.06	0.95
363.15	50000	858.24	0.98
363.15	60000	865.07	1

System: methyl nonanoate; phases: Liquid
Property: Mass density, kg/m3 (Liquid); method: Vibrating tube method
Temperature, K	Pressure, kPa	Mass density, kg/m3	uncertainty
293.15	100	874.53	0.9
293.15	1000	874.57	0.9
293.15	3000	876.13	0.9
293.15	5000	877.24	0.91
293.15	10000	880.79	0.92
293.15	15000	884.05	0.93
293.15	20000	887.23	0.93
293.15	25000	890.33	0.94
293.15	30000	893.33	0.95
293.15	35000	896.14	0.96
293.15	40000	898.87	0.97
293.15	50000	904.41	0.98
293.15	60000	909.15	0.99
303.15	100	865.62	0.89
303.15	1000	866.39	0.89
303.15	3000	867.88	0.9
303.15	5000	869.35	0.9
303.15	10000	872.9	0.91
303.15	15000	876.32	0.92
303.15	20000	879.53	0.93
303.15	25000	882.74	0.94
303.15	30000	885.85	0.95
303.15	35000	888.79	0.95
303.15	40000	891.61	0.96
303.15	50000	897.21	0.98
303.15	60000	902.44	0.99
313.15	100	857.46	0.88
313.15	1000	857.68	0.89
313.15	3000	859.33	0.89
313.15	5000	860.86	0.89
313.15	10000	864.63	0.9
313.15	15000	868.21	0.91
313.15	20000	871.68	0.92
313.15	25000	875.06	0.93
313.15	30000	878.23	0.94
313.15	35000	881.36	0.95
313.15	40000	884.18	0.96
313.15	50000	890.09	0.98
313.15	60000	895.33	0.99
323.15	100	848.37	0.88
323.15	1000	849.17	0.88
323.15	3000	850.82	0.88
323.15	5000	852.43	0.89
323.15	10000	856.42	0.9
323.15	15000	860.21	0.91
323.15	20000	863.98	0.92
323.15	25000	867.27	0.93
323.15	30000	870.68	0.94
323.15	35000	873.86	0.95
323.15	40000	877.04	0.96
323.15	50000	883.08	0.98
323.15	60000	888.79	0.99
333.15	100	839.92	0.87
333.15	1000	840.72	0.87
333.15	3000	842.6	0.87
333.15	5000	844.26	0.88
333.15	10000	848.44	0.89
333.15	15000	852.27	0.9
333.15	20000	856.18	0.91
333.15	25000	859.9	0.92
333.15	30000	863.32	0.93
333.15	35000	866.68	0.95
333.15	40000	870.12	0.96
333.15	50000	876.13	0.98
333.15	60000	881.95	1
343.15	100	831.17	0.86
343.15	1000	832.28	0.86
343.15	3000	834.1	0.87
343.15	5000	835.98	0.87
343.15	10000	840.27	0.88
343.15	15000	844.44	0.9
343.15	20000	848.65	0.91
343.15	25000	852.29	0.92
343.15	30000	856.04	0.93
343.15	35000	859.58	0.94
343.15	40000	862.91	0.95
343.15	50000	869.47	0.98
343.15	60000	875.25	1
353.15	100	822.78	0.85
353.15	1000	823.57	0.85
353.15	3000	825.7	0.86
353.15	5000	827.54	0.86
353.15	10000	832.17	0.88
353.15	15000	836.71	0.89
353.15	20000	840.79	0.9
353.15	25000	844.86	0.92
353.15	30000	848.7	0.93
353.15	35000	852.44	0.94
353.15	40000	855.87	0.95
353.15	50000	862.53	0.98
353.15	60000	868.9	1
363.15	100	814.24	0.84
363.15	1000	815.28	0.85
363.15	3000	817.47	0.85
363.15	5000	819.49	0.86
363.15	10000	824.1	0.87
363.15	15000	829.08	0.88
363.15	20000	833.26	0.9
363.15	25000	837.27	0.91
363.15	30000	841.4	0.92
363.15	35000	845.31	0.94
363.15	40000	849.11	0.95
363.15	50000	855.98	0.98
363.15	60000	862.59	1
