Measured thermophysical data. Selection of ionic liquids as entrainers for separation of water and 2-propanol
Source: Fluid Phase Equilib., 2007, 10.1016/j.fluid.2007.04.016
Compound 1: water, H2O, InChI=1S/H2O/h1H2
Compound 2: propan-2-ol, C3H8O, InChI=1S/C3H8O/c1-3(2)4/h3-4H,1-2H3
Compound 3: 1-butyl-3-methylimidazolium tetrafluoroborate, C8H15BF4N2, InChI=1S/C8H15N2.BF4/c1-3-4-5-10-7-6-9(2)8-10;2-1(3,4)5/h6-8H,3-5H2,1-2H3;/q+1;-1
Compound 4: 1-ethyl-3-methylimidazolium tetrafluoroborate, C6H11BF4N2, InChI=1S/C6H11N2.BF4/c1-3-8-5-4-7(2)6-8;2-1(3,4)5/h4-6H,3H2,1-2H3;/q+1;-1
Compound 5: 1-butyl-3-methylimidazolium dicyanamide, C10H15N5, InChI=1S/C8H15N2.C2N3/c1-3-4-5-10-7-6-9(2)8-10;3-1-5-2-4/h6-8H,3-5H2,1-2H3;/q+1;-1
Compound 6: 1-ethyl-3-methylimidazolium dicyanamide, C8H11N5, InChI=1S/C6H11N2.C2N3/c1-3-8-5-4-7(2)6-8;3-1-5-2-4/h4-6H,3H2,1-2H3;/q+1;-1
Compound 7: 1-butyl-3-methylimidazolium acetate, C10H18N2O2, InChI=1S/C8H15N2.C2H4O2/c1-3-4-5-10-7-6-9(2)8-10;1-2(3)4/h6-8H,3-5H2,1-2H3;1H3,(H,3,4)/q+1;/p-1
Compound 8: 1-ethyl-3-methylimidazolium acetate, C8H14N2O2, InChI=1S/C6H11N2.C2H4O2/c1-3-8-5-4-7(2)6-8;1-2(3)4/h4-6H,3H2,1-2H3;1H3,(H,3,4)/q+1;/p-1
Compound 9: 1-butyl-3-methylimidazolium chloride, C8H15ClN2, InChI=1S/C8H15N2.ClH/c1-3-4-5-10-7-6-9(2)8-10;/h6-8H,3-5H2,1-2H3;1H/q+1;/p-1

System: propan-2-ol + water + 1-butyl-3-methylimidazolium tetrafluoroborate; phases: Liquid, Gas
Fixed: Pressure, kPa = 100
Property: Boiling temperature at pressure P, K (Liquid); method: EBULLIO:UFactor:6
Mass fraction of 1-butyl-3-methylimidazolium tetrafluoroborate	Solvent: Mole fraction of propan-2-ol	Boiling temperature at pressure P, K	uncertainty
0.298	0.9504	355.29	0.52
0.349	0.9503	355.42	0.52
0.393	0.9503	355.57	0.52
0.446	0.9503	355.78	0.52
0.51	0.9503	356.02	0.52
0.566	0.9503	356.51	0.52
0.666	0.9503	358.1	0.53
0.709	0.9503	358.82	0.56
0.799	0.9503	362.43	0.57

System: propan-2-ol + water + 1-butyl-3-methylimidazolium tetrafluoroborate; phases: Gas, Liquid
Fixed: Pressure, kPa = 100
Property: Mole fraction of propan-2-ol (Gas); method: Titration method
Mass fraction of 1-butyl-3-methylimidazolium tetrafluoroborate	Solvent: Mole fraction of propan-2-ol	Mole fraction of propan-2-ol	uncertainty
0.298	0.9504	0.9445	0.0096
0.349	0.9503	0.9485	0.0096
0.393	0.9503	0.9511	0.0096
0.446	0.9503	0.9549	0.0096
0.51	0.9503	0.9598	0.0097
0.566	0.9503	0.9634	0.0097
0.666	0.9503	0.969	0.0097
0.709	0.9503	0.9715	0.0098
0.799	0.9503	0.9763	0.0098

System: propan-2-ol + water + 1-ethyl-3-methylimidazolium tetrafluoroborate; phases: Liquid, Gas
Fixed: Pressure, kPa = 100
Property: Boiling temperature at pressure P, K (Liquid); method: EBULLIO:UFactor:6
Mass fraction of 1-ethyl-3-methylimidazolium tetrafluoroborate	Solvent: Mole fraction of propan-2-ol	Boiling temperature at pressure P, K	uncertainty
0.146	0.9506	354.65	0.52
0.249	0.9505	354.82	0.52
0.325	0.9505	354.93	0.52
0.416	0.9504	355.02	0.52
0.52	0.9503	355.13	0.52
0.595	0.9502	355.3	0.52
0.657	0.9502	355.6	0.52
0.737	0.9502	356.56	0.53
0.806	0.9501	358.56	0.55

System: propan-2-ol + water + 1-ethyl-3-methylimidazolium tetrafluoroborate; phases: Gas, Liquid
Fixed: Pressure, kPa = 100
Property: Mole fraction of propan-2-ol (Gas); method: Titration method
Mass fraction of 1-ethyl-3-methylimidazolium tetrafluoroborate	Solvent: Mole fraction of propan-2-ol	Mole fraction of propan-2-ol	uncertainty
0.146	0.9506	0.9375	0.0095
0.249	0.9505	0.947	0.0096
0.325	0.9505	0.9539	0.0096
0.416	0.9504	0.9603	0.0097
0.52	0.9503	0.968	0.0097
0.595	0.9502	0.9733	0.0098
0.657	0.9502	0.9777	0.0098
0.737	0.9502	0.9829	0.0098
0.806	0.9501	0.9864	0.0099

System: propan-2-ol + water + 1-butyl-3-methylimidazolium dicyanamide; phases: Liquid, Gas
Fixed: Pressure, kPa = 100
Property: Boiling temperature at pressure P, K (Liquid); method: EBULLIO:UFactor:6
Mass fraction of 1-butyl-3-methylimidazolium dicyanamide	Solvent: Mole fraction of propan-2-ol	Boiling temperature at pressure P, K	uncertainty
0.28	0.9504	356.67	0.53
0.4	0.9503	358.48	0.53
0.499	0.9503	360.87	0.54
0.603	0.9503	364.2	0.57
0.705	0.9503	368.98	0.65
0.801	0.9505	377.04	0.72

System: propan-2-ol + water + 1-butyl-3-methylimidazolium dicyanamide; phases: Gas, Liquid
Fixed: Pressure, kPa = 100
Property: Mole fraction of propan-2-ol (Gas); method: Titration method
Mass fraction of 1-butyl-3-methylimidazolium dicyanamide	Solvent: Mole fraction of propan-2-ol	Mole fraction of propan-2-ol	uncertainty
0.28	0.9504	0.9454	0.0096
0.4	0.9503	0.9556	0.0096
0.499	0.9503	0.9628	0.0097
0.603	0.9503	0.9708	0.0098
0.705	0.9503	0.978	0.0098
0.801	0.9505	0.9831	0.0098

System: propan-2-ol + water + 1-ethyl-3-methylimidazolium dicyanamide; phases: Liquid, Gas
Fixed: Pressure, kPa = 100
Property: Boiling temperature at pressure P, K (Liquid); method: EBULLIO:UFactor:6
Mass fraction of 1-ethyl-3-methylimidazolium dicyanamide	Solvent: Mole fraction of propan-2-ol	Boiling temperature at pressure P, K	uncertainty
0.279	0.9503	357.08	0.53
0.298	0.9503	357.37	0.53
0.4	0.9502	359.24	0.53
0.498	0.95	361.48	0.54
0.6	0.9499	364.47	0.56
0.687	0.9497	367.98	0.57

System: propan-2-ol + water + 1-ethyl-3-methylimidazolium dicyanamide; phases: Gas, Liquid
Fixed: Pressure, kPa = 100
Property: Mole fraction of propan-2-ol (Gas); method: Titration method
Mass fraction of 1-ethyl-3-methylimidazolium dicyanamide	Solvent: Mole fraction of propan-2-ol	Mole fraction of propan-2-ol	uncertainty
0.279	0.9503	0.9521	0.0096
0.298	0.9503	0.9543	0.0097
0.4	0.9502	0.9624	0.0097
0.498	0.95	0.9706	0.0098
0.6	0.9499	0.9778	0.0098
0.687	0.9497	0.9827	0.0098

System: propan-2-ol + water + 1-butyl-3-methylimidazolium acetate; phases: Liquid, Gas
Fixed: Pressure, kPa = 100
Property: Boiling temperature at pressure P, K (Liquid); method: EBULLIO:UFactor:6
Mass fraction of 1-butyl-3-methylimidazolium acetate	Solvent: Mole fraction of propan-2-ol	Boiling temperature at pressure P, K	uncertainty
0.112	0.9501	355.15	0.52
0.203	0.9499	356.45	0.53
0.303	0.9497	358.8	0.56
0.4	0.9494	363.03	0.61
0.493	0.9491	369.02	0.68
0.549	0.9489	374.04	0.75

System: propan-2-ol + water + 1-butyl-3-methylimidazolium acetate; phases: Gas, Liquid
Fixed: Pressure, kPa = 100
Property: Mole fraction of propan-2-ol (Gas); method: Titration method
Mass fraction of 1-butyl-3-methylimidazolium acetate	Solvent: Mole fraction of propan-2-ol	Mole fraction of propan-2-ol	uncertainty
0.112	0.9501	0.9371	0.0095
0.203	0.9499	0.9474	0.0096
0.303	0.9497	0.9588	0.0097
0.4	0.9494	0.9677	0.0097
0.493	0.9491	0.9727	0.0098
0.549	0.9489	0.976	0.0098

System: propan-2-ol + water + 1-ethyl-3-methylimidazolium acetate; phases: Liquid, Gas
Fixed: Pressure, kPa = 100
Property: Boiling temperature at pressure P, K (Liquid); method: EBULLIO:UFactor:6
Mass fraction of 1-ethyl-3-methylimidazolium acetate	Solvent: Mole fraction of propan-2-ol	Boiling temperature at pressure P, K	uncertainty
0.111	0.9497	355.3	0.52
0.202	0.9496	356.62	0.53
0.303	0.9495	358.9	0.55
0.398	0.9493	362.64	0.6
0.499	0.9491	368.54	0.64
0.55	0.949	372.46	0.69

System: propan-2-ol + water + 1-ethyl-3-methylimidazolium acetate; phases: Gas, Liquid
Fixed: Pressure, kPa = 100
Property: Mole fraction of propan-2-ol (Gas); method: Titration method
Mass fraction of 1-ethyl-3-methylimidazolium acetate	Solvent: Mole fraction of propan-2-ol	Mole fraction of propan-2-ol	uncertainty
0.111	0.9497	0.9392	0.0096
0.202	0.9496	0.9487	0.0096
0.303	0.9495	0.9599	0.0097
0.398	0.9493	0.9683	0.0097
0.499	0.9491	0.9761	0.0098
0.55	0.949	0.9789	0.0098

System: propan-2-ol + water + 1-butyl-3-methylimidazolium chloride; phases: Liquid, Gas
Fixed: Pressure, kPa = 100
Property: Boiling temperature at pressure P, K (Liquid); method: EBULLIO:UFactor:8
Mass fraction of 1-butyl-3-methylimidazolium chloride	Solvent: Mole fraction of propan-2-ol	Boiling temperature at pressure P, K	uncertainty
0.183	0.9506	356.32	0.7
0.313	0.9504	359.7	0.71
0.405	0.9502	362.36	0.72
0.45	0.9501	364.48	0.79
0.5	0.95	368.54	0.83
0.548	0.9499	372.04	0.86
0.652	0.9497	381.69	0.88

System: propan-2-ol + water + 1-butyl-3-methylimidazolium chloride; phases: Gas, Liquid
Fixed: Pressure, kPa = 100
Property: Mole fraction of propan-2-ol (Gas); method: Titration method
Mass fraction of 1-butyl-3-methylimidazolium chloride	Solvent: Mole fraction of propan-2-ol	Mole fraction of propan-2-ol	uncertainty
0.183	0.9506	0.947	0.0096
0.313	0.9504	0.9617	0.0097
0.405	0.9502	0.9696	0.0097
0.45	0.9501	0.9735	0.0098
0.5	0.95	0.9766	0.0098
0.548	0.9499	0.9794	0.0098
0.652	0.9497	0.9858	0.0099
