Measured thermophysical data. High pressure solid-liquid equilibrium of fatty acid ethyl esters binary systems
Source: Fluid Phase Equilib., 2014, 10.1016/j.fluid.2014.09.007
Compound 1: ethyl dodecanoate, C14H28O2, InChI=1S/C14H28O2/c1-3-5-6-7-8-9-10-11-12-13-14(15)16-4-2/h3-13H2,1-2H3, purity 98%
Compound 2: ethyl tetradecanoate, C16H32O2, InChI=1S/C16H32O2/c1-3-5-6-7-8-9-10-11-12-13-14-15-16(17)18-4-2/h3-15H2,1-2H3, purity 99%
Compound 3: ethyl hexadecanoate, C18H36O2, InChI=1S/C18H36O2/c1-3-5-6-7-8-9-10-11-12-13-14-15-16-17-18(19)20-4-2/h3-17H2,1-2H3, purity 95%

System: ethyl dodecanoate; phases: Crystal, Liquid, Air at 1 atmosphere
Property: Normal melting temperature, K (Crystal); method: DTA
Normal melting temperature, K	uncertainty
272.2	0.5

System: ethyl dodecanoate; phases: Crystal, Liquid, Air at 1 atmosphere
Property: Molar enthalpy of transition or fusion, kJ/mol (Crystal); method: DSC
Molar enthalpy of transition or fusion, kJ/mol	uncertainty
38.4	1.3

System: ethyl dodecanoate; phases: Crystal, Liquid, Air at 1 atmosphere
Property: Normal melting temperature, K (Crystal); method: VISOBS
Normal melting temperature, K	uncertainty
272.3	0.5

System: ethyl dodecanoate; phases: Crystal, Liquid
Property: Solid-liquid equilibrium temperature, K (Crystal); method: VISOBS
Pressure, kPa	Solid-liquid equilibrium temperature, K	uncertainty
100	272.3	0.4
20000	276.4	0.5
40000	280.3	0.5
60000	284	0.5
80000	287.4	0.5

System: ethyl tetradecanoate; phases: Crystal, Liquid, Air at 1 atmosphere
Property: Normal melting temperature, K (Crystal); method: DTA
Normal melting temperature, K	uncertainty
286.4	0.5

System: ethyl tetradecanoate; phases: Crystal, Liquid, Air at 1 atmosphere
Property: Molar enthalpy of transition or fusion, kJ/mol (Crystal); method: DSC
Molar enthalpy of transition or fusion, kJ/mol	uncertainty
47.3	1.4

System: ethyl tetradecanoate; phases: Crystal, Liquid, Air at 1 atmosphere
Property: Normal melting temperature, K (Crystal); method: VISOBS
Normal melting temperature, K	uncertainty
285.8	0.5

System: ethyl tetradecanoate; phases: Crystal, Liquid
Property: Solid-liquid equilibrium temperature, K (Crystal); method: VISOBS
Pressure, kPa	Solid-liquid equilibrium temperature, K	uncertainty
100	285.8	0.4
20000	289.9	0.5
40000	294.1	0.5
60000	298	0.5
80000	301.9	0.5

System: ethyl hexadecanoate; phases: Crystal, Liquid, Air at 1 atmosphere
Property: Normal melting temperature, K (Crystal); method: DTA
Normal melting temperature, K	uncertainty
297.4	0.5

System: ethyl hexadecanoate; phases: Crystal, Liquid, Air at 1 atmosphere
Property: Molar enthalpy of transition or fusion, kJ/mol (Crystal); method: DSC
Molar enthalpy of transition or fusion, kJ/mol	uncertainty
55.6	1.5

System: ethyl hexadecanoate; phases: Crystal, Liquid, Air at 1 atmosphere
Property: Normal melting temperature, K (Crystal); method: VISOBS
Normal melting temperature, K	uncertainty
297.6	0.5

System: ethyl hexadecanoate; phases: Crystal, Liquid
Property: Solid-liquid equilibrium temperature, K (Crystal); method: VISOBS
Pressure, kPa	Solid-liquid equilibrium temperature, K	uncertainty
100	297.6	0.4
20000	302	0.5
40000	306.4	0.5
60000	310.3	0.5
80000	314.3	0.5

System: ethyl dodecanoate + ethyl tetradecanoate; phases: Liquid, Crystal
Property: Solid-liquid equilibrium temperature, K (Liquid); method: VISOBS
Pressure, kPa	Mole fraction of ethyl dodecanoate	Solid-liquid equilibrium temperature, K	uncertainty
100	0	285.8	0.4
100	0.2018	284.2	0.4
100	0.4013	280.2	0.4
100	0.6	274.2	0.4
100	0.7011	271	0.4
100	0.7437	267.9	0.4
20000	0	289.9	0.4
20000	0.2018	288.5	0.4
20000	0.4013	284.2	0.4
20000	0.6	277.8	0.4
20000	0.7011	274.3	0.4
20000	0.7437	271.9	0.4
40000	0	294.1	0.4
40000	0.2018	292.9	0.4
40000	0.4013	288.3	0.4
40000	0.6	282	0.4
40000	0.7011	279.3	0.4
40000	0.7437	275.5	0.4
60000	0	298	0.4
60000	0.2018	297.5	0.4
60000	0.4013	292.4	0.4
60000	0.6	286	0.4
60000	0.7011	283.3	0.4
60000	0.7437	279	0.4
80000	0	301.9	0.4
80000	0.2018	301.5	0.4
80000	0.4013	296.2	0.4
80000	0.6	289.9	0.4
80000	0.7011	287.9	0.4
80000	0.7437	282.5	0.4

System: ethyl dodecanoate + ethyl tetradecanoate; phases: Liquid, Crystal
Property: Solid-liquid equilibrium temperature, K (Liquid); method: VISOBS
Pressure, kPa	Mole fraction of ethyl dodecanoate	Solid-liquid equilibrium temperature, K	uncertainty
100	0.8008	269	0.4
100	0.8476	269.5	0.4
100	0.8972	269.3	0.4
100	1	272.3	0.4
20000	0.8008	273.1	0.4
20000	0.8476	273.3	0.4
20000	0.8972	273	0.4
20000	1	276.4	0.4
40000	0.8008	277	0.4
40000	0.8476	277.1	0.4
40000	0.8972	278	0.4
40000	1	280.3	0.4
60000	0.8008	280.6	0.4
60000	0.8476	281.1	0.4
60000	0.8972	281.6	0.4
60000	1	284	0.4
80000	0.8008	284.2	0.4
80000	0.8476	284.1	0.4
80000	0.8972	285.4	0.4
80000	1	287.4	0.4

System: ethyl dodecanoate + ethyl hexadecanoate; phases: Liquid, Crystal
Property: Solid-liquid equilibrium temperature, K (Liquid); method: VISOBS
Pressure, kPa	Mole fraction of ethyl dodecanoate	Solid-liquid equilibrium temperature, K	uncertainty
100	0	297.6	0.4
100	0.2002	295.7	0.4
100	0.4013	293.4	0.4
100	0.6004	288.5	0.4
100	0.6979	284.6	0.4
100	0.8003	279.1	0.4
100	0.8478	275.3	0.4
20000	0	302	0.4
20000	0.2002	300.5	0.4
20000	0.4013	297.6	0.4
20000	0.6004	292.4	0.4
20000	0.6979	289.9	0.4
20000	0.8003	284	0.4
20000	0.8478	279.4	0.4
40000	0	306.4	0.4
40000	0.2002	304.9	0.4
40000	0.4013	302	0.4
40000	0.6004	296.6	0.4
40000	0.6979	293.7	0.4
40000	0.8003	288.5	0.4
40000	0.8478	282.8	0.4
60000	0	310.3	0.4
60000	0.2002	308.5	0.4
60000	0.4013	306.5	0.4
60000	0.6004	300.9	0.4
60000	0.6979	297.5	0.4
60000	0.8003	292	0.4
60000	0.8478	286.7	0.4
80000	0	314.3	0.4
80000	0.2002	312.7	0.4
80000	0.4013	311.1	0.4
80000	0.6004	305.3	0.4
80000	0.6979	301.8	0.4
80000	0.8003	295.1	0.4
80000	0.8478	290.9	0.4

System: ethyl dodecanoate + ethyl hexadecanoate; phases: Liquid, Crystal
Property: Solid-liquid equilibrium temperature, K (Liquid); method: VISOBS
Pressure, kPa	Mole fraction of ethyl dodecanoate	Solid-liquid equilibrium temperature, K	uncertainty
100	0.9003	269.8	0.4
100	1	272.3	0.4
20000	0.9003	273.9	0.4
20000	1	276.4	0.4
40000	0.9003	277.8	0.4
40000	1	280.3	0.4
60000	0.9003	281.8	0.4
60000	1	284	0.4
80000	0.9003	285.6	0.4
80000	1	287.4	0.4

System: ethyl tetradecanoate + ethyl hexadecanoate; phases: Liquid, Crystal
Property: Solid-liquid equilibrium temperature, K (Liquid); method: VISOBS
Pressure, kPa	Mole fraction of ethyl tetradecanoate	Solid-liquid equilibrium temperature, K	uncertainty
100	0	297.6	0.4
100	0.2009	294.6	0.4
100	0.3993	291.3	0.4
100	0.5006	288.8	0.4
100	0.5992	285.1	0.4
100	0.6981	283.4	0.4
20000	0	302	0.4
20000	0.2009	299.3	0.4
20000	0.3993	296.2	0.4
20000	0.5006	293.3	0.4
20000	0.5992	289.2	0.4
20000	0.6981	287.7	0.4
40000	0	306.4	0.4
40000	0.2009	303.7	0.4
40000	0.3993	301.1	0.4
40000	0.5006	298	0.4
40000	0.5992	293.9	0.4
40000	0.6981	292.1	0.4
60000	0	310.3	0.4
60000	0.2009	307.8	0.4
60000	0.3993	305.4	0.4
60000	0.5006	302.4	0.4
60000	0.5992	297.9	0.4
60000	0.6981	295.8	0.4
80000	0	314.3	0.4
80000	0.2009	311.8	0.4
80000	0.3993	309.2	0.4
80000	0.5006	306.3	0.4
80000	0.5992	301.5	0.4
80000	0.6981	299.1	0.4

System: ethyl tetradecanoate + ethyl hexadecanoate; phases: Liquid, Crystal
Property: Solid-liquid equilibrium temperature, K (Liquid); method: VISOBS
Pressure, kPa	Mole fraction of ethyl tetradecanoate	Solid-liquid equilibrium temperature, K	uncertainty
100	0.7489	282.6	0.4
100	0.7996	282.8	0.4
100	0.8997	284.2	0.4
100	1	285.8	0.4
20000	0.7489	286.8	0.4
20000	0.7996	287.1	0.4
20000	0.8997	288.6	0.4
20000	1	289.9	0.4
40000	0.7489	290.8	0.4
40000	0.7996	291.3	0.4
40000	0.8997	292.2	0.4
40000	1	294.1	0.4
60000	0.7489	294.5	0.4
60000	0.7996	295.2	0.4
60000	0.8997	296	0.4
60000	1	298	0.4
80000	0.7489	298.5	0.4
80000	0.7996	298.9	0.4
80000	0.8997	299.5	0.4
80000	1	301.9	0.4
