Measured thermophysical data. Experiment and model for the viscosity of carbonated MDEA - MEA aqueous solutions
Source: Fluid Phase Equilib., 2012, 10.1016/j.fluid.2012.01.029
Compound 1: N-methyldiethanolamine, C5H13NO2, InChI=1S/C5H13NO2/c1-6(2-4-7)3-5-8/h7-8H,2-5H2,1H3, purity 99.5%
Compound 2: 2-aminoethan-1-ol, C2H7NO, InChI=1S/C2H7NO/c3-1-2-4/h4H,1-3H2, purity 99.4%
Compound 3: water, H2O, InChI=1S/H2O/h1H2, purity 99.9%
Compound 4: carbon dioxide, CO2, InChI=1S/CO2/c2-1-3

System: N-methyldiethanolamine; phases: Liquid
Property: Mass density, kg/m3 (Liquid); method: Vibrating tube method
Temperature, K	Pressure, kPa	Mass density, kg/m3	uncertainty
293.15	101.325	1037.7	0.3

System: 2-aminoethan-1-ol; phases: Liquid
Property: Mass density, kg/m3 (Liquid); method: Vibrating tube method
Temperature, K	Pressure, kPa	Mass density, kg/m3	uncertainty
293.15	101.325	1017.9	0.3

System: N-methyldiethanolamine + 2-aminoethan-1-ol + water; phases: Liquid
Fixed: Pressure, kPa = 101.3
Property: Viscosity, Pa*s (Liquid); method: Cone and plate viscometry
Mass fraction of 2-aminoethan-1-ol	Mass fraction of N-methyldiethanolamine	Temperature, K	Viscosity, Pa*s	uncertainty
0.05	0.15	293.15	0.00212	3e-05
0.05	0.15	303.15	0.00185	3e-05
0.05	0.15	313.15	0.00124	2e-05
0.05	0.15	323.15	0.00101	2e-05
0.05	0.15	333.15	0.00078	2e-05
0.05	0.15	343.15	0.00065	2e-05
0.05	0.25	293.15	0.00372	4e-05
0.05	0.25	303.15	0.00268	3e-05
0.05	0.25	313.15	0.00222	3e-05
0.05	0.25	323.15	0.00144	3e-05
0.05	0.25	333.15	0.00106	2e-05
0.05	0.25	343.15	0.00092	2e-05
0.05	0.35	293.15	0.00538	6e-05
0.05	0.35	303.15	0.00395	4e-05
0.05	0.35	313.15	0.00346	3e-05
0.05	0.35	323.15	0.00255	3e-05
0.05	0.35	333.15	0.00179	3e-05
0.05	0.35	343.15	0.00144	2e-05
0.05	0.45	293.15	0.0096	0.0001
0.05	0.45	303.15	0.00764	6e-05
0.05	0.45	313.15	0.00551	5e-05
0.05	0.45	323.15	0.00389	4e-05
0.05	0.45	333.15	0.00247	3e-05
0.05	0.45	343.15	0.00217	3e-05
0.1	0.1	293.15	0.00221	3e-05
0.1	0.1	303.15	0.00172	2e-05
0.1	0.1	313.15	0.00141	2e-05
0.1	0.1	323.15	0.00095	2e-05
0.1	0.1	333.15	0.00081	2e-05
0.1	0.1	343.15	0.00061	2e-05
0.1	0.2	293.15	0.00309	4e-05
0.1	0.2	303.15	0.00249	3e-05
0.1	0.2	313.15	0.00205	3e-05
0.1	0.2	323.15	0.00124	2e-05
0.1	0.2	333.15	0.00109	2e-05
0.1	0.2	343.15	0.00082	2e-05
0.1	0.3	293.15	0.00555	5e-05
0.1	0.3	303.15	0.00434	4e-05
0.1	0.3	313.15	0.00304	3e-05
0.1	0.3	323.15	0.00222	3e-05
0.1	0.3	333.15	0.00179	3e-05
0.1	0.3	343.15	0.00114	2e-05
0.1	0.4	293.15	0.00925	7e-05
0.1	0.4	303.15	0.00703	6e-05
0.1	0.4	313.15	0.00454	5e-05
0.1	0.4	323.15	0.00332	3e-05
0.1	0.4	333.15	0.00293	3e-05
0.1	0.4	343.15	0.00191	3e-05
0.15	0.05	293.15	0.0019	0.0001
0.15	0.05	303.15	0.00149	2e-05
0.15	0.05	313.15	0.00113	2e-05
0.15	0.05	323.15	0.00099	2e-05
0.15	0.05	333.15	0.00082	2e-05
0.15	0.05	343.15	0.00066	2e-05
0.15	0.15	293.15	0.00276	3e-05
0.15	0.15	303.15	0.00214	3e-05
0.15	0.15	313.15	0.00181	2e-05
0.15	0.15	323.15	0.00151	2e-05
0.15	0.15	333.15	0.00117	2e-05
0.15	0.15	343.15	0.00086	2e-05
0.15	0.25	293.15	0.00484	5e-05
0.15	0.25	303.15	0.00322	3e-05
0.15	0.25	313.15	0.00275	3e-05
0.15	0.25	323.15	0.00201	3e-05
0.15	0.25	333.15	0.00175	2e-05
0.15	0.25	343.15	0.00125	2e-05
0.15	0.35	293.15	0.00861	7e-05
0.15	0.35	303.15	0.00626	6e-05
0.15	0.35	313.15	0.00425	5e-05
0.15	0.35	323.15	0.00301	3e-05
0.15	0.35	333.15	0.00259	3e-05
0.15	0.35	343.15	0.00167	3e-05
0.2	0.05	293.15	0.00222	3e-05
0.2	0.05	303.15	0.00165	3e-05
0.2	0.05	313.15	0.00129	2e-05
0.2	0.05	323.15	0.00102	2e-05
0.2	0.05	333.15	0.00085	2e-05
0.2	0.05	343.15	0.00067	2e-05
0.2	0.1	293.15	0.00265	3e-05
0.2	0.1	303.15	0.00205	3e-05
0.2	0.1	313.15	0.00174	2e-05
0.2	0.1	323.15	0.00142	2e-05
0.2	0.1	333.15	0.00107	2e-05
0.2	0.1	343.15	0.00084	2e-05
0.2	0.2	293.15	0.00463	5e-05
0.2	0.2	303.15	0.00328	4e-05
0.2	0.2	313.15	0.00246	3e-05
0.2	0.2	323.15	0.00185	3e-05
0.2	0.2	333.15	0.00156	2e-05
0.2	0.2	343.15	0.00123	2e-05
0.2	0.3	293.15	0.00801	6e-05
0.2	0.3	303.15	0.00589	5e-05
0.2	0.3	313.15	0.00408	4e-05
0.2	0.3	323.15	0.00277	3e-05
0.2	0.3	333.15	0.0022	0.0001
0.2	0.3	343.15	0.00155	3e-05

System: carbon dioxide + 2-aminoethan-1-ol + water; phases: Liquid
Fixed: Temperature, K = 298.15
Fixed: Pressure, kPa = 101.3
Property: Viscosity, Pa*s (Liquid); method: Cone and plate viscometry
Solvent: Mass fraction of 2-aminoethan-1-ol	Mole fraction of carbon dioxide	Viscosity, Pa*s	uncertainty
0.2	0.007	0.00172	3e-05
0.2	0.014	0.00188	3e-05
0.2	0.02	0.00195	3e-05
0.2	0.027	0.00214	3e-05
0.2	0.033	0.00226	3e-05
0.3	0.011	0.00251	4e-05
0.3	0.022	0.00282	4e-05
0.3	0.033	0.00318	4e-05
0.3	0.043	0.00344	5e-05
0.3	0.053	0.00397	5e-05
0.4	0.016	0.00388	5e-05
0.4	0.032	0.00469	6e-05
0.4	0.047	0.00517	7e-05
0.4	0.062	0.00589	8e-05
0.4	0.076	0.00693	9e-05
