Measured thermophysical data. Solubility of l-serine, l-threonine and l-isoleucine in aqueous aliphatic alcohol solutions
Source: Fluid Phase Equilib., 2008, 10.1016/j.fluid.2008.05.008
Compound 1: L-serine, C3H7NO3, InChI=1S/C3H7NO3/c4-2(1-5)3(6)7/h2,5H,1,4H2,(H,6,7)/t2-/m0/s1, purity 99%
Compound 2: water, H2O, InChI=1S/H2O/h1H2
Compound 3: ethanol, C2H6O, InChI=1S/C2H6O/c1-2-3/h3H,2H2,1H3, purity 99.8%
Compound 4: propan-1-ol, C3H8O, InChI=1S/C3H8O/c1-2-3-4/h4H,2-3H2,1H3, purity 99.8%
Compound 5: propan-2-ol, C3H8O, InChI=1S/C3H8O/c1-3(2)4/h3-4H,1-2H3, purity 99.9%
Compound 6: L-threonine, C4H9NO3, InChI=1S/C4H9NO3/c1-2(6)3(5)4(7)8/h2-3,6H,5H2,1H3,(H,7,8)/t2-,3+/m1/s1, purity 99%
Compound 7: 2-amino-3-methylpentanoic acid, C6H13NO2, InChI=1S/C6H13NO2/c1-3-4(2)5(7)6(8)9/h4-5H,3,7H2,1-2H3,(H,8,9)/t4-,5-/m0/s1, purity 99%

System: L-serine + water; phases: Liquid, Crystal
Fixed: Pressure, kPa = 101
Property: Mass fraction of L-serine (Liquid); method: Density calibration data
Temperature, K	Mass fraction of L-serine	uncertainty
313.15	0.37423	0.00112
333.15	0.44314	0.00133

System: L-serine + water; phases: Liquid, Crystal of intercomponent compound 1
Property: Mass fraction of L-serine (Liquid); method: Density calibration data
Temperature, K	Pressure, kPa	Mass fraction of L-serine	uncertainty
298.15	101	0.30003	0.0009

System: L-serine + ethanol; phases: Liquid, Crystal
Fixed: Pressure, kPa = 101
Property: Mass fraction of L-serine (Liquid); method: spectrophotometric ninhydrin method
Temperature, K	Mass fraction of L-serine	uncertainty
298.15	3e-05	1e-05
313.15	5e-05	1e-05
333.15	0.00011	1e-05

System: L-serine + propan-1-ol; phases: Liquid, Crystal
Fixed: Pressure, kPa = 101
Property: Mass fraction of L-serine (Liquid); method: spectrophotometric ninhydrin method
Temperature, K	Mass fraction of L-serine	uncertainty
298.15	1e-05	1e-05
313.15	2e-05	1e-05
333.15	5e-05	1e-05

System: L-serine + propan-2-ol; phases: Liquid, Crystal
Fixed: Pressure, kPa = 101
Property: Mass fraction of L-serine (Liquid); method: spectrophotometric ninhydrin method
Temperature, K	Mass fraction of L-serine	uncertainty
298.15	1e-05	1e-05
313.15	1e-05	1e-05
333.15	2e-05	1e-05

System: L-threonine + water; phases: Liquid, Crystal
Fixed: Pressure, kPa = 101
Property: Mass fraction of L-threonine (Liquid); method: Density calibration data
Temperature, K	Mass fraction of L-threonine	uncertainty
298.15	0.0888	0.00027
313.15	0.10832	0.00033
333.15	0.14055	0.00042

System: propan-1-ol + L-threonine; phases: Liquid, Crystal
Fixed: Pressure, kPa = 101
Property: Mass fraction of L-threonine (Liquid); method: spectrophotometric ninhydrin method
Temperature, K	Mass fraction of L-threonine	uncertainty
298.15	2e-05	1e-05
313.15	2e-05	1e-05
333.15	4e-05	1e-05

System: propan-2-ol + L-threonine; phases: Liquid, Crystal
Fixed: Pressure, kPa = 101
Property: Mass fraction of L-threonine (Liquid); method: spectrophotometric ninhydrin method
Temperature, K	Mass fraction of L-threonine	uncertainty
298.15	1e-05	1e-05
313.15	1e-05	1e-05
333.15	1e-05	1e-05

System: 2-amino-3-methylpentanoic acid + water; phases: Liquid, Crystal
Fixed: Pressure, kPa = 101
Property: Mass fraction of 2-amino-3-methylpentanoic acid (Liquid); method: Density calibration data
Temperature, K	Mass fraction of 2-amino-3-methylpentanoic acid	uncertainty
298.15	0.0325	0.0001
313.15	0.03585	0.00011
333.15	0.04346	0.00013

System: ethanol + 2-amino-3-methylpentanoic acid; phases: Liquid, Crystal
Fixed: Pressure, kPa = 101
Property: Mass fraction of 2-amino-3-methylpentanoic acid (Liquid); method: spectrophotometric ninhydrin method
Temperature, K	Mass fraction of 2-amino-3-methylpentanoic acid	uncertainty
298.15	0.00019	1e-05
313.15	0.00044	1e-05
333.15	0.00059	1e-05

System: propan-1-ol + 2-amino-3-methylpentanoic acid; phases: Liquid, Crystal
Fixed: Pressure, kPa = 101
Property: Mass fraction of 2-amino-3-methylpentanoic acid (Liquid); method: spectrophotometric ninhydrin method
Temperature, K	Mass fraction of 2-amino-3-methylpentanoic acid	uncertainty
298.15	1e-05	1e-05
313.15	0.00016	1e-05
333.15	0.00023	1e-05

System: propan-2-ol + 2-amino-3-methylpentanoic acid; phases: Liquid, Crystal
Fixed: Pressure, kPa = 101
Property: Mass fraction of 2-amino-3-methylpentanoic acid (Liquid); method: spectrophotometric ninhydrin method
Temperature, K	Mass fraction of 2-amino-3-methylpentanoic acid	uncertainty
298.15	2e-05	1e-05
313.15	5e-05	1e-05
333.15	8e-05	1e-05

System: L-serine + ethanol + water; phases: Liquid, Crystal
Fixed: Pressure, kPa = 101
Property: Mass fraction of L-serine (Liquid); method: Density calibration data
Temperature, K	Solvent: Mass fraction of ethanol	Mass fraction of L-serine	uncertainty
298.15	0.2002	0.13314	0.0004
298.15	0.3998	0.0444	0.00013
298.15	0.6	0.01145	3e-05
313.15	0	0.37423	0.00112
313.15	0.2	0.20058	0.0006
313.15	0.4001	0.07099	0.00021
313.15	0.6002	0.01745	5e-05
333.15	0	0.44314	0.00133
333.15	0.2002	0.28667	0.00086
333.15	0.4	0.12295	0.00037
333.15	0.6	0.0286	9e-05

System: L-serine + ethanol + water; phases: Liquid, Crystal
Fixed: Pressure, kPa = 101
Property: Mass fraction of L-serine (Liquid); method: spectrophotometric ninhydrin method
Temperature, K	Solvent: Mass fraction of ethanol	Mass fraction of L-serine	uncertainty
298.15	0.8	0.00099	1e-05
298.15	1	3e-05	1e-05
313.15	0.8	0.00224	1e-05
313.15	1	5e-05	1e-05
333.15	0.8	0.00269	1e-05
333.15	1	0.00011	1e-05

System: L-serine + propan-1-ol + water; phases: Liquid, Crystal
Fixed: Pressure, kPa = 101
Property: Mass fraction of L-serine (Liquid); method: Density calibration data
Temperature, K	Solvent: Mass fraction of propan-1-ol	Mass fraction of L-serine	uncertainty
298.15	0.65	0.01431	4e-05
298.15	0.7	0.00868	3e-05
313.15	0.7	0.01347	4e-05

System: L-serine + propan-1-ol + water; phases: Liquid, Crystal
Fixed: Pressure, kPa = 101
Property: Mass fraction of L-serine (Liquid); method: spectrophotometric ninhydrin method
Temperature, K	Solvent: Mass fraction of propan-1-ol	Mass fraction of L-serine	uncertainty
298.15	0.8001	0.00238	1e-05
298.15	1	1e-05	1e-05
313.15	0.8	0.00325	1e-05
313.15	0.9	0.00032	1e-05
313.15	1	2e-05	1e-05
333.15	0.8	0.00491	2e-05
333.15	0.85	0.0018	1e-05
333.15	0.9	0.00061	1e-05
333.15	0.95	0.00027	1e-05
333.15	1	5e-05	1e-05

System: L-serine + propan-2-ol + water; phases: Liquid, Crystal
Fixed: Pressure, kPa = 101
Property: Mass fraction of L-serine (Liquid); method: Density calibration data
Temperature, K	Solvent: Mass fraction of propan-2-ol	Mass fraction of L-serine	uncertainty
298.15	0.2	0.13737	0.00041
298.15	0.4002	0.05234	0.00016
298.15	0.6	0.01414	4e-05
313.15	0.2001	0.20736	0.00062
313.15	0.4	0.09467	0.00028
313.15	0.6	0.02326	7e-05
333.15	0.7005	0.01258	4e-05

System: L-serine + propan-2-ol + water; phases: Liquid, Crystal
Fixed: Pressure, kPa = 101
Property: Mass fraction of L-serine (Liquid); method: spectrophotometric ninhydrin method
Temperature, K	Solvent: Mass fraction of propan-2-ol	Mass fraction of L-serine	uncertainty
298.15	0.8	0.0016	1e-05
298.15	1	1e-05	1e-05
313.15	0.8	0.00212	1e-05
313.15	1	1e-05	1e-05
333.15	0.8	0.00252	1e-05
333.15	0.85	0.00105	1e-05
333.15	1	2e-05	1e-05

System: ethanol + L-threonine + water; phases: Liquid, Crystal
Fixed: Pressure, kPa = 101
Property: Mass fraction of L-threonine (Liquid); method: Density calibration data
Temperature, K	Solvent: Mass fraction of ethanol	Mass fraction of L-threonine	uncertainty
298.15	0	0.0888	0.00027
298.15	0.2002	0.0342	0.0001
298.15	0.3998	0.01266	4e-05
298.15	0.6	0.0045	1e-05
313.15	0	0.10832	0.00033
313.15	0.2	0.04869	0.00015
313.15	0.4001	0.01932	6e-05
313.15	0.6	0.00628	2e-05
333.15	0	0.14055	0.00042
333.15	0.2	0.07382	0.00022
333.15	0.4001	0.03223	0.0001
333.15	0.6	0.01066	3e-05

System: ethanol + L-threonine + water; phases: Liquid, Crystal
Fixed: Pressure, kPa = 101
Property: Mass fraction of L-threonine (Liquid); method: spectrophotometric ninhydrin method
Temperature, K	Solvent: Mass fraction of ethanol	Mass fraction of L-threonine	uncertainty
298.15	0.8	0.00057	1e-05
298.15	1	4e-05	1e-05
313.15	0.8	0.00105	1e-05
313.15	1	5e-05	1e-05
333.15	0.8	0.00174	1e-05
333.15	1	9e-05	1e-05

System: propan-1-ol + L-threonine + water; phases: Liquid, Crystal
Fixed: Pressure, kPa = 101
Property: Mass fraction of L-threonine (Liquid); method: Density calibration data
Temperature, K	Solvent: Mass fraction of propan-1-ol	Mass fraction of L-threonine	uncertainty
298.15	0.1996	0.0407	0.00012
298.15	0.3998	0.02035	6e-05
298.15	0.6	0.00793	2e-05
313.15	0.2003	0.05612	0.00017
313.15	0.4	0.02951	9e-05
313.15	0.6	0.01072	3e-05
333.15	0.2	0.08291	0.00025
333.15	0.4	0.04477	0.00013
333.15	0.6	0.0163	5e-05

System: propan-1-ol + L-threonine + water; phases: Liquid, Crystal
Fixed: Pressure, kPa = 101
Property: Mass fraction of L-threonine (Liquid); method: spectrophotometric ninhydrin method
Temperature, K	Solvent: Mass fraction of propan-1-ol	Mass fraction of L-threonine	uncertainty
298.15	0.8	0.0013	1e-05
298.15	1	2e-05	1e-05
313.15	0.8	0.00144	1e-05
313.15	1	2e-05	1e-05
333.15	0.8	0.00218	1e-05
333.15	1	4e-05	1e-05

System: propan-2-ol + L-threonine + water; phases: Liquid, Crystal
Fixed: Pressure, kPa = 101
Property: Mass fraction of L-threonine (Liquid); method: Density calibration data
Temperature, K	Solvent: Mass fraction of propan-2-ol	Mass fraction of L-threonine	uncertainty
298.15	0.2	0.03379	0.0001
298.15	0.4001	0.01391	4e-05
298.15	0.6	0.00465	1e-05
313.15	0.2006	0.04903	0.00015
313.15	0.4	0.02134	6e-05
313.15	0.6	0.00697	2e-05
333.15	0.2	0.07364	0.00022
333.15	0.4001	0.0354	0.00011
333.15	0.6	0.01139	3e-05

System: propan-2-ol + L-threonine + water; phases: Liquid, Crystal
Fixed: Pressure, kPa = 101
Property: Mass fraction of L-threonine (Liquid); method: spectrophotometric ninhydrin method
Temperature, K	Solvent: Mass fraction of propan-2-ol	Mass fraction of L-threonine	uncertainty
298.15	0.8	0.00067	1e-05
298.15	1	1e-05	1e-05
313.15	0.8	0.00086	1e-05
313.15	1	1e-05	1e-05
333.15	0.8	0.00137	1e-05
333.15	1	1e-05	1e-05

System: ethanol + 2-amino-3-methylpentanoic acid + water; phases: Liquid, Crystal
Fixed: Pressure, kPa = 101
Property: Mass fraction of 2-amino-3-methylpentanoic acid (Liquid); method: Density calibration data
Temperature, K	Solvent: Mass fraction of ethanol	Mass fraction of 2-amino-3-methylpentanoic acid	uncertainty
298.15	0	0.0325	0.0001
298.15	0.0501	0.02832	9e-05
298.15	0.2	0.01702	5e-05
298.15	0.4001	0.01075	3e-05
298.15	0.6	0.00671	2e-05
313.15	0	0.03585	0.00011
313.15	0.2001	0.02338	7e-05
313.15	0.4002	0.01622	5e-05
313.15	0.6	0.01002	3e-05
333.15	0	0.04346	0.00013
333.15	0.2005	0.0342	0.0001
333.15	0.4	0.02663	8e-05
333.15	0.6	0.01627	5e-05

System: ethanol + 2-amino-3-methylpentanoic acid + water; phases: Liquid, Crystal
Fixed: Pressure, kPa = 101
Property: Mass fraction of 2-amino-3-methylpentanoic acid (Liquid); method: spectrophotometric ninhydrin method
Temperature, K	Solvent: Mass fraction of ethanol	Mass fraction of 2-amino-3-methylpentanoic acid	uncertainty
298.15	0.8002	0.00262	1e-05
298.15	1	0.00019	1e-05
313.15	0.8003	0.00415	1e-05
313.15	1	0.00044	1e-05
333.15	0.8	0.00469	2e-05
333.15	1	0.00059	1e-05

System: propan-1-ol + 2-amino-3-methylpentanoic acid + water; phases: Liquid, Crystal
Fixed: Pressure, kPa = 101
Property: Mass fraction of 2-amino-3-methylpentanoic acid (Liquid); method: Density calibration data
Temperature, K	Solvent: Mass fraction of propan-1-ol	Mass fraction of 2-amino-3-methylpentanoic acid	uncertainty
298.15	0.0501	0.02879	9e-05
298.15	0.2015	0.0207	6e-05
298.15	0.3999	0.01698	5e-05
298.15	0.6	0.01095	3e-05
313.15	0.2021	0.0272	8e-05
313.15	0.4008	0.02391	7e-05
313.15	0.6	0.0153	5e-05
333.15	0.1996	0.04064	0.00012
333.15	0.4	0.03601	0.00011
333.15	0.6001	0.02283	7e-05

System: propan-1-ol + 2-amino-3-methylpentanoic acid + water; phases: Liquid, Crystal
Fixed: Pressure, kPa = 101
Property: Mass fraction of 2-amino-3-methylpentanoic acid (Liquid); method: spectrophotometric ninhydrin method
Temperature, K	Solvent: Mass fraction of propan-1-ol	Mass fraction of 2-amino-3-methylpentanoic acid	uncertainty
298.15	0.8001	0.00429	1e-05
298.15	1	1e-05	1e-05
313.15	0.8	0.00501	2e-05
313.15	1	0.00016	1e-05
333.15	0.8	0.00577	2e-05
333.15	1	0.00023	1e-05

System: propan-2-ol + 2-amino-3-methylpentanoic acid + water; phases: Liquid, Crystal
Fixed: Pressure, kPa = 101
Property: Mass fraction of 2-amino-3-methylpentanoic acid (Liquid); method: Density calibration data
Temperature, K	Solvent: Mass fraction of propan-2-ol	Mass fraction of 2-amino-3-methylpentanoic acid	uncertainty
298.15	0.05	0.02803	8e-05
298.15	0.2	0.01613	5e-05
298.15	0.4	0.01097	3e-05
298.15	0.6	0.00647	2e-05
313.15	0.2013	0.02231	7e-05
313.15	0.4001	0.01665	5e-05
313.15	0.6	0.00948	3e-05
333.15	0.2001	0.03401	0.0001
333.15	0.4	0.02662	8e-05
333.15	0.6	0.01512	5e-05

System: propan-2-ol + 2-amino-3-methylpentanoic acid + water; phases: Liquid, Crystal
Fixed: Pressure, kPa = 101
Property: Mass fraction of 2-amino-3-methylpentanoic acid (Liquid); method: spectrophotometric ninhydrin method
Temperature, K	Solvent: Mass fraction of propan-2-ol	Mass fraction of 2-amino-3-methylpentanoic acid	uncertainty
298.15	0.8	0.00217	1e-05
298.15	1	2e-05	1e-05
313.15	0.8	0.00271	1e-05
313.15	1	5e-05	1e-05
333.15	0.8	0.00455	1e-05
333.15	1	8e-05	1e-05
