Measured thermophysical data. Thermo-chemical properties of aqueous solution containing ionic liquids 1. The heat of reaction mixed 1-methyl-3-butylimidazolium chloride with InCl3
Source: Fluid Phase Equilib., 2006, 10.1016/j.fluid.2005.11.015
Compound 1: 1-butyl-3-methylimidazolium tetrachloroindate, C8H15Cl4InN2, InChI=1S/C8H15N2.4ClH.In/c1-3-4-5-10-7-6-9(2)8-10;;;;;/h6-8H,3-5H2,1-2H3;4*1H;/q+1;;;;;+3/p-4
Compound 2: 1-butyl-3-methylimidazolium chloride, C8H15ClN2, InChI=1S/C8H15N2.ClH/c1-3-4-5-10-7-6-9(2)8-10;/h6-8H,3-5H2,1-2H3;1H/q+1;/p-1
Compound 3: water, H2O, InChI=1S/H2O/h1H2

System: 1-butyl-3-methylimidazolium chloride; phases: Crystal, Liquid, Air at 1 atmosphere
Property: Normal melting temperature, K (Crystal); method: VISOBS
Normal melting temperature, K	uncertainty
340.1	2

System: water + 1-butyl-3-methylimidazolium chloride; phases: Liquid
Fixed: Temperature, K = 298.15
Fixed: Pressure, kPa = 101
Property: Molar enthalpy of solution, kJ/mol (Liquid); method: ISOPERIBOL:UFactor:8
Molality, mol/kg of 1-butyl-3-methylimidazolium chloride	Molar enthalpy of solution, kJ/mol	uncertainty
0.007169	8.017	0.642
0.00857	7.696	0.616
0.009954	7.375	0.59
0.015	6.011	0.481
0.02002	5.716	0.457
0.02503	5.325	0.426
0.03004	4.935	0.395
0.04058	4.887	0.391
0.04462	4.617	0.37
0.04605	4.512	0.361
0.0505	4.864	0.389
0.06004	5.063	0.405
0.06998	4.721	0.378
0.07593	4.689	0.375
0.08617	4.789	0.383
0.08985	5.037	0.403
0.09602	4.881	0.391
0.09994	4.684	0.375

System: water + 1-butyl-3-methylimidazolium tetrachloroindate; phases: Liquid
Fixed: Temperature, K = 298.15
Fixed: Pressure, kPa = 101
Property: Molar enthalpy of solution, kJ/mol (Liquid); method: ISOPERIBOL:UFactor:2
Molality, mol/kg of 1-butyl-3-methylimidazolium tetrachloroindate	Molar enthalpy of solution, kJ/mol	uncertainty
0.007966	-58.97	1.179
0.008966	-56.91	1.138
0.009979	-54.98	1.1
0.01249	-54.15	1.083
0.015	-53.45	1.069
0.01751	-53.2	1.064
0.02	-52.95	1.059
0.02499	-52.79	1.056
0.03	-52.62	1.052
0.03503	-52.73	1.055
0.04	-52.6	1.052
0.04004	-52.72	1.054
0.04008	-52.84	1.057
0.04501	-52.55	1.051
0.05002	-52.49	1.05
0.055	-52.53	1.051
0.05999	-52.56	1.051
