Measured thermophysical data. Application of trihexyltetradecylphosphonium dicyanamide ionic liquid for various types of separations problems: Activity coefficients at infinite dilution measurements utilizing GLC method
Source: Fluid Phase Equilib., 2019, 10.1016/j.fluid.2019.03.023
Compound 1: tetradecyl(trihexyl)phosphonium dicyanamide, C34H68N3P, InChI=1S/C32H68P.C2N3/c1-5-9-13-17-18-19-20-21-22-23-24-28-32-33(29-25-14-10-6-2,30-26-15-11-7-3)31-27-16-12-8-4;3-1-5-2-4/h5-32H2,1-4H3;/q+1;-1, purity 98%
Compound 2: propan-1-ol, C3H8O, InChI=1S/C3H8O/c1-2-3-4/h4H,2-3H2,1H3, purity 99.7%
Compound 3: butan-1-ol, C4H10O, InChI=1S/C4H10O/c1-2-3-4-5/h5H,2-4H2,1H3, purity 99.8%
Compound 4: butanone, C4H8O, InChI=1S/C4H8O/c1-3-4(2)5/h3H2,1-2H3, purity 99%
Compound 5: 2,2-dimethylbutane, C6H14, InChI=1S/C6H14/c1-5-6(2,3)4/h5H2,1-4H3, purity 99%
Compound 6: pentane, C5H12, InChI=1S/C5H12/c1-3-5-4-2/h3-5H2,1-2H3, purity 99%
Compound 7: hexane, C6H14, InChI=1S/C6H14/c1-3-5-6-4-2/h3-6H2,1-2H3, purity 99%
Compound 8: heptane, C7H16, InChI=1S/C7H16/c1-3-5-7-6-4-2/h3-7H2,1-2H3, purity 99%
Compound 9: nonane, C9H20, InChI=1S/C9H20/c1-3-5-7-9-8-6-4-2/h3-9H2,1-2H3, purity 99%
Compound 10: decane, C10H22, InChI=1S/C10H22/c1-3-5-7-9-10-8-6-4-2/h3-10H2,1-2H3, purity 99%
Compound 11: 1-pentene, C5H10, InChI=1S/C5H10/c1-3-5-4-2/h3H,1,4-5H2,2H3, purity 99%
Compound 12: hex-1-ene, C6H12, InChI=1S/C6H12/c1-3-5-6-4-2/h3H,1,4-6H2,2H3, purity 99%
Compound 13: 1-heptene, C7H14, InChI=1S/C7H14/c1-3-5-7-6-4-2/h3H,1,4-7H2,2H3, purity 99%
Compound 14: 1-nonene, C9H18, InChI=1S/C9H18/c1-3-5-7-9-8-6-4-2/h3H,1,4-9H2,2H3, purity 99%
Compound 15: 1-decene, C10H20, InChI=1S/C10H20/c1-3-5-7-9-10-8-6-4-2/h3H,1,4-10H2,2H3, purity 99%
Compound 16: cyclohexene, C6H10, InChI=1S/C6H10/c1-2-4-6-5-3-1/h1-2H,3-6H2, purity 99%
Compound 17: cyclohexane, C6H12, InChI=1S/C6H12/c1-2-4-6-5-3-1/h1-6H2, purity 99%
Compound 18: cyclooctane, C8H16, InChI=1S/C8H16/c1-2-4-6-8-7-5-3-1/h1-8H2, purity 99%
Compound 19: 1-pentyne, C5H8, InChI=1S/C5H8/c1-3-5-4-2/h1H,4-5H2,2H3, purity 99%
Compound 20: 1-hexyne, C6H10, InChI=1S/C6H10/c1-3-5-6-4-2/h1H,4-6H2,2H3, purity 99%
Compound 21: 1-heptyne, C7H12, InChI=1S/C7H12/c1-3-5-7-6-4-2/h1H,4-7H2,2H3, purity 99%
Compound 22: benzene, C6H6, InChI=1S/C6H6/c1-2-4-6-5-3-1/h1-6H, purity 99%
Compound 23: toluene, C7H8, InChI=1S/C7H8/c1-7-5-3-2-4-6-7/h2-6H,1H3, purity 99%
Compound 24: ethylbenzene, C8H10, InChI=1S/C8H10/c1-2-8-6-4-3-5-7-8/h3-7H,2H2,1H3, purity 99.8%
Compound 25: 1,3-dimethylbenzene, C8H10, InChI=1S/C8H10/c1-7-4-3-5-8(2)6-7/h3-6H,1-2H3, purity 99%
Compound 26: 1,4-dimethylbenzene, C8H10, InChI=1S/C8H10/c1-7-3-5-8(2)6-4-7/h3-6H,1-2H3, purity 99%
Compound 27: 1,2-dimethylbenzene, C8H10, InChI=1S/C8H10/c1-7-5-3-4-6-8(7)2/h3-6H,1-2H3, purity 99%
Compound 28: methanol, CH4O, InChI=1S/CH4O/c1-2/h2H,1H3, purity 99.9%
Compound 29: ethanol, C2H6O, InChI=1S/C2H6O/c1-2-3/h3H,2H2,1H3, purity 99.8%
Compound 30: tetrahydrofuran, C4H8O, InChI=1S/C4H8O/c1-2-4-5-3-1/h1-4H2, purity 99%
Compound 31: acetonitrile, C2H3N, InChI=1S/C2H3N/c1-2-3/h1H3, purity 99.8%
Compound 32: thiophene, C4H4S, InChI=1S/C4H4S/c1-2-4-5-3-1/h1-4H, purity 99%
Compound 33: acetone, C3H6O, InChI=1S/C3H6O/c1-3(2)4/h1-2H3, purity 99.9%
Compound 34: water, H2O, InChI=1S/H2O/h1H2, purity 99.9%

System: tetradecyl(trihexyl)phosphonium dicyanamide + 2,2-dimethylbutane; phases: Liquid
Fixed: Mole fraction of 2,2-dimethylbutane = 0
Fixed: Pressure, kPa = 101.325
Property: Activity coefficient of 2,2-dimethylbutane (Liquid); method: Chromatography
Temperature, K	Activity coefficient of 2,2-dimethylbutane	uncertainty
313.15	1.114	0.114
323.15	1.196	0.123
333.15	1.276	0.131
343.15	1.351	0.139

System: tetradecyl(trihexyl)phosphonium dicyanamide + pentane; phases: Liquid
Fixed: Mole fraction of pentane = 0
Fixed: Pressure, kPa = 101.325
Property: Activity coefficient of pentane (Liquid); method: Chromatography
Temperature, K	Activity coefficient of pentane	uncertainty
313.15	1.001	0.102
323.15	1.065	0.108
333.15	1.121	0.114
343.15	1.185	0.121

System: tetradecyl(trihexyl)phosphonium dicyanamide + hexane; phases: Liquid
Fixed: Mole fraction of hexane = 0
Fixed: Pressure, kPa = 101.325
Property: Activity coefficient of hexane (Liquid); method: Chromatography
Temperature, K	Activity coefficient of hexane	uncertainty
313.15	1.164	0.119
323.15	1.236	0.127
333.15	1.32	0.136
343.15	1.39	0.143

System: tetradecyl(trihexyl)phosphonium dicyanamide + heptane; phases: Liquid
Fixed: Mole fraction of heptane = 0
Fixed: Pressure, kPa = 101.325
Property: Activity coefficient of heptane (Liquid); method: Chromatography
Temperature, K	Activity coefficient of heptane	uncertainty
313.15	1.357	0.14
323.15	1.434	0.148
333.15	1.518	0.157
343.15	1.613	0.168

System: tetradecyl(trihexyl)phosphonium dicyanamide + nonane; phases: Liquid
Fixed: Mole fraction of nonane = 0
Fixed: Pressure, kPa = 101.325
Property: Activity coefficient of nonane (Liquid); method: Chromatography
Temperature, K	Activity coefficient of nonane	uncertainty
313.15	1.802	0.188
323.15	1.926	0.202
333.15	2.088	0.219
343.15	2.242	0.235

System: tetradecyl(trihexyl)phosphonium dicyanamide + decane; phases: Liquid
Fixed: Mole fraction of decane = 0
Fixed: Pressure, kPa = 101.325
Property: Activity coefficient of decane (Liquid); method: Chromatography
Temperature, K	Activity coefficient of decane	uncertainty
313.15	2.189	0.23
323.15	2.339	0.246
333.15	2.535	0.266
343.15	2.743	0.288

System: tetradecyl(trihexyl)phosphonium dicyanamide + 1-pentene; phases: Liquid
Fixed: Mole fraction of 1-pentene = 0
Fixed: Pressure, kPa = 101.325
Property: Activity coefficient of 1-pentene (Liquid); method: Chromatography
Temperature, K	Activity coefficient of 1-pentene	uncertainty
313.15	0.796	0.082
323.15	0.858	0.088
333.15	0.922	0.094
343.15	0.994	0.101

System: tetradecyl(trihexyl)phosphonium dicyanamide + hex-1-ene; phases: Liquid
Fixed: Mole fraction of hex-1-ene = 0
Fixed: Pressure, kPa = 101.325
Property: Activity coefficient of hex-1-ene (Liquid); method: Chromatography
Temperature, K	Activity coefficient of hex-1-ene	uncertainty
313.15	0.915	0.093
323.15	0.979	0.1
333.15	1.057	0.108
343.15	1.113	0.114

System: tetradecyl(trihexyl)phosphonium dicyanamide + 1-heptene; phases: Liquid
Fixed: Mole fraction of 1-heptene = 0
Fixed: Pressure, kPa = 101.325
Property: Activity coefficient of 1-heptene (Liquid); method: Chromatography
Temperature, K	Activity coefficient of 1-heptene	uncertainty
313.15	1.093	0.111
323.15	1.13	0.115
333.15	1.173	0.12
343.15	1.224	0.126

System: tetradecyl(trihexyl)phosphonium dicyanamide + 1-nonene; phases: Liquid
Fixed: Mole fraction of 1-nonene = 0
Fixed: Pressure, kPa = 101.325
Property: Activity coefficient of 1-nonene (Liquid); method: Chromatography
Temperature, K	Activity coefficient of 1-nonene	uncertainty
313.15	1.412	0.146
323.15	1.532	0.159
333.15	1.668	0.174
343.15	1.82	0.19

System: tetradecyl(trihexyl)phosphonium dicyanamide + 1-decene; phases: Liquid
Fixed: Mole fraction of 1-decene = 0
Fixed: Pressure, kPa = 101.325
Property: Activity coefficient of 1-decene (Liquid); method: Chromatography
Temperature, K	Activity coefficient of 1-decene	uncertainty
313.15	1.585	0.165
323.15	1.77	0.185
333.15	1.978	0.207
343.15	2.19	0.23

System: tetradecyl(trihexyl)phosphonium dicyanamide + cyclohexene; phases: Liquid
Fixed: Mole fraction of cyclohexene = 0
Fixed: Pressure, kPa = 101.325
Property: Activity coefficient of cyclohexene (Liquid); method: Chromatography
Temperature, K	Activity coefficient of cyclohexene	uncertainty
313.15	0.647	0.068
323.15	0.709	0.074
333.15	0.76	0.079
343.15	0.813	0.084

System: tetradecyl(trihexyl)phosphonium dicyanamide + cyclohexane; phases: Liquid
Fixed: Mole fraction of cyclohexane = 0
Fixed: Pressure, kPa = 101.325
Property: Activity coefficient of cyclohexane (Liquid); method: Chromatography
Temperature, K	Activity coefficient of cyclohexane	uncertainty
313.15	0.733	0.076
323.15	0.78	0.081
333.15	0.832	0.085
343.15	0.901	0.092

System: tetradecyl(trihexyl)phosphonium dicyanamide + cyclooctane; phases: Liquid
Fixed: Mole fraction of cyclooctane = 0
Fixed: Pressure, kPa = 101.325
Property: Activity coefficient of cyclooctane (Liquid); method: Chromatography
Temperature, K	Activity coefficient of cyclooctane	uncertainty
313.15	0.89	0.091
323.15	0.928	0.095
333.15	0.978	0.099
343.15	1.052	0.107

System: tetradecyl(trihexyl)phosphonium dicyanamide + 1-pentyne; phases: Liquid
Fixed: Mole fraction of 1-pentyne = 0
Fixed: Pressure, kPa = 101.325
Property: Activity coefficient of 1-pentyne (Liquid); method: Chromatography
Temperature, K	Activity coefficient of 1-pentyne	uncertainty
313.15	0.413	0.048
323.15	0.465	0.052
333.15	0.547	0.059
343.15	0.619	0.066

System: tetradecyl(trihexyl)phosphonium dicyanamide + 1-hexyne; phases: Liquid
Fixed: Mole fraction of 1-hexyne = 0
Fixed: Pressure, kPa = 101.325
Property: Activity coefficient of 1-hexyne (Liquid); method: Chromatography
Temperature, K	Activity coefficient of 1-hexyne	uncertainty
313.15	0.442	0.05
323.15	0.513	0.056
333.15	0.593	0.063
343.15	0.669	0.07

System: tetradecyl(trihexyl)phosphonium dicyanamide + 1-heptyne; phases: Liquid
Fixed: Mole fraction of 1-heptyne = 0
Fixed: Pressure, kPa = 101.325
Property: Activity coefficient of 1-heptyne (Liquid); method: Chromatography
Temperature, K	Activity coefficient of 1-heptyne	uncertainty
313.15	0.485	0.054
323.15	0.57	0.061
333.15	0.644	0.068
343.15	0.721	0.075

System: tetradecyl(trihexyl)phosphonium dicyanamide + benzene; phases: Liquid
Fixed: Mole fraction of benzene = 0
Fixed: Pressure, kPa = 101.325
Property: Activity coefficient of benzene (Liquid); method: Chromatography
Temperature, K	Activity coefficient of benzene	uncertainty
313.15	0.319	0.04
323.15	0.363	0.044
333.15	0.403	0.047
343.15	0.44	0.05

System: tetradecyl(trihexyl)phosphonium dicyanamide + toluene; phases: Liquid
Fixed: Mole fraction of toluene = 0
Fixed: Pressure, kPa = 101.325
Property: Activity coefficient of toluene (Liquid); method: Chromatography
Temperature, K	Activity coefficient of toluene	uncertainty
313.15	0.419	0.048
323.15	0.458	0.051
333.15	0.489	0.054
343.15	0.523	0.057

System: tetradecyl(trihexyl)phosphonium dicyanamide + ethylbenzene; phases: Liquid
Fixed: Mole fraction of ethylbenzene = 0
Fixed: Pressure, kPa = 101.325
Property: Activity coefficient of ethylbenzene (Liquid); method: Chromatography
Temperature, K	Activity coefficient of ethylbenzene	uncertainty
313.15	0.567	0.061
323.15	0.606	0.064
333.15	0.653	0.069
343.15	0.7	0.073

System: tetradecyl(trihexyl)phosphonium dicyanamide + 1,3-dimethylbenzene; phases: Liquid
Fixed: Mole fraction of 1,3-dimethylbenzene = 0
Fixed: Pressure, kPa = 101.325
Property: Activity coefficient of 1,3-dimethylbenzene (Liquid); method: Chromatography
Temperature, K	Activity coefficient of 1,3-dimethylbenzene	uncertainty
313.15	0.633	0.067
323.15	0.654	0.069
333.15	0.689	0.072
343.15	0.716	0.075

System: tetradecyl(trihexyl)phosphonium dicyanamide + 1,4-dimethylbenzene; phases: Liquid
Fixed: Mole fraction of 1,4-dimethylbenzene = 0
Fixed: Pressure, kPa = 101.325
Property: Activity coefficient of 1,4-dimethylbenzene (Liquid); method: Chromatography
Temperature, K	Activity coefficient of 1,4-dimethylbenzene	uncertainty
313.15	0.602	0.064
323.15	0.64	0.068
333.15	0.68	0.071
343.15	0.706	0.074

System: tetradecyl(trihexyl)phosphonium dicyanamide + 1,2-dimethylbenzene; phases: Liquid
Fixed: Mole fraction of 1,2-dimethylbenzene = 0
Fixed: Pressure, kPa = 101.325
Property: Activity coefficient of 1,2-dimethylbenzene (Liquid); method: Chromatography
Temperature, K	Activity coefficient of 1,2-dimethylbenzene	uncertainty
313.15	0.525	0.057
323.15	0.566	0.061
333.15	0.613	0.065
343.15	0.651	0.069

System: tetradecyl(trihexyl)phosphonium dicyanamide + methanol; phases: Liquid
Fixed: Mole fraction of methanol = 0
Fixed: Pressure, kPa = 101.325
Property: Activity coefficient of methanol (Liquid); method: Chromatography
Temperature, K	Activity coefficient of methanol	uncertainty
313.15	0.306	0.04
323.15	0.323	0.041
333.15	0.344	0.042
343.15	0.361	0.044

System: tetradecyl(trihexyl)phosphonium dicyanamide + ethanol; phases: Liquid
Fixed: Mole fraction of ethanol = 0
Fixed: Pressure, kPa = 101.325
Property: Activity coefficient of ethanol (Liquid); method: Chromatography
Temperature, K	Activity coefficient of ethanol	uncertainty
313.15	0.339	0.042
323.15	0.359	0.043
333.15	0.383	0.045
343.15	0.401	0.047

System: tetradecyl(trihexyl)phosphonium dicyanamide + propan-1-ol; phases: Liquid
Fixed: Mole fraction of propan-1-ol = 0
Fixed: Pressure, kPa = 101.325
Property: Activity coefficient of propan-1-ol (Liquid); method: Chromatography
Temperature, K	Activity coefficient of propan-1-ol	uncertainty
313.15	0.396	0.046
323.15	0.41	0.047
333.15	0.424	0.049
343.15	0.443	0.05

System: tetradecyl(trihexyl)phosphonium dicyanamide + butan-1-ol; phases: Liquid
Fixed: Mole fraction of butan-1-ol = 0
Fixed: Pressure, kPa = 101.325
Property: Activity coefficient of butan-1-ol (Liquid); method: Chromatography
Temperature, K	Activity coefficient of butan-1-ol	uncertainty
313.15	0.421	0.048
323.15	0.445	0.05
333.15	0.453	0.051
343.15	0.47	0.052

System: tetradecyl(trihexyl)phosphonium dicyanamide + tetrahydrofuran; phases: Liquid
Fixed: Mole fraction of tetrahydrofuran = 0
Fixed: Pressure, kPa = 101.325
Property: Activity coefficient of tetrahydrofuran (Liquid); method: Chromatography
Temperature, K	Activity coefficient of tetrahydrofuran	uncertainty
313.15	0.351	0.043
323.15	0.365	0.044
333.15	0.384	0.045
343.15	0.404	0.047

System: tetradecyl(trihexyl)phosphonium dicyanamide + acetonitrile; phases: Liquid
Fixed: Mole fraction of acetonitrile = 0
Fixed: Pressure, kPa = 101.325
Property: Activity coefficient of acetonitrile (Liquid); method: Chromatography
Temperature, K	Activity coefficient of acetonitrile	uncertainty
313.15	0.574	0.062
323.15	0.6	0.064
333.15	0.624	0.066
343.15	0.651	0.069

System: tetradecyl(trihexyl)phosphonium dicyanamide + thiophene; phases: Liquid
Fixed: Mole fraction of thiophene = 0
Fixed: Pressure, kPa = 101.325
Property: Activity coefficient of thiophene (Liquid); method: Chromatography
Temperature, K	Activity coefficient of thiophene	uncertainty
313.15	0.372	0.044
323.15	0.383	0.045
333.15	0.412	0.048
343.15	0.429	0.049

System: tetradecyl(trihexyl)phosphonium dicyanamide + acetone; phases: Liquid
Fixed: Mole fraction of acetone = 0
Fixed: Pressure, kPa = 101.325
Property: Activity coefficient of acetone (Liquid); method: Chromatography
Temperature, K	Activity coefficient of acetone	uncertainty
313.15	0.35	0.043
323.15	0.363	0.044
333.15	0.383	0.045
343.15	0.405	0.047

System: tetradecyl(trihexyl)phosphonium dicyanamide + butanone; phases: Liquid
Fixed: Mole fraction of butanone = 0
Fixed: Pressure, kPa = 101.325
Property: Activity coefficient of butanone (Liquid); method: Chromatography
Temperature, K	Activity coefficient of butanone	uncertainty
313.15	0.422	0.048
323.15	0.448	0.051
333.15	0.478	0.053
343.15	0.513	0.056

System: tetradecyl(trihexyl)phosphonium dicyanamide + water; phases: Liquid
Fixed: Mole fraction of water = 0
Fixed: Pressure, kPa = 101.325
Property: Activity coefficient of water (Liquid); method: Chromatography
Temperature, K	Activity coefficient of water	uncertainty
313.15	1.954	0.205
323.15	1.823	0.191
333.15	1.725	0.18
343.15	1.603	0.167
