Measured thermophysical data. Vapor liquid equilibria for R22 +N,N-dimethylformamide system at temperatures from 283.15 to 363.15K
Source: Fluid Phase Equilib., 2008, 10.1016/j.fluid.2008.01.028
Compound 1: dimethylformamide, C3H7NO, InChI=1S/C3H7NO/c1-4(2)3-5/h3H,1-2H3, purity 99.99%
Compound 2: chlorodifluoromethane, CHClF2, InChI=1S/CHClF2/c2-1(3)4/h1H, purity 99.99%

System: dimethylformamide + chlorodifluoromethane; phases: Liquid, Gas
Property: Vapor or sublimation pressure, kPa (Liquid); method: EBULLIO:UFactor:16
Mole fraction of chlorodifluoromethane	Temperature, K	Vapor or sublimation pressure, kPa	uncertainty
0.0808	283.15	22.36	2.12
0.0808	293.15	30.53	2.81
0.0808	303.15	45.24	3.76
0.0808	313.15	53.32	4.73
0.0808	323.15	79.85	6.23
0.0808	333.15	112.94	8.43
0.0808	343.15	136.25	10.1
0.0808	353.15	143.49	11.03
0.0808	363.15	172.55	13.48
0.1724	283.15	38.21	3.26
0.1724	293.15	61.53	4.88
0.1724	303.15	78.89	5.98
0.1724	313.15	120.05	8.88
0.1724	323.15	145.81	10.41
0.1724	333.15	192.25	13.4
0.1724	343.15	233.04	15.93
0.1724	353.15	278.56	19.19
0.1724	363.15	340.53	23.24
0.2845	283.15	87.38	6.3
0.2845	293.15	131.89	9.24
0.2845	303.15	161.98	11.23
0.2845	313.15	240.75	16.12
0.2845	323.15	276.23	18.43
0.2845	333.15	350.98	23.06
0.2845	343.15	398.58	26.19
0.2845	353.15	495.45	32.3
0.2845	363.15	592.28	38.31
0.3601	283.15	122.36	8.56
0.3601	293.15	198.71	13.34
0.3601	303.15	244.51	16.35
0.3601	313.15	324.85	21.28
0.3601	323.15	379.03	24.84
0.3601	333.15	457.98	29.64
0.3601	343.15	549.58	35.37
0.3601	353.15	649.97	41.85
0.3601	363.15	745.81	47.56
0.4543	283.15	190.35	12.75
0.4543	293.15	270.51	17.74
0.4543	303.15	346.44	22.52
0.4543	313.15	440.16	28.48
0.4543	323.15	530.43	34.03
0.4543	333.15	610.43	39.12
0.4543	343.15	698.14	44.58
0.4543	353.15	870.35	55.22
0.4543	363.15	943.34	59.7
0.5661	283.15	272.24	17.79
0.5661	293.15	380.38	24.54
0.5661	303.15	472.08	30.36
0.5661	313.15	619.47	39.49
0.5661	323.15	690.55	43.89
0.5661	333.15	829.04	52.62
0.5661	343.15	954.23	60.43
0.5661	353.15	1090.26	68.73
0.5661	363.15	1189.94	74.96
0.6769	283.15	370.11	23.85
0.6769	293.15	500.53	31.99
0.6769	303.15	646.52	41.2
0.6769	313.15	783.68	49.64
0.6769	323.15	890.42	56.39
0.6769	333.15	1059.84	66.91
0.6769	343.15	1198.82	75.45
0.6769	353.15	1354.68	85.11
0.6769	363.15	1470.28	92.29
0.7715	283.15	465.06	29.71
0.7715	293.15	622.77	39.58
0.7715	303.15	806.12	51.01
0.7715	313.15	967.02	61.08
0.7715	323.15	1110.57	70.07
0.7715	333.15	1295.14	81.44
0.7715	343.15	1418.47	89.11
0.7715	353.15	1584.81	99.43
0.7715	363.15	1710.66	107.11
0.8888	283.15	580.45	36.8
0.8888	293.15	784.46	49.55
0.8888	303.15	998.23	62.82
0.8888	313.15	1208.07	75.89
0.8888	323.15	1390.13	87.28
0.8888	333.15	1565.85	98.08
0.8888	343.15	1738.25	108.9
0.8888	353.15	1927.22	120.61
