Measured thermophysical data. Solubility of salicylic acid in water + salt (NaCl, KCl, NaBr, Na2SO4 and K2SO4) at 293.5 to 313.3 K
Source: Fluid Phase Equilib., 2012, 10.1016/j.fluid.2012.06.024
Compound 1: 2-hydroxybenzoic acid, C7H6O3, InChI=1S/C7H6O3/c8-6-4-2-1-3-5(6)7(9)10/h1-4,8H,(H,9,10), purity 99.7%
Compound 2: sodium chloride, ClNa, InChI=1S/ClH.Na/h1H;/q;+1/p-1, purity 99.5%
Compound 3: potassium chloride, ClK, InChI=1S/ClH.K/h1H;/q;+1/p-1, purity 99.5%
Compound 4: sodium bromide, BrNa, InChI=1S/BrH.Na/h1H;/q;+1/p-1, purity 99.5%
Compound 5: potassium sulfate, K2O4S, InChI=1S/2K.H2O4S/c;;1-5(2,3)4/h;;(H2,1,2,3,4)/q2*+1;/p-2, purity 99.5%
Compound 6: water, H2O, InChI=1S/H2O/h1H2, purity 99.8%
Compound 7: sodium sulfate, Na2O4S, InChI=1S/2Na.H2O4S/c;;1-5(2,3)4/h;;(H2,1,2,3,4)/q2*+1;/p-2, purity 99.5%

System: 2-hydroxybenzoic acid + water; phases: Liquid, Crystal
Fixed: Pressure, kPa = 101
Property: Molality, mol/kg (Liquid); method: titration by NaOH
Temperature, K	Molality, mol/kg	uncertainty
302.5	0.0117	0.0012
313.4	0.018	0.0008

System: 2-hydroxybenzoic acid + sodium chloride + water; phases: Liquid, Crystal
Fixed: Pressure, kPa = 101
Property: Molality, mol/kg of 2-hydroxybenzoic acid (Liquid); method: titration by NaOH
Temperature, K	Solvent: Amount concentration (molarity), mol/dm3 of sodium chloride	Molality, mol/kg of 2-hydroxybenzoic acid	uncertainty
293.5	0.0341	0.0141	0.0024
293.5	0.3429	0.0052	0.0006
293.5	0.5038	0.0029	0.0001
303.5	0.0347	0.0188	0.0012
303.5	0.3447	0.0073	0.0004
303.5	0.5143	0.0063	0.002
313.4	0.0348	0.0266	0.0012
313.4	0.3431	0.0097	0.0008
313.4	0.5082	0.005	0.0004

System: 2-hydroxybenzoic acid + potassium chloride + water; phases: Liquid, Crystal
Fixed: Pressure, kPa = 101
Property: Molality, mol/kg of 2-hydroxybenzoic acid (Liquid); method: titration by NaOH
Temperature, K	Solvent: Amount concentration (molarity), mol/dm3 of potassium chloride	Molality, mol/kg of 2-hydroxybenzoic acid	uncertainty
293.5	0.0268	0.0141	0.0004
293.5	0.2681	0.0082	0.0008
293.5	0.4017	0.0061	0.0004
303.5	0.0268	0.0199	0.0008
303.5	0.2653	0.0121	0.0004
303.5	0.4003	0.0092	0.0028
313.3	0.0269	0.0284	0.0016
313.3	0.2679	0.0168	0.0004
313.3	0.4006	0.0128	0.0012

System: 2-hydroxybenzoic acid + sodium bromide + water; phases: Liquid, Crystal
Fixed: Pressure, kPa = 101
Property: Molality, mol/kg of 2-hydroxybenzoic acid (Liquid); method: titration by NaOH
Temperature, K	Solvent: Amount concentration (molarity), mol/dm3 of sodium bromide	Molality, mol/kg of 2-hydroxybenzoic acid	uncertainty
293.5	0.0207	0.0142	0.0008
293.5	0.1942	0.0088	0.0004
293.5	0.2905	0.0066	0.0004
303.5	0.0197	0.0209	0.0008
303.5	0.1933	0.0122	0.0008
303.5	0.2895	0.0092	0.0008
313.3	0.0198	0.0291	0.0012
313.3	0.1932	0.0172	0.0004
313.3	0.2912	0.0133	0.0008

System: 2-hydroxybenzoic acid + water + potassium sulfate; phases: Liquid, Crystal
Fixed: Pressure, kPa = 101
Property: Molality, mol/kg of 2-hydroxybenzoic acid (Liquid); method: titration by NaOH
Temperature, K	Solvent: Molality, mol/kg of potassium sulfate	Molality, mol/kg of 2-hydroxybenzoic acid	uncertainty
293.5	0.0121	0.0178	0.0008
293.5	0.0231	0.0186	0.0002
293.5	0.0348	0.019	0.002
303.5	0.0116	0.0256	0.0005
303.5	0.0234	0.0264	0.002
303.5	0.0347	0.0266	0.0005
313.3	0.0119	0.0378	0.0008
313.3	0.0229	0.0379	0.0012
313.3	0.0344	0.0387	0.0012

System: 2-hydroxybenzoic acid + water + sodium sulfate; phases: Liquid, Crystal
Fixed: Pressure, kPa = 101
Property: Molality, mol/kg of 2-hydroxybenzoic acid (Liquid); method: titration by NaOH
Temperature, K	Solvent: Amount concentration (molarity), mol/dm3 of sodium sulfate	Molality, mol/kg of 2-hydroxybenzoic acid	uncertainty
293.5	0.014	0.0164	0.0012
293.5	0.0282	0.0175	0.0016
293.5	0.0419	0.0137	0.002
303.5	0.0142	0.0284	0.0024
303.5	0.0288	0.0273	0.002
303.5	0.0427	0.025	0.0005
313.3	0.0144	0.0392	0.0012
313.3	0.0285	0.0372	0.0032
313.3	0.0424	0.0367	0.0036
