Measured thermophysical data. Osmotic and activity coefficients of glycine, dl-a-alanine and dl-a-aminobutyric acid in aqueous solutions at temperatures between 288.15 and 303.15 K
Source: Fluid Phase Equilib., 2006, 10.1016/j.fluid.2006.10.012
Compound 1: 2-aminoacetic acid, C2H5NO2, InChI=1S/C2H5NO2/c3-1-2(4)5/h1,3H2,(H,4,5), purity 99%
Compound 2: (.+-.)-.alpha.-aminobutyric acid, C4H9NO2, InChI=1S/C4H9NO2/c1-2-3(5)4(6)7/h3H,2,5H2,1H3,(H,6,7), purity 99%
Compound 3: DL-2-aminopropanoic acid, C3H7NO2, InChI=1S/C3H7NO2/c1-2(4)3(5)6/h2H,4H2,1H3,(H,5,6), purity 99%
Compound 4: water, H2O, InChI=1S/H2O/h1H2

System: 2-aminoacetic acid + water; phases: Liquid, Gas
Property: Osmotic coefficient (Liquid); method: ISOPIE
Temperature, K	Molality, mol/kg of 2-aminoacetic acid	Osmotic coefficient	uncertainty
288.15	0.2174	0.9554	0.0022
288.15	0.2178	0.9554	0.0022
288.15	0.3075	0.946	0.0027
288.15	0.3078	0.946	0.0027
288.15	0.5175	0.9341	0.0033
288.15	0.5178	0.934	0.0033
288.15	0.6241	0.9302	0.0035
288.15	0.6251	0.9302	0.0035
288.15	0.8647	0.9219	0.0039
288.15	0.8654	0.9219	0.0039
288.15	1.1931	0.9166	0.0042
288.15	1.1942	0.9166	0.0042
293.15	0.2074	0.9705	0.0015
293.15	0.2076	0.9705	0.0015
293.15	0.3572	0.9556	0.0022
293.15	0.3577	0.9555	0.0022
293.15	0.5277	0.9428	0.0029
293.15	0.5284	0.9428	0.0029
293.15	0.8498	0.9282	0.0036
293.15	0.8508	0.9282	0.0036
293.15	1.0269	0.924	0.0038
293.15	1.0276	0.924	0.0038
293.15	1.2981	0.9202	0.004
293.15	1.2987	0.9202	0.004
298.15	0.2274	0.9815	0.0009
298.15	0.2276	0.981	0.001
298.15	0.3213	0.9767	0.0012
298.15	0.3214	0.9764	0.0012
298.15	0.5417	0.9583	0.0021
298.15	0.7869	0.9461	0.0027
298.15	0.7878	0.945	0.0028
298.15	0.8048	0.9442	0.0028
298.15	0.8059	0.9432	0.0028
298.15	1.1393	0.9297	0.0035
298.15	1.1397	0.9295	0.0035
298.15	0.5417	0.9583	0.0021
303.15	0.203	0.9873	0.0006
303.15	0.2037	0.9872	0.0006
303.15	0.3379	0.9781	0.0011
303.15	0.3388	0.9781	0.0011
303.15	0.5346	0.966	0.0017
303.15	0.535	0.9659	0.0017
303.15	0.7489	0.9539	0.0023
303.15	0.7501	0.9538	0.0023
303.15	0.854	0.9483	0.0026
303.15	0.8547	0.9483	0.0026
303.15	1.0444	0.9384	0.0031
303.15	1.0451	0.9384	0.0031

System: (.+-.)-.alpha.-aminobutyric acid + water; phases: Liquid, Gas
Property: Osmotic coefficient (Liquid); method: ISOPIE
Temperature, K	Molality, mol/kg of (.+-.)-.alpha.-aminobutyric acid	Osmotic coefficient	uncertainty
288.15	0.2191	0.9642	0.0018
288.15	0.2194	0.9642	0.0018
288.15	0.3053	0.9569	0.0022
288.15	0.3055	0.9569	0.0022
288.15	0.5076	0.9529	0.0024
288.15	0.5082	0.953	0.0024
288.15	0.595	0.9567	0.0022
288.15	0.596	0.9567	0.0022
288.15	0.7815	0.9748	0.0013
288.15	0.7821	0.9749	0.0013
288.15	1.057	1.0249	0.0012
288.15	1.0586	1.0253	0.0013
293.15	0.2031	0.9894	0.0005
293.15	0.2034	0.9894	0.0005
293.15	0.3484	0.9811	0.0009
293.15	0.3492	0.9811	0.0009
293.15	0.508	0.9744	0.0013
293.15	0.5086	0.9744	0.0013
293.15	0.8066	0.9819	0.0009
293.15	0.8078	0.982	0.0009
293.15	0.9443	1.0001	0.0001
293.15	0.9453	1.0003	0.0001
293.15	1.139	1.0483	0.0024
293.15	1.1403	1.0487	0.0024
298.15	0.2217	1.0067	0.0003
298.15	0.2219	1.0058	0.0003
298.15	0.3106	1.0103	0.0005
298.15	0.3109	1.0093	0.0005
298.15	0.5105	1.0168	0.0008
298.15	0.5108	1.0163	0.0008
298.15	0.5636	1.0164	0.0008
298.15	0.5637	1.0162	0.0008
298.15	0.7428	1.0234	0.0012
298.15	0.7434	1.0226	0.0011
298.15	1.0223	1.0361	0.0018
298.15	1.0229	1.0355	0.0018
303.15	0.2054	1.0072	0.0004
303.15	0.206	1.0073	0.0004
303.15	0.3334	1.0133	0.0007
303.15	0.3335	1.0133	0.0007
303.15	0.5083	1.0187	0.0009
303.15	0.5087	1.0187	0.0009
303.15	0.7146	1.0248	0.0012
303.15	0.7157	1.0249	0.0012
303.15	0.8091	1.029	0.0015
303.15	0.8092	1.029	0.0015
303.15	1.0304	1.0456	0.0023
303.15	1.0309	1.0457	0.0023

System: DL-2-aminopropanoic acid + water; phases: Liquid, Gas
Property: Osmotic coefficient (Liquid); method: ISOPIE
Temperature, K	Molality, mol/kg of DL-2-aminopropanoic acid	Osmotic coefficient	uncertainty
288.15	0.2159	0.9497	0.0026
288.15	0.2163	0.9496	0.0026
288.15	0.3062	0.944	0.0027
288.15	0.3066	0.944	0.0027
288.15	0.5085	0.9513	0.0026
288.15	0.5093	0.9514	0.0026
288.15	0.6031	0.9603	0.0024
288.15	0.6037	0.9603	0.0024
288.15	0.8076	0.9837	0.0021
288.15	0.8082	0.9838	0.0021
288.15	1.0979	1.0141	0.0021
288.15	1.0982	1.0141	0.0021
293.15	0.2061	0.9725	0.0022
293.15	0.2068	0.9724	0.0022
293.15	0.3536	0.9656	0.0023
293.15	0.354	0.9656	0.0023
293.15	0.5134	0.9677	0.0022
293.15	0.5145	0.9677	0.0022
293.15	0.8192	0.9905	0.002
293.15	0.8199	0.9905	0.002
293.15	0.9719	1.0066	0.002
293.15	0.9725	1.0067	0.002
293.15	1.1851	1.0287	0.0023
293.15	1.1857	1.0287	0.0023
298.15	0.2238	0.9972	0.002
298.15	0.2243	0.9954	0.002
298.15	0.3134	0.9976	0.002
298.15	0.3135	0.9972	0.002
298.15	0.52	0.9983	0.002
298.15	0.5203	0.9977	0.002
298.15	0.5759	0.9986	0.002
298.15	0.5762	0.9982	0.002
298.15	0.7604	0.9998	0.002
298.15	0.7609	0.9991	0.002
298.15	1.0557	1.0034	0.002
298.15	1.0562	1.0029	0.002
303.15	0.207	1.0039	0.002
303.15	0.2076	1.0039	0.002
303.15	0.3362	1.0043	0.002
303.15	0.3364	1.0043	0.002
303.15	0.5119	1.0041	0.002
303.15	0.5129	1.0041	0.002
303.15	0.7159	1.0063	0.002
303.15	0.7166	1.0063	0.002
303.15	0.8218	1.0097	0.002
303.15	0.8221	1.0097	0.002
303.15	1.0376	1.0245	0.0022
303.15	1.0378	1.0245	0.0022
