Measured thermophysical data. Bubble temperature measurements on the binary mixtures formed by decane with a variety of compounds at 95.8 kPa
Source: Fluid Phase Equilib., 2005, 10.1016/j.fluid.2004.10.027
Compound 1: 1,3-dimethylbenzene, C8H10, InChI=1S/C8H10/c1-7-4-3-5-8(2)6-7/h3-6H,1-2H3
Compound 2: 1,4-dimethylbenzene, C8H10, InChI=1S/C8H10/c1-7-3-5-8(2)6-4-7/h3-6H,1-2H3
Compound 3: decane, C10H22, InChI=1S/C10H22/c1-3-5-7-9-10-8-6-4-2/h3-10H2,1-2H3
Compound 4: cyclohexanone, C6H10O, InChI=1S/C6H10O/c7-6-4-2-1-3-5-6/h1-5H2
Compound 5: 1,2-dimethoxyethane, C4H10O2, InChI=1S/C4H10O2/c1-5-3-4-6-2/h3-4H2,1-2H3
Compound 6: tetrahydrofuran, C4H8O, InChI=1S/C4H8O/c1-2-4-5-3-1/h1-4H2
Compound 7: 1,2-dimethylbenzene, C8H10, InChI=1S/C8H10/c1-7-5-3-4-6-8(7)2/h3-6H,1-2H3

System: 1,3-dimethylbenzene; phases: Liquid
Property: Refractive index (Na D-line) (Liquid); method: Standard Abbe refractometry
Temperature, K	Pressure, kPa	Refractive index (Na D-line)	uncertainty
298.15	101.325	1.4946	0.0007

System: 1,3-dimethylbenzene; phases: Liquid
Property: Mass density, kg/m3 (Liquid); method: VIBTUB:UFactor:16
Temperature, K	Pressure, kPa	Mass density, kg/m3	uncertainty
298.15	101.325	860.1	1.8

System: 1,3-dimethylbenzene; phases: Liquid, Gas
Property: Vapor or sublimation pressure, kPa (Liquid); method: EBULLIO:UFactor:32
Temperature, K	Vapor or sublimation pressure, kPa	uncertainty
410.35	95.8	4.8

System: 1,4-dimethylbenzene; phases: Liquid
Property: Refractive index (Na D-line) (Liquid); method: Standard Abbe refractometry
Temperature, K	Pressure, kPa	Refractive index (Na D-line)	uncertainty
298.15	101.325	1.4933	0.0007

System: 1,4-dimethylbenzene; phases: Liquid
Property: Mass density, kg/m3 (Liquid); method: VIBTUB:UFactor:16
Temperature, K	Pressure, kPa	Mass density, kg/m3	uncertainty
298.15	101.325	865.6	4.7

System: 1,4-dimethylbenzene; phases: Liquid, Gas
Property: Vapor or sublimation pressure, kPa (Liquid); method: EBULLIO:UFactor:32
Temperature, K	Vapor or sublimation pressure, kPa	uncertainty
409.35	95.8	4.8

System: decane; phases: Liquid
Property: Refractive index (Na D-line) (Liquid); method: Standard Abbe refractometry
Temperature, K	Pressure, kPa	Refractive index (Na D-line)	uncertainty
298.15	101.325	1.4097	0.0007

System: decane; phases: Liquid
Property: Mass density, kg/m3 (Liquid); method: VIBTUB:UFactor:16
Temperature, K	Pressure, kPa	Mass density, kg/m3	uncertainty
298.15	101.325	726.4	2.9

System: decane; phases: Liquid, Gas
Property: Vapor or sublimation pressure, kPa (Liquid); method: EBULLIO:UFactor:16
Temperature, K	Vapor or sublimation pressure, kPa	uncertainty
445.25	95.8	4.9

System: cyclohexanone; phases: Liquid
Property: Refractive index (Na D-line) (Liquid); method: Standard Abbe refractometry
Temperature, K	Pressure, kPa	Refractive index (Na D-line)	uncertainty
298.15	101.325	1.451	0.0007

System: cyclohexanone; phases: Liquid
Property: Mass density, kg/m3 (Liquid); method: VIBTUB:UFactor:16
Temperature, K	Pressure, kPa	Mass density, kg/m3	uncertainty
298.15	101.325	945.1	1.1

System: cyclohexanone; phases: Liquid, Gas
Property: Vapor or sublimation pressure, kPa (Liquid); method: EBULLIO:UFactor:32
Temperature, K	Vapor or sublimation pressure, kPa	uncertainty
426.45	95.8	4.8

System: 1,2-dimethoxyethane; phases: Liquid
Property: Refractive index (Na D-line) (Liquid); method: Standard Abbe refractometry
Temperature, K	Pressure, kPa	Refractive index (Na D-line)	uncertainty
298.15	101.325	1.3781	0.0007

System: 1,2-dimethoxyethane; phases: Liquid
Property: Mass density, kg/m3 (Liquid); method: VIBTUB:UFactor:16
Temperature, K	Pressure, kPa	Mass density, kg/m3	uncertainty
298.15	101.325	863.7	1.8

System: 1,2-dimethoxyethane; phases: Liquid, Gas
Property: Vapor or sublimation pressure, kPa (Liquid); method: EBULLIO:UFactor:32
Temperature, K	Vapor or sublimation pressure, kPa	uncertainty
357.05	95.8	4.8

System: tetrahydrofuran; phases: Liquid
Property: Refractive index (Na D-line) (Liquid); method: Standard Abbe refractometry
Temperature, K	Pressure, kPa	Refractive index (Na D-line)	uncertainty
298.15	101.325	1.4072	0.0007

System: tetrahydrofuran; phases: Liquid
Property: Mass density, kg/m3 (Liquid); method: VIBTUB:UFactor:16
Temperature, K	Pressure, kPa	Mass density, kg/m3	uncertainty
298.15	101.325	889.2	4.7

System: tetrahydrofuran; phases: Liquid, Gas
Property: Vapor or sublimation pressure, kPa (Liquid); method: EBULLIO:UFactor:32
Temperature, K	Vapor or sublimation pressure, kPa	uncertainty
337.55	95.8	4.8

System: 1,2-dimethylbenzene; phases: Liquid
Property: Refractive index (Na D-line) (Liquid); method: Standard Abbe refractometry
Temperature, K	Pressure, kPa	Refractive index (Na D-line)	uncertainty
298.15	101.325	1.503	0.0007

System: 1,2-dimethylbenzene; phases: Liquid
Property: Mass density, kg/m3 (Liquid); method: VIBTUB:UFactor:16
Temperature, K	Pressure, kPa	Mass density, kg/m3	uncertainty
298.15	101.325	875.9	1.7

System: 1,2-dimethylbenzene; phases: Liquid, Gas
Property: Vapor or sublimation pressure, kPa (Liquid); method: EBULLIO:UFactor:32
Temperature, K	Vapor or sublimation pressure, kPa	uncertainty
415.55	95.8	4.8

System: cyclohexanone + decane; phases: Liquid, Gas
Fixed: Pressure, kPa = 95.8
Property: Boiling temperature at pressure P, K (Liquid); method: EBULLIO:UFactor:32
Mole fraction of cyclohexanone	Boiling temperature at pressure P, K	uncertainty
0	445.25	1.01
0.135	437.65	1.01
0.319	433.75	1.01
0.439	432.05	1.01
0.789	428.45	1.01
0.918	427.35	1.01
1	426.45	1.01

System: 1,2-dimethoxyethane + decane; phases: Liquid, Gas
Fixed: Pressure, kPa = 95.8
Property: Boiling temperature at pressure P, K (Liquid); method: EBULLIO:UFactor:32
Mole fraction of 1,2-dimethoxyethane	Boiling temperature at pressure P, K	uncertainty
0	445.25	1.01
0.1351	411.25	1.01
0.3191	387.55	1.01
0.4386	377.95	1.01
0.7894	361.55	1.01
0.9163	358.65	1.01
1	357.05	1.01

System: tetrahydrofuran + decane; phases: Liquid, Gas
Fixed: Pressure, kPa = 95.8
Property: Boiling temperature at pressure P, K (Liquid); method: EBULLIO:UFactor:32
Mole fraction of tetrahydrofuran	Boiling temperature at pressure P, K	uncertainty
0	445.25	1.01
0.2859	380.85	1.01
0.4447	364.95	1.01
0.5457	357.55	1.01
0.7828	345.15	1.01
0.9057	340.95	1.01
1	337.55	1.01

System: 1,2-dimethylbenzene + decane; phases: Liquid, Gas
Fixed: Pressure, kPa = 95.8
Property: Boiling temperature at pressure P, K (Liquid); method: EBULLIO:UFactor:32
Mole fraction of 1,2-dimethylbenzene	Boiling temperature at pressure P, K	uncertainty
0	445.25	1.01
0.1816	434.95	1.01
0.2876	430.95	1.01
0.4468	427.35	1.01
0.7636	420.45	1.01
0.9064	417.45	1.01
1	415.55	1.01

System: 1,3-dimethylbenzene + decane; phases: Liquid, Gas
Fixed: Pressure, kPa = 95.8
Property: Boiling temperature at pressure P, K (Liquid); method: EBULLIO:UFactor:32
Mole fraction of 1,3-dimethylbenzene	Boiling temperature at pressure P, K	uncertainty
0	445.25	1.01
0.2091	441.55	1.01
0.3979	436.75	1.01
0.4805	434.05	1.01
0.6938	425.25	1.01
0.7986	420.05	1.01
1	410.35	1.01

System: 1,4-dimethylbenzene + decane; phases: Liquid, Gas
Fixed: Pressure, kPa = 95.8
Property: Boiling temperature at pressure P, K (Liquid); method: EBULLIO:UFactor:32
Mole fraction of 1,4-dimethylbenzene	Boiling temperature at pressure P, K	uncertainty
0	445.25	1.01
0.1694	436.35	1.01
0.3306	429.45	1.01
0.4088	426.45	1.01
0.6484	418.55	1.01
0.7344	416.05	1.01
0.8469	413.05	1.01
1	409.35	1.01
