Measured thermophysical data. Vapor pressures of dimethylcadmium, trimethylbismuth, and tris(dimethylamino)antimony
Source: Fluid Phase Equilib., 2013, 10.1016/j.fluid.2013.09.017
Compound 1: dimethylcadmium, C2H6Cd, InChI=1S/2CH3.Cd/h2*1H3;, purity 99.999%
Compound 2: trimethylbismuth, C3H9Bi, InChI=1S/3CH3.Bi/h3*1H3;, purity 99.999%
Compound 3: stibinetriamine, N,N,N',N',N'',N''-hexamethyl-, C6H18N3Sb, InChI=1S/3C2H6N.Sb/c3*1-3-2;/h3*1-2H3;/q3*-1;+3, purity 99.999%

System: dimethylcadmium; phases: Crystal, Gas
Property: Vapor or sublimation pressure, kPa (Crystal); method: Closed cell (Static) method
Temperature, K	Vapor or sublimation pressure, kPa	uncertainty
258.65	0.32775	0.00483
258.65	0.32788	0.00483
261.15	0.40339	0.00576
261.15	0.40331	0.00576
263.55	0.49496	0.00691
263.55	0.4947	0.00691
266.05	0.6063	0.00831
266.05	0.60621	0.00831
268.55	0.74387	0.00999
268.55	0.74323	0.00998

System: dimethylcadmium; phases: Liquid, Gas
Property: Vapor or sublimation pressure, kPa (Liquid); method: Closed cell (Static) method
Temperature, K	Vapor or sublimation pressure, kPa	uncertainty
271.05	0.90032	0.01193
271.05	0.90093	0.01194
273.55	1.0592	0.0139
278.45	1.4363	0.0175
278.45	1.4366	0.0175
283.45	1.9376	0.0223
283.45	1.938	0.0223
288.45	2.5757	0.0286
288.45	2.5748	0.0286
293.45	3.3831	0.0367
293.45	3.3836	0.0367
298.45	4.4009	0.047
298.45	4.4021	0.047
303.35	5.637	0.0595
303.35	5.6408	0.0595
308.25	7.1405	0.0748
308.25	7.1403	0.0748
313.35	9.062	0.0943
313.35	9.0604	0.0943
318.35	11.335	0.117
318.35	11.335	0.117

System: trimethylbismuth; phases: Liquid, Gas
Property: Vapor or sublimation pressure, kPa (Liquid); method: Closed cell (Static) method
Temperature, K	Vapor or sublimation pressure, kPa	uncertainty
258.35	0.47695	0.00667
258.35	0.47698	0.00667
263.35	0.66617	0.00897
263.35	0.66621	0.00897
268.45	0.91904	0.01211
268.45	0.91946	0.01212
273.45	1.2516	0.0162
273.45	1.252	0.0162
278.45	1.6777	0.0197
278.45	1.6796	0.0197
283.45	2.2237	0.0251
283.45	2.2246	0.0251
288.45	2.9158	0.0319
288.45	2.9142	0.0319
293.45	3.7755	0.0406
293.45	3.7771	0.0406
298.45	4.841	0.0514
298.45	4.8421	0.0514
303.35	6.1319	0.0645
303.35	6.1292	0.0644
308.35	7.7093	0.0805
308.35	7.7093	0.0805
313.35	9.5838	0.0993
313.35	9.5789	0.0992

System: stibinetriamine, N,N,N',N',N'',N''-hexamethyl-; phases: Liquid, Gas
Property: Vapor or sublimation pressure, kPa (Liquid); method: Closed cell (Static) method
Temperature, K	Vapor or sublimation pressure, kPa	uncertainty
263.55	0.00597	0.00028
263.55	0.00597	0.00028
268.45	0.00932	0.0004
268.45	0.00934	0.0004
273.45	0.01439	0.00055
273.45	0.01442	0.00055
278.45	0.02176	0.00067
278.45	0.02176	0.00067
283.45	0.0325	0.0009
283.45	0.03252	0.00086
288.45	0.04784	0.00113
288.45	0.04777	0.00113
293.45	0.06959	0.00151
293.45	0.06957	0.00151
298.35	0.09872	0.00202
298.35	0.09869	0.00202
303.35	0.13902	0.00245
303.35	0.13904	0.00245
308.35	0.19347	0.0031
308.35	0.19324	0.0031
313.35	0.26575	0.00399
313.35	0.26547	0.00398
318.35	0.36199	0.00517
318.35	0.36141	0.00516
323.35	0.48491	0.00666
323.35	0.48497	0.00666
