Measured thermophysical data. Phase equilibria of the ternary system vinyl acetate/(R,S)-1-phenylethanol/carbon dioxide at high pressure conditions
Source: Fluid Phase Equilib., 2008, 10.1016/j.fluid.2008.02.010
Compound 1: vinyl acetate, C4H6O2, InChI=1S/C4H6O2/c1-3-6-4(2)5/h3H,1H2,2H3
Compound 2: 1-phenylethanol, C8H10O, InChI=1S/C8H10O/c1-7(9)8-5-3-2-4-6-8/h2-7,9H,1H3
Compound 3: carbon dioxide, CO2, InChI=1S/CO2/c2-1-3

System: 1-phenylethanol + vinyl acetate + carbon dioxide; phases: Gas, Liquid
Property: Mole fraction of 1-phenylethanol (Gas); method: Chromatography
Property: Mole fraction of 1-phenylethanol (Liquid); method: Chromatography
Property: Mole fraction of vinyl acetate (Liquid); method: Chromatography
Temperature, K	Pressure, kPa	Mole fraction of vinyl acetate	Mole fraction of 1-phenylethanol	uncertainty	Mole fraction of 1-phenylethanol	uncertainty	Mole fraction of vinyl acetate	uncertainty
323	7000	0.0051	0.0004	0.0001	0.0818	0.0049	0.3128	
323	9000	0.0046	0.0008	0.0001	0.034	0.0021	0.1149	
323	7000	0.004	0.0003	0.0001	0.1166	0.007	0.3087	
323	9000	0.0037	0.0009	0.0001	0.0773	0.0047	0.126	
323	9000	0.0011	0.0008	0.0001	0.3753	0.0227	0.1536	
323	10000	0.0066	0.0066	0.0004	0.3193	0.0193	0.1999	
323	9000	0.0005	0.0006	0.0001	0.4141	0.025	0.1937	
323	10000	0.0011	0.0018	0.0001	0.4299	0.026	0.1221	
323	12000	0.0048	0.0096	0.0006	0.4188	0.0253	0.1109	
333	7000	0.002	0.0002	0.0001	0.0615	0.0037	0.2842	
333	9000	0.0014	0.0003	0.0001	0.1074	0.0065	0.169	
333	10000	0.004	0.0013	0.0001	0.0614	0.0037	0.1459	
333	7000	0.001	0.0002	0.0001	0.2404	0.0145	0.2318	
333	9000	0.0037	0.0007	0.0001	0.1597	0.0096	0.2753	
333	10000	0.0034	0.0015	0.0001	0.1124	0.0068	0.1568	
333	7000	0.0022	0.0003	0.0001	0.4575	0.0277	0.2979	
333	9000	0.0007	0.0003	0.0001	0.4498	0.0272	0.1587	
333	10000	0.0019	0.0014	0.0001	0.3606	0.0218	0.1702	
333	12000	0.0043	0.0053	0.0003	0.413	0.025	0.1449	
333	7000	0.0009	0.0001	0.0001	0.5498	0.0332	0.225	
333	9000	0.0003	0.0002	0.0001	0.4951	0.03	0.1632	
333	10000	0.0008	0.0014	0.0001	0.415	0.0251	0.1641	
333	12000	0.0015	0.0037	0.0002	0.3533	0.0214	0.1672	
343	7000	0.004	0.0003	0.0001	0.1317	0.008	0.4827	
343	9000	0.0024	0.0003	0.0001	0.1375	0.0083	0.2824	
343	10000	0.0043	0.0005	0.0001	0.0747	0.0045	0.1874	
343	7000	0.0027	0.0002	0.0001	0.1562	0.0094	0.3455	
343	9000	0.0038	0.0005	0.0001	0.1968	0.0119	0.2778	
343	10000	0.01	0.0015	0.0001	0.2575	0.0156	0.2143	
343	12000	0.0062	0.0051	0.0003	0.1448	0.0087	0.0875	
343	7000	0.0013	0.0004	0.0001	0.4217	0.0255	0.2098	
343	9000	0.0011	0.0002	0.0001	0.4076	0.0247	0.1967	
343	10000	0.0008	0.0004	0.0001	0.4091	0.0247	0.1669	
343	12000	0.0016	0.0029	0.0002	0.4183	0.0253	0.1868	
343	9000	0.0011	0.0008	0.0001	0.4668	0.0283	0.2102	
343	10000	0.0007	0.0007	0.0001	0.4607	0.0279	0.17	
343	12000	0.0012	0.0025	0.0002	0.393	0.0238	0.1858	
