Measured thermophysical data. Isobaric (vapor-liquid) equilibria for binary systems of methanol + 1-(methoxymethoxy)- propane and 1-propanol + 1-(methoxymethoxy)-propane at 101.33 kPa
Source: Fluid Phase Equilib., 2015, 10.1016/j.fluid.2015.07.017
Compound 1: methanol, CH4O, InChI=1S/CH4O/c1-2/h2H,1H3, purity 99.9%
Compound 2: propan-1-ol, C3H8O, InChI=1S/C3H8O/c1-2-3-4/h4H,2-3H2,1H3, purity 99.9%
Compound 3: 1-(methoxymethoxy)propane, C5H12O2, InChI=1S/C5H12O2/c1-3-4-7-5-6-2/h3-5H2,1-2H3, purity 99.9%

System: methanol; phases: Liquid, Gas
Property: Boiling temperature at pressure P, K (Liquid); method: Ebulliometric method (Recirculating still)
Pressure, kPa	Boiling temperature at pressure P, K	uncertainty
101.33	337.86	0.1

System: methanol; phases: Liquid
Property: Mass density, kg/m3 (Liquid); method: Pycnometric method
Temperature, K	Pressure, kPa	Mass density, kg/m3	uncertainty
293.15	101.325	791.1	0.7

System: methanol; phases: Liquid
Property: Refractive index (Na D-line) (Liquid); method: Standard Abbe refractometry
Temperature, K	Pressure, kPa	Refractive index (Na D-line)	uncertainty
298.15	101.325	1.3269	0.0007

System: propan-1-ol; phases: Liquid, Gas
Property: Boiling temperature at pressure P, K (Liquid); method: Ebulliometric method (Recirculating still)
Pressure, kPa	Boiling temperature at pressure P, K	uncertainty
101.33	370.35	0.1

System: propan-1-ol; phases: Liquid
Property: Mass density, kg/m3 (Liquid); method: Pycnometric method
Temperature, K	Pressure, kPa	Mass density, kg/m3	uncertainty
293.15	101.325	803.7	0.7

System: propan-1-ol; phases: Liquid
Property: Refractive index (Na D-line) (Liquid); method: Standard Abbe refractometry
Temperature, K	Pressure, kPa	Refractive index (Na D-line)	uncertainty
298.15	101.325	1.3836	0.0007

System: 1-(methoxymethoxy)propane; phases: Liquid, Gas
Property: Boiling temperature at pressure P, K (Liquid); method: Ebulliometric method (Recirculating still)
Pressure, kPa	Boiling temperature at pressure P, K	uncertainty
101.33	366.12	0.1

System: 1-(methoxymethoxy)propane; phases: Liquid
Property: Mass density, kg/m3 (Liquid); method: Pycnometric method
Temperature, K	Pressure, kPa	Mass density, kg/m3	uncertainty
293.15	101.325	841.4	0.8

System: 1-(methoxymethoxy)propane; phases: Liquid
Property: Refractive index (Na D-line) (Liquid); method: Standard Abbe refractometry
Temperature, K	Pressure, kPa	Refractive index (Na D-line)	uncertainty
298.15	101.325	1.3757	0.0007

System: 1-(methoxymethoxy)propane; phases: Liquid, Gas
Property: Boiling temperature at pressure P, K (Liquid); method: Ebulliometric method (Recirculating still)
Pressure, kPa	Boiling temperature at pressure P, K	uncertainty
8.17	303.12	0.11

System: 1-(methoxymethoxy)propane; phases: Liquid, Gas
Property: Boiling temperature at pressure P, K (Liquid); method: Ebulliometric method (Recirculating still)
Pressure, kPa	Boiling temperature at pressure P, K	uncertainty
12.41	311.15	0.11

System: 1-(methoxymethoxy)propane; phases: Liquid, Gas
Property: Boiling temperature at pressure P, K (Liquid); method: Ebulliometric method (Recirculating still)
Pressure, kPa	Boiling temperature at pressure P, K	uncertainty
18.11	319.18	0.1

System: 1-(methoxymethoxy)propane; phases: Liquid, Gas
Property: Boiling temperature at pressure P, K (Liquid); method: Ebulliometric method (Recirculating still)
Pressure, kPa	Boiling temperature at pressure P, K	uncertainty
26.67	327.96	0.1

System: 1-(methoxymethoxy)propane; phases: Liquid, Gas
Property: Boiling temperature at pressure P, K (Liquid); method: Ebulliometric method (Recirculating still)
Pressure, kPa	Boiling temperature at pressure P, K	uncertainty
36.4	335.82	0.1

System: 1-(methoxymethoxy)propane; phases: Liquid, Gas
Property: Boiling temperature at pressure P, K (Liquid); method: Ebulliometric method (Recirculating still)
Pressure, kPa	Boiling temperature at pressure P, K	uncertainty
44.6	341.26	0.1

System: 1-(methoxymethoxy)propane; phases: Liquid, Gas
Property: Boiling temperature at pressure P, K (Liquid); method: Ebulliometric method (Recirculating still)
Pressure, kPa	Boiling temperature at pressure P, K	uncertainty
53.33	346.32	0.1

System: 1-(methoxymethoxy)propane; phases: Liquid, Gas
Property: Boiling temperature at pressure P, K (Liquid); method: Ebulliometric method (Recirculating still)
Pressure, kPa	Boiling temperature at pressure P, K	uncertainty
59.35	349.4	0.1

System: 1-(methoxymethoxy)propane; phases: Liquid, Gas
Property: Boiling temperature at pressure P, K (Liquid); method: Ebulliometric method (Recirculating still)
Pressure, kPa	Boiling temperature at pressure P, K	uncertainty
69.65	354.22	0.1

System: 1-(methoxymethoxy)propane; phases: Liquid, Gas
Property: Boiling temperature at pressure P, K (Liquid); method: Ebulliometric method (Recirculating still)
Pressure, kPa	Boiling temperature at pressure P, K	uncertainty
79.9	358.4	0.1

System: 1-(methoxymethoxy)propane; phases: Liquid, Gas
Property: Boiling temperature at pressure P, K (Liquid); method: Ebulliometric method (Recirculating still)
Pressure, kPa	Boiling temperature at pressure P, K	uncertainty
87.9	361.48	0.1

System: 1-(methoxymethoxy)propane; phases: Liquid, Gas
Property: Boiling temperature at pressure P, K (Liquid); method: Ebulliometric method (Recirculating still)
Pressure, kPa	Boiling temperature at pressure P, K	uncertainty
94.9	363.97	0.1

System: 1-(methoxymethoxy)propane; phases: Liquid, Gas
Property: Boiling temperature at pressure P, K (Liquid); method: Ebulliometric method (Recirculating still)
Pressure, kPa	Boiling temperature at pressure P, K	uncertainty
101.33	366.12	0.1

System: 1-(methoxymethoxy)propane; phases: Liquid, Gas
Property: Boiling temperature at pressure P, K (Liquid); method: Ebulliometric method (Recirculating still)
Pressure, kPa	Boiling temperature at pressure P, K	uncertainty
112	369.29	0.1

System: methanol + 1-(methoxymethoxy)propane; phases: Liquid, Gas
Fixed: Pressure, kPa = 101
Property: Boiling temperature at pressure P, K (Liquid); method: Ebulliometric method (Recirculating still)
Mole fraction of methanol	Boiling temperature at pressure P, K	uncertainty
0	366.12	0.13
0.009	363.65	0.49
0.0168	362.15	0.39
0.0292	359.9	0.35
0.0468	357.24	0.28
0.0754	354.07	0.24
0.1129	350.34	0.2
0.1724	346.44	0.17
0.2351	343.75	0.15
0.3013	341.9	0.14
0.3634	340.62	0.13
0.4267	339.59	0.13
0.4989	338.77	0.13
0.5806	338.03	0.13
0.6534	337.55	0.13
0.6906	337.38	0.13
0.737	337.14	0.13
0.7801	337	0.13
0.8168	336.91	0.13
0.8328	336.88	0.13
0.8558	336.87	0.13
0.8863	336.91	0.13
0.9123	337.01	0.13
0.9505	337.24	0.13
0.9681	337.41	0.13
0.9866	337.66	0.13
0.9968	337.83	0.13
1	337.85	0.13

System: methanol + 1-(methoxymethoxy)propane; phases: Gas, Liquid
Fixed: Pressure, kPa = 101
Property: Mole fraction of methanol (Gas); method: Chromatography
Mole fraction of methanol	Mole fraction of methanol	uncertainty
0	0	
0.009	0.0649	0.0146
0.0168	0.121	0.0121
0.0292	0.1865	0.0101
0.0468	0.2686	0.008
0.0754	0.3611	0.0066
0.1129	0.4505	0.0056
0.1724	0.5349	0.0051
0.2351	0.5981	0.0043
0.3013	0.6381	0.0038
0.3634	0.669	0.0036
0.4267	0.6941	0.0034
0.4989	0.7175	0.0032
0.5806	0.7438	0.003
0.6534	0.7646	0.0029
0.6906	0.7785	0.0028
0.737	0.7948	0.0028
0.7801	0.8135	0.0027
0.8168	0.8309	0.0027
0.8328	0.8395	0.0027
0.8558	0.8531	0.0027
0.8863	0.873	0.0027
0.9123	0.893	0.0029
0.9505	0.9308	0.003
0.9681	0.9522	0.0034
0.9866	0.9787	0.0036
0.9968	0.9944	0.0037
1	1	

System: propan-1-ol + 1-(methoxymethoxy)propane; phases: Liquid, Gas
Fixed: Pressure, kPa = 101
Property: Boiling temperature at pressure P, K (Liquid); method: Ebulliometric method (Recirculating still)
Mole fraction of propan-1-ol	Boiling temperature at pressure P, K	uncertainty
0	366.12	0.13
0.0271	365.27	0.14
0.0645	364.59	0.13
0.1021	363.99	0.13
0.1302	363.6	0.13
0.1697	363.25	0.13
0.2216	363	0.13
0.2764	362.75	0.13
0.3195	362.71	0.13
0.3622	362.7	0.13
0.4128	362.73	0.13
0.4679	362.86	0.13
0.5155	363.05	0.13
0.5587	363.29	0.13
0.6007	363.56	0.13
0.639	363.86	0.13
0.6889	364.27	0.13
0.7302	364.68	0.13
0.7667	365.16	0.13
0.802	365.66	0.13
0.8481	366.47	0.13
0.8812	367.11	0.13
0.9126	367.81	0.14
0.939	368.48	0.14
0.9659	369.27	0.14
0.9799	369.71	0.14
0.9914	370.12	0.14
1	370.35	0.13

System: propan-1-ol + 1-(methoxymethoxy)propane; phases: Gas, Liquid
Fixed: Pressure, kPa = 101
Property: Mole fraction of propan-1-ol (Gas); method: Chromatography
Mole fraction of propan-1-ol	Mole fraction of propan-1-ol	uncertainty
0	0	
0.0271	0.0424	0.0036
0.0645	0.0955	0.0034
0.1021	0.1424	0.0033
0.1302	0.1726	0.0032
0.1697	0.2096	0.0033
0.2216	0.2599	0.0035
0.2764	0.3038	0.0036
0.3195	0.3353	0.0038
0.3622	0.3644	0.0039
0.4128	0.3982	0.0041
0.4679	0.4333	0.0044
0.5155	0.4648	0.0046
0.5587	0.4947	0.0049
0.6007	0.5235	0.0047
0.639	0.5523	0.0045
0.6889	0.5869	0.0043
0.7302	0.6182	0.0042
0.7667	0.6542	0.0041
0.802	0.6885	0.004
0.8481	0.7466	0.0039
0.8812	0.7887	0.0038
0.9126	0.8348	0.0039
0.939	0.8774	0.0041
0.9659	0.9275	0.0043
0.9799	0.9547	0.0046
0.9914	0.9802	0.0049
1	1	
