Measured thermophysical data. On the solid-liquid equilibrium of binary mixtures of fatty alcohols and fatty acids
Source: Fluid Phase Equilib., 2014, 10.1016/j.fluid.2014.01.004
Compound 1: dodecanoic acid, C12H24O2, InChI=1S/C12H24O2/c1-2-3-4-5-6-7-8-9-10-11-12(13)14/h2-11H2,1H3,(H,13,14), purity 99%
Compound 2: tetradecanoic acid, C14H28O2, InChI=1S/C14H28O2/c1-2-3-4-5-6-7-8-9-10-11-12-13-14(15)16/h2-13H2,1H3,(H,15,16), purity 99%
Compound 3: hexadecanoic acid, C16H32O2, InChI=1S/C16H32O2/c1-2-3-4-5-6-7-8-9-10-11-12-13-14-15-16(17)18/h2-15H2,1H3,(H,17,18), purity 99%
Compound 4: 1-tetradecanol, C14H30O, InChI=1S/C14H30O/c1-2-3-4-5-6-7-8-9-10-11-12-13-14-15/h15H,2-14H2,1H3, purity 99%
Compound 5: 1-hexadecanol, C16H34O, InChI=1S/C16H34O/c1-2-3-4-5-6-7-8-9-10-11-12-13-14-15-16-17/h17H,2-16H2,1H3, purity 99%
Compound 6: 1-octadecanol, C18H38O, InChI=1S/C18H38O/c1-2-3-4-5-6-7-8-9-10-11-12-13-14-15-16-17-18-19/h19H,2-18H2,1H3, purity 99%

System: dodecanoic acid; phases: Crystal 2, Crystal 1, Air at 1 atmosphere
Property: Triple point temperature, K (Crystal 2); method: DTA
Triple point temperature, K	uncertainty
317.9	0.6

System: dodecanoic acid; phases: Crystal 2, Liquid, Air at 1 atmosphere
Property: Molar enthalpy of transition or fusion, kJ/mol (Crystal 2); method: DSC
Molar enthalpy of transition or fusion, kJ/mol	uncertainty
35.6	1.4

System: dodecanoic acid; phases: Crystal 1, Liquid, Air at 1 atmosphere
Property: Triple point temperature, K (Crystal 1); method: DTA
Triple point temperature, K	uncertainty
318.29	0.41

System: tetradecanoic acid; phases: Crystal 1, Liquid, Air at 1 atmosphere
Property: Triple point temperature, K (Crystal 1); method: DTA
Triple point temperature, K	uncertainty
328.13	0.48

System: tetradecanoic acid; phases: Crystal 2, Liquid, Air at 1 atmosphere
Property: Molar enthalpy of transition or fusion, kJ/mol (Crystal 2); method: DSC
Molar enthalpy of transition or fusion, kJ/mol	uncertainty
43.8	1.8

System: tetradecanoic acid; phases: Crystal 2, Crystal 1, Air at 1 atmosphere
Property: Triple point temperature, K (Crystal 2); method: DTA
Triple point temperature, K	uncertainty
327.65	0.48

System: hexadecanoic acid; phases: Crystal, Liquid, Air at 1 atmosphere
Property: Triple point temperature, K (Crystal); method: DTA
Triple point temperature, K	uncertainty
336.34	0.63

System: hexadecanoic acid; phases: Crystal, Liquid, Air at 1 atmosphere
Property: Molar enthalpy of transition or fusion, kJ/mol (Crystal); method: DSC
Molar enthalpy of transition or fusion, kJ/mol	uncertainty
53.3	2.4

System: 1-tetradecanol; phases: Crystal 1, Liquid, Air at 1 atmosphere
Property: Triple point temperature, K (Crystal 1); method: DTA
Triple point temperature, K	uncertainty
311.39	0.39

System: 1-tetradecanol; phases: Crystal 2, Liquid, Air at 1 atmosphere
Property: Molar enthalpy of transition or fusion, kJ/mol (Crystal 2); method: DSC
Molar enthalpy of transition or fusion, kJ/mol	uncertainty
47.6	2.2

System: 1-tetradecanol; phases: Crystal 2, Crystal 1, Air at 1 atmosphere
Property: Triple point temperature, K (Crystal 2); method: DTA
Triple point temperature, K	uncertainty
310.45	0.41

System: 1-hexadecanol; phases: Crystal 1, Liquid, Air at 1 atmosphere
Property: Triple point temperature, K (Crystal 1); method: DTA
Triple point temperature, K	uncertainty
323.17	0.41

System: 1-hexadecanol; phases: Crystal 2, Liquid, Air at 1 atmosphere
Property: Molar enthalpy of transition or fusion, kJ/mol (Crystal 2); method: DSC
Molar enthalpy of transition or fusion, kJ/mol	uncertainty
56.4	3.2

System: 1-hexadecanol; phases: Crystal 2, Crystal 1, Air at 1 atmosphere
Property: Triple point temperature, K (Crystal 2); method: DTA
Triple point temperature, K	uncertainty
322.27	0.49

System: 1-octadecanol; phases: Crystal 1, Liquid, Air at 1 atmosphere
Property: Triple point temperature, K (Crystal 1); method: DTA
Triple point temperature, K	uncertainty
331.82	0.49

System: 1-octadecanol; phases: Crystal 2, Liquid, Air at 1 atmosphere
Property: Molar enthalpy of transition or fusion, kJ/mol (Crystal 2); method: DSC
Molar enthalpy of transition or fusion, kJ/mol	uncertainty
65.4	3.8

System: 1-octadecanol; phases: Crystal 2, Crystal 1, Air at 1 atmosphere
Property: Triple point temperature, K (Crystal 2); method: DTA
Triple point temperature, K	uncertainty
330.97	0.39

System: 1-tetradecanol + dodecanoic acid; phases: Crystal, Crystal, Liquid, Air at 1 atmosphere
Property: Eutectic temperature, K (Crystal); method: DTA
Eutectic temperature, K	uncertainty
299.64	0.6

System: 1-tetradecanol + dodecanoic acid; phases: Crystal, Liquid
Fixed: Pressure, kPa = 94.6
Property: Solid-liquid equilibrium temperature, K (Crystal); method: DTA
Mole fraction of 1-tetradecanol	Solid-liquid equilibrium temperature, K	uncertainty
0	318.29	0.7
0.1031	314.98	0.7
0.2005	312.7	0.7
0.299	309.26	0.7
0.4007	306.95	0.7
0.4996	303.79	0.7
0.5484	301.61	0.7
0.6018	299.52	0.7

System: 1-tetradecanol + dodecanoic acid; phases: Crystal, Liquid
Fixed: Pressure, kPa = 94.6
Property: Solid-liquid equilibrium temperature, K (Crystal); method: DTA
Mole fraction of 1-tetradecanol	Solid-liquid equilibrium temperature, K	uncertainty
0.6018	299.52	0.7
0.6273	301.12	0.7
0.6499	301.41	0.7
0.6996	303.77	0.7
0.799	306.44	0.7
0.9002	308.99	0.7
1	311.39	0.7

System: tetradecanoic acid + 1-hexadecanol; phases: Crystal, Crystal, Liquid, Air at 1 atmosphere
Property: Eutectic temperature, K (Crystal); method: DTA
Eutectic temperature, K	uncertainty
312.46	0.6

System: tetradecanoic acid + 1-hexadecanol; phases: Crystal, Liquid
Fixed: Pressure, kPa = 94.6
Property: Solid-liquid equilibrium temperature, K (Crystal); method: DTA
Mole fraction of 1-hexadecanol	Solid-liquid equilibrium temperature, K	uncertainty
0	328.13	0.7
0.0982	325.88	0.7
0.1993	323.76	0.7
0.3042	321.8	0.7
0.3981	318.78	0.7
0.502	315.2	0.7
0.5497	312.06	0.7

System: tetradecanoic acid + 1-hexadecanol; phases: Crystal, Liquid
Fixed: Pressure, kPa = 94.6
Property: Solid-liquid equilibrium temperature, K (Crystal); method: DTA
Mole fraction of 1-hexadecanol	Solid-liquid equilibrium temperature, K	uncertainty
0.5497	312.06	0.7
0.6004	313.56	0.7
0.6506	314.21	0.7
0.7152	316.32	0.7
0.7951	319.19	0.7
0.8994	320.91	0.7
1	323.17	0.7

System: hexadecanoic acid + 1-octadecanol; phases: Crystal, Crystal, Liquid, Air at 1 atmosphere
Property: Eutectic temperature, K (Crystal); method: DTA
Eutectic temperature, K	uncertainty
322.15	0.6

System: hexadecanoic acid + 1-octadecanol; phases: Crystal, Liquid
Fixed: Pressure, kPa = 94.6
Property: Solid-liquid equilibrium temperature, K (Crystal); method: DTA
Mole fraction of 1-octadecanol	Solid-liquid equilibrium temperature, K	uncertainty
0	336.34	0.7
0.0965	334.09	0.7
0.1981	332.36	0.7
0.301	330.39	0.7
0.3992	327.63	0.7
0.4506	325.29	0.7
0.4999	322.8	0.7

System: hexadecanoic acid + 1-octadecanol; phases: Crystal, Liquid
Fixed: Pressure, kPa = 94.6
Property: Solid-liquid equilibrium temperature, K (Crystal); method: DTA
Mole fraction of 1-octadecanol	Solid-liquid equilibrium temperature, K	uncertainty
0.5534	322.15	0.7
0.5978	323.64	0.7
0.701	326	0.7
0.7993	327.82	0.7
0.899	329.93	0.7
0.9508	330.65	0.7
1	331.82	0.7
