Measured thermophysical data. Experimental and VTPR-predicted volumetric properties of branched hexanes
Source: Fluid Phase Equilib., 2013, 10.1016/j.fluid.2012.11.013
Compound 1: 2,2-dimethylbutane, C6H14, InChI=1S/C6H14/c1-5-6(2,3)4/h5H2,1-4H3, purity 99%
Compound 2: 2,3-dimethylbutane, C6H14, InChI=1S/C6H14/c1-5(2)6(3)4/h5-6H,1-4H3, purity 99%
Compound 3: 2-methylpentane, C6H14, InChI=1S/C6H14/c1-4-5-6(2)3/h6H,4-5H2,1-3H3, purity 99%
Compound 4: 3-methylpentane, C6H14, InChI=1S/C6H14/c1-4-6(3)5-2/h6H,4-5H2,1-3H3, purity 99%

System: 2,2-dimethylbutane; phases: Liquid
Property: Mass density, kg/m3 (Liquid); method: Vibrating tube method
Pressure, kPa	Temperature, K	Mass density, kg/m3	uncertainty
100	283.15	658.57	0.3
100	288.15	653.96	0.3
100	293.15	649.25	0.31
100	298.15	644.46	0.31
100	303.15	639.75	0.31
100	308.15	634.86	0.31
100	313.15	630.04	0.31
100	318.15	625.06	0.31
100	323.15	620.03	0.31
2000	283.15	660.76	0.32
2000	288.15	656.25	0.32
2000	293.15	651.6	0.32
2000	298.15	646.95	0.32
2000	303.15	642.26	0.32
2000	308.15	637.48	0.33
2000	313.15	632.76	0.33
2000	318.15	627.98	0.33
2000	323.15	623.17	0.33
2000	328.15	618.2	0.33
5000	283.15	664.07	0.35
5000	288.15	659.62	0.35
5000	293.15	655.12	0.35
5000	298.15	650.7	0.35
5000	303.15	646.07	0.35
5000	308.15	641.54	0.36
5000	313.15	637.06	0.36
5000	318.15	632.33	0.36
5000	323.15	627.74	0.36
5000	328.15	623.02	0.36
7000	283.15	666.19	0.37
7000	288.15	661.74	0.37
7000	293.15	657.45	0.37
7000	298.15	653.04	0.37
7000	303.15	648.58	0.37
7000	308.15	644.04	0.38
7000	313.15	639.66	0.38
7000	318.15	635.14	0.38
7000	323.15	630.61	0.38
7000	328.15	626.02	0.38
10000	283.15	669.19	0.4
10000	288.15	664.88	0.4
10000	293.15	660.66	0.4
10000	298.15	656.38	0.4
10000	303.15	652.04	0.4
10000	308.15	647.69	0.41
10000	313.15	643.44	0.41
10000	318.15	639.02	0.41
10000	323.15	634.54	0.41
10000	328.15	630.26	0.41
20000	283.15	678.5	0.5
20000	288.15	674.51	0.5
20000	293.15	670.51	0.5
20000	298.15	666.62	0.51
20000	303.15	662.53	0.51
20000	308.15	658.58	0.51
20000	313.15	654.67	0.52
20000	318.15	650.69	0.52
20000	323.15	646.65	0.52
20000	328.15	642.58	0.53
30000	283.15	686.83	0.61
30000	288.15	683.05	0.61
30000	293.15	679.25	0.62
30000	298.15	675.66	0.62
30000	303.15	671.8	0.63
30000	308.15	668.08	0.63
30000	313.15	664.53	0.64
30000	318.15	660.78	0.64
30000	323.15	656.94	0.65
30000	328.15	653.14	0.65
40000	283.15	694.31	0.72
40000	288.15	690.77	0.72
40000	293.15	687.12	0.73
40000	298.15	683.71	0.74
40000	303.15	680.03	0.74
40000	308.15	676.55	0.75
40000	313.15	673.1	0.75
40000	318.15	669.72	0.76
40000	323.15	666.02	0.77
40000	328.15	662.51	0.77
50000	283.15	701.27	0.82
50000	288.15	697.81	0.83
50000	293.15	694.34	0.84
50000	298.15	691.09	0.84
50000	303.15	687.56	0.85
50000	308.15	684.38	0.86
50000	313.15	680.94	0.86
50000	318.15	677.73	0.87
50000	323.15	674.2	0.88
50000	328.15	670.88	0.88
60000	283.15	707.71	0.92
60000	288.15	704.32	0.93
60000	293.15	701.07	0.94
60000	298.15	697.88	0.95
60000	303.15	694.57	0.95
60000	308.15	691.41	0.96
60000	313.15	688.22	0.97
60000	318.15	685.05	0.98
60000	323.15	681.7	0.99
60000	328.15	678.64	0.99
65000	283.15	710.76	0.97
65000	288.15	707.61	0.98
65000	293.15	704.25	0.99
65000	298.15	701.14	1
65000	303.15	697.92	1
65000	308.15	695.23	1.01
65000	313.15	691.61	1.02
65000	318.15	688.58	1.03
65000	323.15	685.35	1.04
65000	328.15	682.59	1.05

System: 2,3-dimethylbutane; phases: Liquid
Property: Mass density, kg/m3 (Liquid); method: Vibrating tube method
Pressure, kPa	Temperature, K	Mass density, kg/m3	uncertainty
100	283.15	670.76	0.3
100	288.15	666.22	0.3
100	293.15	661.58	0.3
100	298.15	657	0.3
100	303.15	652.31	0.31
100	308.15	647.61	0.31
100	313.15	642.78	0.31
100	318.15	638.08	0.31
100	323.15	633.18	0.31
100	328.15	628.26	0.31
2000	283.15	672.72	0.32
2000	288.15	668.35	0.32
2000	293.15	663.76	0.32
2000	298.15	659.21	0.32
2000	303.15	654.73	0.32
2000	308.15	650.13	0.32
2000	313.15	645.28	0.32
2000	318.15	640.8	0.32
2000	323.15	636.04	0.33
2000	328.15	631.14	0.33
5000	283.15	675.8	0.35
5000	288.15	671.5	0.35
5000	293.15	667.04	0.35
5000	298.15	662.62	0.35
5000	303.15	658.23	0.35
5000	308.15	653.82	0.35
5000	313.15	649.18	0.35
5000	318.15	644.77	0.35
5000	323.15	640.11	0.36
5000	328.15	635.61	0.36
7000	283.15	677.77	0.37
7000	288.15	673.5	0.37
7000	293.15	669.15	0.37
7000	298.15	664.81	0.37
7000	303.15	660.39	0.37
7000	308.15	656.12	0.37
7000	313.15	651.62	0.37
7000	318.15	647.3	0.37
7000	323.15	642.73	0.38
7000	328.15	638.3	0.38
10000	283.15	680.57	0.39
10000	288.15	676.37	0.39
10000	293.15	672.12	0.4
10000	298.15	667.97	0.4
10000	303.15	663.63	0.4
10000	308.15	659.42	0.4
10000	313.15	655.04	0.4
10000	318.15	650.89	0.41
10000	323.15	646.47	0.41
10000	328.15	642.27	0.41
20000	283.15	689.26	0.49
20000	288.15	685.39	0.49
20000	293.15	681.36	0.49
20000	298.15	677.49	0.5
20000	303.15	673.54	0.5
20000	308.15	669.63	0.5
20000	313.15	665.61	0.51
20000	318.15	661.8	0.51
20000	323.15	657.61	0.51
20000	328.15	653.85	0.52
30000	283.15	697.12	0.6
30000	288.15	693.43	0.6
30000	293.15	689.64	0.61
30000	298.15	686.05	0.61
30000	303.15	682.15	0.62
30000	308.15	678.59	0.62
30000	313.15	674.74	0.63
30000	318.15	671.23	0.63
30000	323.15	667.06	0.63
30000	328.15	663.86	0.64
40000	283.15	704.27	0.7
40000	288.15	700.77	0.71
40000	293.15	697.12	0.71
40000	298.15	693.73	0.72
40000	303.15	690.01	0.73
40000	308.15	686.72	0.73
40000	313.15	683.04	0.74
40000	318.15	679.58	0.74
40000	323.15	676.08	0.75
40000	328.15	672.8	0.75
50000	283.15	710.91	0.8
50000	288.15	707.56	0.81
50000	293.15	704.07	0.82
50000	298.15	700.78	0.82
50000	303.15	697.16	0.83
50000	308.15	694.02	0.84
50000	313.15	690.56	0.84
50000	318.15	687.47	0.85
50000	323.15	684.13	0.86
50000	328.15	680.68	0.86
60000	283.15	717.08	0.9
60000	288.15	713.85	0.91
60000	293.15	710.4	0.92
60000	298.15	707.39	0.92
60000	303.15	703.95	0.93
60000	308.15	700.83	0.94
60000	313.15	697.4	0.95
60000	318.15	694.5	0.95
60000	323.15	691.19	0.96
60000	328.15	688.05	0.97
65000	283.15	720.09	0.95
65000	288.15	716.77	0.96
65000	293.15	713.55	0.96
65000	298.15	710.52	0.97
65000	303.15	707.12	0.98
65000	308.15	704.06	0.99
65000	313.15	700.79	1
65000	318.15	697.71	1.01
65000	323.15	694.58	1.01
65000	328.15	691.47	1.02

System: 2-methylpentane; phases: Liquid
Property: Mass density, kg/m3 (Liquid); method: Vibrating tube method
Pressure, kPa	Temperature, K	Mass density, kg/m3	uncertainty
100	283.15	662.38	0.3
100	288.15	657.8	0.3
100	293.15	653.28	0.3
100	298.15	648.63	0.31
100	303.15	643.96	0.31
100	308.15	639.25	0.31
100	313.15	634.49	0.31
100	318.15	629.65	0.31
100	323.15	624.76	0.31
100	328.15	619.82	0.31
2000	283.15	664.49	0.32
2000	288.15	659.95	0.32
2000	293.15	655.38	0.32
2000	298.15	651	0.32
2000	303.15	646.27	0.32
2000	308.15	641.65	0.32
2000	313.15	637.11	0.33
2000	318.15	632.32	0.33
2000	323.15	627.48	0.33
2000	328.15	622.75	0.33
5000	283.15	667.45	0.35
5000	288.15	663.16	0.35
5000	293.15	658.76	0.35
5000	298.15	654.32	0.35
5000	303.15	649.83	0.35
5000	308.15	645.36	0.35
5000	313.15	640.96	0.36
5000	318.15	636.32	0.36
5000	323.15	631.78	0.36
5000	328.15	627.22	0.36
7000	283.15	669.44	0.37
7000	288.15	665.17	0.37
7000	293.15	660.81	0.37
7000	298.15	656.61	0.37
7000	303.15	652.12	0.37
7000	308.15	647.77	0.37
7000	313.15	643.31	0.38
7000	318.15	638.86	0.38
7000	323.15	634.39	0.38
7000	328.15	629.87	0.38
10000	283.15	672.23	0.4
10000	288.15	668.05	0.4
10000	293.15	663.8	0.4
10000	298.15	659.71	0.4
10000	303.15	655.36	0.4
10000	308.15	651.1	0.4
10000	313.15	646.93	0.41
10000	318.15	642.49	0.41
10000	323.15	638.24	0.41
10000	328.15	633.86	0.41
20000	283.15	680.99	0.49
20000	288.15	677.13	0.5
20000	293.15	673.11	0.5
20000	298.15	669.38	0.5
20000	303.15	665.3	0.51
20000	308.15	661.38	0.51
20000	313.15	657.45	0.51
20000	318.15	653.46	0.52
20000	323.15	649.56	0.52
20000	328.15	645.47	0.53
30000	283.15	689.02	0.61
30000	288.15	685.21	0.61
30000	293.15	681.56	0.62
30000	298.15	677.93	0.62
30000	303.15	673.98	0.63
30000	308.15	670.38	0.63
30000	313.15	666.76	0.64
30000	318.15	663.07	0.64
30000	323.15	659.4	0.64
30000	328.15	655.55	0.65
40000	283.15	696.18	0.72
40000	288.15	692.59	0.72
40000	293.15	689.05	0.73
40000	298.15	685.62	0.73
40000	303.15	682.03	0.74
40000	308.15	678.4	0.74
40000	313.15	675.03	0.75
40000	318.15	671.49	0.76
40000	323.15	667.99	0.76
40000	328.15	664.47	0.77
50000	283.15	702.82	0.82
50000	288.15	699.4	0.83
50000	293.15	695.95	0.83
50000	298.15	692.66	0.84
50000	303.15	689.27	0.85
50000	308.15	685.81	0.85
50000	313.15	682.68	0.86
50000	318.15	679.17	0.87
50000	323.15	675.91	0.87
50000	328.15	672.49	0.88
60000	283.15	708.98	0.92
60000	288.15	705.61	0.93
60000	293.15	702.39	0.94
60000	298.15	699.21	0.94
60000	303.15	695.84	0.95
60000	308.15	692.62	0.96
60000	313.15	689.53	0.97
60000	318.15	686.27	0.97
60000	323.15	683.16	0.98
60000	328.15	679.93	0.99
65000	283.15	711.97	0.97
65000	288.15	708.71	0.98
65000	293.15	705.49	0.98
65000	298.15	702.34	0.99
65000	303.15	699.14	1
65000	308.15	695.97	1.01
65000	313.15	692.86	1.02
65000	318.15	689.7	1.03
65000	323.15	686.56	1.03
65000	328.15	683.41	1.04

System: 3-methylpentane; phases: Liquid
Property: Mass density, kg/m3 (Liquid); method: Vibrating tube method
Pressure, kPa	Temperature, K	Mass density, kg/m3	uncertainty
100	283.15	673.34	0.3
100	288.15	668.91	0.3
100	293.15	664.28	0.3
100	298.15	659.73	0.3
100	303.15	655.07	0.3
100	308.15	650.44	0.31
100	313.15	645.7	0.31
100	318.15	640.93	0.31
100	323.15	636.14	0.31
100	328.15	631.22	0.31
2000	283.15	675.33	0.32
2000	288.15	670.93	0.32
2000	293.15	666.4	0.32
2000	298.15	661.91	0.32
2000	303.15	657.33	0.32
2000	308.15	652.85	0.32
2000	313.15	648.1	0.32
2000	318.15	643.46	0.32
2000	323.15	638.83	0.33
2000	328.15	634.03	0.33
5000	283.15	678.2	0.35
5000	288.15	673.95	0.35
5000	293.15	669.49	0.35
5000	298.15	665.13	0.35
5000	303.15	660.71	0.35
5000	308.15	656.28	0.35
5000	313.15	651.77	0.35
5000	318.15	647.27	0.35
5000	323.15	642.73	0.35
5000	328.15	638.2	0.36
7000	283.15	680.08	0.36
7000	288.15	675.9	0.37
7000	293.15	671.54	0.37
7000	298.15	667.22	0.37
7000	303.15	662.86	0.37
7000	308.15	658.61	0.37
7000	313.15	654.13	0.37
7000	318.15	649.71	0.37
7000	323.15	645.26	0.38
7000	328.15	640.84	0.38
10000	283.15	682.8	0.39
10000	288.15	678.66	0.39
10000	293.15	674.41	0.4
10000	298.15	670.25	0.4
10000	303.15	666	0.4
10000	308.15	661.77	0.4
10000	313.15	657.53	0.4
10000	318.15	653.27	0.4
10000	323.15	648.88	0.41
10000	328.15	644.64	0.41
20000	283.15	691.21	0.49
20000	288.15	687.28	0.49
20000	293.15	683.39	0.49
20000	298.15	679.53	0.49
20000	303.15	675.49	0.5
20000	308.15	671.68	0.5
20000	313.15	667.66	0.51
20000	318.15	663.74	0.51
20000	323.15	659.72	0.51
20000	328.15	655.85	0.52
30000	283.15	698.81	0.59
30000	288.15	695.19	0.6
30000	293.15	691.45	0.6
30000	298.15	687.73	0.61
30000	303.15	683.96	0.61
30000	308.15	680.42	0.62
30000	313.15	676.56	0.62
30000	318.15	672.89	0.63
30000	323.15	669.28	0.63
30000	328.15	665.6	0.64
40000	283.15	705.94	0.7
40000	288.15	702.32	0.71
40000	293.15	698.72	0.71
40000	298.15	695.4	0.72
40000	303.15	691.63	0.72
40000	308.15	688.33	0.73
40000	313.15	684.59	0.73
40000	318.15	681.17	0.74
40000	323.15	677.73	0.75
40000	328.15	674.39	0.75
50000	283.15	712.39	0.8
50000	288.15	708.77	0.81
50000	293.15	705.44	0.81
50000	298.15	702.25	0.82
50000	303.15	698.64	0.83
50000	308.15	695.51	0.83
50000	313.15	692.01	0.84
50000	318.15	688.56	0.85
50000	323.15	685.39	0.86
50000	328.15	682.22	0.86
60000	283.15	718.5	0.9
60000	288.15	715.04	0.9
60000	293.15	711.72	0.91
60000	298.15	708.63	0.92
60000	303.15	705.24	0.93
60000	308.15	702.1	0.94
60000	313.15	698.74	0.94
60000	318.15	695.68	0.95
60000	323.15	692.42	0.96
60000	328.15	689.42	0.97
65000	283.15	721.33	0.94
65000	288.15	718.14	0.95
65000	293.15	714.81	0.96
65000	298.15	711.62	0.97
65000	303.15	708.41	0.98
65000	308.15	705.28	0.99
65000	313.15	702.04	0.99
65000	318.15	699.05	1
65000	323.15	695.87	1.01
65000	328.15	692.79	1.02
