Measured thermophysical data. Influence of chain length and degree of branching of alcohol + chlorobenzene mixtures on determination and modelling of VE by CEOS and CEOS/GE mixing rules
Source: Fluid Phase Equilib., 2008, 10.1016/j.fluid.2007.09.028
Compound 1: propan-1-ol, C3H8O, InChI=1S/C3H8O/c1-2-3-4/h4H,2-3H2,1H3, purity 99.5%
Compound 2: chlorobenzene, C6H5Cl, InChI=1S/C6H5Cl/c7-6-4-2-1-3-5-6/h1-5H, purity 99.9%
Compound 3: butan-1-ol, C4H10O, InChI=1S/C4H10O/c1-2-3-4-5/h5H,2-4H2,1H3, purity 99.5%
Compound 4: pentan-1-ol, C5H12O, InChI=1S/C5H12O/c1-2-3-4-5-6/h6H,2-5H2,1H3, purity 99%
Compound 5: butan-2-ol, C4H10O, InChI=1S/C4H10O/c1-3-4(2)5/h4-5H,3H2,1-2H3, purity 99%
Compound 6: 2-methylpropan-2-ol, C4H10O, InChI=1S/C4H10O/c1-4(2,3)5/h5H,1-3H3, purity 99.7%

System: propan-1-ol; phases: Liquid
Fixed: Pressure, kPa = 101
Property: Mass density, kg/m3 (Liquid); method: VIBTUB:UFactor:4
Temperature, K	Mass density, kg/m3	uncertainty
288.15	807.69	0.457
293.15	803.703	0.463
298.15	799.692	0.469
303.15	795.65	0.475
308.15	791.576	0.481
313.15	787.466	0.487

System: chlorobenzene; phases: Liquid
Fixed: Pressure, kPa = 101
Property: Mass density, kg/m3 (Liquid); method: VIBTUB:UFactor:4
Temperature, K	Mass density, kg/m3	uncertainty
288.15	1111.811	0.301
293.15	1106.428	0.293
298.15	1101.038	0.284
303.15	1095.64	0.276
308.15	1090.234	0.267
313.15	1084.82	0.259
318.15	1079.422	0.251
323.15	1073.97	0.242

System: butan-1-ol; phases: Liquid
Fixed: Pressure, kPa = 101
Property: Mass density, kg/m3 (Liquid); method: VIBTUB:UFactor:4
Temperature, K	Mass density, kg/m3	uncertainty
288.15	813.373	0.448
293.15	809.573	0.454
298.15	805.762	0.46
303.15	801.923	0.465
308.15	798.053	0.471
313.15	794.147	0.477

System: pentan-1-ol; phases: Liquid
Fixed: Pressure, kPa = 101
Property: Mass density, kg/m3 (Liquid); method: VIBTUB:UFactor:4
Temperature, K	Mass density, kg/m3	uncertainty
288.15	818.282	0.541
293.15	814.635	0.545
298.15	810.968	0.55
303.15	807.278	0.554
308.15	803.558	0.559
313.15	799.817	0.564

System: butan-2-ol; phases: Liquid
Fixed: Pressure, kPa = 101
Property: Mass density, kg/m3 (Liquid); method: VIBTUB::UFactor:4
Temperature, K	Mass density, kg/m3	uncertainty
288.15	810.689	0.55
293.15	806.646	0.555
298.15	802.528	0.56
303.15	798.326	0.565
308.15	794.03	0.571
313.15	789.632	0.576

System: 2-methylpropan-2-ol; phases: Liquid
Fixed: Pressure, kPa = 101
Property: Mass density, kg/m3 (Liquid); method: VIBTUB:UFactor:4
Temperature, K	Mass density, kg/m3	uncertainty
303.15	775.412	0.486
308.15	770.193	0.494
313.15	764.884	0.502
318.15	759.488	0.51
323.15	754.015	0.519

System: propan-1-ol + chlorobenzene; phases: Liquid
Fixed: Pressure, kPa = 101
Property: Mass density, kg/m3 (Liquid); method: VIBTUB:UFactor:4
Temperature, K	Mole fraction of propan-1-ol	Mass density, kg/m3	uncertainty
288.15	0	1111.811	0.301
288.15	0.0254	1105.917	0.296
288.15	0.0513	1100.014	0.287
288.15	0.0726	1095.179	0.281
288.15	0.0738	1094.9	0.28
288.15	0.1016	1088.482	0.271
288.15	0.1058	1087.509	0.27
288.15	0.1365	1080.296	0.259
288.15	0.2019	1064.701	0.237
288.15	0.2472	1053.547	0.222
288.15	0.2984	1040.502	0.204
288.15	0.3443	1028.597	0.188
288.15	0.4027	1012.945	0.167
288.15	0.4952	986.837	0.171
288.15	0.5492	970.777	0.198
288.15	0.5975	955.977	0.222
288.15	0.6447	940.98	0.247
288.15	0.699	923.003	0.277
288.15	0.7494	905.686	0.305
288.15	0.8008	887.239	0.336
288.15	0.8473	869.896	0.364
288.15	0.8955	851.18	0.394
288.15	0.9192	841.722	0.41
288.15	0.9497	829.134	0.431
288.15	1	807.69	0.457
293.15	0	1106.428	0.293
293.15	0.0254	1100.512	0.288
293.15	0.0513	1094.602	0.279
293.15	0.0726	1089.766	0.272
293.15	0.0738	1089.489	0.272
293.15	0.1016	1083.078	0.263
293.15	0.1058	1082.107	0.261
293.15	0.1365	1074.907	0.251
293.15	0.2019	1059.348	0.229
293.15	0.2472	1048.233	0.214
293.15	0.2984	1035.232	0.196
293.15	0.3443	1023.377	0.18
293.15	0.4027	1007.784	0.159
293.15	0.4952	981.797	0.178
293.15	0.5492	965.817	0.205
293.15	0.5975	951.086	0.229
293.15	0.6447	936.176	0.254
293.15	0.699	918.296	0.284
293.15	0.7494	901.079	0.312
293.15	0.8008	882.746	0.342
293.15	0.8473	865.508	0.37
293.15	0.8955	846.915	0.401
293.15	0.9192	837.516	0.416
293.15	0.9497	825.009	0.437
293.15	1	803.703	0.463
298.15	0	1101.038	0.284
298.15	0.0254	1095.103	0.279
298.15	0.0513	1089.182	0.271
298.15	0.0726	1084.346	0.264
298.15	0.0738	1084.066	0.264
298.15	0.1016	1077.659	0.254
298.15	0.1058	1076.689	0.253
298.15	0.1365	1069.501	0.243
298.15	0.2019	1053.957	0.221
298.15	0.2472	1042.894	0.206
298.15	0.2984	1029.94	0.188
298.15	0.3443	1018.126	0.172
298.15	0.4027	1002.597	0.152
298.15	0.4952	976.724	0.186
298.15	0.5492	960.824	0.212
298.15	0.5975	946.167	0.236
298.15	0.6447	931.338	0.261
298.15	0.699	913.559	0.29
298.15	0.7494	896.443	0.319
298.15	0.8008	878.223	0.349
298.15	0.8473	861.093	0.377
298.15	0.8955	842.621	0.407
298.15	0.9192	833.28	0.422
298.15	0.9497	820.857	0.443
298.15	1	799.692	0.469
303.15	0	1095.64	0.276
303.15	0.0254	1089.687	0.271
303.15	0.0513	1083.748	0.262
303.15	0.0726	1078.91	0.255
303.15	0.0738	1078.631	0.255
303.15	0.1016	1072.223	0.246
303.15	0.1058	1071.257	0.244
303.15	0.1365	1064.076	0.234
303.15	0.2019	1048.558	0.212
303.15	0.2472	1037.531	0.197
303.15	0.2984	1024.617	0.18
303.15	0.3443	1012.848	0.164
303.15	0.4027	997.378	0.152
303.15	0.4952	971.618	0.193
303.15	0.5492	955.797	0.22
303.15	0.5975	941.211	0.244
303.15	0.6447	926.463	0.268
303.15	0.699	908.798	0.297
303.15	0.7494	891.773	0.326
303.15	0.8008	873.664	0.355
303.15	0.8473	856.643	0.383
303.15	0.8955	838.296	0.413
303.15	0.9192	829.014	0.428
303.15	0.9497	816.677	0.449
303.15	1	795.65	0.475
308.15	0	1090.234	0.267
308.15	0.0254	1084.258	0.263
308.15	0.0513	1078.301	0.254
308.15	0.0726	1073.463	0.247
308.15	0.0738	1073.18	0.247
308.15	0.1016	1066.768	0.237
308.15	0.1058	1065.805	0.236
308.15	0.1365	1058.634	0.226
308.15	0.2019	1043.169	0.204
308.15	0.2472	1032.139	0.189
308.15	0.2984	1019.261	0.171
308.15	0.3443	1007.533	0.156
308.15	0.4027	992.12	0.159
308.15	0.4952	966.472	0.201
308.15	0.5492	950.728	0.227
308.15	0.5975	936.213	0.251
308.15	0.6447	921.545	0.275
308.15	0.699	903.973	0.304
308.15	0.7494	887.057	0.332
308.15	0.8008	869.063	0.362
308.15	0.8473	852.152	0.39
308.15	0.8955	833.934	0.419
308.15	0.9192	824.709	0.435
308.15	0.9497	812.457	0.455
308.15	1	791.576	0.481
313.15	0	1084.82	0.259
313.15	0.0254	1078.832	0.254
313.15	0.0513	1072.855	0.246
313.15	0.0726	1068.027	0.239
313.15	0.0738	1067.729	0.239
313.15	0.1016	1061.302	0.229
313.15	0.1058	1060.352	0.227
313.15	0.1365	1053.173	0.217
313.15	0.2019	1037.751	0.196
313.15	0.2472	1026.733	0.181
313.15	0.2984	1013.882	0.163
313.15	0.3443	1002.2	0.148
313.15	0.4027	986.836	0.167
313.15	0.4952	961.296	0.208
313.15	0.5492	945.63	0.234
313.15	0.5975	931.183	0.258
313.15	0.6447	916.599	0.283
313.15	0.699	899.127	0.311
313.15	0.7494	882.312	0.339
313.15	0.8008	864.438	0.369
313.15	0.8473	847.622	0.396
313.15	0.8955	829.53	0.426
313.15	0.9192	820.375	0.441
313.15	0.9497	808.213	0.461
313.15	1	787.466	0.487

System: butan-1-ol + chlorobenzene; phases: Liquid
Fixed: Pressure, kPa = 101
Property: Mass density, kg/m3 (Liquid); method: VIBTUB:UFactor:4
Temperature, K	Mole fraction of butan-1-ol	Mass density, kg/m3	uncertainty
288.15	0	1111.811	0.301
288.15	0.0491	1098.361	0.286
288.15	0.1013	1084.164	0.266
288.15	0.1492	1071.13	0.247
288.15	0.2004	1057.096	0.227
288.15	0.2501	1043.316	0.208
288.15	0.3	1029.415	0.188
288.15	0.3507	1015.107	0.169
288.15	0.4	1001.064	0.15
288.15	0.4502	986.537	0.17
288.15	0.5	972.013	0.193
288.15	0.5499	957.246	0.217
288.15	0.5998	942.296	0.242
288.15	0.6504	926.891	0.267
288.15	0.7002	911.543	0.292
288.15	0.749	896.297	0.318
288.15	0.7995	880.209	0.344
288.15	0.849	864.175	0.37
288.15	0.9006	847.199	0.398
288.15	0.9505	830.398	0.426
288.15	1	813.373	0.448
293.15	0	1106.428	0.293
293.15	0.0491	1092.969	0.278
293.15	0.1013	1078.814	0.258
293.15	0.1492	1065.827	0.239
293.15	0.2004	1051.847	0.219
293.15	0.2501	1038.122	0.2
293.15	0.3	1024.278	0.181
293.15	0.3507	1010.041	0.161
293.15	0.4	996.06	0.154
293.15	0.4502	981.622	0.177
293.15	0.5	967.172	0.2
293.15	0.5499	952.491	0.224
293.15	0.5998	937.639	0.249
293.15	0.6504	922.329	0.274
293.15	0.7002	907.078	0.299
293.15	0.749	891.927	0.324
293.15	0.7995	875.948	0.35
293.15	0.849	860.018	0.377
293.15	0.9006	843.162	0.404
293.15	0.9505	826.483	0.432
293.15	1	809.573	0.454
298.15	0	1101.038	0.284
298.15	0.0491	1087.574	0.27
298.15	0.1013	1073.45	0.249
298.15	0.1492	1060.504	0.231
298.15	0.2004	1046.572	0.211
298.15	0.2501	1032.915	0.192
298.15	0.3	1019.132	0.173
298.15	0.3507	1004.963	0.154
298.15	0.4	991.039	0.161
298.15	0.4502	976.686	0.184
298.15	0.5	962.314	0.207
298.15	0.5499	947.717	0.231
298.15	0.5998	932.95	0.256
298.15	0.6504	917.738	0.281
298.15	0.7002	902.582	0.306
298.15	0.749	887.529	0.33
298.15	0.7995	871.658	0.357
298.15	0.849	855.838	0.383
298.15	0.9006	839.105	0.41
298.15	0.9505	822.545	0.437
298.15	1	805.762	0.46
303.15	0	1095.64	0.276
303.15	0.0491	1082.165	0.262
303.15	0.1013	1068.069	0.241
303.15	0.1492	1055.164	0.222
303.15	0.2004	1041.283	0.203
303.15	0.2501	1027.68	0.184
303.15	0.3	1013.961	0.165
303.15	0.3507	999.858	0.147
303.15	0.4	985.993	0.168
303.15	0.4502	971.72	0.191
303.15	0.5	957.429	0.215
303.15	0.5499	942.914	0.238
303.15	0.5998	928.23	0.262
303.15	0.6504	913.116	0.287
303.15	0.7002	898.054	0.312
303.15	0.749	883.097	0.337
303.15	0.7995	867.339	0.363
303.15	0.849	851.632	0.389
303.15	0.9006	835.018	0.416
303.15	0.9505	818.578	0.443
303.15	1	801.923	0.465
308.15	0	1090.234	0.267
308.15	0.0491	1076.75	0.253
308.15	0.1013	1062.668	0.233
308.15	0.1492	1049.797	0.214
308.15	0.2004	1035.967	0.195
308.15	0.2501	1022.421	0.176
308.15	0.3	1008.762	0.157
308.15	0.3507	994.721	0.154
308.15	0.4	980.92	0.176
308.15	0.4502	966.72	0.199
308.15	0.5	952.506	0.222
308.15	0.5499	938.072	0.245
308.15	0.5998	923.477	0.269
308.15	0.6504	908.455	0.294
308.15	0.7002	893.49	0.319
308.15	0.749	878.634	0.343
308.15	0.7995	862.977	0.369
308.15	0.849	847.387	0.395
308.15	0.9006	830.894	0.422
308.15	0.9505	814.579	0.449
308.15	1	798.053	0.471
313.15	0	1084.82	0.259
313.15	0.0491	1071.341	0.247
313.15	0.1013	1052.62	10
313.15	0.1492	1044.421	0.204
313.15	0.2004	1030.632	0.187
313.15	0.2501	1017.145	0.168
313.15	0.3	1003.547	0.149
313.15	0.3507	989.562	0.161
313.15	0.4	975.825	0.183
313.15	0.4502	961.715	0.206
313.15	0.5	947.561	0.229
313.15	0.5499	933.199	0.253
313.15	0.5998	918.689	0.276
313.15	0.6504	903.772	0.301
313.15	0.7002	888.906	0.326
313.15	0.749	874.13	0.35
313.15	0.7995	858.585	0.376
313.15	0.849	843.125	0.401
313.15	0.9006	826.737	0.428
313.15	0.9505	810.547	0.455
313.15	1	794.147	0.477

System: pentan-1-ol + chlorobenzene; phases: Liquid
Fixed: Pressure, kPa = 101
Property: Mass density, kg/m3 (Liquid); method: VIBTUB:UFactor:4
Temperature, K	Mole fraction of pentan-1-ol	Mass density, kg/m3	uncertainty
288.15	0	1111.811	0.301
288.15	0.0495	1096.205	0.286
288.15	0.1004	1080.504	0.265
288.15	0.1503	1065.262	0.246
288.15	0.2001	1050.213	0.227
288.15	0.2498	1035.284	0.21
288.15	0.2998	1020.398	0.193
288.15	0.3497	1005.6	0.177
288.15	0.3992	991.011	0.188
288.15	0.4498	976.171	0.217
288.15	0.5	961.565	0.246
288.15	0.5497	947.132	0.275
288.15	0.6	932.622	0.305
288.15	0.65	918.243	0.335
288.15	0.6998	903.925	0.364
288.15	0.7499	889.607	0.394
288.15	0.8001	875.288	0.424
288.15	0.8496	861.143	0.454
288.15	0.9002	846.722	0.484
288.15	0.95	832.515	0.514
288.15	1	818.282	0.541
293.15	0	1106.428	0.293
293.15	0.0495	1090.849	0.278
293.15	0.1004	1075.209	0.257
293.15	0.1503	1060.039	0.238
293.15	0.2001	1045.066	0.219
293.15	0.2498	1030.215	0.202
293.15	0.2998	1015.408	0.185
293.15	0.3497	1000.692	0.169
293.15	0.3992	986.186	0.195
293.15	0.4498	971.436	0.223
293.15	0.5	956.92	0.252
293.15	0.5497	942.578	0.281
293.15	0.6	928.159	0.311
293.15	0.65	913.875	0.34
293.15	0.6998	899.658	0.37
293.15	0.7499	885.436	0.4
293.15	0.8001	871.223	0.43
293.15	0.8496	857.181	0.459
293.15	0.9002	842.865	0.489
293.15	0.95	828.762	0.519
293.15	1	814.635	0.545
298.15	0	1101.038	0.284
298.15	0.0495	1085.482	0.27
298.15	0.1004	1069.896	0.249
298.15	0.1503	1054.797	0.23
298.15	0.2001	1039.899	0.211
298.15	0.2498	1025.129	0.194
298.15	0.2998	1010.403	0.177
298.15	0.3497	995.77	0.174
298.15	0.3992	981.346	0.201
298.15	0.4498	966.685	0.23
298.15	0.5	952.254	0.259
298.15	0.5497	938.003	0.288
298.15	0.6	923.676	0.317
298.15	0.65	909.486	0.346
298.15	0.6998	895.367	0.376
298.15	0.7499	881.246	0.405
298.15	0.8001	867.134	0.435
298.15	0.8496	853.196	0.464
298.15	0.9002	838.986	0.494
298.15	0.95	824.99	0.523
298.15	1	810.968	0.55
303.15	0	1095.64	0.276
303.15	0.0495	1080.105	0.261
303.15	0.1004	1064.569	0.241
303.15	0.1503	1049.536	0.222
303.15	0.2001	1034.712	0.203
303.15	0.2498	1020.019	0.186
303.15	0.2998	1005.374	0.17
303.15	0.3497	990.822	0.181
303.15	0.3992	976.483	0.208
303.15	0.4498	961.906	0.237
303.15	0.5	947.565	0.265
303.15	0.5497	933.402	0.294
303.15	0.6	919.168	0.323
303.15	0.65	905.07	0.352
303.15	0.6998	891.05	0.382
303.15	0.7499	877.028	0.411
303.15	0.8001	863.017	0.44
303.15	0.8496	849.186	0.469
303.15	0.9002	835.082	0.499
303.15	0.95	821.195	0.528
303.15	1	807.278	0.554
308.15	0	1090.234	0.267
308.15	0.0495	1074.711	0.253
308.15	0.1004	1059.224	0.233
308.15	0.1503	1044.252	0.213
308.15	0.2001	1029.499	0.195
308.15	0.2498	1014.88	0.178
308.15	0.2998	1000.319	0.162
308.15	0.3497	985.847	0.188
308.15	0.3992	971.589	0.215
308.15	0.4498	957.097	0.244
308.15	0.5	942.839	0.272
308.15	0.5497	928.768	0.301
308.15	0.6	914.627	0.33
308.15	0.65	900.622	0.359
308.15	0.6998	886.702	0.388
308.15	0.7499	872.777	0.417
308.15	0.8001	858.866	0.446
308.15	0.8496	845.143	0.475
308.15	0.9002	831.149	0.504
308.15	0.95	817.369	0.533
308.15	1	803.558	0.559
313.15	0	1084.82	0.259
313.15	0.0495	1069.316	0.245
313.15	0.1004	1053.863	0.224
313.15	0.1503	1038.953	0.205
313.15	0.2001	1024.267	0.187
313.15	0.2498	1009.72	0.17
313.15	0.2998	995.245	0.168
313.15	0.3497	980.857	0.195
313.15	0.3992	966.679	0.222
313.15	0.4498	952.274	0.25
313.15	0.5	938.086	0.279
313.15	0.5497	924.119	0.307
313.15	0.6	910.077	0.336
313.15	0.65	896.149	0.365
313.15	0.6998	882.307	0.394
313.15	0.7499	868.496	0.422
313.15	0.8001	854.684	0.451
313.15	0.8496	841.079	0.48
313.15	0.9002	827.194	0.509
313.15	0.95	813.521	0.538
313.15	1	799.817	0.564

System: butan-2-ol + chlorobenzene; phases: Liquid
Fixed: Pressure, kPa = 101
Property: Mass density, kg/m3 (Liquid); method: VIBTUB:UFactor:4
Temperature, K	Mole fraction of butan-2-ol	Mass density, kg/m3	uncertainty
288.15	0	1111.811	0.301
288.15	0.0496	1097.448	0.287
288.15	0.1003	1083.132	0.268
288.15	0.1501	1069.163	0.251
288.15	0.2	1055.05	0.234
288.15	0.2502	1040.784	0.218
288.15	0.3007	1026.391	0.202
288.15	0.3497	1012.263	0.187
288.15	0.3999	997.723	0.178
288.15	0.4499	983.091	0.207
288.15	0.5	968.364	0.237
288.15	0.5498	953.525	0.267
288.15	0.5999	938.418	0.297
288.15	0.6499	923.235	0.328
288.15	0.7	907.848	0.36
288.15	0.75	892.266	0.392
288.15	0.8	876.537	0.424
288.15	0.8498	860.576	0.456
288.15	0.8997	844.324	0.488
288.15	0.9502	827.634	0.521
288.15	1	810.689	0.55
293.15	0	1106.428	0.293
293.15	0.0496	1092.022	0.279
293.15	0.1003	1077.697	0.26
293.15	0.1501	1063.742	0.242
293.15	0.2	1049.656	0.226
293.15	0.2502	1035.428	0.209
293.15	0.3007	1021.074	0.194
293.15	0.3497	1006.99	0.178
293.15	0.3999	992.501	0.186
293.15	0.4499	977.922	0.214
293.15	0.5	963.258	0.244
293.15	0.5498	948.484	0.274
293.15	0.5999	933.448	0.304
293.15	0.6499	918.341	0.335
293.15	0.7	903.04	0.366
293.15	0.75	887.557	0.398
293.15	0.8	871.933	0.43
293.15	0.8498	856.092	0.462
293.15	0.8997	839.965	0.494
293.15	0.9502	823.427	0.527
293.15	1	806.646	0.555
298.15	0	1101.038	0.284
298.15	0.0496	1086.594	0.27
298.15	0.1003	1072.251	0.251
298.15	0.1501	1058.305	0.234
298.15	0.2	1044.242	0.217
298.15	0.2502	1030.045	0.201
298.15	0.3007	1015.729	0.185
298.15	0.3497	1001.686	0.17
298.15	0.3999	987.245	0.193
298.15	0.4499	972.717	0.222
298.15	0.5	958.109	0.251
298.15	0.5498	943.398	0.281
298.15	0.5999	928.431	0.311
298.15	0.6499	913.397	0.342
298.15	0.7	898.18	0.373
298.15	0.75	882.791	0.404
298.15	0.8	867.265	0.436
298.15	0.8498	851.542	0.467
298.15	0.8997	835.544	0.499
298.15	0.9502	819.146	0.532
298.15	1	802.528	0.56
303.15	0	1095.64	0.276
303.15	0.0496	1081.16	0.262
303.15	0.1003	1066.793	0.243
303.15	0.1501	1052.848	0.226
303.15	0.2	1038.801	0.209
303.15	0.2502	1024.633	0.193
303.15	0.3007	1010.35	0.177
303.15	0.3497	996.346	0.173
303.15	0.3999	981.952	0.201
303.15	0.4499	967.468	0.229
303.15	0.5	952.917	0.258
303.15	0.5498	938.263	0.288
303.15	0.5999	923.362	0.318
303.15	0.6499	908.397	0.349
303.15	0.7	893.259	0.379
303.15	0.75	877.959	0.411
303.15	0.8	862.532	0.442
303.15	0.8498	846.918	0.473
303.15	0.8997	831.044	0.505
303.15	0.9502	814.788	0.537
303.15	1	798.326	0.565
308.15	0	1090.234	0.267
308.15	0.0496	1075.717	0.254
308.15	0.1003	1061.318	0.235
308.15	0.1501	1047.367	0.217
308.15	0.2	1033.333	0.2
308.15	0.2502	1019.189	0.184
308.15	0.3007	1004.937	0.169
308.15	0.3497	990.966	0.18
308.15	0.3999	976.612	0.208
308.15	0.4499	962.174	0.236
308.15	0.5	947.675	0.265
308.15	0.5498	933.079	0.295
308.15	0.5999	918.237	0.325
308.15	0.6499	903.335	0.355
308.15	0.7	888.276	0.386
308.15	0.75	873.061	0.417
308.15	0.8	857.722	0.448
308.15	0.8498	842.221	0.479
308.15	0.8997	826.464	0.511
308.15	0.9502	810.337	0.543
308.15	1	794.03	0.571
313.15	0	1084.82	0.259
313.15	0.0496	1070.283	0.245
313.15	0.1003	1055.832	0.226
313.15	0.1501	1041.88	0.209
313.15	0.2	1027.857	0.192
313.15	0.2502	1013.728	0.176
313.15	0.3007	999.501	0.162
313.15	0.3497	985.56	0.188
313.15	0.3999	971.251	0.216
313.15	0.4499	956.834	0.244
313.15	0.5	942.399	0.273
313.15	0.5498	927.858	0.302
313.15	0.5999	913.072	0.332
313.15	0.6499	898.213	0.362
313.15	0.7	883.238	0.393
313.15	0.75	868.109	0.424
313.15	0.8	852.839	0.455
313.15	0.8498	837.46	0.486
313.15	0.8997	821.827	0.517
313.15	0.9502	805.821	0.549
313.15	1	789.632	0.576

System: 2-methylpropan-2-ol + chlorobenzene; phases: Liquid
Fixed: Pressure, kPa = 101
Property: Mass density, kg/m3 (Liquid); method: VIBTUB:UFactor:4
Temperature, K	Mole fraction of 2-methylpropan-2-ol	Mass density, kg/m3	uncertainty
303.15	0	1095.64	0.276
303.15	0.0514	1078.896	0.258
303.15	0.1001	1063.672	0.235
303.15	0.1498	1048.318	0.212
303.15	0.199	1033.099	0.19
303.15	0.2505	1017.18	0.167
303.15	0.3	1001.805	0.146
303.15	0.351	985.908	0.164
303.15	0.3707	979.707	0.173
303.15	0.3997	970.62	0.187
303.15	0.45	954.724	0.211
303.15	0.5	938.79	0.235
303.15	0.5499	922.845	0.26
303.15	0.6003	906.668	0.285
303.15	0.6499	890.559	0.31
303.15	0.7002	874.261	0.336
303.15	0.7482	858.49	0.36
303.15	0.7998	841.567	0.387
303.15	0.8498	825.04	0.413
303.15	0.9004	808.338	0.439
303.15	1	775.412	0.486
308.15	0	1090.234	0.267
308.15	0.0514	1073.419	0.25
308.15	0.1001	1058.134	0.227
308.15	0.1498	1042.742	0.204
308.15	0.199	1027.506	0.182
308.15	0.2505	1011.591	0.159
308.15	0.3	996.225	0.148
308.15	0.351	980.337	0.172
308.15	0.3707	974.152	0.181
308.15	0.3997	965.075	0.195
308.15	0.45	949.206	0.219
308.15	0.5	933.303	0.244
308.15	0.5499	917.39	0.268
308.15	0.6003	901.248	0.293
308.15	0.6499	885.172	0.318
308.15	0.7002	868.904	0.344
308.15	0.7482	853.167	0.368
308.15	0.7998	836.267	0.395
308.15	0.8498	819.768	0.421
308.15	0.9004	803.082	0.447
308.15	1	770.193	0.494
313.15	0	1084.82	0.259
313.15	0.0514	1067.937	0.242
313.15	0.1001	1052.582	0.218
313.15	0.1498	1037.143	0.196
313.15	0.199	1021.888	0.174
313.15	0.2505	1005.963	0.151
313.15	0.3	990.603	0.156
313.15	0.351	974.721	0.18
313.15	0.3707	968.545	0.189
313.15	0.3997	959.477	0.203
313.15	0.45	943.631	0.227
313.15	0.5	927.755	0.252
313.15	0.5499	911.872	0.276
313.15	0.6003	895.76	0.302
313.15	0.6499	879.716	0.327
313.15	0.7002	863.477	0.352
313.15	0.7482	847.772	0.377
313.15	0.7998	830.896	0.403
313.15	0.8498	814.423	0.429
313.15	0.9004	797.754	0.455
313.15	1	764.884	0.502
318.15	0	1079.422	0.251
318.15	0.0514	1062.444	0.234
318.15	0.1001	1047.012	0.21
318.15	0.1498	1031.522	0.187
318.15	0.199	1016.236	0.165
318.15	0.2505	1000.301	0.143
318.15	0.3	984.94	0.165
318.15	0.351	969.053	0.188
318.15	0.3707	962.885	0.198
318.15	0.3997	953.823	0.211
318.15	0.45	937.997	0.236
318.15	0.5	922.142	0.26
318.15	0.5499	906.286	0.285
318.15	0.6003	890.201	0.31
318.15	0.6499	874.189	0.335
318.15	0.7002	857.976	0.36
318.15	0.7482	842.3	0.385
318.15	0.7998	825.45	0.411
318.15	0.8498	809	0.437
318.15	0.9004	792.35	0.463
318.15	1	759.488	0.51
323.15	0	1073.97	0.242
323.15	0.0514	1056.945	0.225
323.15	0.1001	1041.426	0.202
323.15	0.1498	1025.887	0.179
323.15	0.199	1010.558	0.157
323.15	0.2505	994.615	0.15
323.15	0.3	979.276	0.173
323.15	0.351	963.346	0.197
323.15	0.3707	957.187	0.206
323.15	0.3997	948.132	0.22
323.15	0.45	932.311	0.244
323.15	0.5	916.464	0.269
323.15	0.5499	900.633	0.293
323.15	0.6003	884.578	0.318
323.15	0.6499	868.592	0.343
323.15	0.7002	852.408	0.369
323.15	0.7482	836.757	0.393
323.15	0.7998	819.931	0.42
323.15	0.8498	803.512	0.445
323.15	0.9004	786.87	0.472
323.15	1	754.015	0.519
