Measured thermophysical data. Experimental measurements and modelling of carbon dioxide solubility in aqueous AMP/MDEA and Piperazine/MDEA blends
Source: Fluid Phase Equilib., 2018, 10.1016/j.fluid.2018.02.016
Compound 1: water, H2O, InChI=1S/H2O/h1H2, purity 99.8%
Compound 2: N-methyldiethanolamine, C5H13NO2, InChI=1S/C5H13NO2/c1-6(2-4-7)3-5-8/h7-8H,2-5H2,1H3, purity 99%
Compound 3: piperazine, C4H10N2, InChI=1S/C4H10N2/c1-2-6-4-3-5-1/h5-6H,1-4H2, purity 99.5%
Compound 4: carbon dioxide, CO2, InChI=1S/CO2/c2-1-3

System: water + N-methyldiethanolamine + carbon dioxide; phases: Liquid, Gas
Property: Mole fraction of carbon dioxide (Liquid); method: Phase equilibration
Temperature, K	Pressure, kPa	Solvent: Mass fraction of N-methyldiethanolamine	Mole fraction of carbon dioxide	uncertainty
313.15	1421	0.489	1.0882	0.0581
343.15	713.2	0.489	0.7424	0.0584
313.15	3212	0.234	1.2854	0.0583
343.15	445	0.234	0.8152	0.0582

System: water + piperazine + carbon dioxide; phases: Liquid, Gas
Property: Mole fraction of carbon dioxide (Liquid); method: Phase equilibration
Temperature, K	Pressure, kPa	Solvent: Mass fraction of piperazine	Mole fraction of carbon dioxide	uncertainty
313.15	202.5	0.025	1.1378	0.0582
343.15	1490	0.025	1.271	0.0583
313.15	3255	0.102	1.6681	0.0597
343.15	197.5	0.102	0.883	0.0581
