Measured thermophysical data. Phase equilibria of glycerol containing systems and their description with the Cubic-Plus-Association (CPA) Equation of State
Source: Fluid Phase Equilib., 2009, 10.1016/j.fluid.2009.03.011
Compound 1: glycerol, C3H8O3, InChI=1S/C3H8O3/c4-1-3(6)2-5/h3-6H,1-2H2
Compound 2: methanol, CH4O, InChI=1S/CH4O/c1-2/h2H,1H3
Compound 3: ethanol, C2H6O, InChI=1S/C2H6O/c1-2-3/h3H,2H2,1H3
Compound 4: propan-1-ol, C3H8O, InChI=1S/C3H8O/c1-2-3-4/h4H,2-3H2,1H3
Compound 5: propan-2-ol, C3H8O, InChI=1S/C3H8O/c1-3(2)4/h3-4H,1-2H3
Compound 6: butan-1-ol, C4H10O, InChI=1S/C4H10O/c1-2-3-4-5/h5H,2-4H2,1H3
Compound 7: water, H2O, InChI=1S/H2O/h1H2

System: glycerol + water; phases: Liquid, Gas
Fixed: Pressure, kPa = 101
Property: Boiling temperature at pressure P, K (Liquid); method: Ebulliometric method (Recirculating still)
Mole fraction of water	Boiling temperature at pressure P, K	uncertainty
0.1219	480.59	0.12
0.181	453.33	0.12
0.288	429.24	0.11
0.3561	418.62	0.11
0.414	410.83	0.11
0.4571	405.29	0.11
0.5051	400.99	0.11
0.5464	397.9	0.11
0.5761	394.6	0.11
0.6172	392.5	0.11
0.6415	391	0.11
0.6685	389.11	0.11
0.6924	388.01	0.11
0.7098	386.71	0.11
0.7304	385.51	0.11
0.7443	384.71	0.11
0.7586	384.01	0.11

System: glycerol + methanol; phases: Liquid, Gas
Fixed: Pressure, kPa = 101
Property: Boiling temperature at pressure P, K (Liquid); method: Ebulliometric method (Recirculating still)
Mole fraction of methanol	Boiling temperature at pressure P, K	uncertainty
0.0329	451.78	0.13
0.0487	435.4	0.13
0.0671	423.42	0.13
0.0911	411.38	0.13
0.1144	399.25	0.13
0.159	390.55	0.13
0.1947	382.21	0.13
0.2325	377.27	0.13
0.2637	373.72	0.13
0.2914	370.57	0.13
0.3147	368.03	0.13
0.3426	365.28	0.13
0.3633	361.28	0.13
0.3932	359.38	0.13
0.4218	358.83	0.13
0.4447	357.24	0.13
0.4651	356.34	0.13
0.4848	354.49	0.13
0.5055	353.24	0.13
0.5216	352.14	0.13
0.5434	351.34	0.13
0.5578	350.54	0.13
0.574	349.84	0.13

System: glycerol + ethanol; phases: Liquid, Gas
Fixed: Pressure, kPa = 101
Property: Boiling temperature at pressure P, K (Liquid); method: Ebulliometric method (Recirculating still)
Mole fraction of ethanol	Boiling temperature at pressure P, K	uncertainty
0.0107	453.99	0.13
0.0168	438	0.13
0.0244	427.23	0.13
0.0541	416.5	0.13
0.0759	406.82	0.13
0.0902	399.89	0.13
0.1114	392.95	0.13
0.1321	388.91	0.13
0.1646	385.67	0.13
0.1791	382.72	0.13
0.1974	379.88	0.13
0.2229	377.68	0.13
0.2479	376.19	0.13
0.2902	372.84	0.13
0.3149	369.9	0.13
0.3434	366.25	0.13
0.3546	368.1	0.13
0.4246	364.91	0.13
0.4493	364.21	0.13
0.4754	363.51	0.13

System: glycerol + propan-1-ol; phases: Liquid, Gas
Fixed: Pressure, kPa = 101
Property: Boiling temperature at pressure P, K (Liquid); method: Ebulliometric method (Recirculating still)
Mole fraction of propan-1-ol	Boiling temperature at pressure P, K	uncertainty
0.0418	481.69	0.13
0.0474	467.41	0.13
0.0559	452.42	0.13
0.0629	435.93	0.13
0.0698	425.04	0.13
0.092	415.69	0.13
0.1111	407.05	0.13
0.138	402.35	0.13
0.1646	398.25	0.13
0.1881	395.05	0.13
0.2088	392.21	0.13
0.2418	390.31	0.13
0.2606	388.51	0.13
0.273	387.26	0.13
0.3001	386.16	0.13
0.3207	385.36	0.13
0.3339	384.71	0.13
0.3518	383.96	0.13
0.3753	383.41	0.13
0.3928	383.01	0.13
0.4044	382.56	0.13
0.4273	382.26	0.13
0.441	381.96	0.13

System: glycerol + propan-2-ol; phases: Liquid, Gas
Fixed: Pressure, kPa = 101
Property: Boiling temperature at pressure P, K (Liquid); method: Ebulliometric method (Recirculating still)
Mole fraction of propan-2-ol	Boiling temperature at pressure P, K	uncertainty
0.0064	468.93	0.13
0.0079	459.08	0.13
0.0222	443.27	0.13
0.0293	425.27	0.13
0.0405	415.17	0.13
0.0503	404.17	0.13
0.0777	395.31	0.13
0.098	389.81	0.13
0.1297	385.01	0.13
0.1478	380.51	0.13
0.1821	377.96	0.13
0.2106	375.56	0.13
0.2252	373.96	0.13
0.2492	373.06	0.13
0.2787	371.56	0.13
0.2915	370.71	0.13
0.3121	370.01	0.13
0.3189	369.81	0.13
0.3347	369.11	0.13
0.358	368.41	0.13

System: glycerol + butan-1-ol; phases: Liquid, Gas
Fixed: Pressure, kPa = 101
Property: Boiling temperature at pressure P, K (Liquid); method: Ebulliometric method (Recirculating still)
Mole fraction of butan-1-ol	Boiling temperature at pressure P, K	uncertainty
0.0086	485.36	0.13
0.0219	477.97	0.13
0.0286	467.63	0.13
0.0353	453.44	0.13
0.0486	444.2	0.13
0.0671	433.81	0.13
0.0883	425.91	0.13
0.1068	420.02	0.13
0.1344	416.12	0.13
0.154	413.02	0.13
0.1737	410.62	0.13
0.1997	408.82	0.13
0.2193	407.13	0.13
0.2349	406.63	0.13
0.2375	406.01	0.13
0.2764	405.38	0.13
0.2971	404.63	0.13
0.3036	404.23	0.13
0.3165	403.93	0.13
0.3294	403.33	0.13
0.3553	403.19	0.13
0.3682	402.93	0.13
0.3876	402.53	0.13
