Measured thermophysical data. Solubility and dissolution characteristics of capecitabine in pure lower alcohols and water with methanol mixture solvents at atmospheric pressure and different temperatures
Source: Fluid Phase Equilib., 2018, 10.1016/j.fluid.2017.12.024
Compound 1: 5'-deoxy-5-fluoro-N-[(pentyloxy)carbonyl]cytidine, C15H22FN3O6, InChI=1S/C15H22FN3O6/c1-3-4-5-6-24-15(23)18-12-9(16)7-19(14(22)17-12)13-11(21)10(20)8(2)25-13/h7-8,10-11,13,20-21H,3-6H2,1-2H3,(H,17,18,22,23)/t8-,10-,11-,13-/m1/s1, purity 99.4%
Compound 2: ethanol, C2H6O, InChI=1S/C2H6O/c1-2-3/h3H,2H2,1H3, purity 99.7%
Compound 3: propan-1-ol, C3H8O, InChI=1S/C3H8O/c1-2-3-4/h4H,2-3H2,1H3, purity 99.8%
Compound 4: propan-2-ol, C3H8O, InChI=1S/C3H8O/c1-3(2)4/h3-4H,1-2H3, purity 99.7%
Compound 5: butan-1-ol, C4H10O, InChI=1S/C4H10O/c1-2-3-4-5/h5H,2-4H2,1H3, purity 99.5%
Compound 6: 2-methyl-1-propanol, C4H10O, InChI=1S/C4H10O/c1-4(2)3-5/h4-5H,3H2,1-2H3, purity 99%
Compound 7: butan-2-ol, C4H10O, InChI=1S/C4H10O/c1-3-4(2)5/h4-5H,3H2,1-2H3, purity 99%
Compound 8: 2-methylpropan-2-ol, C4H10O, InChI=1S/C4H10O/c1-4(2,3)5/h5H,1-3H3, purity 99%
Compound 9: pentan-1-ol, C5H12O, InChI=1S/C5H12O/c1-2-3-4-5-6/h6H,2-5H2,1H3, purity 98.5%
Compound 10: 3-methylbutan-1-ol, C5H12O, InChI=1S/C5H12O/c1-5(2)3-4-6/h5-6H,3-4H2,1-2H3, purity 98.5%
Compound 11: hexan-1-ol, C6H14O, InChI=1S/C6H14O/c1-2-3-4-5-6-7/h7H,2-6H2,1H3, purity 98%
Compound 12: heptan-1-ol, C7H16O, InChI=1S/C7H16O/c1-2-3-4-5-6-7-8/h8H,2-7H2,1H3, purity 99%
Compound 13: octan-1-ol, C8H18O, InChI=1S/C8H18O/c1-2-3-4-5-6-7-8-9/h9H,2-8H2,1H3, purity 99%
Compound 14: 2-ethyl-1-hexanol, C8H18O, InChI=1S/C8H18O/c1-3-5-6-8(4-2)7-9/h8-9H,3-7H2,1-2H3, purity 99.5%
Compound 15: 2-octanol, C8H18O, InChI=1S/C8H18O/c1-3-4-5-6-7-8(2)9/h8-9H,3-7H2,1-2H3, purity 98%
Compound 16: 1,2-ethanediol, C2H6O2, InChI=1S/C2H6O2/c3-1-2-4/h3-4H,1-2H2, purity 99%
Compound 17: water, H2O, InChI=1S/H2O/h1H2, purity 99.9%
Compound 18: methanol, CH4O, InChI=1S/CH4O/c1-2/h2H,1H3, purity 99.5%

System: 5'-deoxy-5-fluoro-N-[(pentyloxy)carbonyl]cytidine + ethanol; phases: Liquid, Crystal
Fixed: Pressure, kPa = 100
Property: Mole fraction of 5'-deoxy-5-fluoro-N-[(pentyloxy)carbonyl]cytidine (Liquid); method: Visual observation of laser light
Temperature, K	Mole fraction of 5'-deoxy-5-fluoro-N-[(pentyloxy)carbonyl]cytidine	uncertainty
278.25	0.0099	0.0004
282.86	0.0123	0.0005
287.85	0.017	0.0007
292.84	0.0247	0.001
297.75	0.0353	0.0014
302.55	0.048	0.002
307.25	0.0676	0.0027
312.14	0.0933	0.0038
317.35	0.1271	0.0051
322.13	0.166	0.0067

System: 5'-deoxy-5-fluoro-N-[(pentyloxy)carbonyl]cytidine + propan-1-ol; phases: Liquid, Crystal
Fixed: Pressure, kPa = 100
Property: Mole fraction of 5'-deoxy-5-fluoro-N-[(pentyloxy)carbonyl]cytidine (Liquid); method: Visual observation of laser light
Temperature, K	Mole fraction of 5'-deoxy-5-fluoro-N-[(pentyloxy)carbonyl]cytidine	uncertainty
278	0.0024	0.0001
283.06	0.0037	0.0002
287.98	0.0055	0.0002
292.87	0.0088	0.0004
297.33	0.0132	0.0005
302.29	0.0205	0.0008
307.07	0.0309	0.0013
312.14	0.0471	0.0019
316.88	0.0687	0.0028
321.47	0.0997	0.0041

System: 5'-deoxy-5-fluoro-N-[(pentyloxy)carbonyl]cytidine + propan-2-ol; phases: Liquid, Crystal
Fixed: Pressure, kPa = 100
Property: Mole fraction of 5'-deoxy-5-fluoro-N-[(pentyloxy)carbonyl]cytidine (Liquid); method: Visual observation of laser light
Temperature, K	Mole fraction of 5'-deoxy-5-fluoro-N-[(pentyloxy)carbonyl]cytidine	uncertainty
277.98	0.0011	0.0001
283.49	0.0016	0.0001
288.07	0.0024	0.0001
293.16	0.0037	0.0002
297.34	0.0053	0.0002
302.29	0.0079	0.0003
307.07	0.0115	0.0005
312.14	0.017	0.0007
316.88	0.0241	0.001
321.47	0.034	0.0014

System: 5'-deoxy-5-fluoro-N-[(pentyloxy)carbonyl]cytidine + butan-1-ol; phases: Liquid, Crystal
Fixed: Pressure, kPa = 100
Property: Mole fraction of 5'-deoxy-5-fluoro-N-[(pentyloxy)carbonyl]cytidine (Liquid); method: Visual observation of laser light
Temperature, K	Mole fraction of 5'-deoxy-5-fluoro-N-[(pentyloxy)carbonyl]cytidine	uncertainty
278.1	0.0021	0.0001
283.03	0.003	0.0001
288.02	0.0045	0.0002
293.53	0.007	0.0003
298	0.0106	0.0004
303.15	0.016	0.0007
308.25	0.0239	0.001
312.35	0.0351	0.0014
317.4	0.051	0.0021
322.49	0.077	0.0031

System: 5'-deoxy-5-fluoro-N-[(pentyloxy)carbonyl]cytidine + 2-methyl-1-propanol; phases: Liquid, Crystal
Fixed: Pressure, kPa = 100
Property: Mole fraction of 5'-deoxy-5-fluoro-N-[(pentyloxy)carbonyl]cytidine (Liquid); method: Visual observation of laser light
Temperature, K	Mole fraction of 5'-deoxy-5-fluoro-N-[(pentyloxy)carbonyl]cytidine	uncertainty
278.26	0.0012	0.0001
283.15	0.0018	0.0001
288.1	0.0029	0.0001
293.38	0.0046	0.0002
298.02	0.007	0.0003
302.85	0.0107	0.0004
307.4	0.0156	0.0006
312.25	0.0232	0.0009
316.95	0.0336	0.0014
321.95	0.0492	0.002

System: 5'-deoxy-5-fluoro-N-[(pentyloxy)carbonyl]cytidine + butan-2-ol; phases: Liquid, Crystal
Fixed: Pressure, kPa = 100
Property: Mole fraction of 5'-deoxy-5-fluoro-N-[(pentyloxy)carbonyl]cytidine (Liquid); method: Visual observation of laser light
Temperature, K	Mole fraction of 5'-deoxy-5-fluoro-N-[(pentyloxy)carbonyl]cytidine	uncertainty
278.15	0.001	0.0001
283.17	0.0016	0.0001
288.13	0.0026	0.0001
293.35	0.0043	0.0002
298.44	0.0065	0.0003
302.9	0.0093	0.0004
307.65	0.014	0.0006
312.44	0.0207	0.0008
317.25	0.0301	0.0012
321.9	0.0428	0.0017

System: 5'-deoxy-5-fluoro-N-[(pentyloxy)carbonyl]cytidine + 2-methylpropan-2-ol; phases: Liquid, Crystal
Fixed: Pressure, kPa = 100
Property: Mole fraction of 5'-deoxy-5-fluoro-N-[(pentyloxy)carbonyl]cytidine (Liquid); method: Visual observation of laser light
Temperature, K	Mole fraction of 5'-deoxy-5-fluoro-N-[(pentyloxy)carbonyl]cytidine	uncertainty
299.65	0.0078	0.0003
302.75	0.0096	0.0004
307.43	0.0139	0.0006
312.2	0.0199	0.0008
317.04	0.0294	0.0012
321.65	0.0423	0.0017

System: 5'-deoxy-5-fluoro-N-[(pentyloxy)carbonyl]cytidine + pentan-1-ol; phases: Liquid, Crystal
Fixed: Pressure, kPa = 100
Property: Mole fraction of 5'-deoxy-5-fluoro-N-[(pentyloxy)carbonyl]cytidine (Liquid); method: Visual observation of laser light
Temperature, K	Mole fraction of 5'-deoxy-5-fluoro-N-[(pentyloxy)carbonyl]cytidine	uncertainty
278.2	0.002	0.0001
282.97	0.0031	0.0001
288.26	0.0051	0.0002
292.64	0.0071	0.0003
297.33	0.0101	0.0004
302.27	0.0146	0.0006
307.06	0.0205	0.0008
312.04	0.0292	0.0012
316.78	0.0404	0.0016
321.47	0.0555	0.0022

System: 5'-deoxy-5-fluoro-N-[(pentyloxy)carbonyl]cytidine + 3-methylbutan-1-ol; phases: Liquid, Crystal
Fixed: Pressure, kPa = 100
Property: Mole fraction of 5'-deoxy-5-fluoro-N-[(pentyloxy)carbonyl]cytidine (Liquid); method: Visual observation of laser light
Temperature, K	Mole fraction of 5'-deoxy-5-fluoro-N-[(pentyloxy)carbonyl]cytidine	uncertainty
278.25	0.0027	0.0001
282.97	0.0038	0.0002
288.76	0.0057	0.0002
292.64	0.0074	0.0003
297.33	0.0102	0.0004
302.27	0.0141	0.0006
307.06	0.0193	0.0008
312.04	0.0267	0.0011
316.78	0.0361	0.0015
321.47	0.0485	0.002

System: 5'-deoxy-5-fluoro-N-[(pentyloxy)carbonyl]cytidine + hexan-1-ol; phases: Liquid, Crystal
Fixed: Pressure, kPa = 100
Property: Mole fraction of 5'-deoxy-5-fluoro-N-[(pentyloxy)carbonyl]cytidine (Liquid); method: Visual observation of laser light
Temperature, K	Mole fraction of 5'-deoxy-5-fluoro-N-[(pentyloxy)carbonyl]cytidine	uncertainty
278.1	0.0018	0.0001
284.33	0.0029	0.0001
287.97	0.0038	0.0002
293.85	0.006	0.0003
297.6	0.008	0.0003
303.55	0.0125	0.0005
308.55	0.0173	0.0007
313.15	0.0241	0.001
317.75	0.0333	0.0014
322.25	0.0461	0.0019

System: 5'-deoxy-5-fluoro-N-[(pentyloxy)carbonyl]cytidine + heptan-1-ol; phases: Liquid, Crystal
Fixed: Pressure, kPa = 100
Property: Mole fraction of 5'-deoxy-5-fluoro-N-[(pentyloxy)carbonyl]cytidine (Liquid); method: Visual observation of laser light
Temperature, K	Mole fraction of 5'-deoxy-5-fluoro-N-[(pentyloxy)carbonyl]cytidine	uncertainty
278	0.0018	0.0001
283.15	0.0025	0.0001
288.33	0.0036	0.0002
292.53	0.0047	0.0002
297.63	0.0065	0.0003
303.3	0.0092	0.0004
308.35	0.0126	0.0005
313.25	0.017	0.0007
318.05	0.0226	0.0009
322.85	0.0299	0.0012

System: 5'-deoxy-5-fluoro-N-[(pentyloxy)carbonyl]cytidine + octan-1-ol; phases: Liquid, Crystal
Fixed: Pressure, kPa = 100
Property: Mole fraction of 5'-deoxy-5-fluoro-N-[(pentyloxy)carbonyl]cytidine (Liquid); method: Visual observation of laser light
Temperature, K	Mole fraction of 5'-deoxy-5-fluoro-N-[(pentyloxy)carbonyl]cytidine	uncertainty
278.65	0.0022	0.0001
283	0.003	0.0001
287.98	0.004	0.0002
292.95	0.0055	0.0002
298.35	0.0076	0.0003
302.94	0.01	0.0004
307.5	0.0131	0.0005
312.35	0.0173	0.0007
317.05	0.0226	0.0009
322.05	0.0307	0.0012

System: 5'-deoxy-5-fluoro-N-[(pentyloxy)carbonyl]cytidine + 2-ethyl-1-hexanol; phases: Liquid, Crystal
Fixed: Pressure, kPa = 100
Property: Mole fraction of 5'-deoxy-5-fluoro-N-[(pentyloxy)carbonyl]cytidine (Liquid); method: Visual observation of laser light
Temperature, K	Mole fraction of 5'-deoxy-5-fluoro-N-[(pentyloxy)carbonyl]cytidine	uncertainty
278.02	0.0011	0.0001
282.93	0.0013	0.0001
287.88	0.0019	0.0001
292.57	0.0027	0.0001
297.38	0.0036	0.0002
302.24	0.005	0.0002
307.13	0.0069	0.0003
312.04	0.0096	0.0004
316.73	0.0125	0.0005
321.76	0.0173	0.0007

System: 5'-deoxy-5-fluoro-N-[(pentyloxy)carbonyl]cytidine + 2-octanol; phases: Liquid, Crystal
Fixed: Pressure, kPa = 100
Property: Mole fraction of 5'-deoxy-5-fluoro-N-[(pentyloxy)carbonyl]cytidine (Liquid); method: Visual observation of laser light
Temperature, K	Mole fraction of 5'-deoxy-5-fluoro-N-[(pentyloxy)carbonyl]cytidine	uncertainty
278.04	0.001	0.0001
282.95	0.0014	0.0001
287.9	0.0018	0.0001
292.55	0.0025	0.0001
298.45	0.0036	0.0002
302.3	0.0047	0.0002
307.15	0.0064	0.0003
312.05	0.0087	0.0004
317.75	0.0116	0.0005
322.2	0.0151	0.0006

System: 5'-deoxy-5-fluoro-N-[(pentyloxy)carbonyl]cytidine + 1,2-ethanediol; phases: Liquid, Crystal
Fixed: Pressure, kPa = 100
Property: Mole fraction of 5'-deoxy-5-fluoro-N-[(pentyloxy)carbonyl]cytidine (Liquid); method: Visual observation of laser light
Temperature, K	Mole fraction of 5'-deoxy-5-fluoro-N-[(pentyloxy)carbonyl]cytidine	uncertainty
278.65	0.01	0.0004
283.15	0.0125	0.0005
287.95	0.017	0.0007
293	0.021	0.0008
297.95	0.0267	0.0011
302.95	0.0348	0.0014
307.65	0.0437	0.0018
312.1	0.0539	0.0022
316.85	0.0661	0.0027
322.25	0.0877	0.0035

System: 5'-deoxy-5-fluoro-N-[(pentyloxy)carbonyl]cytidine + water; phases: Liquid, Crystal
Fixed: Pressure, kPa = 100
Property: Mole fraction of 5'-deoxy-5-fluoro-N-[(pentyloxy)carbonyl]cytidine (Liquid); method: Visual observation of laser light
Temperature, K	Mole fraction of 5'-deoxy-5-fluoro-N-[(pentyloxy)carbonyl]cytidine	uncertainty
278.25	0.0009	0.0001
283.2	0.001	0.0001
288.3	0.001	0.0001
293.25	0.0011	0.0001
298.25	0.0012	0.0001
302.8	0.0013	0.0001
308	0.0014	0.0001
312.95	0.0015	0.0001
317.65	0.0016	0.0001
322.75	0.0017	0.0001

System: 5'-deoxy-5-fluoro-N-[(pentyloxy)carbonyl]cytidine + water + methanol; phases: Liquid, Crystal
Fixed: Pressure, kPa = 101
Property: Mole fraction of 5'-deoxy-5-fluoro-N-[(pentyloxy)carbonyl]cytidine (Liquid); method: visual observation of laser light penetration
Solvent: Mole fraction of methanol	Temperature, K	Mole fraction of 5'-deoxy-5-fluoro-N-[(pentyloxy)carbonyl]cytidine	uncertainty
0.1	277.8	0.0017	0.0001
0.1	282.65	0.002	0.0001
0.1	288.2	0.0023	0.0001
0.1	293.65	0.0026	0.0001
0.1	298.5	0.0029	0.0001
0.1	303.1	0.0033	0.0001
0.1	308.25	0.0037	0.0002
0.1	311.65	0.0042	0.0002
0.1	318.75	0.0047	0.0002
0.1	324.55	0.0052	0.0002
0.12	278.65	0.0012	0.0001
0.12	283.35	0.0017	0.0001
0.12	288.55	0.0022	0.0001
0.12	293.5	0.003	0.0001
0.12	298.55	0.004	0.0002
0.12	303.5	0.0052	0.0002
0.12	308.35	0.0068	0.0003
0.12	313.2	0.0088	0.0004
0.12	318.05	0.0112	0.0005
0.12	322.85	0.0143	0.0006
0.14	278.5	0.0011	0.0001
0.14	283.6	0.0018	0.0001
0.14	288.35	0.0028	0.0001
0.14	293.5	0.0044	0.0002
0.14	298.2	0.0067	0.0003
0.14	303	0.0102	0.0004
0.14	308.1	0.0152	0.0006
0.14	313.2	0.0225	0.0009
0.14	318.1	0.0328	0.0013
0.14	323.2	0.0473	0.0021
0.16	278.45	0.0016	0.0001
0.16	283.55	0.0025	0.0001
0.16	288.15	0.0041	0.0002
0.16	293.4	0.0075	0.0003
0.16	298.2	0.0133	0.0006
0.16	303.1	0.0231	0.001
0.16	308.2	0.0394	0.0016
0.16	312.75	0.0662	0.0027
0.16	318.05	0.1094	0.0045
0.16	323.05	0.1779	0.0073
