Measured thermophysical data. Liquid-liquid equilibrium data for ternary mixtures composed of n-hexane, benzene and acetonitrile at (298.15, 308.15, and 318.15) K
Source: Fluid Phase Equilib., 2014, 10.1016/j.fluid.2014.01.033
Compound 1: hexane, C6H14, InChI=1S/C6H14/c1-3-5-6-4-2/h3-6H2,1-2H3, purity 99.74%
Compound 2: benzene, C6H6, InChI=1S/C6H6/c1-2-4-6-5-3-1/h1-6H, purity 99.81%
Compound 3: acetonitrile, C2H3N, InChI=1S/C2H3N/c1-2-3/h1H3, purity 99.78%

System: hexane; phases: Liquid
Property: Mass density, kg/m3 (Liquid); method: Vibrating tube method
Temperature, K	Pressure, kPa	Mass density, kg/m3	uncertainty
298.15	101.325	655.12	0.21

System: hexane; phases: Liquid
Property: Refractive index (Na D-line) (Liquid); method: Standard Abbe refractometry
Temperature, K	Pressure, kPa	Refractive index (Na D-line)	uncertainty
298.15	101.325	1.3725	0.0007

System: benzene; phases: Liquid
Property: Mass density, kg/m3 (Liquid); method: Vibrating tube method
Temperature, K	Pressure, kPa	Mass density, kg/m3	uncertainty
298.15	101.325	873.79	0.17

System: benzene; phases: Liquid
Property: Refractive index (Na D-line) (Liquid); method: Standard Abbe refractometry
Temperature, K	Pressure, kPa	Refractive index (Na D-line)	uncertainty
298.15	101.325	1.4978	0.0007

System: acetonitrile; phases: Liquid
Property: Mass density, kg/m3 (Liquid); method: Vibrating tube method
Temperature, K	Pressure, kPa	Mass density, kg/m3	uncertainty
298.15	101.325	776.55	0.19

System: acetonitrile; phases: Liquid
Property: Refractive index (Na D-line) (Liquid); method: Standard Abbe refractometry
Temperature, K	Pressure, kPa	Refractive index (Na D-line)	uncertainty
298.15	101.325	1.3413	0.0007

System: benzene + acetonitrile + hexane; phases: Liquid mixture 1, Liquid mixture 2
Fixed: Pressure, kPa = 101
Property: Mole fraction of benzene (Liquid mixture 1); method: Chromatography
Property: Mole fraction of benzene (Liquid mixture 2); method: Chromatography
Property: Mole fraction of hexane (Liquid mixture 2); method: Chromatography
Temperature, K	Mole fraction of hexane	Mole fraction of benzene	uncertainty	Mole fraction of benzene	uncertainty	Mole fraction of hexane	uncertainty
298.15	0.7965	0.0938	0.0026	0.0615	0.0069	0.0773	
298.15	0.7102	0.1607	0.0028	0.1132	0.0115	0.0929	
298.15	0.6378	0.2141	0.0029	0.1514	0.0046	0.1133	
298.15	0.5693	0.2655	0.003	0.2092	0.0043	0.1025	
298.15	0.4923	0.3037	0.0031	0.2521	0.0053	0.1278	
298.15	0.4491	0.3341	0.0033	0.2708	0.0037	0.1588	
298.15	0.3967	0.3551	0.0033	0.3109	0.0043	0.1722	
298.15	0.3385	0.3605	0.0033	0.3375	0.0037	0.1991	
308.15	0.7802	0.0963	0.0027	0.0679	0.0042	0.0735	
308.15	0.7121	0.1538	0.0027	0.1154	0.0056	0.0997	
308.15	0.6223	0.2178	0.0028	0.1645	0.0061	0.1086	
308.15	0.5529	0.2557	0.0029	0.1988	0.0043	0.1257	
308.15	0.4909	0.2912	0.0031	0.2371	0.0041	0.1492	
308.15	0.4326	0.3177	0.0031	0.2708	0.0038	0.1708	
308.15	0.3786	0.3354	0.0032	0.2998	0.0034	0.1966	
308.15	0.3259	0.344	0.0032	0.324	0.0034	0.2295	
318.15	0.7789	0.0876	0.0026	0.0601	0.0074	0.0997	
318.15	0.6932	0.1508	0.0027	0.1085	0.0067	0.1134	
318.15	0.6159	0.2031	0.0028	0.1532	0.0056	0.1291	
318.15	0.5456	0.2454	0.0028	0.1939	0.0046	0.1472	
318.15	0.4818	0.2711	0.0029	0.2303	0.0039	0.1682	
318.15	0.4232	0.3013	0.003	0.2619	0.0035	0.1929	
318.15	0.3632	0.3155	0.003	0.2886	0.0032	0.2231	
318.15	0.3172	0.3193	0.003	0.3081	0.0032	0.2596	
