Measured thermophysical data. Solubility of disperse yellow 54 in supercritical carbon dioxide with or without cosolvent
Source: Fluid Phase Equilib., 2007, 10.1016/j.fluid.2007.07.070
Compound 1: carbon dioxide, CO2, InChI=1S/CO2/c2-1-3
Compound 2: ethanol, C2H6O, InChI=1S/C2H6O/c1-2-3/h3H,2H2,1H3
Compound 3: 1H-indene-1,3(2H)-dione, 2-(3-hydroxy-2-quinolinyl)-, C18H11NO3, InChI=1S/C18H11NO3/c20-14-9-10-5-1-4-8-13(10)19-16(14)15-17(21)11-6-2-3-7-12(11)18(15)22/h1-9,15,20H
Compound 4: dimethyl sulfoxide, C2H6OS, InChI=1S/C2H6OS/c1-4(2)3/h1-2H3

System: 1H-indene-1,3(2H)-dione, 2-(3-hydroxy-2-quinolinyl)-; phases: Crystal, Liquid, Air at 1 atmosphere
Property: Normal melting temperature, K (Crystal); method: DTA
Normal melting temperature, K	uncertainty
533.8	0.5

System: carbon dioxide + 1H-indene-1,3(2H)-dione, 2-(3-hydroxy-2-quinolinyl)-; phases: Fluid (supercritical or subcritical phases), Crystal
Property: Mole fraction of 1H-indene-1,3(2H)-dione, 2-(3-hydroxy-2-quinolinyl)- (Fluid (supercritical or subcritical phases)); method: UV-vis spectrophotometer
Temperature, K	Pressure, kPa	Mole fraction of 1H-indene-1,3(2H)-dione, 2-(3-hydroxy-2-quinolinyl)-	uncertainty
353.2	15000	3.22e-07	6.5e-08
353.2	20000	1.4e-06	2.81e-07
353.2	25000	3.05e-06	6.12e-07
353.2	30000	4.88e-06	9.79e-07
373.2	15000	2.88e-07	5.8e-08
373.2	20000	1.24e-06	2.49e-07
373.2	25000	3.81e-06	7.64e-07
373.2	30000	6.4e-06	1.284e-06
393.2	15000	1.94e-07	3.9e-08
393.2	20000	1.14e-06	2.29e-07
393.2	25000	5.24e-06	1.052e-06
393.2	30000	1.03e-05	2.066e-06

System: ethanol + carbon dioxide + 1H-indene-1,3(2H)-dione, 2-(3-hydroxy-2-quinolinyl)-; phases: Fluid (supercritical or subcritical phases), Crystal
Property: Mole fraction of 1H-indene-1,3(2H)-dione, 2-(3-hydroxy-2-quinolinyl)- (Fluid (supercritical or subcritical phases)); method: UV-vis spectrophotometer
Temperature, K	Pressure, kPa	Solvent: Mole fraction of ethanol	Mole fraction of 1H-indene-1,3(2H)-dione, 2-(3-hydroxy-2-quinolinyl)-	uncertainty
353.2	15000	0.01	4.34e-07	8.7e-08
353.2	15000	0.03	6.29e-07	1.26e-07
353.2	15000	0.05	8.21e-07	1.65e-07
353.2	20000	0.01	1.77e-06	3.6e-07
353.2	20000	0.03	2.29e-06	4.6e-07
353.2	20000	0.05	3.35e-06	6.7e-07
353.2	25000	0.01	3.41e-06	6.8e-07
353.2	25000	0.03	4.66e-06	9.3e-07
353.2	25000	0.05	6.56e-06	1.32e-06
353.2	30000	0.01	5.27e-06	1.06e-06
353.2	30000	0.03	7.09e-06	1.42e-06
353.2	30000	0.05	9.1e-06	1.8e-06
393.2	20000	0.01	1.71e-06	3.4e-07
393.2	20000	0.03	2.51e-06	5.1e-07
393.2	20000	0.05	4.11e-06	8.3e-07
393.2	25000	0.01	6.3e-06	1.3e-06
393.2	25000	0.03	9.26e-06	1.86e-06
393.2	25000	0.05	1.33e-05	2.7e-06
393.2	30000	0.01	1.2e-05	2.4e-06
393.2	30000	0.03	1.49e-05	3e-06
393.2	30000	0.05	2.06e-05	4.1e-06

System: dimethyl sulfoxide + carbon dioxide + 1H-indene-1,3(2H)-dione, 2-(3-hydroxy-2-quinolinyl)-; phases: Fluid (supercritical or subcritical phases), Crystal
Fixed: Temperature, K = 353.2
Property: Mole fraction of 1H-indene-1,3(2H)-dione, 2-(3-hydroxy-2-quinolinyl)- (Fluid (supercritical or subcritical phases)); method: UV-vis spectrophotometer
Pressure, kPa	Solvent: Mole fraction of dimethyl sulfoxide	Mole fraction of 1H-indene-1,3(2H)-dione, 2-(3-hydroxy-2-quinolinyl)-	uncertainty
20000	0.01	3.87e-06	7.8e-07
20000	0.03	4.96e-06	9.9e-07
20000	0.05	6.7e-06	1.34e-06
25000	0.01	6.56e-06	1.32e-06
25000	0.03	8.22e-06	1.65e-06
25000	0.05	1.04e-05	2.1e-06
30000	0.01	9.46e-06	1.9e-06
30000	0.03	1.22e-05	2.4e-06
30000	0.05	1.56e-05	3.1e-06
