Measured thermophysical data. Solid liquid equilibrium in the ternary system acetic acid propanoic acid formamide
Source: Fluid Phase Equilib., 2007, 10.1016/j.fluid.2007.07.065
Compound 1: acetic acid, C2H4O2, InChI=1S/C2H4O2/c1-2(3)4/h1H3,(H,3,4), purity 99.8%
Compound 2: formamide, CH3NO, InChI=1S/CH3NO/c2-1-3/h1H,(H2,2,3), purity 99.5%
Compound 3: propanoic acid, C3H6O2, InChI=1S/C3H6O2/c1-2-3(4)5/h2H2,1H3,(H,4,5), purity 99.5%

System: acetic acid; phases: Crystal, Liquid, Air at 1 atmosphere
Property: Normal melting temperature, K (Crystal); method: Heating/Cooling curves
Normal melting temperature, K	uncertainty
289.84	0.1

System: formamide; phases: Crystal, Liquid, Air at 1 atmosphere
Property: Normal melting temperature, K (Crystal); method: Heating/Cooling curves
Normal melting temperature, K	uncertainty
275.54	0.1

System: propanoic acid; phases: Crystal, Liquid, Air at 1 atmosphere
Property: Normal melting temperature, K (Crystal); method: Heating/Cooling curves
Normal melting temperature, K	uncertainty
252.54	0.1

System: acetic acid + formamide + propanoic acid; phases: Liquid, Crystal
Fixed: Solvent: Amount ratio of component to other component of binary solvent of acetic acid = 1
Fixed: Pressure, kPa = 101
Property: Solid-liquid equilibrium temperature, K (Liquid); method: LSTA:UFactor:8
Mole fraction of formamide	Solid-liquid equilibrium temperature, K	uncertainty
0	250.25	1.86
0.0415	249.63	1.86
0.0485	249.4	1.9
0.105	245.85	1.86
0.2018	237.04	1.86
0.2511	233.82	1.86
0.3038	234.61	1.86
0.3502	234.19	1.86
0.4035	233.62	1.86
0.4502	232.28	1.86
0.4761	234.61	1.86
0.5016	236.52	1.86
0.5271	237.53	1.86
0.5412	238.44	1.86
0.5651	239.86	1.86
0.5831	235.72	1.86
0.601	234.68	1.86
0.7009	249.23	1.86
0.8066	260.27	1.86
0.9002	268.19	1.86
1	275.54	1.86

System: acetic acid + formamide + propanoic acid; phases: Liquid, Crystal
Fixed: Solvent: Amount ratio of component to other component of binary solvent of acetic acid = 0.33
Fixed: Pressure, kPa = 101
Property: Solid-liquid equilibrium temperature, K (Liquid); method: LSTA:UFactor:8
Mole fraction of formamide	Solid-liquid equilibrium temperature, K	uncertainty
0	239.18	1.86
0.1009	236.91	1.86
0.2016	233.27	1.86
0.3025	229.31	1.86
0.3215	226.05	1.86
0.33	225.43	1.86
0.3484	237.88	1.86
0.3672	239.04	1.86
0.4038	240.83	1.86
0.5015	243.21	1.86
0.5534	242.54	1.86
0.6018	236.14	1.86
0.66	245.41	1.86
0.7001	250.35	1.86
0.802	260.37	1.86
0.9006	268.42	1.86
1	275.54	1.86

System: acetic acid + formamide + propanoic acid; phases: Liquid, Crystal
Fixed: Solvent: Amount ratio of component to other component of binary solvent of acetic acid = 3
Fixed: Pressure, kPa = 101
Property: Solid-liquid equilibrium temperature, K (Liquid); method: LSTA:UFactor:8
Mole fraction of formamide	Solid-liquid equilibrium temperature, K	uncertainty
0	273.88	1.86
0.103	266.53	1.86
0.2033	259.48	1.86
0.2545	254.5	1.86
0.3005	254.24	1.86
0.3521	254.1	1.86
0.4001	252.97	1.86
0.5014	248.04	1.86
0.536	244.7	1.86
0.5578	241.35	1.86
0.5722	238.6	1.86
0.59	243.18	1.86
0.6083	237.85	1.86
0.6165	242.57	1.86
0.646	241.28	1.86
0.6616	243.11	1.86
0.7021	248.63	1.86
0.7493	254.51	1.86
0.8018	259.42	1.86
0.903	268.52	1.86
1	275.54	1.86
