Measured thermophysical data. Phase equilibria and excess properties for binary systems in reactive distillation processes Part II. Ethyl acetate synthesis
Source: Fluid Phase Equilib., 2014, 10.1016/j.fluid.2014.05.031
Compound 1: ethanol, C2H6O, InChI=1S/C2H6O/c1-2-3/h3H,2H2,1H3, purity 99.9%
Compound 2: ethyl acetate, C4H8O2, InChI=1S/C4H8O2/c1-3-6-4(2)5/h3H2,1-2H3, purity 99.8%
Compound 3: acetic acid, C2H4O2, InChI=1S/C2H4O2/c1-2(3)4/h1H3,(H,3,4), purity 99.9%
Compound 4: water, H2O, InChI=1S/H2O/h1H2

System: ethanol + ethyl acetate; phases: Liquid
Property: Excess molar enthalpy (molar enthalpy of mixing), kJ/mol (Liquid); method: Flow calorimetry
Temperature, K	Pressure, kPa	Mole fraction of ethyl acetate	Excess molar enthalpy (molar enthalpy of mixing), kJ/mol	uncertainty
363.15	1548	0.0151	0.0973	0.0042
363.15	1548	0.0305	0.198	0.005
363.15	1548	0.0624	0.392	0.005
363.15	1548	0.0956	0.578	0.006
363.15	1548	0.1302	0.757	0.007
363.15	1548	0.1664	0.926	0.008
363.15	1548	0.2042	1.083	0.009
363.15	1548	0.2438	1.228	0.01
363.15	1548	0.2853	1.374	0.011
363.15	1548	0.3288	1.489	0.012
363.15	1548	0.3745	1.582	0.013
363.15	1548	0.4226	1.667	0.014
363.15	1548	0.4732	1.717	0.014
363.15	1548	0.5265	1.71	0.014
363.15	1548	0.5828	1.69	0.014
363.15	1548	0.6424	1.618	0.013
363.15	1548	0.7054	1.486	0.012
363.15	1548	0.7724	1.276	0.011
363.15	1548	0.8435	0.972	0.009
363.15	1548	0.9192	0.555	0.006
363.15	1548	0.9589	0.292	0.005
413.15	1307	0.0151	0.108	0.005
413.15	1307	0.0306	0.222	0.005
413.15	1307	0.0624	0.439	0.006
413.15	1307	0.0956	0.646	0.007
413.15	1307	0.1302	0.841	0.008
413.15	1307	0.1664	1.028	0.009
413.15	1307	0.2042	1.198	0.01
413.15	1307	0.2438	1.36	0.011
413.15	1307	0.2853	1.502	0.012
413.15	1307	0.3288	1.623	0.013
413.15	1307	0.3745	1.725	0.014
413.15	1307	0.4226	1.773	0.015
413.15	1307	0.4732	1.815	0.015
413.15	1307	0.5265	1.812	0.015
413.15	1307	0.5829	1.765	0.014
413.15	1307	0.6424	1.663	0.014
413.15	1307	0.7055	1.502	0.012
413.15	1307	0.7724	1.261	0.011
413.15	1307	0.8435	0.939	0.008
413.15	1307	0.9192	0.524	0.006
413.15	1307	0.9589	0.276	0.005

System: ethanol + acetic acid; phases: Liquid
Fixed: Temperature, K = 323.15
Fixed: Pressure, kPa = 1548
Property: Excess molar enthalpy (molar enthalpy of mixing), kJ/mol (Liquid); method: Flow calorimetry
Mole fraction of acetic acid	Excess molar enthalpy (molar enthalpy of mixing), kJ/mol	uncertainty
0.0247	0.0451	0.0336
0.0493	0.0844	0.0447
0.0987	0.145	0.061
0.1729	0.196	0.029
0.2473	0.215	0.007
0.3467	0.212	0.011
0.4464	0.182	0.02
0.5464	0.148	0.022
0.6467	0.111	0.021
0.7473	0.0803	0.0177
0.8229	0.0608	0.0169
0.8987	0.0389	0.0199
0.9493	0.0211	0.0164
0.9746	0.0117	0.01

System: ethanol + acetic acid; phases: Gas, Liquid
Property: Vapor or sublimation pressure, kPa (Gas); method: Closed cell (Static) method
Temperature, K	Mole fraction of ethanol	Vapor or sublimation pressure, kPa	uncertainty
298.15	0	2.05	0.05
298.15	0.0124	2.11	0.05
298.15	0.0569	2.28	0.05
298.15	0.1053	2.45	0.05
298.15	0.1613	2.65	0.05
298.15	0.2251	2.89	0.05
298.15	0.2982	3.19	0.05
298.15	0.3725	3.52	0.05
298.15	0.4382	3.84	0.05
298.15	0.444	3.88	0.05
298.15	0.4999	4.19	0.06
298.15	0.5095	4.26	0.06
298.15	0.5694	4.62	0.06
298.15	0.6449	5.14	0.06
298.15	0.7231	5.72	0.06
298.15	0.7978	6.29	0.07
298.15	0.8606	6.78	0.07
298.15	0.9124	7.18	0.07
298.15	0.952	7.48	0.07
298.15	0.9853	7.71	0.07
298.15	1	7.82	0.07
323.15	0	7.62	0.06
323.15	0.0195	7.9	0.06
323.15	0.0393	8.17	0.06
323.15	0.0746	8.65	0.06
323.15	0.1153	9.22	0.06
323.15	0.1664	9.94	0.06
323.15	0.2265	10.84	0.06
323.15	0.2967	11.97	0.07
323.15	0.37	13.28	0.07
323.15	0.4404	14.62	0.07
323.15	0.5026	15.92	0.08
323.15	0.5724	17.54	0.08
323.15	0.6485	19.48	0.09
323.15	0.727	21.62	0.09
323.15	0.8018	23.75	0.1
323.15	0.8644	25.56	0.11
323.15	0.9158	27.01	0.11
323.15	0.9547	28.09	0.11
323.15	0.9868	28.96	0.12
323.15	1	29.32	0.12

System: ethanol + water; phases: Liquid
Property: Excess molar enthalpy (molar enthalpy of mixing), kJ/mol (Liquid); method: Flow calorimetry
Temperature, K	Pressure, kPa	Mole fraction of ethanol	Excess molar enthalpy (molar enthalpy of mixing), kJ/mol	uncertainty
333.15	1824	0.0079	-0.0399	0.0041
333.15	1824	0.016	-0.0795	0.0043
333.15	1824	0.0333	-0.155	0.004
333.15	1824	0.0519	-0.217	0.005
333.15	1824	0.0719	-0.266	0.005
333.15	1824	0.0936	-0.297	0.005
333.15	1824	0.1172	-0.308	0.005
333.15	1824	0.143	-0.306	0.005
333.15	1824	0.1712	-0.288	0.005
333.15	1824	0.2023	-0.259	0.005
333.15	1824	0.2366	-0.231	0.005
333.15	1824	0.2747	-0.19	0.005
333.15	1824	0.3173	-0.147	0.004
333.15	1824	0.3653	-0.101	0.004
333.15	1824	0.4196	-0.0523	0.0041
333.15	1824	0.4818	-0.0073	0.0041
333.15	1824	0.5535	0.0274	0.0041
333.15	1824	0.6372	0.0418	0.0041
333.15	1824	0.7361	0.0312	0.0041
333.15	1824	0.8548	0.0006	0.0041
333.15	1824	0.9236	-0.0155	0.0041
333.15	1824	0.9608	-0.0121	0.0041
363.15	1203	0.0079	-0.0112	0.0041
363.15	1203	0.016	-0.0235	0.0041
363.15	1203	0.0333	-0.0465	0.0041
363.15	1203	0.0518	-0.0592	0.0042
363.15	1203	0.0719	-0.0586	0.0042
363.15	1203	0.0936	-0.0453	0.0041
363.15	1203	0.1172	-0.0202	0.0041
363.15	1203	0.143	0.0157	0.0041
363.15	1203	0.1712	0.0549	0.0042
363.15	1203	0.2022	0.0991	0.0043
363.15	1203	0.2365	0.144	0.004
363.15	1203	0.2746	0.191	0.005
363.15	1203	0.3173	0.241	0.005
363.15	1203	0.3652	0.288	0.005
363.15	1203	0.4196	0.332	0.005
363.15	1203	0.4817	0.359	0.005
363.15	1203	0.5534	0.366	0.005
363.15	1203	0.6371	0.34	0.005
363.15	1203	0.736	0.268	0.005
363.15	1203	0.8548	0.147	0.004
363.15	1203	0.9236	0.0752	0.0042
383.15	1500	0.0333	0.012	0.0041
383.15	1500	0.0719	0.0617	0.0042
383.15	1500	0.1172	0.142	0.004
383.15	1500	0.1712	0.246	0.005
383.15	1500	0.2365	0.359	0.005
383.15	1500	0.3173	0.469	0.006
383.15	1500	0.4196	0.554	0.006
383.15	1500	0.5534	0.579	0.006
383.15	1500	0.6371	0.544	0.006
383.15	1500	0.736	0.445	0.006
383.15	1500	0.7926	0.371	0.005
383.15	1500	0.8548	0.27	0.005
383.15	1500	0.9236	0.146	0.004

System: acetic acid + ethyl acetate; phases: Liquid
Fixed: Temperature, K = 323.15
Fixed: Pressure, kPa = 1548
Property: Excess molar enthalpy (molar enthalpy of mixing), kJ/mol (Liquid); method: Flow calorimetry
Mole fraction of ethyl acetate	Excess molar enthalpy (molar enthalpy of mixing), kJ/mol	uncertainty
0.0148	-0.0074	0.0063
0.03	-0.0148	0.0098
0.0613	-0.0266	0.0108
0.1108	-0.0387	0.0076
0.1637	-0.0437	0.0062
0.2403	-0.0394	0.0077
0.3246	-0.0264	0.0122
0.4179	-0.0055	0.0153
0.5217	0.0219	0.0167
0.6379	0.0539	0.015
0.7347	0.073	0.0084
0.8409	0.0786	0.005
0.9178	0.0638	0.0123
0.9582	0.044	0.013

System: acetic acid + ethyl acetate; phases: Gas, Liquid
Fixed: Temperature, K = 323.15
Property: Vapor or sublimation pressure, kPa (Gas); method: Closed cell (Static) method
Mole fraction of ethyl acetate	Vapor or sublimation pressure, kPa	uncertainty
0	7.61	0.06
0.0012	7.65	0.06
0.0022	7.69	0.06
0.0035	7.73	0.06
0.0057	7.8	0.06
0.0082	7.88	0.06
0.0125	8.03	0.06
0.0184	8.23	0.06
0.0272	8.52	0.06
0.0384	8.9	0.06
0.0526	9.38	0.06
0.0699	9.97	0.07
0.0904	10.67	0.07
0.1163	11.56	0.07
0.1455	12.55	0.07
0.1781	13.66	0.08
0.2133	14.85	0.08
0.2505	16.1	0.09
0.2895	17.39	0.09
0.3287	18.65	0.1
0.3298	18.7	0.1
0.3677	19.89	0.1
0.3702	20	0.1
0.4104	21.21	0.11
0.4109	21.28	0.11
0.4572	22.64	0.11
0.5073	24.13	0.12
0.5601	25.66	0.12
0.615	27.21	0.13
0.671	28.76	0.14
0.726	30.25	0.14
0.7793	31.67	0.15
0.8243	32.87	0.15
0.8647	33.96	0.16
0.8993	34.88	0.16
0.9275	35.67	0.17
0.9502	36.31	0.17
0.9654	36.76	0.17
0.976	37.08	0.17
0.9842	37.33	0.17
0.9897	37.5	0.17
0.9952	37.68	0.17
0.9976	37.76	0.18
1	37.85	0.18

System: ethyl acetate + water; phases: Liquid
Fixed: Temperature, K = 353.15
Fixed: Pressure, kPa = 1272
Property: Excess molar enthalpy (molar enthalpy of mixing), kJ/mol (Liquid); method: Flow calorimetry
Mole fraction of ethyl acetate	Excess molar enthalpy (molar enthalpy of mixing), kJ/mol	uncertainty
0.0096	0.0209	0.0197
0.0201	0.0446	0.0394
0.0441	0.0917	0.0865
0.058	0.119	0.115
0.0733	0.149	0.119
0.0905	0.182	0.118
0.0905	0.183	0.118
0.1096	0.22	0.117
0.1313	0.264	0.118
0.1559	0.311	0.118
0.1842	0.364	0.117
0.2169	0.43	0.117
0.2554	0.505	0.119
0.3012	0.594	0.118
0.3565	0.704	0.118
0.4249	0.838	0.116
0.5114	1.003	0.117
0.5639	1.104	0.117
0.6244	1.226	0.116
0.6949	1.357	0.019
0.8258	1.201	0.187
0.8781	0.94	0.137
0.9359	0.592	0.332
