Measured thermophysical data. Vapor pressure measurement for binary and ternary systems containing a phosphoric ionic liquid
Source: Fluid Phase Equilib., 2006, 10.1016/j.fluid.2006.07.007
Compound 1: 1,3-dimethylimidazolium dimethylphosphate, C7H15N2O4P, InChI=1S/C5H9N2.C2H7O4P/c1-6-3-4-7(2)5-6;1-5-7(3,4)6-2/h3-5H,1-2H3;1-2H3,(H,3,4)/q+1;/p-1
Compound 2: 1-ethyl-3-methylimidazolium diethyl phosphate, C10H21N2O4P, InChI=1S/C6H11N2.C4H11O4P/c1-3-8-5-4-7(2)6-8;1-3-7-9(5,6)8-4-2/h4-6H,3H2,1-2H3;3-4H2,1-2H3,(H,5,6)/q+1;/p-1
Compound 3: 1-butyl-3-methylimidazolium dibutyl phosphate, C16H33N2O4P, InChI=1S/C8H15N2.C8H19O4P/c1-3-4-5-10-7-6-9(2)8-10;1-3-5-7-11-13(9,10)12-8-6-4-2/h6-8H,3-5H2,1-2H3;3-8H2,1-2H3,(H,9,10)/q+1;/p-1
Compound 4: ethanol, C2H6O, InChI=1S/C2H6O/c1-2-3/h3H,2H2,1H3
Compound 5: methanol, CH4O, InChI=1S/CH4O/c1-2/h2H,1H3
Compound 6: water, H2O, InChI=1S/H2O/h1H2

System: ethanol; phases: Liquid, Gas
Property: Vapor or sublimation pressure, kPa (Liquid); method: Ebulliometric method (Recirculating still)
Temperature, K	Vapor or sublimation pressure, kPa	uncertainty
292.33	5.593	0.048
303.83	10.858	0.06
311.14	16.147	0.091
317.9	22.842	0.12
323.09	29.412	0.15
326.8	35.112	0.18
330.56	41.763	0.207
333.94	48.606	0.237
337.18	56.063	0.267
339.97	63.198	0.296
342.3	69.728	0.314

System: water + 1,3-dimethylimidazolium dimethylphosphate; phases: Liquid, Gas
Property: Vapor or sublimation pressure, kPa (Liquid); method: EBULLIO:UFactor:4
Mass fraction of 1,3-dimethylimidazolium dimethylphosphate	Temperature, K	Vapor or sublimation pressure, kPa	uncertainty
0.2	312.88	6.937	0.274
0.2	323.27	11.912	0.36
0.2	332.77	18.856	0.484
0.2	339.8	25.879	0.611
0.2	344.8	32.164	0.725
0.2	349.26	38.845	0.846
0.2	353.12	45.622	0.968
0.2	356.71	52.463	1.092
0.2	361.13	62.359	1.27
0.2	363.8	69.195	1.393
0.3	318.12	8.885	0.307
0.3	328.81	15.102	0.414
0.3	337.05	22.129	0.538
0.3	343.52	29.303	0.665
0.3	348.14	35.641	0.78
0.3	353.37	44.284	0.933
0.3	357.21	51.818	1.067
0.3	360.71	59.427	1.204
0.3	364.29	68.23	1.361
0.3	367.55	77.254	1.518
0.4	318.93	8.581	0.301
0.4	329.31	14.466	0.4
0.4	337.01	20.558	0.507
0.4	343.82	28.022	0.637
0.4	349.3	35.375	0.768
0.4	354.3	43.461	0.91
0.4	358.99	52.462	1.065
0.4	363.08	61.78	1.227
0.4	366.66	70.827	1.39
0.4	369.65	79.824	1.545
0.6	330.81	11.458	0.347
0.6	339.68	17.258	0.443
0.6	346.47	23.367	0.548
0.6	352.86	30.734	0.673
0.6	359.54	39.993	0.83
0.6	364.65	48.84	0.983
0.6	369.76	59.571	1.165
0.6	373.01	67.881	1.308

System: methanol + 1,3-dimethylimidazolium dimethylphosphate; phases: Liquid, Gas
Property: Vapor or sublimation pressure, kPa (Liquid); method: EBULLIO:UFactor:4
Mass fraction of 1,3-dimethylimidazolium dimethylphosphate	Temperature, K	Vapor or sublimation pressure, kPa	uncertainty
0.2	285.96	8.17	0.288
0.2	296.36	14.517	0.387
0.2	303.39	20.818	0.488
0.2	308.34	26.505	0.58
0.2	312.23	32.041	0.671
0.2	316.62	39.4	0.788
0.2	320.86	47.657	0.919
0.2	324.19	55.019	1.039
0.2	328.57	66.577	1.22
0.2	331.53	75.022	1.351
0.3	286.31	7.811	0.283
0.3	296.67	13.789	0.375
0.3	304.4	20.437	0.482
0.3	309.85	26.76	0.585
0.3	314.86	33.917	0.699
0.3	318.74	40.509	0.808
0.3	322.58	48.272	0.93
0.3	326.19	56.196	1.057
0.3	329.59	64.664	1.192
0.3	332.65	73.462	1.328
0.4	288.33	7.856	0.283
0.4	298.78	14.002	0.379
0.4	306.38	20.494	0.484
0.4	311.98	26.898	0.588
0.4	317.14	34.379	0.708
0.4	321.32	41.651	0.822
0.4	325.13	49.091	0.945
0.4	328.73	57.357	1.076
0.4	332.45	67.008	1.23
0.4	335.52	76.224	1.377
0.6	307.57	13.522	0.375
0.6	315.38	19.91	0.475
0.6	322.36	27.059	0.591
0.6	328.38	35.341	0.725
0.6	332.53	42.658	0.845
0.6	336.72	51.127	0.981
0.6	340.4	59.954	1.125
0.6	343.71	69.025	1.268

System: ethanol + 1,3-dimethylimidazolium dimethylphosphate; phases: Liquid, Gas
Property: Vapor or sublimation pressure, kPa (Liquid); method: EBULLIO:UFactor:4
Mass fraction of 1,3-dimethylimidazolium dimethylphosphate	Temperature, K	Vapor or sublimation pressure, kPa	uncertainty
0.1	298.62	7.853	0.284
0.1	310.06	14.936	0.393
0.1	317	21.274	0.496
0.1	322.08	27.498	0.596
0.1	326.31	33.481	0.692
0.1	329.87	39.587	0.79
0.1	333.11	45.71	0.887
0.1	335.88	51.656	0.982
0.1	338.54	57.869	1.081
0.1	340.69	63.471	1.169
0.2	308.82	13.326	0.372
0.2	316.09	19.602	0.469
0.2	321.94	26.336	0.577
0.2	326.89	32.968	0.684
0.2	331.12	40.304	0.802
0.2	334.26	46.507	0.903
0.2	337.18	52.704	1.001
0.2	339.67	58.641	1.096
0.2	342.22	65.778	1.209
0.2	344.56	71.823	1.297
0.3	310.53	13.643	0.376
0.3	317.47	19.381	0.466
0.3	323.25	25.887	0.572
0.3	328.2	32.568	0.679
0.3	332.47	39.673	0.795
0.3	336.1	46.701	0.903
0.3	339.48	54.186	1.02
0.3	342.24	61.247	1.138
0.3	344.33	67.366	1.245
0.3	346.53	74.249	1.349
0.6	320.94	12.265	0.355
0.6	329.38	18.915	0.459
0.6	336.1	25.462	0.565
0.6	342.62	33.69	0.697
0.6	347.91	42.006	0.831
0.6	352.3	50.123	0.963
0.6	356.43	59.711	1.12
0.6	359.57	68.622	1.264

System: water + 1-ethyl-3-methylimidazolium diethyl phosphate; phases: Liquid, Gas
Property: Vapor or sublimation pressure, kPa (Liquid); method: EBULLIO:UFactor:4
Mass fraction of 1-ethyl-3-methylimidazolium diethyl phosphate	Temperature, K	Vapor or sublimation pressure, kPa	uncertainty
0.25	327.26	14.424	0.406
0.25	335.12	20.885	0.519
0.25	341.15	27.385	0.635
0.25	346.07	33.933	0.753
0.25	350.31	40.541	0.872
0.25	354.16	47.516	0.997
0.25	357.58	54.432	1.121
0.25	360.99	62.188	1.26
0.25	364.58	71.275	1.423
0.25	367.71	80.167	1.58
0.35	324.01	11.872	0.359
0.35	333.16	18.472	0.471
0.35	340.33	25.531	0.596
0.35	346.16	32.846	0.726
0.35	351.38	40.961	0.869
0.35	355.78	49.009	1.012
0.35	359.65	57.164	1.156
0.35	363.02	65.237	1.298
0.35	366.71	74.821	1.467
0.35	369.8	83.919	1.626
0.45	329.92	15.449	0.419
0.45	337.27	21.781	0.525
0.45	343.22	28.272	0.641
0.45	348.24	35.08	0.759
0.45	352.84	42.573	0.892
0.45	357.17	50.787	1.033
0.45	360.8	58.448	1.164
0.45	364.39	66.549	1.31
0.45	367.58	74.96	1.455
0.45	370.32	82.985	1.569
0.7	334.93	13.038	0.371
0.7	344.1	19.428	0.476
0.7	351.72	26.507	0.596
0.7	357.82	33.996	0.722
0.7	363.23	42.086	0.858
0.7	367.8	50.099	0.996
0.7	371.93	59.534	1.174
0.7	373.26	68.727	1.457

System: methanol + 1-ethyl-3-methylimidazolium diethyl phosphate; phases: Liquid, Gas
Property: Vapor or sublimation pressure, kPa (Liquid); method: EBULLIO:UFactor:4
Mass fraction of 1-ethyl-3-methylimidazolium diethyl phosphate	Temperature, K	Vapor or sublimation pressure, kPa	uncertainty
0.2	285.31	7.943	0.285
0.2	295.87	14.284	0.383
0.2	303.26	20.793	0.489
0.2	309.56	28.456	0.611
0.2	313.96	35.059	0.718
0.2	317.9	42.097	0.832
0.2	321.84	50.529	0.965
0.2	324.99	57.598	1.079
0.2	328.19	66.241	1.218
0.2	331.35	75.677	1.364
0.3	290.14	9.79	0.314
0.3	298.78	15.607	0.405
0.3	305.32	21.895	0.507
0.3	310.83	28.66	0.616
0.3	315.62	35.992	0.735
0.3	320.27	44.642	0.872
0.3	324.22	52.99	1.005
0.3	327.57	61.405	1.139
0.3	331.13	70.71	1.286
0.3	334.14	79.563	1.424
0.4	289.63	8.591	0.295
0.4	300.08	15.075	0.397
0.4	306.63	21.568	0.503
0.4	312.19	28.251	0.611
0.4	317.18	35.812	0.733
0.4	321.43	43.889	0.865
0.4	325.33	51.908	0.991
0.4	328.43	59.472	1.116
0.4	331.74	69.05	1.272
0.4	334.81	78.027	1.385
0.6	305.46	12.559	0.36
0.6	313.41	18.999	0.462
0.6	319.78	26.2	0.579
0.6	325.55	34.314	0.71
0.6	330.03	42.187	0.837
0.6	334.44	50.686	0.972
0.6	338.48	59.839	1.12
0.6	342.19	69.403	1.27

System: ethanol + 1-ethyl-3-methylimidazolium diethyl phosphate; phases: Liquid, Gas
Property: Vapor or sublimation pressure, kPa (Liquid); method: EBULLIO:UFactor:4
Mass fraction of 1-ethyl-3-methylimidazolium diethyl phosphate	Temperature, K	Vapor or sublimation pressure, kPa	uncertainty
0.15	302.3	9.591	0.311
0.15	310.38	14.939	0.394
0.15	317.14	21.191	0.495
0.15	322.91	28.148	0.607
0.15	328.29	36.217	0.736
0.15	332.87	44.66	0.871
0.15	336.64	52.892	1.003
0.15	340.18	61.569	1.141
0.15	343.31	70.297	1.281
0.15	346.36	79.864	1.43
0.25	302.96	9.466	0.309
0.25	312	15.457	0.403
0.25	318.86	21.995	0.508
0.25	324.57	28.924	0.621
0.25	329.36	36.297	0.739
0.25	333.57	44.01	0.863
0.25	337.78	52.895	1.005
0.25	341.2	61.437	1.142
0.25	344.65	70.994	1.294
0.25	347.71	80.477	1.438
0.35	305.78	10.146	0.32
0.35	314.42	16.153	0.415
0.35	321.23	22.779	0.522
0.35	326.87	29.84	0.636
0.35	331.86	37.569	0.758
0.35	336.25	45.597	0.886
0.35	340.14	54.106	1.021
0.35	343.58	62.697	1.162
0.35	347	72.25	1.312
0.35	349.82	81.091	1.442
0.6	314.56	9.068	0.304
0.6	322.22	14.137	0.383
0.6	329.88	20.754	0.49
0.6	336.31	28.255	0.612
0.6	341.65	36.306	0.742
0.6	346.71	45.266	0.886
0.6	352.11	56.799	1.071
0.6	356	66.717	1.228

System: water + 1-butyl-3-methylimidazolium dibutyl phosphate; phases: Liquid, Gas
Property: Vapor or sublimation pressure, kPa (Liquid); method: EBULLIO:UFactor:4
Mass fraction of 1-butyl-3-methylimidazolium dibutyl phosphate	Temperature, K	Vapor or sublimation pressure, kPa	uncertainty
0.2	317.98	9.347	0.316
0.2	327.23	14.87	0.413
0.2	335.39	21.746	0.536
0.2	341.27	28.264	0.654
0.2	346.32	35.133	0.779
0.2	351.12	42.896	0.919
0.2	355.52	51.267	1.07
0.2	359.23	59.443	1.219
0.2	362.85	68.319	1.379
0.2	366.44	78.095	1.552
0.3	318.28	9.426	0.316
0.3	327.75	15.056	0.413
0.3	335.18	21.351	0.525
0.3	341.57	28.398	0.65
0.3	346.94	35.761	0.782
0.3	352.11	44.258	0.933
0.3	356.79	53.41	1.096
0.3	361.32	63.772	1.28
0.3	364.91	73.029	1.444
0.3	367.94	81.63	1.595
0.4	317.98	9.184	0.311
0.4	328.67	15.542	0.419
0.4	336.62	22.47	0.54
0.4	342.86	29.643	0.666
0.4	348.18	37.166	0.798
0.4	352.58	44.579	0.93
0.4	357.21	53.665	1.088
0.4	361.04	62.318	1.24
0.4	364.52	71.26	1.396
0.4	367.81	80.6	1.548
0.7	330.6	13.806	0.385
0.7	338.9	20.205	0.49
0.7	344.99	26.505	0.597
0.7	350.48	33.486	0.715
0.7	355.36	40.979	0.841
0.7	359.92	49.182	0.979
0.7	364.26	58.075	1.128
0.7	368.07	67.007	1.276

System: methanol + 1-butyl-3-methylimidazolium dibutyl phosphate; phases: Liquid, Gas
Property: Vapor or sublimation pressure, kPa (Liquid); method: EBULLIO:UFactor:4
Mass fraction of 1-butyl-3-methylimidazolium dibutyl phosphate	Temperature, K	Vapor or sublimation pressure, kPa	uncertainty
0.2	286.92	8.845	0.299
0.2	296.97	15.26	0.399
0.2	304.16	21.981	0.508
0.2	309.76	28.961	0.62
0.2	314.51	36.135	0.735
0.2	318.6	43.721	0.858
0.2	322.59	52.228	0.992
0.2	325.89	59.928	1.115
0.2	329.29	69.181	1.263
0.2	332.34	78.595	1.41
0.3	286.82	8.431	0.293
0.3	297.07	14.713	0.39
0.3	304.71	21.627	0.501
0.3	309.8	27.865	0.604
0.3	314.96	35.489	0.726
0.3	319.24	43.224	0.851
0.3	322.88	51.125	0.976
0.3	326.23	58.474	1.092
0.3	329.29	66.561	1.223
0.3	332.14	75.006	1.353
0.4	288.72	8.748	0.298
0.4	298.87	15.142	0.398
0.4	306.32	21.969	0.508
0.4	312.08	29.13	0.626
0.4	317.47	37.666	0.759
0.4	321.56	45.422	0.886
0.4	325.37	53.571	1.015
0.4	328.82	62.34	1.154
0.4	332.13	71.022	1.291
0.4	335.1	80.194	1.453
0.6	300.79	12.031	0.351
0.6	307.9	17.535	0.438
0.6	313.87	23.595	0.537
0.6	320.15	31.621	0.666
0.6	325.54	40.282	0.805
0.6	330.02	48.791	0.943
0.6	334.02	57.845	1.089
0.6	337.39	66.635	1.228

System: ethanol + 1-butyl-3-methylimidazolium dibutyl phosphate; phases: Liquid, Gas
Property: Vapor or sublimation pressure, kPa (Liquid); method: EBULLIO:UFactor:4
Mass fraction of 1-butyl-3-methylimidazolium dibutyl phosphate	Temperature, K	Vapor or sublimation pressure, kPa	uncertainty
0.1	301.83	9.504	0.31
0.1	310.71	15.437	0.402
0.1	318.13	22.588	0.517
0.1	323.39	29.387	0.626
0.1	327.76	35.946	0.731
0.1	331.83	43.306	0.849
0.1	335.71	51.436	0.979
0.1	339.18	59.886	1.114
0.1	342.37	68.56	1.252
0.1	345.13	77.029	1.385
0.2	298.42	7.606	0.279
0.2	308.89	13.645	0.373
0.2	316.81	20.568	0.484
0.2	322.67	27.531	0.596
0.2	327.64	34.697	0.712
0.2	332.17	42.736	0.841
0.2	335.9	50.433	0.965
0.2	339.38	58.652	1.096
0.2	342.65	67.448	1.238
0.2	345.72	76.972	1.384
0.3	301.19	8.48	0.293
0.3	311.58	15.037	0.396
0.3	318.85	21.779	0.505
0.3	324.97	29.202	0.625
0.3	329.89	36.805	0.749
0.3	334.17	44.617	0.869
0.3	338.07	53.059	1.003
0.3	341.35	61.147	1.135
0.3	344.41	69.684	1.267
0.3	347.07	77.658	1.403
0.6	315.47	11.263	0.338
0.6	322.24	16.027	0.413
0.6	328.82	22.057	0.511
0.6	334.93	29.319	0.627
0.6	339.44	35.811	0.734
0.6	344.62	44.862	0.879
0.6	350.02	55.861	1.057
0.6	355.12	69.426	1.272

System: ethanol + water + 1,3-dimethylimidazolium dimethylphosphate; phases: Liquid, Gas
Property: Vapor or sublimation pressure, kPa (Liquid); method: EBULLIO:UFactor:4
Mass fraction of ethanol	Mass fraction of water	Temperature, K	Vapor or sublimation pressure, kPa	uncertainty
0.3819	0.5864	302.91	9.348	0.306
0.3819	0.5864	313.32	16.234	0.419
0.3819	0.5864	320.29	23.163	0.534
0.3819	0.5864	326.42	30.999	0.664
0.3819	0.5864	331.6	39.397	0.804
0.3819	0.5864	335.95	47.952	0.946
0.3819	0.5864	339.33	55.723	1.076
0.3819	0.5864	342.93	65.018	1.231
0.5202	0.4438	303.72	10.023	0.314
0.5202	0.4438	312.82	16.327	0.416
0.5202	0.4438	319.75	23.183	0.527
0.5202	0.4438	325.46	30.484	0.645
0.5202	0.4438	330.03	37.782	0.763
0.5202	0.4438	334.11	45.46	0.888
0.5202	0.4438	338.3	54.862	1.04
0.5202	0.4438	341.99	64.044	1.189
0.7018	0.2566	299.9	8.296	0.285
0.7018	0.2566	311.11	15.183	0.393
0.7018	0.2566	318.54	22.242	0.505
0.7018	0.2566	324.76	29.963	0.627
0.7018	0.2566	329.85	38.133	0.756
0.7018	0.2566	334.55	47.039	0.896
0.7018	0.2566	338.64	56.373	1.044
0.7018	0.2566	342.29	65.914	1.195
0.8938	0.0587	302.37	9.605	0.304
0.8938	0.0587	312.03	16.101	0.405
0.8938	0.0587	318.74	22.562	0.506
0.8938	0.0587	324.97	30.307	0.626
0.8938	0.0587	330.06	38.472	0.753
0.8938	0.0587	334.45	46.956	0.885
0.8938	0.0587	338.34	55.69	1.021
0.8938	0.0587	341.93	64.891	1.164
