Measured thermophysical data. Solid-liquid equilibrium in the system 2-keto-L-gulonic acid + sodium-2-keto-L-gulonate + water
Source: Fluid Phase Equilib., 2018, 10.1016/j.fluid.2018.06.010
Compound 1: 2-keto-L-gulonic acid, C6H10O7, InChI=1S/C6H10O7/c7-1-2(8)3(9)4(10)5(11)6(12)13/h2-4,7-10H,1H2,(H,12,13)/t2-,3+,4-/m0/s1, purity 98%
Compound 2: sodium 2-keto-L-gulonate, C6H9NaO7, InChI=1S/C6H10O7.Na/c7-1-2(8)3(9)4(10)5(11)6(12)13;/h2-4,7-10H,1H2,(H,12,13);/q;+1/p-1/t2-,3+,4-;/m0./s1, purity 98%
Compound 3: water, H2O, InChI=1S/H2O/h1H2, purity 99.8%

System: 2-keto-L-gulonic acid + sodium 2-keto-L-gulonate + water; phases: Liquid, Crystal of intercomponent compound 2
Fixed: Pressure, kPa = 101
Property: Mass fraction of sodium 2-keto-L-gulonate (Liquid); method: Chromatography
Temperature, K	Mass fraction of 2-keto-L-gulonic acid	Mass fraction of sodium 2-keto-L-gulonate	uncertainty
275.2	0	0.175	0.012
275.2	0	0.174	0.012
275.2	0	0.174	0.012
275.2	0.07	0.165	0.012
275.2	0.132	0.156	0.012
275.2	0.187	0.149	0.012
283.2	0	0.186	0.012
283.2	0.003	0.186	0.012
283.2	0.003	0.185	0.012
283.2	0.043	0.181	0.012
283.2	0.116	0.169	0.012
283.2	0.215	0.153	0.012
283.2	0.218	0.152	0.012
293.2	0	0.207	0.012
293.2	0.076	0.191	0.012
293.2	0.113	0.185	0.012
293.2	0.122	0.183	0.012
293.2	0.267	0.159	0.013
303	0	0.223	0.012
303	0.006	0.221	0.012
303	0.042	0.215	0.012
303	0.042	0.215	0.012
303	0.098	0.204	0.012
303	0.148	0.194	0.012
303	0.186	0.185	0.012
303	0.273	0.169	0.012
303	0.311	0.162	0.012
312.8	0	0.241	0.012
312.8	0.117	0.216	0.012
275.2	0.212	0.146	0.012
275.2	0.215	0.145	0.012
275.2	0.216	0.146	0.012
283.2	0.227	0.153	0.012
283.2	0.24	0.15	0.012
283.2	0.246	0.141	0.014
283.2	0.249	0.147	0.012
283.2	0.25	0.148	0.012
293.2	0.281	0.152	0.013
293.2	0.282	0.153	0.013
293.2	0.284	0.152	0.013
293.2	0.286	0.153	0.013
293.2	0.286	0.153	0.013
293.2	0.288	0.155	0.012
293.2	0.289	0.163	0.012
303	0.32	0.156	0.012
303	0.322	0.156	0.012
303	0.323	0.156	0.012
303	0.324	0.155	0.014
303	0.324	0.157	0.013
303	0.325	0.156	0.013
303	0.33	0.159	0.012
303	0.333	0.157	0.012
312.8	0.351	0.152	0.013
312.8	0.36	0.156	0.012
312.8	0.362	0.156	0.012
312.8	0.365	0.157	0.013
312.8	0.369	0.158	0.013

System: 2-keto-L-gulonic acid + sodium 2-keto-L-gulonate + water; phases: Liquid, Crystal of intercomponent compound 1
Fixed: Pressure, kPa = 101
Property: Mass fraction of sodium 2-keto-L-gulonate (Liquid); method: Chromatography
Temperature, K	Mass fraction of 2-keto-L-gulonic acid	Mass fraction of sodium 2-keto-L-gulonate	uncertainty
275.2	0.216	0.125	0.063
275.2	0.226	0.067	0.063
275.2	0.24	0.002	0.002
275.2	0.24	0.001	0.001
275.2	0.241	0	
283.2	0.241	0.123	0.033
283.2	0.261	0.067	0.056
283.2	0.277	0.001	0.001
283.2	0.279	0	
293.2	0.308	0.095	0.046
293.2	0.333	0	
293.2	0.334	0.001	0.001
303	0.353	0.075	0.036
303	0.387	0.002	0.002
303	0.388	0	
312.8	0.381	0.121	0.04
312.8	0.395	0.061	0.027
312.8	0.437	0	
275.2	0.212	0.146	0.069
275.2	0.215	0.145	0.07
275.2	0.216	0.146	0.073
283.2	0.227	0.153	0.013
283.2	0.24	0.15	0.034
283.2	0.246	0.141	0.032
283.2	0.249	0.147	0.04
283.2	0.25	0.148	0.039
293.2	0.281	0.152	0.028
293.2	0.282	0.153	0.03
293.2	0.284	0.152	0.031
293.2	0.286	0.153	0.034
293.2	0.286	0.153	0.034
293.2	0.288	0.155	0.038
293.2	0.289	0.163	0.045
303	0.32	0.156	0.012
303	0.322	0.156	0.034
303	0.323	0.156	0.035
303	0.324	0.155	0.035
303	0.324	0.157	0.036
303	0.325	0.156	0.037
303	0.33	0.159	0.046
303	0.333	0.157	0.033
312.8	0.351	0.152	0.013
312.8	0.36	0.156	0.023
312.8	0.362	0.156	0.025
312.8	0.365	0.157	0.018
312.8	0.369	0.158	0.029

System: sodium 2-keto-L-gulonate + water; phases: Liquid, Crystal of intercomponent compound 2
Fixed: Pressure, kPa = 101
Property: Mass fraction of sodium 2-keto-L-gulonate (Liquid); method: Chromatography
Temperature, K	Mass fraction of sodium 2-keto-L-gulonate	uncertainty
275.2	0.175	0.012
275.2	0.174	0.012
283.2	0.186	0.012
293.2	0.207	0.012
303	0.223	0.012
312.8	0.241	0.012

System: 2-keto-L-gulonic acid + water; phases: Liquid, Crystal of intercomponent compound 1
Fixed: Pressure, kPa = 101
Property: Solid-liquid equilibrium temperature, K (Liquid); method: Chromatography
Mass fraction of 2-keto-L-gulonic acid	Solid-liquid equilibrium temperature, K	uncertainty
0.241	275.2	2.6
0.279	283.2	2.4
0.333	293.2	2.2
0.388	303	2.3
0.437	312.8	2.4
