Measured thermophysical data. Measurement and modelling of urea solubility in supercritical CO2 and CO2 + ethanol mixtures
Source: Fluid Phase Equilib., 2005, 10.1016/j.fluid.2005.09.004
Compound 1: urea, CH4N2O, InChI=1S/CH4N2O/c2-1(3)4/h(H4,2,3,4)
Compound 2: ethanol, C2H6O, InChI=1S/C2H6O/c1-2-3/h3H,2H2,1H3
Compound 3: carbon dioxide, CO2, InChI=1S/CO2/c2-1-3

System: urea + carbon dioxide; phases: Fluid (supercritical or subcritical phases), Crystal
Property: Mole fraction of urea (Fluid (supercritical or subcritical phases)); method: gravimetric method
Temperature, K	Pressure, kPa	Mole fraction of urea	uncertainty
313	15000	3.6e-06	1.1e-06
313	30000	6.3e-06	1.9e-06
333	15000	4.8e-06	1.4e-06
333	30000	1.6e-05	4.8e-06

System: urea + ethanol; phases: Fluid (supercritical or subcritical phases), Crystal
Property: Mole fraction of urea (Fluid (supercritical or subcritical phases)); method: gravimetric method
Temperature, K	Pressure, kPa	Mole fraction of urea	uncertainty
313	15000	0.06277	0.0188318
313	30000	0.03836	0.0115271
333	30000	0.07041	0.0211233

System: urea + ethanol + carbon dioxide; phases: Fluid (supercritical or subcritical phases), Crystal
Property: Mole fraction of urea (Fluid (supercritical or subcritical phases)); method: gravimetric method
Temperature, K	Pressure, kPa	Solvent: Mole fraction of ethanol	Mole fraction of urea	uncertainty
313	15000	0	3.6e-06	1.1e-06
313	15000	0.00753	1e-05	3e-06
313	15000	0.00821	2e-05	6e-06
313	15000	0.01617	2.3e-05	6.9e-06
313	15000	0.03493	0.00017	5.1e-05
313	15000	0.0402	0.00019	5.7e-05
313	15000	0.04049	0.00015	4.5e-05
313	15000	0.04144	0.00018	5.4e-05
313	15000	0.04269	0.00016	4.8e-05
313	15000	0.0472	0.00024	7.2e-05
313	15000	0.05181	0.00029	8.7e-05
313	15000	0.05315	0.00031	9.3e-05
313	15000	0.05536	0.00026	7.8e-05
313	15000	0.06804	0.00041	0.000123
313	15000	0.07064	0.0005	0.00015
313	15000	0.07641	0.00063	0.000189
313	15000	0.09731	0.00115	0.000345
313	15000	0.09924	0.00117	0.000351
313	15000	0.09933	0.00115	0.0003451
313	15000	0.10194	0.00131	0.0003943
313	15000	0.12753	0.00159	0.0004771
313	15000	0.13488	0.00176	0.0005285
313	15000	0.13855	0.00229	0.0006894
313	15000	0.14591	0.00307	0.000921
313	15000	0.14881	0.00232	0.0007196
313	15000	0.16442	0.00226	0.0006784
313	15000	0.17714	0.00332	0.0009969
313	15000	0.18792	0.00335	0.001006
313	15000	0.18909	0.00213	0.0006405
313	15000	0.19862	0.00237	0.000712
313	15000	0.19901	0.00308	0.0009246
313	15000	0.21177	0.00424	0.001272
313	15000	0.24915	0.00699	0.002097
313	15000	0.25609	0.00636	0.001908
313	15000	0.26255	0.0063	0.00189
313	15000	1	0.06277	0.0188318
313	30000	0	6.3e-06	1.9e-06
313	30000	0.008	1.7e-05	5.1e-06
313	30000	0.0166	3.1e-05	9.3e-06
313	30000	0.0411	0.00017	5.1e-05
313	30000	0.05061	0.00031	9.3e-05
313	30000	1	0.03836	0.0115271
313	15000	0.0472	0.00026	7.8e-05
333	15000	0	4.8e-06	1.4e-06
333	15000	0.00614	7.8e-06	2.3e-06
333	15000	0.0174	3.1e-05	9.3e-06
333	15000	0.03138	0.00012	3.61e-05
333	15000	0.03436	7e-05	2.1e-05
333	15000	0.03464	8.2e-05	2.46e-05
333	15000	0.04077	0.00015	4.5e-05
333	15000	0.04097	0.00015	4.5e-05
333	15000	0.04997	0.00028	8.4e-05
333	15000	0.0717	0.0005	0.00015
333	15000	0.07718	0.00054	0.000162
333	15000	0.08228	0.00062	0.000186
333	15000	0.08517	0.00073	0.0002191
333	15000	0.11458	0.00046	0.0001383
333	15000	0.13362	0.00222	0.000666
333	15000	0.14872	0.00261	0.0007831
333	15000	0.15889	0.00295	0.0008871
333	15000	0.16025	0.00353	0.001061
333	15000	0.17529	0.00117	0.0003514
333	15000	0.1854	0.00491	0.001473
333	15000	0.19736	0.00508	0.001525
333	15000	0.19882	0.00483	0.001449
333	15000	0.22366	0.00377	0.001131
333	15000	0.25277	0.00482	0.001446
333	30000	0	1.6e-05	4.8e-06
333	30000	0.009	2.7e-05	8.1e-06
333	30000	0.01521	2.8e-05	8.4e-06
333	30000	0.04391	0.0002	6e-05
333	30000	0.0472	0.00024	7.2e-05
333	30000	0.04796	0.00037	0.000111
333	30000	0.0497	0.00031	9.3e-05
333	30000	0.04989	0.00031	9.3e-05
333	30000	0.05219	0.00032	9.6e-05
333	30000	0.09143	0.00116	0.0003482
333	30000	0.09191	0.00117	0.0003512
333	30000	0.09259	0.00105	0.0003156
333	30000	0.09471	0.00127	0.0003811
333	30000	0.13913	0.00187	0.0005611
333	30000	0.15124	0.00191	0.000573
333	30000	0.1525	0.00188	0.0005641
333	30000	0.15482	0.00197	0.000591
333	30000	0.18034	0.00588	0.00177
333	30000	0.19512	0.00512	0.001536
333	30000	0.21713	0.00672	0.002017
333	30000	0.22571	0.00671	0.002017
333	30000	1	0.07041	0.0211233
