Measured thermophysical data. Perfluoroalkanes and perfluoroalkylalkane surfactants in solution: Partial molar volumes in n-octane and hetero-SAFT-VR modelling
Source: Fluid Phase Equilib., 2011, 10.1016/j.fluid.2011.02.020
Compound 1: 1,1,1,2,2,3,3,4,4-nonafluorodecane, C10H13F9, InChI=1S/C10H13F9/c1-2-3-4-5-6-7(11,12)8(13,14)9(15,16)10(17,18)19/h2-6H2,1H3, purity 99.99%
Compound 2: 1,1,1,2,2,3,3,4,4-nonafluorododecane, C12H17F9, InChI=1S/C12H17F9/c1-2-3-4-5-6-7-8-9(13,14)10(15,16)11(17,18)12(19,20)21/h2-8H2,1H3, purity 99.99%
Compound 3: perfluorohexane, C6F14, InChI=1S/C6F14/c7-1(8,3(11,12)5(15,16)17)2(9,10)4(13,14)6(18,19)20, purity 99%
Compound 4: octadecafluorooctane, C8F18, InChI=1S/C8F18/c9-1(10,3(13,14)5(17,18)7(21,22)23)2(11,12)4(15,16)6(19,20)8(24,25)26, purity 98%
Compound 5: eicosafluorononane, C9F20, InChI=1S/C9F20/c10-1(11,2(12,13)4(16,17)6(20,21)8(24,25)26)3(14,15)5(18,19)7(22,23)9(27,28)29, purity 99%
Compound 6: octane, C8H18, InChI=1S/C8H18/c1-3-5-7-8-6-4-2/h3-8H2,1-2H3, purity 99%
Compound 7: 1,1,1,2,2,3,3,4,4-nonafluorononane, C9H11F9, InChI=1S/C9H11F9/c1-2-3-4-5-6(10,11)7(12,13)8(14,15)9(16,17)18/h2-5H2,1H3, purity 99.99%

System: octane + perfluorohexane; phases: Liquid
Fixed: Pressure, kPa = 101
Fixed: Temperature, K = 298.15
Property: Molar volume, m3/mol (Liquid); method: Vibrating tube method
Molality, mol/kg of perfluorohexane	Molar volume, m3/mol	uncertainty
0.088	0.0002294	3e-06
0.1035	0.0002312	3e-06
0.131	0.0002293	3e-06
0.1624	0.0002278	3e-06
0.1833	0.0002292	3e-06
0.2156	0.0002299	3e-06
0.2594	0.0002276	3e-06
0.268	0.0002308	3e-06
0.304	0.0002288	3e-06
0.3424	0.0002285	3e-06
0.3621	0.00023	3e-06
0.4051	0.0002288	3e-06

System: octane + perfluorohexane; phases: Liquid
Property: Partial molar volume, m3/mol of perfluorohexane (Liquid); method: Derived analytically
Molality, mol/kg of perfluorohexane	Pressure, kPa	Temperature, K	Partial molar volume, m3/mol of perfluorohexane	uncertainty
0	101	298.15	0.0002293	2.5e-06

System: octane + octadecafluorooctane; phases: Liquid
Fixed: Pressure, kPa = 101
Fixed: Temperature, K = 298.15
Property: Molar volume, m3/mol (Liquid); method: Vibrating tube method
Molality, mol/kg of octadecafluorooctane	Molar volume, m3/mol	uncertainty
0.0362	0.0002822	3e-06
0.0617	0.0002816	3e-06
0.0923	0.0002798	3e-06
0.1157	0.0002803	3e-06
0.1445	0.0002792	3e-06
0.1585	0.0002786	3e-06
0.1808	0.0002784	3e-06
0.2115	0.0002788	3e-06

System: octane + octadecafluorooctane; phases: Liquid
Property: Partial molar volume, m3/mol of octadecafluorooctane (Liquid); method: Derived analytically
Molality, mol/kg of octadecafluorooctane	Pressure, kPa	Temperature, K	Partial molar volume, m3/mol of octadecafluorooctane	uncertainty
0	101	298.15	0.0002799	3.1e-06

System: octane + eicosafluorononane; phases: Liquid
Fixed: Pressure, kPa = 101
Fixed: Temperature, K = 298.15
Property: Molar volume, m3/mol (Liquid); method: Vibrating tube method
Molality, mol/kg of eicosafluorononane	Molar volume, m3/mol	uncertainty
0.0532	0.0003069	3e-06
0.0565	0.000307	3e-06
0.0714	0.0003073	3e-06
0.0832	0.0003067	3e-06
0.1105	0.000307	3e-06
0.1219	0.0003062	3e-06
0.1488	0.0003058	3e-06
0.1513	0.0003065	3e-06

System: octane + eicosafluorononane; phases: Liquid
Property: Partial molar volume, m3/mol of eicosafluorononane (Liquid); method: Derived analytically
Molality, mol/kg of eicosafluorononane	Pressure, kPa	Temperature, K	Partial molar volume, m3/mol of eicosafluorononane	uncertainty
0	101	298.15	0.0003067	1.8e-06

System: octane + 1,1,1,2,2,3,3,4,4-nonafluorononane; phases: Liquid
Fixed: Pressure, kPa = 101
Fixed: Temperature, K = 298.15
Property: Molar volume, m3/mol (Liquid); method: Vibrating tube method
Molality, mol/kg of 1,1,1,2,2,3,3,4,4-nonafluorononane	Molar volume, m3/mol	uncertainty
0.0527	0.0002338	3e-06
0.0601	0.0002337	3e-06
0.0947	0.0002337	3e-06
0.1337	0.0002337	3e-06
0.1437	0.0002336	3e-06
0.1755	0.0002334	3e-06
0.1914	0.0002334	3e-06
0.2141	0.0002334	3e-06

System: octane + 1,1,1,2,2,3,3,4,4-nonafluorononane; phases: Liquid
Property: Partial molar volume, m3/mol of 1,1,1,2,2,3,3,4,4-nonafluorononane (Liquid); method: Derived analytically
Molality, mol/kg of 1,1,1,2,2,3,3,4,4-nonafluorononane	Pressure, kPa	Temperature, K	Partial molar volume, m3/mol of 1,1,1,2,2,3,3,4,4-nonafluorononane	uncertainty
0	101	298.15	0.0002336	1.3e-06

System: octane + 1,1,1,2,2,3,3,4,4-nonafluorodecane; phases: Liquid
Fixed: Pressure, kPa = 101
Fixed: Temperature, K = 298.15
Property: Molar volume, m3/mol (Liquid); method: Vibrating tube method
Molality, mol/kg of 1,1,1,2,2,3,3,4,4-nonafluorodecane	Molar volume, m3/mol	uncertainty
0.0465	0.0002496	3e-06
0.0608	0.0002501	3e-06
0.0703	0.0002498	3e-06
0.1003	0.0002498	3e-06
0.1403	0.0002498	3e-06
0.1663	0.0002493	3e-06
0.1689	0.0002492	3e-06
0.2127	0.0002497	3e-06

System: octane + 1,1,1,2,2,3,3,4,4-nonafluorodecane; phases: Liquid
Property: Partial molar volume, m3/mol of 1,1,1,2,2,3,3,4,4-nonafluorodecane (Liquid); method: Derived analytically
Molality, mol/kg of 1,1,1,2,2,3,3,4,4-nonafluorodecane	Pressure, kPa	Temperature, K	Partial molar volume, m3/mol of 1,1,1,2,2,3,3,4,4-nonafluorodecane	uncertainty
0	101	298.15	0.0002497	1.4e-06

System: octane + 1,1,1,2,2,3,3,4,4-nonafluorododecane; phases: Liquid
Fixed: Pressure, kPa = 101
Fixed: Temperature, K = 298.15
Property: Molar volume, m3/mol (Liquid); method: Vibrating tube method
Molality, mol/kg of 1,1,1,2,2,3,3,4,4-nonafluorododecane	Molar volume, m3/mol	uncertainty
0.0685	0.0002816	3e-06
0.0996	0.0002815	3e-06
0.1061	0.0002817	3e-06
0.1259	0.0002815	3e-06
0.1271	0.0002817	3e-06
0.1522	0.0002818	3e-06
0.1885	0.0002815	3e-06
0.2032	0.0002815	3e-06

System: octane + 1,1,1,2,2,3,3,4,4-nonafluorododecane; phases: Liquid
Property: Partial molar volume, m3/mol of 1,1,1,2,2,3,3,4,4-nonafluorododecane (Liquid); method: Derived analytically
Molality, mol/kg of 1,1,1,2,2,3,3,4,4-nonafluorododecane	Pressure, kPa	Temperature, K	Partial molar volume, m3/mol of 1,1,1,2,2,3,3,4,4-nonafluorododecane	uncertainty
0	101	298.15	0.0002816	1.5e-06
