Measured thermophysical data. Excess enthalpies of oxygenated compounds + hydrocarbon mixtures: Binary and ternary mixtures containing dibutyl ether (DBE), 1-butanol and 2,2,4-trimethylpentane at 298.15 K
Source: Fluid Phase Equilib., 2010, 10.1016/j.fluid.2009.11.010
Compound 1: dibutyl ether, C8H18O, InChI=1S/C8H18O/c1-3-5-7-9-8-6-4-2/h3-8H2,1-2H3
Compound 2: 2,2,4-trimethylpentane, C8H18, InChI=1S/C8H18/c1-7(2)6-8(3,4)5/h7H,6H2,1-5H3
Compound 3: butan-1-ol, C4H10O, InChI=1S/C4H10O/c1-2-3-4-5/h5H,2-4H2,1H3

System: butan-1-ol + dibutyl ether; phases: Liquid
Fixed: Temperature, K = 298.15
Fixed: Pressure, kPa = 101
Property: Excess molar enthalpy (molar enthalpy of mixing), kJ/mol (Liquid); method: Flow calorimetry
Mole fraction of dibutyl ether	Excess molar enthalpy (molar enthalpy of mixing), kJ/mol	uncertainty
0.0501	0.1194	0.0047
0.1002	0.236	0.0064
0.1497	0.3445	0.0083
0.2003	0.4476	0.0102
0.2503	0.5402	0.0121
0.3004	0.6246	0.0137
0.3498	0.6984	0.0152
0.4006	0.7621	0.0165
0.4507	0.814	0.0176
0.4997	0.8532	0.0184
0.5506	0.8798	0.0189
0.5998	0.8924	0.0192
0.6505	0.8906	0.0191
0.7	0.8726	0.0188
0.7509	0.8332	0.018
0.8	0.7728	0.0168
0.8501	0.6791	0.0151
0.8994	0.5431	0.0131
0.9493	0.3301	0.01

System: butan-1-ol + 2,2,4-trimethylpentane; phases: Liquid
Fixed: Temperature, K = 298.15
Fixed: Pressure, kPa = 101
Property: Excess molar enthalpy (molar enthalpy of mixing), kJ/mol (Liquid); method: Flow calorimetry
Mole fraction of 2,2,4-trimethylpentane	Excess molar enthalpy (molar enthalpy of mixing), kJ/mol	uncertainty
0.0502	0.06715	0.00294
0.1001	0.14002	0.004
0.1504	0.21084	0.00523
0.2002	0.27646	0.00647
0.2504	0.33899	0.0077
0.3	0.39564	0.00883
0.3502	0.44914	0.00992
0.4	0.49767	0.01091
0.4498	0.5404	0.01179
0.5006	0.57891	0.01258
0.55	0.60564	0.01312
0.5997	0.62363	0.01349
0.6497	0.63088	0.01364
0.6998	0.62475	0.01351
0.7498	0.60868	0.01318
0.7995	0.57993	0.01261
0.8501	0.53622	0.01175
0.9	0.47331	0.01062
0.9506	0.37388	0.00878

System: dibutyl ether + 2,2,4-trimethylpentane; phases: Liquid
Fixed: Temperature, K = 298.15
Fixed: Pressure, kPa = 101
Property: Excess molar enthalpy (molar enthalpy of mixing), kJ/mol (Liquid); method: Flow calorimetry
Mole fraction of dibutyl ether	Excess molar enthalpy (molar enthalpy of mixing), kJ/mol	uncertainty
0.0497	0.02688	0.0013
0.0997	0.051	0.00164
0.1497	0.07117	0.00195
0.1998	0.08608	0.00221
0.2501	0.0999	0.00248
0.2995	0.10948	0.00266
0.35	0.11717	0.00281
0.3997	0.12105	0.00288
0.4494	0.12347	0.00293
0.4994	0.12295	0.00292
0.5494	0.12048	0.00287
0.5996	0.11538	0.00277
0.6499	0.10785	0.00262
0.6993	0.099	0.00245
0.7499	0.08766	0.00223
0.7996	0.07397	0.00198
0.8495	0.05743	0.00169
0.8995	0.03933	0.0014
0.9497	0.01955	0.00113

System: butan-1-ol + dibutyl ether + 2,2,4-trimethylpentane; phases: Liquid
Fixed: Temperature, K = 298.15
Fixed: Pressure, kPa = 101
Property: Excess molar enthalpy (molar enthalpy of mixing), kJ/mol (Liquid); method: Flow calorimetry
Mole fraction of 2,2,4-trimethylpentane	Mole fraction of dibutyl ether	Excess molar enthalpy (molar enthalpy of mixing), kJ/mol	uncertainty
0.0998	0.36	0.1147	0.0032
0.0998	0.5401	0.0918	0.0024
0.1004	0.1799	0.134	0.0037
0.1005	0.7196	0.0731	0.0021
0.2	0.32	0.2158	0.0049
0.2	0.48	0.1738	0.004
0.2004	0.1599	0.255	0.0059
0.2004	0.6397	0.1378	0.0033
0.2997	0.1401	0.3561	0.0079
0.2999	0.28	0.297	0.0066
0.2999	0.5601	0.19	0.0044
0.3002	0.4199	0.2397	0.0054
0.3996	0.2401	0.3588	0.0079
0.3997	0.1201	0.4347	0.0095
0.3998	0.4802	0.2291	0.0052
0.4004	0.3598	0.2911	0.0065
0.4998	0.2	0.4038	0.0089
0.4999	0.1	0.4922	0.0108
0.5002	0.3999	0.2574	0.0058
0.5004	0.2998	0.3269	0.0073
0.5998	0.1601	0.4295	0.0096
0.5999	0.2401	0.3481	0.0078
0.6001	0.3199	0.2734	0.0063
0.6005	0.0799	0.5243	0.0115
0.6998	0.1801	0.354	0.0081
0.7002	0.06	0.5274	0.0117
0.7002	0.1199	0.4344	0.0099
0.7003	0.2398	0.275	0.0066
0.7999	0.1601	0.2593	0.007
0.8	0.12	0.3402	0.0082
0.8004	0.0399	0.4953	0.0115
0.8005	0.0798	0.4146	0.0101
0.8998	0.0802	0.2099	0.0087
0.9001	0.0599	0.2917	0.0092
0.9002	0.02	0.4148	0.0105
0.9002	0.0399	0.3544	0.0095
