Measured thermophysical data. Solid-liquid equilibrium of NaCl + HOCH2COONa + H2O system from (283.15 to 353.15) K
Source: Fluid Phase Equilib., 2016, 10.1016/j.fluid.2015.10.021
Compound 1: sodium chloride, ClNa, InChI=1S/ClH.Na/h1H;/q;+1/p-1, purity 99%
Compound 2: sodium glycolate, C2H3NaO3, InChI=1S/C2H4O3.Na/c3-1-2(4)5;/h3H,1H2,(H,4,5);/q;+1/p-1, purity 99.5%
Compound 3: water, H2O, InChI=1S/H2O/h1H2, purity 99.9%

System: sodium glycolate + sodium chloride + water; phases: Liquid, Crystal
Fixed: Pressure, kPa = 100
Property: Mass fraction of sodium glycolate (Liquid); method: Chromatography
Temperature, K	Mass fraction of sodium chloride	Mass fraction of sodium glycolate	uncertainty
283.15	0	0.4091	0.0013
283.15	0.0229	0.3793	0.0018
283.15	0.044	0.3553	0.0016
283.15	0.0683	0.3333	0.0015
283.15	0.0919	0.3159	0.0014
283.15	0.1128	0.3036	0.0013
283.15	0.1276	0.2953	0.0013
283.15	0.1423	0.2854	0.0013
283.15	0.1567	0.2772	0.0013
293.15	0	0.4132	0.0013
293.15	0.0198	0.391	0.0017
293.15	0.0419	0.3701	0.0015
293.15	0.0601	0.3563	0.0015
293.15	0.0763	0.3434	0.0014
293.15	0.0983	0.3296	0.0014
293.15	0.1149	0.3184	0.0013
293.15	0.1413	0.3059	0.0013
293.15	0.1527	0.3014	0.0013
303.15	0	0.4208	0.0013
303.15	0.0207	0.4017	0.0016
303.15	0.0348	0.3903	0.0015
303.15	0.0519	0.3761	0.0015
303.15	0.0665	0.3666	0.0014
303.15	0.0868	0.3545	0.0014
303.15	0.1003	0.349	0.0014
303.15	0.1195	0.339	0.0013
303.15	0.1528	0.3243	0.0013
313.15	0	0.4388	0.0014
313.15	0.0242	0.418	0.0016
313.15	0.0442	0.4015	0.0015
313.15	0.0625	0.3886	0.0015
313.15	0.07861	0.37864	0.00142
313.15	0.0957	0.3696	0.0014
313.15	0.1056	0.3641	0.0014
313.15	0.1253	0.356	0.0013
313.15	0.1465	0.349	0.0013
323.15	0	0.4518	0.0014
323.15	0.0266	0.4313	0.0015
323.15	0.0432	0.4221	0.0015
323.15	0.0577	0.4141	0.0015
323.15	0.0732	0.4055	0.0014
323.15	0.0899	0.3982	0.0014
323.15	0.1053	0.3905	0.0014
323.15	0.1207	0.3857	0.0014
323.15	0.1373	0.3809	0.0014
333.15	0	0.4832	0.0015
333.15	0.0181	0.4708	0.0016
333.15	0.0335	0.4587	0.0016
333.15	0.0523	0.4482	0.0015
333.15	0.0679	0.4377	0.0015
333.15	0.0841	0.4306	0.0015
333.15	0.1007	0.4238	0.0015
333.15	0.1137	0.4209	0.0015
333.15	0.1278	0.418	0.0014
343.15	0	0.5109	0.0015
343.15	0.0217	0.4972	0.0016
343.15	0.0356	0.4889	0.0016
343.15	0.0548	0.4804	0.0016
343.15	0.0662	0.477	0.0015
343.15	0.0859	0.4742	0.0015
343.15	0.1008	0.4723	0.0015
343.15	0.1091	0.4731	0.0015
343.15	0.1159	0.4753	0.0016
353.15	0	0.5562	0.0016
353.15	0.0141	0.551	0.0017
353.15	0.0368	0.5425	0.0017
353.15	0.0514	0.5391	0.0016
353.15	0.0649	0.5362	0.0016
353.15	0.0786	0.5336	0.0016
353.15	0.0887	0.5334	0.0016
353.15	0.0978	0.5327	0.0016
353.15	0.1074	0.5325	0.0016

System: sodium glycolate + sodium chloride + water; phases: Liquid, Crystal
Fixed: Pressure, kPa = 100
Property: Mass fraction of sodium chloride (Liquid); method: Chromatography
Temperature, K	Mass fraction of sodium glycolate	Mass fraction of sodium chloride	uncertainty
283.15	0.2772	0.1567	0.0011
283.15	0.2323	0.1687	0.0011
283.15	0.19	0.1798	0.0011
283.15	0.1652	0.1867	0.0011
283.15	0.1457	0.1913	0.0011
283.15	0.0923	0.2084	0.0012
283.15	0.0701	0.2173	0.0012
283.15	0.0402	0.2313	0.0013
283.15	0	0.2615	0.0011
293.15	0.3014	0.1527	0.0011
293.15	0.2879	0.157	0.0011
293.15	0.2753	0.1608	0.0011
293.15	0.2373	0.1711	0.0011
293.15	0.2016	0.1805	0.0011
293.15	0.1654	0.1942	0.0011
293.15	0.0929	0.2199	0.0012
293.15	0.0217	0.2514	0.0012
293.15	0	0.2634	0.0011
303.15	0.3243	0.1528	0.0011
303.15	0.3021	0.1596	0.0011
303.15	0.2377	0.1802	0.0011
303.15	0.1651	0.2019	0.0011
303.15	0.1165	0.217	0.0012
303.15	0.0898	0.2277	0.0012
303.15	0.0489	0.2423	0.0012
303.15	0.0311	0.2516	0.0012
303.15	0	0.2654	0.0011
313.15	0.349	0.1465	0.0011
313.15	0.3228	0.1567	0.0011
313.15	0.3061	0.1645	0.0011
313.15	0.2787	0.1741	0.0011
313.15	0.257	0.1799	0.0011
313.15	0.2159	0.1943	0.0011
313.15	0.1236	0.2245	0.0012
313.15	0.0907	0.2378	0.0012
313.15	0	0.2679	0.0012
323.15	0.3809	0.1373	0.0011
323.15	0.3573	0.148	0.001
323.15	0.3331	0.1571	0.0011
323.15	0.3	0.1703	0.0011
323.15	0.2464	0.1905	0.0011
323.15	0.1836	0.2118	0.0011
323.15	0.1277	0.2298	0.0012
323.15	0.0899	0.2416	0.0012
323.15	0	0.2695	0.0012
333.15	0.418	0.1278	0.0011
333.15	0.3935	0.1381	0.0011
333.15	0.3647	0.1483	0.0011
333.15	0.336	0.1616	0.0011
333.15	0.2689	0.1859	0.0011
333.15	0.2218	0.2003	0.0011
333.15	0.1104	0.2391	0.0012
333.15	0.0718	0.2523	0.0012
333.15	0	0.2716	0.0012
343.15	0.4753	0.1159	0.0011
343.15	0.4531	0.1238	0.0011
343.15	0.3804	0.1497	0.0011
343.15	0.3196	0.1709	0.0011
343.15	0.2244	0.2033	0.0011
343.15	0.2013	0.211	0.0011
343.15	0.1269	0.2362	0.0012
343.15	0.0716	0.2525	0.0012
343.15	0	0.2736	0.0012
353.15	0.5325	0.1074	0.0011
353.15	0.4709	0.1262	0.0011
353.15	0.3884	0.1509	0.0011
353.15	0.2953	0.1836	0.0011
353.15	0.2422	0.2012	0.0011
353.15	0.1544	0.2298	0.0012
353.15	0.1055	0.2449	0.0012
353.15	0.0335	0.2657	0.0012
353.15	0	0.2749	0.0012
