Measured thermophysical data. Solubility measurements and correlation of carbon dioxide in pentaerythritol tetra-2-methylhexanoate. Comparison with other pentaerythritol esters
Source: Fluid Phase Equilib., 2010, 10.1016/j.fluid.2009.10.017
Compound 1: carbon dioxide, CO2, InChI=1S/CO2/c2-1-3, purity 99.95%
Compound 2: PEBM7, C33H60O8, InChI=1S/C33H60O8/c1-9-13-17-25(5)29(34)38-21-33(22-39-30(35)26(6)18-14-10-2,23-40-31(36)27(7)19-15-11-3)24-41-32(37)28(8)20-16-12-4/h25-28H,9-24H2,1-8H3, purity 98%

System: carbon dioxide + PEBM7; phases: Liquid, Gas
Property: Vapor or sublimation pressure, kPa (Liquid); method: Ebulliometric method (Recirculating still)
Temperature, K	Mole fraction of carbon dioxide	Vapor or sublimation pressure, kPa	uncertainty
243.15	0.1436	91	40
243.15	0.3527	269	40
243.15	0.4262	353	40
243.15	0.5503	519	40
243.15	0.612	629	40
243.15	0.6753	753	40
243.15	0.7549	939	40
243.15	0.8092	1082	40
243.15	0.8563	1210	40
243.15	0.8825	1271	40
243.15	0.928	1363	7
243.15	0.9647	1396	7
253.15	0.1265	104	40
253.15	0.3193	312	40
253.15	0.3891	411	40
253.15	0.5097	614	40
253.15	0.5721	750	40
253.15	0.638	907	40
253.15	0.7212	1159	40
253.15	0.7808	1366	40
253.15	0.8343	1573	41
253.15	0.8657	1680	41
253.15	0.9205	1857	8
253.15	0.9631	1922	9
263.15	0.1118	117	40
263.15	0.2882	353	40
263.15	0.3528	468	40
263.15	0.4707	702	40
263.15	0.5318	863	40
263.15	0.5984	1052	40
263.15	0.6836	1368	40
263.15	0.7474	1640	41
263.15	0.8056	1940	41
263.15	0.8414	2118	41
263.15	0.9084	2447	11
263.15	0.9607	2580	11
273.15	0.0975	129	40
273.15	0.2608	391	40
273.15	0.3218	518	40
273.15	0.4334	784	40
273.15	0.4928	969	40
273.15	0.5598	1187	40
273.15	0.6451	1558	40
273.15	0.711	1893	41
273.15	0.7719	2285	41
273.15	0.8115	2538	41
273.15	0.8889	3098	42
273.15	0.9567	3388	14
283.15	0.1173	181	40
283.15	0.2443	435	40
283.15	0.3489	701	40
283.15	0.4601	1063	40
283.15	0.5511	1438	40
283.15	0.6315	1850	41
283.15	0.632	1847	41
283.15	0.699	2282	41
283.15	0.7806	2933	42
283.15	0.8326	3428	42
283.15	0.8837	3928	43
283.15	0.8842	3921	43
283.15	0.9474	4368	19
303.15	0.117	264	40
303.15	0.1965	486	40
303.15	0.3131	874	40
303.15	0.4753	1627	41
303.15	0.6031	2477	41
303.15	0.7102	3536	42
303.15	0.7857	4546	44
303.15	0.8334	5335	45
303.15	0.8784	6142	46
303.15	0.917	6847	28
303.15	0.935	7101	29
323.15	0.1034	292	40
323.15	0.1736	539	40
323.15	0.2752	976	40
323.15	0.4262	1836	41
323.15	0.5533	2823	42
323.15	0.6564	4090	43
323.15	0.736	5354	45
323.15	0.7845	6407	47
323.15	0.8301	7596	49
323.15	0.8697	8867	52
323.15	0.8873	9532	53
343.15	0.0914	319	40
343.15	0.1551	591	40
343.15	0.2487	1072	40
343.15	0.3883	2026	41
343.15	0.5139	3135	42
343.15	0.618	4589	44
343.15	0.7003	6080	46
343.15	0.7547	7367	49
343.15	0.8047	8897	52
343.15	0.8541	10707	56
