Measured thermophysical data. Surface tension measurements of imidazolium-based ionic liquids at liquid vapor equilibrium
Source: Fluid Phase Equilib., 2008, 10.1016/j.fluid.2007.10.004
Compound 1: 1-butyl-3-methylimidazolium iodide, C8H15IN2, InChI=1S/C8H15N2.HI/c1-3-4-5-10-7-6-9(2)8-10;/h6-8H,3-5H2,1-2H3;1H/q+1;/p-1
Compound 2: 1-butyl-3-methylimidazolium chloride, C8H15ClN2, InChI=1S/C8H15N2.ClH/c1-3-4-5-10-7-6-9(2)8-10;/h6-8H,3-5H2,1-2H3;1H/q+1;/p-1
Compound 3: 1-butyl-3-methylimidazolium hexafluorophosphate, C8H15F6N2P, InChI=1S/C8H15N2.F6P/c1-3-4-5-10-7-6-9(2)8-10;1-7(2,3,4,5)6/h6-8H,3-5H2,1-2H3;/q+1;-1
Compound 4: 1-butyl-3-methylimidazolium tetrafluoroborate, C8H15BF4N2, InChI=1S/C8H15N2.BF4/c1-3-4-5-10-7-6-9(2)8-10;2-1(3,4)5/h6-8H,3-5H2,1-2H3;/q+1;-1
Compound 5: 1-hexyl-3-methylimidazolium iodide, C10H19IN2, InChI=1S/C10H19N2.HI/c1-3-4-5-6-7-12-9-8-11(2)10-12;/h8-10H,3-7H2,1-2H3;1H/q+1;/p-1
Compound 6: 1-hexyl-3-methylimidazolium chloride, C10H19ClN2, InChI=1S/C10H19N2.ClH/c1-3-4-5-6-7-12-9-8-11(2)10-12;/h8-10H,3-7H2,1-2H3;1H/q+1;/p-1
Compound 7: 1-hexyl-3-methylimidazolium hexafluorophosphate, C10H19F6N2P, InChI=1S/C10H19N2.F6P/c1-3-4-5-6-7-12-9-8-11(2)10-12;1-7(2,3,4,5)6/h8-10H,3-7H2,1-2H3;/q+1;-1
Compound 8: 1-hexyl-3-methylimidazolium tetrafluoroborate, C10H19BF4N2, InChI=1S/C10H19N2.BF4/c1-3-4-5-6-7-12-9-8-11(2)10-12;2-1(3,4)5/h8-10H,3-7H2,1-2H3;/q+1;-1
Compound 9: 1-methyl-3-octylimidazolium chloride, C12H23ClN2, InChI=1S/C12H23N2.ClH/c1-3-4-5-6-7-8-9-14-11-10-13(2)12-14;/h10-12H,3-9H2,1-2H3;1H/q+1;/p-1
Compound 10: 1-methyl-3-octylimidazolium tetrafluoroborate, C12H23BF4N2, InChI=1S/C12H23N2.BF4/c1-3-4-5-6-7-8-9-14-11-10-13(2)12-14;2-1(3,4)5/h10-12H,3-9H2,1-2H3;/q+1;-1

System: 1-butyl-3-methylimidazolium iodide; phases: Liquid, Gas
Property: Surface tension liquid-gas, N/m (Liquid); method: Capillary rise
Temperature, K	Surface tension liquid-gas, N/m	uncertainty
298	0.0533	0.0015
303	0.0529	0.0015
308	0.0525	0.0015
313	0.0521	0.0015
318	0.0515	0.0014
323	0.0511	0.0014
328	0.0507	0.0014
333	0.0503	0.0014
338	0.0499	0.0014
343	0.0494	0.0014
348	0.049	0.0014
353	0.0486	0.0014
358	0.0482	0.0014
363	0.0478	0.0014
368	0.0474	0.0013
373	0.0471	0.0013
378	0.0467	0.0013
383	0.0463	0.0013
388	0.046	0.0013
393	0.0456	0.0013

System: 1-butyl-3-methylimidazolium chloride; phases: Liquid, Gas
Property: Surface tension liquid-gas, N/m (Liquid); method: Capillary rise
Temperature, K	Surface tension liquid-gas, N/m	uncertainty
298	0.0482	0.0014
303	0.0478	0.0013
308	0.0475	0.0013
313	0.0472	0.0013
318	0.0469	0.0013
323	0.0466	0.0013
328	0.0463	0.0013
333	0.046	0.0013
338	0.0456	0.0013
343	0.0453	0.0013
348	0.045	0.0013
353	0.0447	0.0013
358	0.0444	0.0013
363	0.0439	0.0013
368	0.0436	0.0013
373	0.0432	0.0012
378	0.0429	0.0012
383	0.0425	0.0012
388	0.0422	0.0012
393	0.0418	0.0012

System: 1-butyl-3-methylimidazolium hexafluorophosphate; phases: Liquid, Gas
Property: Surface tension liquid-gas, N/m (Liquid); method: Capillary rise
Temperature, K	Surface tension liquid-gas, N/m	uncertainty
298	0.0475	0.0013
303	0.0472	0.0013
308	0.0469	0.0013
313	0.0465	0.0013
318	0.046	0.0013
323	0.0456	0.0013
328	0.0453	0.0013
333	0.0449	0.0013
338	0.0446	0.0013
343	0.0443	0.0013
348	0.0438	0.0013
353	0.0435	0.0013
358	0.0431	0.0012
363	0.0428	0.0012
368	0.0424	0.0012
373	0.0421	0.0012
378	0.0417	0.0012
383	0.0413	0.0012
388	0.0411	0.0012
393	0.0408	0.0012

System: 1-butyl-3-methylimidazolium tetrafluoroborate; phases: Liquid, Gas
Property: Surface tension liquid-gas, N/m (Liquid); method: Capillary rise
Temperature, K	Surface tension liquid-gas, N/m	uncertainty
298	0.0436	0.0013
303	0.0433	0.0012
308	0.043	0.0012
313	0.0427	0.0012
318	0.0423	0.0012
323	0.042	0.0012
328	0.0418	0.0012
333	0.0415	0.0012
338	0.0412	0.0012
343	0.0409	0.0012
348	0.0407	0.0012
353	0.0404	0.0012
358	0.0402	0.0012
363	0.0398	0.0012
368	0.0395	0.0012
373	0.0392	0.0012
378	0.039	0.0012
383	0.0388	0.0011
388	0.0385	0.0011
393	0.0382	0.0011

System: 1-hexyl-3-methylimidazolium iodide; phases: Liquid, Gas
Property: Surface tension liquid-gas, N/m (Liquid); method: Capillary rise
Temperature, K	Surface tension liquid-gas, N/m	uncertainty
298	0.0435	0.0013
303	0.0431	0.0012
308	0.0427	0.0012
313	0.0423	0.0012
318	0.0419	0.0012
323	0.0415	0.0012
328	0.0411	0.0012
333	0.0408	0.0012
338	0.0404	0.0012
343	0.0401	0.0012
348	0.0397	0.0012
353	0.0394	0.0012
358	0.039	0.0012
363	0.0386	0.0011
368	0.0383	0.0011
373	0.0379	0.0011
378	0.0376	0.0011
383	0.0372	0.0011
388	0.0368	0.0011
393	0.0365	0.0011

System: 1-hexyl-3-methylimidazolium chloride; phases: Liquid, Gas
Property: Surface tension liquid-gas, N/m (Liquid); method: Capillary rise
Temperature, K	Surface tension liquid-gas, N/m	uncertainty
298	0.0418	0.0012
303	0.0415	0.0012
308	0.0412	0.0012
313	0.0408	0.0012
318	0.0405	0.0012
323	0.0402	0.0012
328	0.04	0.0012
333	0.0398	0.0012
338	0.0394	0.0012
343	0.0391	0.0012
348	0.0388	0.0012
353	0.0385	0.0011
358	0.0383	0.0011
363	0.0379	0.0011
368	0.0377	0.0011
373	0.0374	0.0011
378	0.0371	0.0011
383	0.0368	0.0011
388	0.0365	0.0011
393	0.0362	0.0011

System: 1-hexyl-3-methylimidazolium hexafluorophosphate; phases: Liquid, Gas
Property: Surface tension liquid-gas, N/m (Liquid); method: Capillary rise
Temperature, K	Surface tension liquid-gas, N/m	uncertainty
298	0.0434	0.0013
303	0.043	0.0012
308	0.0426	0.0012
313	0.0423	0.0012
318	0.0419	0.0012
323	0.0415	0.0012
328	0.0411	0.0012
333	0.0408	0.0012
338	0.0405	0.0012
343	0.0402	0.0012
348	0.0398	0.0012
353	0.0395	0.0012
358	0.0391	0.0012
363	0.0388	0.0012

System: 1-hexyl-3-methylimidazolium tetrafluoroborate; phases: Liquid, Gas
Property: Surface tension liquid-gas, N/m (Liquid); method: Capillary rise
Temperature, K	Surface tension liquid-gas, N/m	uncertainty
298	0.0392	0.0012
303	0.0389	0.0012
308	0.0387	0.0011
313	0.0384	0.0011
318	0.0381	0.0011
323	0.0379	0.0011
328	0.0377	0.0011
333	0.0375	0.0011
338	0.0372	0.0011
343	0.0369	0.0011
348	0.0366	0.0011
353	0.0364	0.0011
358	0.0362	0.0011
363	0.0358	0.0011
368	0.0356	0.0011
373	0.0354	0.0011
378	0.0351	0.0011
383	0.0349	0.0011
388	0.0346	0.0011
393	0.0343	0.0011

System: 1-methyl-3-octylimidazolium chloride; phases: Liquid, Gas
Property: Surface tension liquid-gas, N/m (Liquid); method: Capillary rise
Temperature, K	Surface tension liquid-gas, N/m	uncertainty
298	0.0319	0.001
303	0.0317	0.001
308	0.0315	0.001
313	0.0312	0.001
318	0.0309	0.001
323	0.0306	0.001
328	0.0303	0.001
333	0.03	0.001
338	0.0297	0.001
343	0.0295	0.001
348	0.0292	0.001
353	0.0289	0.0009
358	0.0287	0.0009
363	0.0284	0.0009
368	0.0282	0.0009
373	0.0279	0.0009
378	0.0276	0.0009
383	0.0274	0.0009
388	0.027	0.0009
393	0.0267	0.0009

System: 1-methyl-3-octylimidazolium tetrafluoroborate; phases: Liquid, Gas
Property: Surface tension liquid-gas, N/m (Liquid); method: Capillary rise
Temperature, K	Surface tension liquid-gas, N/m	uncertainty
298	0.0307	0.001
303	0.0304	0.001
308	0.0301	0.001
313	0.0299	0.001
318	0.0296	0.001
323	0.0294	0.001
328	0.0292	0.001
333	0.0289	0.0009
338	0.0287	0.0009
343	0.0284	0.0009
348	0.0282	0.0009
353	0.0279	0.0009
358	0.0277	0.0009
363	0.0274	0.0009
368	0.0272	0.0009
373	0.027	0.0009
378	0.0267	0.0009
383	0.0265	0.0009
388	0.0263	0.0009
393	0.026	0.0009
