Measured thermophysical data. Vapor pressure measurements in the range 10-5 Pa to 1 Pa of four pentaerythritol esters Density and vapor liquid equilibria modeling of ester lubricants
Source: Fluid Phase Equilib., 2007, 10.1016/j.fluid.2007.07.029
Compound 1: pentaerythritol tetra(2-ethylhexanoate), C37H68O8, InChI=1S/C37H68O8/c1-9-17-21-29(13-5)33(38)42-25-37(26-43-34(39)30(14-6)22-18-10-2,27-44-35(40)31(15-7)23-19-11-3)28-45-36(41)32(16-8)24-20-12-4/h29-32H,9-28H2,1-8H3
Compound 2: pentaerythritol tetrapentanoate, C25H44O8, InChI=1S/C25H44O8/c1-5-9-13-21(26)30-17-25(18-31-22(27)14-10-6-2,19-32-23(28)15-11-7-3)20-33-24(29)16-12-8-4/h5-20H2,1-4H3
Compound 3: pentaerythritol tetraheptanoate, C33H60O8, InChI=1S/C33H60O8/c1-5-9-13-17-21-29(34)38-25-33(26-39-30(35)22-18-14-10-6-2,27-40-31(36)23-19-15-11-7-3)28-41-32(37)24-20-16-12-8-4/h5-28H2,1-4H3
Compound 4: pentaerythritol tetranonanoate, C41H76O8, InChI=1S/C41H76O8/c1-5-9-13-17-21-25-29-37(42)46-33-41(34-47-38(43)30-26-22-18-14-10-6-2,35-48-39(44)31-27-23-19-15-11-7-3)36-49-40(45)32-28-24-20-16-12-8-4/h5-36H2,1-4H3

System: pentaerythritol tetra(2-ethylhexanoate); phases: Liquid, Gas
Property: Vapor or sublimation pressure, kPa (Liquid); method: Transpiration method
Temperature, K	Vapor or sublimation pressure, kPa	uncertainty
353.96	1.27e-07	8.2e-08
363.89	3.67e-07	9.2e-08
373.81	1.07e-06	1.4e-07
383.56	3.37e-06	3.3e-07
393.56	8.94e-06	8.1e-07
403.44	2.37e-05	2.1e-06
413.44	5.82e-05	5.1e-06
423.4	0.000133	1.2e-05
433.18	0.000287	2.5e-05
443.17	0.000644	5.6e-05

System: pentaerythritol tetrapentanoate; phases: Liquid, Gas
Property: Vapor or sublimation pressure, kPa (Liquid); method: Transpiration method
Temperature, K	Vapor or sublimation pressure, kPa	uncertainty
334.02	2.55e-07	8.7e-08
353.94	2.88e-06	2.9e-07
373.62	2.61e-05	2.3e-06
393.34	0.000166	1.5e-05
413.08	0.000935	8.2e-05

System: pentaerythritol tetraheptanoate; phases: Liquid, Gas
Property: Vapor or sublimation pressure, kPa (Liquid); method: Transpiration method
Temperature, K	Vapor or sublimation pressure, kPa	uncertainty
373.81	2.58e-07	8.8e-08
393.48	2.61e-06	2.7e-07
413.4	2.2e-05	2e-06
433.36	0.000131	1.2e-05

System: pentaerythritol tetranonanoate; phases: Liquid, Gas
Property: Vapor or sublimation pressure, kPa (Liquid); method: Transpiration method
Temperature, K	Vapor or sublimation pressure, kPa	uncertainty
394.55	5.57e-08	7.96e-08
414.72	5.21e-07	9.9e-08
435.03	3.98e-06	3.8e-07
435.11	3.97e-06	3.8e-07
455.36	2.82e-05	2.5e-06
476.47	0.000174	1.5e-05
