Measured thermophysical data. Determination of activity coefficients at infinite dilution of organic solutes in the ionic liquid, trihexyl(tetradecyl)-phosphonium tris(pentafluoroethyl) trifluorophosphate, by gas liquid chromatography
Source: Fluid Phase Equilib., 2005, 10.1016/j.fluid.2005.04.021
Compound 1: pentane, C5H12, InChI=1S/C5H12/c1-3-5-4-2/h3-5H2,1-2H3
Compound 2: hexane, C6H14, InChI=1S/C6H14/c1-3-5-6-4-2/h3-6H2,1-2H3
Compound 3: heptane, C7H16, InChI=1S/C7H16/c1-3-5-7-6-4-2/h3-7H2,1-2H3
Compound 4: octane, C8H18, InChI=1S/C8H18/c1-3-5-7-8-6-4-2/h3-8H2,1-2H3
Compound 5: cyclopentane, C5H10, InChI=1S/C5H10/c1-2-4-5-3-1/h1-5H2
Compound 6: cyclohexane, C6H12, InChI=1S/C6H12/c1-2-4-6-5-3-1/h1-6H2
Compound 7: cycloheptane, C7H14, InChI=1S/C7H14/c1-2-4-6-7-5-3-1/h1-7H2
Compound 8: hex-1-ene, C6H12, InChI=1S/C6H12/c1-3-5-6-4-2/h3H,1,4-6H2,2H3
Compound 9: 1-heptene, C7H14, InChI=1S/C7H14/c1-3-5-7-6-4-2/h3H,1,4-7H2,2H3
Compound 10: oct-1-ene, C8H16, InChI=1S/C8H16/c1-3-5-7-8-6-4-2/h3H,1,4-8H2,2H3
Compound 11: 1-hexyne, C6H10, InChI=1S/C6H10/c1-3-5-6-4-2/h1H,4-6H2,2H3
Compound 12: 1-heptyne, C7H12, InChI=1S/C7H12/c1-3-5-7-6-4-2/h1H,4-7H2,2H3
Compound 13: 1-octyne, C8H14, InChI=1S/C8H14/c1-3-5-7-8-6-4-2/h1H,4-8H2,2H3
Compound 14: methanol, CH4O, InChI=1S/CH4O/c1-2/h2H,1H3
Compound 15: ethanol, C2H6O, InChI=1S/C2H6O/c1-2-3/h3H,2H2,1H3
Compound 16: propan-1-ol, C3H8O, InChI=1S/C3H8O/c1-2-3-4/h4H,2-3H2,1H3
Compound 17: benzene, C6H6, InChI=1S/C6H6/c1-2-4-6-5-3-1/h1-6H
Compound 18: trihexyl(tetradecyl)phosphonium tris(pentafluoroethyl)trifluorophosphate, C38H68F18P2, InChI=1S/C32H68P.C6F18P/c1-5-9-13-17-18-19-20-21-22-23-24-28-32-33(29-25-14-10-6-2,30-26-15-11-7-3)31-27-16-12-8-4;7-1(8,9)4(16,17)25(22,23,24,5(18,19)2(10,11)12)6(20,21)3(13,14)15/h5-32H2,1-4H3;/q+1;-1

System: pentane + trihexyl(tetradecyl)phosphonium tris(pentafluoroethyl)trifluorophosphate; phases: Liquid, Gas
Fixed: Mole fraction of pentane = 0
Property: Activity coefficient of pentane (Liquid); method: CHROM:UFactor:2
Temperature, K	Activity coefficient of pentane	uncertainty
308.15	0.61	0.06
318.15	0.6	0.06
328.15	0.59	0.06

System: hexane + trihexyl(tetradecyl)phosphonium tris(pentafluoroethyl)trifluorophosphate; phases: Liquid, Gas
Fixed: Mole fraction of hexane = 0
Property: Activity coefficient of hexane (Liquid); method: CHROM:UFactor:2
Temperature, K	Activity coefficient of hexane	uncertainty
308.15	0.66	0.06
318.15	0.64	0.06
328.15	0.62	0.06

System: heptane + trihexyl(tetradecyl)phosphonium tris(pentafluoroethyl)trifluorophosphate; phases: Liquid, Gas
Fixed: Mole fraction of heptane = 0
Property: Activity coefficient of heptane (Liquid); method: CHROM:UFactor:2
Temperature, K	Activity coefficient of heptane	uncertainty
308.15	0.74	0.06
318.15	0.72	0.06
328.15	0.7	0.06

System: octane + trihexyl(tetradecyl)phosphonium tris(pentafluoroethyl)trifluorophosphate; phases: Liquid, Gas
Fixed: Mole fraction of octane = 0
Property: Activity coefficient of octane (Liquid); method: CHROM:UFactor:2
Temperature, K	Activity coefficient of octane	uncertainty
308.15	0.84	0.06
318.15	0.8	0.06
328.15	0.77	0.06

System: cyclopentane + trihexyl(tetradecyl)phosphonium tris(pentafluoroethyl)trifluorophosphate; phases: Liquid, Gas
Fixed: Mole fraction of cyclopentane = 0
Property: Activity coefficient of cyclopentane (Liquid); method: CHROM:UFactor:2
Temperature, K	Activity coefficient of cyclopentane	uncertainty
308.15	0.42	0.05
318.15	0.42	0.05
328.15	0.41	0.05

System: cyclohexane + trihexyl(tetradecyl)phosphonium tris(pentafluoroethyl)trifluorophosphate; phases: Liquid, Gas
Fixed: Mole fraction of cyclohexane = 0
Property: Activity coefficient of cyclohexane (Liquid); method: CHROM:UFactor:2
Temperature, K	Activity coefficient of cyclohexane	uncertainty
308.15	0.49	0.06
318.15	0.48	0.05
328.15	0.44	0.05

System: cycloheptane + trihexyl(tetradecyl)phosphonium tris(pentafluoroethyl)trifluorophosphate; phases: Liquid, Gas
Fixed: Mole fraction of cycloheptane = 0
Property: Activity coefficient of cycloheptane (Liquid); method: CHROM:UFactor:2
Temperature, K	Activity coefficient of cycloheptane	uncertainty
308.15	0.54	0.06
318.15	0.52	0.06
328.15	0.49	0.06

System: hex-1-ene + trihexyl(tetradecyl)phosphonium tris(pentafluoroethyl)trifluorophosphate; phases: Liquid, Gas
Fixed: Mole fraction of hex-1-ene = 0
Property: Activity coefficient of hex-1-ene (Liquid); method: CHROM:UFactor:2
Temperature, K	Activity coefficient of hex-1-ene	uncertainty
308.15	0.53	0.06
318.15	0.53	0.06
328.15	0.52	0.06

System: 1-heptene + trihexyl(tetradecyl)phosphonium tris(pentafluoroethyl)trifluorophosphate; phases: Liquid, Gas
Fixed: Mole fraction of 1-heptene = 0
Property: Activity coefficient of 1-heptene (Liquid); method: CHROM:UFactor:2
Temperature, K	Activity coefficient of 1-heptene	uncertainty
308.15	0.59	0.06
318.15	0.58	0.06
328.15	0.57	0.06

System: oct-1-ene + trihexyl(tetradecyl)phosphonium tris(pentafluoroethyl)trifluorophosphate; phases: Liquid, Gas
Fixed: Mole fraction of oct-1-ene = 0
Property: Activity coefficient of oct-1-ene (Liquid); method: CHROM:UFactor:2
Temperature, K	Activity coefficient of oct-1-ene	uncertainty
308.15	0.67	0.06
318.15	0.65	0.06
328.15	0.64	0.06

System: 1-hexyne + trihexyl(tetradecyl)phosphonium tris(pentafluoroethyl)trifluorophosphate; phases: Liquid, Gas
Fixed: Mole fraction of 1-hexyne = 0
Property: Activity coefficient of 1-hexyne (Liquid); method: CHROM:UFactor:2
Temperature, K	Activity coefficient of 1-hexyne	uncertainty
308.15	0.42	0.05
318.15	0.42	0.05
328.15	0.41	0.05

System: 1-heptyne + trihexyl(tetradecyl)phosphonium tris(pentafluoroethyl)trifluorophosphate; phases: Liquid, Gas
Fixed: Mole fraction of 1-heptyne = 0
Property: Activity coefficient of 1-heptyne (Liquid); method: CHROM:UFactor:2
Temperature, K	Activity coefficient of 1-heptyne	uncertainty
308.15	0.46	0.05
318.15	0.46	0.05
328.15	0.45	0.05

System: 1-octyne + trihexyl(tetradecyl)phosphonium tris(pentafluoroethyl)trifluorophosphate; phases: Liquid, Gas
Fixed: Mole fraction of 1-octyne = 0
Property: Activity coefficient of 1-octyne (Liquid); method: CHROM:UFactor:2
Temperature, K	Activity coefficient of 1-octyne	uncertainty
308.15	0.57	0.06
318.15	0.52	0.06
328.15	0.51	0.06

System: methanol + trihexyl(tetradecyl)phosphonium tris(pentafluoroethyl)trifluorophosphate; phases: Liquid, Gas
Fixed: Mole fraction of methanol = 0
Property: Activity coefficient of methanol (Liquid); method: CHROM:UFactor:2
Temperature, K	Activity coefficient of methanol	uncertainty
308.15	1.23	0.09
318.15	1.14	0.08
328.15	1.01	0.07

System: ethanol + trihexyl(tetradecyl)phosphonium tris(pentafluoroethyl)trifluorophosphate; phases: Liquid, Gas
Fixed: Mole fraction of ethanol = 0
Property: Activity coefficient of ethanol (Liquid); method: CHROM:UFactor:2
Temperature, K	Activity coefficient of ethanol	uncertainty
308.15	1.2	0.09
318.15	1.07	0.08
328.15	0.93	0.07

System: propan-1-ol + trihexyl(tetradecyl)phosphonium tris(pentafluoroethyl)trifluorophosphate; phases: Liquid, Gas
Fixed: Mole fraction of propan-1-ol = 0
Property: Activity coefficient of propan-1-ol (Liquid); method: CHROM:UFactor:2
Temperature, K	Activity coefficient of propan-1-ol	uncertainty
308.15	1.16	0.09
318.15	1	0.07
328.15	0.87	0.06

System: benzene + trihexyl(tetradecyl)phosphonium tris(pentafluoroethyl)trifluorophosphate; phases: Liquid, Gas
Fixed: Mole fraction of benzene = 0
Property: Activity coefficient of benzene (Liquid); method: CHROM:UFactor:2
Temperature, K	Activity coefficient of benzene	uncertainty
308.15	0.2	0.06
318.15	0.19	0.06
328.15	0.19	0.06
