Measured thermophysical data. Enhancing the description of SSLE data for binary and ternary fatty mixtures
Source: Fluid Phase Equilib., 2016, 10.1016/j.fluid.2016.01.011
Compound 1: tetradecanoic acid, C14H28O2, InChI=1S/C14H28O2/c1-2-3-4-5-6-7-8-9-10-11-12-13-14(15)16/h2-13H2,1H3,(H,15,16), purity 99%
Compound 2: octadecanoic acid, C18H36O2, InChI=1S/C18H36O2/c1-2-3-4-5-6-7-8-9-10-11-12-13-14-15-16-17-18(19)20/h2-17H2,1H3,(H,19,20), purity 99%
Compound 3: (Z,Z)-9,12-octadecadienoic acid, C18H32O2, InChI=1S/C18H32O2/c1-2-3-4-5-6-7-8-9-10-11-12-13-14-15-16-17-18(19)20/h6-7,9-10H,2-5,8,11-17H2,1H3,(H,19,20)/b7-6-,10-9-, purity 99%

System: tetradecanoic acid; phases: Crystal, Liquid, Air at 1 atmosphere
Property: Normal melting temperature, K (Crystal); method: DTA
Normal melting temperature, K	uncertainty
327.68	0.84

System: tetradecanoic acid; phases: Crystal, Liquid, Air at 1 atmosphere
Property: Molar enthalpy of transition or fusion, kJ/mol (Crystal); method: DSC
Molar enthalpy of transition or fusion, kJ/mol	uncertainty
44.92	1.73

System: octadecanoic acid; phases: Crystal, Liquid, Air at 1 atmosphere
Property: Normal melting temperature, K (Crystal); method: DTA
Normal melting temperature, K	uncertainty
343.98	0.61

System: octadecanoic acid; phases: Crystal, Liquid, Air at 1 atmosphere
Property: Molar enthalpy of transition or fusion, kJ/mol (Crystal); method: DSC
Molar enthalpy of transition or fusion, kJ/mol	uncertainty
64.23	2.28

System: (Z,Z)-9,12-octadecadienoic acid; phases: Crystal, Liquid, Air at 1 atmosphere
Property: Normal melting temperature, K (Crystal); method: DTA
Normal melting temperature, K	uncertainty
268.24	0.58

System: (Z,Z)-9,12-octadecadienoic acid; phases: Crystal, Liquid, Air at 1 atmosphere
Property: Molar enthalpy of transition or fusion, kJ/mol (Crystal); method: DSC
Molar enthalpy of transition or fusion, kJ/mol	uncertainty
34.08	0.9

System: (Z,Z)-9,12-octadecadienoic acid + tetradecanoic acid; phases: Crystal, Crystal, Liquid, Air at 1 atmosphere
Property: Eutectic temperature, K (Crystal); method: DTA
Eutectic temperature, K	uncertainty
266.74	1.06

System: octadecanoic acid + (Z,Z)-9,12-octadecadienoic acid; phases: Crystal, Crystal, Liquid, Air at 1 atmosphere
Property: Eutectic temperature, K (Crystal); method: DTA
Eutectic temperature, K	uncertainty
267.56	1.06

System: octadecanoic acid + (Z,Z)-9,12-octadecadienoic acid + tetradecanoic acid; phases: Crystal, Crystal, Crystal, Liquid, Air at 1 atmosphere
Property: Eutectic temperature, K (Crystal); method: DTA
Eutectic temperature, K	uncertainty
266.32	1.06

System: octadecanoic acid + (Z,Z)-9,12-octadecadienoic acid + tetradecanoic acid; phases: Liquid, Crystal of unknown type
Fixed: Pressure, kPa = 96.7
Property: Solid-liquid equilibrium temperature, K (Liquid); method: DTA
Mole fraction of (Z,Z)-9,12-octadecadienoic acid	Mole fraction of tetradecanoic acid	Solid-liquid equilibrium temperature, K	uncertainty
0.0991	0.801	319.34	1.06
0.1001	0.6005	321.68	1.06
0.1004	0.1992	336.76	1.06
0.1082	0.0992	338.51	1.06
0.1928	0.1928	334.56	1.06
0.1999	0.6007	318.09	1.06
0.2005	0.1029	336.93	1.06
0.2007	0.3997	325.85	1.06
0.2979	0.4018	322.43	1.06
0.3004	0.2996	324.94	1.06
0.301	0.5995	314.3	1.06
0.3995	0.1003	335.28	1.06
0.4004	0.2021	327.74	1.06
0.4005	0.3999	316.89	1.07
0.4993	0.4015	310.68	1.07
0.4977	0.2011	324.56	1.07
0.6237	0.1883	316.2	1.09
0.5989	0.1028	330.75	1.07
0.6876	0.2134	303.73	1.09
0.7964	0.1042	310.04	1.09
