Measured thermophysical data. Measurement and correlation of vapor-liquid distribution coefficients of flavonoids in high pressure carbon dioxide - ethanol - water systems
Source: Fluid Phase Equilib., 2019, 10.1016/j.fluid.2019.02.015
Compound 1: carbon dioxide, CO2, InChI=1S/CO2/c2-1-3
Compound 2: ethanol, C2H6O, InChI=1S/C2H6O/c1-2-3/h3H,2H2,1H3, purity 99.5%
Compound 3: flavone, C15H10O2, InChI=1S/C15H10O2/c16-13-10-15(11-6-2-1-3-7-11)17-14-9-5-4-8-12(13)14/h1-10H, purity 98%
Compound 4: 6-methoxyflavone, C16H12O3, InChI=1S/C16H12O3/c1-18-12-7-8-15-13(9-12)14(17)10-16(19-15)11-5-3-2-4-6-11/h2-10H,1H3, purity 98%
Compound 5: 7-hydroxyflavone, C15H10O3, InChI=1S/C15H10O3/c16-11-6-7-12-13(17)9-14(18-15(12)8-11)10-4-2-1-3-5-10/h1-9,16H, purity 97%
Compound 6: water, H2O, InChI=1S/H2O/h1H2, purity 99.9%

System: carbon dioxide + ethanol + water; phases: Liquid, Gas
Property: Mole fraction of ethanol (Liquid); method: Chromatography
Property: Mole fraction of ethanol (Gas); method: Chromatography
Property: Mole fraction of carbon dioxide (Gas); method: Chromatography
Temperature, K	Pressure, kPa	Mole fraction of carbon dioxide	Mole fraction of ethanol	uncertainty	Mole fraction of ethanol	uncertainty	Mole fraction of carbon dioxide	uncertainty
313.2	10000	0.412	0.37	0.02	0.11	0.02	0.858	
313.2	15000	0.054	0.199	0.02	0.05	0.02	0.932	
313.2	20000	0.243	0.346	0.02	0.115	0.02	0.84	
313.2	20000	0.15	0.312	0.02	0.087	0.02	0.882	
313.2	20000	0.092	0.271	0.02	0.074	0.02	0.905	
313.2	20000	0.047	0.178	0.02	0.053	0.02	0.928	
333.2	10000	0.325	0.455	0.02	0.024	0.02	0.97	
333.2	10000	0.267	0.43	0.02	0.022	0.02	0.972	
333.2	10000	0.199	0.39	0.02	0.021	0.02	0.971	
333.2	10000	0.127	0.333	0.02	0.019	0.019	0.974	
333.2	10000	0.077	0.262	0.02	0.017	0.017	0.975	
313.2	10000	0.269	0.38	0.02	0.076	0.02	0.901	
333.2	15000	0.393	0.347	0.02	0.136	0.02	0.813	
333.2	15000	0.242	0.35	0.02	0.094	0.02	0.871	
333.2	15000	0.165	0.321	0.02	0.072	0.02	0.903	
333.2	15000	0.102	0.264	0.02	0.062	0.02	0.915	
333.2	15000	0.06	0.199	0.02	0.049	0.02	0.932	
333.2	20000	0.242	0.314	0.02	0.118	0.02	0.831	
333.2	20000	0.13	0.285	0.02	0.097	0.02	0.864	
333.2	20000	0.075	0.218	0.02	0.075	0.02	0.895	
333.2	20000	0.051	0.174	0.02	0.061	0.02	0.914	
353.2	10000	0.251	0.512	0.02	0.031	0.02	0.962	
313.2	10000	0.166	0.348	0.02	0.058	0.02	0.924	
353.2	10000	0.203	0.466	0.02	0.025	0.02	0.968	
353.2	10000	0.156	0.4	0.02	0.024	0.02	0.967	
353.2	10000	0.109	0.338	0.02	0.022	0.02	0.969	
353.2	10000	0.071	0.263	0.02	0.021	0.02	0.97	
353.2	15000	0.419	0.368	0.02	0.091	0.02	0.882	
353.2	15000	0.297	0.372	0.02	0.071	0.02	0.907	
353.2	15000	0.197	0.335	0.02	0.059	0.02	0.92	
353.2	15000	0.129	0.283	0.02	0.05	0.02	0.931	
353.2	15000	0.078	0.219	0.02	0.045	0.02	0.938	
353.2	20000	0.25	0.314	0.02	0.121	0.02	0.824	
313.2	10000	0.101	0.269	0.02	0.048	0.02	0.939	
353.2	20000	0.155	0.281	0.02	0.1	0.02	0.856	
353.2	20000	0.094	0.233	0.02	0.078	0.02	0.889	
353.2	20000	0.06	0.175	0.02	0.062	0.02	0.912	
313.2	10000	0.056	0.214	0.02	0.04	0.02	0.948	
313.2	15000	0.455	0.326	0.02	0.165	0.02	0.769	
313.2	15000	0.247	0.363	0.02	0.103	0.02	0.862	
313.2	15000	0.155	0.325	0.02	0.08	0.02	0.893	
313.2	15000	0.073	0.276	0.02	0.066	0.02	0.913	

System: carbon dioxide + ethanol + flavone; phases: Liquid, Gas
Property: Mole fraction of flavone (Liquid); method: Chromatography
Property: Mole fraction of flavone (Gas); method: Chromatography
Property: Mole fraction of ethanol (Gas); method: Chromatography
Temperature, K	Pressure, kPa	Mole fraction of ethanol	Mole fraction of flavone	uncertainty	Mole fraction of flavone	uncertainty	Mole fraction of ethanol	uncertainty
333.2	8000	0.598	0.000134	1e-06	6.26e-08	2e-08	0.023	
333.2	10000	0.354	8.7e-05	1e-06	5.5e-07	2.1e-08	0.04	
353.2	8000	0.689	0.000167	1e-06	5.09e-08	2e-08	0.039	
353.2	10000	0.571	0.000148	1e-06	1.51e-07	2e-08	0.049	
353.2	12000	0.403	0.000119	1e-06	2e-06	3e-08	0.083	
373.2	8000	0.745	0.000213	2e-06	1.2e-07	2e-08	0.064	
373.2	10000	0.663	0.000209	2e-06	2.09e-07	2e-08	0.07	
373.2	12000	0.546	0.000187	2e-06	9.74e-07	2.2e-08	0.089	
373.2	14000	0.386	0.000175	1e-06	2.13e-05	2e-07	0.167	

System: carbon dioxide + ethanol + 6-methoxyflavone; phases: Liquid, Gas
Property: Mole fraction of 6-methoxyflavone (Liquid); method: Chromatography
Property: Mole fraction of 6-methoxyflavone (Gas); method: Chromatography
Property: Mole fraction of ethanol (Gas); method: Chromatography
Temperature, K	Pressure, kPa	Mole fraction of ethanol	Mole fraction of 6-methoxyflavone	uncertainty	Mole fraction of 6-methoxyflavone	uncertainty	Mole fraction of ethanol	uncertainty
333.2	8000	0.585	0.000118	1e-06	2.12e-08	2e-08	0.016	
333.2	10000	0.359	8.2e-05	1e-06	2.87e-07	2e-08	0.045	
353.2	8000	0.689	0.00014	1e-06	1.61e-08	1.61e-08	0.037	
353.2	10000	0.582	0.000111	1e-06	1.32e-07	2e-08	0.043	
353.2	12000	0.409	0.000122	1e-06	1.39e-06	2e-08	0.081	
373.2	8000	0.743	0.000213	2e-06	2.59e-08	2e-08	0.066	
373.2	10000	0.661	0.000221	2e-06	2.05e-07	2e-08	0.081	
373.2	12000	0.551	0.000209	2e-06	6.99e-07	2.1e-08	0.094	
373.2	14000	0.39	0.000229	2e-06	2.28e-05	2e-07	0.17	

System: carbon dioxide + ethanol + 7-hydroxyflavone; phases: Liquid, Gas
Property: Mole fraction of 7-hydroxyflavone (Liquid); method: Chromatography
Property: Mole fraction of 7-hydroxyflavone (Gas); method: Chromatography
Property: Mole fraction of ethanol (Gas); method: Chromatography
Temperature, K	Pressure, kPa	Mole fraction of ethanol	Mole fraction of 7-hydroxyflavone	uncertainty	Mole fraction of 7-hydroxyflavone	uncertainty	Mole fraction of ethanol	uncertainty
353.2	10000	0.577	6.7e-05	1e-06	2.24e-08	2e-08	0.04359	
353.2	12000	0.423	6.2e-05	1e-06	1.5e-07	2e-08	0.0747	
373.2	10000	0.663	9.6e-05	1e-06	1.36e-08	1.36e-08	0.068952	
373.2	12000	0.554	9.6e-05	1e-06	6.36e-08	2e-08	0.089564	
373.2	14000	0.395	0.000125	1e-06	6.8e-06	6e-08	0.1695	
