Measured thermophysical data. Phase equilibria of (CO2 + butylbenzene) and (CO2 + butylcyclohexane) at temperatures between (323.15 and 423.15) K and at pressures up to 21MPa
Source: Fluid Phase Equilib., 2015, 10.1016/j.fluid.2014.12.022
Compound 1: carbon dioxide, CO2, InChI=1S/CO2/c2-1-3, purity 99.95%
Compound 2: butylbenzene, C10H14, InChI=1S/C10H14/c1-2-3-7-10-8-5-4-6-9-10/h4-6,8-9H,2-3,7H2,1H3, purity 99%
Compound 3: butylcyclohexane, C10H20, InChI=1S/C10H20/c1-2-3-7-10-8-5-4-6-9-10/h10H,2-9H2,1H3, purity 99%

System: carbon dioxide + butylcyclohexane; phases: Gas, Liquid
Property: Vapor or sublimation pressure, kPa (Gas); method: Closed cell (Static) method
Temperature, K	Mole fraction of carbon dioxide	Vapor or sublimation pressure, kPa	uncertainty
323.15	0.1505	2351	29
323.15	0.3387	5024	42
323.15	0.5105	7253	56
323.15	0.64	8604	67
323.15	0.7307	9208	49
323.15	0.8109	9506	36
323.15	0.9441	9741	35
373.15	0.1085	2413	16
373.15	0.2227	4957	22
373.15	0.3289	7517	81
373.15	0.4452	10292	96
373.15	0.5431	12561	151
373.15	0.6631	15178	167
373.15	0.793	17107	99
423.15	0.0849	2339	19
423.15	0.2131	5994	40
423.15	0.3066	8784	47
423.15	0.4173	12285	64
423.15	0.5178	15383	88
423.15	0.6134	18103	69
423.15	0.7155	20208	76

System: carbon dioxide + butylcyclohexane; phases: Gas, Liquid
Property: Mole fraction of carbon dioxide (Gas); method: Chromatography
Temperature, K	Mole fraction of carbon dioxide	Mole fraction of carbon dioxide	uncertainty
323.15	0.1505	0.99561	0.00013
323.15	0.3387	0.99864	5e-05
323.15	0.5105	0.9971	8e-05
323.15	0.64	0.99541	0.00022
323.15	0.7307	0.99087	0.00052
323.15	0.8109	0.98593	0.0004
323.15	0.9441	0.97506	0.00053
373.15	0.1085	0.99021	0.00015
373.15	0.2227	0.99354	0.00012
373.15	0.3289	0.99102	0.00027
373.15	0.4452	0.98683	0.00023
373.15	0.5431	0.98238	0.00068
373.15	0.6631	0.97118	0.00144
373.15	0.793	0.94049	0.00142
423.15	0.0849	0.96923	0.0006
423.15	0.2131	0.9794	0.00025
423.15	0.3066	0.98034	0.00064
423.15	0.4173	0.97256	0.00102
423.15	0.5178	0.96004	0.00084
423.15	0.6134	0.94813	0.00093
423.15	0.7155	0.91374	0.00109

System: butylbenzene + carbon dioxide; phases: Gas, Liquid
Property: Vapor or sublimation pressure, kPa (Gas); method: Closed cell (Static) method
Temperature, K	Mole fraction of carbon dioxide	Vapor or sublimation pressure, kPa	uncertainty
323.15	0.1563	2120	36
323.15	0.3317	4533	66
323.15	0.4718	6315	57
323.15	0.5716	7533	47
323.15	0.6755	8386	68
323.15	0.771	8995	41
323.15	0.8975	9554	38
323.15	0.9327	9658	37
373.15	0.1034	2124	99
373.15	0.2478	5330	115
373.15	0.3843	8484	82
373.15	0.5107	11567	90
373.15	0.6973	15543	133
373.15	0.7411	16287	83
373.15	0.826	17359	62
423.15	0.083	2186	69
423.15	0.2088	5780	161
423.15	0.3256	9384	255
423.15	0.4618	13576	120
423.15	0.5486	16258	83
423.15	0.6534	19120	87
423.15	0.7559	20988	77
423.15	0.8269	21420	77

System: butylbenzene + carbon dioxide; phases: Gas, Liquid
Property: Mole fraction of carbon dioxide (Gas); method: Chromatography
Temperature, K	Mole fraction of butylbenzene	Mole fraction of carbon dioxide	uncertainty
323.15	0.1563	0.9924	0.00026
323.15	0.3317	0.9968	0.00012
323.15	0.4718	0.99648	0.00026
323.15	0.5716	0.99652	0.00038
323.15	0.6755	0.99559	0.00037
323.15	0.771	0.99337	0.00038
323.15	0.8975	0.98903	0.00047
323.15	0.9327	0.98533	0.00043
373.15	0.1034	0.98963	0.0004
373.15	0.2478	0.99294	0.00035
373.15	0.3843	0.98958	0.00065
373.15	0.5107	0.9847	0.00043
373.15	0.6973	0.96993	0.00099
373.15	0.7411	0.96185	0.0018
373.15	0.826	0.92973	0.00198
423.15	0.083	0.96453	0.00047
423.15	0.2088	0.97652	0.00104
423.15	0.3256	0.97697	0.00097
423.15	0.4618	0.96304	0.00224
423.15	0.5486	0.95816	0.00126
423.15	0.6534	0.94306	0.00226
423.15	0.7559	0.90423	0.00167
423.15	0.8269	0.86804	0.00356
