Measured thermophysical data. Solubility of 9-fluorenone, thianthrene and xanthene in organic solvents
Source: Fluid Phase Equilib., 2005, 10.1016/j.fluid.2005.02.016
Compound 1: 9(9H)-fluorenone, C13H8O, InChI=1S/C13H8O/c14-13-11-7-3-1-5-9(11)10-6-2-4-8-12(10)13/h1-8H
Compound 2: thianthrene, C12H8S2, InChI=1S/C12H8S2/c1-2-6-10-9(5-1)13-11-7-3-4-8-12(11)14-10/h1-8H
Compound 3: 10H-9-oxaanthracene, C13H10O, InChI=1S/C13H10O/c1-3-7-12-10(5-1)9-11-6-2-4-8-13(11)14-12/h1-8H,9H2
Compound 4: undecane, C11H24, InChI=1S/C11H24/c1-3-5-7-9-11-10-8-6-4-2/h3-11H2,1-2H3
Compound 5: 1,1-dimethylethylcyclohexane, C10H20, InChI=1S/C10H20/c1-10(2,3)9-7-5-4-6-8-9/h9H,4-8H2,1-3H3
Compound 6: diethyl ether, C4H10O, InChI=1S/C4H10O/c1-3-5-4-2/h3-4H2,1-2H3
Compound 7: nonane, C9H20, InChI=1S/C9H20/c1-3-5-7-9-8-6-4-2/h3-9H2,1-2H3
Compound 8: decane, C10H22, InChI=1S/C10H22/c1-3-5-7-9-10-8-6-4-2/h3-10H2,1-2H3
Compound 9: hexadecane, C16H34, InChI=1S/C16H34/c1-3-5-7-9-11-13-15-16-14-12-10-8-6-4-2/h3-16H2,1-2H3
Compound 10: diisopropyl ether, C6H14O, InChI=1S/C6H14O/c1-5(2)7-6(3)4/h5-6H,1-4H3
Compound 11: 1,4-dioxane, C4H8O2, InChI=1S/C4H8O2/c1-2-6-4-3-5-1/h1-4H2
Compound 12: decan-1-ol, C10H22O, InChI=1S/C10H22O/c1-2-3-4-5-6-7-8-9-10-11/h11H,2-10H2,1H3
Compound 13: 1,2-ethanediol, C2H6O2, InChI=1S/C2H6O2/c3-1-2-4/h3-4H,1-2H2
Compound 14: acetonitrile, C2H3N, InChI=1S/C2H3N/c1-2-3/h1H3

System: 9(9H)-fluorenone + undecane; phases: Liquid, Crystal
Property: Mole fraction of 9(9H)-fluorenone (Liquid); method: Spectra and the Beer-Lambert Law
Temperature, K	Pressure, kPa	Mole fraction of 9(9H)-fluorenone	uncertainty
298.15	101.3	0.0244	0.00071

System: 9(9H)-fluorenone + 1,1-dimethylethylcyclohexane; phases: Liquid, Crystal
Property: Mole fraction of 9(9H)-fluorenone (Liquid); method: Spectra and the Beer-Lambert Law
Temperature, K	Pressure, kPa	Mole fraction of 9(9H)-fluorenone	uncertainty
298.15	101.3	0.02011	0.00059

System: diethyl ether + 9(9H)-fluorenone; phases: Liquid, Crystal
Property: Mole fraction of 9(9H)-fluorenone (Liquid); method: Spectra and the Beer-Lambert Law
Temperature, K	Pressure, kPa	Mole fraction of 9(9H)-fluorenone	uncertainty
298.15	101.3	0.09272	0.0027

System: thianthrene + nonane; phases: Liquid, Crystal
Property: Mole fraction of thianthrene (Liquid); method: Spectra and the Beer-Lambert Law
Temperature, K	Pressure, kPa	Mole fraction of thianthrene	uncertainty
298.15	101.3	0.004465	0.00013

System: thianthrene + decane; phases: Liquid, Crystal
Property: Mole fraction of thianthrene (Liquid); method: Spectra and the Beer-Lambert Law
Temperature, K	Pressure, kPa	Mole fraction of thianthrene	uncertainty
298.15	101.3	0.00498	0.000145

System: thianthrene + undecane; phases: Liquid, Crystal
Property: Mole fraction of thianthrene (Liquid); method: Spectra and the Beer-Lambert Law
Temperature, K	Pressure, kPa	Mole fraction of thianthrene	uncertainty
298.15	101.3	0.005636	0.000164

System: thianthrene + hexadecane; phases: Liquid, Crystal
Property: Mole fraction of thianthrene (Liquid); method: Spectra and the Beer-Lambert Law
Temperature, K	Pressure, kPa	Mole fraction of thianthrene	uncertainty
298.15	101.3	0.008166	0.000238

System: diethyl ether + thianthrene; phases: Liquid, Crystal
Property: Mole fraction of thianthrene (Liquid); method: Spectra and the Beer-Lambert Law
Temperature, K	Pressure, kPa	Mole fraction of thianthrene	uncertainty
298.15	101.3	0.008363	0.000244

System: thianthrene + diisopropyl ether; phases: Liquid, Crystal
Property: Mole fraction of thianthrene (Liquid); method: Spectra and the Beer-Lambert Law
Temperature, K	Pressure, kPa	Mole fraction of thianthrene	uncertainty
298.15	101.3	0.006376	0.000188

System: thianthrene + 1,4-dioxane; phases: Liquid, Crystal
Property: Mole fraction of thianthrene (Liquid); method: Spectra and the Beer-Lambert Law
Temperature, K	Pressure, kPa	Mole fraction of thianthrene	uncertainty
298.15	101.3	0.02431	0.00072

System: thianthrene + decan-1-ol; phases: Liquid, Crystal
Property: Mole fraction of thianthrene (Liquid); method: Spectra and the Beer-Lambert Law
Temperature, K	Pressure, kPa	Mole fraction of thianthrene	uncertainty
298.15	101.3	0.007012	0.000205

System: thianthrene + 1,2-ethanediol; phases: Liquid, Crystal
Property: Mole fraction of thianthrene (Liquid); method: Spectra and the Beer-Lambert Law
Temperature, K	Pressure, kPa	Mole fraction of thianthrene	uncertainty
298.15	101.3	0.001278	3.8e-05

System: acetonitrile + thianthrene; phases: Liquid, Crystal
Property: Mole fraction of thianthrene (Liquid); method: Spectra and the Beer-Lambert Law
Temperature, K	Pressure, kPa	Mole fraction of thianthrene	uncertainty
298.15	101.3	0.001364	4.3e-05

System: 10H-9-oxaanthracene + undecane; phases: Liquid, Crystal
Property: Mole fraction of 10H-9-oxaanthracene (Liquid); method: Spectra and the Beer-Lambert Law
Temperature, K	Pressure, kPa	Mole fraction of 10H-9-oxaanthracene	uncertainty
298.15	101.3	0.04704	0.00138

System: diethyl ether + 10H-9-oxaanthracene; phases: Liquid, Crystal
Property: Mole fraction of 10H-9-oxaanthracene (Liquid); method: Spectra and the Beer-Lambert Law
Temperature, K	Pressure, kPa	Mole fraction of 10H-9-oxaanthracene	uncertainty
298.15	101.3	0.08353	0.00248

System: 10H-9-oxaanthracene + diisopropyl ether; phases: Liquid, Crystal
Property: Mole fraction of 10H-9-oxaanthracene (Liquid); method: Spectra and the Beer-Lambert Law
Temperature, K	Pressure, kPa	Mole fraction of 10H-9-oxaanthracene	uncertainty
298.15	101.3	0.05531	0.00163
