Measured thermophysical data. Thermodynamics of aromatic polar compound (alkanone, alkanal or alkanoate) + hydrocarbon mixtures
Source: Fluid Phase Equilib., 2016, 10.1016/j.fluid.2016.04.004
Compound 1: 1-phenyl-2-propanone, C9H10O, InChI=1S/C9H10O/c1-8(10)7-9-5-3-2-4-6-9/h2-6H,7H2,1H3, purity 98%
Compound 2: 4-phenyl-2-butanone, C10H12O, InChI=1S/C10H12O/c1-9(11)7-8-10-5-3-2-4-6-10/h2-6H,7-8H2,1H3, purity 98%
Compound 3: benzyl ethanoate, C9H10O2, InChI=1S/C9H10O2/c1-8(10)11-7-9-5-3-2-4-6-9/h2-6H,7H2,1H3, purity 99%
Compound 4: decane, C10H22, InChI=1S/C10H22/c1-3-5-7-9-10-8-6-4-2/h3-10H2,1-2H3, purity 99%
Compound 5: dodecane, C12H26, InChI=1S/C12H26/c1-3-5-7-9-11-12-10-8-6-4-2/h3-12H2,1-2H3, purity 98%
Compound 6: tetradecane, C14H30, InChI=1S/C14H30/c1-3-5-7-9-11-13-14-12-10-8-6-4-2/h3-14H2,1-2H3, purity 99%
Compound 7: hexadecane, C16H34, InChI=1S/C16H34/c1-3-5-7-9-11-13-15-16-14-12-10-8-6-4-2/h3-16H2,1-2H3, purity 99%
Compound 8: 2,2,4-trimethylpentane, C8H18, InChI=1S/C8H18/c1-7(2)6-8(3,4)5/h7H,6H2,1-5H3, purity 99.5%

System: 1-phenyl-2-propanone; phases: Liquid
Property: Mass density, kg/m3 (Liquid); method: Vibrating tube method
Temperature, K	Pressure, kPa	Mass density, kg/m3	uncertainty
298.15	101.325	999.024	0.838

System: 4-phenyl-2-butanone; phases: Liquid
Property: Mass density, kg/m3 (Liquid); method: Vibrating tube method
Temperature, K	Pressure, kPa	Mass density, kg/m3	uncertainty
298.15	101.325	984.742	0.821

System: benzyl ethanoate; phases: Liquid
Property: Mass density, kg/m3 (Liquid); method: Vibrating tube method
Temperature, K	Pressure, kPa	Mass density, kg/m3	uncertainty
298.15	101.325	1051.1	0.27

System: decane; phases: Liquid
Property: Mass density, kg/m3 (Liquid); method: Vibrating tube method
Temperature, K	Pressure, kPa	Mass density, kg/m3	uncertainty
298.15	101.325	726.347	0.247

System: dodecane; phases: Liquid
Property: Mass density, kg/m3 (Liquid); method: Vibrating tube method
Temperature, K	Pressure, kPa	Mass density, kg/m3	uncertainty
298.15	101.325	745.523	0.582

System: tetradecane; phases: Liquid
Property: Mass density, kg/m3 (Liquid); method: Vibrating tube method
Temperature, K	Pressure, kPa	Mass density, kg/m3	uncertainty
298.15	101.325	759.275	0.244

System: hexadecane; phases: Liquid
Property: Mass density, kg/m3 (Liquid); method: Vibrating tube method
Temperature, K	Pressure, kPa	Mass density, kg/m3	uncertainty
298.15	101.325	770.221	0.243

System: 2,2,4-trimethylpentane; phases: Liquid
Property: Mass density, kg/m3 (Liquid); method: Vibrating tube method
Temperature, K	Pressure, kPa	Mass density, kg/m3	uncertainty
298.15	101.325	687.32	0.182

System: 1-phenyl-2-propanone + decane; phases: Liquid mixture 1, Liquid mixture 2
Fixed: Pressure, kPa = 100
Property: Liquid-liquid equilibrium temperature, K (Liquid mixture 1); method: VISOBS
Mole fraction of 1-phenyl-2-propanone	Liquid-liquid equilibrium temperature, K	uncertainty
0.2231	291.78	0.29
0.2617	295.41	0.28
0.289	297.09	0.26
0.3091	297.84	0.25
0.3284	298.83	0.26
0.3519	299.78	0.25
0.3771	300.48	0.25
0.4024	300.8	0.25
0.4522	301.47	0.25
0.4642	301.58	0.25
0.5136	301.73	0.25
0.5354	301.71	0.25
0.5697	301.8	0.25
0.592	301.75	0.25
0.6166	301.67	0.25
0.6316	301.52	0.25
0.6648	301.03	0.25
0.6847	300.69	0.25
0.7084	300.2	0.25
0.7412	298.99	0.25
0.7661	297.75	0.27
0.799	295.19	0.29
0.816	292.97	0.32
0.8307	291	0.33

System: 1-phenyl-2-propanone + dodecane; phases: Liquid mixture 1, Liquid mixture 2
Fixed: Pressure, kPa = 100
Property: Liquid-liquid equilibrium temperature, K (Liquid mixture 1); method: VISOBS
Mole fraction of 1-phenyl-2-propanone	Liquid-liquid equilibrium temperature, K	uncertainty
0.3025	302.58	0.27
0.3287	304.25	0.27
0.3419	305.15	0.26
0.355	305.77	0.25
0.3769	306.65	0.25
0.4098	307.86	0.25
0.4258	308.35	0.25
0.4622	309.21	0.25
0.4796	309.46	0.25
0.4903	309.74	0.25
0.5291	309.98	0.25
0.5333	310.07	0.25
0.5587	310.15	0.25
0.5697	310.19	0.25
0.597	310.21	0.25
0.6242	310.25	0.25
0.6456	310.2	0.25
0.6931	309.92	0.25
0.7195	309.45	0.25
0.7425	309.1	0.25
0.7437	309.19	0.25
0.7709	307.92	0.26
0.7915	306.56	0.26
0.8205	305.17	0.27
0.8406	303.09	0.29
0.847	302.59	0.28

System: 1-phenyl-2-propanone + tetradecane; phases: Liquid mixture 1, Liquid mixture 2
Fixed: Pressure, kPa = 100
Property: Liquid-liquid equilibrium temperature, K (Liquid mixture 1); method: VISOBS
Mole fraction of 1-phenyl-2-propanone	Liquid-liquid equilibrium temperature, K	uncertainty
0.3014	305.71	0.29
0.3366	309.07	0.28
0.3598	310.49	0.26
0.3761	311.37	0.26
0.3909	312.27	0.26
0.3995	312.57	0.26
0.4317	314.16	0.26
0.4478	314.71	0.25
0.4857	315.76	0.25
0.5147	316.13	0.25
0.5338	316.3	0.25
0.549	316.53	0.25
0.6121	316.94	0.25
0.6121	316.94	0.25
0.6208	316.94	0.25
0.6544	316.96	0.25
0.6762	316.93	0.25
0.7025	316.87	0.25
0.7143	316.8	0.25
0.7498	316.65	0.25
0.7701	316.11	0.25
0.7916	315.67	0.25
0.8175	314.65	0.26
0.8417	312.95	0.28
0.8659	310.55	0.29

System: 1-phenyl-2-propanone + hexadecane; phases: Liquid mixture 1, Liquid mixture 2
Fixed: Pressure, kPa = 100
Property: Liquid-liquid equilibrium temperature, K (Liquid mixture 1); method: VISOBS
Mole fraction of 1-phenyl-2-propanone	Liquid-liquid equilibrium temperature, K	uncertainty
0.403	315.72	0.27
0.4358	317.97	0.27
0.4528	319.27	0.25
0.492	320.42	0.25
0.5039	321	0.25
0.5318	321.81	0.25
0.5635	322.64	0.25
0.5738	322.87	0.25
0.6028	323.32	0.25
0.6082	323.42	0.25
0.6336	323.54	0.25
0.6547	323.63	0.25
0.6775	323.65	0.25
0.6982	323.71	0.25
0.7269	323.69	0.25
0.75	323.65	0.25
0.7733	323.45	0.25
0.7935	323.18	0.25
0.8149	322.56	0.25
0.8484	321.03	0.26
0.8662	319.44	0.31
0.8953	315.59	0.35
0.9114	312.1	0.42

System: 1-phenyl-2-propanone + 2,2,4-trimethylpentane; phases: Liquid mixture 1, Liquid mixture 2
Fixed: Pressure, kPa = 100
Property: Liquid-liquid equilibrium temperature, K (Liquid mixture 1); method: VISOBS
Mole fraction of 1-phenyl-2-propanone	Liquid-liquid equilibrium temperature, K	uncertainty
0.1786	288.96	0.31
0.2032	291.93	0.3
0.2068	292.33	0.3
0.2234	293.46	0.27
0.2541	295.37	0.26
0.2735	296.15	0.25
0.2987	297.1	0.25
0.3292	297.88	0.25
0.3506	298.3	0.25
0.3822	298.46	0.25
0.4014	298.6	0.25
0.4176	298.6	0.25
0.4486	298.6	0.25
0.4795	298.59	0.25
0.5081	298.33	0.25
0.5233	298.3	0.25
0.548	298.17	0.25
0.5686	298.03	0.25
0.5917	297.8	0.25
0.6157	297.41	0.25
0.6393	296.91	0.25
0.6644	296.1	0.25
0.695	294.66	0.26
0.7143	293.56	0.28
0.7476	290.59	0.28
0.7637	289.49	0.27

System: decane + 4-phenyl-2-butanone; phases: Liquid mixture 1, Liquid mixture 2
Fixed: Pressure, kPa = 100
Property: Liquid-liquid equilibrium temperature, K (Liquid mixture 1); method: VISOBS
Mole fraction of 4-phenyl-2-butanone	Liquid-liquid equilibrium temperature, K	uncertainty
0.2055	275.75	0.28
0.2331	278.1	0.28
0.254	279.62	0.27
0.2709	280.56	0.26
0.2936	281.66	0.26
0.3005	281.83	0.25
0.3134	282.48	0.25
0.3495	283.48	0.25
0.3509	283.56	0.25
0.3639	283.81	0.25
0.3971	284.34	0.25
0.4294	284.54	0.25
0.4428	284.5	0.25
0.4695	284.49	0.25
0.4952	284.54	0.25
0.5145	284.49	0.25
0.5413	284.44	0.25
0.5681	284.35	0.25
0.5966	284.2	0.25
0.6195	284.02	0.25
0.6357	283.87	0.25
0.6652	283.26	0.25
0.686	282.69	0.25
0.7026	282.11	0.26
0.7407	280.28	0.26
0.7773	277.57	0.28
0.795	275.91	0.29

System: dodecane + benzyl ethanoate; phases: Liquid mixture 1, Liquid mixture 2
Fixed: Pressure, kPa = 100
Property: Liquid-liquid equilibrium temperature, K (Liquid mixture 1); method: VISOBS
Mole fraction of benzyl ethanoate	Liquid-liquid equilibrium temperature, K	uncertainty
0.343	275.61	0.26
0.362	276.7	0.26
0.3792	277.46	0.25
0.4232	278.97	0.25
0.4506	279.65	0.25
0.4755	280.1	0.25
0.5014	280.44	0.25
0.5268	280.58	0.25
0.5636	280.77	0.25
0.5761	280.8	0.25
0.5997	280.75	0.25
0.6251	280.77	0.25
0.6543	280.72	0.25
0.6822	280.61	0.25
0.7023	280.42	0.25
0.7167	280.27	0.25
0.7467	279.97	0.25
0.7656	279.27	0.25
0.7994	277.76	0.26
0.8201	276.5	0.28
0.85	273.6	0.29
