Measured thermophysical data. Properties of fluoride in wet phosphoric acid processes: Fluorosilicic acid in an aqueous solution of H2SiF6-H20 at temperatures ranging from 298.15 K to 353.15 K
Source: Fluid Phase Equilib., 2015, 10.1016/j.fluid.2015.03.014
Compound 1: hexafluorosilic acid, F6H2Si, InChI=1S/F6Si/c1-7(2,3,4,5)6/q-2/p+2, purity 99.98%
Compound 2: water, H2O, InChI=1S/H2O/h1H2, purity 99.8%

System: water + hexafluorosilic acid; phases: Liquid
Fixed: Pressure, kPa = 101
Property: (Relative) activity of water (Liquid); method: Hygrometric method
Temperature, K	Molality, mol/kg of hexafluorosilic acid	(Relative) activity of water	uncertainty
298.15	0.1	0.9947	0.0387
298.15	0.2	0.9888	0.0388
298.15	0.5	0.9688	0.0388
298.15	0.8	0.9453	0.0388
298.15	1	0.9275	0.0388
298.15	1.2	0.9072	0.0388
298.15	1.5	0.875	0.0388
298.15	1.8	0.8385	0.0388
298.15	2	0.8122	0.0388
298.15	2.2	0.7861	0.0388
298.15	2.5	0.7411	0.0388
298.15	2.8	0.7018	0.0388
298.15	3	0.6644	0.0389
313.15	0.1	0.9949	0.0387
313.15	0.2	0.9894	0.0387
313.15	0.5	0.9706	0.0388
313.15	0.8	0.9481	0.0388
313.15	1	0.9307	0.0388
313.15	1.2	0.9119	0.0388
313.15	1.5	0.8798	0.0388
313.15	1.8	0.843	0.0388
313.15	2	0.8169	0.0388
313.15	2.2	0.7893	0.0388
313.15	2.5	0.7449	0.0388
313.15	2.8	0.6983	0.0389
313.15	3	0.6668	0.0389
333.15	0.1	0.9956	0.0387
333.15	0.2	0.991	0.0387
333.15	0.5	0.9744	0.0388
333.15	0.8	0.9527	0.0388
333.15	1	0.9354	0.0388
333.15	1.2	0.9166	0.0388
333.15	1.5	0.8829	0.0388
333.15	1.8	0.8449	0.0388
333.15	2	0.8189	0.0388
333.15	2.2	0.7908	0.0388
333.15	2.5	0.7464	0.0388
333.15	2.8	0.7	0.0389
333.15	3	0.6683	0.0389
353.15	0.1	0.9964	0.0387
353.15	0.2	0.9945	0.0387
353.15	0.5	0.9806	0.0387
353.15	0.8	0.9588	0.0388
353.15	1	0.9413	0.0388
353.15	1.2	0.9229	0.0388
353.15	1.5	0.8897	0.0388
353.15	1.8	0.8535	0.0388
353.15	2	0.8256	0.0388
353.15	2.2	0.7971	0.0388
353.15	2.5	0.7501	0.0389
353.15	2.8	0.7028	0.0389
353.15	3	0.6717	0.0389

System: water + hexafluorosilic acid; phases: Liquid
Fixed: Pressure, kPa = 101
Property: Activity coefficient of hexafluorosilic acid (Liquid); method: Hygrometric method
Temperature, K	Molality, mol/kg of hexafluorosilic acid	Activity coefficient of hexafluorosilic acid	uncertainty
298.15	0.1	0.714	0.051
298.15	0.2	0.766	0.052
298.15	0.5	0.959	0.052
298.15	0.8	1.213	0.074
298.15	1	1.434	0.097
298.15	1.2	1.698	0.125
298.15	1.5	2.266	0.236
298.15	1.8	3.046	0.319
298.15	2	3.738	0.394
298.15	2.2	4.591	0.489
298.15	2.5	6.36	0.682
298.15	2.8	8.848	0.955
298.15	3	11.067	1.199
313.15	0.1	0.518	0.05
313.15	0.2	0.584	0.052
313.15	0.5	0.785	0.051
313.15	0.8	0.927	0.051
313.15	1	1.074	0.063
313.15	1.2	1.415	0.097
313.15	1.5	1.867	0.143
313.15	1.8	2.7	0.283
313.15	2	3.35	0.352
313.15	2.2	4.025	0.425
313.15	2.5	5.233	0.554
313.15	2.8	6.766	0.719
313.15	3	7.833	0.839
333.15	0.1	0.472	0.05
333.15	0.2	0.425	0.05
333.15	0.5	0.433	0.05
333.15	0.8	0.517	0.051
333.15	1	0.603	0.051
333.15	1.2	0.723	0.052
333.15	1.5	0.949	0.054
333.15	1.8	1.282	0.083
333.15	2	1.579	0.114
333.15	2.2	1.949	0.152
333.15	2.5	2.711	0.286
333.15	2.8	3.791	0.401
333.15	3	4.756	0.503
353.15	0.1	0.25	0.052
353.15	0.2	0.175	0.05
353.15	0.5	0.132	0.05
353.15	0.8	0.143	0.05
353.15	1	0.163	0.05
353.15	1.2	0.188	0.05
353.15	1.5	0.252	0.051
353.15	1.8	0.34	0.051
353.15	2	0.42	0.052
353.15	2.2	0.519	0.053
353.15	2.5	0.729	0.056
353.15	2.8	1.025	0.063
353.15	3	1.291	0.09

System: water + hexafluorosilic acid; phases: Liquid
Fixed: Pressure, kPa = 101
Property: Osmotic coefficient (Liquid); method: Hygrometric method
Temperature, K	Molality, mol/kg of hexafluorosilic acid	Osmotic coefficient	uncertainty
298.15	0.1	0.983	0.015
298.15	0.2	1.042	0.014
298.15	0.5	1.173	0.015
298.15	0.8	1.301	0.017
298.15	1	1.393	0.02
298.15	1.2	1.502	0.023
298.15	1.5	1.647	0.027
298.15	1.8	1.811	0.033
298.15	2	1.924	0.037
298.15	2.2	2.024	0.041
298.15	2.5	2.218	0.048
298.15	2.8	2.34	0.053
298.15	3	2.522	0.062
313.15	0.1	0.946	0.016
313.15	0.2	0.986	0.013
313.15	0.5	1.104	0.014
313.15	0.8	1.233	0.016
313.15	1	1.329	0.018
313.15	1.2	1.422	0.021
313.15	1.5	1.58	0.025
313.15	1.8	1.756	0.032
313.15	2	1.871	0.036
313.15	2.2	1.99	0.04
313.15	2.5	2.18	0.047
313.15	2.8	2.373	0.055
313.15	3	2.5	0.06
333.15	0.1	0.816	0.013
333.15	0.2	0.836	0.015
333.15	0.5	0.96	0.014
333.15	0.8	1.121	0.015
333.15	1	1.236	0.017
333.15	1.2	1.343	0.02
333.15	1.5	1.536	0.025
333.15	1.8	1.733	0.031
333.15	2	1.848	0.035
333.15	2.2	1.974	0.04
333.15	2.5	2.165	0.047
333.15	2.8	2.357	0.054
333.15	3	2.486	0.059
353.15	0.1	0.667	0.035
353.15	0.2	0.51	0.021
353.15	0.5	0.725	0.021
353.15	0.8	0.972	0.019
353.15	1	1.118	0.017
353.15	1.2	1.237	0.018
353.15	1.5	1.442	0.023
353.15	1.8	1.628	0.028
353.15	2	1.773	0.033
353.15	2.2	1.907	0.038
353.15	2.5	2.128	0.046
353.15	2.8	2.331	0.053
353.15	3	2.454	0.058
