Measured thermophysical data. Density, viscosity, refractive index and conductivity of switchable hydrophilicity solvent systems: N,N-Dimethylbenzylamine, water and carbon dioxide
Source: Fluid Phase Equilib., 2018, 10.1016/j.fluid.2017.12.005
Compound 1: N,N-dimethylbenzylamine, C9H13N, InChI=1S/C9H13N/c1-10(2)8-9-6-4-3-5-7-9/h3-7H,8H2,1-2H3, purity 99%
Compound 2: carbon dioxide, CO2, InChI=1S/CO2/c2-1-3, purity 99.9%
Compound 3: water, H2O, InChI=1S/H2O/h1H2, purity 99.8%

System: N,N-dimethylbenzylamine + carbon dioxide + water; phases: Liquid
Fixed: Pressure, kPa = 101
Property: Mass density, kg/m3 (Liquid); method: Vibrating tube method
Temperature, K	Mass fraction of N,N-dimethylbenzylamine	Mass fraction of carbon dioxide	Mass density, kg/m3	uncertainty
283.15	0.438	0.0922	1086.3	0.2
288.15	0.438	0.0922	1081.3	0.2
293.15	0.438	0.0922	1076.1	0.2
298.15	0.438	0.0922	1070.6	0.2
303.15	0.438	0.0922	1064.9	0.2
308.15	0.438	0.0922	1059.1	0.2
283.15	0.4867	0.1023	1092.3	0.3
288.15	0.4867	0.1023	1087.4	0.4
293.15	0.4867	0.1023	1082.2	0.5
298.15	0.4867	0.1023	1076.7	0.5
303.15	0.4867	0.1023	1071.3	0.3
308.15	0.4867	0.1023	1065.4	0.6
283.15	0.5356	0.1123	1098.4	0.5
288.15	0.5356	0.1123	1093.5	0.3
293.15	0.5356	0.1123	1088.4	0.3
298.15	0.5356	0.1123	1083.2	0.3
303.15	0.5356	0.1123	1077.5	0.5
308.15	0.5356	0.1123	1072.1	1.3
283.15	0.5845	0.1224	1104.3	0.6
288.15	0.5845	0.1224	1099.5	0.3
293.15	0.5845	0.1224	1094.6	0.4
298.15	0.5845	0.1224	1089.4	0.5
303.15	0.5845	0.1224	1083.7	0.8
308.15	0.5845	0.1224	1078.2	1.4
283.15	0.6335	0.1324	1110.5	0.3
288.15	0.6335	0.1324	1105.5	0.3
293.15	0.6335	0.1324	1100.8	0.3
298.15	0.6335	0.1324	1095.5	0.3
303.15	0.6335	0.1324	1090.5	0.3
308.15	0.6335	0.1324	1085.1	0.3
283.15	0.683	0.1425	1116.6	0.3
288.15	0.683	0.1425	1112.1	0.3
293.15	0.683	0.1425	1107.2	0.3
298.15	0.683	0.1425	1102.2	0.3
303.15	0.683	0.1425	1096.8	0.3
308.15	0.683	0.1425	1091.4	0.3

System: N,N-dimethylbenzylamine + carbon dioxide + water; phases: Liquid
Fixed: Pressure, kPa = 101
Property: Viscosity, Pa*s (Liquid); method: Capillary tube (Ostwald; Ubbelohde) method
Temperature, K	Mass fraction of N,N-dimethylbenzylamine	Mass fraction of carbon dioxide	Viscosity, Pa*s	uncertainty
283.15	0.438	0.0922	0.009541	0.00013
288.15	0.438	0.0922	0.007331	0.000102
293.15	0.438	0.0922	0.00566	8e-05
298.15	0.438	0.0922	0.004389	6.1e-05
303.15	0.438	0.0922	0.003419	4.8e-05
308.15	0.438	0.0922	0.002675	3.8e-05
283.15	0.4867	0.1023	0.013462	0.002316
288.15	0.4867	0.1023	0.010313	0.000999
293.15	0.4867	0.1023	0.007938	0.000764
298.15	0.4867	0.1023	0.006138	0.000587
303.15	0.4867	0.1023	0.004767	0.000453
308.15	0.4867	0.1023	0.003719	0.000585
283.15	0.5356	0.1123	0.018996	0.004643
288.15	0.5356	0.1123	0.014507	0.001971
293.15	0.5356	0.1123	0.011132	0.001508
298.15	0.5356	0.1123	0.008582	0.001157
303.15	0.5356	0.1123	0.006646	0.00089
308.15	0.5356	0.1123	0.00517	0.00116
283.15	0.5845	0.1224	0.026803	0.005425
288.15	0.5845	0.1224	0.020406	0.002254
293.15	0.5845	0.1224	0.015612	0.001717
298.15	0.5845	0.1224	0.012	0.001314
303.15	0.5845	0.1224	0.009266	0.00101
308.15	0.5845	0.1224	0.007187	0.001332
283.15	0.6335	0.1324	0.03782	0.000515
288.15	0.6335	0.1324	0.028705	0.000399
293.15	0.6335	0.1324	0.021894	0.000304
298.15	0.6335	0.1324	0.016779	0.000233
303.15	0.6335	0.1324	0.012919	0.000179
308.15	0.6335	0.1324	0.009992	0.000141
283.15	0.683	0.1425	0.053366	0.000704
288.15	0.683	0.1425	0.040379	0.000564
293.15	0.683	0.1425	0.030705	0.000428
298.15	0.683	0.1425	0.023461	0.000326
303.15	0.683	0.1425	0.018011	0.00025
308.15	0.683	0.1425	0.01389	0.000197

System: N,N-dimethylbenzylamine + carbon dioxide + water; phases: Liquid
Fixed: Pressure, kPa = 101
Property: Refractive index (Na D-line) (Liquid); method: Standard Abbe refractometry
Temperature, K	Mass fraction of N,N-dimethylbenzylamine	Mass fraction of carbon dioxide	Refractive index (Na D-line)	uncertainty
283.15	0.438	0.0922	1.4139	0.0004
288.15	0.438	0.0922	1.4128	0.0004
293.15	0.438	0.0922	1.4116	0.0004
298.15	0.438	0.0922	1.4105	0.0004
303.15	0.438	0.0922	1.4094	0.0004
308.15	0.438	0.0922	1.4083	0.0004
283.15	0.4867	0.1023	1.4223	0.0016
288.15	0.4867	0.1023	1.4212	0.0017
293.15	0.4867	0.1023	1.4203	0.0013
298.15	0.4867	0.1023	1.4191	0.0013
303.15	0.4867	0.1023	1.4178	0.0015
308.15	0.4867	0.1023	1.4167	0.0012
283.15	0.5356	0.1123	1.4318	0.0031
288.15	0.5356	0.1123	1.4309	0.0025
293.15	0.5356	0.1123	1.4297	0.0025
298.15	0.5356	0.1123	1.4285	0.0027
303.15	0.5356	0.1123	1.4274	0.0012
308.15	0.5356	0.1123	1.4259	0.0035
283.15	0.5845	0.1224	1.4428	0.0024
288.15	0.5845	0.1224	1.4416	0.0033
293.15	0.5845	0.1224	1.4403	0.0034
298.15	0.5845	0.1224	1.4393	0.004
303.15	0.5845	0.1224	1.4373	0.0037
308.15	0.5845	0.1224	1.4368	0.0029
283.15	0.6335	0.1324	1.4552	0.0004
288.15	0.6335	0.1324	1.4542	0.0004
293.15	0.6335	0.1324	1.4531	0.0004
298.15	0.6335	0.1324	1.4518	0.0004
303.15	0.6335	0.1324	1.4504	0.0004
308.15	0.6335	0.1324	1.4494	0.0004
283.15	0.683	0.1425	1.4693	0.0004
288.15	0.683	0.1425	1.468	0.0004
293.15	0.683	0.1425	1.4669	0.0004
298.15	0.683	0.1425	1.4656	0.0004
303.15	0.683	0.1425	1.4644	0.0004
308.15	0.683	0.1425	1.463	0.0004

System: N,N-dimethylbenzylamine + carbon dioxide + water; phases: Liquid
Fixed: Pressure, kPa = 101
Property: Electrical conductivity, S/m (Liquid); method: Direct current cell with electrodes
Temperature, K	Mass fraction of N,N-dimethylbenzylamine	Mass fraction of carbon dioxide	Electrical conductivity, S/m	uncertainty
283.15	0.438	0.0922	2.31	0.13
288.15	0.438	0.0922	2.42	0.13
293.15	0.438	0.0922	2.53	0.14
298.15	0.438	0.0922	2.64	0.15
303.15	0.438	0.0922	2.75	0.15
308.15	0.438	0.0922	2.86	0.16
283.15	0.4867	0.1023	2.03	0.11
288.15	0.4867	0.1023	2.14	0.12
293.15	0.4867	0.1023	2.25	0.12
298.15	0.4867	0.1023	2.36	0.13
303.15	0.4867	0.1023	2.46	0.14
308.15	0.4867	0.1023	2.57	0.14
283.15	0.5356	0.1123	1.74	0.1
288.15	0.5356	0.1123	1.85	0.1
293.15	0.5356	0.1123	1.96	0.11
298.15	0.5356	0.1123	2.07	0.11
303.15	0.5356	0.1123	2.18	0.12
308.15	0.5356	0.1123	2.28	0.13
283.15	0.5845	0.1224	1.45	0.08
288.15	0.5845	0.1224	1.56	0.09
293.15	0.5845	0.1224	1.67	0.09
298.15	0.5845	0.1224	1.78	0.1
303.15	0.5845	0.1224	1.88	0.1
308.15	0.5845	0.1224	1.99	0.11
283.15	0.6335	0.1324	1.15	0.06
288.15	0.6335	0.1324	1.26	0.07
293.15	0.6335	0.1324	1.37	0.08
298.15	0.6335	0.1324	1.48	0.08
303.15	0.6335	0.1324	1.59	0.09
308.15	0.6335	0.1324	1.7	0.09
283.15	0.683	0.1425	0.85	0.05
288.15	0.683	0.1425	0.96	0.05
293.15	0.683	0.1425	1.07	0.06
298.15	0.683	0.1425	1.18	0.07
303.15	0.683	0.1425	1.29	0.07
308.15	0.683	0.1425	1.4	0.08
