Measured thermophysical data. Phase equilibrium for the binary mixture of  {1,1-difluoroethane  (R152a) + trans-1,3,3,3-tetrafluoropropene (R1234ze (E))}  at various temperatures from 258.150 to 288.150 K
Source: Fluid Phase Equilib., 2013, 10.1016/j.fluid.2013.06.017
Compound 1: 1,1-difluoroethane, C2H4F2, InChI=1S/C2H4F2/c1-2(3)4/h2H,1H3, purity 99.9%
Compound 2: trans-1,3,3,3-tetrafluoropropene, C3H2F4, InChI=1S/C3H2F4/c4-2-1-3(5,6)7/h1-2H/b2-1+, purity 99.5%

System: 1,1-difluoroethane; phases: Liquid, Gas
Property: Vapor or sublimation pressure, kPa (Liquid); method: Closed cell (Static) method
Temperature, K	Vapor or sublimation pressure, kPa	uncertainty
258.15	148.6	1
268.15	219.4	1.1
278.15	314.1	1.1
288.15	437.8	1.2

System: trans-1,3,3,3-tetrafluoropropene; phases: Liquid, Gas
Property: Vapor or sublimation pressure, kPa (Liquid); method: Closed cell (Static) method
Temperature, K	Vapor or sublimation pressure, kPa	uncertainty
258.15	120.2	1
268.15	179.3	1
278.15	259.2	1.1
288.15	364.2	1.1

System: 1,1-difluoroethane + trans-1,3,3,3-tetrafluoropropene; phases: Liquid, Gas
Property: Vapor or sublimation pressure, kPa (Liquid); method: Closed cell (Static) method
Mole fraction of 1,1-difluoroethane	Temperature, K	Vapor or sublimation pressure, kPa	uncertainty
0.102	258.15	123	1.1
0.171	258.15	125.5	1.1
0.262	258.15	128.5	1.1
0.371	258.15	132.3	1.1
0.425	258.15	134.2	1.1
0.524	258.15	137.2	1.1
0.65	258.15	140.2	1.1
0.75	258.15	142.8	1.1
0.854	258.15	145.2	1.1
0.102	268.15	183.6	1.3
0.171	268.15	187.2	1.2
0.264	268.15	191.6	1.2
0.371	268.15	196.8	1.3
0.428	268.15	199.4	1.2
0.528	268.15	203.6	1.2
0.652	268.15	208	1.2
0.751	268.15	211.7	1.2
0.856	268.15	214.9	1.6
0.102	278.15	265.2	1.4
0.169	278.15	270.3	1.4
0.264	278.15	276.5	1.4
0.366	278.15	283.2	1.6
0.428	278.15	287.2	1.4
0.527	278.15	292.8	1.4
0.65	278.15	299	1.4
0.751	278.15	303.4	1.4
0.856	278.15	308.4	1.9
0.101	288.15	372.1	1.8
0.168	288.15	379.2	1.8
0.262	288.15	387.5	1.8
0.365	288.15	396.7	1.8
0.426	288.15	402	1.7
0.526	288.15	409.6	1.7
0.649	288.15	417.9	1.7
0.75	288.15	424.7	1.7
0.856	288.15	430.4	1.7

System: 1,1-difluoroethane + trans-1,3,3,3-tetrafluoropropene; phases: Gas, Liquid
Property: Mole fraction of 1,1-difluoroethane (Gas); method: Chromatography
Mole fraction of 1,1-difluoroethane	Temperature, K	Mole fraction of 1,1-difluoroethane	uncertainty
0.101	288.15	0.123	0.015
0.102	278.15	0.126	0.015
0.102	268.15	0.128	0.015
0.102	258.15	0.131	0.015
0.168	288.15	0.201	0.015
0.169	278.15	0.204	0.015
0.171	268.15	0.206	0.015
0.171	258.15	0.21	0.015
0.262	288.15	0.302	0.015
0.264	278.15	0.307	0.015
0.264	268.15	0.31	0.015
0.262	258.15	0.313	0.015
0.365	288.15	0.407	0.015
0.366	278.15	0.412	0.015
0.371	268.15	0.42	0.015
0.371	258.15	0.425	0.015
0.426	288.15	0.468	0.015
0.428	278.15	0.473	0.015
0.428	268.15	0.476	0.015
0.425	258.15	0.48	0.015
0.526	288.15	0.565	0.014
0.527	278.15	0.569	0.014
0.528	268.15	0.573	0.014
0.524	258.15	0.576	0.014
0.649	288.15	0.681	0.014
0.65	278.15	0.685	0.014
0.652	268.15	0.688	0.014
0.65	258.15	0.692	0.014
0.75	288.15	0.773	0.014
0.751	278.15	0.776	0.014
0.751	268.15	0.778	0.014
0.75	258.15	0.781	0.014
0.856	288.15	0.869	0.014
0.856	278.15	0.871	0.014
0.856	268.15	0.873	0.014
0.854	258.15	0.875	0.014
