Measured thermophysical data. Solid-liquid equilibria for selected binary systems containing diphenyl carbonate
Source: Fluid Phase Equilib., 2019, 10.1016/j.fluid.2018.09.023
Compound 1: ethanol, C2H6O, InChI=1S/C2H6O/c1-2-3/h3H,2H2,1H3
Compound 2: propan-1-ol, C3H8O, InChI=1S/C3H8O/c1-2-3-4/h4H,2-3H2,1H3
Compound 3: propan-2-ol, C3H8O, InChI=1S/C3H8O/c1-3(2)4/h3-4H,1-2H3
Compound 4: dimethyl carbonate, C3H6O3, InChI=1S/C3H6O3/c1-5-3(4)6-2/h1-2H3
Compound 5: diethyl carbonate, C5H10O3, InChI=1S/C5H10O3/c1-3-7-5(6)8-4-2/h3-4H2,1-2H3
Compound 6: dipropyl carbonate, C7H14O3, InChI=1S/C7H14O3/c1-3-5-9-7(8)10-6-4-2/h3-6H2,1-2H3
Compound 7: diphenyl carbonate, C13H10O3, InChI=1S/C13H10O3/c14-13(15-11-7-3-1-4-8-11)16-12-9-5-2-6-10-12/h1-10H, purity 99%

System: ethanol; phases: Liquid
Property: Mass density, kg/m3 (Liquid); method: Vibrating tube method
Temperature, K	Pressure, kPa	Mass density, kg/m3	uncertainty
298.15	101.325	785.02	0.13

System: propan-1-ol; phases: Liquid
Property: Mass density, kg/m3 (Liquid); method: Vibrating tube method
Temperature, K	Pressure, kPa	Mass density, kg/m3	uncertainty
298.15	101.325	800.06	0.12

System: propan-2-ol; phases: Liquid
Property: Mass density, kg/m3 (Liquid); method: Vibrating tube method
Temperature, K	Pressure, kPa	Mass density, kg/m3	uncertainty
298.15	101.325	780.79	0.13

System: dimethyl carbonate; phases: Liquid
Property: Mass density, kg/m3 (Liquid); method: Vibrating tube method
Temperature, K	Pressure, kPa	Mass density, kg/m3	uncertainty
298.15	101.325	1063.26	0.08

System: dimethyl carbonate; phases: Liquid, Crystal
Property: Solid-liquid equilibrium temperature, K (Liquid); method: VISOBS
Pressure, kPa	Solid-liquid equilibrium temperature, K	uncertainty
101	278.11	4

System: diethyl carbonate; phases: Liquid
Property: Mass density, kg/m3 (Liquid); method: Vibrating tube method
Temperature, K	Pressure, kPa	Mass density, kg/m3	uncertainty
298.15	101.325	969.18	0.07

System: dipropyl carbonate; phases: Liquid
Property: Mass density, kg/m3 (Liquid); method: Vibrating tube method
Temperature, K	Pressure, kPa	Mass density, kg/m3	uncertainty
298.15	101.325	938.35	0.13

System: diphenyl carbonate; phases: Liquid, Crystal
Property: Solid-liquid equilibrium temperature, K (Liquid); method: VISOBS
Pressure, kPa	Solid-liquid equilibrium temperature, K	uncertainty
101	352.7	4

System: dimethyl carbonate + diphenyl carbonate; phases: Liquid, Crystal
Fixed: Pressure, kPa = 101
Property: Solid-liquid equilibrium temperature, K (Liquid); method: VISOBS
Mole fraction of dimethyl carbonate	Solid-liquid equilibrium temperature, K	uncertainty
0	352.7	4
0.108	347.89	4
0.2083	342.38	4
0.2981	338.05	4
0.4066	331.51	4
0.5056	324.42	4
0.6082	315.64	4
0.7017	306.82	4
0.7995	293.62	4
0.8996	272.28	4
0.9006	272.26	4

System: dimethyl carbonate + diphenyl carbonate; phases: Liquid, Crystal
Fixed: Pressure, kPa = 101
Property: Solid-liquid equilibrium temperature, K (Liquid); method: VISOBS
Mole fraction of dimethyl carbonate	Solid-liquid equilibrium temperature, K	uncertainty
0.9125	272.52	4
0.9507	274.89	4
1	278.11	4

System: ethanol + diphenyl carbonate; phases: Liquid, Crystal
Fixed: Pressure, kPa = 101
Property: Solid-liquid equilibrium temperature, K (Liquid); method: VISOBS
Mole fraction of ethanol	Solid-liquid equilibrium temperature, K	uncertainty
0	352.7	4
0.102	348.06	4
0.2084	344.64	4
0.3002	341.27	4
0.4054	337.44	4
0.5012	335.8	4
0.5988	333.97	4
0.6998	331.57	4
0.8006	329.76	4
0.8498	328.12	4
0.8746	326.5	4
0.9005	324.47	4
0.9096	323.72	4
0.9205	322.22	4
0.9299	320.56	4
0.9399	319.11	4
0.9499	316.13	4
0.9603	312.43	4
0.9702	307.25	4
0.9802	300.31	4.01
0.9901	286.5	4.01

System: propan-1-ol + diphenyl carbonate; phases: Liquid, Crystal
Fixed: Pressure, kPa = 101
Property: Solid-liquid equilibrium temperature, K (Liquid); method: VISOBS
Mole fraction of propan-1-ol	Solid-liquid equilibrium temperature, K	uncertainty
0	352.7	4
0.1098	347.73	4
0.1965	344.38	4
0.3028	341.66	4
0.4093	338.62	4
0.5084	336.56	4
0.6036	334.02	4
0.708	330.67	4
0.8017	329.71	4
0.9032	323.13	4
0.909	322.65	4
0.9201	320.61	4
0.9303	319.31	4
0.9388	317.19	4
0.9497	315.51	4
0.9606	311.48	4
0.9704	306.8	4
0.9803	299.77	4.01

System: propan-2-ol + diphenyl carbonate; phases: Liquid, Crystal
Fixed: Pressure, kPa = 101
Property: Solid-liquid equilibrium temperature, K (Liquid); method: VISOBS
Mole fraction of propan-2-ol	Solid-liquid equilibrium temperature, K	uncertainty
0	352.7	4
0.1005	349.23	4
0.1991	346.1	4
0.3149	342.27	4
0.4001	340.32	4
0.5003	337.61	4
0.5994	335.54	4
0.7014	333.32	4
0.7997	330.98	4
0.8496	329.06	4
0.9002	326.09	4
0.9125	325.97	4
0.9202	324.32	4
0.9294	322.87	4
0.9399	321.06	4
0.9499	318.89	4
0.96	315.91	4
0.97	312.2	4
0.98	306.26	4.01
0.99	294.35	4.01

System: diethyl carbonate + diphenyl carbonate; phases: Liquid, Crystal
Fixed: Pressure, kPa = 101
Property: Solid-liquid equilibrium temperature, K (Liquid); method: VISOBS
Mole fraction of diethyl carbonate	Solid-liquid equilibrium temperature, K	uncertainty
0	352.7	4
0.1168	346.65	4
0.2008	342.9	4
0.3022	337.18	4
0.4026	331.13	4
0.5034	324.31	4
0.6045	316.3	4
0.7028	306.22	4
0.7989	292.53	4
0.8994	269.46	4
0.9507	247.28	4

System: dipropyl carbonate + diphenyl carbonate; phases: Liquid, Crystal
Fixed: Pressure, kPa = 101
Property: Solid-liquid equilibrium temperature, K (Liquid); method: VISOBS
Mole fraction of dipropyl carbonate	Solid-liquid equilibrium temperature, K	uncertainty
0	352.7	4
0.0558	349.85	4
0.1299	346.54	4
0.2122	341.67	4
0.2525	339.67	4
0.301	337.82	4
0.3675	334.05	4
0.4981	326	4
0.5507	322.35	4
0.6993	309.1	4
0.8491	286.72	4
0.8993	274.02	4
