Measured thermophysical data. Extraction and consecutive purification of anthocyanins from grape pomace using ionic liquid solutions
Source: Fluid Phase Equilib., 2017, 10.1016/j.fluid.2017.08.006
Compound 1: potassium carbonate, CK2O3, InChI=1S/CH2O3.2K/c2-1(3)4;;/h(H2,2,3,4);;/q;2*+1/p-2, purity 98%
Compound 2: tripotassium phosphate, K3O4P, InChI=1S/3K.H3O4P/c;;;1-5(2,3)4/h;;;(H3,1,2,3,4)/q3*+1;/p-3, purity 99%
Compound 3: water, H2O, InChI=1S/H2O/h1H2, purity 99.8%
Compound 4: 1-ethyl-3-methylimidazolium acetate, C8H14N2O2, InChI=1S/C6H11N2.C2H4O2/c1-3-8-5-4-7(2)6-8;1-2(3)4/h4-6H,3H2,1-2H3;1H3,(H,3,4)/q+1;/p-1, purity 90%

System: 1-ethyl-3-methylimidazolium acetate + potassium carbonate + water; phases: Liquid mixture 1, Liquid mixture 2
Fixed: Pressure, kPa = 100
Fixed: Temperature, K = 298.15
Property: Mass fraction of 1-ethyl-3-methylimidazolium acetate (Liquid mixture 1); method: cloud point
Mass fraction of potassium carbonate	Mass fraction of 1-ethyl-3-methylimidazolium acetate	uncertainty
0.3433	0.0863	0.002
0.3142	0.113	0.0026
0.2886	0.1374	0.0032
0.2622	0.169	0.0039
0.2454	0.1867	0.0043
0.2292	0.2016	0.0047
0.2159	0.2155	0.005
0.2019	0.2327	0.0054
0.1918	0.2423	0.0056
0.1826	0.252	0.0059
0.1726	0.2651	0.0062
0.1619	0.2796	0.0065
0.1526	0.2922	0.0068
0.1448	0.303	0.007
0.1368	0.3147	0.0073
0.1293	0.3265	0.0076
0.1136	0.3537	0.0082
0.0859	0.4091	0.0095

System: 1-ethyl-3-methylimidazolium acetate + potassium carbonate + water; phases: Liquid mixture 1, Liquid mixture 2
Fixed: Temperature, K = 298.15
Fixed: Pressure, kPa = 100
Property: Mass fraction of potassium carbonate (Liquid mixture 1); method: Titration method
Property: Mass fraction of 1-ethyl-3-methylimidazolium acetate (Liquid mixture 2); method: Titration method
Property: Mass fraction of potassium carbonate (Liquid mixture 2); method: Titration method
Mass fraction of 1-ethyl-3-methylimidazolium acetate	Mass fraction of potassium carbonate	uncertainty	Mass fraction of 1-ethyl-3-methylimidazolium acetate	uncertainty	Mass fraction of potassium carbonate	uncertainty
0.583	0.0279	0.0009	0.1229	0.0038	0.3052	
0.6531	0.016	0.0005	0.0469	0.0015	0.4133	
0.6903	0.0114	0.0004	0.0179	0.0006	0.4908	

System: 1-ethyl-3-methylimidazolium acetate + tripotassium phosphate + water; phases: Liquid mixture 1, Liquid mixture 2
Fixed: Pressure, kPa = 100
Fixed: Temperature, K = 298.15
Property: Mass fraction of 1-ethyl-3-methylimidazolium acetate (Liquid mixture 1); method: Titration method
Mass fraction of tripotassium phosphate	Mass fraction of 1-ethyl-3-methylimidazolium acetate	uncertainty
0.0632	0.4012	0.0125
0.078	0.3466	0.0108
0.0883	0.3241	0.0101
0.0968	0.3046	0.0095
0.1066	0.2795	0.0087
0.1123	0.2622	0.0081
0.116	0.2493	0.0078
0.1323	0.2269	0.007
0.1516	0.2043	0.0063
0.1738	0.1793	0.0056
0.2119	0.1401	0.0043

System: 1-ethyl-3-methylimidazolium acetate + tripotassium phosphate + water; phases: Liquid mixture 1, Liquid mixture 2
Fixed: Temperature, K = 298.15
Fixed: Pressure, kPa = 100
Property: Mass fraction of tripotassium phosphate (Liquid mixture 1); method: Titration method
Property: Mass fraction of 1-ethyl-3-methylimidazolium acetate (Liquid mixture 2); method: Titration method
Property: Mass fraction of tripotassium phosphate (Liquid mixture 2); method: Titration method
Mass fraction of 1-ethyl-3-methylimidazolium acetate	Mass fraction of tripotassium phosphate	uncertainty	Mass fraction of 1-ethyl-3-methylimidazolium acetate	uncertainty	Mass fraction of tripotassium phosphate	uncertainty
0.2907	0.0948	0.0029	0.0878	0.0027	0.3213	
0.3129	0.091	0.0028	0.0707	0.0022	0.3587	
0.458	0.0462	0.0014	0.0601	0.0019	0.4145	
0.5851	0.0283	0.0009	0.0402	0.0012	0.5175	
