Measured thermophysical data. Solubility and tie line data for the aqueous solutions of butyric  acid with 1-octanol and 2-ethyl-1-hexanol at various temperatures
Source: Fluid Phase Equilib., 2014, 10.1016/j.fluid.2013.10.022
Compound 1: butanoic acid, C4H8O2, InChI=1S/C4H8O2/c1-2-3-4(5)6/h2-3H2,1H3,(H,5,6), purity 99%
Compound 2: octan-1-ol, C8H18O, InChI=1S/C8H18O/c1-2-3-4-5-6-7-8-9/h9H,2-8H2,1H3, purity 99%
Compound 3: 2-ethyl-1-hexanol, C8H18O, InChI=1S/C8H18O/c1-3-5-6-8(4-2)7-9/h8-9H,3-7H2,1-2H3, purity 99%
Compound 4: water, H2O, InChI=1S/H2O/h1H2

System: butanoic acid; phases: Liquid
Property: Refractive index (Na D-line) (Liquid); method: Standard Abbe refractometry
Temperature, K	Pressure, kPa	Refractive index (Na D-line)	uncertainty
298.2	101.325	1.3977	0.0008

System: butanoic acid; phases: Liquid
Property: Mass density, kg/m3 (Liquid); method: Vibrating tube method
Temperature, K	Pressure, kPa	Mass density, kg/m3	uncertainty
298.2	101.325	952.68	0.23

System: octan-1-ol; phases: Liquid
Property: Refractive index (Na D-line) (Liquid); method: Standard Abbe refractometry
Temperature, K	Pressure, kPa	Refractive index (Na D-line)	uncertainty
298.2	101.325	1.4276	0.0008

System: octan-1-ol; phases: Liquid
Property: Mass density, kg/m3 (Liquid); method: Vibrating tube method
Temperature, K	Pressure, kPa	Mass density, kg/m3	uncertainty
298.2	101.325	821.69	0.24

System: 2-ethyl-1-hexanol; phases: Liquid
Property: Refractive index (Na D-line) (Liquid); method: Standard Abbe refractometry
Temperature, K	Pressure, kPa	Refractive index (Na D-line)	uncertainty
298.2	101.325	1.4293	0.0008

System: 2-ethyl-1-hexanol; phases: Liquid
Property: Mass density, kg/m3 (Liquid); method: Vibrating tube method
Temperature, K	Pressure, kPa	Mass density, kg/m3	uncertainty
298.2	101.325	830.22	0.24

System: water; phases: Liquid
Property: Refractive index (Na D-line) (Liquid); method: Standard Abbe refractometry
Temperature, K	Pressure, kPa	Refractive index (Na D-line)	uncertainty
298.2	101.325	1.3324	0.0008

System: water; phases: Liquid
Property: Mass density, kg/m3 (Liquid); method: Vibrating tube method
Temperature, K	Pressure, kPa	Mass density, kg/m3	uncertainty
298.2	101.325	997.05	0.09

System: butanoic acid + octan-1-ol + water; phases: Liquid mixture 1, Liquid mixture 2
Fixed: Pressure, kPa = 101.3
Property: Mass fraction of butanoic acid (Liquid mixture 1); method: Titration method
Temperature, K	Mass fraction of water	Mass fraction of butanoic acid	uncertainty
298.2	0.9331	0.0663	0.0027
298.2	0.8926	0.1068	0.0036
298.2	0.8296	0.1684	0.0054
298.2	0.788	0.2091	0.0066
298.2	0.7325	0.2606	0.0082
298.2	0.6823	0.3068	0.0096
298.2	0.6412	0.3451	0.0108
298.2	0.5896	0.3937	0.0123
298.2	0.5416	0.4369	0.0136
298.2	0.4792	0.4914	0.0153
298.2	0.4357	0.5261	0.0147
298.2	0.3841	0.5599	0.0137
298.2	0.3348	0.5913	0.0127
298.2	0.2333	0.6103	0.0121
298.2	0.1977	0.5936	0.0126
298.2	0.1712	0.575	0.0132
298.2	0.1502	0.5506	0.0141
298.2	0.1315	0.5198	0.0151
298.2	0.1171	0.4845	0.0155
298.2	0.1053	0.4461	0.0146
298.2	0.0972	0.4154	0.0142
298.2	0.0873	0.3693	0.0134
298.2	0.0789	0.3255	0.0142
298.2	0.0756	0.2806	0.0148
298.2	0.0697	0.2439	0.0097
298.2	0.0579	0.2008	0.0343
298.2	0.0558	0.1502	0.024
298.2	0.0519	0.0972	0.0193
298.2	0.0517	0.0501	0.0343
308.2	0.9441	0.0549	0.0025
308.2	0.8964	0.1026	0.0035
308.2	0.8403	0.1577	0.0051
308.2	0.7987	0.1972	0.0062
308.2	0.7329	0.2573	0.0081
308.2	0.6878	0.298	0.0093
308.2	0.6262	0.354	0.011
308.2	0.584	0.3901	0.0122
308.2	0.5327	0.4374	0.0136
308.2	0.4803	0.4791	0.0149
308.2	0.4249	0.5272	0.0147
308.2	0.3806	0.5622	0.0136
308.2	0.321	0.5957	0.0125
308.2	0.2378	0.6109	0.0121
308.2	0.1999	0.5964	0.0125
308.2	0.1753	0.5755	0.0132
308.2	0.1542	0.5469	0.0142
308.2	0.1389	0.5138	0.0153
308.2	0.119	0.4825	0.0152
308.2	0.1083	0.4472	0.0149
308.2	0.101	0.4055	0.0141
308.2	0.0924	0.3664	0.0131
308.2	0.0833	0.3261	0.0121
308.2	0.0755	0.2851	0.0139
308.2	0.0719	0.2365	0.0099
308.2	0.0585	0.1909	0.0257
308.2	0.0559	0.1432	0.0184
308.2	0.0517	0.0969	0.0174
308.2	0.0515	0.0499	0.027
318.2	0.9332	0.0658	0.0027
318.2	0.8921	0.1069	0.0036
318.2	0.8374	0.1596	0.0051
318.2	0.7962	0.1998	0.0063
318.2	0.7326	0.2577	0.0081
318.2	0.6878	0.2953	0.0092
318.2	0.6362	0.3432	0.0107
318.2	0.582	0.3881	0.0121
318.2	0.5277	0.4358	0.0136
318.2	0.4803	0.4759	0.0148
318.2	0.4257	0.5184	0.015
318.2	0.3818	0.5529	0.0139
318.2	0.3195	0.586	0.0128
318.2	0.2021	0.5892	0.0128
318.2	0.2083	0.5891	0.0127
318.2	0.18	0.5753	0.0132
318.2	0.1582	0.5497	0.0141
318.2	0.1396	0.521	0.0151
318.2	0.1242	0.4786	0.0152
318.2	0.1077	0.4476	0.0144
318.2	0.0983	0.4049	0.0149
318.2	0.093	0.3613	0.0157
318.2	0.0873	0.3186	0.014
318.2	0.0814	0.2795	0.0121
318.2	0.0733	0.2346	0.0107
318.2	0.0656	0.1903	0.0096
318.2	0.0578	0.1511	0.0115
318.2	0.0535	0.096	0.0182
318.2	0.0535	0.0541	0.0317

System: butanoic acid + octan-1-ol + water; phases: Liquid mixture 1, Liquid mixture 2
Fixed: Pressure, kPa = 101.3
Property: Mass fraction of water (Liquid mixture 1); method: Index of refraction calibration data
Property: Mass fraction of water (Liquid mixture 2); method: Index of refraction calibration data
Property: Mass fraction of butanoic acid (Liquid mixture 2); method: Index of refraction calibration data
Temperature, K	Mass fraction of butanoic acid	Mass fraction of water	uncertainty	Mass fraction of water	uncertainty	Mass fraction of butanoic acid	uncertainty
298.2	0.027	0.973	0.003	0.058	0.002	0.183	
298.2	0.044	0.956	0.003	0.078	0.003	0.321	
298.2	0.055	0.944	0.003	0.098	0.003	0.415	
298.2	0.07	0.929	0.003	0.114	0.003	0.469	
298.2	0.082	0.917	0.003	0.127	0.003	0.515	
298.2	0.089	0.911	0.003	0.141	0.004	0.548	
308.2	0.032	0.968	0.003	0.072	0.003	0.237	
308.2	0.042	0.957	0.003	0.083	0.003	0.318	
308.2	0.053	0.946	0.003	0.095	0.003	0.381	
308.2	0.07	0.929	0.003	0.116	0.003	0.46	
308.2	0.08	0.919	0.003	0.13	0.004	0.498	
308.2	0.087	0.912	0.003	0.142	0.004	0.531	
318.2	0.03	0.969	0.003	0.063	0.002	0.188	
318.2	0.048	0.951	0.003	0.082	0.003	0.305	
318.2	0.06	0.939	0.003	0.097	0.003	0.371	
318.2	0.073	0.926	0.003	0.105	0.003	0.409	
318.2	0.082	0.917	0.003	0.117	0.003	0.445	
318.2	0.092	0.907	0.003	0.129	0.003	0.494	

System: 2-ethyl-1-hexanol + butanoic acid + water; phases: Liquid mixture 1, Liquid mixture 2
Fixed: Pressure, kPa = 101.3
Property: Mass fraction of butanoic acid (Liquid mixture 1); method: Titration method
Temperature, K	Mass fraction of water	Mass fraction of butanoic acid	uncertainty
298.2	0.9465	0.0524	0.0025
298.2	0.8979	0.1011	0.0035
298.2	0.8482	0.1508	0.0049
298.2	0.7907	0.2072	0.0066
298.2	0.745	0.2489	0.0078
298.2	0.694	0.2957	0.0093
298.2	0.6433	0.3444	0.0108
298.2	0.5931	0.3927	0.0122
298.2	0.5379	0.4438	0.0138
298.2	0.4877	0.4862	0.0151
298.2	0.4256	0.539	0.0143
298.2	0.3839	0.5731	0.0133
298.2	0.2765	0.632	0.0114
298.2	0.2314	0.6392	0.0112
298.2	0.1727	0.6152	0.0119
298.2	0.1364	0.592	0.0131
298.2	0.1282	0.5715	0.0135
298.2	0.1039	0.5389	0.0145
298.2	0.0908	0.501	0.016
298.2	0.0757	0.4604	0.0151
298.2	0.0692	0.4219	0.0146
298.2	0.0571	0.3741	0.014
298.2	0.0538	0.3282	0.0153
298.2	0.0466	0.285	0.0147
298.2	0.0447	0.2434	0.0212
298.2	0.0404	0.1941	0.0107
298.2	0.0311	0.1529	0.009
298.2	0.0239	0.104	0.0126
298.2	0.0195	0.0503	0.0172
308.2	0.9447	0.0533	0.0025
308.2	0.8982	0.0998	0.0034
308.2	0.8451	0.1528	0.0049
308.2	0.7956	0.2003	0.0063
308.2	0.7405	0.2513	0.0079
308.2	0.6913	0.2964	0.0093
308.2	0.6298	0.3524	0.011
308.2	0.584	0.3939	0.0123
308.2	0.5385	0.4338	0.0135
308.2	0.4929	0.4738	0.0147
308.2	0.4322	0.5229	0.0148
308.2	0.3805	0.5614	0.0136
308.2	0.2663	0.6168	0.0119
308.2	0.2292	0.6128	0.012
308.2	0.1892	0.6032	0.0123
308.2	0.1557	0.5839	0.0129
308.2	0.1394	0.5627	0.0137
308.2	0.1135	0.5342	0.0146
308.2	0.1002	0.4929	0.0158
308.2	0.0842	0.4573	0.0149
308.2	0.0746	0.4072	0.0144
308.2	0.066	0.3677	0.0136
308.2	0.0612	0.335	0.0142
308.2	0.0538	0.2858	0.0133
308.2	0.0474	0.2372	0.0127
308.2	0.0427	0.1948	0.016
308.2	0.0383	0.1444	0.0127
308.2	0.0313	0.0982	0.0097
308.2	0.0242	0.0514	0.0055
318.2	0.9447	0.0533	0.0025
318.2	0.8984	0.0995	0.0034
318.2	0.8448	0.1531	0.0049
318.2	0.7957	0.2002	0.0063
318.2	0.7404	0.2494	0.0078
318.2	0.6864	0.2996	0.0094
318.2	0.6326	0.3454	0.0108
318.2	0.5783	0.3937	0.0123
318.2	0.5261	0.4382	0.0136
318.2	0.4827	0.476	0.0148
318.2	0.4238	0.5209	0.0149
318.2	0.3776	0.5534	0.0139
318.2	0.2616	0.6085	0.0121
318.2	0.2036	0.6061	0.0122
318.2	0.1492	0.5734	0.0133
318.2	0.1588	0.5803	0.013
318.2	0.1341	0.5531	0.014
318.2	0.1174	0.5234	0.015
318.2	0.1019	0.4967	0.0158
318.2	0.0904	0.4532	0.0151
318.2	0.0805	0.4109	0.0141
318.2	0.0725	0.3748	0.0139
318.2	0.065	0.3265	0.0126
318.2	0.0555	0.2824	0.037
318.2	0.0538	0.2388	0.0367
318.2	0.0448	0.1954	0.0091
318.2	0.0354	0.1492	0.0103
318.2	0.0312	0.102	0.0115
318.2	0.0237	0.0549	0.009

System: 2-ethyl-1-hexanol + butanoic acid + water; phases: Liquid mixture 2, Liquid mixture 1
Fixed: Pressure, kPa = 101.3
Property: Mass fraction of water (Liquid mixture 2); method: Index of refraction calibration data
Property: Mass fraction of water (Liquid mixture 1); method: Index of refraction calibration data
Property: Mass fraction of butanoic acid (Liquid mixture 1); method: Index of refraction calibration data
Temperature, K	Mass fraction of butanoic acid	Mass fraction of water	uncertainty	Mass fraction of water	uncertainty	Mass fraction of butanoic acid	uncertainty
298.2	0.159	0.032	0.002	0.975	0.003	0.024	
298.2	0.28	0.045	0.002	0.955	0.003	0.044	
298.2	0.354	0.055	0.002	0.94	0.003	0.059	
298.2	0.413	0.063	0.003	0.929	0.003	0.07	
298.2	0.463	0.076	0.003	0.917	0.003	0.082	
298.2	0.493	0.082	0.003	0.911	0.003	0.088	
308.2	0.168	0.04	0.002	0.974	0.003	0.024	
308.2	0.278	0.053	0.002	0.959	0.003	0.04	
308.2	0.368	0.069	0.003	0.941	0.003	0.057	
308.2	0.441	0.084	0.003	0.928	0.003	0.07	
308.2	0.483	0.098	0.003	0.918	0.003	0.08	
308.2	0.523	0.104	0.003	0.91	0.003	0.088	
318.2	0.154	0.037	0.002	0.973	0.003	0.025	
318.2	0.285	0.057	0.002	0.955	0.003	0.043	
318.2	0.371	0.072	0.003	0.941	0.003	0.057	
318.2	0.46	0.091	0.003	0.928	0.003	0.07	
318.2	0.49	0.102	0.003	0.917	0.003	0.081	
318.2	0.531	0.118	0.003	0.907	0.003	0.091	
