Measured thermophysical data. Measurement and mathematical modeling of solubility of buttery-odor substance (acetoin) in supercritical CO2 at several pressures and temperatures
Source: Fluid Phase Equilib., 2013, 10.1016/j.fluid.2013.07.035
Compound 1: carbon dioxide, CO2, InChI=1S/CO2/c2-1-3
Compound 2: 2,3-butanolone, C4H8O2, InChI=1S/C4H8O2/c1-3(5)4(2)6/h3,5H,1-2H3

System: carbon dioxide + 2,3-butanolone; phases: Fluid (supercritical or subcritical phases), Crystal
Property: Mole fraction of 2,3-butanolone (Fluid (supercritical or subcritical phases)); method: Chromatography
Temperature, K	Pressure, kPa	Mole fraction of 2,3-butanolone	uncertainty
313.15	8000	6.8e-06	6.8e-06
313.15	10000	1.74e-05	1.74e-05
313.15	12000	2.2e-05	2.2e-05
313.15	14000	2.38e-05	2.38e-05
313.15	16000	2.69e-05	2.69e-05
313.15	18000	2.82e-05	2.82e-05
313.15	20000	2.91e-05	2.91e-05
313.15	22000	3.02e-05	3.02e-05
313.15	24000	3.17e-05	3.17e-05
313.15	26000	3.3e-05	3.3e-05
313.15	28000	3.33e-05	3.33e-05
323.15	8000	9.8e-06	9.8e-06
323.15	10000	1.99e-05	1.99e-05
323.15	12000	3.12e-05	3.12e-05
323.15	14000	3.94e-05	3.94e-05
323.15	16000	4.62e-05	4.62e-05
323.15	18000	4.7e-05	4.7e-05
323.15	20000	5.23e-05	5.23e-05
323.15	22000	5.31e-05	5.31e-05
323.15	24000	5.62e-05	5.62e-05
323.15	26000	5.99e-05	5.99e-05
323.15	28000	6.43e-05	6.43e-05
333.15	8000	1.51e-05	1.51e-05
333.15	10000	2.58e-05	2.58e-05
333.15	12000	4.36e-05	4.36e-05
333.15	14000	6.07e-05	6.07e-05
333.15	16000	7.05e-05	7.05e-05
333.15	18000	7.81e-05	7.81e-05
333.15	20000	8.47e-05	8.47e-05
333.15	22000	9.56e-05	9.56e-05
333.15	24000	9.6e-05	9.6e-05
333.15	26000	9.87e-05	9.87e-05
333.15	28000	0.0001084	0.0001084
343.15	8000	2.36e-05	2.36e-05
343.15	10000	3.87e-05	3.87e-05
343.15	12000	5.91e-05	5.91e-05
343.15	14000	7.97e-05	7.97e-05
343.15	16000	0.0001053	0.0001053
343.15	18000	0.0001258	0.0001258
343.15	20000	0.0001336	0.0001336
343.15	22000	0.0001522	0.0001522
343.15	24000	0.0001583	0.0001583
343.15	26000	0.0001771	0.0001771
343.15	28000	0.000183	0.000183
