Measured thermophysical data. Molecular interactions in binary mixtures of formamide with 1-butanol, 2-butanol, 1,3-butanediol and 1,4-butanediol at different temperatures: An ultrasonic and viscometric study
Source: Fluid Phase Equilib., 2008, 10.1016/j.fluid.2007.12.007
Compound 1: formamide, CH3NO, InChI=1S/CH3NO/c2-1-3/h1H,(H2,2,3)
Compound 2: butan-1-ol, C4H10O, InChI=1S/C4H10O/c1-2-3-4-5/h5H,2-4H2,1H3
Compound 3: butan-2-ol, C4H10O, InChI=1S/C4H10O/c1-3-4(2)5/h4-5H,3H2,1-2H3
Compound 4: 1,3-butanediol, C4H10O2, InChI=1S/C4H10O2/c1-4(6)2-3-5/h4-6H,2-3H2,1H3
Compound 5: 1,4-butanediol, C4H10O2, InChI=1S/C4H10O2/c5-3-1-2-4-6/h5-6H,1-4H2

System: formamide; phases: Liquid
Fixed: Pressure, kPa = 101.325
Property: Viscosity, Pa*s (Liquid); method: CAPTUB:UFactor:4
Temperature, K	Viscosity, Pa*s	uncertainty
293.15	0.0036542	8.12e-05
298.15	0.003322	7.43e-05
303.15	0.0029663	6.68e-05
308.15	0.0026531	6.01e-05
313.15	0.0024039	5.49e-05
318.15	0.0022187	5.09e-05

System: formamide; phases: Liquid
Fixed: Pressure, kPa = 101.325
Property: Speed of sound, m/s (Liquid); method: LVPAI:UFactor:2
Temperature, K	Speed of sound, m/s	uncertainty
293.15	1615.8	3.3
298.15	1601	3.3
303.15	1589.2	3.3
308.15	1577.2	3.3
313.15	1565.1	3.2
318.15	1553.1	3.2

System: butan-1-ol; phases: Liquid
Fixed: Pressure, kPa = 101.325
Property: Viscosity, Pa*s (Liquid); method: CAPTUB:UFactor:4
Temperature, K	Viscosity, Pa*s	uncertainty
293.15	0.0029356	6.61e-05
298.15	0.0025416	5.78e-05
303.15	0.0022751	5.21e-05
308.15	0.0019978	4.62e-05
313.15	0.0017442	4.08e-05
318.15	0.0015712	3.71e-05

System: butan-1-ol; phases: Liquid
Fixed: Pressure, kPa = 101.325
Property: Speed of sound, m/s (Liquid); method: LVPAI:UFactor:2
Temperature, K	Speed of sound, m/s	uncertainty
293.15	1262.4	2.8
298.15	1242.6	2.7
303.15	1224.6	2.7
308.15	1207.6	2.7
313.15	1189.2	2.7
318.15	1170	2.6

System: butan-2-ol; phases: Liquid
Fixed: Pressure, kPa = 101.325
Property: Viscosity, Pa*s (Liquid); method: CAPTUB:UFactor:4
Temperature, K	Viscosity, Pa*s	uncertainty
293.15	0.0042124	0.0004323
298.15	0.0030342	9.44e-05
303.15	0.0024954	7.56e-05
308.15	0.0021058	6.42e-05
313.15	0.001784	5.5e-05
318.15	0.0015242	4.77e-05

System: butan-2-ol; phases: Liquid
Fixed: Pressure, kPa = 101.325
Property: Speed of sound, m/s (Liquid); method: LVPAI:UFactor:2
Temperature, K	Speed of sound, m/s	uncertainty
293.15	1232.6	2.8
298.15	1212.6	2.7
303.15	1194.6	2.7
308.15	1174.5	2.7
313.15	1155.9	2.6
318.15	1138.6	2.6

System: 1,3-butanediol; phases: Liquid
Fixed: Pressure, kPa = 101.325
Property: Viscosity, Pa*s (Liquid); method: CAPTUB:UFactor:4
Temperature, K	Viscosity, Pa*s	uncertainty
293.15	0.130325	0.0111024
298.15	0.097262	0.0058758
303.15	0.069844	0.0022866
308.15	0.052542	0.0006853
313.15	0.039418	0.0009515
318.15	0.030505	0.0007514

System: 1,3-butanediol; phases: Liquid
Fixed: Pressure, kPa = 101.325
Property: Speed of sound, m/s (Liquid); method: LVPAI:UFactor:2
Temperature, K	Speed of sound, m/s	uncertainty
293.15	1539.6	3.3
298.15	1523.4	3.2
303.15	1506.3	3.2
308.15	1492.5	3.2
313.15	1480.8	3.2
318.15	1470.3	3.2

System: 1,4-butanediol; phases: Liquid
Fixed: Pressure, kPa = 101.325
Property: Viscosity, Pa*s (Liquid); method: CAPTUB:UFactor:4
Temperature, K	Viscosity, Pa*s	uncertainty
293.15	0.097262	0.0044618
298.15	0.0727454	0.0019096
303.15	0.056886	0.0005623
308.15	0.044885	0.0007494
313.15	0.0358106	0.0006038
318.15	0.0290542	0.0004957

System: 1,4-butanediol; phases: Liquid
Fixed: Pressure, kPa = 101.325
Property: Speed of sound, m/s (Liquid); method: LVPAI:UFactor:2
Temperature, K	Speed of sound, m/s	uncertainty
293.15	1616.4	3.4
298.15	1605.6	3.4
303.15	1595.9	3.3
308.15	1587.3	3.3
313.15	1579.8	3.3
318.15	1570.2	3.3

System: formamide + butan-2-ol; phases: Liquid
Fixed: Pressure, kPa = 101
Property: Viscosity, Pa*s (Liquid); method: CAPTUB:UFactor:4
Temperature, K	Mole fraction of formamide	Viscosity, Pa*s	uncertainty
293.15	0.1043	0.0041402	0.0004247
293.15	0.2043	0.0040805	0.0004183
293.15	0.3056	0.0040456	0.0004145
293.15	0.4083	0.0040412	0.0004137
293.15	0.5093	0.0040255	0.0004118
293.15	0.6063	0.0039895	0.0004079
293.15	0.7068	0.0039294	0.0004016
293.15	0.8042	0.0038592	0.0003943
293.15	0.9024	0.00377	0.000385
298.15	0.1043	0.0030435	9.4e-05
298.15	0.2043	0.0030642	9.39e-05
298.15	0.3056	0.0031127	9.45e-05
298.15	0.4083	0.0031904	9.59e-05
298.15	0.5093	0.0032611	9.72e-05
298.15	0.6063	0.00331	9.79e-05
298.15	0.7068	0.003338	9.82e-05
298.15	0.8042	0.0033509	9.81e-05
298.15	0.9024	0.0033475	9.76e-05
303.15	0.1043	0.0025162	7.61e-05
303.15	0.2043	0.0025515	7.69e-05
303.15	0.3056	0.0026174	7.85e-05
303.15	0.4083	0.0027131	8.1e-05
303.15	0.5093	0.0027998	8.32e-05
303.15	0.6063	0.0028687	8.49e-05
303.15	0.7068	0.002918	8.61e-05
303.15	0.8042	0.0029485	8.68e-05
303.15	0.9024	0.002966	8.71e-05
308.15	0.1043	0.0021264	6.47e-05
308.15	0.2043	0.0021666	6.57e-05
308.15	0.3056	0.0022388	6.76e-05
308.15	0.4083	0.0023394	7.03e-05
308.15	0.5093	0.0024351	7.28e-05
308.15	0.6063	0.0025124	7.48e-05
308.15	0.7068	0.0025714	7.63e-05
308.15	0.8042	0.0026113	7.73e-05
308.15	0.9024	0.0026395	7.8e-05
313.15	0.1043	0.0018024	5.55e-05
313.15	0.2043	0.0018484	5.66e-05
313.15	0.3056	0.0019265	5.87e-05
313.15	0.4083	0.0020347	6.16e-05
313.15	0.5093	0.0021376	6.43e-05
313.15	0.6063	0.002224	6.66e-05
313.15	0.7068	0.0022911	6.83e-05
313.15	0.8042	0.0023378	6.95e-05
313.15	0.9024	0.002375	7.05e-05
318.15	0.1043	0.0015426	4.82e-05
318.15	0.2043	0.0015925	4.94e-05
318.15	0.3056	0.0016775	5.16e-05
318.15	0.4083	0.0017912	5.47e-05
318.15	0.5093	0.0019034	5.78e-05
318.15	0.6063	0.001998	6.03e-05
318.15	0.7068	0.0020717	6.22e-05
318.15	0.8042	0.0021291	6.37e-05
318.15	0.9024	0.0021751	6.49e-05

System: formamide + butan-2-ol; phases: Liquid
Fixed: Pressure, kPa = 101
Property: Speed of sound, m/s (Liquid); method: LVPAI:UFactor:2
Temperature, K	Mole fraction of formamide	Speed of sound, m/s	uncertainty
293.15	0.1043	1264.1	2.8
293.15	0.2043	1295.8	2.8
293.15	0.3056	1329.1	2.9
293.15	0.4083	1364.5	2.9
293.15	0.5093	1401.3	3
293.15	0.6063	1438.8	3.1
293.15	0.7068	1480.1	3.1
293.15	0.8042	1522.5	3.2
293.15	0.9024	1568	3.2
298.15	0.1043	1243.5	2.8
298.15	0.2043	1274.8	2.8
298.15	0.3056	1308	2.9
298.15	0.4083	1343.4	2.9
298.15	0.5093	1380.4	3
298.15	0.6063	1418.1	3
298.15	0.7068	1459.9	3.1
298.15	0.8042	1503.4	3.1
298.15	0.9024	1550.5	3.2
303.15	0.1043	1225	2.7
303.15	0.2043	1256.1	2.8
303.15	0.3056	1289.2	2.8
303.15	0.4083	1324.7	2.9
303.15	0.5093	1361.9	2.9
303.15	0.6063	1400	3
303.15	0.7068	1442.6	3.1
303.15	0.8042	1487.3	3.1
303.15	0.9024	1536	3.2
308.15	0.1043	1204.5	2.7
308.15	0.2043	1235.7	2.8
308.15	0.3056	1268.9	2.8
308.15	0.4083	1304.5	2.9
308.15	0.5093	1341.9	2.9
308.15	0.6063	1380.6	3
308.15	0.7068	1424.4	3
308.15	0.8042	1470.5	3.1
308.15	0.9024	1521	3.2
313.15	0.1043	1185.6	2.7
313.15	0.2043	1216.2	2.7
313.15	0.3056	1249.3	2.8
313.15	0.4083	1285.3	2.8
313.15	0.5093	1323.1	2.9
313.15	0.6063	1362.1	2.9
313.15	0.7068	1406.8	3
313.15	0.8042	1453.9	3.1
313.15	0.9024	1506.1	3.2
318.15	0.1043	1167.6	2.7
318.15	0.2043	1197.6	2.7
318.15	0.3056	1230.7	2.7
318.15	0.4083	1266.9	2.8
318.15	0.5093	1305	2.9
318.15	0.6063	1344.2	2.9
318.15	0.7068	1389.5	3
318.15	0.8042	1437.6	3
318.15	0.9024	1491.3	3.1

System: formamide + 1,3-butanediol; phases: Liquid
Fixed: Pressure, kPa = 101
Property: Viscosity, Pa*s (Liquid); method: CAPTUB:UFactor:4
Temperature, K	Mole fraction of formamide	Viscosity, Pa*s	uncertainty
293.15	0.1061	0.099921	0.0047645
293.15	0.2004	0.0782234	0.0024349
293.15	0.3068	0.0597425	0.0007731
293.15	0.4026	0.0461222	0.0007645
293.15	0.5033	0.0346248	0.0005806
293.15	0.6046	0.0250215	0.0004274
293.15	0.7013	0.0175423	0.0003084
293.15	0.8073	0.0104652	0.0001962
293.15	0.9058	0.0065456	0.0001339
298.15	0.1061	0.0747246	0.0020963
298.15	0.2004	0.0575004	0.0006042
298.15	0.3068	0.0431023	0.0007183
298.15	0.4026	0.0322046	0.0005437
298.15	0.5033	0.0237426	0.0004083
298.15	0.6046	0.0170001	0.0003007
298.15	0.7013	0.0120003	0.000221
298.15	0.8073	0.0075262	0.0001497
298.15	0.9058	0.0050012	0.0001095
303.15	0.1061	0.0530652	0.0003098
303.15	0.2004	0.040309	0.0006747
303.15	0.3068	0.0289005	0.0004917
303.15	0.4026	0.0210949	0.0003667
303.15	0.5033	0.0150394	0.0002698
303.15	0.6046	0.0103316	0.0001948
303.15	0.7013	0.0070232	0.0001421
303.15	0.8073	0.0045434	0.0001003
303.15	0.9058	0.0035263	7.87e-05
308.15	0.1061	0.0403644	0.0006762
308.15	0.2004	0.0309593	0.0005246
308.15	0.3068	0.0219759	0.0003805
308.15	0.4026	0.0156594	0.0002795
308.15	0.5033	0.0112474	0.000209
308.15	0.6046	0.007455	0.0001486
308.15	0.7013	0.0053292	0.0001148
308.15	0.8073	0.0035779	7.98e-05
308.15	0.9058	0.0027019	6.13e-05
313.15	0.1061	0.0310606	0.0005271
313.15	0.2004	0.0242294	0.0004171
313.15	0.3068	0.0174767	0.0003087
313.15	0.4026	0.0121365	0.0002233
313.15	0.5033	0.0084141	0.000164
313.15	0.6046	0.006181	0.0001284
313.15	0.7013	0.0045452	0.0001001
313.15	0.8073	0.0032294	7.25e-05
313.15	0.9058	0.0026262	5.96e-05
318.15	0.1061	0.0240363	0.0004149
318.15	0.2004	0.0186233	0.0003277
318.15	0.3068	0.0138208	0.0002505
318.15	0.4026	0.0099991	0.0001892
318.15	0.5033	0.0068027	0.0001383
318.15	0.6046	0.004697	0.0001034
318.15	0.7013	0.0032993	7.41e-05
318.15	0.8073	0.002478	5.66e-05
318.15	0.9058	0.0022571	5.18e-05

System: formamide + 1,3-butanediol; phases: Liquid
Fixed: Pressure, kPa = 101
Property: Speed of sound, m/s (Liquid); method: LVPAI:UFactor:2
Temperature, K	Mole fraction of formamide	Speed of sound, m/s	uncertainty
293.15	0.1061	1539	3.3
293.15	0.2004	1536.3	3.2
293.15	0.3068	1537.2	3.2
293.15	0.4026	1538.5	3.2
293.15	0.5033	1543.7	3.2
293.15	0.6046	1550.4	3.2
293.15	0.7013	1561.2	3.2
293.15	0.8073	1577.3	3.3
293.15	0.9058	1596.6	3.3
298.15	0.1061	1521.7	3.2
298.15	0.2004	1518.2	3.2
298.15	0.3068	1518.3	3.2
298.15	0.4026	1519.5	3.2
298.15	0.5033	1524.6	3.2
298.15	0.6046	1531.3	3.2
298.15	0.7013	1542.5	3.2
298.15	0.8073	1559.5	3.2
298.15	0.9058	1580.2	3.3
303.15	0.1061	1503.9	3.2
303.15	0.2004	1499.8	3.2
303.15	0.3068	1499.9	3.2
303.15	0.4026	1501.1	3.2
303.15	0.5033	1506.5	3.2
303.15	0.6046	1513.8	3.2
303.15	0.7013	1525.7	3.2
303.15	0.8073	1543.8	3.2
303.15	0.9058	1566.3	3.2
308.15	0.1061	1488.7	3.2
308.15	0.2004	1484.2	3.2
308.15	0.3068	1483.6	3.2
308.15	0.4026	1484.8	3.2
308.15	0.5033	1490.1	3.2
308.15	0.6046	1497.6	3.2
308.15	0.7013	1509.9	3.2
308.15	0.8073	1528.7	3.2
308.15	0.9058	1552.5	3.2
313.15	0.1061	1475.5	3.2
313.15	0.2004	1470.2	3.1
313.15	0.3068	1468.8	3.1
313.15	0.4026	1469.6	3.1
313.15	0.5033	1474.7	3.1
313.15	0.6046	1482.1	3.1
313.15	0.7013	1494.6	3.1
313.15	0.8073	1513.9	3.2
313.15	0.9058	1538.9	3.2
318.15	0.1061	1463.3	3.1
318.15	0.2004	1457	3.1
318.15	0.3068	1454.8	3.1
318.15	0.4026	1455.1	3.1
318.15	0.5033	1459.9	3.1
318.15	0.6046	1467.1	3.1
318.15	0.7013	1479.7	3.1
318.15	0.8073	1499.4	3.1
318.15	0.9058	1525.5	3.2

System: formamide + 1,4-butanediol; phases: Liquid
Fixed: Pressure, kPa = 101
Property: Viscosity, Pa*s (Liquid); method: CAPTUB:UFactor:4
Temperature, K	Mole fraction of formamide	Viscosity, Pa*s	uncertainty
293.15	0.1052	0.064526	0.0011708
293.15	0.1988	0.0440024	0.0007346
293.15	0.3041	0.0301005	0.0005112
293.15	0.4002	0.0212024	0.000369
293.15	0.5009	0.0151264	0.0002718
293.15	0.6022	0.0113254	0.0002105
293.15	0.6992	0.0079984	0.0001574
293.15	0.8051	0.0055121	0.0001177
293.15	0.905	0.0040256	8.91e-05
298.15	0.1052	0.0480757	0.0008003
298.15	0.1988	0.0311351	0.0005284
298.15	0.3041	0.0198171	0.0003473
298.15	0.4002	0.0124992	0.0002305
298.15	0.5009	0.0080213	0.0001589
298.15	0.6022	0.006233	0.0001299
298.15	0.6992	0.0049708	0.0001093
298.15	0.8051	0.0039603	8.79e-05
298.15	0.905	0.0033719	7.54e-05
303.15	0.1052	0.0380344	0.000639
303.15	0.1988	0.0240346	0.0004145
303.15	0.3041	0.0134196	0.000245
303.15	0.4002	0.0077145	0.0001538
303.15	0.5009	0.0047707	0.0001055
303.15	0.6022	0.0037223	8.33e-05
303.15	0.6992	0.0030618	6.92e-05
303.15	0.8051	0.0026575	6.05e-05
303.15	0.905	0.0027538	6.23e-05
308.15	0.1052	0.0301164	0.0005123
308.15	0.1988	0.0185574	0.0003271
308.15	0.3041	0.0094984	0.0001823
308.15	0.4002	0.0046628	0.0001034
308.15	0.5009	0.0026965	6.17e-05
308.15	0.6022	0.0021875	5.07e-05
308.15	0.6992	0.00187	4.38e-05
308.15	0.8051	0.0019237	4.47e-05
308.15	0.905	0.0023663	5.41e-05
313.15	0.1052	0.0237383	0.0004103
313.15	0.1988	0.0138131	0.0002513
313.15	0.3041	0.0065406	0.0001351
313.15	0.4002	0.0028712	6.55e-05
313.15	0.5009	0.001619	3.84e-05
313.15	0.6022	0.0012725	3.08e-05
313.15	0.6992	0.0010794	2.66e-05
313.15	0.8051	0.001525	3.62e-05
313.15	0.905	0.0019981	4.63e-05
318.15	0.1052	0.0189497	0.0003336
318.15	0.1988	0.0107476	0.0002021
318.15	0.3041	0.0050937	0.0001117
318.15	0.4002	0.0020245	4.72e-05
318.15	0.5009	0.0011667	2.85e-05
318.15	0.6022	0.0010029	2.49e-05
318.15	0.6992	0.0009823	2.45e-05
318.15	0.8051	0.0012421	3.01e-05
318.15	0.905	0.0017059	4e-05

System: formamide + 1,4-butanediol; phases: Liquid
Fixed: Pressure, kPa = 101
Property: Speed of sound, m/s (Liquid); method: LVPAI:UFactor:2
Temperature, K	Mole fraction of formamide	Speed of sound, m/s	uncertainty
293.15	0.1052	1606	3.4
293.15	0.1988	1594.7	3.3
293.15	0.3041	1585.7	3.3
293.15	0.4002	1577.7	3.3
293.15	0.5009	1572.5	3.3
293.15	0.6022	1569.9	3.3
293.15	0.6992	1574.7	3.3
293.15	0.8051	1583.7	3.3
293.15	0.905	1597.1	3.3
298.15	0.1052	1592.6	3.3
298.15	0.1988	1579.2	3.3
298.15	0.3041	1568.5	3.3
298.15	0.4002	1560.2	3.3
298.15	0.5009	1553.9	3.2
298.15	0.6022	1551.3	3.2
298.15	0.6992	1556	3.2
298.15	0.8051	1565.5	3.2
298.15	0.905	1580.5	3.3
303.15	0.1052	1580.1	3.3
303.15	0.1988	1565.3	3.3
303.15	0.3041	1553.4	3.3
303.15	0.4002	1544.2	3.2
303.15	0.5009	1537.7	3.2
303.15	0.6022	1534.5	3.2
303.15	0.6992	1539.5	3.2
303.15	0.8051	1550	3.2
303.15	0.905	1566.3	3.2
308.15	0.1052	1568.8	3.3
308.15	0.1988	1552	3.3
308.15	0.3041	1539.2	3.2
308.15	0.4002	1529.4	3.2
308.15	0.5009	1522.1	3.2
308.15	0.6022	1518.6	3.2
308.15	0.6992	1524	3.2
308.15	0.8051	1534.8	3.2
308.15	0.905	1552.1	3.2
313.15	0.1052	1558.4	3.3
313.15	0.1988	1539.9	3.2
313.15	0.3041	1525.4	3.2
313.15	0.4002	1514.6	3.2
313.15	0.5009	1506.5	3.2
313.15	0.6022	1503	3.2
313.15	0.6992	1508	3.2
313.15	0.8051	1519.6	3.2
313.15	0.905	1537.9	3.2
318.15	0.1052	1546.2	3.3
318.15	0.1988	1525.7	3.2
318.15	0.3041	1510.2	3.2
318.15	0.4002	1498.6	3.2
318.15	0.5009	1490.6	3.2
318.15	0.6022	1486.8	3.1
318.15	0.6992	1491.7	3.1
318.15	0.8051	1503.8	3.2
318.15	0.905	1524	3.2

System: butan-1-ol + formamide; phases: Liquid
Fixed: Pressure, kPa = 101
Property: Viscosity, Pa*s (Liquid); method: CAPTUB:UFactor:4
Temperature, K	Mole fraction of formamide	Viscosity, Pa*s	uncertainty
293.15	0.1093	0.0032246	7.22e-05
293.15	0.2057	0.0034465	7.69e-05
293.15	0.3138	0.0035984	8.01e-05
293.15	0.4104	0.0036956	8.21e-05
293.15	0.5115	0.0037542	8.33e-05
293.15	0.6124	0.0037775	8.38e-05
293.15	0.7081	0.00377	8.36e-05
293.15	0.8123	0.0037445	8.31e-05
293.15	0.9086	0.0037082	8.24e-05
298.15	0.1093	0.0028101	6.35e-05
298.15	0.2057	0.0030176	6.79e-05
298.15	0.3138	0.003181	7.13e-05
298.15	0.4104	0.0032853	7.35e-05
298.15	0.5115	0.0033518	7.49e-05
298.15	0.6124	0.0033859	7.56e-05
298.15	0.7081	0.0033894	7.57e-05
298.15	0.8123	0.0033788	7.55e-05
298.15	0.9086	0.0033551	7.5e-05
303.15	0.1093	0.0025064	5.7e-05
303.15	0.2057	0.0026928	6.1e-05
303.15	0.3138	0.0028461	6.42e-05
303.15	0.4104	0.0029468	6.64e-05
303.15	0.5115	0.0030032	6.75e-05
303.15	0.6124	0.0030316	6.81e-05
303.15	0.7081	0.0030356	6.82e-05
303.15	0.8123	0.0030194	6.79e-05
303.15	0.9086	0.0029956	6.74e-05
308.15	0.1093	0.0022024	5.06e-05
308.15	0.2057	0.0023712	5.42e-05
308.15	0.3138	0.0025161	5.72e-05
308.15	0.4104	0.0026162	5.94e-05
308.15	0.5115	0.0026757	6.06e-05
308.15	0.6124	0.0027016	6.12e-05
308.15	0.7081	0.0027046	6.12e-05
308.15	0.8123	0.0026884	6.09e-05
308.15	0.9086	0.0026713	6.05e-05
313.15	0.1093	0.0019196	4.45e-05
313.15	0.2057	0.0020814	4.8e-05
313.15	0.3138	0.0022245	5.1e-05
313.15	0.4104	0.0023236	5.32e-05
313.15	0.5115	0.0023877	5.45e-05
313.15	0.6124	0.0024177	5.52e-05
313.15	0.7081	0.0024257	5.53e-05
313.15	0.8123	0.0024225	5.53e-05
313.15	0.9086	0.0024128	5.5e-05
318.15	0.1093	0.0017248	4.04e-05
318.15	0.2057	0.001874	4.36e-05
318.15	0.3138	0.0020076	4.64e-05
318.15	0.4104	0.0021058	4.85e-05
318.15	0.5115	0.0021675	4.98e-05
318.15	0.6124	0.0022035	5.06e-05
318.15	0.7081	0.0022171	5.09e-05
318.15	0.8123	0.0022163	5.09e-05
318.15	0.9086	0.0022155	5.09e-05

System: butan-1-ol + formamide; phases: Liquid
Fixed: Pressure, kPa = 101
Property: Speed of sound, m/s (Liquid); method: LVPAI:UFactor:2
Temperature, K	Mole fraction of formamide	Speed of sound, m/s	uncertainty
293.15	0.1093	1302.3	2.8
293.15	0.2057	1337.7	2.9
293.15	0.3138	1377	3
293.15	0.4104	1412	3
293.15	0.5115	1448.4	3.1
293.15	0.6124	1484.4	3.1
293.15	0.7081	1518	3.2
293.15	0.8123	1554	3.2
293.15	0.9086	1586.4	3.3
298.15	0.1093	1281.2	2.8
298.15	0.2057	1315.3	2.9
298.15	0.3138	1353.7	2.9
298.15	0.4104	1388.3	3
298.15	0.5115	1424.6	3
298.15	0.6124	1461	3.1
298.15	0.7081	1495.5	3.1
298.15	0.8123	1533.1	3.2
298.15	0.9086	1567.9	3.2
303.15	0.1093	1261.5	2.8
303.15	0.2057	1294.8	2.8
303.15	0.3138	1332.6	2.9
303.15	0.4104	1367.1	2.9
303.15	0.5115	1403.4	3
303.15	0.6124	1440.3	3
303.15	0.7081	1475.4	3.1
303.15	0.8123	1515.3	3.2
303.15	0.9086	1552.5	3.2
308.15	0.1093	1243.5	2.7
308.15	0.2057	1275.6	2.8
308.15	0.3138	1312.7	2.9
308.15	0.4104	1347	2.9
308.15	0.5115	1383.6	3
308.15	0.6124	1420.5	3
308.15	0.7081	1456.5	3.1
308.15	0.8123	1497.9	3.1
308.15	0.9086	1537.2	3.2
313.15	0.1093	1223.7	2.7
313.15	0.2057	1255.5	2.8
313.15	0.3138	1292.1	2.8
313.15	0.4104	1326	2.9
313.15	0.5115	1362.6	2.9
313.15	0.6124	1399.8	3
313.15	0.7081	1437	3
313.15	0.8123	1479.9	3.1
313.15	0.9086	1521.9	3.2
318.15	0.1093	1203.3	2.7
318.15	0.2057	1234.5	2.7
318.15	0.3138	1270.8	2.8
318.15	0.4104	1305	2.8
318.15	0.5115	1341.3	2.9
318.15	0.6124	1379.1	3
318.15	0.7081	1417.5	3
318.15	0.8123	1461.9	3.1
318.15	0.9086	1506.6	3.2
