Measured thermophysical data. Vapour pressure and excess Gibbs energy of binary 1,2-dichloroethane + cyclohexanone, chloroform + cyclopentanone and chloroform + cyclohexanone mixtures at temperatures from 298.15 to 318.15 K
Source: Fluid Phase Equilib., 2008, 10.1016/j.fluid.2008.02.018
Compound 1: 1,2-dichloroethane, C2H4Cl2, InChI=1S/C2H4Cl2/c3-1-2-4/h1-2H2, purity 99.8%
Compound 2: cyclohexanone, C6H10O, InChI=1S/C6H10O/c7-6-4-2-1-3-5-6/h1-5H2, purity 99.8%
Compound 3: trichloromethane, CHCl3, InChI=1S/CHCl3/c2-1(3)4/h1H, purity 99.8%
Compound 4: cyclopentanone, C5H8O, InChI=1S/C5H8O/c6-5-3-1-2-4-5/h1-4H2, purity 99.8%

System: 1,2-dichloroethane; phases: Liquid
Property: Refractive index (Na D-line) (Liquid); method: Standard Abbe refractometry
Temperature, K	Pressure, kPa	Refractive index (Na D-line)	uncertainty
298.15	101.325	1.4421	0.0007

System: 1,2-dichloroethane; phases: Liquid
Property: Mass density, kg/m3 (Liquid); method: PYCNOM:UFactor:4
Temperature, K	Pressure, kPa	Mass density, kg/m3	uncertainty
298.15	101.325	1250.9	1.7

System: 1,2-dichloroethane; phases: Liquid, Gas
Property: Vapor or sublimation pressure, kPa (Liquid); method: CCELL:UFactor:4
Temperature, K	Vapor or sublimation pressure, kPa	uncertainty
298.15	10.81	0.23
308.15	17.02	0.31
318.15	25.77	0.42

System: cyclohexanone; phases: Liquid
Property: Refractive index (Na D-line) (Liquid); method: Standard Abbe refractometry
Temperature, K	Pressure, kPa	Refractive index (Na D-line)	uncertainty
298.15	101.325	1.4482	0.0007

System: cyclohexanone; phases: Liquid
Property: Mass density, kg/m3 (Liquid); method: PYCNOM:UFactor:4
Temperature, K	Pressure, kPa	Mass density, kg/m3	uncertainty
298.15	101.325	943	1.2

System: cyclohexanone; phases: Liquid, Gas
Property: Vapor or sublimation pressure, kPa (Liquid); method: CCELL:UFactor:4
Temperature, K	Vapor or sublimation pressure, kPa	uncertainty
298.15	0.64	0.06
308.15	1.15	0.08
318.15	1.91	0.09

System: trichloromethane; phases: Liquid
Property: Refractive index (Na D-line) (Liquid); method: Standard Abbe refractometry
Temperature, K	Pressure, kPa	Refractive index (Na D-line)	uncertainty
298.15	101.325	1.4428	0.0007

System: trichloromethane; phases: Liquid
Property: Mass density, kg/m3 (Liquid); method: PYCNOM:UFactor:4
Temperature, K	Pressure, kPa	Mass density, kg/m3	uncertainty
298.15	101.325	1475.9	2.1

System: trichloromethane; phases: Liquid, Gas
Property: Vapor or sublimation pressure, kPa (Liquid); method: CCELL:UFactor:4
Temperature, K	Vapor or sublimation pressure, kPa	uncertainty
298.15	26.44	0.48
308.15	40.19	0.65
318.15	58.69	0.87
318.15	58.68	0.87

System: cyclopentanone; phases: Liquid
Property: Refractive index (Na D-line) (Liquid); method: Standard Abbe refractometry
Temperature, K	Pressure, kPa	Refractive index (Na D-line)	uncertainty
298.15	101.325	1.4347	0.0007

System: cyclopentanone; phases: Liquid
Property: Mass density, kg/m3 (Liquid); method: PYCNOM:UFactor:4
Temperature, K	Pressure, kPa	Mass density, kg/m3	uncertainty
298.15	101.325	945.3	1.2

System: cyclopentanone; phases: Liquid, Gas
Property: Vapor or sublimation pressure, kPa (Liquid); method: CCELL:UFactor:4
Temperature, K	Vapor or sublimation pressure, kPa	uncertainty
298.15	1.72	0.09
308.15	2.8	0.1
318.15	4.64	0.13

System: 1,2-dichloroethane + cyclohexanone; phases: Gas, Liquid
Property: Vapor or sublimation pressure, kPa (Gas); method: CCELL:UFactor:4
Mole fraction of 1,2-dichloroethane	Temperature, K	Vapor or sublimation pressure, kPa	uncertainty
0	308.15	1.15	0.08
0	318.15	1.91	0.09
0.0736	308.15	1.75	0.09
0.0736	318.15	2.98	0.11
0.1476	308.15	2.74	0.1
0.1476	318.15	4.12	0.12
0.2469	308.15	3.92	0.12
0.2469	318.15	5.9	0.15
0.317	308.15	4.76	0.13
0.317	318.15	7.4	0.17
0.4115	298.15	3.85	0.12
0.4115	308.15	6.34	0.16
0.4115	318.15	9.66	0.2
0.4815	298.15	4.64	0.13
0.4815	308.15	7.5	0.17
0.4815	318.15	11.33	0.22
0.5685	298.15	5.74	0.15
0.5685	308.15	8.96	0.19
0.5685	318.15	13.68	0.26
0.6298	298.15	6.35	0.16
0.6298	308.15	10.11	0.21
0.6298	318.15	15.41	0.28
0.7147	298.15	7.49	0.18
0.7147	308.15	11.91	0.24
0.7147	318.15	18.1	0.32
0.7703	298.15	8.11	0.19
0.7703	308.15	12.69	0.25
0.7703	318.15	19.55	0.34
0.8424	298.15	9.06	0.2
0.8424	308.15	14.17	0.27
0.8424	318.15	21.65	0.37
0.9307	298.15	10.04	0.22
0.9307	308.15	15.74	0.3
0.9307	318.15	24.05	0.4
1	298.15	10.81	0.23
1	308.15	17.02	0.31
1	318.15	25.77	0.42

System: trichloromethane + cyclopentanone; phases: Gas, Liquid
Property: Vapor or sublimation pressure, kPa (Gas); method: CCELL:UFactor:4
Mole fraction of trichloromethane	Temperature, K	Vapor or sublimation pressure, kPa	uncertainty
0	298.15	1.72	0.09
0	308.15	2.8	0.1
0	318.15	4.64	0.13
0.0786	298.15	2.26	0.1
0.0786	308.15	3.83	0.12
0.0786	318.15	6.02	0.15
0.1712	298.15	3.37	0.11
0.1712	308.15	5.31	0.14
0.1712	318.15	8.43	0.19
0.2622	298.15	4.4	0.13
0.2622	308.15	6.78	0.17
0.2622	318.15	11.06	0.23
0.362	298.15	6.25	0.16
0.362	308.15	10.01	0.22
0.362	318.15	15.15	0.28
0.4376	298.15	7.78	0.18
0.4376	308.15	12.05	0.25
0.4376	318.15	18.63	0.34
0.5615	298.15	11.12	0.24
0.5615	308.15	17.26	0.33
0.5615	318.15	26.07	0.45
0.6662	298.15	14.69	0.3
0.6662	308.15	22.65	0.41
0.6662	318.15	33.84	0.55
0.7312	298.15	17.21	0.34
0.7312	308.15	26.35	0.46
0.7312	318.15	38.82	0.62
0.836	298.15	21.28	0.4
0.836	308.15	31.93	0.54
0.836	318.15	47.16	0.73
0.9017	298.15	23.78	0.44
0.9017	308.15	35.93	0.59
0.9017	318.15	52.26	0.8
0.9588	298.15	25.57	0.46
0.9588	308.15	38.26	0.63
0.9588	318.15	56.41	0.85
1	298.15	26.44	0.48
1	308.15	40.19	0.65
1	318.15	58.69	0.87

System: trichloromethane + cyclohexanone; phases: Gas, Liquid
Property: Vapor or sublimation pressure, kPa (Gas); method: CCELL:UFactor:4
Mole fraction of trichloromethane	Temperature, K	Vapor or sublimation pressure, kPa	uncertainty
0	298.15	0.64	0.06
0	308.15	1.15	0.08
0	318.15	1.91	0.09
0.0884	298.15	1.29	0.09
0.0884	308.15	2.29	0.1
0.0884	318.15	3.59	0.12
0.1709	298.15	2.34	0.1
0.1709	308.15	3.67	0.12
0.1709	318.15	5.57	0.15
0.2443	298.15	2.94	0.11
0.2443	308.15	4.8	0.14
0.2443	318.15	7.74	0.18
0.2981	298.15	3.84	0.12
0.2981	308.15	6.17	0.16
0.2981	318.15	9.53	0.21
0.3763	298.15	5.18	0.15
0.3763	308.15	8.33	0.19
0.3763	318.15	12.94	0.26
0.4433	298.15	6.66	0.17
0.4433	308.15	10.57	0.23
0.4433	318.15	16.15	0.3
0.4888	298.15	8.07	0.19
0.4888	308.15	12.32	0.26
0.4888	318.15	18.76	0.35
0.5876	298.15	10.97	0.24
0.5876	308.15	17.09	0.33
0.5876	318.15	25.6	0.45
0.6839	298.15	14.75	0.3
0.6839	308.15	22.59	0.41
0.6839	318.15	33.62	0.56
0.7571	298.15	17.88	0.35
0.7571	308.15	27.02	0.47
0.7571	318.15	40.05	0.64
0.8005	298.15	19.81	0.38
0.8005	308.15	29.94	0.51
0.8005	318.15	43.91	0.69
0.8595	298.15	22.05	0.41
0.8595	308.15	33.06	0.55
0.8595	318.15	48.67	0.75
0.9074	298.15	23.87	0.44
0.9074	308.15	36.05	0.59
0.9074	318.15	51.85	0.79
0.9635	298.15	25.46	0.46
0.9635	308.15	38.55	0.63
0.9635	318.15	56.78	0.86
1	298.15	26.44	0.48
1	308.15	40.19	0.65
1	318.15	58.68	0.87
