Measured thermophysical data. Isobaric vapor liquid equilibrium for methyltrichlorosilane dimethyldichlorosilane benzene system
Source: Fluid Phase Equilib., 2006, 10.1016/j.fluid.2006.01.014
Compound 1: trichloromethylsilane, CH3Cl3Si, InChI=1S/CH3Cl3Si/c1-5(2,3)4/h1H3
Compound 2: dichlorodimethylsilane, C2H6Cl2Si, InChI=1S/C2H6Cl2Si/c1-5(2,3)4/h1-2H3
Compound 3: benzene, C6H6, InChI=1S/C6H6/c1-2-4-6-5-3-1/h1-6H

System: trichloromethylsilane; phases: Liquid, Gas
Property: Normal boiling temperature, K (Liquid); method: Ebulliometric method (Recirculating still)
Normal boiling temperature, K	uncertainty
339.5	0.2

System: dichlorodimethylsilane; phases: Liquid, Gas
Property: Normal boiling temperature, K (Liquid); method: Ebulliometric method (Recirculating still)
Normal boiling temperature, K	uncertainty
343.46	0.2

System: benzene; phases: Liquid, Gas
Property: Normal boiling temperature, K (Liquid); method: Ebulliometric method (Recirculating still)
Normal boiling temperature, K	uncertainty
353.16	0.2

System: benzene + dichlorodimethylsilane + trichloromethylsilane; phases: Liquid, Gas
Fixed: Pressure, kPa = 101.325
Property: Boiling temperature at pressure P, K (Liquid); method: Ebulliometric method (Recirculating still)
Mole fraction of trichloromethylsilane	Mole fraction of dichlorodimethylsilane	Boiling temperature at pressure P, K	uncertainty
0.0139	0.4713	347.71	0.2
0.0396	0.459	347.43	0.2
0.0643	0.4472	347.11	0.2
0.0886	0.4356	346.82	0.2
0.1082	0.4262	346.44	0.2
0.1283	0.4167	346.08	0.2
0.1493	0.4066	345.84	0.2
0.1683	0.3975	345.48	0.2
0.1861	0.389	345.18	0.2
0.2114	0.179	347.04	0.2
0.2202	0.145	347.38	0.2
0.2272	0.1179	347.72	0.2
0.2307	0.104	348.02	0.2
0.2394	0.0706	348.14	0.2
0.2461	0.0445	348.42	0.2
0.252	0.0214	348.79	0.2
0.3764	0.2469	343.49	0.2
0.3998	0.2623	343.13	0.2
0.4246	0.2785	342.64	0.2
0.4409	0.2892	342.18	0.2
0.4566	0.2955	342.02	0.2
0.4796	0.3146	341.57	0.2
0.505	0.3313	341.08	0.2
0.5381	0.353	340.43	0.2
0.5847	0.3836	339.94	0.2
