Measured thermophysical data. Physicochemical properties of 2-alkyl-1-ethylpyridinium based ionic liquids
Source: Fluid Phase Equilib., 2016, 10.1016/j.fluid.2016.05.030
Compound 1: 1,2-diethylpyridin-1-ium bis((trifluoromethyl)sulfonyl)imide, C11H14F6N2O4S2, InChI=1S/C9H14N.C2F6NO4S2/c1-3-9-7-5-6-8-10(9)4-2;3-1(4,5)14(10,11)9-15(12,13)2(6,7)8/h5-8H,3-4H2,1-2H3;/q+1;-1, purity 99%
Compound 2: 1-ethyl-2-propylpyridin-1-ium bis((trifluoromethyl)sulfonyl)imide, C12H16F6N2O4S2, InChI=1S/C10H16N.C2F6NO4S2/c1-3-7-10-8-5-6-9-11(10)4-2;3-1(4,5)14(10,11)9-15(12,13)2(6,7)8/h5-6,8-9H,3-4,7H2,1-2H3;/q+1;-1, purity 99%
Compound 3: 2-butyl-1-ethylpyridin-1-ium bis((trifluoromethyl)sulfonyl)imide, C13H18F6N2O4S2, InChI=1S/C11H18N.C2F6NO4S2/c1-3-5-8-11-9-6-7-10-12(11)4-2;3-1(4,5)14(10,11)9-15(12,13)2(6,7)8/h6-7,9-10H,3-5,8H2,1-2H3;/q+1;-1, purity 99%
Compound 4: 1-ethyl-2-pentylpyridin-1-ium bis((trifluoromethyl)sulfonyl)imide, C14H20F6N2O4S2, InChI=1S/C12H20N.C2F6NO4S2/c1-3-5-6-9-12-10-7-8-11-13(12)4-2;3-1(4,5)14(10,11)9-15(12,13)2(6,7)8/h7-8,10-11H,3-6,9H2,1-2H3;/q+1;-1, purity 99%
Compound 5: 1-ethyl-2-hexylpyridin-1-ium bis((trifluoromethyl)sulfonyl)imide, C15H22F6N2O4S2, InChI=1S/C13H22N.C2F6NO4S2/c1-3-5-6-7-10-13-11-8-9-12-14(13)4-2;3-1(4,5)14(10,11)9-15(12,13)2(6,7)8/h8-9,11-12H,3-7,10H2,1-2H3;/q+1;-1, purity 99%
Compound 6: 1-ethyl-2-heptylpyridin-1-ium bis((trifluoromethyl)sulfonyl)imide, C16H24F6N2O4S2, InChI=1S/C14H24N.C2F6NO4S2/c1-3-5-6-7-8-11-14-12-9-10-13-15(14)4-2;3-1(4,5)14(10,11)9-15(12,13)2(6,7)8/h9-10,12-13H,3-8,11H2,1-2H3;/q+1;-1, purity 99%
Compound 7: 1-ethyl-2-octylpyridin-1-ium bis((trifluoromethyl)sulfonyl)imide, C17H26F6N2O4S2, InChI=1S/C15H26N.C2F6NO4S2/c1-3-5-6-7-8-9-12-15-13-10-11-14-16(15)4-2;3-1(4,5)14(10,11)9-15(12,13)2(6,7)8/h10-11,13-14H,3-9,12H2,1-2H3;/q+1;-1, purity 99%
Compound 8: 1-ethyl-2-nonylpyridin-1-ium bis((trifluoromethyl)sulfonyl)imide, C18H28F6N2O4S2, InChI=1S/C16H28N.C2F6NO4S2/c1-3-5-6-7-8-9-10-13-16-14-11-12-15-17(16)4-2;3-1(4,5)14(10,11)9-15(12,13)2(6,7)8/h11-12,14-15H,3-10,13H2,1-2H3;/q+1;-1, purity 99%
Compound 9: 2-decyl-1-ethylpyridin-1-ium bis((trifluoromethyl)sulfonyl)imide, C19H30F6N2O4S2, InChI=1S/C17H30N.C2F6NO4S2/c1-3-5-6-7-8-9-10-11-14-17-15-12-13-16-18(17)4-2;3-1(4,5)14(10,11)9-15(12,13)2(6,7)8/h12-13,15-16H,3-11,14H2,1-2H3;/q+1;-1, purity 99%

System: 1,2-diethylpyridin-1-ium bis((trifluoromethyl)sulfonyl)imide; phases: Liquid
Property: Molar heat capacity at constant pressure, J/K/mol (Liquid); method: Drop calorimetry
Temperature, K	Pressure, kPa	Molar heat capacity at constant pressure, J/K/mol	uncertainty
298.15	101.325	566.1	13.2

System: 1,2-diethylpyridin-1-ium bis((trifluoromethyl)sulfonyl)imide; phases: Liquid
Fixed: Pressure, kPa = 101.325
Property: Mass density, kg/m3 (Liquid); method: Vibrating tube method
Temperature, K	Mass density, kg/m3	uncertainty
293.15	1475.5	1.2
298.15	1470.6	1.2
303.15	1465.8	1.2
308.15	1461.1	1.2
313.15	1456.3	1.2
318.15	1451.6	1.2
323.15	1446.9	1.2
328.15	1442.2	1.2
333.15	1437.5	1.1
338.15	1432.9	1.1
343.15	1428.3	1.1
348.15	1423.7	1.1
353.15	1419.1	1.1
358.15	1414.6	1.1
363.15	1410	1.1

System: 1,2-diethylpyridin-1-ium bis((trifluoromethyl)sulfonyl)imide; phases: Liquid
Fixed: Pressure, kPa = 101.325
Property: Viscosity, Pa*s (Liquid); method: Concentric cylinders viscometry
Temperature, K	Viscosity, Pa*s	uncertainty
293.15	0.08787	0.000821
298.15	0.068771	0.000475
303.15	0.054952	0.0003
308.15	0.044686	0.000275
313.15	0.036907	0.000226
318.15	0.030875	0.000189
323.15	0.02616	0.00016
328.15	0.022384	0.000136
333.15	0.019402	0.000118
338.15	0.016899	0.000103
343.15	0.014857	9.1e-05
348.15	0.013156	8e-05
353.15	0.011754	7.2e-05
358.15	0.010516	6.5e-05
363.15	0.0094826	5.85e-05

System: 1-ethyl-2-propylpyridin-1-ium bis((trifluoromethyl)sulfonyl)imide; phases: Liquid
Property: Molar heat capacity at constant pressure, J/K/mol (Liquid); method: Drop calorimetry
Temperature, K	Pressure, kPa	Molar heat capacity at constant pressure, J/K/mol	uncertainty
298.15	101.325	593.9	13.8

System: 1-ethyl-2-propylpyridin-1-ium bis((trifluoromethyl)sulfonyl)imide; phases: Liquid
Fixed: Pressure, kPa = 101.325
Property: Mass density, kg/m3 (Liquid); method: Vibrating tube method
Temperature, K	Mass density, kg/m3	uncertainty
293.15	1452	1.2
298.15	1447.2	1.2
303.15	1442.5	1.2
308.15	1437.8	1.1
313.15	1433.1	1.1
318.15	1428.4	1.1
323.15	1423.8	1.1
328.15	1419.2	1.1
333.15	1414.6	1.1
338.15	1410	1.1
343.15	1405.4	1.1
348.15	1400.9	1.1
353.15	1396.4	1.1
358.15	1391.9	1.1
363.15	1387.5	1.1

System: 1-ethyl-2-propylpyridin-1-ium bis((trifluoromethyl)sulfonyl)imide; phases: Liquid
Fixed: Pressure, kPa = 101.325
Property: Viscosity, Pa*s (Liquid); method: Concentric cylinders viscometry
Temperature, K	Viscosity, Pa*s	uncertainty
293.15	0.13989	0.00209
298.15	0.10502	0.00121
303.15	0.08109	0.000692
308.15	0.063904	0.000403
313.15	0.051366	0.000272
318.15	0.041805	0.000257
323.15	0.034572	0.000212
328.15	0.028962	0.000177
333.15	0.02459	0.00015
338.15	0.021005	0.000128
343.15	0.018151	0.000111
348.15	0.015824	9.7e-05
353.15	0.013938	8.5e-05
358.15	0.012297	7.5e-05
363.15	0.010947	6.7e-05

System: 2-butyl-1-ethylpyridin-1-ium bis((trifluoromethyl)sulfonyl)imide; phases: Liquid
Property: Molar heat capacity at constant pressure, J/K/mol (Liquid); method: Drop calorimetry
Temperature, K	Pressure, kPa	Molar heat capacity at constant pressure, J/K/mol	uncertainty
298.15	101.325	623.6	14.5

System: 2-butyl-1-ethylpyridin-1-ium bis((trifluoromethyl)sulfonyl)imide; phases: Liquid
Fixed: Pressure, kPa = 101.325
Property: Mass density, kg/m3 (Liquid); method: Vibrating tube method
Temperature, K	Mass density, kg/m3	uncertainty
293.15	1413.7	1.1
298.15	1409.1	1.1
303.15	1404.5	1.1
308.15	1400	1.1
313.15	1395.4	1.1
318.15	1390.9	1.1
323.15	1386.4	1.1
328.15	1381.9	1.1
333.15	1377.4	1.1
338.15	1373	1.1
343.15	1368.5	1.1
348.15	1364.1	1.1
353.15	1359.7	1.1
358.15	1355.4	1.1
363.15	1351	1.1

System: 2-butyl-1-ethylpyridin-1-ium bis((trifluoromethyl)sulfonyl)imide; phases: Liquid
Fixed: Pressure, kPa = 101.325
Property: Viscosity, Pa*s (Liquid); method: Concentric cylinders viscometry
Temperature, K	Viscosity, Pa*s	uncertainty
293.15	0.14684	0.00229
298.15	0.10982	0.00132
303.15	0.084492	0.000758
308.15	0.066343	0.000438
313.15	0.053173	0.000285
318.15	0.043107	0.000265
323.15	0.035545	0.000218
328.15	0.029704	0.000182
333.15	0.025144	0.000154
338.15	0.021416	0.000131
343.15	0.018455	0.000113
348.15	0.016039	9.8e-05
353.15	0.014087	8.6e-05
358.15	0.012393	7.6e-05
363.15	0.011004	6.8e-05

System: 1-ethyl-2-pentylpyridin-1-ium bis((trifluoromethyl)sulfonyl)imide; phases: Liquid
Property: Molar heat capacity at constant pressure, J/K/mol (Liquid); method: Drop calorimetry
Temperature, K	Pressure, kPa	Molar heat capacity at constant pressure, J/K/mol	uncertainty
298.15	101.325	652.7	15.2

System: 1-ethyl-2-pentylpyridin-1-ium bis((trifluoromethyl)sulfonyl)imide; phases: Liquid
Fixed: Pressure, kPa = 101.325
Property: Mass density, kg/m3 (Liquid); method: Vibrating tube method
Temperature, K	Mass density, kg/m3	uncertainty
293.15	1375.6	1.1
298.15	1371.1	1.1
303.15	1366.6	1.1
308.15	1362.2	1.1
313.15	1357.8	1.1
318.15	1353.4	1.1
323.15	1349	1.1
328.15	1344.6	1.1
333.15	1340.2	1.1
338.15	1335.8	1.1
343.15	1331.5	1.1
348.15	1327.1	1.1
353.15	1322.8	1.1
358.15	1318.6	1.1
363.15	1314.3	1.1

System: 1-ethyl-2-pentylpyridin-1-ium bis((trifluoromethyl)sulfonyl)imide; phases: Liquid
Fixed: Pressure, kPa = 101.325
Property: Viscosity, Pa*s (Liquid); method: Concentric cylinders viscometry
Temperature, K	Viscosity, Pa*s	uncertainty
293.15	0.14437	0.00222
298.15	0.10878	0.0013
303.15	0.083992	0.000748
308.15	0.066144	0.000435
313.15	0.053002	0.000284
318.15	0.043061	0.000265
323.15	0.035525	0.000218
328.15	0.029654	0.000181
333.15	0.02511	0.000153
338.15	0.021396	0.000131
343.15	0.018441	0.000113
348.15	0.016019	9.8e-05
353.15	0.014062	8.6e-05
358.15	0.012361	7.6e-05
363.15	0.010967	6.8e-05

System: 1-ethyl-2-hexylpyridin-1-ium bis((trifluoromethyl)sulfonyl)imide; phases: Liquid
Property: Molar heat capacity at constant pressure, J/K/mol (Liquid); method: Drop calorimetry
Temperature, K	Pressure, kPa	Molar heat capacity at constant pressure, J/K/mol	uncertainty
298.15	101.325	685.5	15.9

System: 1-ethyl-2-hexylpyridin-1-ium bis((trifluoromethyl)sulfonyl)imide; phases: Liquid
Fixed: Pressure, kPa = 101.325
Property: Mass density, kg/m3 (Liquid); method: Vibrating tube method
Temperature, K	Mass density, kg/m3	uncertainty
293.15	1348.7	1.1
298.15	1344.3	1.1
303.15	1339.9	1.1
308.15	1335.5	1.1
313.15	1331.2	1.1
318.15	1326.8	1.1
323.15	1322.5	1.1
328.15	1318.2	1.1
333.15	1313.9	1.1
338.15	1309.7	1.1
343.15	1305.6	1.1
348.15	1301.4	1.1
353.15	1297.1	1.1
358.15	1292.9	1.1
363.15	1288.8	1.1

System: 1-ethyl-2-hexylpyridin-1-ium bis((trifluoromethyl)sulfonyl)imide; phases: Liquid
Fixed: Pressure, kPa = 101.325
Property: Viscosity, Pa*s (Liquid); method: Concentric cylinders viscometry
Temperature, K	Viscosity, Pa*s	uncertainty
293.15	0.15982	0.00266
298.15	0.11941	0.00156
303.15	0.091773	0.000908
308.15	0.071934	0.000526
313.15	0.057525	0.000325
318.15	0.046514	0.000286
323.15	0.038222	0.000234
328.15	0.031826	0.000195
333.15	0.02687	0.000164
338.15	0.022802	0.000139
343.15	0.019591	0.00012
348.15	0.016977	0.000104
353.15	0.014864	9.1e-05
358.15	0.013036	8e-05
363.15	0.01154	7.1e-05

System: 1-ethyl-2-heptylpyridin-1-ium bis((trifluoromethyl)sulfonyl)imide; phases: Liquid
Property: Molar heat capacity at constant pressure, J/K/mol (Liquid); method: Drop calorimetry
Temperature, K	Pressure, kPa	Molar heat capacity at constant pressure, J/K/mol	uncertainty
298.15	101.325	717.5	16.7

System: 1-ethyl-2-heptylpyridin-1-ium bis((trifluoromethyl)sulfonyl)imide; phases: Liquid
Fixed: Pressure, kPa = 101.325
Property: Mass density, kg/m3 (Liquid); method: Vibrating tube method
Temperature, K	Mass density, kg/m3	uncertainty
293.15	1325.1	1.1
298.15	1320.8	1.1
303.15	1316.5	1.1
308.15	1312.2	1.1
313.15	1307.9	1.1
318.15	1303.6	1.1
323.15	1299.4	1.1
328.15	1295.2	1.1
333.15	1290.9	1.1
338.15	1286.7	1.1
343.15	1282.5	1.1
348.15	1278.3	1.1
353.15	1274.2	1.1
358.15	1270.1	1.1
363.15	1266	1.1

System: 1-ethyl-2-heptylpyridin-1-ium bis((trifluoromethyl)sulfonyl)imide; phases: Liquid
Fixed: Pressure, kPa = 101.325
Property: Viscosity, Pa*s (Liquid); method: Concentric cylinders viscometry
Temperature, K	Viscosity, Pa*s	uncertainty
293.15	0.18053	0.00329
298.15	0.1341	0.00194
303.15	0.10247	0.00115
308.15	0.079904	0.000668
313.15	0.063598	0.000398
318.15	0.051171	0.000271
323.15	0.041881	0.000257
328.15	0.034727	0.000212
333.15	0.029212	0.000178
338.15	0.024709	0.000151
343.15	0.021156	0.000129
348.15	0.018279	0.000112
353.15	0.015968	9.8e-05
358.15	0.013972	8.6e-05
363.15	0.012341	7.6e-05

System: 1-ethyl-2-octylpyridin-1-ium bis((trifluoromethyl)sulfonyl)imide; phases: Liquid
Property: Molar heat capacity at constant pressure, J/K/mol (Liquid); method: Drop calorimetry
Temperature, K	Pressure, kPa	Molar heat capacity at constant pressure, J/K/mol	uncertainty
298.15	101.325	749.4	17.4

System: 1-ethyl-2-octylpyridin-1-ium bis((trifluoromethyl)sulfonyl)imide; phases: Liquid
Fixed: Pressure, kPa = 101.325
Property: Mass density, kg/m3 (Liquid); method: Vibrating tube method
Temperature, K	Mass density, kg/m3	uncertainty
293.15	1301.7	1.1
298.15	1297.4	1.1
303.15	1293.2	1.1
308.15	1289	1.1
313.15	1284.8	1.1
318.15	1280.6	1.1
323.15	1276.4	1.1
328.15	1272.3	1.1
333.15	1268.1	1.1
338.15	1264	1.1
343.15	1259.9	1.1
348.15	1255.8	1.1
353.15	1251.7	1.1
358.15	1247.6	1.1
363.15	1243.6	1.1

System: 1-ethyl-2-octylpyridin-1-ium bis((trifluoromethyl)sulfonyl)imide; phases: Liquid
Fixed: Pressure, kPa = 101.325
Property: Viscosity, Pa*s (Liquid); method: Concentric cylinders viscometry
Temperature, K	Viscosity, Pa*s	uncertainty
293.15	0.21619	0.00444
298.15	0.15929	0.00265
303.15	0.12076	0.00159
308.15	0.09345	0.000943
313.15	0.073883	0.000558
318.15	0.059	0.00034
323.15	0.047971	0.000295
328.15	0.03954	0.000242
333.15	0.033065	0.000202
338.15	0.027821	0.00017
343.15	0.023706	0.000145
348.15	0.020385	0.000124
353.15	0.017717	0.000108
358.15	0.015436	9.4e-05
363.15	0.01358	8.3e-05

System: 1-ethyl-2-nonylpyridin-1-ium bis((trifluoromethyl)sulfonyl)imide; phases: Liquid
Property: Molar heat capacity at constant pressure, J/K/mol (Liquid); method: Drop calorimetry
Temperature, K	Pressure, kPa	Molar heat capacity at constant pressure, J/K/mol	uncertainty
298.15	101.325	778.5	18.1

System: 2-decyl-1-ethylpyridin-1-ium bis((trifluoromethyl)sulfonyl)imide; phases: Liquid
Property: Molar heat capacity at constant pressure, J/K/mol (Liquid); method: Drop calorimetry
Temperature, K	Pressure, kPa	Molar heat capacity at constant pressure, J/K/mol	uncertainty
298.15	101.325	811.2	18.9
