Measured thermophysical data. Solubility of CO2 in glycerol at high pressures
Source: Fluid Phase Equilib., 2013, 10.1016/j.fluid.2013.07.051
Compound 1: carbon dioxide, CO2, InChI=1S/CO2/c2-1-3, purity 99.998%
Compound 2: glycerol, C3H8O3, InChI=1S/C3H8O3/c4-1-3(6)2-5/h3-6H,1-2H2

System: glycerol + carbon dioxide; phases: Liquid, Gas
Property: Vapor or sublimation pressure, kPa (Liquid); method: Closed cell (Static) method
Temperature, K	Mole fraction of carbon dioxide	Vapor or sublimation pressure, kPa	uncertainty
353.2	0.019	6550	140
353.2	0.03	7350	140
353.2	0.045	9660	150
353.2	0.075	22630	160
353.2	0.089	25580	160
393.2	0.019	4210	140
393.2	0.03	9500	140
393.2	0.041	13280	150
393.2	0.062	17240	160
393.2	0.075	23850	160
393.2	0.089	27760	170
423.2	0.019	4890	140
423.2	0.031	13940	150
423.2	0.045	18520	160
423.2	0.062	24120	170
423.2	0.075	29250	180
423.2	0.089	31750	180
