Measured thermophysical data. The thermodynamic properties of 1-alkenes in the liquid state: 1-Hexadecene
Source: Fluid Phase Equilib., 2006, 10.1016/j.fluid.2006.01.027
Compound 1: 1-hexadecene, C16H32, InChI=1S/C16H32/c1-3-5-7-9-11-13-15-16-14-12-10-8-6-4-2/h3H,1,4-16H2,2H3, purity 99%

System: 1-hexadecene; phases: Liquid
Property: Speed of sound, m/s (Liquid); method: Pulse-echo method
Pressure, kPa	Temperature, K	Speed of sound, m/s	uncertainty
100	303.15	1314.4	2.9
100	313.15	1278.1	2.9
100	323.15	1242.5	2.8
100	333.15	1207.6	2.8
100	343.15	1173.2	2.7
100	353.15	1139.5	2.6
100	363.15	1106.4	2.6
100	373.15	1073.8	2.5
100	383.15	1041.7	2.5
100	393.15	1010.2	2.4
100	403.15	979.2	2.4
100	413.15	948.7	2.4
100	423.15	918.8	2.3
100	433.15	889.2	2.3
2500	303.15	1327.9	3
2500	313.15	1292.1	2.9
2500	323.15	1257.1	2.8
2500	333.15	1222.7	2.8
2500	343.15	1188.9	2.7
2500	353.15	1155.8	2.7
2500	363.15	1123.3	2.6
2500	373.15	1091.4	2.6
2500	383.15	1060.1	2.5
2500	393.15	1029.3	2.5
2500	403.15	999.1	2.4
2500	413.15	969.4	2.4
2500	423.15	940.3	2.4
2500	433.15	911.7	2.3
5000	303.15	1341.7	3
5000	313.15	1306.4	2.9
5000	323.15	1271.9	2.9
5000	333.15	1238	2.8
5000	343.15	1204.9	2.7
5000	353.15	1172.3	2.7
5000	363.15	1140.5	2.6
5000	373.15	1109.2	2.6
5000	383.15	1078.6	2.5
5000	393.15	1048.5	2.5
5000	403.15	1019	2.4
5000	413.15	990.1	2.4
5000	423.15	961.8	2.4
5000	433.15	934	2.3
10000	303.15	1368.2	3
10000	313.15	1333.9	3
10000	323.15	1300.3	2.9
10000	333.15	1267.5	2.9
10000	343.15	1235.4	2.8
10000	353.15	1204	2.7
10000	363.15	1173.2	2.7
10000	373.15	1143.1	2.6
10000	383.15	1113.6	2.6
10000	393.15	1084.8	2.5
10000	403.15	1056.6	2.5
10000	413.15	1029	2.5
10000	423.15	1002	2.4
10000	433.15	975.7	2.4
15000	303.15	1393.7	3.1
15000	313.15	1360.2	3
15000	323.15	1327.5	3
15000	333.15	1295.6	2.9
15000	343.15	1264.4	2.8
15000	353.15	1233.9	2.8
15000	363.15	1204.1	2.7
15000	373.15	1175	2.7
15000	383.15	1146.5	2.6
15000	393.15	1118.8	2.6
15000	403.15	1091.6	2.6
15000	413.15	1065.2	2.5
15000	423.15	1039.3	2.5
15000	433.15	1014.1	2.4
20000	303.15	1418.2	3.1
20000	313.15	1385.5	3.1
20000	323.15	1353.6	3
20000	333.15	1322.4	2.9
20000	343.15	1292.1	2.9
20000	353.15	1262.4	2.8
20000	363.15	1233.5	2.8
20000	373.15	1205.2	2.7
20000	383.15	1177.7	2.7
20000	393.15	1150.8	2.6
20000	403.15	1124.6	2.6
20000	413.15	1099	2.6
20000	423.15	1074.1	2.5
20000	433.15	1049.8	2.5
30000	303.15	1464.6	3.2
30000	313.15	1433.2	3.1
30000	323.15	1402.7	3.1
30000	333.15	1372.9	3
30000	343.15	1343.9	3
30000	353.15	1315.7	2.9
30000	363.15	1288.2	2.9
30000	373.15	1261.4	2.8
30000	383.15	1235.3	2.8
30000	393.15	1209.9	2.7
30000	403.15	1185.2	2.7
30000	413.15	1161.2	2.7
30000	423.15	1137.8	2.6
30000	433.15	1115	2.6
40000	303.15	1508	3.3
40000	313.15	1477.8	3.2
40000	323.15	1448.4	3.2
40000	333.15	1419.8	3.1
40000	343.15	1392	3.1
40000	353.15	1364.9	3
40000	363.15	1338.6	3
40000	373.15	1313	2.9
40000	383.15	1288.1	2.9
40000	393.15	1263.8	2.8
40000	403.15	1240.3	2.8
40000	413.15	1217.4	2.7
40000	423.15	1195.2	2.7
40000	433.15	1173.6	2.7
60000	303.15	1587.7	3.4
60000	313.15	1559.3	3.4
60000	323.15	1531.8	3.3
60000	333.15	1505.1	3.3
60000	343.15	1479.1	3.2
60000	353.15	1453.9	3.2
60000	363.15	1429.4	3.1
60000	373.15	1405.5	3.1
60000	383.15	1382.4	3
60000	393.15	1360	3
60000	403.15	1338.2	3
60000	413.15	1317	2.9
60000	423.15	1296.5	2.9
60000	433.15	1276.6	2.8
80000	303.15	1659.7	3.6
80000	313.15	1632.8	3.5
80000	323.15	1606.8	3.5
80000	333.15	1581.5	3.4
80000	343.15	1556.9	3.4
80000	353.15	1533.1	3.3
80000	363.15	1510	3.3
80000	373.15	1487.6	3.2
80000	383.15	1465.8	3.2
80000	393.15	1444.6	3.2
80000	403.15	1424.1	3.1
80000	413.15	1404.2	3.1
80000	423.15	1384.9	3
80000	433.15	1366.2	3
100000	303.15	1725.7	3.7
100000	313.15	1700	3.6
100000	323.15	1675.2	3.6
100000	333.15	1651.1	3.5
100000	343.15	1627.7	3.5
100000	353.15	1605	3.5
100000	363.15	1583	3.4
100000	373.15	1561.6	3.4
100000	383.15	1540.9	3.3
100000	393.15	1520.8	3.3
100000	403.15	1501.3	3.3
100000	413.15	1482.4	3.2
100000	423.15	1464	3.2
100000	433.15	1446.2	3.2
