Measured thermophysical data. Thermophysical study of 2-acetylthiophene: Experimental and modelled results
Source: Fluid Phase Equilib., 2017, 10.1016/j.fluid.2016.10.026
Compound 1: 2-acetylthiophene, C6H6OS, InChI=1S/C6H6OS/c1-5(7)6-3-2-4-8-6/h2-4H,1H3, purity 99.6%

System: 2-acetylthiophene; phases: Liquid
Property: Mass density, kg/m3 (Liquid); method: Vibrating tube method
Pressure, kPa	Temperature, K	Mass density, kg/m3	uncertainty
100	283.15	1180.61	0.24
100	288.15	1175.97	0.24
100	293.15	1171	0.24
100	298.15	1166.24	0.24
100	303.15	1161.59	0.24
100	308.15	1156.84	0.24
100	313.15	1152.05	0.23
100	318.15	1147.15	0.23
100	323.15	1142.34	0.23
100	328.15	1137.56	0.23
100	333.15	1132.76	0.23
100	338.15	1127.97	0.23
2000	283.15	1181.78	0.25
2000	288.15	1177.04	0.25
2000	293.15	1172.28	0.25
2000	298.15	1167.52	0.24
2000	303.15	1162.77	0.24
2000	308.15	1158.03	0.24
2000	313.15	1153.3	0.24
2000	318.15	1148.56	0.24
2000	323.15	1143.79	0.24
2000	328.15	1139.02	0.24
2000	333.15	1134.24	0.24
2000	338.15	1129.47	0.23
5000	283.15	1183.44	0.26
5000	288.15	1178.73	0.26
5000	293.15	1174.02	0.26
5000	298.15	1169.28	0.26
5000	303.15	1164.6	0.25
5000	308.15	1159.89	0.25
5000	313.15	1155.19	0.25
5000	318.15	1150.49	0.25
5000	323.15	1145.78	0.25
5000	328.15	1141.06	0.25
5000	333.15	1136.33	0.24
5000	338.15	1131.61	0.24
7000	283.15	1184.54	0.27
7000	288.15	1179.85	0.27
7000	293.15	1175.16	0.27
7000	298.15	1170.46	0.26
7000	303.15	1165.79	0.26
7000	308.15	1161.11	0.26
7000	313.15	1156.45	0.26
7000	318.15	1151.77	0.26
7000	323.15	1147.09	0.25
7000	328.15	1142.39	0.25
7000	333.15	1137.7	0.25
7000	338.15	1133.01	0.25
10000	283.15	1186.17	0.28
10000	288.15	1181.52	0.28
10000	293.15	1176.85	0.28
10000	298.15	1172.2	0.28
10000	303.15	1167.56	0.27
10000	308.15	1162.92	0.27
10000	313.15	1158.29	0.27
10000	318.15	1153.65	0.27
10000	323.15	1149.02	0.26
10000	328.15	1144.38	0.26
10000	333.15	1139.72	0.26
10000	338.15	1135.08	0.26
15000	283.15	1188.81	0.31
15000	288.15	1184.21	0.31
15000	293.15	1179.61	0.3
15000	298.15	1175.02	0.3
15000	303.15	1170.45	0.3
15000	308.15	1165.87	0.29
15000	313.15	1161.33	0.29
15000	318.15	1156.74	0.29
15000	323.15	1152.17	0.28
15000	328.15	1147.6	0.28
15000	333.15	1143.11	0.28
15000	338.15	1138.55	0.28
20000	283.15	1191.4	0.34
20000	288.15	1186.85	0.33
20000	293.15	1182.3	0.33
20000	298.15	1177.77	0.33
20000	303.15	1173.26	0.32
20000	308.15	1168.75	0.32
20000	313.15	1164.23	0.31
20000	318.15	1159.72	0.31
20000	323.15	1155.23	0.31
20000	328.15	1150.78	0.3
20000	333.15	1146.25	0.3
20000	338.15	1141.78	0.29
25000	283.15	1193.92	0.37
25000	288.15	1189.43	0.36
25000	293.15	1184.93	0.36
25000	298.15	1180.44	0.35
25000	303.15	1175.98	0.35
25000	308.15	1171.53	0.34
25000	313.15	1167.08	0.34
25000	318.15	1162.64	0.33
25000	323.15	1158.22	0.33
25000	328.15	1153.79	0.33
25000	333.15	1149.39	0.32
25000	338.15	1144.86	0.32
30000	283.15	1196.37	0.4
30000	288.15	1191.93	0.4
30000	293.15	1187.48	0.39
30000	298.15	1183.06	0.38
30000	303.15	1178.65	0.38
30000	308.15	1174.24	0.37
30000	313.15	1169.85	0.37
30000	318.15	1165.47	0.36
30000	323.15	1161.08	0.36
30000	328.15	1156.77	0.35
30000	333.15	1152.35	0.35
30000	338.15	1147.94	0.34
35000	283.15	1198.77	0.43
35000	288.15	1194.37	0.43
35000	293.15	1189.98	0.42
35000	298.15	1185.59	0.42
35000	303.15	1181.25	0.41
35000	308.15	1176.89	0.4
35000	313.15	1172.56	0.4
35000	318.15	1168.21	0.39
35000	323.15	1163.89	0.38
35000	328.15	1159.56	0.38
35000	333.15	1155.23	0.37
35000	338.15	1150.94	0.37
40000	283.15	1201.11	0.47
40000	288.15	1196.76	0.46
40000	293.15	1192.41	0.46
40000	298.15	1188.08	0.45
40000	303.15	1183.77	0.44
40000	308.15	1179.46	0.43
40000	313.15	1175.19	0.43
40000	318.15	1170.9	0.42
40000	323.15	1166.63	0.41
40000	328.15	1162.34	0.41
40000	333.15	1158.08	0.4
40000	338.15	1153.82	0.39
45000	283.15	1203.39	0.51
45000	288.15	1199.09	0.5
45000	293.15	1194.78	0.49
45000	298.15	1190.5	0.48
45000	303.15	1186.24	0.48
45000	308.15	1181.98	0.47
45000	313.15	1177.74	0.46
45000	318.15	1173.5	0.45
45000	323.15	1169.28	0.44
45000	328.15	1165.07	0.44
45000	333.15	1160.83	0.43
45000	338.15	1156.64	0.42
50000	293.15	1197.1	0.53
50000	298.15	1192.87	0.52
50000	303.15	1188.64	0.51
50000	308.15	1184.43	0.5
50000	313.15	1180.24	0.49
50000	318.15	1176.04	0.48
50000	323.15	1171.88	0.48
50000	328.15	1167.69	0.47
50000	333.15	1163.52	0.46
50000	338.15	1159.38	0.45
55000	293.15	1199.35	0.58
55000	298.15	1195.17	0.57
55000	303.15	1190.99	0.56
55000	308.15	1186.82	0.55
55000	313.15	1182.67	0.53
55000	318.15	1178.53	0.52
55000	323.15	1174.4	0.51
55000	328.15	1170.28	0.5
55000	333.15	1166.14	0.49
55000	338.15	1162.04	0.48
60000	293.15	1201.56	0.62
60000	298.15	1197.42	0.61
60000	303.15	1193.27	0.6
60000	308.15	1189.15	0.59
60000	313.15	1185.04	0.58
60000	318.15	1180.93	0.57
60000	323.15	1176.86	0.55
60000	328.15	1172.79	0.54
60000	333.15	1168.68	0.53
60000	338.15	1164.64	0.52
65000	293.15	1203.71	0.67
65000	298.15	1199.61	0.66
65000	303.15	1195.5	0.64
65000	308.15	1191.41	0.63
65000	313.15	1187.36	0.62
65000	318.15	1183.29	0.61
65000	323.15	1179.25	0.6
65000	328.15	1175.21	0.58
65000	333.15	1171.17	0.57
65000	338.15	1167.11	0.56

System: 2-acetylthiophene; phases: Liquid
Fixed: Pressure, kPa = 101
Property: Mass density, kg/m3 (Liquid); method: Vibrating tube method
Temperature, K	Mass density, kg/m3	uncertainty
278.15	1185.43	0.17
280.65	1183.04	0.17
283.15	1180.64	0.17
285.65	1178.25	0.17
288.15	1175.86	0.16
290.65	1173.47	0.16
293.15	1171.07	0.16
295.65	1168.68	0.16
298.15	1166.29	0.16
300.65	1163.91	0.16
303.15	1161.52	0.16
305.65	1159.13	0.16
308.15	1156.74	0.16
310.65	1154.35	0.16
313.15	1151.96	0.16
315.65	1149.57	0.16
318.15	1147.18	0.16
320.65	1144.79	0.15
323.15	1142.39	0.15
325.65	1140	0.15
328.15	1137.61	0.15
330.65	1135.21	0.15
333.15	1132.81	0.15
335.65	1130.41	0.15
338.15	1128.01	0.15

System: 2-acetylthiophene; phases: Liquid
Fixed: Pressure, kPa = 101
Fixed: Frequency, MHz = 3
Property: Speed of sound, m/s (Liquid); method: Sing-around technique in a fixed-path interferometer
Temperature, K	Speed of sound, m/s	uncertainty
278.15	1538.32	0.94
280.65	1529.71	0.94
283.15	1521.22	0.93
285.65	1512.7	0.93
288.15	1503.86	0.93
290.65	1495.02	0.93
293.15	1486.29	0.93
295.65	1477.76	0.92
298.15	1469.02	0.92
300.65	1460.48	0.92
303.15	1451.85	0.92
305.65	1443.23	0.91
308.15	1434.75	0.91
310.65	1426.11	0.91
313.15	1417.54	0.91
315.65	1408.95	0.91
318.15	1400.28	0.9
320.65	1391.8	0.9
323.15	1383.36	0.9
325.65	1374.95	0.9
328.15	1366.54	0.9
330.65	1358.12	0.89
333.15	1349.53	0.89
335.65	1340.79	0.89
338.15	1332.21	0.89

System: 2-acetylthiophene; phases: Liquid
Fixed: Pressure, kPa = 101
Property: Refractive index (Na D-line) (Liquid); method: Standard Abbe refractometry
Temperature, K	Refractive index (Na D-line)	uncertainty
283.15	1.5705	0.0003
285.65	1.5692	0.0003
288.15	1.568	0.0003
290.65	1.567	0.0003
293.15	1.5658	0.0003
295.65	1.5646	0.0003
298.15	1.5633	0.0003
300.65	1.5622	0.0003
303.15	1.5609	0.0003
305.65	1.5599	0.0003
308.15	1.5586	0.0003
310.65	1.5573	0.0003
313.15	1.5562	0.0003
315.65	1.555	0.0003
318.15	1.5538	0.0003
320.65	1.5526	0.0003
323.15	1.5514	0.0003
325.65	1.5502	0.0003
328.15	1.549	0.0003
330.65	1.548	0.0003
333.15	1.5468	0.0003
335.65	1.5455	0.0003
338.15	1.5443	0.0003

System: 2-acetylthiophene; phases: Liquid
Fixed: Pressure, kPa = 101
Property: Relative permittivity at zero frequency (Liquid); method: capacitive
Temperature, K	Relative permittivity at zero frequency	uncertainty
278.15	32.38	0.32
280.65	32.01	0.32
283.15	31.64	0.32
285.65	31.28	0.31
288.15	30.87	0.31
290.65	30.47	0.3
293.15	29.94	0.3
295.65	29.69	0.3
298.15	29.19	0.29
300.65	28.92	0.29
303.15	28.47	0.28
305.65	28.14	0.28
308.15	27.76	0.28
310.65	27.43	0.27
313.15	27.05	0.27
315.65	26.75	0.27
318.15	26.32	0.26
320.65	25.95	0.26
323.15	25.68	0.26
325.65	25.33	0.25
328.15	25.02	0.25
330.65	24.7	0.25
333.15	24.33	0.24
335.65	23.98	0.24
338.15	23.6	0.24

System: 2-acetylthiophene; phases: Liquid
Fixed: Pressure, kPa = 101
Property: Kinematic viscosity, m2/s (Liquid); method: Capillary tube (Ostwald; Ubbelohde) method
Temperature, K	Kinematic viscosity, m2/s	uncertainty
278.15	3.702e-06	4.2e-08
280.65	3.441e-06	3.9e-08
283.15	3.206e-06	3.7e-08
285.65	3e-06	3.4e-08
288.15	2.808e-06	3.2e-08
290.65	2.637e-06	3e-08
293.15	2.514e-06	2.9e-08
295.65	2.346e-06	2.7e-08
298.15	2.219e-06	2.5e-08
300.65	2.1e-06	2.4e-08
303.15	1.994e-06	2.3e-08
305.65	1.897e-06	2.2e-08
308.15	1.807e-06	2.1e-08
310.65	1.724e-06	2e-08
313.15	1.648e-06	1.9e-08
315.65	1.578e-06	1.8e-08
318.15	1.512e-06	1.7e-08
320.65	1.451e-06	1.7e-08
323.15	1.394e-06	1.6e-08
325.65	1.341e-06	1.6e-08
328.15	1.291e-06	1.5e-08
330.65	1.245e-06	1.4e-08
333.15	1.201e-06	1.4e-08
335.65	1.16e-06	1.3e-08
338.15	1.121e-06	1.3e-08

System: 2-acetylthiophene; phases: Liquid, Gas
Property: Vapor or sublimation pressure, kPa (Liquid); method: Ebulliometric method (Recirculating still)
Temperature, K	Vapor or sublimation pressure, kPa	uncertainty
336.16	0.305	0.1
340.77	0.4	0.1
342.94	0.45	0.1
345.74	0.54	0.1
350.41	0.69	0.1
356.58	0.955	0.1
362.84	1.295	0.1
365.84	1.545	0.1
371.37	2.02	0.1
376.26	2.52	0.1
383.49	3.53	0.1
389.55	4.545	0.1
394.16	5.5	0.1
400.53	7.065	0.1
407.19	9.015	0.101
412.74	11.05	0.101
417.12	13.015	0.101
421.69	15.195	0.101
423.25	15.99	0.101
426.08	17.63	0.101
429.93	20.045	0.102
433.16	22.2	0.102
435.59	24.035	0.102
438.37	26.19	0.102
440.66	28.125	0.103
442.49	29.805	0.103
445.02	32.16	0.103

System: 2-acetylthiophene; phases: Liquid, Air at 1 atmosphere
Property: Surface tension liquid-gas, N/m (Liquid); method: Drop volume
Temperature, K	Surface tension liquid-gas, N/m	uncertainty
278.15	0.04541	0.0005
280.65	0.04514	0.0005
283.15	0.04483	0.00049
285.65	0.04458	0.00049
288.15	0.04431	0.00049
290.65	0.04401	0.00048
293.15	0.04373	0.00048
295.65	0.04346	0.00048
298.15	0.04316	0.00047
300.65	0.04286	0.00047
303.15	0.04259	0.00047
305.65	0.04231	0.00047
308.15	0.04203	0.00046
310.65	0.04172	0.00046
313.15	0.04143	0.00046
315.65	0.04114	0.00045
318.15	0.04087	0.00045
320.65	0.04058	0.00045
323.15	0.04027	0.00044
325.65	0.03997	0.00044
328.15	0.0397	0.0004
330.65	0.03943	0.00044
333.15	0.03912	0.00043
335.65	0.03888	0.00043
338.15	0.03858	0.00043
