Measured thermophysical data. Solubility measurement of a pigment (Phthalocyanine green) in supercritical carbon dioxide: Experimental correlations and thermodynamic modeling
Source: Fluid Phase Equilib., 2019, 10.1016/j.fluid.2019.04.024
Compound 1: copper(II) hexadecachlorophthalocyanine, C32Cl16CuN8, InChI=1S/C32Cl16N8.Cu/c33-9-1-2(10(34)18(42)17(9)41)26-49-25(1)53-27-3-4(12(36)20(44)19(43)11(3)35)29(50-27)55-31-7-8(16(40)24(48)23(47)15(7)39)32(52-31)56-30-6-5(28(51-30)54-26)13(37)21(45)22(46)14(6)38;/q-2;+2, purity 98%
Compound 2: carbon dioxide, CO2, InChI=1S/CO2/c2-1-3, purity 99.99%

System: copper(II) hexadecachlorophthalocyanine + carbon dioxide; phases: Fluid (supercritical or subcritical phases), Crystal
Property: Mole fraction of carbon dioxide (Fluid (supercritical or subcritical phases)); method: PHEQ:UFactor:16
Temperature, K	Pressure, kPa	Mole fraction of carbon dioxide	uncertainty
308.15	10000	8.2e-06	4.9e-07
308.15	15000	1.74e-05	8.38e-07
308.15	20000	3.41e-05	1.422e-06
308.15	25000	4.21e-05	2.013e-06
308.15	30000	6.42e-05	2.486e-06
308.15	35000	7.37e-05	2.807e-06
318.15	10000	3.1e-06	4.05e-07
318.15	15000	1.38e-05	7.56e-07
318.15	20000	3.07e-05	1.33e-06
318.15	25000	4.77e-05	2.143e-06
318.15	30000	7.43e-05	2.944e-06
318.15	35000	9.74e-05	3.869e-06
328.15	10000	1.4e-06	4.11e-07
328.15	15000	1.17e-05	6.54e-07
328.15	20000	2.56e-05	1.406e-06
328.15	25000	6.31e-05	2.651e-06
328.15	30000	8.66e-05	3.341e-06
328.15	35000	0.0001066	4.065e-06
338.15	10000	1e-07	1e-07
338.15	15000	7.2e-06	4.68e-07
338.15	20000	1.91e-05	1.547e-06
338.15	25000	6.59e-05	2.863e-06
338.15	30000	9.31e-05	3.636e-06
338.15	35000	0.0001212	6.463e-06
