Measured thermophysical data. High-pressure phase behaviour of binary (CO2 + nicotine) and ternary (CO2 + nicotine + solanesol) mixtures
Source: Fluid Phase Equilib., 2009, 10.1016/j.fluid.2009.04.008
Compound 1: (-)-3-(N-methylpyrrolidino)pyridine, C10H14N2, InChI=1S/C10H14N2/c1-12-7-3-5-10(12)9-4-2-6-11-8-9/h2,4,6,8,10H,3,5,7H2,1H3/t10-/m0/s1
Compound 2: Solanesol, C45H74O, InChI=1S/C45H74O/c1-37(2)19-11-20-38(3)21-12-22-39(4)23-13-24-40(5)25-14-26-41(6)27-15-28-42(7)29-16-30-43(8)31-17-32-44(9)33-18-34-45(10)35-36-46/h19,21,23,25,27,29,31,33,35,46H,11-18,20,22,24,26,28,30,32,34,36H2,1-10H3/b38-21+,39-23+,40-25+,41-27+,42-29+,43-31+,44-33+,45-35+
Compound 3: carbon dioxide, CO2, InChI=1S/CO2/c2-1-3

System: (-)-3-(N-methylpyrrolidino)pyridine + carbon dioxide; phases: Gas, Liquid mixture 1, Liquid mixture 2
Property: Vapor or sublimation pressure, kPa (Gas); method: Closed cell (Static) method
Temperature, K	Vapor or sublimation pressure, kPa	uncertainty
313.2	8370	90

System: (-)-3-(N-methylpyrrolidino)pyridine + carbon dioxide; phases: Liquid mixture 1, Liquid mixture 2
Fixed: Temperature, K = 313.2
Property: Mole fraction of carbon dioxide (Liquid mixture 1); method: Chromatography
Pressure, kPa	Mole fraction of carbon dioxide	uncertainty
8490	0.9951	0.0045
8540	0.9792	0.0092
8550	0.9517	0.0091
8600	0.924	0.0078

System: (-)-3-(N-methylpyrrolidino)pyridine + carbon dioxide; phases: Liquid mixture 1, Liquid mixture 2, Gas
Property: Mole fraction of carbon dioxide (Liquid mixture 1); method: Chromatography
Temperature, K	Mole fraction of carbon dioxide	uncertainty
313.2	0.8863	0.0018

System: (-)-3-(N-methylpyrrolidino)pyridine + carbon dioxide; phases: Liquid mixture 2, Liquid mixture 1, Gas
Property: Mole fraction of carbon dioxide (Liquid mixture 2); method: Chromatography
Temperature, K	Mole fraction of carbon dioxide	uncertainty
313.2	0.97	0.0016

System: (-)-3-(N-methylpyrrolidino)pyridine + carbon dioxide; phases: Gas, Liquid mixture 1, Liquid mixture 2
Property: Mole fraction of carbon dioxide (Gas); method: Chromatography
Temperature, K	Mole fraction of carbon dioxide	uncertainty
313.2	0.9978	0.0008

System: (-)-3-(N-methylpyrrolidino)pyridine + carbon dioxide; phases: Gas, Liquid
Fixed: Temperature, K = 313.2
Property: Vapor or sublimation pressure, kPa (Gas); method: Closed cell (Static) method
Mole fraction of carbon dioxide	Vapor or sublimation pressure, kPa	uncertainty
0.6521	5950	70
0.7435	7100	80
0.7713	7490	80
0.8512	8090	90
0.871	8240	90

System: (-)-3-(N-methylpyrrolidino)pyridine + carbon dioxide; phases: Liquid, Gas
Property: Boiling temperature at pressure P, K (Liquid); method: UNKNOWN
Mole fraction of (-)-3-(N-methylpyrrolidino)pyridine	Pressure, kPa	Boiling temperature at pressure P, K	uncertainty
0.0018	8000	312.2	1.6
0.002	8000	312.2	1.6
0.0027	6000	312.2	1.6
0.0032	6000	312.2	1.6
0.0064	15000	312.2	1.6

System: (-)-3-(N-methylpyrrolidino)pyridine + carbon dioxide; phases: Gas, Liquid
Fixed: Temperature, K = 313.2
Property: Mole fraction of carbon dioxide (Gas); method: Chromatography
Mole fraction of carbon dioxide	Mole fraction of carbon dioxide	uncertainty
0.6521	0.9994	0.0006
0.7435	0.9991	0.0009
0.7713	0.9989	0.0011
0.8512	0.9983	0.0016
0.871	0.9983	0.0016

System: carbon dioxide + Solanesol; phases: Gas, Liquid
Fixed: Temperature, K = 313.2
Property: Vapor or sublimation pressure, kPa (Gas); method: Closed cell (Static) method
Mole fraction of carbon dioxide	Vapor or sublimation pressure, kPa	uncertainty
0.0222	6000	1000
0.0362	8000	1000
0.0542	15000	1000

System: carbon dioxide + Solanesol; phases: Gas, Liquid
Fixed: Temperature, K = 313.2
Property: Mole fraction of carbon dioxide (Gas); method: Chromatography
Mole fraction of carbon dioxide	Mole fraction of carbon dioxide	uncertainty
0.0222	0.9997	0.0003
0.0362	0.9997	0.0003
0.0542	0.9996	0.0004

System: (-)-3-(N-methylpyrrolidino)pyridine + carbon dioxide + Solanesol; phases: Liquid, Gas
Fixed: Temperature, K = 312.2
Property: Mole fraction of (-)-3-(N-methylpyrrolidino)pyridine (Liquid); method: Chromatography
Property: Mole fraction of (-)-3-(N-methylpyrrolidino)pyridine (Gas); method: Chromatography
Property: Mole fraction of carbon dioxide (Gas); method: Chromatography
Pressure, kPa	Mole fraction of carbon dioxide	Mole fraction of (-)-3-(N-methylpyrrolidino)pyridine	uncertainty	Mole fraction of (-)-3-(N-methylpyrrolidino)pyridine	uncertainty	Mole fraction of carbon dioxide	uncertainty
6000	0.7359	0.1582	0.002	0.0027	0.0008	0.9973	
6000	0.6675	0.2616	0.0025	0.0027	0.0008	0.9973	
6000	0.647	0.3406	0.0029	0.0032	0.0008	0.9968	
8000	0.9043	0.0521	0.0016	0.002	0.0008	0.998	
8000	0.8785	0.0942	0.0017	0.0018	0.0008	0.9982	
8000	0.8516	0.1436	0.0019	0.0011	0.0008	0.9988	
15000	0.9611	0.0182	0.0016	0.0064	0.0008	0.9936	
15000	0.9389	0.0552	0.0016	0.0151	0.0008	0.9842	
15000	0.9741	0.0253	0.0016	0.0188	0.0008	0.9805	
