Measured thermophysical data. Phase behavior and densities of propylene + toluene and ethylene + toluene systems to 580 K and 70 MPa
Source: Fluid Phase Equilib., 2017, 10.1016/j.fluid.2017.06.022
Compound 1: propene, C3H6, InChI=1S/C3H6/c1-3-2/h3H,1H2,2H3, purity 99.9%
Compound 2: toluene, C7H8, InChI=1S/C7H8/c1-7-5-3-2-4-6-7/h2-6H,1H3, purity 99.9%
Compound 3: ethene, C2H4, InChI=1S/C2H4/c1-2/h1-2H2, purity 99.9%

System: propene + toluene; phases: Gas, Liquid
Property: Vapor or sublimation pressure, kPa (Gas); method: visual observation of small bubble
Mole fraction of propene	Temperature, K	Vapor or sublimation pressure, kPa	uncertainty
0.1159	295.9	210	140
0.1159	324.8	340	140
0.1159	375.3	660	150
0.1159	425.2	1260	170
0.1159	474.3	2160	210
0.1159	554.5	4740	370
0.53	295.7	660	150
0.53	347.7	1740	190
0.53	375.3	2620	230
0.53	424	4510	350
0.53	474.4	6740	520
0.7612	296.3	1000	160
0.7612	324.5	1660	180
0.7612	374.2	3700	300
0.7612	422.7	6350	490

System: propene + toluene; phases: Liquid
Property: Mass density, kg/m3 (Liquid); method: Bellows volumetry
Mole fraction of propene	Temperature, K	Pressure, kPa	Mass density, kg/m3	uncertainty
0.1159	295.9	200	797.6	19.2
0.1159	295.9	300	798.9	19.2
0.1159	295.9	600	799.5	19.2
0.1159	295.9	1300	800.1	19.2
0.1159	295.9	2000	800.7	19.2
0.1159	295.9	2000	800.7	19.2
0.1159	295.9	3500	802	19.3
0.1159	295.9	3500	802	19.3
0.1159	295.9	7200	805.2	19.3
0.1159	295.9	7200	805.2	19.3
0.1159	295.9	10200	807.7	19.4
0.1159	295.9	13500	810.3	19.5
0.1159	295.9	13500	810.3	19.5
0.1159	324.8	300	771	18.5
0.1159	324.8	600	771.6	18.5
0.1159	324.8	1100	772.2	18.5
0.1159	324.8	1600	772.8	18.6
0.1159	324.8	2000	773.4	18.6
0.1159	324.8	2500	774	18.6
0.1159	324.8	3300	774.6	18.6
0.1159	324.8	3300	774.6	18.6
0.1159	324.8	5000	776.3	18.6
0.1159	324.8	7000	778.7	18.7
0.1159	324.8	10200	781.7	18.8
0.1159	324.8	13500	784.7	18.8
0.1159	324.8	16900	787.7	18.9
0.1159	324.8	20400	791.4	19
0.1159	324.8	23600	793.9	19.1
0.1159	324.8	31300	800.7	19.2
0.1159	324.8	37800	805.8	19.3
0.1159	375.3	700	723.9	17.4
0.1159	375.3	900	724.4	17.4
0.1159	375.3	1400	725.5	17.4
0.1159	375.3	2000	726.5	17.5
0.1159	375.3	2500	727.6	17.5
0.1159	375.3	3400	728.6	17.5
0.1159	375.3	5200	731.2	17.6
0.1159	375.3	6900	733.8	17.6
0.1159	375.3	10100	737.6	17.7
0.1159	375.3	17200	746.2	17.9
0.1159	375.3	23700	753.4	18.1
0.1159	375.3	30800	760.7	18.3
0.1159	375.3	37600	767	18.4
0.1159	425.2	1300	668.8	16.1
0.1159	425.2	1600	669.7	16.1
0.1159	425.2	2200	671	16.1
0.1159	425.2	3200	673.2	16.2
0.1159	425.2	5400	678.2	16.3
0.1159	425.2	7000	681.3	16.4
0.1159	425.2	10300	688.2	16.5
0.1159	425.2	17100	700.5	16.8
0.1159	425.2	24000	712.3	17.1
0.1159	425.2	30700	721.9	17.3
0.1159	425.2	37600	730.7	17.5
0.1159	425.2	44700	738.6	17.7
0.1159	425.2	51400	745.7	17.9
0.1159	425.2	58400	752.3	18.1
0.1159	425.2	63100	756.7	18.2
0.1159	425.2	67000	760.1	18.3
0.1159	474.3	2200	604.5	14.5
0.1159	474.3	2900	607.4	14.6
0.1159	474.3	3700	610.3	14.7
0.1159	474.3	5300	616.2	14.9
0.1159	474.3	7200	622.2	15
0.1159	474.3	10500	632.3	15.2
0.1159	474.3	13900	641.4	15.4
0.1159	474.3	17400	650.5	15.6
0.1159	474.3	20400	657.2	15.8
0.1159	474.3	23700	664.4	16
0.1159	474.3	31100	678.2	16.3
0.1159	474.3	37400	688.7	16.5
0.1159	474.3	38000	689.6	16.6
0.1159	474.3	44800	700.1	16.8
0.1159	474.3	51300	708.8	17
0.1159	554.4	4700	442.2	10.8
0.1159	554.4	5300	460	11.2
0.1159	554.4	6000	475.7	11.6
0.1159	554.4	6600	486	11.7
0.1159	554.4	7200	493.7	12
0.1159	554.4	9400	515.7	12.4
0.1159	554.4	10800	526.4	12.7
0.1159	554.4	17800	567.8	13.7
0.1159	554.4	24100	591.2	14.2
0.1159	554.4	30900	610.7	14.7
0.1159	554.4	37900	626.5	15.1
0.1159	554.4	44500	640.2	15.4
0.1159	554.4	51800	653	15.7
0.1159	554.4	58200	663.6	15.9
0.1159	554.4	63300	671.5	16.1
0.1159	554.4	67100	676.8	16.3
0.53	295.7	700	679.7	16.3
0.53	295.7	1000	680.5	16.3
0.53	295.7	1400	681.2	16.4
0.53	295.7	1900	681.6	16.4
0.53	295.7	2300	682.4	16.4
0.53	295.7	2900	683.2	16.4
0.53	295.7	3400	684	16.4
0.53	295.7	3600	684	16.4
0.53	295.7	5200	685.5	16.5
0.53	295.7	7300	688.3	16.5
0.53	295.7	8600	689.5	16.6
0.53	295.7	10700	691.9	16.6
0.53	295.7	13500	694.7	16.7
0.53	295.7	23900	704.6	16.9
0.53	295.7	31000	710.9	17.1
0.53	295.7	37900	716	17.2
0.53	295.7	44100	720.7	17.3
0.53	295.7	51800	726.4	17.4
0.53	295.7	58300	730.4	17.5
0.53	295.7	63200	733.6	17.6
0.53	295.7	67000	735.9	17.7
0.53	375.4	2600	588.6	14.1
0.53	375.4	2900	589.8	14.2
0.53	375.4	4300	593.6	14.3
0.53	375.4	6900	600.6	14.4
0.53	375.4	9200	607.4	14.6
0.53	375.4	10500	609.9	14.7
0.53	375.4	17900	622.3	15
0.53	375.4	23800	632	15.2
0.53	375.4	24100	631.5	15.2
0.53	375.4	30900	641.7	15.4
0.53	375.4	37900	651.5	15.6
0.53	375.4	44800	659.4	15.8
0.53	375.4	51200	666.4	16
0.53	375.4	58800	674.3	16.2
0.53	375.4	63200	678.1	16.3
0.53	375.4	67400	682	16.4
0.53	424	4500	514	12.4
0.53	424	4800	516.1	12.4
0.53	424	5300	519	12.5
0.53	424	5900	522.7	12.6
0.53	424	7100	529	12.8
0.53	424	8700	535.9	12.9
0.53	424	10400	543	13.1
0.53	424	17000	563.7	13.6
0.53	424	24000	581.4	14
0.53	424	30500	594.5	14.3
0.53	474.4	6700	412.3	10.1
0.53	474.4	7200	423.9	10.4
0.53	474.4	8100	437.9	10.7
0.53	474.4	9200	450.2	10.9
0.53	474.4	10700	464.3	11.2
0.53	474.4	13800	487.2	11.7
0.53	474.4	18000	509	12.3
0.53	474.4	23800	531.7	12.8
0.53	474.4	31300	551.8	13.3
0.53	474.4	37900	566.1	13.6
0.53	474.4	44400	579	13.9
0.53	474.4	51500	591.3	14.2
0.53	474.4	58400	602.1	14.5
0.53	474.4	63100	608.9	14.6
0.53	474.4	67200	614.2	14.8
0.53	505.4	7200	291.1	7.8
0.53	505.4	7700	316.5	8.1
0.53	505.4	8000	328	8.4
0.53	505.4	8700	355.4	8.8
0.53	505.4	9500	376.8	9
0.53	505.4	10600	396.8	9.7
0.53	505.4	13800	435.7	10.6
0.53	505.4	17400	462.3	11.2
0.53	505.4	24200	495.4	11.9
0.53	505.4	31500	523.8	12.6
0.53	505.4	37900	540.2	13
0.53	505.4	44600	554.8	13.3
0.53	505.4	51400	568	13.6
0.53	505.4	58400	579.6	13.9
0.53	505.4	62900	587.4	14.1
0.53	505.4	66800	592.6	14.2
0.7612	296.4	1000	606.8	14.6
0.7612	296.4	1400	610	14.7
0.7612	296.4	2200	611.2	14.7
0.7612	296.4	3300	613.2	14.7
0.7612	296.4	5200	616.4	14.8
0.7612	296.4	6900	619.3	14.9
0.7612	296.4	10300	624.6	15
0.7612	296.4	10400	624.6	15
0.7612	296.4	13800	629.7	15.1
0.7612	296.4	17200	634.4	15.2
0.7612	296.4	24100	643.5	15.5
0.7612	296.4	31100	652.1	15.7
0.7612	296.4	37700	659.4	15.8
0.7612	296.4	44500	666	16
0.7612	296.4	51400	672.7	16.2
0.7612	296.4	57800	678	16.3
0.7612	296.4	62900	682	16.4
0.7612	296.4	66900	685	16.4
0.7612	324.6	1700	572	13.7
0.7612	324.6	1900	572.3	13.8
0.7612	324.6	2600	574.4	13.8
0.7612	324.6	3600	576.9	13.9
0.7612	324.6	5300	580.5	14
0.7612	324.6	7000	584.1	14
0.7612	324.6	10500	591.1	14.2
0.7612	324.6	17400	603.7	14.5
0.7612	324.6	24200	614.4	14.8
0.7612	324.6	30900	623.8	15
0.7612	324.6	37800	632.7	15.2
0.7612	324.6	44500	640.5	15.4
0.7612	324.6	51500	648.4	15.6
0.7612	324.6	58400	655.7	15.7
0.7612	324.6	63100	660.3	15.9
0.7612	324.6	67000	664.1	15.9
0.7612	374.3	3700	493.5	11.9
0.7612	374.3	3800	494.1	11.9
0.7612	374.3	5300	503.1	12.1
0.7612	374.3	6900	511.6	12.3
0.7612	374.3	8400	518.3	12.5
0.7612	374.3	10400	526	12.7
0.7612	374.3	17200	547.4	13.2
0.7612	374.3	23900	562.2	13.5
0.7612	374.3	30800	574.7	13.8
0.7612	374.3	37700	586.8	14.1
0.7612	374.3	44200	596.6	14.3
0.7612	422.8	6300	383	9.4
0.7612	422.8	6800	392.4	9.6
0.7612	422.8	7500	405.5	10
0.7612	422.8	8900	424.5	10.3
0.7612	422.8	10600	441.8	10.7
0.7612	422.8	15400	476.7	11.5
0.7612	422.8	17400	484.1	11.7
0.7612	422.8	24400	508.8	12.2
0.7612	422.8	31000	527.4	12.7
0.7612	422.8	37800	543.1	13.1
0.7612	422.8	44900	556.7	13.4
0.7612	422.8	51600	566.8	13.6
0.7612	422.8	58200	576.2	13.8
0.7612	422.8	63200	583.4	14
0.7612	422.8	67200	588.5	14.1
0.7612	474.8	7900	213.2	5.9
0.7612	474.8	8500	232.7	6.2
0.7612	474.8	9100	257.3	6.7
0.7612	474.8	9800	279.8	7
0.7612	474.8	10600	304.4	7.6
0.7612	474.8	11700	333.8	8.3
0.7612	474.8	12100	337.7	8.3
0.7612	474.8	14600	374.6	9.1
0.7612	474.8	17400	402.7	9.8
0.7612	474.8	24200	442.3	10.7
0.7612	474.8	31800	475	11.4
0.7612	474.8	37900	493.8	11.9
0.7612	474.8	44600	511.3	12.3
0.7612	474.8	51500	527.1	12.7
0.7612	474.8	58300	540	13
0.7612	474.8	63100	547.8	13.2
0.7612	474.8	67300	553.9	13.3

System: ethene + toluene; phases: Gas, Liquid
Property: Vapor or sublimation pressure, kPa (Gas); method: visual observation of small bubble
Mole fraction of ethene	Temperature, K	Vapor or sublimation pressure, kPa	uncertainty
0.1194	295.9	990	160
0.1194	326.2	1270	170
0.1194	348.6	1490	180
0.1194	375.1	1860	190
0.1194	422.2	2520	230
0.1194	470.8	3420	280
0.1194	518.9	4500	350
0.1194	567.1	5430	420
0.1194	579	5520	430
0.3067	295.2	2150	210
0.3067	325.2	3160	260
0.3067	351.6	4100	320
0.3067	373.7	4820	370
0.3067	421.2	6390	500
0.3067	475.3	7870	610
0.3067	519.4	8480	660
0.3067	491.5	8180	630
0.3067	543.7	8500	660
0.3067	577.1	8170	720
0.3067	578.4	8170	720

System: ethene + toluene; phases: Liquid
Property: Mass density, kg/m3 (Liquid); method: Bellows volumetry
Mole fraction of ethene	Temperature, K	Pressure, kPa	Mass density, kg/m3	uncertainty
0.1194	326.2	1270	779.8	18.7
0.1194	326.2	1340	781	18.8
0.1194	326.2	2020	781.6	18.8
0.1194	326.2	2570	782.2	18.8
0.1194	326.2	3390	783.5	18.8
0.1194	326.2	3390	783.5	18.8
0.1194	326.2	4760	784.7	18.8
0.1194	326.2	5790	785.4	18.9
0.1194	326.2	7090	787.2	18.9
0.1194	326.2	7090	787.2	18.9
0.1194	326.2	10310	790.4	19
0.1194	326.2	13590	793.6	19.1
0.1194	348.7	1490	759.4	18.2
0.1194	348.7	1560	759.4	18.2
0.1194	348.7	1970	760	18.2
0.1194	348.7	2380	760.5	18.3
0.1194	348.7	2860	761.7	18.3
0.1194	348.7	3400	762.3	18.3
0.1194	348.7	4090	763.5	18.3
0.1194	348.7	5150	764.7	18.4
0.1194	348.7	6420	765.8	18.4
0.1194	348.7	10040	770	18.5
0.1194	348.7	13810	774.9	18.6
0.1194	348.7	16900	777.9	18.7
0.1194	348.7	21130	782.2	18.8
0.1194	348.7	23670	785.4	18.9
0.1194	348.7	27850	789.1	18.9
0.1194	348.7	30800	792.3	19
0.1194	348.7	32790	793.6	19.1
0.1194	375.1	1860	732.3	17.6
0.1194	375.1	2200	733.4	17.6
0.1194	375.1	2880	734.5	17.6
0.1194	375.1	3430	735	17.6
0.1194	375.1	4460	736.7	17.7
0.1194	375.1	5830	738.3	17.7
0.1194	375.1	6720	740	17.8
0.1194	375.1	7330	740.6	17.8
0.1194	375.1	10280	745	17.9
0.1194	375.1	13770	749.6	18
0.1194	375.1	16990	753.6	18.1
0.1194	375.1	20680	758.2	18.2
0.1194	375.1	23900	761.7	18.3
0.1194	375.1	23900	761.7	18.3
0.1194	375.1	27390	766.4	18.4
0.1194	375.1	30540	769.4	18.5
0.1194	375.1	30540	769.4	18.5
0.1194	375.1	34240	773.7	18.6
0.1194	375.1	37600	777.3	18.7
0.1194	375.1	41300	781	18.7
0.1194	375.1	44240	783.5	18.8
0.1194	375.1	47940	787.2	18.9
0.1194	422.2	2530	681.2	16.4
0.1194	422.2	2830	682.2	16.4
0.1194	422.2	3620	684.1	16.4
0.1194	422.2	5330	688.4	16.5
0.1194	422.2	7040	692.2	16.6
0.1194	422.2	7110	692.2	16.6
0.1194	422.2	10420	699.6	16.8
0.1194	422.2	13400	705.1	16.9
0.1194	422.2	17400	712.2	17.1
0.1194	422.2	20480	716.9	17.2
0.1194	422.2	22980	720.6	17.3
0.1194	422.2	24010	722.1	17.3
0.1194	422.2	24010	722.1	17.3
0.1194	422.2	30990	731.2	17.6
0.1194	422.2	37420	739.4	17.8
0.1194	422.2	44550	747.3	17.9
0.1194	422.2	51320	755.3	18.1
0.1194	422.2	58240	762.3	18.3
0.1194	422.2	63240	767.6	18.4
0.1194	422.2	67210	771.2	18.5
0.1194	470.9	3430	616.2	14.8
0.1194	470.9	3560	617.7	14.9
0.1194	470.9	4240	620.4	14.9
0.1194	470.9	4990	623.6	15
0.1194	470.9	5950	627.5	15.1
0.1194	470.9	7310	631.9	15.2
0.1194	470.9	10590	642.6	15.4
0.1194	470.9	14000	652.4	15.7
0.1194	470.9	16940	659.8	15.9
0.1194	470.9	24260	676.6	16.3
0.1194	470.9	31240	690.3	16.6
0.1194	470.9	37460	701.1	16.8
0.1194	470.9	41500	707.1	17
0.1194	470.9	44850	712.2	17.1
0.1194	470.9	51420	720.6	17.3
0.1194	470.9	51420	720.6	17.3
0.1194	470.9	58440	729.1	17.5
0.1194	470.9	62650	733.4	17.6
0.1194	470.9	67380	738.3	17.7
0.1194	519	4500	541.1	13
0.1194	519	5100	547.1	13.2
0.1194	519	6120	555.5	13.4
0.1194	519	7100	562.7	13.5
0.1194	519	8870	573.5	13.8
0.1194	519	10630	583	14
0.1194	519	13940	597.1	14.4
0.1194	519	14140	598.2	14.4
0.1194	519	17480	610.1	14.7
0.1194	519	24180	630.3	15.1
0.1194	519	31210	647.7	15.6
0.1194	519	38050	662.1	15.9
0.1194	519	44340	674.3	16.2
0.1194	519	51320	686.5	16.5
0.1194	519	51390	686.5	16.5
0.1194	519	58160	697.1	16.7
0.1194	519	63090	704.6	16.9
0.1194	519	66990	709.7	17
0.3067	325.3	3200	729.1	17.5
0.3067	325.3	3400	730.3	17.5
0.3067	325.3	4100	731.4	17.6
0.3067	325.3	4100	730.8	17.5
0.3067	325.3	5500	733.1	17.6
0.3067	325.3	6900	734.9	17.6
0.3067	325.3	8500	737.2	17.7
0.3067	325.3	10200	738.9	17.7
0.3067	325.3	11600	740.7	17.8
0.3067	325.3	13400	743.1	17.8
0.3067	351.6	4100	706.4	17
0.3067	351.6	4800	707.5	17
0.3067	351.6	5500	708.6	17
0.3067	351.6	5600	708.6	17
0.3067	351.6	6200	709.7	17
0.3067	351.6	6900	710.7	17.1
0.3067	351.6	8600	713.5	17.1
0.3067	351.6	10400	716.2	17.2
0.3067	351.6	13700	721.2	17.3
0.3067	351.6	13700	721.2	17.3
0.3067	351.6	17000	725.7	17.4
0.3067	351.6	20300	730.3	17.5
0.3067	351.6	20700	730.8	17.6
0.3067	351.6	27400	738.9	17.7
0.3067	351.6	30700	742.5	17.8
0.3067	373.8	4800	677.2	16.3
0.3067	373.8	4900	678.1	16.3
0.3067	373.8	5500	679.6	16.3
0.3067	373.8	6200	680.6	16.3
0.3067	373.8	6900	682.1	16.4
0.3067	373.8	8600	685.1	16.5
0.3067	373.8	10300	688.2	16.5
0.3067	373.8	16700	698.5	16.8
0.3067	373.8	17400	699.5	16.8
0.3067	373.8	24000	709.1	17
0.3067	373.8	30800	718.4	17.2
0.3067	373.8	36900	725.7	17.4
0.3067	373.8	37700	726.8	17.4
0.3067	373.8	44200	734.3	17.6
0.3067	373.8	51200	741.9	17.8
0.3067	421	6400	620.7	14.9
0.3067	421	6900	622.8	15
0.3067	421	8600	628.3	15.1
0.3067	421	10500	633.8	15.2
0.3067	421	12400	638.2	15.3
0.3067	421	13800	643	15.5
0.3067	421	17300	652	15.7
0.3067	421	20700	659.9	15.9
0.3067	421	24300	667	16
0.3067	421	30700	678.1	16.3
0.3067	421	37600	688.2	16.5
0.3067	421	44700	698	16.8
0.3067	421	51000	705.4	16.9
0.3067	421	58300	714.6	17.2
0.3067	421	63100	720.1	17.3
0.3067	421	66800	724	17.4
0.3067	475.1	7800	540.4	13
0.3067	475.1	8600	545.2	13.1
0.3067	475.1	9400	551	13.3
0.3067	475.1	10600	557.2	13.4
0.3067	475.1	12100	565.4	13.6
0.3067	475.1	14000	572.7	13.8
0.3067	475.1	17400	586	14.1
0.3067	475.1	20700	598.4	14.4
0.3067	475.1	24300	609	14.6
0.3067	475.1	30800	625.7	15
0.3067	475.1	37500	640.8	15.4
0.3067	475.1	44500	654.3	15.7
0.3067	475.1	51800	666.5	16
0.3067	475.1	58100	676.2	16.2
0.3067	475.1	63100	682.6	16.4
0.3067	475.1	67400	687.7	16.5
0.3067	519.3	8400	448	10.9
0.3067	519.3	8600	455.1	11
0.3067	519.3	9400	472	11.4
0.3067	519.3	10500	482.9	11.7
0.3067	519.3	12000	499.7	12
0.3067	519.3	13800	513.9	12.4
0.3067	519.3	14100	515.9	12.4
0.3067	519.3	15900	525.1	12.6
0.3067	519.3	17200	535.5	12.9
0.3067	519.3	20900	553.6	13.3
0.3067	519.3	24100	565.7	13.6
0.3067	519.3	31300	589.3	14.2
0.3067	519.3	37800	605	14.5
0.3067	519.3	44900	621.2	14.9
0.3067	519.3	51600	636.4	15.3
0.3067	519.3	58300	647.5	15.5
0.3067	519.3	63100	656.6	15.8
0.3067	519.3	67100	662.7	15.9
