Measured thermophysical data. Thermodynamic properties and corrosivity of a new absorption heat pump working pair: Lithium nitrate p 1-butyl-3- methylimidazolium bromide p water
Source: Fluid Phase Equilib., 2017, 10.1016/j.fluid.2017.07.024
Compound 1: 1-butyl-3-methylimidazolium bromide, C8H15BrN2, InChI=1S/C8H15N2.BrH/c1-3-4-5-10-7-6-9(2)8-10;/h6-8H,3-5H2,1-2H3;1H/q+1;/p-1, purity 99%
Compound 2: lithium nitrate, LiNO3, InChI=1S/Li.NO3/c;2-1(3)4/q+1;-1, purity 99.5%
Compound 3: water, H2O, InChI=1S/H2O/h1H2, purity 99.9%
Compound 4: potassium chloride, ClK, InChI=1S/ClH.K/h1H;/q;+1/p-1, purity 99%

System: 1-butyl-3-methylimidazolium bromide; phases: Crystal
Fixed: Pressure, kPa = 101
Property: Molar heat capacity at constant pressure, J/K/mol (Crystal); method: Power-Compensation Calorimetry
Temperature, K	Molar heat capacity at constant pressure, J/K/mol	uncertainty
283.15	265.1378378	15.3385526
293.15	269.5202814	15.3385526
303.15	276.0939468	15.3385526
313.15	289.2412776	15.3385526
323.15	308.9622738	15.3385526
333.15	361.551597	17.5297744
343.15	705.5734196	26.2946616

System: 1-butyl-3-methylimidazolium bromide; phases: Liquid
Fixed: Pressure, kPa = 101
Property: Molar heat capacity at constant pressure, J/K/mol (Liquid); method: Power-Compensation Calorimetry
Temperature, K	Molar heat capacity at constant pressure, J/K/mol	uncertainty
353.15	352.7867098	17.5297744
363.15	359.3603752	17.5297744
373.15	363.7428188	17.5297744

System: water; phases: Liquid, Gas
Property: Vapor or sublimation pressure, kPa (Liquid); method: Closed cell (Static) method
Temperature, K	Vapor or sublimation pressure, kPa	uncertainty
274.15	0.671	0.029
276.15	0.778	0.034
279.15	0.956	0.041
282.15	1.171	0.05
285.15	1.428	0.061
288.15	1.739	0.074
291.15	2.103	0.089
294.15	2.525	0.106
297.15	3.035	0.127
300.15	3.62	0.151
303.15	4.299	0.179
306.15	5.104	0.213
304.45	4.659	0.194
308.55	5.85	0.245
313.45	7.631	0.316
318.15	9.698	0.401
323.45	12.676	0.523
328.65	16.353	0.673
333.15	20.216	0.831
337.45	24.614	1.015
345.65	35.267	1.444
353.85	49.371	2.02
364.35	74.262	3.022
372.15	99.51	4.035

System: lithium nitrate + 1-butyl-3-methylimidazolium bromide + water; phases: Liquid, Gas
Property: Vapor or sublimation pressure, kPa (Liquid); method: Closed cell (Static) method
Mass fraction of lithium nitrate	Mass fraction of 1-butyl-3-methylimidazolium bromide	Temperature, K	Vapor or sublimation pressure, kPa	uncertainty
0.367	0.183	298.25	1.775	0.087
0.367	0.183	303.35	2.437	0.119
0.367	0.183	308.25	3.211	0.156
0.367	0.183	313.15	4.187	0.207
0.367	0.183	323.15	6.983	0.349
0.367	0.183	332.75	11.023	0.542
0.367	0.183	343.35	17.606	0.843
0.367	0.183	353.65	26.852	1.252
0.367	0.183	363.25	38.75	1.741
0.367	0.183	368.45	46.797	2.079
0.367	0.183	373.35	55.564	2.456
0.367	0.183	378.15	65.386	2.884
0.367	0.183	383.65	78.291	3.442
0.367	0.183	390.35	96.649	4.178
0.4	0.2	298.45	1.479	0.076
0.4	0.2	303.15	1.982	0.104
0.4	0.2	308.65	2.716	0.139
0.4	0.2	313.25	3.499	0.164
0.4	0.2	323.35	5.916	0.315
0.4	0.2	333.15	9.492	0.494
0.4	0.2	343.25	14.927	0.652
0.4	0.2	353.45	22.828	1.127
0.4	0.2	363.65	33.889	1.494
0.4	0.2	368.65	40.72	1.814
0.4	0.2	373.45	48.286	2.146
0.4	0.2	378.25	56.943	2.606
0.4	0.2	383.25	67.239	2.974
0.4	0.2	388.65	79.965	3.623
0.4	0.2	395.25	98.023	4.348
0.433	0.217	298.15	1.106	0.098
0.433	0.217	303.15	1.536	0.179
0.433	0.217	308.55	2.109	0.305
0.433	0.217	313.45	2.777	0.725
0.433	0.217	323.15	4.651	2.059
0.433	0.217	333.35	7.689	3.054
0.433	0.217	342.95	11.938	4.215
0.433	0.217	353.35	18.597	5.24
0.433	0.217	363.15	27.437	4.008
0.433	0.217	368.95	34.121	3.392
0.433	0.217	373.65	40.461	3.459
0.433	0.217	378.35	47.724	4.309
0.433	0.217	383.75	57.331	4.52
0.433	0.217	388.25	66.471	4.937
0.433	0.217	393.35	78.198	6.318
0.433	0.217	400.95	98.66	9.013
0.467	0.233	298.65	0.823	0.053
0.467	0.233	303.15	1.101	0.069
0.467	0.233	308.85	1.551	0.093
0.467	0.233	313.65	2.046	0.118
0.467	0.233	323.25	3.454	0.182
0.467	0.233	333.75	5.876	0.303
0.467	0.233	343.45	9.269	3.539
0.467	0.233	352.65	13.887	3.398
0.467	0.233	363.45	21.62	2.414
0.467	0.233	369.05	26.862	1.339
0.467	0.233	373.75	32.032	1.595
0.467	0.233	378.65	38.264	1.91
0.467	0.233	383.25	44.987	2.189
0.467	0.233	388.55	53.894	3.02
0.467	0.233	393.95	64.389	3.184
0.467	0.233	398.35	74.112	3.544
0.467	0.233	407.75	98.851	9.701
0.5	0.25	353.35	10.399	0.634
0.5	0.25	358.85	13.188	0.878
0.5	0.25	363.65	16.121	0.936
0.5	0.25	368.35	19.492	1.132
0.5	0.25	373.25	23.626	1.342
0.5	0.25	378.75	29.113	1.61
0.5	0.25	383.55	34.734	1.889
0.5	0.25	389.05	42.253	2.253
0.5	0.25	393.85	49.872	2.645
0.5	0.25	398.65	58.592	3.048
0.5	0.25	403.75	69.195	3.742
0.5	0.25	408.25	79.815	4.027
0.5	0.25	415.05	98.37	4.689

System: lithium nitrate + 1-butyl-3-methylimidazolium bromide + water; phases: Liquid, Crystal of intercomponent compound 1
Fixed: Pressure, kPa = 101
Property: Solid-liquid equilibrium temperature, K (Liquid); method: VISOBS
Mass fraction of lithium nitrate	Mass fraction of 1-butyl-3-methylimidazolium bromide	Solid-liquid equilibrium temperature, K	uncertainty
0.367	0.183	267.15	8.02
0.38	0.19	269.15	8.02
0.393	0.197	271.15	8.49
0.407	0.203	274.15	9.9
0.42	0.21	275.15	8
0.433	0.217	275.15	9.94
0.447	0.223	273.15	8.02
0.46	0.23	271.15	14.41
0.467	0.233	270.15	14.41
0.473	0.237	273.15	35.24
0.487	0.243	303.15	44.2
0.5	0.25	346.15	15.46

System: lithium nitrate + 1-butyl-3-methylimidazolium bromide + water; phases: Liquid
Fixed: Pressure, kPa = 101
Property: Mass density, kg/m3 (Liquid); method: Pycnometric method
Mass fraction of lithium nitrate	Mass fraction of 1-butyl-3-methylimidazolium bromide	Temperature, K	Mass density, kg/m3	uncertainty
0.333	0.167	293.15	1306	4
0.333	0.167	303.15	1299	4
0.333	0.167	313.15	1292	4
0.333	0.167	323.15	1285	4
0.333	0.167	333.15	1279	4
0.333	0.167	343.15	1272	4
0.333	0.167	353.15	1265	4
0.333	0.167	363.15	1258	4
0.333	0.167	373.15	1251	5
0.367	0.183	293.15	1333	22
0.367	0.183	303.15	1326	22
0.367	0.183	313.15	1319	20
0.367	0.183	323.15	1312	20
0.367	0.183	333.15	1305	22
0.367	0.183	343.15	1298	22
0.367	0.183	353.15	1291	20
0.367	0.183	363.15	1285	17
0.367	0.183	373.15	1279	11
0.4	0.2	293.15	1367	5
0.4	0.2	303.15	1360	5
0.4	0.2	313.15	1352	5
0.4	0.2	323.15	1345	5
0.4	0.2	333.15	1338	5
0.4	0.2	343.15	1331	5
0.4	0.2	353.15	1324	5
0.4	0.2	363.15	1317	5
0.4	0.2	373.15	1310	5
0.433	0.217	293.15	1400	5
0.433	0.217	303.15	1394	6
0.433	0.217	313.15	1388	10
0.433	0.217	323.15	1380	13
0.433	0.217	333.15	1373	9
0.433	0.217	343.15	1365	6
0.433	0.217	353.15	1357	5
0.433	0.217	363.15	1349	9
0.433	0.217	373.15	1341	12
0.467	0.233	293.15	1434	5
0.467	0.233	303.15	1427	5
0.467	0.233	313.15	1420	5
0.467	0.233	323.15	1412	5
0.467	0.233	333.15	1405	5
0.467	0.233	343.15	1398	5
0.467	0.233	353.15	1391	9
0.467	0.233	363.15	1384	11
0.467	0.233	373.15	1376	9
0.5	0.25	353.15	1427	5
0.5	0.25	358.15	1425	3
0.5	0.25	363.15	1421	5
0.5	0.25	368.15	1417	3
0.5	0.25	373.15	1413	5

System: lithium nitrate + 1-butyl-3-methylimidazolium bromide + water; phases: Liquid
Fixed: Pressure, kPa = 101
Property: Kinematic viscosity, m2/s (Liquid); method: Capillary tube (Ostwald; Ubbelohde) method
Mass fraction of lithium nitrate	Mass fraction of 1-butyl-3-methylimidazolium bromide	Temperature, K	Kinematic viscosity, m2/s	uncertainty
0.333	0.167	293.15	3.275e-06	1.77e-07
0.333	0.167	303.15	2.643e-06	1.33e-07
0.333	0.167	313.15	2.073e-06	1.05e-07
0.333	0.167	323.15	1.713e-06	8.7e-08
0.333	0.167	333.15	1.459e-06	7.4e-08
0.333	0.167	343.15	1.265e-06	6.3e-08
0.333	0.167	353.15	1.103e-06	5.5e-08
0.333	0.167	363.15	9.69e-07	4.8e-08
0.333	0.167	373.15	8.77e-07	4.4e-08
0.367	0.183	293.15	4.27e-06	2.466e-06
0.367	0.183	303.15	3.335e-06	1.116e-06
0.367	0.183	313.15	2.68e-06	5.55e-07
0.367	0.183	323.15	2.193e-06	4.05e-07
0.367	0.183	333.15	1.86e-06	3.76e-07
0.367	0.183	343.15	1.585e-06	2.89e-07
0.367	0.183	353.15	1.39e-06	2.36e-07
0.367	0.183	363.15	1.224e-06	1.27e-07
0.367	0.183	373.15	1.095e-06	2.24e-07
0.4	0.2	293.15	6.07e-06	3.95e-07
0.4	0.2	303.15	4.571e-06	2.85e-07
0.4	0.2	313.15	3.57e-06	2.17e-07
0.4	0.2	323.15	2.899e-06	1.69e-07
0.4	0.2	333.15	2.416e-06	1.38e-07
0.4	0.2	343.15	2.047e-06	1.11e-07
0.4	0.2	353.15	1.768e-06	9.4e-08
0.4	0.2	363.15	1.538e-06	8e-08
0.4	0.2	373.15	1.383e-06	6.9e-08
0.433	0.217	293.15	8.619e-06	5.549e-06
0.433	0.217	303.15	6.53e-06	2.308e-06
0.433	0.217	313.15	5.014e-06	1.348e-06
0.433	0.217	323.15	3.965e-06	7.62e-07
0.433	0.217	333.15	3.255e-06	5.24e-07
0.433	0.217	343.15	2.686e-06	3.18e-07
0.433	0.217	353.15	2.29e-06	1.34e-07
0.433	0.217	363.15	1.973e-06	1.47e-07
0.433	0.217	373.15	1.72e-06	4.03e-07
0.467	0.233	293.15	1.306e-05	7.42e-07
0.467	0.233	303.15	9.664e-06	5.64e-07
0.467	0.233	313.15	7.233e-06	4.11e-07
0.467	0.233	323.15	5.518e-06	3.03e-07
0.467	0.233	333.15	4.366e-06	2.28e-07
0.467	0.233	343.15	3.546e-06	1.79e-07
0.467	0.233	353.15	2.897e-06	2.093e-06
0.467	0.233	363.15	2.494e-06	1.509e-06
0.467	0.233	373.15	2.194e-06	1.072e-06
0.5	0.25	353.15	4.354e-06	2.49e-07
0.5	0.25	358.15	3.883e-06	1.57e-07
0.5	0.25	363.15	3.577e-06	1.95e-07
0.5	0.25	368.15	3.273e-06	1.32e-07
0.5	0.25	373.15	3.017e-06	1.58e-07

System: lithium nitrate + 1-butyl-3-methylimidazolium bromide + water; phases: Liquid
Fixed: Pressure, kPa = 101
Property: Molar heat capacity at constant pressure, J/K/mol (Liquid); method: Power-Compensation Calorimeter
Mass fraction of lithium nitrate	Mass fraction of 1-butyl-3-methylimidazolium bromide	Temperature, K	Molar heat capacity at constant pressure, J/K/mol	uncertainty
0.333	0.167	293.15	84.5673050849494	3.2987246664342
0.333	0.167	303.15	85.1670732061193	3.2987246664342
0.333	0.167	313.15	85.4669572667042	3.2987246664342
0.333	0.167	323.15	86.0667253878741	3.2987246664342
0.333	0.167	333.15	86.6664935090439	3.2987246664342
0.333	0.167	343.15	86.9663775696288	3.59860872701912
0.333	0.167	353.15	87.5661456907987	3.59860872701912
0.333	0.167	363.15	88.1659138119685	3.59860872701912
0.333	0.167	373.15	89.3654500543082	3.59860872701912
0.367	0.183	293.15	86.7136750534778	3.53277935403058
0.367	0.183	303.15	87.3559985723924	3.8539411134879
0.367	0.183	313.15	87.6771603318497	3.53277935403058
0.367	0.183	323.15	88.3194838507644	3.53277935403058
0.367	0.183	333.15	88.6406456102217	3.8539411134879
0.367	0.183	343.15	89.2829691291364	3.53277935403058
0.367	0.183	353.15	89.925292648051	3.53277935403058
0.367	0.183	363.15	90.888777926423	3.8539411134879
0.367	0.183	373.15	91.5311014453376	3.8539411134879
0.4	0.2	293.15	89.5643563400817	3.80389158201119
0.4	0.2	303.15	90.2559729913564	3.80389158201119
0.4	0.2	313.15	90.6017813169938	3.80389158201119
0.4	0.2	323.15	90.9475896426312	3.80389158201119
0.4	0.2	333.15	91.639206293906	3.80389158201119
0.4	0.2	343.15	91.9850146195433	3.80389158201119
0.4	0.2	353.15	92.6766312708181	3.80389158201119
0.4	0.2	363.15	93.3682479220929	3.80389158201119
0.4	0.2	373.15	94.405672899005	3.80389158201119
0.433	0.217	293.15	92.8889391776447	5.9928347856545
0.433	0.217	303.15	93.2634913517481	6.3673869597579
0.433	0.217	313.15	94.0125956999549	6.74193913386131
0.433	0.217	323.15	94.3871478740583	5.24373043744768
0.433	0.217	333.15	94.7617000481617	6.3673869597579
0.433	0.217	343.15	95.5108043963685	5.24373043744768
0.433	0.217	353.15	96.2599087445753	4.86917826334428
0.433	0.217	363.15	97.3835652668856	4.49462608924087
0.433	0.217	373.15	98.5072217891958	4.12007391513747
0.467	0.233	293.15	98.4103783938174	4.08341819061483
0.467	0.233	303.15	98.8187202128789	4.08341819061483
0.467	0.233	313.15	99.6354038510019	4.08341819061483
0.467	0.233	323.15	99.6354038510019	4.08341819061483
0.467	0.233	333.15	100.452087489125	4.08341819061483
0.467	0.233	343.15	100.860429308186	4.08341819061483
0.467	0.233	353.15	101.677112946309	4.08341819061483
0.467	0.233	363.15	102.902138403494	4.49176000967631
0.467	0.233	373.15	103.310480222555	5.30844364779928
0.5	0.25	348.15	107.76789456293	4.49032894012208
0.5	0.25	353.15	108.216927456942	4.49032894012208
0.5	0.25	358.15	108.665960350954	4.49032894012208
0.5	0.25	363.15	108.665960350954	4.49032894012208
0.5	0.25	368.15	109.564026138979	4.49032894012208
0.5	0.25	373.15	110.462091927003	4.49032894012208

System: 1-butyl-3-methylimidazolium bromide + water; phases: Liquid
Fixed: Mass fraction of 1-butyl-3-methylimidazolium bromide = 0.9
Fixed: Pressure, kPa = 101
Property: Kinematic viscosity, m2/s (Liquid); method: Capillary tube (Ostwald; Ubbelohde) method
Temperature, K	Kinematic viscosity, m2/s	uncertainty
313.15	2.2141e-05	8.98e-07
323.15	1.5637e-05	6.35e-07
333.15	1.1385e-05	4.62e-07
343.15	8.577e-06	3.48e-07
353.15	6.648e-06	2.7e-07
363.15	5.339e-06	2.17e-07
373.15	4.339e-06	1.76e-07

System: potassium chloride + water; phases: Liquid
Fixed: Pressure, kPa = 101
Fixed: Temperature, K = 273.15
Property: Molar enthalpy of solution, kJ/mol (Liquid); method: Power-compensation calorimetry
Mass fraction of potassium chloride	Molar enthalpy of solution, kJ/mol	uncertainty
0.02462	4143.0413201731	41.4340848087144
0.03177	4303.58755586412	43.0303375486607
0.03522	4197.2495346081	41.9798992083753
