Measured thermophysical data. Liquid-liquid equilibrium data of water with neohexane, methylcyclohexane, tert-butyl methyl ether, n-heptane and vapor -liquid-liquid equilibrium with methane
Source: Fluid Phase Equilib., 2005, 10.1016/j.fluid.2004.12.016
Compound 1: 2,2-dimethylbutane, C6H14, InChI=1S/C6H14/c1-5-6(2,3)4/h5H2,1-4H3
Compound 2: water, H2O, InChI=1S/H2O/h1H2
Compound 3: 2-methoxy-2-methylpropane, C5H12O, InChI=1S/C5H12O/c1-5(2,3)6-4/h1-4H3
Compound 4: methylcyclohexane, C7H14, InChI=1S/C7H14/c1-7-5-3-2-4-6-7/h7H,2-6H2,1H3
Compound 5: heptane, C7H16, InChI=1S/C7H16/c1-3-5-7-6-4-2/h3-7H2,1-2H3
Compound 6: methane, CH4, InChI=1S/CH4/h1H4, purity 99.9%

System: 2,2-dimethylbutane + water; phases: Liquid mixture 1, Liquid mixture 2
Fixed: Pressure, kPa = 101.325
Property: Mole fraction of 2,2-dimethylbutane (Liquid mixture 1); method: Chromatography
Temperature, K	Mole fraction of 2,2-dimethylbutane	uncertainty
275.5	7.7e-06	6e-07
283.15	6.2e-06	6e-07
298.15	4.9e-06	4e-07

System: 2,2-dimethylbutane + water; phases: Liquid mixture 2, Liquid mixture 1
Fixed: Pressure, kPa = 101.325
Property: Mole fraction of water (Liquid mixture 2); method: Chromatography
Temperature, K	Mole fraction of water	uncertainty
275.5	0.000331	6e-05
283.15	0.000521	8e-05
298.15	0.000722	0.00012

System: 2-methoxy-2-methylpropane + water; phases: Liquid mixture 1, Liquid mixture 2
Fixed: Pressure, kPa = 101.325
Property: Mole fraction of 2-methoxy-2-methylpropane (Liquid mixture 1); method: Chromatography
Temperature, K	Mole fraction of 2-methoxy-2-methylpropane	uncertainty
275.5	0.012541	0.000427
283.15	0.011878	0.000478
298.15	0.008901	0.000162

System: 2-methoxy-2-methylpropane + water; phases: Liquid mixture 2, Liquid mixture 1
Fixed: Pressure, kPa = 101.325
Property: Mole fraction of water (Liquid mixture 2); method: Chromatography
Temperature, K	Mole fraction of water	uncertainty
275.5	0.056976	0.004279
283.15	0.065579	0.004926
298.15	0.068596	0.005153

System: methylcyclohexane + water; phases: Liquid mixture 1, Liquid mixture 2
Fixed: Pressure, kPa = 101.325
Property: Mole fraction of methylcyclohexane (Liquid mixture 1); method: Chromatography
Temperature, K	Mole fraction of methylcyclohexane	uncertainty
275.5	4e-06	4e-07
283.15	3.6e-06	6e-07
298.15	3e-06	4e-07

System: methylcyclohexane + water; phases: Liquid mixture 2, Liquid mixture 1
Fixed: Pressure, kPa = 101.325
Property: Mole fraction of water (Liquid mixture 2); method: Chromatography
Temperature, K	Mole fraction of water	uncertainty
275.5	0.000158	4e-05
283.15	0.000328	8e-05
298.15	0.000405	8e-05

System: heptane + water; phases: Liquid mixture 1, Liquid mixture 2
Fixed: Pressure, kPa = 101.325
Property: Mole fraction of heptane (Liquid mixture 1); method: Chromatography
Temperature, K	Mole fraction of heptane	uncertainty
275.5	1.5e-06	6e-07
283.15	3e-07	2e-07
298.15	2e-07	2e-07

System: heptane + water; phases: Liquid mixture 2, Liquid mixture 1
Fixed: Pressure, kPa = 101.325
Property: Mole fraction of water (Liquid mixture 2); method: Chromatography
Temperature, K	Mole fraction of water	uncertainty
275.5	0.00031	4e-05
283.15	0.000466	6e-05
298.15	0.000562	0.0001

System: methane + 2,2-dimethylbutane + water; phases: Liquid mixture 1, Liquid mixture 2, Gas
Fixed: Temperature, K = 275.5
Property: Vapor or sublimation pressure, kPa (Liquid mixture 1); method: Closed cell (Static) method
Mole fraction of methane	Vapor or sublimation pressure, kPa	uncertainty
0.88805	120	14
0.982274	1000	201
0.99038	2000	95

System: methane + 2,2-dimethylbutane + water; phases: Liquid mixture 1, Gas, Liquid mixture 2
Fixed: Temperature, K = 275.5
Property: Mole fraction of methane (Liquid mixture 1); method: Chromatography
Mole fraction of methane	Mole fraction of methane	uncertainty
0.88805	0.017182	0.002404
0.982274	0.032778	0.004635
0.99038	0.050485	0.002713

System: methane + 2,2-dimethylbutane + water; phases: Liquid mixture 2, Gas, Liquid mixture 1
Fixed: Temperature, K = 275.5
Property: Mole fraction of methane (Liquid mixture 2); method: Chromatography
Mole fraction of methane	Mole fraction of methane	uncertainty
0.88805	4.5e-05	2.5e-05
0.982274	0.000381	7.6e-05
0.99038	0.000635	0.000121

System: methane + 2,2-dimethylbutane + water; phases: Gas, Liquid mixture 1, Liquid mixture 2
Fixed: Temperature, K = 275.5
Property: Mole fraction of water (Gas); method: Chromatography
Mole fraction of methane	Mole fraction of water	uncertainty
0.88805	0.005921	0.000731
0.982274	0.001112	0.000196
0.99038	0.000565	6.8e-05

System: methane + 2,2-dimethylbutane + water; phases: Liquid mixture 1, Liquid mixture 2, Gas
Fixed: Temperature, K = 275.5
Property: Mole fraction of water (Liquid mixture 1); method: Chromatography
Mole fraction of methane	Mole fraction of water	uncertainty
0.88805	0.000229	6.8e-05
0.982274	0.000278	2.3e-05
0.99038	0.000197	5.7e-05

System: methane + 2,2-dimethylbutane + water; phases: Liquid mixture 2, Liquid mixture 1, Gas
Fixed: Temperature, K = 275.5
Property: Mole fraction of water (Liquid mixture 2); method: Chromatography
Mole fraction of methane	Mole fraction of water	uncertainty
0.88805	0.999949	2.9e-05
0.982274	0.999603	8.1e-05
0.99038	0.999342	0.000138

System: methane + 2-methoxy-2-methylpropane + water; phases: Liquid mixture 1, Liquid mixture 2, Gas
Fixed: Temperature, K = 275.5
Property: Vapor or sublimation pressure, kPa (Liquid mixture 1); method: Closed cell (Static) method
Mole fraction of methane	Vapor or sublimation pressure, kPa	uncertainty
0.881191	120	291
0.98154	1000	1247
0.986334	2000	332

System: methane + 2-methoxy-2-methylpropane + water; phases: Liquid mixture 1, Gas, Liquid mixture 2
Fixed: Temperature, K = 275.15
Property: Mole fraction of methane (Liquid mixture 1); method: Chromatography
Mole fraction of methane	Mole fraction of methane	uncertainty
0.881191	0.017151	0.002818
0.98154	0.02397	0.02397
0.986334	0.06914	0.01809

System: methane + 2-methoxy-2-methylpropane + water; phases: Liquid mixture 2, Gas, Liquid mixture 1
Fixed: Temperature, K = 275.15
Property: Mole fraction of methane (Liquid mixture 2); method: Chromatography
Mole fraction of methane	Mole fraction of methane	uncertainty
0.881191	5.8e-05	5.8e-05
0.98154	0.000443	0.000311
0.986334	0.00069	0.000107

System: methane + 2-methoxy-2-methylpropane + water; phases: Gas, Liquid mixture 1, Liquid mixture 2
Fixed: Temperature, K = 275.15
Property: Mole fraction of water (Gas); method: Chromatography
Mole fraction of methane	Mole fraction of water	uncertainty
0.881191	0.007417	0.002287
0.98154	0.000782	0.000248
0.986334	0.000707	0.000125

System: methane + 2-methoxy-2-methylpropane + water; phases: Liquid mixture 1, Liquid mixture 2, Gas
Fixed: Temperature, K = 275.15
Property: Mole fraction of water (Liquid mixture 1); method: Chromatography
Mole fraction of methane	Mole fraction of water	uncertainty
0.881191	0.073304	0.010492
0.98154	0.061392	0.009966
0.986334	0.06344	0.010047

System: methane + 2-methoxy-2-methylpropane + water; phases: Liquid mixture 2, Liquid mixture 1, Gas
Fixed: Temperature, K = 275.15
Property: Mole fraction of water (Liquid mixture 2); method: Chromatography
Mole fraction of methane	Mole fraction of water	uncertainty
0.881191	0.99659	0.000461
0.98154	0.995295	0.001429
0.986334	0.994286	0.000933

System: methane + heptane + water; phases: Gas, Liquid mixture 1, Liquid mixture 2
Fixed: Temperature, K = 275.5
Property: Vapor or sublimation pressure, kPa (Gas); method: Closed cell (Static) method
Mole fraction of methane	Vapor or sublimation pressure, kPa	uncertainty
0.963987	120	73
0.993456	1000	113
0.994973	2000	198

System: methane + heptane + water; phases: Liquid mixture 1, Gas, Liquid mixture 2
Fixed: Temperature, K = 275.5
Property: Mole fraction of methane (Liquid mixture 1); method: Chromatography
Mole fraction of methane	Mole fraction of methane	uncertainty
0.963987	0.015111	0.002317
0.993456	0.027014	0.008694
0.994973	0.076446	0.016875

System: methane + heptane + water; phases: Liquid mixture 2, Gas, Liquid mixture 1
Fixed: Temperature, K = 275.5
Property: Mole fraction of methane (Liquid mixture 2); method: Chromatography
Mole fraction of methane	Mole fraction of methane	uncertainty
0.963987	4.7e-05	2.8e-05
0.993456	0.000304	7.1e-05
0.994973	0.000523	9.6e-05

System: methane + heptane + water; phases: Gas, Liquid mixture 1, Liquid mixture 2
Fixed: Temperature, K = 275.5
Property: Mole fraction of water (Gas); method: Chromatography
Mole fraction of methane	Mole fraction of water	uncertainty
0.963987	0.0068	0.000488
0.993456	0.001315	0.000214
0.994973	0.000737	0.000115

System: methane + heptane + water; phases: Liquid mixture 1, Liquid mixture 2, Gas
Fixed: Temperature, K = 275.5
Property: Mole fraction of water (Liquid mixture 1); method: Chromatography
Mole fraction of methane	Mole fraction of water	uncertainty
0.963987	0.000844	4.6e-05
0.993456	0.00059	4.1e-05
0.994973	0.000632	5.3e-05

System: methane + heptane + water; phases: Liquid mixture 2, Gas, Liquid mixture 1
Fixed: Temperature, K = 275.5
Property: Mole fraction of water (Liquid mixture 2); method: Chromatography
Mole fraction of methane	Mole fraction of water	uncertainty
0.963987	0.999953	2.2e-05
0.993456	0.999692	2.6e-05
0.994973	0.999466	5e-05

System: methane + methylcyclohexane + water; phases: Gas, Liquid mixture 1, Liquid mixture 2
Fixed: Temperature, K = 275.5
Property: Vapor or sublimation pressure, kPa (Gas); method: Closed cell (Static) method
Mole fraction of methane	Vapor or sublimation pressure, kPa	uncertainty
0.963407	120	194
0.991842	1000	466
0.993516	2000	233
0.995508	3000	218

System: methane + methylcyclohexane + water; phases: Liquid mixture 1, Gas, Liquid mixture 2
Fixed: Temperature, K = 275.5
Property: Mole fraction of methane (Liquid mixture 1); method: Chromatography
Mole fraction of methane	Mole fraction of methane	uncertainty
0.963407	0.018701	0.018632
0.991842	0.102245	0.006582
0.993516	0.110203	0.016102
0.995508	0.149582	0.018389

System: methane + methylcyclohexane + water; phases: Liquid mixture 2, Gas, Liquid mixture 1
Fixed: Temperature, K = 275.5
Property: Mole fraction of methane (Liquid mixture 2); method: Chromatography
Mole fraction of methane	Mole fraction of methane	uncertainty
0.963407	3.7e-05	3.7e-05
0.991842	0.000265	0.000119
0.993516	0.000502	6.3e-05
0.995508	0.000779	8.3e-05

System: methane + methylcyclohexane + water; phases: Gas, Liquid mixture 1, Liquid mixture 2
Fixed: Temperature, K = 275.5
Property: Mole fraction of water (Gas); method: Chromatography
Mole fraction of methane	Mole fraction of water	uncertainty
0.963407	0.007148	0.001232
0.991842	0.001735	0.000412
0.993516	0.001108	0.000243
0.995508	0.000964	0.000134

System: methane + methylcyclohexane + water; phases: Liquid mixture 1, Liquid mixture 2, Gas
Fixed: Temperature, K = 275.5
Property: Mole fraction of water (Liquid mixture 1); method: Chromatography
Mole fraction of methane	Mole fraction of water	uncertainty
0.963407	0.000503	6.4e-05
0.991842	0.000534	0.000165
0.993516	0.000839	0.000401
0.995508	0.003421	0.000672

System: methane + methylcyclohexane + water; phases: Liquid mixture 2, Gas, Liquid mixture 1
Fixed: Temperature, K = 275.5
Property: Mole fraction of water (Liquid mixture 2); method: Chromatography
Mole fraction of methane	Mole fraction of water	uncertainty
0.963407	0.99996	4e-05
0.991842	0.999727	0.000114
0.993516	0.999483	0.00013
0.995508	0.999201	0.000209
