Measured thermophysical data. Thermodynamics of binary mixtures: The effect of substituents in aromatics on their excess properties with benzylalcohol
Source: Fluid Phase Equilib., 2014, 10.1016/j.fluid.2014.01.019
Compound 1: benzenemethanol, C7H8O, InChI=1S/C7H8O/c8-6-7-4-2-1-3-5-7/h1-5,8H,6H2, purity 99.5%
Compound 2: 2-chlorotoluene, C7H7Cl, InChI=1S/C7H7Cl/c1-6-4-2-3-5-7(6)8/h2-5H,1H3, purity 99.5%
Compound 3: 3-chlorotoluene, C7H7Cl, InChI=1S/C7H7Cl/c1-6-3-2-4-7(8)5-6/h2-5H,1H3, purity 99%
Compound 4: 4-chlorotoluene, C7H7Cl, InChI=1S/C7H7Cl/c1-6-2-4-7(8)5-3-6/h2-5H,1H3, purity 99%
Compound 5: 2-nitrotoluene, C7H7NO2, InChI=1S/C7H7NO2/c1-6-4-2-3-5-7(6)8(9)10/h2-5H,1H3, purity 99.5%
Compound 6: 3-nitrotoluene, C7H7NO2, InChI=1S/C7H7NO2/c1-6-3-2-4-7(5-6)8(9)10/h2-5H,1H3, purity 99.5%

System: benzenemethanol; phases: Liquid
Fixed: Pressure, kPa = 101.325
Property: Mass density, kg/m3 (Liquid); method: Vibrating tube method
Temperature, K	Mass density, kg/m3	uncertainty
298.15	1041.44	0.14
303.15	1037.67	0.14
308.15	1033.75	0.14
313.15	1029.91	0.14

System: benzenemethanol; phases: Liquid
Fixed: Pressure, kPa = 101
Fixed: Frequency, MHz = 2
Property: Speed of sound, m/s (Liquid); method: Linear variable-path acoustic interferometer
Temperature, K	Speed of sound, m/s	uncertainty
303.15	1514	9
313.15	1485	9

System: 2-chlorotoluene; phases: Liquid
Fixed: Pressure, kPa = 101.325
Property: Mass density, kg/m3 (Liquid); method: Vibrating tube method
Temperature, K	Mass density, kg/m3	uncertainty
298.15	1076.47	0.15
303.15	1072.86	0.15
308.15	1068.21	0.15
313.15	1064.01	0.15

System: 2-chlorotoluene; phases: Liquid
Fixed: Pressure, kPa = 101
Fixed: Frequency, MHz = 2
Property: Speed of sound, m/s (Liquid); method: Linear variable-path acoustic interferometer
Temperature, K	Speed of sound, m/s	uncertainty
303.15	1285	8
313.15	1248	8

System: 3-chlorotoluene; phases: Liquid
Fixed: Pressure, kPa = 101.325
Property: Mass density, kg/m3 (Liquid); method: Vibrating tube method
Temperature, K	Mass density, kg/m3	uncertainty
298.15	1067.25	0.15
303.15	1062.79	0.15
308.15	1058.29	0.15
313.15	1053.49	0.15

System: 3-chlorotoluene; phases: Liquid
Fixed: Pressure, kPa = 101
Fixed: Frequency, MHz = 2
Property: Speed of sound, m/s (Liquid); method: Linear variable-path acoustic interferometer
Temperature, K	Speed of sound, m/s	uncertainty
303.15	1281	8
313.15	1247	8

System: 4-chlorotoluene; phases: Liquid
Fixed: Pressure, kPa = 101.325
Property: Mass density, kg/m3 (Liquid); method: Vibrating tube method
Temperature, K	Mass density, kg/m3	uncertainty
298.15	1064.93	0.16
303.15	1059.56	0.16
308.15	1054.27	0.15
313.15	1049.29	0.15

System: 4-chlorotoluene; phases: Liquid
Fixed: Pressure, kPa = 101
Fixed: Frequency, MHz = 2
Property: Speed of sound, m/s (Liquid); method: Linear variable-path acoustic interferometer
Temperature, K	Speed of sound, m/s	uncertainty
303.15	1274	8
313.15	1237	8

System: 2-nitrotoluene; phases: Liquid
Fixed: Pressure, kPa = 101.325
Property: Mass density, kg/m3 (Liquid); method: Vibrating tube method
Temperature, K	Mass density, kg/m3	uncertainty
298.15	1159.6	0.19
303.15	1153.29	0.18
308.15	1149.78	0.18
313.15	1144.91	0.18

System: 2-nitrotoluene; phases: Liquid
Fixed: Pressure, kPa = 101
Fixed: Frequency, MHz = 2
Property: Speed of sound, m/s (Liquid); method: Linear variable-path acoustic interferometer
Temperature, K	Speed of sound, m/s	uncertainty
303.15	1439	9
313.15	1403	9

System: 3-nitrotoluene; phases: Liquid
Fixed: Pressure, kPa = 101.325
Property: Mass density, kg/m3 (Liquid); method: Vibrating tube method
Temperature, K	Mass density, kg/m3	uncertainty
298.15	1152.23	0.18
303.15	1147.67	0.18
308.15	1142.67	0.18
313.15	1137.98	0.18

System: 3-nitrotoluene; phases: Liquid
Fixed: Pressure, kPa = 101
Fixed: Frequency, MHz = 2
Property: Speed of sound, m/s (Liquid); method: Linear variable-path acoustic interferometer
Temperature, K	Speed of sound, m/s	uncertainty
303.15	1442	9
313.15	1409	9

System: 2-chlorotoluene + benzenemethanol; phases: Liquid
Fixed: Pressure, kPa = 101
Fixed: Frequency, MHz = 2
Property: Speed of sound, m/s (Liquid); method: Linear variable-path acoustic interferometer
Temperature, K	Mole fraction of benzenemethanol	Speed of sound, m/s	uncertainty
303.15	0.0507	1301	8
303.15	0.1134	1320	8
303.15	0.1507	1332	8
303.15	0.1894	1344	8
303.15	0.2477	1360	8
303.15	0.3059	1377	8
303.15	0.3686	1394	9
303.15	0.4535	1415	9
303.15	0.5385	1436	9
303.15	0.6309	1456	9
303.15	0.7003	1469	9
303.15	0.7723	1482	9
303.15	0.8537	1496	9
303.15	0.8902	1499	9
303.15	0.9547	1508	9
313.15	0.0507	1296	8
313.15	0.1134	1308	8
313.15	0.1507	1316	8
313.15	0.1894	1325	8
313.15	0.2477	1336	8
313.15	0.3059	1348	8
313.15	0.3686	1360	8
313.15	0.4535	1377	8
313.15	0.5385	1393	9
313.15	0.6309	1411	9
313.15	0.7003	1426	9
313.15	0.7723	1442	9
313.15	0.8537	1458	9
313.15	0.8902	1466	9
313.15	0.9547	1478	9

System: 2-chlorotoluene + benzenemethanol; phases: Liquid
Fixed: Pressure, kPa = 101
Property: Mass density, kg/m3 (Liquid); method: Vibrating tube method
Temperature, K	Mole fraction of benzenemethanol	Mass density, kg/m3	uncertainty
298.15	0.0507	1074.83	0.15
298.15	0.1134	1072.8	0.15
298.15	0.1507	1071.57	0.15
298.15	0.1894	1070.31	0.15
298.15	0.2477	1068.37	0.15
298.15	0.3059	1066.42	0.15
298.15	0.3686	1064.3	0.15
298.15	0.4535	1061.39	0.15
298.15	0.5385	1058.41	0.15
298.15	0.6309	1055.16	0.15
298.15	0.7003	1052.67	0.15
298.15	0.7723	1050.04	0.15
298.15	0.8537	1047.01	0.15
298.15	0.8902	1045.64	0.15
298.15	0.9547	1043.18	0.14
303.15	0.0507	1071.16	0.15
303.15	0.1134	1068.97	0.15
303.15	0.1507	1067.66	0.15
303.15	0.1894	1066.29	0.15
303.15	0.2477	1064.25	0.15
303.15	0.3059	1062.2	0.15
303.15	0.3686	1060	0.15
303.15	0.4535	1057.02	0.15
303.15	0.5385	1054.04	0.15
303.15	0.6309	1050.78	0.15
303.15	0.7003	1048.32	0.15
303.15	0.7723	1045.77	0.15
303.15	0.8537	1042.88	0.14
303.15	0.8902	1041.6	0.14
303.15	0.9547	1039.28	0.14
308.15	0.0507	1066.48	0.15
308.15	0.1134	1064.3	0.15
308.15	0.1507	1062.99	0.15
308.15	0.1894	1061.66	0.15
308.15	0.2477	1059.65	0.15
308.15	0.3059	1057.64	0.15
308.15	0.3686	1055.47	0.15
308.15	0.4535	1052.56	0.15
308.15	0.5385	1049.63	0.15
308.15	0.6309	1046.46	0.15
308.15	0.7003	1044.08	0.15
308.15	0.7723	1041.59	0.14
308.15	0.8537	1038.81	0.14
308.15	0.8902	1037.56	0.14
308.15	0.9547	1035.35	0.14
313.15	0.0507	1061.94	0.15
313.15	0.1134	1059.77	0.15
313.15	0.1507	1058.47	0.15
313.15	0.1894	1057.14	0.15
313.15	0.2477	1055.13	0.15
313.15	0.3059	1053.16	0.15
313.15	0.3686	1051.04	0.15
313.15	0.4535	1048.18	0.15
313.15	0.5385	1045.3	0.15
313.15	0.6309	1042.2	0.15
313.15	0.7003	1039.89	0.14
313.15	0.7723	1037.48	0.14
313.15	0.8537	1034.72	0.14
313.15	0.8902	1033.55	0.14
313.15	0.9547	1031.4	0.14

System: benzenemethanol + 3-chlorotoluene; phases: Liquid
Fixed: Pressure, kPa = 101
Property: Mass density, kg/m3 (Liquid); method: Vibrating tube method
Temperature, K	Mole fraction of benzenemethanol	Mass density, kg/m3	uncertainty
298.15	0.0583	1065.82	0.15
298.15	0.1107	1064.36	0.15
298.15	0.1903	1062.34	0.15
298.15	0.2401	1061.05	0.15
298.15	0.3028	1059.47	0.15
298.15	0.3703	1057.61	0.15
298.15	0.4442	1055.83	0.15
298.15	0.5405	1053.04	0.15
298.15	0.6285	1050.88	0.15
298.15	0.7019	1049.03	0.15
298.15	0.7558	1047.64	0.15
298.15	0.8109	1046.31	0.15
298.15	0.8546	1045.2	0.14
298.15	0.8946	1044.04	0.14
298.15	0.9498	1042.49	0.14
303.15	0.0583	1061.18	0.15
303.15	0.1107	1059.84	0.15
303.15	0.1903	1057.86	0.15
303.15	0.2401	1056.6	0.15
303.15	0.3028	1055.2	0.15
303.15	0.3703	1053.44	0.15
303.15	0.4442	1051.49	0.15
303.15	0.5405	1049.21	0.15
303.15	0.6285	1046.99	0.15
303.15	0.7019	1045.09	0.15
303.15	0.7558	1043.62	0.15
303.15	0.8109	1042.35	0.14
303.15	0.8546	1041.4	0.14
303.15	0.8946	1040.31	0.14
303.15	0.9498	1038.83	0.14
308.15	0.0583	1056.8	0.15
308.15	0.1107	1055.47	0.15
308.15	0.1903	1053.42	0.15
308.15	0.2401	1052.17	0.15
308.15	0.3028	1050.6	0.15
308.15	0.3703	1048.89	0.15
308.15	0.4442	1047.05	0.15
308.15	0.5405	1044.67	0.15
308.15	0.6285	1042.53	0.15
308.15	0.7019	1040.75	0.14
308.15	0.7558	1039.43	0.14
308.15	0.8109	1038.15	0.14
308.15	0.8546	1037.11	0.14
308.15	0.8946	1036.18	0.14
308.15	0.9498	1034.89	0.14
313.15	0.0583	1052.23	0.15
313.15	0.1107	1050.83	0.15
313.15	0.1903	1048.82	0.15
313.15	0.2401	1047.95	0.15
313.15	0.3028	1046.35	0.15
313.15	0.3703	1044.54	0.15
313.15	0.4442	1042.9	0.15
313.15	0.5405	1040.69	0.14
313.15	0.6285	1038.52	0.14
313.15	0.7019	1036.95	0.14
313.15	0.7558	1035.23	0.14
313.15	0.8109	1034.05	0.14
313.15	0.8546	1033.02	0.14
313.15	0.8946	1032.43	0.14
313.15	0.9498	1030.91	0.14

System: benzenemethanol + 3-chlorotoluene; phases: Liquid
Fixed: Pressure, kPa = 101
Fixed: Frequency, MHz = 2
Property: Speed of sound, m/s (Liquid); method: Linear variable-path acoustic interferometer
Temperature, K	Mole fraction of benzenemethanol	Speed of sound, m/s	uncertainty
303.15	0.0583	1298	8
303.15	0.1107	1316	8
303.15	0.1903	1340	8
303.15	0.2401	1356	8
303.15	0.3028	1374	8
303.15	0.3703	1394	9
303.15	0.4442	1414	9
303.15	0.5405	1440	9
303.15	0.6285	1462	9
303.15	0.7019	1477	9
303.15	0.7558	1487	9
303.15	0.8109	1494	9
303.15	0.8546	1501	9
303.15	0.8946	1504	9
303.15	0.9498	1510	9
313.15	0.0583	1294	8
313.15	0.1107	1304	8
313.15	0.1903	1321	8
313.15	0.2401	1331	8
313.15	0.3028	1343	8
313.15	0.3703	1356	8
313.15	0.4442	1371	8
313.15	0.5405	1389	8
313.15	0.6285	1409	9
313.15	0.7019	1422	9
313.15	0.7558	1435	9
313.15	0.8109	1446	9
313.15	0.8546	1455	9
313.15	0.8946	1462	9
313.15	0.9498	1474	9

System: benzenemethanol + 4-chlorotoluene; phases: Liquid
Fixed: Pressure, kPa = 101
Property: Mass density, kg/m3 (Liquid); method: Vibrating tube method
Temperature, K	Mole fraction of benzenemethanol	Mass density, kg/m3	uncertainty
298.15	0.0509	1063.78	0.16
298.15	0.1252	1062.11	0.16
298.15	0.1878	1060.69	0.15
298.15	0.2309	1059.7	0.15
298.15	0.3028	1058.05	0.15
298.15	0.3649	1056.62	0.15
298.15	0.4393	1054.9	0.15
298.15	0.5424	1052.48	0.15
298.15	0.6094	1050.91	0.15
298.15	0.6598	1049.71	0.15
298.15	0.7028	1048.68	0.15
298.15	0.7557	1047.41	0.15
298.15	0.8153	1045.97	0.15
298.15	0.8539	1045.04	0.15
298.15	0.9235	1043.33	0.14
303.15	0.0509	1058.47	0.15
303.15	0.1252	1056.85	0.15
303.15	0.1878	1055.5	0.15
303.15	0.2309	1054.46	0.15
303.15	0.3028	1052.76	0.15
303.15	0.3649	1051.58	0.15
303.15	0.4393	1049.98	0.15
303.15	0.5424	1047.59	0.15
303.15	0.6094	1046.21	0.15
303.15	0.6598	1045.06	0.15
303.15	0.7028	1044.09	0.15
303.15	0.7557	1042.91	0.15
303.15	0.8153	1041.58	0.15
303.15	0.8539	1040.74	0.15
303.15	0.9235	1039.23	0.14
308.15	0.0509	1053.11	0.15
308.15	0.1252	1051.49	0.15
308.15	0.1878	1050.13	0.15
308.15	0.2309	1049.19	0.15
308.15	0.3028	1047.63	0.15
308.15	0.3649	1046.32	0.15
308.15	0.4393	1044.75	0.15
308.15	0.5424	1042.61	0.15
308.15	0.6094	1041.23	0.15
308.15	0.6598	1040.21	0.15
308.15	0.7028	1039.35	0.15
308.15	0.7557	1038.31	0.14
308.15	0.8153	1037.16	0.14
308.15	0.8539	1036.42	0.14
308.15	0.9235	1035.1	0.14
313.15	0.0509	1048.16	0.15
313.15	0.1252	1046.61	0.15
313.15	0.1878	1045.28	0.15
313.15	0.2309	1044.4	0.15
313.15	0.3028	1042.92	0.15
313.15	0.3649	1041.65	0.15
313.15	0.4393	1040.17	0.15
313.15	0.5424	1038.12	0.15
313.15	0.6094	1036.83	0.14
313.15	0.6598	1035.88	0.14
313.15	0.7028	1035.06	0.14
313.15	0.7557	1034.1	0.14
313.15	0.8153	1033.02	0.14
313.15	0.8539	1032.32	0.14
313.15	0.9235	1031.15	0.14

System: benzenemethanol + 4-chlorotoluene; phases: Liquid
Fixed: Pressure, kPa = 101
Fixed: Frequency, MHz = 2
Property: Speed of sound, m/s (Liquid); method: Linear variable-path acoustic interferometer
Temperature, K	Mole fraction of benzenemethanol	Speed of sound, m/s	uncertainty
303.15	0.0509	1292	8
303.15	0.1252	1327	8
303.15	0.1878	1350	8
303.15	0.2309	1370	8
303.15	0.3028	1394	9
303.15	0.3649	1415	9
303.15	0.4393	1439	9
303.15	0.5424	1468	9
303.15	0.6094	1480	9
303.15	0.6598	1493	9
303.15	0.7028	1502	9
303.15	0.7557	1506	9
303.15	0.8153	1511	9
303.15	0.8539	1513	9
303.15	0.9235	1514	9
313.15	0.0509	1248	8
313.15	0.1252	1265	8
313.15	0.1878	1281	8
313.15	0.2309	1288	8
313.15	0.3028	1307	8
313.15	0.3649	1325	8
313.15	0.4393	1343	8
313.15	0.5424	1369	8
313.15	0.6094	1387	9
313.15	0.6598	1399	9
313.15	0.7028	1410	9
313.15	0.7557	1423	9
313.15	0.8153	1437	9
313.15	0.8539	1448	9
313.15	0.9235	1465	9

System: 2-nitrotoluene + benzenemethanol; phases: Liquid
Fixed: Pressure, kPa = 101
Property: Mass density, kg/m3 (Liquid); method: Vibrating tube method
Temperature, K	Mole fraction of benzenemethanol	Mass density, kg/m3	uncertainty
298.15	0.0534	1153.93	0.19
298.15	0.1227	1146.45	0.19
298.15	0.1912	1138.96	0.18
298.15	0.2352	1134.11	0.18
298.15	0.2997	1126.89	0.18
298.15	0.3713	1118.76	0.18
298.15	0.4567	1108.91	0.17
298.15	0.5416	1098.93	0.17
298.15	0.6038	1091.49	0.16
298.15	0.6536	1085.47	0.16
298.15	0.7025	1079.47	0.16
298.15	0.743	1074.47	0.16
298.15	0.8128	1065.71	0.15
298.15	0.8551	1060.33	0.15
298.15	0.9351	1050	0.15
303.15	0.0534	1148.05	0.18
303.15	0.1227	1140.66	0.18
303.15	0.1912	1133.26	0.18
303.15	0.2352	1128.45	0.18
303.15	0.2997	1121.35	0.17
303.15	0.3713	1113.36	0.17
303.15	0.4567	1103.69	0.17
303.15	0.5416	1093.89	0.16
303.15	0.6038	1086.61	0.16
303.15	0.6536	1080.69	0.16
303.15	0.7025	1074.82	0.16
303.15	0.743	1069.91	0.16
303.15	0.8128	1061.34	0.15
303.15	0.8551	1056.07	0.15
303.15	0.9351	1045.96	0.15
308.15	0.0534	1144.09	0.18
308.15	0.1227	1136.63	0.18
308.15	0.1912	1129.16	0.18
308.15	0.2352	1124.35	0.17
308.15	0.2997	1117.19	0.17
308.15	0.3713	1109.17	0.17
308.15	0.4567	1099.48	0.17
308.15	0.5416	1089.68	0.16
308.15	0.6038	1082.42	0.16
308.15	0.6536	1076.51	0.16
308.15	0.7025	1070.68	0.16
308.15	0.743	1065.79	0.15
308.15	0.8128	1057.26	0.15
308.15	0.8551	1052.04	0.15
308.15	0.9351	1042.02	0.15
313.15	0.0534	1139.21	0.18
313.15	0.1227	1131.74	0.18
313.15	0.1912	1124.32	0.17
313.15	0.2352	1119.53	0.17
313.15	0.2997	1112.42	0.17
313.15	0.3713	1104.47	0.17
313.15	0.4567	1094.85	0.16
313.15	0.5416	1085.15	0.16
313.15	0.6038	1077.95	0.16
313.15	0.6536	1072.12	0.16
313.15	0.7025	1066.34	0.15
313.15	0.743	1061.49	0.15
313.15	0.8128	1053.06	0.15
313.15	0.8551	1047.91	0.15
313.15	0.9351	1038.01	0.15

System: 2-nitrotoluene + benzenemethanol; phases: Liquid
Fixed: Pressure, kPa = 101
Fixed: Frequency, MHz = 2
Property: Speed of sound, m/s (Liquid); method: Linear variable-path acoustic interferometer
Temperature, K	Mole fraction of benzenemethanol	Speed of sound, m/s	uncertainty
303.15	0.0534	1444	9
303.15	0.1227	1449	9
303.15	0.1912	1454	9
303.15	0.2352	1458	9
303.15	0.2997	1462	9
303.15	0.3713	1467	9
303.15	0.4567	1474	9
303.15	0.5416	1480	9
303.15	0.6038	1485	9
303.15	0.6536	1489	9
303.15	0.7025	1493	9
303.15	0.743	1495	9
303.15	0.8128	1501	9
303.15	0.8551	1505	9
303.15	0.9351	1510	9
313.15	0.0534	1406	9
313.15	0.1227	1411	9
313.15	0.1912	1418	9
313.15	0.2352	1421	9
313.15	0.2997	1427	9
313.15	0.3713	1432	9
313.15	0.4567	1440	9
313.15	0.5416	1447	9
313.15	0.6038	1452	9
313.15	0.6536	1457	9
313.15	0.7025	1461	9
313.15	0.743	1464	9
313.15	0.8128	1471	9
313.15	0.8551	1474	9
313.15	0.9351	1481	9

System: 3-nitrotoluene + benzenemethanol; phases: Liquid
Fixed: Pressure, kPa = 101
Property: Mass density, kg/m3 (Liquid); method: Vibrating tube method
Temperature, K	Mole fraction of benzenemethanol	Mass density, kg/m3	uncertainty
298.15	0.0537	1146.83	0.18
298.15	0.1225	1139.74	0.18
298.15	0.1914	1132.59	0.18
298.15	0.2356	1127.96	0.18
298.15	0.2992	1121.25	0.17
298.15	0.3717	1113.52	0.17
298.15	0.4567	1104.33	0.17
298.15	0.5413	1095.03	0.16
298.15	0.6035	1088.09	0.16
298.15	0.6539	1082.39	0.16
298.15	0.7023	1076.86	0.16
298.15	0.7437	1072.1	0.16
298.15	0.8121	1064.1	0.15
298.15	0.8556	1058.96	0.15
298.15	0.9354	1049.37	0.15
303.15	0.0537	1141.95	0.18
303.15	0.1225	1134.93	0.18
303.15	0.1914	1127.81	0.18
303.15	0.2356	1123.23	0.17
303.15	0.2992	1116.57	0.17
303.15	0.3717	1108.89	0.17
303.15	0.4567	1099.76	0.17
303.15	0.5413	1090.53	0.16
303.15	0.6035	1083.66	0.16
303.15	0.6539	1078.02	0.16
303.15	0.7023	1072.56	0.16
303.15	0.7437	1067.84	0.15
303.15	0.8121	1059.94	0.15
303.15	0.8556	1054.85	0.15
303.15	0.9354	1045.39	0.15
308.15	0.0537	1137.26	0.18
308.15	0.1225	1130.25	0.18
308.15	0.1914	1123.19	0.17
308.15	0.2356	1118.65	0.17
308.15	0.2992	1112.02	0.17
308.15	0.3717	1104.4	0.17
308.15	0.4567	1095.34	0.16
308.15	0.5413	1086.18	0.16
308.15	0.6035	1079.37	0.16
308.15	0.6539	1073.77	0.16
308.15	0.7023	1068.36	0.15
308.15	0.7437	1063.65	0.15
308.15	0.8121	1055.82	0.15
308.15	0.8556	1050.78	0.15
308.15	0.9354	1041.41	0.15
313.15	0.0537	1132.52	0.18
313.15	0.1225	1125.57	0.17
313.15	0.1914	1118.56	0.17
313.15	0.2356	1114.02	0.17
313.15	0.2992	1107.46	0.17
313.15	0.3717	1099.9	0.17
313.15	0.4567	1090.91	0.16
313.15	0.5413	1081.85	0.16
313.15	0.6035	1075.08	0.16
313.15	0.6539	1069.5	0.15
313.15	0.7023	1064.17	0.15
313.15	0.7437	1059.52	0.15
313.15	0.8121	1051.76	0.15
313.15	0.8556	1046.79	0.15
313.15	0.9354	1037.5	0.14

System: 3-nitrotoluene + benzenemethanol; phases: Liquid
Fixed: Pressure, kPa = 101
Fixed: Frequency, MHz = 2
Property: Speed of sound, m/s (Liquid); method: Linear variable-path acoustic interferometer
Temperature, K	Mole fraction of benzenemethanol	Speed of sound, m/s	uncertainty
303.15	0.0537	1446	9
303.15	0.1225	1451	9
303.15	0.1914	1456	9
303.15	0.2356	1459	9
303.15	0.2992	1464	9
303.15	0.3717	1469	9
303.15	0.4567	1476	9
303.15	0.5413	1481	9
303.15	0.6035	1486	9
303.15	0.6539	1490	9
303.15	0.7023	1494	9
303.15	0.7437	1496	9
303.15	0.8121	1502	9
303.15	0.8556	1505	9
303.15	0.9354	1511	9
313.15	0.0537	1414	9
313.15	0.1225	1419	9
313.15	0.1914	1424	9
313.15	0.2356	1427	9
313.15	0.2992	1432	9
313.15	0.3717	1438	9
313.15	0.4567	1444	9
313.15	0.5413	1452	9
313.15	0.6035	1456	9
313.15	0.6539	1460	9
313.15	0.7023	1463	9
313.15	0.7437	1467	9
313.15	0.8121	1472	9
313.15	0.8556	1475	9
313.15	0.9354	1481	9
