Measured thermophysical data. Thermal properties and solubility of methyl a-D-glucopyranoside in methanol at different temperatures
Source: Fluid Phase Equilib., 2016, 10.1016/j.fluid.2015.10.047
Compound 1: methanol, CH4O, InChI=1S/CH4O/c1-2/h2H,1H3, purity 99.9%
Compound 2: methyl-.alpha.-D-glucopyranoside, C7H14O6, InChI=1S/C7H14O6/c1-12-7-6(11)5(10)4(9)3(2-8)13-7/h3-11H,2H2,1H3/t3-,4-,5+,6-,7+/m1/s1, purity 98%

System: methyl-.alpha.-D-glucopyranoside; phases: Crystal, Liquid, Air at 1 atmosphere
Property: Normal melting temperature, K (Crystal); method: DTA
Normal melting temperature, K	uncertainty
442.33	0.5

System: methyl-.alpha.-D-glucopyranoside; phases: Crystal, Liquid, Air at 1 atmosphere
Property: Molar enthalpy of transition or fusion, kJ/mol (Crystal); method: DSC
Molar enthalpy of transition or fusion, kJ/mol	uncertainty
28.04	16.01

System: methyl-.alpha.-D-glucopyranoside; phases: Crystal
Fixed: Pressure, kPa = 101.325
Property: Molar heat capacity at constant pressure, J/K/mol (Crystal); method: Large sample (1 g) DSC
Temperature, K	Molar heat capacity at constant pressure, J/K/mol	uncertainty
298.15	291.48	7.14
303.15	294.68	7.22
308.15	297.16	7.28
313.15	300.15	7.35
318.15	302.5	7.4
323.15	305.37	7.48
328.15	308.34	7.55
333.15	311.81	7.64
338.15	315.04	7.72
343.13	317.77	7.78
348.15	320.54	7.85
353.15	323.46	7.92
358.15	327.84	8.03
363.15	331.47	8.12
368.15	334	8.18
373.15	336.83	8.25
378.15	339.69	8.32
383.15	342.52	8.39
388.15	345.56	8.46
393.15	348.77	8.54
398.15	352.33	8.63
403.15	356.35	8.73
408.15	360.93	8.84
413.15	366.26	8.97
418.15	369.54	9.05
423.15	372.62	9.13
428.15	376.07	9.21
433.15	379.37	9.29

System: methyl-.alpha.-D-glucopyranoside; phases: Liquid
Fixed: Pressure, kPa = 101.325
Property: Molar heat capacity at constant pressure, J/K/mol (Liquid); method: Large sample (1 g) DSC
Temperature, K	Molar heat capacity at constant pressure, J/K/mol	uncertainty
453.15	510.58	12.51
458.15	511.8	12.54
463.15	513	12.57
468.15	514.17	12.59
473.15	515.44	12.63
478.15	516.62	12.65
483.15	517.93	12.69
488.15	519.22	12.72
493.15	520.14	12.74
498.15	521.17	12.77
503.15	522.4	12.8
508.15	523.64	12.83
513.15	524.87	12.86

System: methanol + methyl-.alpha.-D-glucopyranoside; phases: Liquid, Crystal
Fixed: Pressure, kPa = 101
Property: Mole fraction of methyl-.alpha.-D-glucopyranoside (Liquid); method: Phase equilibration
Temperature, K	Mole fraction of methyl-.alpha.-D-glucopyranoside	uncertainty
293.15	0.009407	3.7e-05
298.15	0.010913	4.3e-05
303.15	0.012833	5.1e-05
308.18	0.015022	5.8e-05
313.15	0.017463	6.5e-05
318.15	0.020034	6.9e-05
