Measured thermophysical data. High pressure solid liquid equilibria of fatty acids
Source: Fluid Phase Equilib., 2007, 10.1016/j.fluid.2007.02.007
Compound 1: dodecanoic acid, C12H24O2, InChI=1S/C12H24O2/c1-2-3-4-5-6-7-8-9-10-11-12(13)14/h2-11H2,1H3,(H,13,14)
Compound 2: tetradecanoic acid, C14H28O2, InChI=1S/C14H28O2/c1-2-3-4-5-6-7-8-9-10-11-12-13-14(15)16/h2-13H2,1H3,(H,15,16)
Compound 3: octanoic acid, C8H16O2, InChI=1S/C8H16O2/c1-2-3-4-5-6-7-8(9)10/h2-7H2,1H3,(H,9,10)

System: dodecanoic acid; phases: Crystal, Liquid, Air at 1 atmosphere
Property: Normal melting temperature, K (Crystal); method: VISOBS:UFactor:8
Normal melting temperature, K	uncertainty
316.18	1.24

System: dodecanoic acid; phases: Crystal, Liquid
Property: Solid-liquid equilibrium temperature, K (Crystal); method: VISOBS:UFactor:8
Pressure, kPa	Solid-liquid equilibrium temperature, K	uncertainty
20000	320.6	1.24
40000	325.17	1.24
60000	329.76	1.24
70000	331.86	1.24
80000	334.1	1.24
90000	336.1	1.24

System: tetradecanoic acid; phases: Crystal, Liquid, Air at 1 atmosphere
Property: Normal melting temperature, K (Crystal); method: VISOBS:UFactor:8
Normal melting temperature, K	uncertainty
327.5	1.24

System: tetradecanoic acid; phases: Crystal, Liquid
Property: Solid-liquid equilibrium temperature, K (Crystal); method: VISOBS:UFactor:8
Pressure, kPa	Solid-liquid equilibrium temperature, K	uncertainty
20000	332.3	1.24
40000	337.25	1.24
60000	342.31	1.24
70000	344.68	1.24
80000	346.55	1.24
90000	348.93	1.24

System: octanoic acid; phases: Crystal, Liquid, Air at 1 atmosphere
Property: Normal melting temperature, K (Crystal); method: VISOBS:UFactor:8
Normal melting temperature, K	uncertainty
289.86	1.24

System: octanoic acid; phases: Crystal, Liquid
Property: Solid-liquid equilibrium temperature, K (Crystal); method: VISOBS:UFactor:8
Pressure, kPa	Solid-liquid equilibrium temperature, K	uncertainty
20000	294.52	1.24
40000	299.35	1.24
60000	303.85	1.24
80000	308.09	1.24
90000	309.98	1.24

System: dodecanoic acid + tetradecanoic acid; phases: Liquid, Crystal
Property: Solid-liquid equilibrium temperature, K (Liquid); method: VISOBS:UFactor:8
Pressure, kPa	Mole fraction of dodecanoic acid	Solid-liquid equilibrium temperature, K	uncertainty
100	0.6996	308.45	1.24
100	0.7498	309.98	1.24
100	0.799	312.05	1.24
100	0.9	315.15	1.24
100	1	316.18	1.24
20000	0.6996	313.35	1.24
20000	0.7498	315.1	1.24
20000	0.799	316.85	1.24
20000	0.9	319.45	1.24
20000	1	320.6	1.24
40000	0.6996	317.55	1.24
40000	0.7498	318.85	1.24
40000	0.799	321.35	1.24
40000	0.9	323.95	1.24
40000	1	325.17	1.24
60000	0.6996	322.32	1.24
60000	0.7498	323.95	1.24
60000	0.799	326.15	1.24
60000	0.9	328.15	1.24
60000	1	329.76	1.24
70000	0.6996	324.32	1.24
70000	0.7498	325.48	1.24
70000	0.799	328.45	1.24
70000	0.9	330.15	1.24
70000	1	331.86	1.24
80000	0.6996	326.29	1.24
80000	0.7498	327.78	1.24
80000	0.799	330.35	1.24
80000	0.9	332.05	1.24
80000	1	334.1	1.24
90000	0.6996	328.45	1.24
90000	0.7498	329.95	1.24
90000	0.799	332.05	1.24
90000	0.9	334.35	1.24
90000	1	336.1	1.24

System: dodecanoic acid + tetradecanoic acid; phases: Liquid, Crystal
Property: Solid-liquid equilibrium temperature, K (Liquid); method: VISOBS:UFactor:8
Pressure, kPa	Mole fraction of dodecanoic acid	Solid-liquid equilibrium temperature, K	uncertainty
100	0	327.5	1.24
100	0.1009	325.58	1.24
100	0.1966	324.08	1.24
100	0.3026	321.01	1.24
100	0.3915	317.19	1.24
100	0.5002	311.95	1.24
100	0.6025	310.19	1.24
100	0.6469	308.49	1.24
20000	0	332.3	1.24
20000	0.1009	330.23	1.24
20000	0.1966	328.32	1.24
20000	0.3026	325.66	1.24
20000	0.3915	321.12	1.24
20000	0.5002	316.5	1.24
20000	0.6025	314.37	1.24
20000	0.6469	312.85	1.24
40000	0	337.25	1.24
40000	0.1009	334.76	1.24
40000	0.1966	333.07	1.24
40000	0.3026	330.31	1.24
40000	0.3915	326.29	1.24
40000	0.5002	320.92	1.24
40000	0.6025	318.49	1.24
40000	0.6469	317.18	1.24
60000	0	342.31	1.24
60000	0.1009	339.97	1.24
60000	0.1966	337.35	1.24
60000	0.3026	334.74	1.24
60000	0.3915	330.37	1.24
60000	0.5002	325.15	1.24
60000	0.6025	322.42	1.24
60000	0.6469	321.4	1.24
70000	0	344.68	1.24
70000	0.1009	342.25	1.24
70000	0.1966	339.97	1.24
70000	0.3026	336.75	1.24
70000	0.3915	332.65	1.24
70000	0.5002	327.07	1.24
70000	0.6025	324.37	1.24
70000	0.6469	323.28	1.24
80000	0	346.55	1.24
80000	0.1009	344.89	1.24
80000	0.1966	342.53	1.24
80000	0.3026	339.22	1.24
80000	0.3915	334.89	1.24
80000	0.5002	330	1.24
80000	0.6025	326.41	1.24
80000	0.6469	325.04	1.24
90000	0	348.93	1.24
90000	0.1009	347.03	1.24
90000	0.1966	345.35	1.24
90000	0.3026	341.22	1.24
90000	0.3915	337.27	1.24
90000	0.5002	332.45	1.24
90000	0.6025	329.53	1.24
90000	0.6469	326.75	1.24

System: octanoic acid + tetradecanoic acid; phases: Liquid, Crystal
Property: Solid-liquid equilibrium temperature, K (Liquid); method: VISOBS:UFactor:8
Pressure, kPa	Mole fraction of octanoic acid	Solid-liquid equilibrium temperature, K	uncertainty
100	0.95	287.35	1.24
100	1	289.86	1.24
20000	0.95	291.75	1.24
20000	1	294.52	1.24
40000	0.95	295.95	1.24
40000	1	299.35	1.24
60000	0.95	300.55	1.24
60000	1	303.85	1.24
80000	0.95	304.85	1.24
80000	1	308.09	1.24
90000	0.95	306.55	1.24
90000	1	309.98	1.24

System: octanoic acid + tetradecanoic acid; phases: Liquid, Crystal
Property: Solid-liquid equilibrium temperature, K (Liquid); method: VISOBS:UFactor:8
Pressure, kPa	Mole fraction of octanoic acid	Solid-liquid equilibrium temperature, K	uncertainty
100	0	327.5	1.24
100	0.2022	324.18	1.24
100	0.401	318.25	1.24
100	0.6025	310.25	1.24
100	0.7982	299.25	1.24
100	0.8502	293.15	1.24
100	0.8997	285.53	1.24
20000	0	332.3	1.24
20000	0.2022	329.07	1.24
20000	0.401	322.31	1.24
20000	0.6025	314.95	1.24
20000	0.7982	303.64	1.24
20000	0.8502	297.25	1.24
20000	0.8997	289.53	1.24
40000	0	337.25	1.24
40000	0.2022	334.15	1.24
40000	0.401	326.55	1.24
40000	0.6025	319.45	1.24
40000	0.7982	308.2	1.24
40000	0.8502	301.45	1.24
40000	0.8997	294.15	1.24
60000	0	342.31	1.24
60000	0.2022	338.91	1.24
60000	0.401	330.79	1.24
60000	0.6025	323.6	1.24
60000	0.7982	312.45	1.24
60000	0.8502	305.75	1.24
60000	0.8997	298.5	1.24
80000	0	346.55	1.24
80000	0.2022	343.37	1.24
80000	0.401	335.35	1.24
80000	0.6025	328.05	1.24
80000	0.7982	317	1.24
80000	0.8502	310.25	1.24
80000	0.8997	302.65	1.24
90000	0	348.93	1.24
90000	0.2022	345.4	1.24
90000	0.401	337.15	1.24
90000	0.6025	329.95	1.24
90000	0.7982	318.89	1.24
90000	0.8502	312.25	1.24
90000	0.8997	304.15	1.24
