Measured thermophysical data. Excess enthalpies of dimethylsulfoxide with substituted benzenes at 298.15K
Source: Fluid Phase Equilib., 2008, 10.1016/j.fluid.2007.10.017
Compound 1: dimethyl sulfoxide, C2H6OS, InChI=1S/C2H6OS/c1-4(2)3/h1-2H3
Compound 2: toluene, C7H8, InChI=1S/C7H8/c1-7-5-3-2-4-6-7/h2-6H,1H3
Compound 3: ethylbenzene, C8H10, InChI=1S/C8H10/c1-2-8-6-4-3-5-7-8/h3-7H,2H2,1H3
Compound 4: chlorobenzene, C6H5Cl, InChI=1S/C6H5Cl/c7-6-4-2-1-3-5-6/h1-5H
Compound 5: bromobenzene, C6H5Br, InChI=1S/C6H5Br/c7-6-4-2-1-3-5-6/h1-5H
Compound 6: nitrobenzene, C6H5NO2, InChI=1S/C6H5NO2/c8-7(9)6-4-2-1-3-5-6/h1-5H

System: dimethyl sulfoxide; phases: Liquid, Gas
Property: Boiling temperature at pressure P, K (Liquid); method: Ebulliometric method (Recirculating still)
Pressure, kPa	Boiling temperature at pressure P, K	uncertainty
95.3	462.19	0.41

System: dimethyl sulfoxide; phases: Liquid
Property: Mass density, kg/m3 (Liquid); method: Pycnometric method
Temperature, K	Pressure, kPa	Mass density, kg/m3	uncertainty
303.15	101.325	1092.4	8.68

System: toluene; phases: Liquid, Gas
Property: Boiling temperature at pressure P, K (Liquid); method: Ebulliometric method (Recirculating still)
Pressure, kPa	Boiling temperature at pressure P, K	uncertainty
95.3	383.05	0.41

System: toluene; phases: Liquid
Property: Mass density, kg/m3 (Liquid); method: Pycnometric method
Temperature, K	Pressure, kPa	Mass density, kg/m3	uncertainty
303.15	101.325	857.66	5.42

System: ethylbenzene; phases: Liquid, Gas
Property: Boiling temperature at pressure P, K (Liquid); method: Ebulliometric method (Recirculating still)
Pressure, kPa	Boiling temperature at pressure P, K	uncertainty
95.3	408.75	0.41

System: ethylbenzene; phases: Liquid
Property: Mass density, kg/m3 (Liquid); method: Pycnometric method
Temperature, K	Pressure, kPa	Mass density, kg/m3	uncertainty
303.15	101.325	858.2	5.42

System: chlorobenzene; phases: Liquid, Gas
Property: Boiling temperature at pressure P, K (Liquid); method: Ebulliometric method (Recirculating still)
Pressure, kPa	Boiling temperature at pressure P, K	uncertainty
95.3	404.35	0.41

System: chlorobenzene; phases: Liquid
Property: Mass density, kg/m3 (Liquid); method: Pycnometric method
Temperature, K	Pressure, kPa	Mass density, kg/m3	uncertainty
303.15	101.325	1095.52	8.73

System: bromobenzene; phases: Liquid, Gas
Property: Boiling temperature at pressure P, K (Liquid); method: Ebulliometric method (Recirculating still)
Pressure, kPa	Boiling temperature at pressure P, K	uncertainty
95.3	427.85	0.41

System: bromobenzene; phases: Liquid
Property: Mass density, kg/m3 (Liquid); method: Pycnometric method
Temperature, K	Pressure, kPa	Mass density, kg/m3	uncertainty
303.15	101.325	1481.48	15.77

System: nitrobenzene; phases: Liquid, Gas
Property: Boiling temperature at pressure P, K (Liquid); method: Ebulliometric method (Recirculating still)
Pressure, kPa	Boiling temperature at pressure P, K	uncertainty
95.3	483.05	0.41

System: nitrobenzene; phases: Liquid
Property: Mass density, kg/m3 (Liquid); method: Pycnometric method
Temperature, K	Pressure, kPa	Mass density, kg/m3	uncertainty
303.15	101.325	1193.4	10.32

System: dimethyl sulfoxide + toluene; phases: Liquid
Fixed: Temperature, K = 298.15
Fixed: Pressure, kPa = 101
Property: Excess molar enthalpy (molar enthalpy of mixing), kJ/mol (Liquid); method: Calvet calorimetry
Mole fraction of toluene	Excess molar enthalpy (molar enthalpy of mixing), kJ/mol	uncertainty
0.0429	0.1342	0.0032
0.0888	0.2476	0.0056
0.1395	0.3604	0.0079
0.1908	0.4763	0.0104
0.2523	0.5955	0.0129
0.3042	0.6669	0.0144
0.3548	0.7135	0.0154
0.3578	0.722	0.0156
0.4026	0.7463	0.0161
0.4034	0.7455	0.0161
0.4495	0.7648	0.0165
0.5071	0.7558	0.0163
0.5724	0.74	0.016
0.6486	0.6967	0.015
0.8211	0.5045	0.011
0.9132	0.3063	0.0068

System: dimethyl sulfoxide + ethylbenzene; phases: Liquid
Fixed: Temperature, K = 298.15
Fixed: Pressure, kPa = 101
Property: Excess molar enthalpy (molar enthalpy of mixing), kJ/mol (Liquid); method: Calvet calorimetry
Mole fraction of ethylbenzene	Excess molar enthalpy (molar enthalpy of mixing), kJ/mol	uncertainty
0.0641	0.2693	0.006
0.1286	0.5006	0.0109
0.1894	0.6619	0.0143
0.2469	0.7925	0.0171
0.2974	0.8906	0.0191
0.3643	0.8927	0.0192
0.4184	0.8954	0.0192
0.4836	0.9052	0.0195
0.562	0.905	0.0195
0.6521	0.8517	0.0183
0.7459	0.79	0.017
0.8726	0.4624	0.0101

System: dimethyl sulfoxide + chlorobenzene; phases: Liquid
Fixed: Temperature, K = 298.15
Fixed: Pressure, kPa = 101
Property: Excess molar enthalpy (molar enthalpy of mixing), kJ/mol (Liquid); method: Calvet calorimetry
Mole fraction of chlorobenzene	Excess molar enthalpy (molar enthalpy of mixing), kJ/mol	uncertainty
0.0312	0.0557	0.0016
0.1209	0.1963	0.0045
0.1704	0.2638	0.0059
0.2194	0.3198	0.0071
0.266	0.3687	0.0081
0.3129	0.4135	0.009
0.3592	0.4513	0.0098
0.4022	0.4827	0.0105
0.4335	0.4839	0.0105
0.4779	0.4871	0.0106
0.53	0.4936	0.0107
0.5893	0.4773	0.0104
0.6514	0.451	0.0098
0.7196	0.4016	0.0088
0.7885	0.3455	0.0076
0.8584	0.2696	0.006
0.9274	0.1707	0.0039

System: dimethyl sulfoxide + bromobenzene; phases: Liquid
Fixed: Temperature, K = 298.15
Fixed: Pressure, kPa = 101
Property: Excess molar enthalpy (molar enthalpy of mixing), kJ/mol (Liquid); method: Calvet calorimetry
Mole fraction of bromobenzene	Excess molar enthalpy (molar enthalpy of mixing), kJ/mol	uncertainty
0.0325	0.0521	0.0016
0.0701	0.1171	0.0028
0.1122	0.1859	0.0043
0.1574	0.2512	0.0056
0.2039	0.306	0.0068
0.2518	0.3619	0.008
0.3014	0.4094	0.009
0.3485	0.4531	0.0099
0.3767	0.4745	0.0103
0.3955	0.4923	0.0107
0.4091	0.4955	0.0108
0.4468	0.503	0.0109
0.496	0.5119	0.0111
0.5567	0.5091	0.0111
0.6277	0.4865	0.0106
0.7077	0.4322	0.0094
0.7985	0.3466	0.0076
0.8979	0.2023	0.0046

System: dimethyl sulfoxide + nitrobenzene; phases: Liquid
Fixed: Temperature, K = 298.15
Fixed: Pressure, kPa = 101
Property: Excess molar enthalpy (molar enthalpy of mixing), kJ/mol (Liquid); method: Calvet calorimetry
Mole fraction of nitrobenzene	Excess molar enthalpy (molar enthalpy of mixing), kJ/mol	uncertainty
0.0935	0.0761	0.002
0.1856	0.1786	0.0041
0.2722	0.2547	0.0057
0.3514	0.3129	0.0069
0.4247	0.3567	0.0078
0.4887	0.3849	0.0084
0.5445	0.4002	0.0088
0.56	0.4043	0.0089
0.6061	0.3929	0.0086
0.6576	0.3749	0.0082
0.7072	0.3509	0.0077
0.7577	0.3179	0.007
0.8125	0.2697	0.006
0.8647	0.2147	0.0049
0.9154	0.1459	0.0034
0.9624	0.0697	0.0019
