Measured thermophysical data. Measurement and correlation for solubility of levofloxacin in six solvents at temperatures from 288.15 to 328.15 K
Source: Fluid Phase Equilib., 2012, 10.1016/j.fluid.2012.05.027
Compound 1: levofloxacin, C18H20FN3O4, InChI=1S/C18H20FN3O4/c1-10-9-26-17-14-11(16(23)12(18(24)25)8-22(10)14)7-13(19)15(17)21-5-3-20(2)4-6-21/h7-8,10H,3-6,9H2,1-2H3,(H,24,25)/t10-/m0/s1, purity 99.5%
Compound 2: ethanol, C2H6O, InChI=1S/C2H6O/c1-2-3/h3H,2H2,1H3, purity 99.7%
Compound 3: propan-1-ol, C3H8O, InChI=1S/C3H8O/c1-2-3-4/h4H,2-3H2,1H3, purity 99.5%
Compound 4: propan-2-ol, C3H8O, InChI=1S/C3H8O/c1-3(2)4/h3-4H,1-2H3, purity 99.5%
Compound 5: butan-1-ol, C4H10O, InChI=1S/C4H10O/c1-2-3-4-5/h5H,2-4H2,1H3, purity 99.5%
Compound 6: acetic acid, C2H4O2, InChI=1S/C2H4O2/c1-2(3)4/h1H3,(H,3,4), purity 99.5%
Compound 7: ethyl acetate, C4H8O2, InChI=1S/C4H8O2/c1-3-6-4(2)5/h3H2,1-2H3, purity 99.5%

System: ethanol + levofloxacin; phases: Liquid, Crystal
Fixed: Pressure, kPa = 101
Property: Mole fraction of levofloxacin (Liquid); method: UV Spectrophotometer
Temperature, K	Mole fraction of levofloxacin	uncertainty
288.15	0.00057	3e-05
293.15	0.000792	3.1e-05
298.15	0.001069	3.3e-05
303.15	0.00134	3.6e-05
308.15	0.001783	4.1e-05
313.15	0.00254	5.1e-05
318.15	0.003211	6.1e-05
323.15	0.004121	7.6e-05
328.15	0.005263	9.7e-05

System: propan-1-ol + levofloxacin; phases: Liquid, Crystal
Fixed: Pressure, kPa = 101
Property: Mole fraction of levofloxacin (Liquid); method: UV Spectrophotometer
Temperature, K	Mole fraction of levofloxacin	uncertainty
288.15	0.001091	3.1e-05
293.15	0.001205	3.2e-05
298.15	0.001421	3.3e-05
303.15	0.001806	3.6e-05
308.15	0.002338	4.1e-05
313.15	0.002841	4.6e-05
318.15	0.003743	5.6e-05
323.15	0.004494	6.5e-05
328.15	0.005722	8.1e-05

System: propan-2-ol + levofloxacin; phases: Liquid, Crystal
Fixed: Pressure, kPa = 101
Property: Mole fraction of levofloxacin (Liquid); method: UV Spectrophotometer
Temperature, K	Mole fraction of levofloxacin	uncertainty
288.15	0.00044	2.9e-05
293.15	0.000545	2.9e-05
298.15	0.00064	2.9e-05
303.15	0.000821	3e-05
308.15	0.001031	3.1e-05
313.15	0.001354	3.3e-05
318.15	0.001637	3.5e-05
323.15	0.00217	4e-05
328.15	0.002692	4.5e-05

System: butan-1-ol + levofloxacin; phases: Liquid, Crystal
Fixed: Pressure, kPa = 101
Property: Mole fraction of levofloxacin (Liquid); method: UV Spectrophotometer
Temperature, K	Mole fraction of levofloxacin	uncertainty
288.15	0.001453	3.2e-05
293.15	0.001752	3.4e-05
298.15	0.002193	3.6e-05
303.15	0.002679	4e-05
308.15	0.003508	4.7e-05
313.15	0.004504	5.5e-05
318.15	0.006026	7e-05
323.15	0.007932	9.1e-05
328.15	0.009133	0.000105

System: acetic acid + levofloxacin; phases: Liquid, Crystal
Fixed: Pressure, kPa = 101
Property: Mole fraction of levofloxacin (Liquid); method: UV Spectrophotometer
Temperature, K	Mole fraction of levofloxacin	uncertainty
298.15	0.055907	0.000828
303.15	0.057873	0.000859
308.15	0.060331	0.000898
313.15	0.062591	0.000934
318.15	0.065043	0.000973
323.15	0.067223	0.001008
328.15	0.068856	0.001034

System: ethyl acetate + levofloxacin; phases: Liquid, Crystal
Fixed: Pressure, kPa = 101
Property: Mole fraction of levofloxacin (Liquid); method: UV Spectrophotometer
Temperature, K	Mole fraction of levofloxacin	uncertainty
288.15	0.001929	3.3e-05
293.15	0.002107	3.4e-05
298.15	0.002211	3.4e-05
303.15	0.002464	3.5e-05
308.15	0.002821	3.7e-05
313.15	0.003229	4e-05
318.15	0.003797	4.4e-05
323.15	0.004847	5.1e-05
328.15	0.005543	5.6e-05
