Measured thermophysical data. Solid-liquid equilibrium of dicyandiamide in different solvents
Source: Fluid Phase Equilib., 2014, 10.1016/j.fluid.2013.12.001
Compound 1: N-cyanoguanidine, C2H4N4, InChI=1S/C2H4N4/c3-1-6-2(4)5/h(H4,4,5,6), purity 95%
Compound 2: methanol, CH4O, InChI=1S/CH4O/c1-2/h2H,1H3, purity 99%
Compound 3: ethanol, C2H6O, InChI=1S/C2H6O/c1-2-3/h3H,2H2,1H3, purity 99%
Compound 4: 1,2-ethanediol, C2H6O2, InChI=1S/C2H6O2/c3-1-2-4/h3-4H,1-2H2, purity 99%
Compound 5: acetone, C3H6O, InChI=1S/C3H6O/c1-3(2)4/h1-2H3, purity 99%
Compound 6: water, H2O, InChI=1S/H2O/h1H2, purity 99.8%

System: N-cyanoguanidine; phases: Crystal, Liquid, Air at 1 atmosphere
Property: Normal melting temperature, K (Crystal); method: DTA
Normal melting temperature, K	uncertainty
482.65	1.06

System: N-cyanoguanidine; phases: Crystal, Liquid, Air at 1 atmosphere
Property: Molar enthalpy of transition or fusion, kJ/mol (Crystal); method: DSC
Molar enthalpy of transition or fusion, kJ/mol	uncertainty
25	1

System: N-cyanoguanidine + water; phases: Liquid, Crystal
Fixed: Pressure, kPa = 101
Property: Mole fraction of N-cyanoguanidine (Liquid); method: gravimetric
Temperature, K	Mole fraction of N-cyanoguanidine	uncertainty
273.15	0.00275	0.0004
283.25	0.00431	0.0004
293.35	0.00672	0.0004
303.25	0.01038	0.0004
313.15	0.01603	0.00041
324.35	0.02608	0.00042
333.55	0.03875	0.00044
338.95	0.04873	0.00045

System: methanol + N-cyanoguanidine; phases: Liquid, Crystal
Fixed: Pressure, kPa = 101
Property: Mole fraction of N-cyanoguanidine (Liquid); method: gravimetric
Temperature, K	Mole fraction of N-cyanoguanidine	uncertainty
273.15	0.0129	0.0004
283.25	0.01416	0.0004
293.35	0.01704	0.0004
303.25	0.02148	0.00041
313.15	0.02743	0.00041
324.35	0.03589	0.00042
333.55	0.04418	0.00042
338.95	0.04958	0.00043

System: ethanol + N-cyanoguanidine; phases: Liquid, Crystal
Fixed: Pressure, kPa = 101
Property: Mole fraction of N-cyanoguanidine (Liquid); method: gravimetric
Temperature, K	Mole fraction of N-cyanoguanidine	uncertainty
273.15	0.00518	0.0004
283.25	0.00621	0.0004
293.35	0.00804	0.0004
303.25	0.01057	0.0004
313.15	0.01383	0.0004
324.35	0.01834	0.0004
333.55	0.02276	0.00041
338.95	0.02557	0.00041

System: 1,2-ethanediol + N-cyanoguanidine; phases: Liquid, Crystal
Fixed: Pressure, kPa = 101
Property: Mole fraction of N-cyanoguanidine (Liquid); method: gravimetric
Temperature, K	Mole fraction of N-cyanoguanidine	uncertainty
273.15	0.02251	0.00041
283.25	0.0307	0.00042
293.35	0.04187	0.00043
303.25	0.05425	0.00044
313.15	0.06836	0.00045
324.35	0.08683	0.00047
333.55	0.10154	0.00048
338.95	0.11051	0.00049

System: acetone + N-cyanoguanidine; phases: Liquid, Crystal
Fixed: Pressure, kPa = 101
Property: Mole fraction of N-cyanoguanidine (Liquid); method: gravimetric
Temperature, K	Mole fraction of N-cyanoguanidine	uncertainty
273.15	0.00754	0.0004
283.25	0.00863	0.0004
293.35	0.01005	0.0004
303.25	0.01167	0.0004
313.15	0.01316	0.0004
324.35	0.01517	0.0004
333.55	0.01698	0.0004
338.95	0.01798	0.0004
