Measured thermophysical data. Surface tension and UV-visible investigations of aggregation and adsorption behavior of NaC and NaDC in water-amino acid mixtures
Source: Fluid Phase Equilib., 2015, 10.1016/j.fluid.2015.03.012
Compound 1: water, H2O, InChI=1S/H2O/h1H2, purity 99.9%
Compound 2: sodium cholate, C24H39NaO5, InChI=1S/C24H40O5.Na/c1-13(4-7-21(28)29)16-5-6-17-22-18(12-20(27)24(16,17)3)23(2)9-8-15(25)10-14(23)11-19(22)26;/h13-20,22,25-27H,4-12H2,1-3H3,(H,28,29);/q;+1/p-1/t13-,14+,15-,16-,17+,18+,19-,20+,22+,23+,24-;/m1./s1, purity 98%
Compound 3: sodium deoxycholate, C24H39NaO4, InChI=1S/C24H40O4.Na/c1-14(4-9-22(27)28)18-7-8-19-17-6-5-15-12-16(25)10-11-23(15,2)20(17)13-21(26)24(18,19)3;/h14-21,25-26H,4-13H2,1-3H3,(H,27,28);/q;+1/p-1/t14-,15-,16-,17+,18-,19+,20+,21+,23+,24-;/m1./s1, purity 98%
Compound 4: 2-aminoacetic acid, C2H5NO2, InChI=1S/C2H5NO2/c3-1-2(4)5/h1,3H2,(H,4,5), purity 99%
Compound 5: L-leucine, C6H13NO2, InChI=1S/C6H13NO2/c1-4(2)3-5(7)6(8)9/h4-5H,3,7H2,1-2H3,(H,8,9)/t5-/m0/s1, purity 99%
Compound 6: L-methionine, C5H11NO2S, InChI=1S/C5H11NO2S/c1-9-3-2-4(6)5(7)8/h4H,2-3,6H2,1H3,(H,7,8)/t4-/m0/s1, purity 98%
Compound 7: L-histidine, C6H9N3O2, InChI=1S/C6H9N3O2/c7-5(6(10)11)1-4-2-8-3-9-4/h2-3,5H,1,7H2,(H,8,9)(H,10,11)/t5-/m0/s1, purity 99%

System: sodium cholate + water; phases: Liquid, Gas
Property: Surface tension liquid-gas, N/m (Liquid); method: Survismeter
Temperature, K	Molality, mol/kg of sodium cholate	Surface tension liquid-gas, N/m	uncertainty
293.15	0.001	0.06315	0.00074
293.15	0.002	0.06161	0.00067
293.15	0.003	0.0605	0.00059
293.15	0.004	0.05943	0.00061
293.15	0.006	0.05708	0.00058
293.15	0.008	0.05521	0.0005
293.15	0.01	0.05404	0.00049
293.15	0.014	0.05104	0.00044
293.15	0.018	0.05055	0.0004
293.15	0.022	0.05083	0.0004
293.15	0.026	0.05059	0.0004
293.15	0.03	0.05062	0.0004
298.15	0.001	0.06255	0.00069
298.15	0.002	0.06103	0.00066
298.15	0.003	0.05994	0.00059
298.15	0.004	0.05889	0.00057
298.15	0.006	0.05689	0.00056
298.15	0.008	0.05503	0.00052
298.15	0.01	0.05357	0.00049
298.15	0.014	0.05087	0.00043
298.15	0.018	0.05064	0.0004
298.15	0.022	0.0504	0.0004
298.15	0.026	0.05017	0.0004
298.15	0.03	0.0502	0.0004
303.15	0.001	0.06155	0.00081
303.15	0.002	0.06007	0.00065
303.15	0.003	0.05901	0.00053
303.15	0.004	0.05833	0.00058
303.15	0.006	0.05604	0.00055
303.15	0.008	0.05452	0.0005
303.15	0.01	0.05309	0.00048
303.15	0.014	0.05043	0.00043
303.15	0.018	0.0502	0.0004
303.15	0.022	0.05022	0.0004
303.15	0.026	0.04999	0.0004
303.15	0.03	0.05026	0.0004
308.15	0.001	0.06135	0.00059
308.15	0.002	0.05988	0.00064
308.15	0.003	0.05883	0.00058
308.15	0.004	0.05782	0.00059
308.15	0.006	0.05558	0.00055
308.15	0.008	0.05409	0.0005
308.15	0.01	0.05268	0.00047
308.15	0.014	0.05032	0.00043
308.15	0.018	0.04959	0.0004
308.15	0.022	0.04961	0.0004
308.15	0.026	0.04963	0.0004
308.15	0.03	0.0499	0.0004
313.15	0.001	0.06	0.00066
313.15	0.002	0.05896	0.00057
313.15	0.003	0.05795	0.00056
313.15	0.004	0.05698	0.00055
313.15	0.006	0.05514	0.00054
313.15	0.008	0.05341	0.00051
313.15	0.01	0.05205	0.00045
313.15	0.014	0.05026	0.00043
313.15	0.018	0.04907	0.00041
313.15	0.022	0.04909	0.0004
313.15	0.026	0.04911	0.0004
313.15	0.03	0.04937	0.0004
318.15	0.001	0.05945	0.00067
318.15	0.002	0.0581	0.00057
318.15	0.003	0.05745	0.00051
318.15	0.004	0.0565	0.00054
318.15	0.006	0.05469	0.00053
318.15	0.008	0.05299	0.0005
318.15	0.01	0.05165	0.00047
318.15	0.014	0.04942	0.00043
318.15	0.018	0.04873	0.0004
318.15	0.022	0.04875	0.0004
318.15	0.026	0.04877	0.0004
318.15	0.03	0.04856	0.0004

System: sodium deoxycholate + water; phases: Liquid, Gas
Property: Surface tension liquid-gas, N/m (Liquid); method: Survismeter
Temperature, K	Molality, mol/kg of sodium deoxycholate	Surface tension liquid-gas, N/m	uncertainty
293.15	0.001	0.05804	0.00122
293.15	0.002	0.05517	0.00101
293.15	0.003	0.05342	0.00102
293.15	0.004	0.05047	0.0011
293.15	0.005	0.04829	0.00093
293.15	0.006	0.04629	0.00073
293.15	0.007	0.04525	0.00044
293.15	0.009	0.04486	0.00041
293.15	0.011	0.04466	0.0004
293.15	0.013	0.04487	0.0004
293.15	0.015	0.04508	0.0004
293.15	0.017	0.04489	0.0004
298.15	0.001	0.05592	0.00119
298.15	0.002	0.05325	0.001
298.15	0.003	0.05134	0.00102
298.15	0.004	0.0486	0.00108
298.15	0.005	0.04635	0.00081
298.15	0.006	0.0451	0.00052
298.15	0.007	0.0447	0.0004
298.15	0.009	0.04451	0.0004
298.15	0.011	0.04432	0.0004
298.15	0.013	0.04453	0.0004
298.15	0.015	0.04473	0.0004
298.15	0.017	0.04454	0.0004
303.15	0.001	0.0542	0.00128
303.15	0.002	0.05168	0.00095
303.15	0.003	0.04987	0.00093
303.15	0.004	0.0475	0.00084
303.15	0.005	0.04618	0.00062
303.15	0.006	0.04513	0.00052
303.15	0.007	0.04453	0.00041
303.15	0.009	0.04434	0.0004
303.15	0.011	0.04416	0.0004
303.15	0.013	0.04416	0.0004
303.15	0.015	0.04417	0.0004
303.15	0.017	0.04418	0.0004
308.15	0.001	0.05406	0.00112
308.15	0.002	0.05156	0.00095
308.15	0.003	0.04977	0.00096
308.15	0.004	0.04719	0.00087
308.15	0.005	0.04589	0.00061
308.15	0.006	0.04486	0.00052
308.15	0.007	0.04427	0.00042
308.15	0.009	0.04389	0.0004
308.15	0.011	0.04409	0.0004
308.15	0.013	0.0439	0.0004
308.15	0.015	0.0441	0.0004
308.15	0.017	0.0443	0.0004
313.15	0.001	0.05423	0.00103
313.15	0.002	0.05175	0.0009
313.15	0.003	0.05021	0.00092
313.15	0.004	0.04762	0.00088
313.15	0.005	0.04632	0.00061
313.15	0.006	0.04529	0.00052
313.15	0.007	0.04469	0.00042
313.15	0.009	0.04411	0.0004
313.15	0.011	0.04431	0.0004
313.15	0.013	0.04432	0.0004
313.15	0.015	0.04414	0.0004
313.15	0.017	0.04414	0.0004
318.15	0.001	0.05409	0.00107
318.15	0.002	0.05162	0.00089
318.15	0.003	0.0501	0.00079
318.15	0.004	0.0482	0.00083
318.15	0.005	0.04644	0.00072
318.15	0.006	0.04521	0.00057
318.15	0.007	0.04442	0.00043
318.15	0.009	0.04404	0.0004
318.15	0.011	0.04424	0.0004
318.15	0.013	0.04424	0.0004
318.15	0.015	0.04406	0.0004
318.15	0.017	0.04426	0.0004

System: L-histidine + sodium cholate + water; phases: Liquid, Gas
Fixed: Solvent: Molality, mol/kg of L-histidine = 0.1
Property: Surface tension liquid-gas, N/m (Liquid); method: Survismeter
Temperature, K	Molality, mol/kg of sodium cholate	Surface tension liquid-gas, N/m	uncertainty
293.15	0.001	0.06195	0.00078
293.15	0.002	0.06048	0.00077
293.15	0.003	0.05907	0.0007
293.15	0.004	0.05806	0.00056
293.15	0.006	0.05708	0.00056
293.15	0.008	0.05553	0.00056
293.15	0.01	0.05435	0.00055
293.15	0.014	0.05186	0.00051
293.15	0.018	0.0511	0.00048
293.15	0.022	0.05086	0.00048
293.15	0.026	0.05063	0.00048
293.15	0.03	0.05065	0.00048
298.15	0.001	0.06137	0.00077
298.15	0.002	0.05992	0.00071
298.15	0.003	0.05887	0.00065
298.15	0.004	0.05786	0.0006
298.15	0.006	0.05626	0.00059
298.15	0.008	0.05474	0.00056
298.15	0.01	0.05359	0.00053
298.15	0.014	0.05142	0.0005
298.15	0.018	0.05067	0.00048
298.15	0.022	0.05044	0.00048
298.15	0.026	0.05046	0.00048
298.15	0.03	0.05048	0.00048
303.15	0.001	0.06077	0.00076
303.15	0.002	0.05934	0.0007
303.15	0.003	0.05831	0.00065
303.15	0.004	0.05731	0.00063
303.15	0.006	0.05543	0.0006
303.15	0.008	0.05395	0.00055
303.15	0.01	0.05282	0.00053
303.15	0.014	0.05071	0.0005
303.15	0.018	0.05023	0.00048
303.15	0.022	0.05	0.00048
303.15	0.026	0.05002	0.00048
303.15	0.03	0.05004	0.00048
308.15	0.001	0.06015	0.00067
308.15	0.002	0.05909	0.0007
308.15	0.003	0.05773	0.00068
308.15	0.004	0.05675	0.0006
308.15	0.006	0.0552	0.00058
308.15	0.008	0.05372	0.00055
308.15	0.01	0.0526	0.00052
308.15	0.014	0.05102	0.0005
308.15	0.018	0.05002	0.00048
308.15	0.022	0.04979	0.00048
308.15	0.026	0.05006	0.00048
308.15	0.03	0.05008	0.00048
313.15	0.001	0.05963	0.00068
313.15	0.002	0.05861	0.0006
313.15	0.003	0.05795	0.0006
313.15	0.004	0.05698	0.00057
313.15	0.006	0.05575	0.00055
313.15	0.008	0.05456	0.00055
313.15	0.01	0.05315	0.00053
313.15	0.014	0.05131	0.00049
313.15	0.018	0.05082	0.00048
313.15	0.022	0.05059	0.00048
313.15	0.026	0.05061	0.00048
313.15	0.03	0.05063	0.00048
318.15	0.001	0.05944	0.00065
318.15	0.002	0.05842	0.0006
318.15	0.003	0.05777	0.00059
318.15	0.004	0.05681	0.00057
318.15	0.006	0.05559	0.00055
318.15	0.008	0.05442	0.00055
318.15	0.01	0.05302	0.00054
318.15	0.014	0.05093	0.0005
318.15	0.018	0.05045	0.00048
318.15	0.022	0.05022	0.00048
318.15	0.026	0.05024	0.00048
318.15	0.03	0.05001	0.00048

System: L-histidine + sodium deoxycholate + water; phases: Liquid, Gas
Fixed: Solvent: Molality, mol/kg of L-histidine = 0.1
Property: Surface tension liquid-gas, N/m (Liquid); method: Survismeter
Temperature, K	Molality, mol/kg of sodium deoxycholate	Surface tension liquid-gas, N/m	uncertainty
293.15	0.001	0.05489	0.00114
293.15	0.002	0.05233	0.001
293.15	0.003	0.0505	0.00085
293.15	0.004	0.0488	0.00074
293.15	0.005	0.04765	0.00065
293.15	0.006	0.04655	0.00058
293.15	0.007	0.04592	0.00048
293.15	0.009	0.04572	0.00047
293.15	0.011	0.04573	0.00047
293.15	0.013	0.04574	0.00047
293.15	0.015	0.04554	0.00047
293.15	0.017	0.04555	0.00046
298.15	0.001	0.05441	0.00108
298.15	0.002	0.05189	0.00099
298.15	0.003	0.05009	0.00088
298.15	0.004	0.04817	0.00077
298.15	0.005	0.04705	0.00064
298.15	0.006	0.04598	0.00055
298.15	0.007	0.04556	0.00047
298.15	0.009	0.04537	0.00047
298.15	0.011	0.04517	0.00046
298.15	0.013	0.04518	0.00046
298.15	0.015	0.04498	0.00046
298.15	0.017	0.04499	0.00046
303.15	0.001	0.05362	0.00114
303.15	0.002	0.05117	0.00093
303.15	0.003	0.04965	0.00079
303.15	0.004	0.04799	0.00076
303.15	0.005	0.04665	0.00064
303.15	0.006	0.0458	0.00053
303.15	0.007	0.04539	0.00048
303.15	0.009	0.04479	0.00046
303.15	0.011	0.045	0.00046
303.15	0.013	0.04481	0.00046
303.15	0.015	0.04481	0.00046
303.15	0.017	0.04482	0.00046
308.15	0.001	0.05321	0.00119
308.15	0.002	0.05079	0.00092
308.15	0.003	0.0493	0.00086
308.15	0.004	0.04722	0.00082
308.15	0.005	0.04593	0.00063
308.15	0.006	0.04511	0.00052
308.15	0.007	0.04471	0.00047
308.15	0.009	0.04472	0.00046
308.15	0.011	0.04453	0.00046
308.15	0.013	0.04454	0.00046
308.15	0.015	0.04454	0.00046
308.15	0.017	0.04435	0.00046
313.15	0.001	0.05367	0.00089
313.15	0.002	0.0515	0.00088
313.15	0.003	0.04999	0.00083
313.15	0.004	0.04811	0.00079
313.15	0.005	0.04679	0.00064
313.15	0.006	0.04595	0.00053
313.15	0.007	0.04554	0.00048
313.15	0.009	0.04475	0.00047
313.15	0.011	0.04456	0.00046
313.15	0.013	0.04457	0.00046
313.15	0.015	0.04438	0.00046
313.15	0.017	0.04439	0.00046
318.15	0.001	0.05325	0.00098
318.15	0.002	0.05112	0.00087
318.15	0.003	0.04963	0.00078
318.15	0.004	0.04801	0.00082
318.15	0.005	0.04627	0.00066
318.15	0.006	0.04565	0.00052
318.15	0.007	0.04505	0.0005
318.15	0.009	0.04428	0.00047
318.15	0.011	0.0441	0.00046
318.15	0.013	0.0443	0.00046
318.15	0.015	0.0443	0.00046
318.15	0.017	0.04412	0.00046

System: 2-aminoacetic acid + sodium cholate + water; phases: Liquid, Gas
Fixed: Solvent: Molality, mol/kg of 2-aminoacetic acid = 0.1
Property: Surface tension liquid-gas, N/m (Liquid); method: Survismeter
Temperature, K	Molality, mol/kg of sodium cholate	Surface tension liquid-gas, N/m	uncertainty
293.15	0.001	0.05756	0.00071
293.15	0.002	0.05628	0.00066
293.15	0.003	0.05536	0.00058
293.15	0.004	0.05476	0.00054
293.15	0.006	0.05361	0.00055
293.15	0.008	0.05223	0.00054
293.15	0.01	0.05118	0.00051
293.15	0.014	0.04945	0.00049
293.15	0.018	0.04899	0.00047
293.15	0.022	0.04901	0.00047
293.15	0.026	0.04903	0.00047
293.15	0.03	0.04881	0.00047
298.15	0.001	0.05803	0.00072
298.15	0.002	0.05641	0.00071
298.15	0.003	0.05548	0.00061
298.15	0.004	0.05458	0.00055
298.15	0.006	0.05343	0.00055
298.15	0.008	0.05206	0.00054
298.15	0.01	0.05101	0.00052
298.15	0.014	0.04904	0.00049
298.15	0.018	0.04882	0.00047
298.15	0.022	0.04861	0.00047
298.15	0.026	0.04863	0.00047
298.15	0.03	0.04842	0.00047
303.15	0.001	0.05749	0.00082
303.15	0.002	0.05589	0.00071
303.15	0.003	0.05497	0.00061
303.15	0.004	0.05408	0.00055
303.15	0.006	0.05295	0.00054
303.15	0.008	0.0516	0.00054
303.15	0.01	0.05056	0.00052
303.15	0.014	0.04862	0.00048
303.15	0.018	0.04841	0.00047
303.15	0.022	0.04819	0.00047
303.15	0.026	0.04821	0.00047
303.15	0.03	0.04823	0.00047
308.15	0.001	0.057	0.0008
308.15	0.002	0.05574	0.00066
308.15	0.003	0.05483	0.00064
308.15	0.004	0.05366	0.00055
308.15	0.006	0.05282	0.00053
308.15	0.008	0.05148	0.00054
308.15	0.01	0.05045	0.00051
308.15	0.014	0.04876	0.00048
308.15	0.018	0.04854	0.00047
308.15	0.022	0.04833	0.00047
308.15	0.026	0.04835	0.00047
308.15	0.03	0.04837	0.00047
313.15	0.001	0.05747	0.0006
313.15	0.002	0.0562	0.00066
313.15	0.003	0.05529	0.00061
313.15	0.004	0.05441	0.00054
313.15	0.006	0.05328	0.00053
313.15	0.008	0.0522	0.00054
313.15	0.01	0.05091	0.00051
313.15	0.014	0.0492	0.00049
313.15	0.018	0.04875	0.00047
313.15	0.022	0.04877	0.00047
313.15	0.026	0.04879	0.00047
313.15	0.03	0.04881	0.00047
318.15	0.001	0.05666	0.0007
318.15	0.002	0.05543	0.00065
318.15	0.003	0.05455	0.0006
318.15	0.004	0.05369	0.00055
318.15	0.006	0.0526	0.00054
318.15	0.008	0.05128	0.00053
318.15	0.01	0.05028	0.00051
318.15	0.014	0.04863	0.00048
318.15	0.018	0.04842	0.00047
318.15	0.022	0.04821	0.00047
318.15	0.026	0.04823	0.00047
318.15	0.03	0.04825	0.00047

System: 2-aminoacetic acid + sodium deoxycholate + water; phases: Liquid, Gas
Fixed: Solvent: Molality, mol/kg of 2-aminoacetic acid = 0.1
Property: Surface tension liquid-gas, N/m (Liquid); method: Survismeter
Temperature, K	Molality, mol/kg of sodium deoxycholate	Surface tension liquid-gas, N/m	uncertainty
293.15	0.001	0.05012	0.00114
293.15	0.002	0.04752	0.00095
293.15	0.003	0.04601	0.00066
293.15	0.004	0.04518	0.00054
293.15	0.005	0.04459	0.0005
293.15	0.006	0.0442	0.00049
293.15	0.007	0.04382	0.00047
293.15	0.009	0.04363	0.00046
293.15	0.011	0.04364	0.00046
293.15	0.013	0.04384	0.00046
293.15	0.015	0.04365	0.00046
293.15	0.017	0.04385	0.00046
298.15	0.001	0.04971	0.00094
298.15	0.002	0.04737	0.00094
298.15	0.003	0.04565	0.00069
298.15	0.004	0.04483	0.00054
298.15	0.005	0.04424	0.0005
298.15	0.006	0.04386	0.00048
298.15	0.007	0.04348	0.00046
298.15	0.009	0.0433	0.00046
298.15	0.011	0.04312	0.00046
298.15	0.013	0.04332	0.00046
298.15	0.015	0.04314	0.00046
298.15	0.017	0.04314	0.00046
303.15	0.001	0.04832	0.00127
303.15	0.002	0.04589	0.0009
303.15	0.003	0.04446	0.00061
303.15	0.004	0.04388	0.0005
303.15	0.005	0.0435	0.00048
303.15	0.006	0.04313	0.00047
303.15	0.007	0.04295	0.00046
303.15	0.009	0.04277	0.00046
303.15	0.011	0.04278	0.00046
303.15	0.013	0.0426	0.00046
303.15	0.015	0.04279	0.00046
303.15	0.017	0.0428	0.00046
308.15	0.001	0.04846	0.00099
308.15	0.002	0.04623	0.00087
308.15	0.003	0.04479	0.00067
308.15	0.004	0.04382	0.00055
308.15	0.005	0.04325	0.0005
308.15	0.006	0.04288	0.00047
308.15	0.007	0.0427	0.00046
308.15	0.009	0.04253	0.00046
308.15	0.011	0.04254	0.00046
308.15	0.013	0.04273	0.00046
308.15	0.015	0.04255	0.00046
308.15	0.017	0.04256	0.00046
313.15	0.001	0.04844	0.00084
313.15	0.002	0.04645	0.00083
313.15	0.003	0.04502	0.00067
313.15	0.004	0.04404	0.00057
313.15	0.005	0.0433	0.00053
313.15	0.006	0.04275	0.00048
313.15	0.007	0.04258	0.00046
313.15	0.009	0.04258	0.00046
313.15	0.011	0.04277	0.00046
313.15	0.013	0.0426	0.00046
313.15	0.015	0.04261	0.00046
313.15	0.017	0.04261	0.00046
318.15	0.001	0.04766	0.00083
318.15	0.002	0.04595	0.00075
318.15	0.003	0.04474	0.00066
318.15	0.004	0.04359	0.00057
318.15	0.005	0.04304	0.00049
318.15	0.006	0.04268	0.00047
318.15	0.007	0.04251	0.00046
318.15	0.009	0.04234	0.00046
318.15	0.011	0.04217	0.00046
318.15	0.013	0.04218	0.00046
318.15	0.015	0.04201	0.00046
318.15	0.017	0.04202	0.00046

System: L-methionine + sodium cholate + water; phases: Liquid, Gas
Fixed: Solvent: Molality, mol/kg of L-methionine = 0.1
Property: Surface tension liquid-gas, N/m (Liquid); method: Survismeter
Temperature, K	Molality, mol/kg of sodium cholate	Surface tension liquid-gas, N/m	uncertainty
293.15	0.001	0.05666	0.00075
293.15	0.002	0.05542	0.0007
293.15	0.003	0.05453	0.00065
293.15	0.004	0.05367	0.0006
293.15	0.006	0.05256	0.00059
293.15	0.008	0.05123	0.00058
293.15	0.01	0.05022	0.00056
293.15	0.014	0.04855	0.00053
293.15	0.018	0.04811	0.00052
293.15	0.022	0.04813	0.00052
293.15	0.026	0.04815	0.00052
293.15	0.03	0.04794	0.00052
298.15	0.001	0.05616	0.00074
298.15	0.002	0.05494	0.00073
298.15	0.003	0.05377	0.00068
298.15	0.004	0.05293	0.00058
298.15	0.006	0.05211	0.00058
298.15	0.008	0.05081	0.00058
298.15	0.01	0.04981	0.00055
298.15	0.014	0.04816	0.00053
298.15	0.018	0.04772	0.00052
298.15	0.022	0.04774	0.00052
298.15	0.026	0.04776	0.00052
298.15	0.03	0.04801	0.00052
303.15	0.001	0.05564	0.00076
303.15	0.002	0.05444	0.00069
303.15	0.003	0.05357	0.00064
303.15	0.004	0.05273	0.00061
303.15	0.006	0.05138	0.00059
303.15	0.008	0.05011	0.00057
303.15	0.01	0.04913	0.00055
303.15	0.014	0.04775	0.00052
303.15	0.018	0.04732	0.00051
303.15	0.022	0.04734	0.00051
303.15	0.026	0.04735	0.00051
303.15	0.03	0.04715	0.00051
308.15	0.001	0.05549	0.00073
308.15	0.002	0.05429	0.00072
308.15	0.003	0.05315	0.00067
308.15	0.004	0.05232	0.00061
308.15	0.006	0.05101	0.00059
308.15	0.008	0.04975	0.00057
308.15	0.01	0.0488	0.00054
308.15	0.014	0.04766	0.00052
308.15	0.018	0.04723	0.00051
308.15	0.022	0.04703	0.00051
308.15	0.026	0.04704	0.00051
308.15	0.03	0.04706	0.00051
313.15	0.001	0.05535	0.00067
313.15	0.002	0.05418	0.00068
313.15	0.003	0.05333	0.00064
313.15	0.004	0.05251	0.0006
313.15	0.006	0.0512	0.00059
313.15	0.008	0.04995	0.00057
313.15	0.01	0.049	0.00054
313.15	0.014	0.04787	0.00052
313.15	0.018	0.04744	0.00052
313.15	0.022	0.04724	0.00051
313.15	0.026	0.04748	0.00052
313.15	0.03	0.04728	0.00052
318.15	0.001	0.0546	0.00064
318.15	0.002	0.05375	0.00064
318.15	0.003	0.05292	0.00063
318.15	0.004	0.05211	0.00059
318.15	0.006	0.05108	0.00058
318.15	0.008	0.04984	0.00057
318.15	0.01	0.04889	0.00056
318.15	0.014	0.04689	0.00053
318.15	0.018	0.04649	0.00051
318.15	0.022	0.0465	0.00051
318.15	0.026	0.04652	0.00051
318.15	0.03	0.04654	0.00051

System: L-methionine + sodium deoxycholate + water; phases: Liquid, Gas
Fixed: Solvent: Molality, mol/kg of L-methionine = 0.1
Property: Surface tension liquid-gas, N/m (Liquid); method: Survismeter
Temperature, K	Molality, mol/kg of sodium deoxycholate	Surface tension liquid-gas, N/m	uncertainty
293.15	0.001	0.0478	0.00094
293.15	0.002	0.04585	0.00091
293.15	0.003	0.04405	0.00077
293.15	0.004	0.04293	0.0006
293.15	0.005	0.04239	0.00051
293.15	0.006	0.04222	0.0005
293.15	0.007	0.04204	0.00049
293.15	0.009	0.04205	0.00049
293.15	0.011	0.04206	0.00049
293.15	0.013	0.04206	0.00049
293.15	0.015	0.04207	0.00049
293.15	0.017	0.04208	0.00049
298.15	0.001	0.04698	0.00098
298.15	0.002	0.04489	0.00085
298.15	0.003	0.04354	0.00073
298.15	0.004	0.04226	0.00061
298.15	0.005	0.04174	0.00051
298.15	0.006	0.04156	0.0005
298.15	0.007	0.0414	0.00049
298.15	0.009	0.0414	0.00049
298.15	0.011	0.04141	0.00049
298.15	0.013	0.04142	0.00049
298.15	0.015	0.04143	0.00049
298.15	0.017	0.04144	0.00049
303.15	0.001	0.04615	0.001
303.15	0.002	0.04412	0.00087
303.15	0.003	0.04262	0.00069
303.15	0.004	0.04174	0.00057
303.15	0.005	0.04122	0.00051
303.15	0.006	0.04106	0.00049
303.15	0.007	0.04089	0.00049
303.15	0.009	0.0409	0.00049
303.15	0.011	0.04091	0.00049
303.15	0.013	0.04091	0.00049
303.15	0.015	0.04092	0.00049
303.15	0.017	0.04093	0.00049
308.15	0.001	0.04565	0.00098
308.15	0.002	0.04367	0.00082
308.15	0.003	0.04238	0.00066
308.15	0.004	0.04151	0.00056
308.15	0.005	0.04101	0.00051
308.15	0.006	0.04084	0.00049
308.15	0.007	0.04068	0.00049
308.15	0.009	0.04068	0.00049
308.15	0.011	0.04069	0.00049
308.15	0.013	0.0407	0.00049
308.15	0.015	0.0407	0.00049
308.15	0.017	0.04071	0.00049
313.15	0.001	0.04547	0.00083
313.15	0.002	0.04372	0.00079
313.15	0.003	0.04244	0.00065
313.15	0.004	0.04158	0.00056
313.15	0.005	0.04108	0.00051
313.15	0.006	0.04092	0.00049
313.15	0.007	0.04076	0.00049
313.15	0.009	0.04076	0.00049
313.15	0.011	0.04077	0.00049
313.15	0.013	0.04077	0.00049
313.15	0.015	0.04078	0.00049
313.15	0.017	0.04078	0.00049
318.15	0.001	0.04499	0.00085
318.15	0.002	0.04328	0.00077
318.15	0.003	0.04203	0.00062
318.15	0.004	0.04136	0.00054
318.15	0.005	0.04086	0.00051
318.15	0.006	0.0407	0.00049
318.15	0.007	0.04054	0.00049
318.15	0.009	0.04038	0.00049
318.15	0.011	0.04039	0.00049
318.15	0.013	0.04039	0.00049
318.15	0.015	0.0404	0.00049
318.15	0.017	0.04041	0.00049

System: L-leucine + sodium cholate + water; phases: Liquid, Gas
Fixed: Solvent: Molality, mol/kg of L-leucine = 0.1
Property: Surface tension liquid-gas, N/m (Liquid); method: Survismeter
Temperature, K	Molality, mol/kg of sodium cholate	Surface tension liquid-gas, N/m	uncertainty
293.15	0.001	0.05412	0.0006
293.15	0.002	0.05327	0.00056
293.15	0.003	0.05271	0.00056
293.15	0.004	0.0519	0.00052
293.15	0.006	0.05112	0.00052
293.15	0.008	0.04987	0.00053
293.15	0.01	0.04891	0.00051
293.15	0.014	0.0471	0.00048
293.15	0.018	0.04669	0.00047
293.15	0.022	0.04671	0.00047
293.15	0.026	0.04673	0.00047
293.15	0.03	0.04674	0.00047
298.15	0.001	0.05365	0.00059
298.15	0.002	0.05281	0.00059
298.15	0.003	0.05199	0.00058
298.15	0.004	0.0512	0.00053
298.15	0.006	0.05019	0.00053
298.15	0.008	0.04897	0.00052
298.15	0.01	0.04805	0.00049
298.15	0.014	0.04673	0.00048
298.15	0.018	0.04632	0.00047
298.15	0.022	0.04612	0.00047
298.15	0.026	0.04614	0.00047
298.15	0.03	0.04616	0.00047
303.15	0.001	0.05316	0.0006
303.15	0.002	0.05233	0.00058
303.15	0.003	0.05153	0.00058
303.15	0.004	0.05075	0.00053
303.15	0.006	0.04975	0.00052
303.15	0.008	0.04855	0.00052
303.15	0.01	0.04764	0.00049
303.15	0.014	0.04634	0.00047
303.15	0.018	0.04593	0.00047
303.15	0.022	0.04574	0.00046
303.15	0.026	0.04576	0.00046
303.15	0.03	0.04577	0.00046
308.15	0.001	0.05276	0.00063
308.15	0.002	0.05194	0.00058
308.15	0.003	0.05115	0.00057
308.15	0.004	0.05038	0.00053
308.15	0.006	0.0494	0.00052
308.15	0.008	0.04822	0.00052
308.15	0.01	0.04732	0.00049
308.15	0.014	0.04604	0.00047
308.15	0.018	0.04564	0.00046
308.15	0.022	0.04566	0.00046
308.15	0.026	0.04547	0.00046
308.15	0.03	0.0457	0.00047
313.15	0.001	0.05293	0.00053
313.15	0.002	0.05212	0.00058
313.15	0.003	0.05134	0.00057
313.15	0.004	0.05058	0.00052
313.15	0.006	0.0496	0.00052
313.15	0.008	0.04843	0.00052
313.15	0.01	0.04753	0.00049
313.15	0.014	0.04626	0.00047
313.15	0.018	0.04586	0.00047
313.15	0.022	0.04567	0.00046
313.15	0.026	0.04589	0.00047
313.15	0.03	0.04571	0.00047
318.15	0.001	0.05224	0.00058
318.15	0.002	0.05146	0.00057
318.15	0.003	0.05069	0.00057
318.15	0.004	0.04995	0.00052
318.15	0.006	0.049	0.00052
318.15	0.008	0.04786	0.00051
318.15	0.01	0.04699	0.00048
318.15	0.014	0.04595	0.00047
318.15	0.018	0.04555	0.00046
318.15	0.022	0.04557	0.00046
318.15	0.026	0.04539	0.00046
318.15	0.03	0.0454	0.00046

System: L-leucine + sodium deoxycholate + water; phases: Liquid, Gas
Fixed: Solvent: Molality, mol/kg of L-leucine = 0.1
Property: Surface tension liquid-gas, N/m (Liquid); method: Survismeter
Temperature, K	Molality, mol/kg of sodium deoxycholate	Surface tension liquid-gas, N/m	uncertainty
293.15	0.001	0.04638	0.00101
293.15	0.002	0.04415	0.00088
293.15	0.003	0.04266	0.00066
293.15	0.004	0.04178	0.00053
293.15	0.005	0.04127	0.00047
293.15	0.006	0.0411	0.00046
293.15	0.007	0.04094	0.00045
293.15	0.009	0.04094	0.00045
293.15	0.011	0.04095	0.00045
293.15	0.013	0.04096	0.00045
293.15	0.015	0.04097	0.00045
293.15	0.017	0.04097	0.00045
298.15	0.001	0.04581	0.0009
298.15	0.002	0.04381	0.00083
298.15	0.003	0.04234	0.00066
298.15	0.004	0.04146	0.00053
298.15	0.005	0.04096	0.00048
298.15	0.006	0.04063	0.00046
298.15	0.007	0.04047	0.00045
298.15	0.009	0.04048	0.00045
298.15	0.011	0.04048	0.00045
298.15	0.013	0.04049	0.00045
298.15	0.015	0.0405	0.00045
298.15	0.017	0.0405	0.00045
303.15	0.001	0.04502	0.00094
303.15	0.002	0.04308	0.00079
303.15	0.003	0.04183	0.00062
303.15	0.004	0.04097	0.00053
303.15	0.005	0.04048	0.00048
303.15	0.006	0.04016	0.00046
303.15	0.007	0.04	0.00045
303.15	0.009	0.04	0.00045
303.15	0.011	0.04001	0.00045
303.15	0.013	0.04002	0.00045
303.15	0.015	0.04002	0.00045
303.15	0.017	0.04003	0.00045
308.15	0.001	0.04455	0.0009
308.15	0.002	0.04284	0.00075
308.15	0.003	0.0416	0.00062
308.15	0.004	0.04075	0.00051
308.15	0.005	0.04043	0.00046
308.15	0.006	0.04027	0.00045
308.15	0.007	0.04027	0.00045
308.15	0.009	0.04028	0.00045
308.15	0.011	0.04029	0.00045
308.15	0.013	0.04029	0.00045
308.15	0.015	0.0403	0.00045
308.15	0.017	0.04015	0.00045
313.15	0.001	0.04477	0.00075
313.15	0.002	0.04307	0.00072
313.15	0.003	0.042	0.00059
313.15	0.004	0.04116	0.00051
313.15	0.005	0.04083	0.00047
313.15	0.006	0.04051	0.00046
313.15	0.007	0.04035	0.00045
313.15	0.009	0.04036	0.00045
313.15	0.011	0.04036	0.00045
313.15	0.013	0.04037	0.00045
313.15	0.015	0.04038	0.00045
313.15	0.017	0.04038	0.00045
318.15	0.001	0.0443	0.00081
318.15	0.002	0.04264	0.00071
318.15	0.003	0.0416	0.00057
318.15	0.004	0.04093	0.00049
318.15	0.005	0.04061	0.00047
318.15	0.006	0.04029	0.00046
318.15	0.007	0.04014	0.00045
318.15	0.009	0.04014	0.00045
318.15	0.011	0.04015	0.00045
318.15	0.013	0.04016	0.00045
318.15	0.015	0.04016	0.00045
318.15	0.017	0.04017	0.00045
