Measured thermophysical data. Liquid liquid equilibria of water + 1-butanol + methyl methacrylate or butyl methacrylate or isobutyl methacrylate at 288.15K and 318.15K
Source: Fluid Phase Equilib., 2007, 10.1016/j.fluid.2007.07.011
Compound 1: methyl methacrylate, C5H8O2, InChI=1S/C5H8O2/c1-4(2)5(6)7-3/h1H2,2-3H3
Compound 2: butyl 2-methyl-2-propenoate, C8H14O2, InChI=1S/C8H14O2/c1-4-5-6-10-8(9)7(2)3/h2,4-6H2,1,3H3
Compound 3: isobutyl methacrylate, C8H14O2, InChI=1S/C8H14O2/c1-6(2)5-10-8(9)7(3)4/h6H,3,5H2,1-2,4H3
Compound 4: water, H2O, InChI=1S/H2O/h1H2
Compound 5: butan-1-ol, C4H10O, InChI=1S/C4H10O/c1-2-3-4-5/h5H,2-4H2,1H3

System: methyl methacrylate + water; phases: Liquid mixture 2, Liquid mixture 1
Fixed: Pressure, kPa = 101.325
Property: Mole fraction of water (Liquid mixture 2); method: Chromatography
Temperature, K	Mole fraction of water	uncertainty
288.15	0.997	0.003
318.15	0.9972	0.0028

System: methyl methacrylate + water; phases: Liquid mixture 1, Liquid mixture 2
Fixed: Pressure, kPa = 101.325
Property: Mole fraction of water (Liquid mixture 1); method: Chromatography
Temperature, K	Mole fraction of water	uncertainty
288.15	0.0593	0.02
318.15	0.0752	0.02

System: butan-1-ol + water; phases: Liquid mixture 2, Liquid mixture 1
Fixed: Pressure, kPa = 101
Property: Mole fraction of butan-1-ol (Liquid mixture 2); method: Chromatography
Temperature, K	Mole fraction of butan-1-ol	uncertainty
288.15	0.0198	0.01
318.15	0.0166	0.01

System: butan-1-ol + water; phases: Liquid mixture 1, Liquid mixture 2
Fixed: Pressure, kPa = 101.325
Property: Mole fraction of butan-1-ol (Liquid mixture 1); method: Chromatography
Temperature, K	Mole fraction of butan-1-ol	uncertainty
288.15	0.5018	0.0319
318.15	0.4769	0.027

System: butyl 2-methyl-2-propenoate + water; phases: Liquid mixture 2, Liquid mixture 1
Fixed: Pressure, kPa = 101
Property: Mole fraction of butyl 2-methyl-2-propenoate (Liquid mixture 2); method: Chromatography
Temperature, K	Mole fraction of butyl 2-methyl-2-propenoate	uncertainty
288.15	0	0.0001
318.15	0	0.0001

System: butyl 2-methyl-2-propenoate + water; phases: Liquid mixture 1, Liquid mixture 2
Fixed: Pressure, kPa = 101.325
Property: Mole fraction of water (Liquid mixture 1); method: Chromatography
Temperature, K	Mole fraction of water	uncertainty
288.15	0.0452	0.02
318.15	0.0579	0.02

System: isobutyl methacrylate + water; phases: Liquid mixture 2, Liquid mixture 1
Fixed: Pressure, kPa = 101
Property: Mole fraction of isobutyl methacrylate (Liquid mixture 2); method: Chromatography
Temperature, K	Mole fraction of isobutyl methacrylate	uncertainty
288.15	0	0.0001
318.15	0	0.0001

System: isobutyl methacrylate + water; phases: Liquid mixture 1, Liquid mixture 2
Fixed: Pressure, kPa = 101.325
Property: Mole fraction of water (Liquid mixture 1); method: Chromatography
Temperature, K	Mole fraction of water	uncertainty
288.15	0.0369	0.02
318.15	0.0502	0.02

System: butan-1-ol + methyl methacrylate + water; phases: Liquid mixture 2, Liquid mixture 1
Fixed: Pressure, kPa = 101.325
Property: Mole fraction of butan-1-ol (Liquid mixture 2); method: Chromatography
Property: Mole fraction of butan-1-ol (Liquid mixture 1); method: Chromatography
Property: Mole fraction of water (Liquid mixture 1); method: Chromatography
Temperature, K	Mole fraction of water	Mole fraction of butan-1-ol	uncertainty	Mole fraction of butan-1-ol	uncertainty	Mole fraction of water	uncertainty
288.15	0.997	0	0.0001	0	0.0001	0.0593	
288.15	0.9903	0.0018	0.0018	0.068	0.0331	0.1156	
288.15	0.9884	0.0037	0.0037	0.1061	0.033	0.1382	
288.15	0.9878	0.0043	0.0043	0.1836	0.0318	0.2018	
288.15	0.9873	0.0047	0.0047	0.2494	0.0345	0.2545	
288.15	0.9864	0.0056	0.0056	0.2888	0.0274	0.2748	
288.15	0.9851	0.0068	0.0068	0.3249	0.0251	0.3296	
288.15	0.9851	0.0068	0.0068	0.3481	0.0315	0.3522	
288.15	0.9837	0.008	0.008	0.3942	0.0267	0.3873	
288.15	0.9829	0.0087	0.0087	0.4123	0.0285	0.4255	
288.15	0.9802	0.0198	0.01	0.5018	0.0319	0.4982	
318.15	0.9972	0	0.0001	0	0.0001	0.0752	
318.15	0.9911	0.001	0.001	0.0669	0.034	0.1275	
318.15	0.9906	0.0015	0.0015	0.1071	0.0329	0.1522	
318.15	0.9893	0.0027	0.0027	0.1866	0.0305	0.2174	
318.15	0.9888	0.0031	0.0031	0.2427	0.0301	0.2706	
318.15	0.988	0.004	0.004	0.2761	0.0292	0.2963	
318.15	0.9878	0.0041	0.0041	0.3168	0.0271	0.3395	
318.15	0.9877	0.0041	0.0041	0.3479	0.0268	0.3752	
318.15	0.9853	0.0065	0.0065	0.3773	0.0263	0.4077	
318.15	0.9841	0.0076	0.0076	0.3981	0.0267	0.4347	
318.15	0.9834	0.0166	0.01	0.4769	0.027	0.5231	

System: butan-1-ol + butyl 2-methyl-2-propenoate + water; phases: Liquid mixture 1, Liquid mixture 2
Fixed: Pressure, kPa = 101.325
Property: Mole fraction of butan-1-ol (Liquid mixture 1); method: Chromatography
Property: Mole fraction of butan-1-ol (Liquid mixture 2); method: Chromatography
Property: Mole fraction of water (Liquid mixture 2); method: Chromatography
Temperature, K	Mole fraction of water	Mole fraction of butan-1-ol	uncertainty	Mole fraction of butan-1-ol	uncertainty	Mole fraction of water	uncertainty
288.15	0.0452	0	0.0001	0	0.0001	1	
288.15	0.0484	0.0554	0.0554	0.0052	0.0052	0.9948	
288.15	0.0492	0.1103	0.064	0.0071	0.0071	0.9929	
288.15	0.0766	0.1936	0.0542	0.0087	0.0087	0.9913	
288.15	0.1167	0.2819	0.0457	0.0115	0.01	0.9885	
288.15	0.1462	0.3357	0.0422	0.0118	0.01	0.9882	
288.15	0.1793	0.398	0.0357	0.0127	0.01	0.9873	
288.15	0.2087	0.4273	0.0357	0.0135	0.01	0.9865	
288.15	0.2338	0.4788	0.0249	0.0144	0.01	0.9856	
288.15	0.3024	0.5036	0.0203	0.016	0.01	0.984	
288.15	0.4982	0.5018	0.0203	0.0198	0.01	0.9802	
318.15	0.0579	0	0.0001	0	0.0001	1	
318.15	0.0654	0.0647	0.0647	0.0029	0.0029	0.9971	
318.15	0.0672	0.125	0.0541	0.0046	0.0046	0.9954	
318.15	0.0934	0.1908	0.0511	0.0058	0.0058	0.9943	
318.15	0.1338	0.2822	0.0446	0.0071	0.0071	0.9929	
318.15	0.1683	0.3393	0.0366	0.0081	0.0081	0.9919	
318.15	0.2055	0.3918	0.0313	0.0089	0.0089	0.9911	
318.15	0.2249	0.4181	0.0316	0.009	0.009	0.991	
318.15	0.2711	0.4634	0.0258	0.0102	0.01	0.9898	
318.15	0.3164	0.4914	0.0238	0.0109	0.01	0.9892	
318.15	0.5231	0.4769	0.0203	0.0166	0.01	0.9834	

System: butan-1-ol + isobutyl methacrylate + water; phases: Liquid mixture 1, Liquid mixture 2
Fixed: Pressure, kPa = 101.325
Property: Mole fraction of butan-1-ol (Liquid mixture 1); method: Chromatography
Property: Mole fraction of butan-1-ol (Liquid mixture 2); method: Chromatography
Property: Mole fraction of water (Liquid mixture 2); method: Chromatography
Temperature, K	Mole fraction of water	Mole fraction of butan-1-ol	uncertainty	Mole fraction of butan-1-ol	uncertainty	Mole fraction of water	uncertainty
288.15	0.0369	0	0.0001	0	0.0001	1	
288.15	0.0419	0.0534	0.0534	0.0046	0.0046	0.9954	
288.15	0.0524	0.1076	0.0626	0.007	0.007	0.993	
288.15	0.08	0.1894	0.0603	0.0088	0.0088	0.9912	
288.15	0.1058	0.2593	0.0498	0.0101	0.01	0.9899	
288.15	0.1366	0.319	0.0399	0.0106	0.01	0.9894	
288.15	0.1847	0.3963	0.0355	0.0131	0.01	0.9869	
288.15	0.2201	0.4401	0.0392	0.0144	0.01	0.9856	
288.15	0.2464	0.5016	0.0247	0.0151	0.01	0.9849	
288.15	0.3075	0.5116	0.0203	0.0159	0.01	0.9841	
288.15	0.4982	0.5018	0.0203	0.0198	0.01	0.9802	
318.15	0.0502	0	0.0001	0	0.0001	1	
318.15	0.0411	0.0539	0.0539	0.0025	0.0025	0.9976	
318.15	0.0629	0.1192	0.0598	0.0044	0.0044	0.9956	
318.15	0.0887	0.1882	0.0499	0.0052	0.0052	0.9948	
318.15	0.1264	0.2655	0.0442	0.0069	0.0069	0.9931	
318.15	0.1555	0.3195	0.0377	0.007	0.007	0.993	
318.15	0.2036	0.3898	0.0338	0.009	0.009	0.991	
318.15	0.237	0.4294	0.0281	0.0092	0.0092	0.9908	
318.15	0.289	0.4739	0.0252	0.0102	0.01	0.9898	
318.15	0.3274	0.4967	0.0235	0.0114	0.01	0.9886	
318.15	0.5231	0.4769	0.0204	0.0166	0.01	0.9834	
