Measured thermophysical data. New analytic apparatus for experimental determination of vapor-liquid equilibria and saturation densities
Source: Fluid Phase Equilib., 2010, 10.1016/j.fluid.2010.03.004
Compound 1: propan-1-ol, C3H8O, InChI=1S/C3H8O/c1-2-3-4/h4H,2-3H2,1H3
Compound 2: propan-2-ol, C3H8O, InChI=1S/C3H8O/c1-3(2)4/h3-4H,1-2H3
Compound 3: carbon dioxide, CO2, InChI=1S/CO2/c2-1-3

System: propan-1-ol + carbon dioxide; phases: Liquid, Gas
Property: Vapor or sublimation pressure, kPa (Liquid); method: Ebulliometric method (Recirculating still)
Mole fraction of carbon dioxide	Temperature, K	Vapor or sublimation pressure, kPa	uncertainty
0.1483	363.17	3924	33
0.202	313.24	3313	28
0.2294	363.17	5932	37
0.2572	313.24	4363	29
0.3137	363.17	8016	40
0.3141	313.24	5284	28
0.4007	363.17	9868	45
0.4054	313.24	6169	30
0.4405	313.24	6501	30
0.4863	363.17	11728	48
0.5256	313.24	6999	32
0.5773	313.24	7255	48
0.6774	313.24	7567	34
0.6808	363.17	13575	55
0.7308	363.17	14004	56
0.7843	313.24	7883	52

System: propan-1-ol + carbon dioxide; phases: Liquid, Gas
Property: Mass density, kg/m3 (Liquid); method: Vibrating tube method
Temperature, K	Mole fraction of carbon dioxide	Mass density, kg/m3	uncertainty
313.24	0.202	807	0.4
313.24	0.2572	812.6	0.4
313.24	0.3141	817.6	0.4
313.24	0.4054	823.3	0.4
313.24	0.4405	824.4	0.4
313.24	0.5256	826.3	0.4
313.24	0.5773	825.7	0.4
313.24	0.6774	822	0.5
313.24	0.7843	786.8	0.4
363.17	0.1483	752	0.4
363.17	0.2294	754.9	0.4
363.17	0.3137	754.8	0.4
363.17	0.4007	753.6	0.4
363.17	0.4863	749.7	0.5
363.17	0.6808	680.6	0.7
363.17	0.7308	638.5	1.1

System: propan-1-ol + carbon dioxide; phases: Gas, Liquid
Property: Mass density, kg/m3 (Gas); method: Vibrating tube method
Temperature, K	Mole fraction of carbon dioxide	Mass density, kg/m3	uncertainty
313.24	0.202	70.7	0.6
313.24	0.2572	95.7	0.6
313.24	0.3141	124.4	0.6
313.24	0.4054	161.5	0.6
313.24	0.4405	178.3	0.6
313.24	0.5256	207.3	0.6
313.24	0.5773	227.7	0.6
313.24	0.6774	255.5	0.6
313.24	0.7843	298.9	0.6
363.17	0.1483	68.1	0.7
363.17	0.2294	113.3	0.7
363.17	0.3137	165.5	0.8
363.17	0.4007	232.6	0.9
363.17	0.4863	304.6	0.9
363.17	0.6808	435.6	0.9
363.17	0.7308	484.3	1.1

System: propan-1-ol + carbon dioxide; phases: Gas, Liquid
Property: Mole fraction of carbon dioxide (Gas); method: Chromatography
Mole fraction of carbon dioxide	Temperature, K	Mole fraction of carbon dioxide	uncertainty
0.1483	363.17	0.9668	0.016
0.202	313.24	0.9963	0.0037
0.2294	363.17	0.9701	0.016
0.2572	313.24	0.9961	0.0039
0.3137	363.17	0.9688	0.016
0.3141	313.24	0.9961	0.0039
0.4007	363.17	0.9615	0.016
0.4054	313.24	0.9957	0.0043
0.4405	313.24	0.9946	0.0054
0.4863	363.17	0.9494	0.016
0.5256	313.24	0.9933	0.0067
0.5773	313.24	0.9923	0.0077
0.6774	313.24	0.9913	0.0087
0.6808	363.17	0.9096	0.016
0.7308	363.17	0.8836	0.016
0.7843	313.24	0.9893	0.0107

System: propan-2-ol + carbon dioxide; phases: Liquid, Gas
Property: Vapor or sublimation pressure, kPa (Liquid); method: Ebulliometric method (Recirculating still)
Mole fraction of carbon dioxide	Temperature, K	Vapor or sublimation pressure, kPa	uncertainty
0.0736	348.25	1801	26
0.1016	362.92	2580	29
0.1267	313.22	2402	24
0.137	333.03	2577	24
0.1432	348.25	3182	27
0.1668	362.92	4014	30
0.2066	313.22	3600	24
0.2077	333.03	3783	28
0.2312	362.92	5255	32
0.2469	348.25	5073	31
0.3001	333.03	5384	30
0.3029	313.22	4662	26
0.3079	362.92	6835	37
0.3234	348.25	6522	34
0.3719	362.92	8248	38
0.3845	313.22	5533	28
0.4023	333.03	6823	33
0.4042	348.25	8011	37
0.4501	313.22	5929	28
0.4645	333.03	7512	34
0.4681	362.92	9567	41
0.5132	348.25	9362	39
0.554	313.22	6483	30
0.5653	362.92	10921	45
0.5658	348.25	9833	40
0.6285	362.92	11678	47
0.6377	333.03	8974	38
0.6472	313.22	6950	32
0.7165	362.92	12423	50
0.7177	348.25	11153	45
0.7539	313.22	7361	33
0.755	348.25	11300	45
0.7582	333.03	9639	40
0.8241	348.25	11570	46
0.8297	333.03	10145	41
0.902	313.22	7788	35

System: propan-2-ol + carbon dioxide; phases: Liquid, Gas
Property: Mass density, kg/m3 (Liquid); method: Vibrating tube method
Temperature, K	Mole fraction of carbon dioxide	Mass density, kg/m3	uncertainty
313.22	0.1267	783.1	0.4
313.22	0.2066	789.6	0.5
313.22	0.3029	799.3	0.5
313.22	0.3845	803.6	0.5
313.22	0.4501	806.7	0.5
313.22	0.554	805.4	0.4
313.22	0.6472	794.9	0.5
313.22	0.7539	783.1	0.6
313.22	0.902	703.7	0.7
333.03	0.137	761	0.4
333.03	0.2077	762.7	0.4
333.03	0.3001	765	0.4
333.03	0.4023	767.5	0.4
333.03	0.4645	768.5	0.4
333.03	0.6377	770.7	0.5
333.03	0.7582	771.4	0.6
333.03	0.8297	771.4	1.4
348.25	0.0736	741.2	0.8
348.25	0.1432	743.9	0.5
348.25	0.2469	746.5	0.4
348.25	0.3234	748.6	0.4
348.25	0.4042	750.9	0.4
348.25	0.5132	752.9	0.5
348.25	0.5658	753.6	0.5
348.25	0.7177	745.3	2.9
348.25	0.755	646.5	1.8
348.25	0.8241	568	1.8
362.92	0.1016	641.7	1.2
362.92	0.1668	690.6	0.9
362.92	0.2312	726.4	0.5
362.92	0.3079	728.3	0.4
362.92	0.3719	728.7	0.5
362.92	0.4681	726.5	0.5
362.92	0.5653	704.5	0.7
362.92	0.6285	671.6	0.9
362.92	0.7165	590.4	1.5

System: propan-2-ol + carbon dioxide; phases: Gas, Liquid
Property: Mass density, kg/m3 (Gas); method: Vibrating tube method
Temperature, K	Mole fraction of carbon dioxide	Mass density, kg/m3	uncertainty
313.22	0.1267	48.7	0.5
313.22	0.2066	74.6	0.5
313.22	0.3029	107.8	0.5
313.22	0.3845	138.3	0.5
313.22	0.4501	155.2	0.5
313.22	0.554	185.5	0.6
313.22	0.6472	216.2	0.6
313.22	0.7539	242.6	0.8
313.22	0.902	303.2	1.2
333.03	0.137	46.7	0.5
333.03	0.2077	78.4	0.6
333.03	0.3001	117.2	0.6
333.03	0.4023	166.7	0.7
333.03	0.4645	202.2	0.7
333.03	0.6377	284.8	0.7
333.03	0.7582	355.2	1.1
333.03	0.8297	483	1.9
348.25	0.0736	38.9	0.5
348.25	0.1432	62.6	0.5
348.25	0.2469	100.5	0.6
348.25	0.3234	139.3	0.7
348.25	0.4042	184.1	0.7
348.25	0.5132	242.1	0.7
348.25	0.5658	277.7	0.8
348.25	0.7177	388.2	0.6
348.25	0.755	401.5	0.8
348.25	0.8241	445.2	0.8
362.92	0.1016	47.2	0.6
362.92	0.1668	73.3	0.6
362.92	0.2312	101.4	0.6
362.92	0.3079	136.6	0.7
362.92	0.3719	182.4	0.7
362.92	0.4681	223.3	0.7
362.92	0.5653	284.7	0.8
362.92	0.6285	338.3	0.9
362.92	0.7165	399.1	0.8

System: propan-2-ol + carbon dioxide; phases: Gas, Liquid
Property: Mole fraction of carbon dioxide (Gas); method: Chromatography
Mole fraction of carbon dioxide	Temperature, K	Mole fraction of carbon dioxide	uncertainty
0.0736	348.25	0.9418	0.016
0.1016	362.92	0.9255	0.016
0.1267	313.22	0.9904	0.0096
0.137	333.03	0.9767	0.016
0.1432	348.25	0.9593	0.016
0.1668	362.92	0.9393	0.016
0.2066	313.22	0.9923	0.0077
0.2077	333.03	0.9793	0.016
0.2312	362.92	0.9431	0.016
0.2469	348.25	0.9635	0.016
0.3001	333.03	0.9821	0.016
0.3029	313.22	0.9924	0.0076
0.3079	362.92	0.9467	0.016
0.3234	348.25	0.9658	0.016
0.3719	362.92	0.9435	0.016
0.3845	313.22	0.9917	0.0083
0.4023	333.03	0.979	0.016
0.4042	348.25	0.9613	0.016
0.4501	313.22	0.991	0.009
0.4645	333.03	0.9765	0.016
0.4681	362.92	0.9341	0.016
0.5132	348.25	0.9519	0.016
0.554	313.22	0.9901	0.0099
0.5653	362.92	0.9213	0.016
0.5658	348.25	0.947	0.016
0.6285	362.92	0.9032	0.016
0.6377	333.03	0.9687	0.016
0.6472	313.22	0.9885	0.0115
0.7165	362.92	0.8545	0.0161
0.7177	348.25	0.9165	0.016
0.7539	313.22	0.987	0.013
0.755	348.25	0.8944	0.016
0.7582	333.03	0.9523	0.016
0.8241	348.25	0.8858	0.016
0.8297	333.03	0.9265	0.016
0.902	313.22	0.9824	0.016
