Measured thermophysical data. Effect of bromine substitution on the solubility of gases in hydrocarbons and fluorocarbons
Source: Fluid Phase Equilib., 2007, 10.1016/j.fluid.2006.11.013
Compound 1: octane, C8H18, InChI=1S/C8H18/c1-3-5-7-8-6-4-2/h3-8H2,1-2H3
Compound 2: 1-bromooctane, C8H17Br, InChI=1S/C8H17Br/c1-2-3-4-5-6-7-8-9/h2-8H2,1H3
Compound 3: oxygen, O2, InChI=1S/O2/c1-2
Compound 4: carbon dioxide, CO2, InChI=1S/CO2/c2-1-3

System: octane + oxygen; phases: Liquid, Gas
Property: Ostwald coefficient (Liquid); method: isobaric saturation technique
Temperature, K	Pressure, kPa	Ostwald coefficient	uncertainty
288.61	96.5	0.305	0.018
293.41	97	0.307	0.019
298.5	97.1	0.307	0.019
303.02	97	0.307	0.019
312.05	97.3	0.307	0.019

System: octane + carbon dioxide; phases: Liquid, Gas
Property: Ostwald coefficient (Liquid); method: isobaric saturation technique
Temperature, K	Pressure, kPa	Ostwald coefficient	uncertainty
289.58	95	1.87	0.11
292.77	94.6	1.83	0.11
296.9	95.1	1.78	0.11
303.27	95	1.64	0.1
306.83	93.9	1.6	0.1
311.26	96.3	1.57	0.09

System: 1-bromooctane + oxygen; phases: Liquid, Gas
Property: Ostwald coefficient (Liquid); method: isobaric saturation technique
Temperature, K	Pressure, kPa	Ostwald coefficient	uncertainty
289.07	97.4	0.18	0.011
292.98	96.9	0.18	0.011
298.36	96.9	0.182	0.011
303.31	97.4	0.18	0.011
308.12	97.3	0.179	0.011
312.67	97.6	0.18	0.011

System: 1-bromooctane + carbon dioxide; phases: Liquid, Gas
Property: Ostwald coefficient (Liquid); method: isobaric saturation technique
Temperature, K	Pressure, kPa	Ostwald coefficient	uncertainty
288.91	99.4	1.94	0.12
293.04	96.2	1.89	0.11
297.14	96.8	1.81	0.11
303.26	96.4	1.71	0.1
307.34	98.9	1.61	0.1
311.31	97.2	1.47	0.09
